0
                    3D
 Structure written by MMmdl.
179189  0  0  1  0            999 V2000
  -30.6656  -14.6254   20.4944 C   0  0  0  0  0  0
  -30.4225  -12.3876   19.4436 C   0  0  0  0  0  0
  -29.4952  -12.4967   18.2155 C   0  0  0  0  0  0
  -28.0223  -12.3240   18.6354 C   0  0  0  0  0  0
  -27.6413  -13.2078   19.8517 C   0  0  2  0  0  0
  -28.6909  -13.1107   20.9810 C   0  0  0  0  0  0
  -25.2519  -13.8135   20.5688 C   0  0  0  0  0  0
  -24.1790  -13.0413   20.9203 C   0  0  0  0  0  0
  -24.6358  -11.6885   20.8759 C   0  0  0  0  0  0
  -23.9035  -10.4278   21.0416 C   0  0  0  0  0  0
  -24.3598   -9.4198   21.9191 C   0  0  0  0  0  0
  -23.6282   -8.2231   22.0756 C   0  0  0  0  0  0
  -22.4265   -8.0269   21.3543 C   0  0  0  0  0  0
  -21.9893   -9.0238   20.4644 C   0  0  0  0  0  0
  -22.7213  -10.2120   20.3055 C   0  0  0  0  0  0
  -21.6848   -6.0727   22.5279 C   0  0  0  0  0  0
  -21.4008   -6.5635   23.8212 C   0  0  0  0  0  0
  -21.3658   -5.6787   24.9176 C   0  0  0  0  0  0
  -21.6043   -4.3051   24.7227 C   0  0  0  0  0  0
  -21.8820   -3.8139   23.4348 C   0  0  0  0  0  0
  -21.9192   -4.6955   22.3403 C   0  0  0  0  0  0
  -22.7819  -13.5217   21.1867 C   0  0  0  0  0  0
  -22.1660   -4.2142   21.0981 F   0  0  0  0  0  0
  -21.5632   -3.4535   25.7739 F   0  0  0  0  0  0
  -30.0024  -13.4299   20.3994 N   0  0  0  0  0  0
  -26.2925  -12.9296   20.3297 N   0  0  0  0  0  0
  -25.9279  -11.6465   20.5768 N   0  0  0  0  0  0
  -22.0459  -12.8208   22.0424 N   0  0  0  0  0  0
  -25.4232  -15.1853   20.4097 N   0  0  0  0  0  0
  -31.8529  -14.7250   20.1703 O   0  0  0  0  0  0
  -21.6632   -6.8863   21.4240 O   0  0  0  0  0  0
  -22.3510  -14.5529   20.6723 O   0  0  0  0  0  0
  -24.6225  -31.8619   23.2046 C   0  0  0  0  0  0
  -25.9079  -32.4795   23.8370 C   0  0  1  0  0  0
  -27.2298  -27.3413   20.1174 C   0  0  0  0  0  0
  -25.5912  -33.8594   24.2298 N   0  0  0  0  0  0
  -23.4162  -30.4847   21.5465 C   0  0  2  0  0  0
  -24.8636  -28.9423   20.1095 C   0  0  0  0  0  0
  -22.7466  -29.4628   22.4947 C   0  0  0  0  0  0
  -18.0284  -28.1383   22.8493 C   0  0  0  0  0  0
  -24.1490  -36.7281   23.2643 C   0  0  0  0  0  0
  -25.9541  -30.7997   21.3722 C   0  0  0  0  0  0
  -26.0280  -29.4286   20.7149 C   0  0  0  0  0  0
  -27.2113  -28.6380   20.7115 C   0  0  0  0  0  0
  -26.0469  -26.9066   19.4755 C   0  0  0  0  0  0
  -24.8736  -27.6863   19.4818 C   0  0  0  0  0  0
  -23.6293  -29.8191   20.1605 C   0  0  0  0  0  0
  -25.4116  -36.3091   24.0340 C   0  0  1  0  0  0
  -20.5884  -28.3675   23.1297 C   0  0  2  0  0  0
  -20.6773  -26.9401   22.5417 C   0  0  0  0  0  0
  -19.5748  -26.6381   21.5218 C   0  0  0  0  0  0
  -18.1924  -26.7929   22.1623 C   0  0  0  0  0  0
  -19.1537  -28.8848   23.2892 C   0  0  0  0  0  0
  -18.9462  -30.1454   23.8899 C   0  0  0  0  0  0
  -17.6460  -30.6583   24.0572 C   0  0  0  0  0  0
  -25.9050  -34.9462   23.5120 C   0  0  0  0  0  0
  -16.5349  -29.9090   23.6329 C   0  0  0  0  0  0
  -16.7271  -28.6510   23.0342 C   0  0  0  0  0  0
  -26.4477  -31.6592   25.0724 C   0  0  0  0  0  0
  -25.3715  -31.3703   26.1450 C   0  0  0  0  0  0
  -27.0326  -30.3033   24.6143 C   0  0  0  0  0  0
  -27.6052  -32.4313   25.7478 C   0  0  0  0  0  0
  -27.5577  -37.1802   24.8469 C   0  0  0  0  0  0
  -21.4179  -29.3035   22.3696 N   0  0  0  0  0  0
  -26.4295  -37.3782   23.9413 N   0  0  0  0  0  0
  -24.6831  -31.0650   22.0983 N   0  0  0  0  0  0
  -23.4203  -28.8168   23.3015 O   0  0  0  0  0  0
  -28.3737  -26.5380   20.1902 O   0  0  0  0  0  0
  -26.5615  -34.8926   22.4684 O   0  0  0  0  0  0
  -23.5392  -32.1403   23.7387 O   0  0  0  0  0  0
  -31.3067  -20.4538   19.7193 C   0  0  0  0  0  0
  -31.8213  -21.7249   19.4395 C   0  0  0  0  0  0
  -30.0625  -20.3225   20.3669 C   0  0  0  0  0  0
  -31.1625  -22.9014   19.7890 C   0  0  0  0  0  0
  -29.3275  -21.5400   20.6686 C   0  0  0  0  0  0
  -29.8724  -22.8640   20.4015 C   0  0  0  0  0  0
  -29.4570  -17.9235   19.4890 C   0  0  0  0  0  0
  -30.6341  -18.0971   21.6366 C   0  0  0  0  0  0
  -29.0697  -16.4454   19.8281 C   0  0  0  0  0  0
  -30.2513  -16.6157   21.9726 C   0  0  0  0  0  0
  -29.6256  -18.8493   20.7221 C   0  0  0  0  0  0
  -33.1541  -21.9997   18.7953 C   0  0  1  0  0  0
  -32.0922  -24.0825   19.4604 C   0  0  0  0  0  0
  -27.9532  -21.4134   21.3128 C   0  0  0  0  0  0
  -33.3853  -21.2144   17.4939 C   0  0  0  0  0  0
  -32.8021  -24.6063   20.7291 C   0  0  0  0  0  0
  -31.4263  -25.2407   18.6968 C   0  0  0  0  0  0
  -29.2098  -24.2067   20.8935 C   0  0  0  0  0  0
  -28.3204  -25.0859   19.9254 C   0  0  0  0  0  0
  -29.9385  -15.7517   20.8112 N   0  0  0  0  0  0
  -33.1071  -23.4586   18.5736 N   0  3  0  0  0  0
  -31.4654  -12.4949   19.1394 H   0  0  0  0  0  0
  -30.3433  -11.4003   19.9009 H   0  0  0  0  0  0
  -29.7625  -11.7448   17.4720 H   0  0  0  0  0  0
  -29.6291  -13.4662   17.7328 H   0  0  0  0  0  0
  -27.8710  -11.2728   18.8824 H   0  0  0  0  0  0
  -27.3609  -12.5344   17.7938 H   0  0  0  0  0  0
  -27.6325  -14.2270   19.4792 H   0  0  0  0  0  0
  -28.7041  -12.1092   21.4127 H   0  0  0  0  0  0
  -28.4405  -13.7918   21.7959 H   0  0  0  0  0  0
  -25.2745   -9.5681   22.4763 H   0  0  0  0  0  0
  -23.9995   -7.4620   22.7473 H   0  0  0  0  0  0
  -21.0825   -8.8749   19.8948 H   0  0  0  0  0  0
  -22.3673  -10.9657   19.6160 H   0  0  0  0  0  0
  -21.1997   -7.6142   23.9713 H   0  0  0  0  0  0
  -21.1477   -6.0518   25.9078 H   0  0  0  0  0  0
  -22.0601   -2.7602   23.2849 H   0  0  0  0  0  0
  -22.4066  -11.9856   22.4792 H   0  0  0  0  0  0
  -21.1081  -13.1234   22.2642 H   0  0  0  0  0  0
  -24.6597  -15.8428   20.5225 H   0  0  0  0  0  0
  -26.2814  -15.6223   20.1019 H   0  0  0  0  0  0
  -26.7152  -32.5476   23.1123 H   0  0  0  0  0  0
  -25.0071  -33.9750   25.0451 H   0  0  0  0  0  0
  -22.7093  -31.3046   21.4050 H   0  0  0  0  0  0
  -23.3766  -35.9598   23.3308 H   0  0  0  0  0  0
  -24.3582  -36.8888   22.2054 H   0  0  0  0  0  0
  -23.7227  -37.6483   23.6655 H   0  0  0  0  0  0
  -26.0836  -31.5653   20.6058 H   0  0  0  0  0  0
  -26.8359  -30.8475   21.9996 H   0  0  0  0  0  0
  -28.1049  -29.0084   21.1942 H   0  0  0  0  0  0
  -26.0014  -25.9590   18.9617 H   0  0  0  0  0  0
  -23.9824  -27.3118   18.9968 H   0  0  0  0  0  0
  -23.7456  -30.5973   19.4054 H   0  0  0  0  0  0
  -22.7508  -29.2456   19.8597 H   0  0  0  0  0  0
  -25.1299  -36.1942   25.0834 H   0  0  0  0  0  0
  -20.9985  -28.3236   24.1413 H   0  0  0  0  0  0
  -20.5666  -26.2283   23.3611 H   0  0  0  0  0  0
  -21.6641  -26.7425   22.1209 H   0  0  0  0  0  0
  -19.6911  -25.6299   21.1231 H   0  0  0  0  0  0
  -19.6694  -27.3207   20.6761 H   0  0  0  0  0  0
  -17.4207  -26.6692   21.4010 H   0  0  0  0  0  0
  -18.0308  -26.0064   22.9006 H   0  0  0  0  0  0
  -19.7940  -30.7275   24.2255 H   0  0  0  0  0  0
  -17.5017  -31.6261   24.5179 H   0  0  0  0  0  0
  -15.5352  -30.2992   23.7658 H   0  0  0  0  0  0
  -15.8670  -28.0842   22.7033 H   0  0  0  0  0  0
  -24.5917  -30.7022   25.7773 H   0  0  0  0  0  0
  -24.8866  -32.2853   26.4866 H   0  0  0  0  0  0
  -25.8042  -30.8895   27.0230 H   0  0  0  0  0  0
  -26.2898  -29.6779   24.1181 H   0  0  0  0  0  0
  -27.4076  -29.7283   25.4618 H   0  0  0  0  0  0
  -27.8738  -30.4357   23.9333 H   0  0  0  0  0  0
  -27.2696  -33.3631   26.2042 H   0  0  0  0  0  0
  -28.3859  -32.6836   25.0288 H   0  0  0  0  0  0
  -28.0722  -31.8438   26.5392 H   0  0  0  0  0  0
  -28.2605  -38.0092   24.7513 H   0  0  0  0  0  0
  -28.1062  -36.2621   24.6299 H   0  0  0  0  0  0
  -27.2293  -37.1450   25.8874 H   0  0  0  0  0  0
  -20.9346  -29.8769   21.6924 H   0  0  0  0  0  0
  -26.0172  -38.2857   24.1413 H   0  0  0  0  0  0
  -31.8870  -19.5796   19.4604 H   0  0  0  0  0  0
  -28.7023  -18.3476   18.8253 H   0  0  0  0  0  0
  -30.3811  -17.9077   18.9103 H   0  0  0  0  0  0
  -31.6196  -18.0886   21.1709 H   0  0  0  0  0  0
  -30.7528  -18.6527   22.5677 H   0  0  0  0  0  0
  -29.0387  -15.8811   18.8943 H   0  0  0  0  0  0
  -28.0560  -16.4362   20.2264 H   0  0  0  0  0  0
  -29.3720  -16.6143   22.6179 H   0  0  0  0  0  0
  -31.0500  -16.1665   22.5655 H   0  0  0  0  0  0
  -28.6757  -18.8760   21.2527 H   0  0  0  0  0  0
  -33.9371  -21.7742   19.5216 H   0  0  0  0  0  0
  -27.3789  -20.6136   20.8459 H   0  0  0  0  0  0
  -27.3504  -22.3128   21.1999 H   0  0  0  0  0  0
  -28.0484  -21.1944   22.3767 H   0  0  0  0  0  0
  -32.5903  -21.3921   16.7688 H   0  0  0  0  0  0
  -33.4215  -20.1423   17.6862 H   0  0  0  0  0  0
  -34.3334  -21.4890   17.0316 H   0  0  0  0  0  0
  -32.1154  -25.0531   21.4438 H   0  0  0  0  0  0
  -33.5358  -25.3751   20.4847 H   0  0  0  0  0  0
  -33.3272  -23.8073   21.2540 H   0  0  0  0  0  0
  -30.7906  -25.8434   19.3389 H   0  0  0  0  0  0
  -30.8309  -24.8830   17.8564 H   0  0  0  0  0  0
  -32.1743  -25.9282   18.3008 H   0  0  0  0  0  0
  -30.0064  -24.8458   21.2584 H   0  0  0  0  0  0
  -28.6419  -24.0119   21.8023 H   0  0  0  0  0  0
  -27.3128  -24.6790   19.9831 H   0  0  0  0  0  0
  -28.6409  -24.9404   18.8948 H   0  0  0  0  0  0
  -32.8033  -23.6016   17.6261 H   0  0  0  0  0  0
  -34.0150  -23.8792   18.6816 H   0  0  0  0  0  0
  1 25  1  0  0  0
  1 30  2  0  0  0
  1 90  1  0  0  0
  2  3  1  0  0  0
  2 25  1  0  0  0
  2 92  1  0  0  0
  2 93  1  0  0  0
  3  4  1  0  0  0
  3 94  1  0  0  0
  3 95  1  0  0  0
  4  5  1  0  0  0
  4 96  1  0  0  0
  4 97  1  0  0  0
  5  6  1  0  0  0
  5 26  1  0  0  0
  5 98  1  0  0  0
  6 25  1  0  0  0
  6 99  1  0  0  0
  6100  1  0  0  0
  7  8  2  0  0  0
  7 26  1  0  0  0
  7 29  1  0  0  0
  8  9  1  0  0  0
  8 22  1  0  0  0
  9 10  1  0  0  0
  9 27  2  0  0  0
 10 11  2  0  0  0
 10 15  1  0  0  0
 11 12  1  0  0  0
 11101  1  0  0  0
 12 13  2  0  0  0
 12102  1  0  0  0
 13 14  1  0  0  0
 13 31  1  0  0  0
 14 15  2  0  0  0
 14103  1  0  0  0
 15104  1  0  0  0
 16 17  2  0  0  0
 16 21  1  0  0  0
 16 31  1  0  0  0
 17 18  1  0  0  0
 17105  1  0  0  0
 18 19  2  0  0  0
 18106  1  0  0  0
 19 20  1  0  0  0
 19 24  1  0  0  0
 20 21  2  0  0  0
 20107  1  0  0  0
 21 23  1  0  0  0
 22 28  1  0  0  0
 22 32  2  0  0  0
 26 27  1  0  0  0
 28108  1  0  0  0
 28109  1  0  0  0
 29110  1  0  0  0
 29111  1  0  0  0
 33 34  1  0  0  0
 33 66  1  0  0  0
 33 70  2  0  0  0
 34 36  1  0  0  0
 34 59  1  0  0  0
 34112  1  0  0  0
 35 44  2  0  0  0
 35 45  1  0  0  0
 35 68  1  0  0  0
 36 56  1  0  0  0
 36113  1  0  0  0
 37 39  1  0  0  0
 37 47  1  0  0  0
 37 66  1  0  0  0
 37114  1  0  0  0
 38 43  2  0  0  0
 38 46  1  0  0  0
 38 47  1  0  0  0
 39 64  1  0  0  0
 39 67  2  0  0  0
 40 52  1  0  0  0
 40 53  2  0  0  0
 40 58  1  0  0  0
 41115  1  0  0  0
 41116  1  0  0  0
 41117  1  0  0  0
 41 48  1  0  0  0
 42 43  1  0  0  0
 42 66  1  0  0  0
 42118  1  0  0  0
 42119  1  0  0  0
 43 44  1  0  0  0
 44120  1  0  0  0
 45 46  2  0  0  0
 45121  1  0  0  0
 46122  1  0  0  0
 47123  1  0  0  0
 47124  1  0  0  0
 48 56  1  0  0  0
 48 65  1  0  0  0
 48125  1  0  0  0
 49 50  1  0  0  0
 49 53  1  0  0  0
 49 64  1  0  0  0
 49126  1  0  0  0
 50 51  1  0  0  0
 50127  1  0  0  0
 50128  1  0  0  0
 51 52  1  0  0  0
 51129  1  0  0  0
 51130  1  0  0  0
 52131  1  0  0  0
 52132  1  0  0  0
 53 54  1  0  0  0
 54 55  2  0  0  0
 54133  1  0  0  0
 55 57  1  0  0  0
 55134  1  0  0  0
 56 69  2  0  0  0
 57 58  2  0  0  0
 57135  1  0  0  0
 58136  1  0  0  0
 59 60  1  0  0  0
 59 61  1  0  0  0
 59 62  1  0  0  0
 60137  1  0  0  0
 60138  1  0  0  0
 60139  1  0  0  0
 61140  1  0  0  0
 61141  1  0  0  0
 61142  1  0  0  0
 62143  1  0  0  0
 62144  1  0  0  0
 62145  1  0  0  0
 63 65  1  0  0  0
 63146  1  0  0  0
 63147  1  0  0  0
 63148  1  0  0  0
 64149  1  0  0  0
 65150  1  0  0  0
 68 89  1  0  0  0
 71 72  2  0  0  0
 71 73  1  0  0  0
 71151  1  0  0  0
 72 74  1  0  0  0
 72 82  1  0  0  0
 73 75  2  0  0  0
 73 81  1  0  0  0
 74 76  2  0  0  0
 74 83  1  0  0  0
 75 76  1  0  0  0
 75 84  1  0  0  0
 76 88  1  0  0  0
 77 79  1  0  0  0
 77 81  1  0  0  0
 77152  1  0  0  0
 77153  1  0  0  0
 78 80  1  0  0  0
 78 81  1  0  0  0
 78154  1  0  0  0
 78155  1  0  0  0
 79 90  1  0  0  0
 79156  1  0  0  0
 79157  1  0  0  0
 80 90  1  0  0  0
 80158  1  0  0  0
 80159  1  0  0  0
 81160  1  0  0  0
 82 85  1  0  0  0
 82 91  1  0  0  0
 82161  1  0  0  0
 83 86  1  0  0  0
 83 87  1  0  0  0
 83 91  1  0  0  0
 84162  1  0  0  0
 84163  1  0  0  0
 84164  1  0  0  0
 85165  1  0  0  0
 85166  1  0  0  0
 85167  1  0  0  0
 86168  1  0  0  0
 86169  1  0  0  0
 86170  1  0  0  0
 87171  1  0  0  0
 87172  1  0  0  0
 87173  1  0  0  0
 88 89  1  0  0  0
 88174  1  0  0  0
 88175  1  0  0  0
 89176  1  0  0  0
 89177  1  0  0  0
 91178  1  0  0  0
 91179  1  0  0  0
M  CHG  1  91   1
M  ISO  4   1 100  68 101  89 101  90 100
M  END
> <chiral flag>
0

> <version>
0

> <s_m_source_file>
/data/baiqing/PycharmProjects/Reinvent-master-3.2/result/LINK_invent/BTK/process_docking_weight1_custom_sum_contain_oxygen_bond_distance_aromatic_linkinvent_7_9_3/rearranged_h_0164.sdf

> <i_m_source_file_index>
1

> <r_mmod_Potential_Energy-OPLS-2005>
123.776596069336

> <r_mmod_Stretch_Energy-OPLS-2005>
83.4315872192383

> <r_mmod_Bend_Energy-OPLS-2005>
187.524887084961

> <r_mmod_Torsional_Energy-OPLS-2005>
357.413543701172

> <r_mmod_Improper_Torsional_Energy-OPLS-2005>
4.81129693984985

> <r_mmod_Van_der_Waal_Energy-OPLS-2005>
141.436248779297

> <r_mmod_Electrostatic_Energy-OPLS-2005>
-271.433837890625

> <r_mmod_Solvation_Energy-OPLS-2005>
-423.745300292969

> <b_mmod_Minimization_Converged-OPLS-2005>
0

> <r_mmod_RMS_Derivative-OPLS-2005>
0.996492087841034

$$$$
1
                    3D
 Structure written by MMmdl.
160169  0  0  1  0            999 V2000
  -30.5380  -15.0976   20.4304 C   0  0  0  0  0  0
  -30.4384  -12.6966   19.5195 C   0  0  0  0  0  0
  -29.5274  -12.5476   18.2780 C   0  0  0  0  0  0
  -28.0696  -12.3081   18.7012 C   0  0  0  0  0  0
  -27.6221  -13.2670   19.8331 C   0  0  2  0  0  0
  -28.6606  -13.3808   20.9702 C   0  0  0  0  0  0
  -25.2442  -13.8231   20.5734 C   0  0  0  0  0  0
  -24.1777  -13.0446   20.9214 C   0  0  0  0  0  0
  -24.6395  -11.6920   20.8734 C   0  0  0  0  0  0
  -23.9075  -10.4288   21.0394 C   0  0  0  0  0  0
  -24.3628   -9.4198   21.9169 C   0  0  0  0  0  0
  -23.6301   -8.2234   22.0753 C   0  0  0  0  0  0
  -22.4277   -8.0266   21.3544 C   0  0  0  0  0  0
  -21.9913   -9.0233   20.4641 C   0  0  0  0  0  0
  -22.7247  -10.2111   20.3042 C   0  0  0  0  0  0
  -21.6850   -6.0724   22.5266 C   0  0  0  0  0  0
  -21.4026   -6.5636   23.8197 C   0  0  0  0  0  0
  -21.3649   -5.6797   24.9166 C   0  0  0  0  0  0
  -21.6048   -4.3057   24.7225 C   0  0  0  0  0  0
  -21.8815   -3.8138   23.4349 C   0  0  0  0  0  0
  -21.9203   -4.6953   22.3401 C   0  0  0  0  0  0
  -22.7787  -13.5185   21.1868 C   0  0  0  0  0  0
  -22.1665   -4.2132   21.0978 F   0  0  0  0  0  0
  -21.5622   -3.4542   25.7743 F   0  0  0  0  0  0
  -29.9205  -13.8308   20.3576 N   0  0  0  0  0  0
  -26.2871  -12.9511   20.3252 N   0  0  0  0  0  0
  -25.9340  -11.6617   20.5742 N   0  0  0  0  0  0
  -22.0465  -12.8152   22.0435 N   0  0  0  0  0  0
  -25.4142  -15.1970   20.4207 N   0  0  0  0  0  0
  -31.7530  -15.0909   20.1994 O   0  0  0  0  0  0
  -21.6645   -6.8858   21.4224 O   0  0  0  0  0  0
  -22.3443  -14.5484   20.6712 O   0  0  0  0  0  0
  -24.6557  -31.8286   23.1743 C   0  0  0  0  0  0
  -25.9262  -32.4612   23.8188 C   0  0  1  0  0  0
  -27.2107  -26.9706   20.2212 C   0  0  0  0  0  0
  -25.5962  -33.8415   24.2098 N   0  0  0  0  0  0
  -23.4686  -30.4362   21.5250 C   0  0  2  0  0  0
  -24.9208  -28.8246   20.1293 C   0  0  0  0  0  0
  -22.7631  -29.4431   22.4833 C   0  0  0  0  0  0
  -18.0290  -28.1376   22.8437 C   0  0  0  0  0  0
  -24.1502  -36.7238   23.2644 C   0  0  0  0  0  0
  -26.0296  -30.6540   21.3949 C   0  0  0  0  0  0
  -26.1010  -29.2396   20.7605 C   0  0  0  0  0  0
  -27.2488  -28.3324   20.7796 C   0  0  0  0  0  0
  -26.0087  -26.7041   19.5289 C   0  0  0  0  0  0
  -24.8928  -27.5732   19.4949 C   0  0  0  0  0  0
  -23.7060  -29.7471   20.1531 C   0  0  0  0  0  0
  -25.4124  -36.2954   24.0303 C   0  0  1  0  0  0
  -20.5909  -28.3714   23.1207 C   0  0  2  0  0  0
  -20.6777  -26.9416   22.5387 C   0  0  0  0  0  0
  -19.5759  -26.6345   21.5189 C   0  0  0  0  0  0
  -18.1923  -26.7903   22.1589 C   0  0  0  0  0  0
  -19.1556  -28.8857   23.2797 C   0  0  0  0  0  0
  -18.9488  -30.1447   23.8814 C   0  0  0  0  0  0
  -17.6497  -30.6578   24.0522 C   0  0  0  0  0  0
  -25.9087  -34.9354   23.5013 C   0  0  0  0  0  0
  -16.5371  -29.9072   23.6336 C   0  0  0  0  0  0
  -16.7281  -28.6496   23.0341 C   0  0  0  0  0  0
  -26.4533  -31.6534   25.0687 C   0  0  0  0  0  0
  -25.3684  -31.3774   26.1368 C   0  0  0  0  0  0
  -27.0423  -30.2913   24.6357 C   0  0  0  0  0  0
  -27.6000  -32.4372   25.7489 C   0  0  0  0  0  0
  -27.5565  -37.1768   24.8461 C   0  0  0  0  0  0
  -21.4294  -29.3048   22.3604 N   0  0  0  0  0  0
  -26.4265  -37.3703   23.9418 N   0  0  0  0  0  0
  -24.7385  -31.0009   22.0857 N   0  0  0  0  0  0
  -23.4208  -28.7970   23.3048 O   0  0  0  0  0  0
  -28.2599  -25.9388   20.1183 O   0  0  0  0  0  0
  -26.5679  -34.8883   22.4603 O   0  0  0  0  0  0
  -23.5642  -32.1224   23.6875 O   0  0  0  0  0  0
  -27.4656  -19.9837   20.6216 C   0  0  0  0  0  0
  -28.8443  -20.1856   20.5079 C   0  0  0  0  0  0
  -26.5235  -21.0257   20.7308 C   0  0  0  0  0  0
  -29.1995  -21.6700   20.5066 C   0  0  0  0  0  0
  -26.8887  -22.4086   20.7439 C   0  0  0  0  0  0
  -28.2381  -22.8592   20.5932 C   0  0  0  0  0  0
  -30.2246  -17.6331   21.4237 C   0  0  0  0  0  0
  -29.1845  -17.3340   19.6662 C   0  0  0  0  0  0
  -29.6879  -18.7075   20.3542 C   0  0  0  0  0  0
  -25.0709  -20.5788   20.8686 C   0  0  0  0  0  0
  -30.6795  -21.9992   20.4513 C   0  0  0  0  0  0
  -25.7803  -23.4031   21.0632 C   0  0  0  0  0  0
  -28.5408  -24.5357   20.8819 C   0  0  0  0  0  0
  -29.8431  -16.3629   20.6409 N   0  0  0  0  0  0
  -31.4666  -12.8652   19.1964 H   0  0  0  0  0  0
  -30.4624  -11.7705   20.0977 H   0  0  0  0  0  0
  -29.8731  -11.7256   17.6519 H   0  0  0  0  0  0
  -29.5905  -13.4498   17.6680 H   0  0  0  0  0  0
  -27.9963  -11.2774   19.0493 H   0  0  0  0  0  0
  -27.4016  -12.3882   17.8438 H   0  0  0  0  0  0
  -27.5609  -14.2507   19.3674 H   0  0  0  0  0  0
  -28.7818  -12.4308   21.4941 H   0  0  0  0  0  0
  -28.3282  -14.1076   21.7132 H   0  0  0  0  0  0
  -25.2764   -9.5674   22.4760 H   0  0  0  0  0  0
  -23.9992   -7.4631   22.7489 H   0  0  0  0  0  0
  -21.0836   -8.8745   19.8961 H   0  0  0  0  0  0
  -22.3682  -10.9647   19.6156 H   0  0  0  0  0  0
  -21.2018   -7.6147   23.9690 H   0  0  0  0  0  0
  -21.1477   -6.0535   25.9063 H   0  0  0  0  0  0
  -22.0607   -2.7600   23.2859 H   0  0  0  0  0  0
  -22.4132  -11.9813   22.4788 H   0  0  0  0  0  0
  -21.1081  -13.1146   22.2685 H   0  0  0  0  0  0
  -24.6535  -15.8574   20.5373 H   0  0  0  0  0  0
  -26.2803  -15.6309   20.1308 H   0  0  0  0  0  0
  -26.7339  -32.5172   23.0907 H   0  0  0  0  0  0
  -25.0113  -33.9507   25.0244 H   0  0  0  0  0  0
  -22.7779  -31.2620   21.3519 H   0  0  0  0  0  0
  -23.3746  -35.9601   23.3286 H   0  0  0  0  0  0
  -24.3585  -36.8902   22.2070 H   0  0  0  0  0  0
  -23.7293  -37.6424   23.6719 H   0  0  0  0  0  0
  -26.1834  -31.3940   20.6089 H   0  0  0  0  0  0
  -26.8981  -30.7250   22.0379 H   0  0  0  0  0  0
  -28.1594  -28.6562   21.2631 H   0  0  0  0  0  0
  -25.9195  -25.7584   19.0128 H   0  0  0  0  0  0
  -23.9985  -27.2493   18.9779 H   0  0  0  0  0  0
  -23.8646  -30.5079   19.3889 H   0  0  0  0  0  0
  -22.8211  -29.1914   19.8381 H   0  0  0  0  0  0
  -25.1321  -36.1764   25.0796 H   0  0  0  0  0  0
  -20.9918  -28.3305   24.1363 H   0  0  0  0  0  0
  -20.5636  -26.2340   23.3622 H   0  0  0  0  0  0
  -21.6658  -26.7417   22.1210 H   0  0  0  0  0  0
  -19.6949  -25.6233   21.1279 H   0  0  0  0  0  0
  -19.6704  -27.3110   20.6671 H   0  0  0  0  0  0
  -17.4197  -26.6623   21.3979 H   0  0  0  0  0  0
  -18.0325  -26.0051   22.8980 H   0  0  0  0  0  0
  -19.7998  -30.7230   24.2167 H   0  0  0  0  0  0
  -17.5089  -31.6259   24.5125 H   0  0  0  0  0  0
  -15.5373  -30.2950   23.7725 H   0  0  0  0  0  0
  -15.8671  -28.0794   22.7099 H   0  0  0  0  0  0
  -24.5925  -30.7034   25.7735 H   0  0  0  0  0  0
  -24.8815  -32.2971   26.4628 H   0  0  0  0  0  0
  -25.7982  -30.9098   27.0247 H   0  0  0  0  0  0
  -26.3067  -29.6598   24.1360 H   0  0  0  0  0  0
  -27.3960  -29.7261   25.4991 H   0  0  0  0  0  0
  -27.9001  -30.4097   23.9736 H   0  0  0  0  0  0
  -27.2533  -33.3752   26.1845 H   0  0  0  0  0  0
  -28.3909  -32.6814   25.0386 H   0  0  0  0  0  0
  -28.0535  -31.8639   26.5585 H   0  0  0  0  0  0
  -28.2515  -38.0117   24.7474 H   0  0  0  0  0  0
  -28.1101  -36.2614   24.6302 H   0  0  0  0  0  0
  -27.2255  -37.1417   25.8855 H   0  0  0  0  0  0
  -20.9535  -29.8848   21.6829 H   0  0  0  0  0  0
  -26.0102  -38.2744   24.1494 H   0  0  0  0  0  0
  -27.1127  -18.9629   20.6438 H   0  0  0  0  0  0
  -29.6924  -17.7135   22.3723 H   0  0  0  0  0  0
  -31.2960  -17.7354   21.6078 H   0  0  0  0  0  0
  -29.5371  -17.2352   18.6401 H   0  0  0  0  0  0
  -28.1018  -17.2297   19.6791 H   0  0  0  0  0  0
  -30.5590  -19.0078   19.7692 H   0  0  0  0  0  0
  -24.9960  -19.5159   21.1037 H   0  0  0  0  0  0
  -24.5283  -20.7343   19.9332 H   0  0  0  0  0  0
  -24.5496  -21.1113   21.6643 H   0  0  0  0  0  0
  -31.2990  -21.1214   20.6303 H   0  0  0  0  0  0
  -30.9498  -22.7371   21.2100 H   0  0  0  0  0  0
  -30.9376  -22.3990   19.4723 H   0  0  0  0  0  0
  -26.0624  -24.4393   20.9312 H   0  0  0  0  0  0
  -25.4879  -23.2908   22.1079 H   0  0  0  0  0  0
  -24.9008  -23.2295   20.4466 H   0  0  0  0  0  0
  -29.6226  -24.5689   20.9932 H   0  0  0  0  0  0
  -28.1886  -24.6948   21.9009 H   0  0  0  0  0  0
  1 25  1  0  0  0
  1 30  2  0  0  0
  1 84  1  0  0  0
  2  3  1  0  0  0
  2 25  1  0  0  0
  2 85  1  0  0  0
  2 86  1  0  0  0
  3  4  1  0  0  0
  3 87  1  0  0  0
  3 88  1  0  0  0
  4  5  1  0  0  0
  4 89  1  0  0  0
  4 90  1  0  0  0
  5  6  1  0  0  0
  5 26  1  0  0  0
  5 91  1  0  0  0
  6 25  1  0  0  0
  6 92  1  0  0  0
  6 93  1  0  0  0
  7  8  2  0  0  0
  7 26  1  0  0  0
  7 29  1  0  0  0
  8  9  1  0  0  0
  8 22  1  0  0  0
  9 10  1  0  0  0
  9 27  2  0  0  0
 10 11  2  0  0  0
 10 15  1  0  0  0
 11 12  1  0  0  0
 11 94  1  0  0  0
 12 13  2  0  0  0
 12 95  1  0  0  0
 13 14  1  0  0  0
 13 31  1  0  0  0
 14 15  2  0  0  0
 14 96  1  0  0  0
 15 97  1  0  0  0
 16 17  2  0  0  0
 16 21  1  0  0  0
 16 31  1  0  0  0
 17 18  1  0  0  0
 17 98  1  0  0  0
 18 19  2  0  0  0
 18 99  1  0  0  0
 19 20  1  0  0  0
 19 24  1  0  0  0
 20 21  2  0  0  0
 20100  1  0  0  0
 21 23  1  0  0  0
 22 28  1  0  0  0
 22 32  2  0  0  0
 26 27  1  0  0  0
 28101  1  0  0  0
 28102  1  0  0  0
 29103  1  0  0  0
 29104  1  0  0  0
 33 34  1  0  0  0
 33 66  1  0  0  0
 33 70  2  0  0  0
 34 36  1  0  0  0
 34 59  1  0  0  0
 34105  1  0  0  0
 35 44  2  0  0  0
 35 45  1  0  0  0
 35 68  1  0  0  0
 36 56  1  0  0  0
 36106  1  0  0  0
 37 39  1  0  0  0
 37 47  1  0  0  0
 37 66  1  0  0  0
 37107  1  0  0  0
 38 43  2  0  0  0
 38 46  1  0  0  0
 38 47  1  0  0  0
 39 64  1  0  0  0
 39 67  2  0  0  0
 40 52  1  0  0  0
 40 53  2  0  0  0
 40 58  1  0  0  0
 41108  1  0  0  0
 41109  1  0  0  0
 41110  1  0  0  0
 41 48  1  0  0  0
 42 43  1  0  0  0
 42 66  1  0  0  0
 42111  1  0  0  0
 42112  1  0  0  0
 43 44  1  0  0  0
 44113  1  0  0  0
 45 46  2  0  0  0
 45114  1  0  0  0
 46115  1  0  0  0
 47116  1  0  0  0
 47117  1  0  0  0
 48 56  1  0  0  0
 48 65  1  0  0  0
 48118  1  0  0  0
 49 50  1  0  0  0
 49 53  1  0  0  0
 49 64  1  0  0  0
 49119  1  0  0  0
 50 51  1  0  0  0
 50120  1  0  0  0
 50121  1  0  0  0
 51 52  1  0  0  0
 51122  1  0  0  0
 51123  1  0  0  0
 52124  1  0  0  0
 52125  1  0  0  0
 53 54  1  0  0  0
 54 55  2  0  0  0
 54126  1  0  0  0
 55 57  1  0  0  0
 55127  1  0  0  0
 56 69  2  0  0  0
 57 58  2  0  0  0
 57128  1  0  0  0
 58129  1  0  0  0
 59 60  1  0  0  0
 59 61  1  0  0  0
 59 62  1  0  0  0
 60130  1  0  0  0
 60131  1  0  0  0
 60132  1  0  0  0
 61133  1  0  0  0
 61134  1  0  0  0
 61135  1  0  0  0
 62136  1  0  0  0
 62137  1  0  0  0
 62138  1  0  0  0
 63 65  1  0  0  0
 63139  1  0  0  0
 63140  1  0  0  0
 63141  1  0  0  0
 64142  1  0  0  0
 65143  1  0  0  0
 68 83  1  0  0  0
 71 72  2  0  0  0
 71 73  1  0  0  0
 71144  1  0  0  0
 72 74  1  0  0  0
 72 79  1  0  0  0
 73 75  2  0  0  0
 73 80  1  0  0  0
 74 76  2  0  0  0
 74 81  1  0  0  0
 75 76  1  0  0  0
 75 82  1  0  0  0
 76 83  1  0  0  0
 77 79  1  0  0  0
 77 84  1  0  0  0
 77145  1  0  0  0
 77146  1  0  0  0
 78 79  1  0  0  0
 78 84  1  0  0  0
 78147  1  0  0  0
 78148  1  0  0  0
 79149  1  0  0  0
 80150  1  0  0  0
 80151  1  0  0  0
 80152  1  0  0  0
 81153  1  0  0  0
 81154  1  0  0  0
 81155  1  0  0  0
 82156  1  0  0  0
 82157  1  0  0  0
 82158  1  0  0  0
 83159  1  0  0  0
 83160  1  0  0  0
M  ISO  4   1 100  68 101  83 101  84 100
M  END
> <chiral flag>
0

> <version>
0

> <s_m_source_file>
/data/baiqing/PycharmProjects/Reinvent-master-3.2/result/LINK_invent/BTK/process_docking_weight1_custom_sum_contain_oxygen_bond_distance_aromatic_linkinvent_7_9_3/rearranged_h_0164.sdf

> <i_m_source_file_index>
2

> <r_mmod_Potential_Energy-OPLS-2005>
1071.47180175781

> <r_mmod_Stretch_Energy-OPLS-2005>
403.429595947266

> <r_mmod_Bend_Energy-OPLS-2005>
413.254547119141

> <r_mmod_Torsional_Energy-OPLS-2005>
329.942260742188

> <r_mmod_Improper_Torsional_Energy-OPLS-2005>
10.7148246765137

> <r_mmod_Van_der_Waal_Energy-OPLS-2005>
125.267036437988

> <r_mmod_Electrostatic_Energy-OPLS-2005>
-335.346649169922

> <r_mmod_Solvation_Energy-OPLS-2005>
-200.752471923828

> <b_mmod_Minimization_Converged-OPLS-2005>
0

> <r_mmod_RMS_Derivative-OPLS-2005>
4.83918142318726

$$$$
2
                    3D
 Structure written by MMmdl.
162171  0  0  1  0            999 V2000
  -30.6319  -14.7599   20.4401 C   0  0  0  0  0  0
  -30.4212  -12.4696   19.4664 C   0  0  0  0  0  0
  -29.5015  -12.5081   18.2290 C   0  0  0  0  0  0
  -28.0289  -12.3367   18.6467 C   0  0  0  0  0  0
  -27.6347  -13.2430   19.8445 C   0  0  2  0  0  0
  -28.6819  -13.2107   20.9774 C   0  0  0  0  0  0
  -25.2496  -13.8240   20.5718 C   0  0  0  0  0  0
  -24.1791  -13.0462   20.9211 C   0  0  0  0  0  0
  -24.6398  -11.6943   20.8758 C   0  0  0  0  0  0
  -23.9082  -10.4305   21.0411 C   0  0  0  0  0  0
  -24.3623   -9.4217   21.9191 C   0  0  0  0  0  0
  -23.6294   -8.2252   22.0760 C   0  0  0  0  0  0
  -22.4278   -8.0287   21.3542 C   0  0  0  0  0  0
  -21.9926   -9.0267   20.4646 C   0  0  0  0  0  0
  -22.7255  -10.2147   20.3056 C   0  0  0  0  0  0
  -21.6857   -6.0740   22.5279 C   0  0  0  0  0  0
  -21.4019   -6.5639   23.8214 C   0  0  0  0  0  0
  -21.3657   -5.6794   24.9177 C   0  0  0  0  0  0
  -21.6041   -4.3055   24.7226 C   0  0  0  0  0  0
  -21.8823   -3.8151   23.4346 C   0  0  0  0  0  0
  -21.9194   -4.6966   22.3400 C   0  0  0  0  0  0
  -22.7811  -13.5233   21.1859 C   0  0  0  0  0  0
  -22.1660   -4.2148   21.0977 F   0  0  0  0  0  0
  -21.5624   -3.4541   25.7738 F   0  0  0  0  0  0
  -29.9740  -13.5507   20.3759 N   0  0  0  0  0  0
  -26.2913  -12.9458   20.3294 N   0  0  0  0  0  0
  -25.9331  -11.6586   20.5775 N   0  0  0  0  0  0
  -22.0457  -12.8206   22.0406 N   0  0  0  0  0  0
  -25.4223  -15.1957   20.4180 N   0  0  0  0  0  0
  -31.8375  -14.7961   20.1723 O   0  0  0  0  0  0
  -21.6638   -6.8886   21.4240 O   0  0  0  0  0  0
  -22.3500  -14.5544   20.6721 O   0  0  0  0  0  0
  -24.6326  -31.8554   23.1989 C   0  0  0  0  0  0
  -25.9146  -32.4756   23.8343 C   0  0  1  0  0  0
  -27.2119  -27.2642   20.1300 C   0  0  0  0  0  0
  -25.5945  -33.8561   24.2266 N   0  0  0  0  0  0
  -23.4293  -30.4769   21.5443 C   0  0  2  0  0  0
  -24.8755  -28.9240   20.1106 C   0  0  0  0  0  0
  -22.7508  -29.4599   22.4938 C   0  0  0  0  0  0
  -18.0290  -28.1388   22.8501 C   0  0  0  0  0  0
  -24.1487  -36.7277   23.2640 C   0  0  0  0  0  0
  -25.9746  -30.7701   21.3765 C   0  0  0  0  0  0
  -26.0491  -29.3929   20.7174 C   0  0  0  0  0  0
  -27.2267  -28.5757   20.7135 C   0  0  0  0  0  0
  -26.0202  -26.8610   19.4959 C   0  0  0  0  0  0
  -24.8652  -27.6663   19.4877 C   0  0  0  0  0  0
  -23.6453  -29.8102   20.1615 C   0  0  0  0  0  0
  -25.4113  -36.3069   24.0327 C   0  0  1  0  0  0
  -20.5894  -28.3702   23.1277 C   0  0  2  0  0  0
  -20.6775  -26.9425   22.5411 C   0  0  0  0  0  0
  -19.5740  -26.6387   21.5219 C   0  0  0  0  0  0
  -18.1920  -26.7935   22.1627 C   0  0  0  0  0  0
  -19.1545  -28.8863   23.2876 C   0  0  0  0  0  0
  -18.9462  -30.1464   23.8888 C   0  0  0  0  0  0
  -17.6463  -30.6595   24.0560 C   0  0  0  0  0  0
  -25.9063  -34.9442   23.5100 C   0  0  0  0  0  0
  -16.5354  -29.9090   23.6340 C   0  0  0  0  0  0
  -16.7275  -28.6500   23.0376 C   0  0  0  0  0  0
  -26.4509  -31.6589   25.0736 C   0  0  0  0  0  0
  -25.3730  -31.3718   26.1449 C   0  0  0  0  0  0
  -27.0376  -30.3018   24.6224 C   0  0  0  0  0  0
  -27.6064  -32.4335   25.7505 C   0  0  0  0  0  0
  -27.5587  -37.1775   24.8452 C   0  0  0  0  0  0
  -21.4214  -29.3045   22.3676 N   0  0  0  0  0  0
  -26.4274  -37.3783   23.9435 N   0  0  0  0  0  0
  -24.6982  -31.0511   22.0971 N   0  0  0  0  0  0
  -23.4201  -28.8139   23.3044 O   0  0  0  0  0  0
  -28.2653  -26.3257   20.1570 O   0  0  0  0  0  0
  -26.5635  -34.8914   22.4667 O   0  0  0  0  0  0
  -23.5473  -32.1376   23.7282 O   0  0  0  0  0  0
  -27.4986  -22.5344   21.0952 C   0  0  0  0  0  0
  -29.0668  -20.7228   20.4195 C   0  0  0  0  0  0
  -27.8409  -21.1470   21.0193 C   0  0  0  0  0  0
  -28.3294  -23.5706   20.5924 C   0  0  0  0  0  0
  -29.8253  -21.8348   19.8972 C   0  0  0  0  0  0
  -29.5923  -18.3363   21.6862 C   0  0  0  0  0  0
  -28.9764  -18.1727   19.3635 C   0  0  0  0  0  0
  -30.3511  -16.9459   21.5927 C   0  0  0  0  0  0
  -29.6930  -16.7488   19.2864 C   0  0  0  0  0  0
  -29.5967  -19.1852   20.3769 C   0  0  0  0  0  0
  -26.8751  -20.1610   21.6482 C   0  0  0  0  0  0
  -31.1452  -21.6061   19.1840 C   0  0  0  0  0  0
  -28.0042  -25.0981   20.9795 C   0  0  0  0  0  0
  -29.4855  -23.1744   19.9896 N   0  0  0  0  0  0
  -29.9177  -15.9638   20.5475 N   0  0  0  0  0  0
  -31.4604  -12.5893   19.1562 H   0  0  0  0  0  0
  -30.3643  -11.5013   19.9652 H   0  0  0  0  0  0
  -29.7818  -11.7274   17.5201 H   0  0  0  0  0  0
  -29.6272  -13.4574   17.7070 H   0  0  0  0  0  0
  -27.8834  -11.2898   18.9113 H   0  0  0  0  0  0
  -27.3726  -12.5292   17.7973 H   0  0  0  0  0  0
  -27.6178  -14.2606   19.4540 H   0  0  0  0  0  0
  -28.7241  -12.2304   21.4539 H   0  0  0  0  0  0
  -28.4216  -13.9297   21.7567 H   0  0  0  0  0  0
  -25.2761   -9.5691   22.4778 H   0  0  0  0  0  0
  -23.9998   -7.4648   22.7487 H   0  0  0  0  0  0
  -21.0862   -8.8792   19.8949 H   0  0  0  0  0  0
  -22.3710  -10.9694   19.6170 H   0  0  0  0  0  0
  -21.2014   -7.6150   23.9709 H   0  0  0  0  0  0
  -21.1470   -6.0527   25.9076 H   0  0  0  0  0  0
  -22.0599   -2.7611   23.2848 H   0  0  0  0  0  0
  -22.4069  -11.9852   22.4772 H   0  0  0  0  0  0
  -21.1080  -13.1235   22.2621 H   0  0  0  0  0  0
  -24.6664  -15.8597   20.5430 H   0  0  0  0  0  0
  -26.2907  -15.6328   20.1367 H   0  0  0  0  0  0
  -26.7219  -32.5407   23.1093 H   0  0  0  0  0  0
  -25.0088  -33.9704   25.0409 H   0  0  0  0  0  0
  -22.7255  -31.2985   21.3994 H   0  0  0  0  0  0
  -23.3790  -35.9561   23.3214 H   0  0  0  0  0  0
  -24.3596  -36.9003   22.2074 H   0  0  0  0  0  0
  -23.7170  -37.6415   23.6731 H   0  0  0  0  0  0
  -26.1091  -31.5317   20.6060 H   0  0  0  0  0  0
  -26.8536  -30.8217   22.0086 H   0  0  0  0  0  0
  -28.1272  -28.9277   21.1965 H   0  0  0  0  0  0
  -25.9708  -25.8881   19.0261 H   0  0  0  0  0  0
  -23.9656  -27.3012   19.0108 H   0  0  0  0  0  0
  -23.7648  -30.5852   19.4039 H   0  0  0  0  0  0
  -22.7626  -29.2418   19.8611 H   0  0  0  0  0  0
  -25.1281  -36.1908   25.0814 H   0  0  0  0  0  0
  -20.9975  -28.3278   24.1395 H   0  0  0  0  0  0
  -20.5695  -26.2313   23.3612 H   0  0  0  0  0  0
  -21.6636  -26.7450   22.1194 H   0  0  0  0  0  0
  -19.6903  -25.6299   21.1244 H   0  0  0  0  0  0
  -19.6663  -27.3193   20.6745 H   0  0  0  0  0  0
  -17.4196  -26.6712   21.4018 H   0  0  0  0  0  0
  -18.0291  -26.0065   22.9006 H   0  0  0  0  0  0
  -19.7933  -30.7283   24.2253 H   0  0  0  0  0  0
  -17.5014  -31.6273   24.5167 H   0  0  0  0  0  0
  -15.5351  -30.2988   23.7656 H   0  0  0  0  0  0
  -15.8678  -28.0803   22.7110 H   0  0  0  0  0  0
  -24.5884  -30.7109   25.7748 H   0  0  0  0  0  0
  -24.8945  -32.2882   26.4918 H   0  0  0  0  0  0
  -25.8033  -30.8836   27.0207 H   0  0  0  0  0  0
  -26.2972  -29.6739   24.1253 H   0  0  0  0  0  0
  -27.4079  -29.7300   25.4746 H   0  0  0  0  0  0
  -27.8837  -30.4313   23.9467 H   0  0  0  0  0  0
  -27.2703  -33.3685   26.2002 H   0  0  0  0  0  0
  -28.3908  -32.6814   25.0342 H   0  0  0  0  0  0
  -28.0693  -31.8508   26.5479 H   0  0  0  0  0  0
  -28.2523  -38.0157   24.7635 H   0  0  0  0  0  0
  -28.1166  -36.2691   24.6112 H   0  0  0  0  0  0
  -27.2326  -37.1230   25.8855 H   0  0  0  0  0  0
  -20.9417  -29.8778   21.6879 H   0  0  0  0  0  0
  -26.0143  -38.2834   24.1527 H   0  0  0  0  0  0
  -26.5906  -22.8163   21.6107 H   0  0  0  0  0  0
  -30.0331  -18.9250   22.4907 H   0  0  0  0  0  0
  -28.5708  -18.1270   21.9989 H   0  0  0  0  0  0
  -27.9234  -18.0145   19.5938 H   0  0  0  0  0  0
  -28.9889  -18.6182   18.3676 H   0  0  0  0  0  0
  -30.2792  -16.4523   22.5636 H   0  0  0  0  0  0
  -31.4138  -17.1525   21.4478 H   0  0  0  0  0  0
  -30.6630  -16.8921   18.8061 H   0  0  0  0  0  0
  -29.1250  -16.1186   18.5996 H   0  0  0  0  0  0
  -30.6475  -19.2555   20.1029 H   0  0  0  0  0  0
  -25.8690  -20.5777   21.6980 H   0  0  0  0  0  0
  -27.1868  -19.9252   22.6662 H   0  0  0  0  0  0
  -26.8021  -19.2377   21.0788 H   0  0  0  0  0  0
  -31.8795  -21.1724   19.8628 H   0  0  0  0  0  0
  -31.5635  -22.5384   18.8014 H   0  0  0  0  0  0
  -31.0112  -20.9334   18.3365 H   0  0  0  0  0  0
  -28.5561  -25.2678   21.9041 H   0  0  0  0  0  0
  -26.9607  -25.1091   21.2990 H   0  0  0  0  0  0
  1 25  1  0  0  0
  1 30  2  0  0  0
  1 85  1  0  0  0
  2  3  1  0  0  0
  2 25  1  0  0  0
  2 86  1  0  0  0
  2 87  1  0  0  0
  3  4  1  0  0  0
  3 88  1  0  0  0
  3 89  1  0  0  0
  4  5  1  0  0  0
  4 90  1  0  0  0
  4 91  1  0  0  0
  5  6  1  0  0  0
  5 26  1  0  0  0
  5 92  1  0  0  0
  6 25  1  0  0  0
  6 93  1  0  0  0
  6 94  1  0  0  0
  7  8  2  0  0  0
  7 26  1  0  0  0
  7 29  1  0  0  0
  8  9  1  0  0  0
  8 22  1  0  0  0
  9 10  1  0  0  0
  9 27  2  0  0  0
 10 11  2  0  0  0
 10 15  1  0  0  0
 11 12  1  0  0  0
 11 95  1  0  0  0
 12 13  2  0  0  0
 12 96  1  0  0  0
 13 14  1  0  0  0
 13 31  1  0  0  0
 14 15  2  0  0  0
 14 97  1  0  0  0
 15 98  1  0  0  0
 16 17  2  0  0  0
 16 21  1  0  0  0
 16 31  1  0  0  0
 17 18  1  0  0  0
 17 99  1  0  0  0
 18 19  2  0  0  0
 18100  1  0  0  0
 19 20  1  0  0  0
 19 24  1  0  0  0
 20 21  2  0  0  0
 20101  1  0  0  0
 21 23  1  0  0  0
 22 28  1  0  0  0
 22 32  2  0  0  0
 26 27  1  0  0  0
 28102  1  0  0  0
 28103  1  0  0  0
 29104  1  0  0  0
 29105  1  0  0  0
 33 34  1  0  0  0
 33 66  1  0  0  0
 33 70  2  0  0  0
 34 36  1  0  0  0
 34 59  1  0  0  0
 34106  1  0  0  0
 35 44  2  0  0  0
 35 45  1  0  0  0
 35 68  1  0  0  0
 36 56  1  0  0  0
 36107  1  0  0  0
 37 39  1  0  0  0
 37 47  1  0  0  0
 37 66  1  0  0  0
 37108  1  0  0  0
 38 43  2  0  0  0
 38 46  1  0  0  0
 38 47  1  0  0  0
 39 64  1  0  0  0
 39 67  2  0  0  0
 40 52  1  0  0  0
 40 53  2  0  0  0
 40 58  1  0  0  0
 41109  1  0  0  0
 41110  1  0  0  0
 41111  1  0  0  0
 41 48  1  0  0  0
 42 43  1  0  0  0
 42 66  1  0  0  0
 42112  1  0  0  0
 42113  1  0  0  0
 43 44  1  0  0  0
 44114  1  0  0  0
 45 46  2  0  0  0
 45115  1  0  0  0
 46116  1  0  0  0
 47117  1  0  0  0
 47118  1  0  0  0
 48 56  1  0  0  0
 48 65  1  0  0  0
 48119  1  0  0  0
 49 50  1  0  0  0
 49 53  1  0  0  0
 49 64  1  0  0  0
 49120  1  0  0  0
 50 51  1  0  0  0
 50121  1  0  0  0
 50122  1  0  0  0
 51 52  1  0  0  0
 51123  1  0  0  0
 51124  1  0  0  0
 52125  1  0  0  0
 52126  1  0  0  0
 53 54  1  0  0  0
 54 55  2  0  0  0
 54127  1  0  0  0
 55 57  1  0  0  0
 55128  1  0  0  0
 56 69  2  0  0  0
 57 58  2  0  0  0
 57129  1  0  0  0
 58130  1  0  0  0
 59 60  1  0  0  0
 59 61  1  0  0  0
 59 62  1  0  0  0
 60131  1  0  0  0
 60132  1  0  0  0
 60133  1  0  0  0
 61134  1  0  0  0
 61135  1  0  0  0
 61136  1  0  0  0
 62137  1  0  0  0
 62138  1  0  0  0
 62139  1  0  0  0
 63 65  1  0  0  0
 63140  1  0  0  0
 63141  1  0  0  0
 63142  1  0  0  0
 64143  1  0  0  0
 65144  1  0  0  0
 68 83  1  0  0  0
 71 73  2  0  0  0
 71 74  1  0  0  0
 71145  1  0  0  0
 72 73  1  0  0  0
 72 75  2  0  0  0
 72 80  1  0  0  0
 73 81  1  0  0  0
 74 83  1  0  0  0
 74 84  2  0  0  0
 75 82  1  0  0  0
 75 84  1  0  0  0
 76 78  1  0  0  0
 76 80  1  0  0  0
 76146  1  0  0  0
 76147  1  0  0  0
 77 79  1  0  0  0
 77 80  1  0  0  0
 77148  1  0  0  0
 77149  1  0  0  0
 78 85  1  0  0  0
 78150  1  0  0  0
 78151  1  0  0  0
 79 85  1  0  0  0
 79152  1  0  0  0
 79153  1  0  0  0
 80154  1  0  0  0
 81155  1  0  0  0
 81156  1  0  0  0
 81157  1  0  0  0
 82158  1  0  0  0
 82159  1  0  0  0
 82160  1  0  0  0
 83161  1  0  0  0
 83162  1  0  0  0
M  ISO  4   1 100  68 101  83 101  85 100
M  END
> <chiral flag>
0

> <version>
0

> <s_m_source_file>
/data/baiqing/PycharmProjects/Reinvent-master-3.2/result/LINK_invent/BTK/process_docking_weight1_custom_sum_contain_oxygen_bond_distance_aromatic_linkinvent_7_9_3/rearranged_h_0164.sdf

> <i_m_source_file_index>
3

> <r_mmod_Potential_Energy-OPLS-2005>
320.865081787109

> <r_mmod_Stretch_Energy-OPLS-2005>
125.741653442383

> <r_mmod_Bend_Energy-OPLS-2005>
206.114715576172

> <r_mmod_Torsional_Energy-OPLS-2005>
355.559387207031

> <r_mmod_Improper_Torsional_Energy-OPLS-2005>
11.8374128341675

> <r_mmod_Van_der_Waal_Energy-OPLS-2005>
142.443893432617

> <r_mmod_Electrostatic_Energy-OPLS-2005>
-404.858062744141

> <r_mmod_Solvation_Energy-OPLS-2005>
-210.89338684082

> <b_mmod_Minimization_Converged-OPLS-2005>
0

> <r_mmod_RMS_Derivative-OPLS-2005>
1.74376153945923

$$$$
3
                    3D
 Structure written by MMmdl.
178187  0  0  1  0            999 V2000
  -30.6577  -14.7141   20.4510 C   0  0  0  0  0  0
  -30.4147  -12.4461   19.4695 C   0  0  0  0  0  0
  -29.5133  -12.5333   18.2271 C   0  0  0  0  0  0
  -28.0362  -12.3628   18.6318 C   0  0  0  0  0  0
  -27.6359  -13.2421   19.8436 C   0  0  2  0  0  0
  -28.6807  -13.1978   20.9809 C   0  0  0  0  0  0
  -25.2485  -13.8167   20.5661 C   0  0  0  0  0  0
  -24.1774  -13.0430   20.9180 C   0  0  0  0  0  0
  -24.6402  -11.6918   20.8710 C   0  0  0  0  0  0
  -23.9096  -10.4300   21.0351 C   0  0  0  0  0  0
  -24.3632   -9.4225   21.9154 C   0  0  0  0  0  0
  -23.6313   -8.2253   22.0737 C   0  0  0  0  0  0
  -22.4292   -8.0268   21.3538 C   0  0  0  0  0  0
  -21.9944   -9.0223   20.4638 C   0  0  0  0  0  0
  -22.7256  -10.2121   20.3028 C   0  0  0  0  0  0
  -21.6855   -6.0716   22.5298 C   0  0  0  0  0  0
  -21.4003   -6.5628   23.8241 C   0  0  0  0  0  0
  -21.3678   -5.6787   24.9202 C   0  0  0  0  0  0
  -21.6050   -4.3048   24.7239 C   0  0  0  0  0  0
  -21.8795   -3.8137   23.4373 C   0  0  0  0  0  0
  -21.9184   -4.6945   22.3411 C   0  0  0  0  0  0
  -22.7815  -13.5230   21.1840 C   0  0  0  0  0  0
  -22.1632   -4.2126   21.0982 F   0  0  0  0  0  0
  -21.5700   -3.4537   25.7761 F   0  0  0  0  0  0
  -29.9803  -13.5230   20.3849 N   0  0  0  0  0  0
  -26.2924  -12.9418   20.3221 N   0  0  0  0  0  0
  -25.9343  -11.6560   20.5722 N   0  0  0  0  0  0
  -22.0395  -12.8236   22.0397 N   0  0  0  0  0  0
  -25.4086  -15.1896   20.4132 N   0  0  0  0  0  0
  -31.8678  -14.7358   20.2100 O   0  0  0  0  0  0
  -21.6647   -6.8861   21.4262 O   0  0  0  0  0  0
  -22.3497  -14.5520   20.6711 O   0  0  0  0  0  0
  -24.6274  -31.8649   23.2002 C   0  0  0  0  0  0
  -25.9102  -32.4817   23.8294 C   0  0  1  0  0  0
  -27.2181  -27.2999   20.1268 C   0  0  0  0  0  0
  -25.5921  -33.8607   24.2235 N   0  0  0  0  0  0
  -23.4180  -30.4936   21.5389 C   0  0  2  0  0  0
  -24.8670  -28.9340   20.1183 C   0  0  0  0  0  0
  -22.7459  -29.4708   22.4811 C   0  0  0  0  0  0
  -18.0299  -28.1463   22.8499 C   0  0  0  0  0  0
  -24.1412  -36.7231   23.2644 C   0  0  0  0  0  0
  -25.9655  -30.7888   21.3668 C   0  0  0  0  0  0
  -26.0380  -29.4088   20.7222 C   0  0  0  0  0  0
  -27.2189  -28.6033   20.7240 C   0  0  0  0  0  0
  -26.0318  -26.8858   19.4944 C   0  0  0  0  0  0
  -24.8667  -27.6721   19.4978 C   0  0  0  0  0  0
  -23.6443  -29.8333   20.1501 C   0  0  0  0  0  0
  -25.4056  -36.3082   24.0377 C   0  0  1  0  0  0
  -20.5935  -28.3759   23.1235 C   0  0  2  0  0  0
  -20.6795  -26.9459   22.5384 C   0  0  0  0  0  0
  -19.5748  -26.6461   21.5206 C   0  0  0  0  0  0
  -18.1939  -26.8002   22.1632 C   0  0  0  0  0  0
  -19.1562  -28.8896   23.2896 C   0  0  0  0  0  0
  -18.9514  -30.1495   23.8918 C   0  0  0  0  0  0
  -17.6537  -30.6674   24.0593 C   0  0  0  0  0  0
  -25.9048  -34.9508   23.5102 C   0  0  0  0  0  0
  -16.5401  -29.9213   23.6359 C   0  0  0  0  0  0
  -16.7300  -28.6617   23.0365 C   0  0  0  0  0  0
  -26.4500  -31.6622   25.0668 C   0  0  0  0  0  0
  -25.3743  -31.3820   26.1427 C   0  0  0  0  0  0
  -27.0320  -30.3051   24.6083 C   0  0  0  0  0  0
  -27.6040  -32.4331   25.7465 C   0  0  0  0  0  0
  -27.5541  -37.1779   24.8496 C   0  0  0  0  0  0
  -21.4165  -29.3115   22.3609 N   0  0  0  0  0  0
  -26.4185  -37.3843   23.9548 N   0  0  0  0  0  0
  -24.6896  -31.0617   22.0939 N   0  0  0  0  0  0
  -23.4204  -28.8274   23.2941 O   0  0  0  0  0  0
  -28.3161  -26.4288   20.1173 O   0  0  0  0  0  0
  -26.5558  -34.8990   22.4638 O   0  0  0  0  0  0
  -23.5430  -32.1417   23.7321 O   0  0  0  0  0  0
  -28.9841  -17.9748   23.0928 C   0  0  0  0  0  0
  -30.2905  -19.7528   24.7976 C   0  0  0  0  0  0
  -29.9061  -18.8872   22.5331 C   0  0  0  0  0  0
  -28.7333  -17.9086   24.4756 C   0  0  0  0  0  0
  -30.5759  -19.7865   23.4115 C   0  0  0  0  0  0
  -29.3774  -18.8230   25.3357 C   0  0  0  0  0  0
  -31.3836  -17.7904   19.4999 C   0  0  0  0  0  0
  -31.4813  -19.1001   20.3090 C   0  0  0  0  0  0
  -30.6976  -17.2434   20.7350 C   0  0  1  0  0  0
  -30.1194  -18.7604   21.0104 C   0  0  1  0  0  0
  -27.7896  -16.8320   24.9982 C   0  0  0  0  0  0
  -31.6030  -20.7986   22.9297 C   0  0  0  0  0  0
  -29.1088  -18.8070   26.8308 C   0  0  0  0  0  0
  -30.2297  -24.0420   19.5110 C   0  0  0  0  0  0
  -28.9384  -19.6138   20.3107 C   0  0  0  0  0  0
  -28.5299  -22.2966   20.5465 C   0  0  0  0  0  0
  -28.1016  -25.0247   20.5861 C   0  0  0  0  0  0
  -28.7459  -23.7522   19.8392 C   0  0  2  0  0  0
  -29.9716  -15.9131   20.5712 N   0  0  0  0  0  0
  -29.2293  -21.0820   19.9279 N   0  3  0  0  0  0
  -31.4625  -12.5397   19.1815 H   0  0  0  0  0  0
  -30.3282  -11.4729   19.9481 H   0  0  0  0  0  0
  -29.8045  -11.7892   17.4871 H   0  0  0  0  0  0
  -29.6563  -13.5014   17.7484 H   0  0  0  0  0  0
  -27.8796  -11.3157   18.8702 H   0  0  0  0  0  0
  -27.3901  -12.5900   17.7813 H   0  0  0  0  0  0
  -27.6230  -14.2586   19.4574 H   0  0  0  0  0  0
  -28.7123  -12.2153   21.4552 H   0  0  0  0  0  0
  -28.4235  -13.9121   21.7670 H   0  0  0  0  0  0
  -25.2747   -9.5735   22.4768 H   0  0  0  0  0  0
  -24.0017   -7.4668   22.7486 H   0  0  0  0  0  0
  -21.0892   -8.8757   19.8958 H   0  0  0  0  0  0
  -22.3687  -10.9653   19.6157 H   0  0  0  0  0  0
  -21.1973   -7.6136   23.9717 H   0  0  0  0  0  0
  -21.1534   -6.0534   25.9106 H   0  0  0  0  0  0
  -22.0553   -2.7602   23.2891 H   0  0  0  0  0  0
  -22.4012  -11.9977   22.4911 H   0  0  0  0  0  0
  -21.0971  -13.1227   22.2424 H   0  0  0  0  0  0
  -24.6285  -15.8269   20.5343 H   0  0  0  0  0  0
  -26.2369  -15.6380   20.0481 H   0  0  0  0  0  0
  -26.7182  -32.5523   23.1064 H   0  0  0  0  0  0
  -25.0135  -33.9673   25.0419 H   0  0  0  0  0  0
  -22.7126  -31.3165   21.3892 H   0  0  0  0  0  0
  -23.3708  -35.9517   23.3257 H   0  0  0  0  0  0
  -24.3415  -36.8859   22.2038 H   0  0  0  0  0  0
  -23.7128  -37.6433   23.6651 H   0  0  0  0  0  0
  -26.0721  -31.5416   20.5804 H   0  0  0  0  0  0
  -26.8556  -30.8633   21.9820 H   0  0  0  0  0  0
  -28.1142  -28.9624   21.2066 H   0  0  0  0  0  0
  -26.0098  -25.9257   18.9967 H   0  0  0  0  0  0
  -23.9736  -27.2942   19.0153 H   0  0  0  0  0  0
  -23.7956  -30.6249   19.4125 H   0  0  0  0  0  0
  -22.7567  -29.3026   19.8087 H   0  0  0  0  0  0
  -25.1198  -36.1906   25.0864 H   0  0  0  0  0  0
  -21.0039  -28.3403   24.1350 H   0  0  0  0  0  0
  -20.5683  -26.2365   23.3635 H   0  0  0  0  0  0
  -21.6655  -26.7476   22.1149 H   0  0  0  0  0  0
  -19.6858  -25.6377   21.1230 H   0  0  0  0  0  0
  -19.6691  -27.3281   20.6774 H   0  0  0  0  0  0
  -17.4184  -26.6765   21.4079 H   0  0  0  0  0  0
  -18.0286  -26.0180   22.9049 H   0  0  0  0  0  0
  -19.8009  -30.7301   24.2258 H   0  0  0  0  0  0
  -17.5144  -31.6344   24.5210 H   0  0  0  0  0  0
  -15.5418  -30.3178   23.7661 H   0  0  0  0  0  0
  -15.8694  -28.1016   22.7030 H   0  0  0  0  0  0
  -24.5847  -30.7203   25.7836 H   0  0  0  0  0  0
  -24.9005  -32.3057   26.4797 H   0  0  0  0  0  0
  -25.8089  -30.9060   27.0219 H   0  0  0  0  0  0
  -26.2894  -29.6831   24.1080 H   0  0  0  0  0  0
  -27.4020  -29.7290   25.4539 H   0  0  0  0  0  0
  -27.8758  -30.4246   23.9277 H   0  0  0  0  0  0
  -27.2601  -33.3591   26.2058 H   0  0  0  0  0  0
  -28.3936  -32.6941   25.0408 H   0  0  0  0  0  0
  -28.0642  -31.8421   26.5404 H   0  0  0  0  0  0
  -28.2613  -38.0036   24.7551 H   0  0  0  0  0  0
  -28.0964  -36.2567   24.6258 H   0  0  0  0  0  0
  -27.2210  -37.1361   25.8880 H   0  0  0  0  0  0
  -20.9274  -29.8826   21.6839 H   0  0  0  0  0  0
  -26.0018  -38.2885   24.1669 H   0  0  0  0  0  0
  -28.4685  -17.2880   22.4407 H   0  0  0  0  0  0
  -30.7903  -20.4451   25.4629 H   0  0  0  0  0  0
  -32.3455  -17.3291   19.2707 H   0  0  0  0  0  0
  -30.7397  -17.8513   18.6249 H   0  0  0  0  0  0
  -31.5181  -19.9950   19.6816 H   0  0  0  0  0  0
  -32.3534  -19.0782   20.9606 H   0  0  0  0  0  0
  -31.4732  -17.0721   21.4914 H   0  0  0  0  0  0
  -27.7747  -15.9661   24.3362 H   0  0  0  0  0  0
  -26.7704  -17.2051   25.0753 H   0  0  0  0  0  0
  -28.0905  -16.4612   25.9772 H   0  0  0  0  0  0
  -32.5694  -20.3294   22.7743 H   0  0  0  0  0  0
  -31.7519  -21.5930   23.6605 H   0  0  0  0  0  0
  -31.2822  -21.2528   21.9984 H   0  0  0  0  0  0
  -29.7501  -19.5121   27.3586 H   0  0  0  0  0  0
  -29.3067  -17.8180   27.2505 H   0  0  0  0  0  0
  -28.0740  -19.0741   27.0439 H   0  0  0  0  0  0
  -30.3407  -25.0071   19.0016 H   0  0  0  0  0  0
  -30.6382  -23.2937   18.8306 H   0  0  0  0  0  0
  -30.8581  -24.0759   20.4026 H   0  0  0  0  0  0
  -28.0224  -19.5642   20.8995 H   0  0  0  0  0  0
  -28.6758  -19.1202   19.3750 H   0  0  0  0  0  0
  -27.4626  -22.0826   20.5498 H   0  0  0  0  0  0
  -28.8272  -22.3621   21.5941 H   0  0  0  0  0  0
  -27.0354  -24.8185   20.6811 H   0  0  0  0  0  0
  -28.4655  -25.0042   21.6180 H   0  0  0  0  0  0
  -28.2376  -23.6924   18.8761 H   0  0  0  0  0  0
  -28.9650  -15.8853   20.6026 H   0  0  0  0  0  0
  -29.0077  -21.1226   18.9454 H   0  0  0  0  0  0
  -30.2162  -21.2391   20.0021 H   0  0  0  0  0  0
  1 25  1  0  0  0
  1 30  2  0  0  0
  1 89  1  0  0  0
  2  3  1  0  0  0
  2 25  1  0  0  0
  2 91  1  0  0  0
  2 92  1  0  0  0
  3  4  1  0  0  0
  3 93  1  0  0  0
  3 94  1  0  0  0
  4  5  1  0  0  0
  4 95  1  0  0  0
  4 96  1  0  0  0
  5  6  1  0  0  0
  5 26  1  0  0  0
  5 97  1  0  0  0
  6 25  1  0  0  0
  6 98  1  0  0  0
  6 99  1  0  0  0
  7  8  2  0  0  0
  7 26  1  0  0  0
  7 29  1  0  0  0
  8  9  1  0  0  0
  8 22  1  0  0  0
  9 10  1  0  0  0
  9 27  2  0  0  0
 10 11  2  0  0  0
 10 15  1  0  0  0
 11 12  1  0  0  0
 11100  1  0  0  0
 12 13  2  0  0  0
 12101  1  0  0  0
 13 14  1  0  0  0
 13 31  1  0  0  0
 14 15  2  0  0  0
 14102  1  0  0  0
 15103  1  0  0  0
 16 17  2  0  0  0
 16 21  1  0  0  0
 16 31  1  0  0  0
 17 18  1  0  0  0
 17104  1  0  0  0
 18 19  2  0  0  0
 18105  1  0  0  0
 19 20  1  0  0  0
 19 24  1  0  0  0
 20 21  2  0  0  0
 20106  1  0  0  0
 21 23  1  0  0  0
 22 28  1  0  0  0
 22 32  2  0  0  0
 26 27  1  0  0  0
 28107  1  0  0  0
 28108  1  0  0  0
 29109  1  0  0  0
 29110  1  0  0  0
 33 34  1  0  0  0
 33 66  1  0  0  0
 33 70  2  0  0  0
 34 36  1  0  0  0
 34 59  1  0  0  0
 34111  1  0  0  0
 35 44  2  0  0  0
 35 45  1  0  0  0
 35 68  1  0  0  0
 36 56  1  0  0  0
 36112  1  0  0  0
 37 39  1  0  0  0
 37 47  1  0  0  0
 37 66  1  0  0  0
 37113  1  0  0  0
 38 43  2  0  0  0
 38 46  1  0  0  0
 38 47  1  0  0  0
 39 64  1  0  0  0
 39 67  2  0  0  0
 40 52  1  0  0  0
 40 53  2  0  0  0
 40 58  1  0  0  0
 41114  1  0  0  0
 41115  1  0  0  0
 41116  1  0  0  0
 41 48  1  0  0  0
 42 43  1  0  0  0
 42 66  1  0  0  0
 42117  1  0  0  0
 42118  1  0  0  0
 43 44  1  0  0  0
 44119  1  0  0  0
 45 46  2  0  0  0
 45120  1  0  0  0
 46121  1  0  0  0
 47122  1  0  0  0
 47123  1  0  0  0
 48 56  1  0  0  0
 48 65  1  0  0  0
 48124  1  0  0  0
 49 50  1  0  0  0
 49 53  1  0  0  0
 49 64  1  0  0  0
 49125  1  0  0  0
 50 51  1  0  0  0
 50126  1  0  0  0
 50127  1  0  0  0
 51 52  1  0  0  0
 51128  1  0  0  0
 51129  1  0  0  0
 52130  1  0  0  0
 52131  1  0  0  0
 53 54  1  0  0  0
 54 55  2  0  0  0
 54132  1  0  0  0
 55 57  1  0  0  0
 55133  1  0  0  0
 56 69  2  0  0  0
 57 58  2  0  0  0
 57134  1  0  0  0
 58135  1  0  0  0
 59 60  1  0  0  0
 59 61  1  0  0  0
 59 62  1  0  0  0
 60136  1  0  0  0
 60137  1  0  0  0
 60138  1  0  0  0
 61139  1  0  0  0
 61140  1  0  0  0
 61141  1  0  0  0
 62142  1  0  0  0
 62143  1  0  0  0
 62144  1  0  0  0
 63 65  1  0  0  0
 63145  1  0  0  0
 63146  1  0  0  0
 63147  1  0  0  0
 64148  1  0  0  0
 65149  1  0  0  0
 68 87  1  0  0  0
 71 73  2  0  0  0
 71 74  1  0  0  0
 71150  1  0  0  0
 72 75  2  0  0  0
 72 76  1  0  0  0
 72151  1  0  0  0
 73 75  1  0  0  0
 73 80  1  0  0  0
 74 76  2  0  0  0
 74 81  1  0  0  0
 75 82  1  0  0  0
 76 83  1  0  0  0
 77 78  1  0  0  0
 77 79  1  0  0  0
 77152  1  0  0  0
 77153  1  0  0  0
 78 80  1  0  0  0
 78154  1  0  0  0
 78155  1  0  0  0
 79 80  1  0  0  0
 79 89  1  0  0  0
 79156  1  0  0  0
 80 85  1  0  0  0
 81157  1  0  0  0
 81158  1  0  0  0
 81159  1  0  0  0
 82160  1  0  0  0
 82161  1  0  0  0
 82162  1  0  0  0
 83163  1  0  0  0
 83164  1  0  0  0
 83165  1  0  0  0
 84166  1  0  0  0
 84167  1  0  0  0
 84168  1  0  0  0
 84 88  1  0  0  0
 85 90  1  0  0  0
 85169  1  0  0  0
 85170  1  0  0  0
 86 88  1  0  0  0
 86 90  1  0  0  0
 86171  1  0  0  0
 86172  1  0  0  0
 87 88  1  0  0  0
 87173  1  0  0  0
 87174  1  0  0  0
 88175  1  0  0  0
 89176  1  0  0  0
 90177  1  0  0  0
 90178  1  0  0  0
M  CHG  1  90   1
M  ISO  4   1 100  68 101  87 101  89 100
M  END
> <chiral flag>
0

> <version>
0

> <s_m_source_file>
/data/baiqing/PycharmProjects/Reinvent-master-3.2/result/LINK_invent/BTK/process_docking_weight1_custom_sum_contain_oxygen_bond_distance_aromatic_linkinvent_7_9_3/rearranged_h_0164.sdf

> <i_m_source_file_index>
4

> <r_mmod_Potential_Energy-OPLS-2005>
134.990234375

> <r_mmod_Stretch_Energy-OPLS-2005>
128.283462524414

> <r_mmod_Bend_Energy-OPLS-2005>
270.596893310547

> <r_mmod_Torsional_Energy-OPLS-2005>
301.252410888672

> <r_mmod_Improper_Torsional_Energy-OPLS-2005>
4.54517984390259

> <r_mmod_Van_der_Waal_Energy-OPLS-2005>
143.170883178711

> <r_mmod_Electrostatic_Energy-OPLS-2005>
-321.08203125

> <r_mmod_Solvation_Energy-OPLS-2005>
-464.881683349609

> <b_mmod_Minimization_Converged-OPLS-2005>
0

> <r_mmod_RMS_Derivative-OPLS-2005>
8.80977916717529

$$$$
4
                    3D
 Structure written by MMmdl.
167177  0  0  1  0            999 V2000
  -30.7116  -14.5851   20.4483 C   0  0  0  0  0  0
  -30.4297  -12.3529   19.4227 C   0  0  0  0  0  0
  -29.4953  -12.4718   18.2011 C   0  0  0  0  0  0
  -28.0217  -12.3267   18.6292 C   0  0  0  0  0  0
  -27.6552  -13.2196   19.8445 C   0  0  2  0  0  0
  -28.7183  -13.1190   20.9655 C   0  0  0  0  0  0
  -25.2583  -13.8160   20.5645 C   0  0  0  0  0  0
  -24.1856  -13.0439   20.9210 C   0  0  0  0  0  0
  -24.6420  -11.6917   20.8760 C   0  0  0  0  0  0
  -23.9074  -10.4307   21.0419 C   0  0  0  0  0  0
  -24.3614   -9.4206   21.9190 C   0  0  0  0  0  0
  -23.6293   -8.2238   22.0739 C   0  0  0  0  0  0
  -22.4279   -8.0282   21.3530 C   0  0  0  0  0  0
  -21.9922   -9.0264   20.4642 C   0  0  0  0  0  0
  -22.7241  -10.2149   20.3070 C   0  0  0  0  0  0
  -21.6845   -6.0735   22.5273 C   0  0  0  0  0  0
  -21.4018   -6.5641   23.8213 C   0  0  0  0  0  0
  -21.3671   -5.6783   24.9170 C   0  0  0  0  0  0
  -21.6046   -4.3051   24.7217 C   0  0  0  0  0  0
  -21.8829   -3.8145   23.4343 C   0  0  0  0  0  0
  -21.9198   -4.6961   22.3397 C   0  0  0  0  0  0
  -22.7877  -13.5236   21.1848 C   0  0  0  0  0  0
  -22.1660   -4.2139   21.0980 F   0  0  0  0  0  0
  -21.5632   -3.4544   25.7744 F   0  0  0  0  0  0
  -30.0329  -13.4044   20.3716 N   0  0  0  0  0  0
  -26.3033  -12.9371   20.3298 N   0  0  0  0  0  0
  -25.9369  -11.6534   20.5817 N   0  0  0  0  0  0
  -22.0492  -12.8260   22.0413 N   0  0  0  0  0  0
  -25.4239  -15.1858   20.3861 N   0  0  0  0  0  0
  -31.9109  -14.6652   20.1749 O   0  0  0  0  0  0
  -21.6645   -6.8872   21.4236 O   0  0  0  0  0  0
  -22.3594  -14.5540   20.6663 O   0  0  0  0  0  0
  -24.6191  -31.8647   23.2077 C   0  0  0  0  0  0
  -25.9084  -32.4806   23.8395 C   0  0  1  0  0  0
  -27.2283  -27.3695   20.1166 C   0  0  0  0  0  0
  -25.5921  -33.8616   24.2333 N   0  0  0  0  0  0
  -23.4123  -30.4851   21.5489 C   0  0  2  0  0  0
  -24.8613  -28.9363   20.1255 C   0  0  0  0  0  0
  -22.7444  -29.4640   22.4996 C   0  0  0  0  0  0
  -18.0269  -28.1372   22.8479 C   0  0  0  0  0  0
  -24.1499  -36.7322   23.2644 C   0  0  0  0  0  0
  -25.9471  -30.8052   21.3749 C   0  0  0  0  0  0
  -26.0248  -29.4290   20.7322 C   0  0  0  0  0  0
  -27.2151  -28.6521   20.7286 C   0  0  0  0  0  0
  -26.0487  -26.9043   19.5052 C   0  0  0  0  0  0
  -24.8691  -27.6718   19.5122 C   0  0  0  0  0  0
  -23.6290  -29.8152   20.1666 C   0  0  0  0  0  0
  -25.4127  -36.3115   24.0336 C   0  0  1  0  0  0
  -20.5865  -28.3673   23.1309 C   0  0  2  0  0  0
  -20.6775  -26.9419   22.5400 C   0  0  0  0  0  0
  -19.5748  -26.6383   21.5203 C   0  0  0  0  0  0
  -18.1920  -26.7912   22.1618 C   0  0  0  0  0  0
  -19.1517  -28.8836   23.2888 C   0  0  0  0  0  0
  -18.9443  -30.1441   23.8912 C   0  0  0  0  0  0
  -17.6448  -30.6586   24.0542 C   0  0  0  0  0  0
  -25.9032  -34.9474   23.5125 C   0  0  0  0  0  0
  -16.5346  -29.9076   23.6314 C   0  0  0  0  0  0
  -16.7256  -28.6483   23.0348 C   0  0  0  0  0  0
  -26.4492  -31.6588   25.0736 C   0  0  0  0  0  0
  -25.3748  -31.3727   26.1486 C   0  0  0  0  0  0
  -27.0303  -30.3006   24.6156 C   0  0  0  0  0  0
  -27.6092  -32.4295   25.7473 C   0  0  0  0  0  0
  -27.5566  -37.1858   24.8494 C   0  0  0  0  0  0
  -21.4163  -29.3037   22.3721 N   0  0  0  0  0  0
  -26.4338  -37.3777   23.9333 N   0  0  0  0  0  0
  -24.6784  -31.0689   22.1018 N   0  0  0  0  0  0
  -23.4183  -28.8191   23.3070 O   0  0  0  0  0  0
  -28.3631  -26.5862   19.9867 O   0  0  0  0  0  0
  -26.5587  -34.8909   22.4685 O   0  0  0  0  0  0
  -23.5375  -32.1453   23.7420 O   0  0  0  0  0  0
  -29.0795  -23.3351   20.2359 C   0  0  0  0  0  0
  -27.5016  -22.3268   22.3636 C   0  0  0  0  0  0
  -28.9203  -21.9309   20.4385 C   0  0  0  0  0  0
  -28.1847  -21.4467   21.5046 C   0  0  0  0  0  0
  -27.6180  -23.7300   22.1656 C   0  0  0  0  0  0
  -28.4448  -24.2595   21.1268 C   0  0  0  0  0  0
  -29.4823  -20.7377   19.6629 C   0  0  0  0  0  0
  -31.2499  -17.6438   19.5006 C   0  0  0  0  0  0
  -29.9674  -17.9036   18.7209 C   0  0  0  0  0  0
  -28.2410  -19.9257   21.5482 C   0  0  2  0  0  0
  -30.3630  -17.1556   20.6768 C   0  0  1  0  0  0
  -29.2834  -18.1505   20.0884 C   0  0  1  0  0  0
  -26.8641  -24.6513   23.1139 C   0  0  0  0  0  0
  -28.4338  -19.3230   22.9492 C   0  0  0  0  0  0
  -28.7978  -25.7812   21.1018 C   0  0  0  0  0  0
  -29.9601  -15.7073   20.5978 N   0  0  0  0  0  0
  -29.3543  -19.5765   20.6158 N   0  3  1  0  0  0
  -31.4714  -12.4361   19.1082 H   0  0  0  0  0  0
  -30.3370  -11.3709   19.8868 H   0  0  0  0  0  0
  -29.7418  -11.7084   17.4632 H   0  0  0  0  0  0
  -29.6424  -13.4337   17.7070 H   0  0  0  0  0  0
  -27.8584  -11.2787   18.8841 H   0  0  0  0  0  0
  -27.3557  -12.5357   17.7911 H   0  0  0  0  0  0
  -27.6605  -14.2445   19.4727 H   0  0  0  0  0  0
  -28.7242  -12.1241   21.4083 H   0  0  0  0  0  0
  -28.4964  -13.8132   21.7763 H   0  0  0  0  0  0
  -25.2757   -9.5690   22.4770 H   0  0  0  0  0  0
  -24.0013   -7.4643   22.7476 H   0  0  0  0  0  0
  -21.0836   -8.8780   19.8979 H   0  0  0  0  0  0
  -22.3671  -10.9688   19.6200 H   0  0  0  0  0  0
  -21.2004   -7.6147   23.9710 H   0  0  0  0  0  0
  -21.1482   -6.0512   25.9069 H   0  0  0  0  0  0
  -22.0594   -2.7606   23.2834 H   0  0  0  0  0  0
  -22.4094  -11.9936   22.4842 H   0  0  0  0  0  0
  -21.1108  -13.1309   22.2615 H   0  0  0  0  0  0
  -24.6212  -15.8045   20.4152 H   0  0  0  0  0  0
  -26.2131  -15.5836   19.8940 H   0  0  0  0  0  0
  -26.7169  -32.5490   23.1168 H   0  0  0  0  0  0
  -25.0077  -33.9780   25.0480 H   0  0  0  0  0  0
  -22.7020  -31.3023   21.4046 H   0  0  0  0  0  0
  -23.3692  -35.9747   23.3486 H   0  0  0  0  0  0
  -24.3541  -36.8724   22.2021 H   0  0  0  0  0  0
  -23.7373  -37.6638   23.6525 H   0  0  0  0  0  0
  -26.0673  -31.5654   20.6018 H   0  0  0  0  0  0
  -26.8331  -30.8630   21.9959 H   0  0  0  0  0  0
  -28.1184  -29.0354   21.1832 H   0  0  0  0  0  0
  -26.0467  -25.9412   19.0159 H   0  0  0  0  0  0
  -23.9763  -27.2872   19.0376 H   0  0  0  0  0  0
  -23.7513  -30.5888   19.4070 H   0  0  0  0  0  0
  -22.7488  -29.2447   19.8666 H   0  0  0  0  0  0
  -25.1330  -36.2026   25.0846 H   0  0  0  0  0  0
  -20.9940  -28.3245   24.1442 H   0  0  0  0  0  0
  -20.5677  -26.2289   23.3592 H   0  0  0  0  0  0
  -21.6637  -26.7461   22.1192 H   0  0  0  0  0  0
  -19.6906  -25.6292   21.1232 H   0  0  0  0  0  0
  -19.6680  -27.3183   20.6729 H   0  0  0  0  0  0
  -17.4192  -26.6638   21.4034 H   0  0  0  0  0  0
  -18.0345  -26.0072   22.9037 H   0  0  0  0  0  0
  -19.7927  -30.7222   24.2326 H   0  0  0  0  0  0
  -17.5009  -31.6271   24.5132 H   0  0  0  0  0  0
  -15.5345  -30.2970   23.7640 H   0  0  0  0  0  0
  -15.8655  -28.0788   22.7085 H   0  0  0  0  0  0
  -24.5916  -30.7080   25.7827 H   0  0  0  0  0  0
  -24.8951  -32.2890   26.4945 H   0  0  0  0  0  0
  -25.8096  -30.8894   27.0243 H   0  0  0  0  0  0
  -26.2841  -29.6761   24.1232 H   0  0  0  0  0  0
  -27.4051  -29.7274   25.4641 H   0  0  0  0  0  0
  -27.8697  -30.4267   23.9313 H   0  0  0  0  0  0
  -27.2770  -33.3634   26.2021 H   0  0  0  0  0  0
  -28.3914  -32.6782   25.0288 H   0  0  0  0  0  0
  -28.0749  -31.8427   26.5401 H   0  0  0  0  0  0
  -28.2748  -37.9978   24.7308 H   0  0  0  0  0  0
  -28.0897  -36.2523   24.6662 H   0  0  0  0  0  0
  -27.2236  -37.1903   25.8884 H   0  0  0  0  0  0
  -20.9355  -29.8761   21.6929 H   0  0  0  0  0  0
  -26.0257  -38.2896   24.1183 H   0  0  0  0  0  0
  -29.7165  -23.7008   19.4411 H   0  0  0  0  0  0
  -26.9058  -21.9275   23.1714 H   0  0  0  0  0  0
  -30.5121  -20.8979   19.3381 H   0  0  0  0  0  0
  -28.8566  -20.5787   18.7826 H   0  0  0  0  0  0
  -31.7671  -18.5858   19.7031 H   0  0  0  0  0  0
  -31.9303  -16.9303   19.0387 H   0  0  0  0  0  0
  -29.6216  -16.9944   18.2241 H   0  0  0  0  0  0
  -30.0282  -18.7273   18.0098 H   0  0  0  0  0  0
  -27.2973  -19.5741   21.1300 H   0  0  0  0  0  0
  -30.7823  -17.4392   21.6486 H   0  0  0  0  0  0
  -28.2622  -17.7627   20.1033 H   0  0  0  0  0  0
  -26.1288  -24.1034   23.7053 H   0  0  0  0  0  0
  -26.3275  -25.4189   22.5549 H   0  0  0  0  0  0
  -27.5496  -25.1384   23.8081 H   0  0  0  0  0  0
  -29.3941  -19.5916   23.3895 H   0  0  0  0  0  0
  -28.3750  -18.2345   22.9078 H   0  0  0  0  0  0
  -27.6458  -19.6589   23.6210 H   0  0  0  0  0  0
  -28.5431  -26.2765   22.0379 H   0  0  0  0  0  0
  -29.8865  -25.8203   21.0735 H   0  0  0  0  0  0
  -28.9682  -15.5262   20.6507 H   0  0  0  0  0  0
  -30.1979  -19.6370   21.1659 H   0  0  0  0  0  0
  1 25  1  0  0  0
  1 30  2  0  0  0
  1 86  1  0  0  0
  2  3  1  0  0  0
  2 25  1  0  0  0
  2 88  1  0  0  0
  2 89  1  0  0  0
  3  4  1  0  0  0
  3 90  1  0  0  0
  3 91  1  0  0  0
  4  5  1  0  0  0
  4 92  1  0  0  0
  4 93  1  0  0  0
  5  6  1  0  0  0
  5 26  1  0  0  0
  5 94  1  0  0  0
  6 25  1  0  0  0
  6 95  1  0  0  0
  6 96  1  0  0  0
  7  8  2  0  0  0
  7 26  1  0  0  0
  7 29  1  0  0  0
  8  9  1  0  0  0
  8 22  1  0  0  0
  9 10  1  0  0  0
  9 27  2  0  0  0
 10 11  2  0  0  0
 10 15  1  0  0  0
 11 12  1  0  0  0
 11 97  1  0  0  0
 12 13  2  0  0  0
 12 98  1  0  0  0
 13 14  1  0  0  0
 13 31  1  0  0  0
 14 15  2  0  0  0
 14 99  1  0  0  0
 15100  1  0  0  0
 16 17  2  0  0  0
 16 21  1  0  0  0
 16 31  1  0  0  0
 17 18  1  0  0  0
 17101  1  0  0  0
 18 19  2  0  0  0
 18102  1  0  0  0
 19 20  1  0  0  0
 19 24  1  0  0  0
 20 21  2  0  0  0
 20103  1  0  0  0
 21 23  1  0  0  0
 22 28  1  0  0  0
 22 32  2  0  0  0
 26 27  1  0  0  0
 28104  1  0  0  0
 28105  1  0  0  0
 29106  1  0  0  0
 29107  1  0  0  0
 33 34  1  0  0  0
 33 66  1  0  0  0
 33 70  2  0  0  0
 34 36  1  0  0  0
 34 59  1  0  0  0
 34108  1  0  0  0
 35 44  2  0  0  0
 35 45  1  0  0  0
 35 68  1  0  0  0
 36 56  1  0  0  0
 36109  1  0  0  0
 37 39  1  0  0  0
 37 47  1  0  0  0
 37 66  1  0  0  0
 37110  1  0  0  0
 38 43  2  0  0  0
 38 46  1  0  0  0
 38 47  1  0  0  0
 39 64  1  0  0  0
 39 67  2  0  0  0
 40 52  1  0  0  0
 40 53  2  0  0  0
 40 58  1  0  0  0
 41111  1  0  0  0
 41112  1  0  0  0
 41113  1  0  0  0
 41 48  1  0  0  0
 42 43  1  0  0  0
 42 66  1  0  0  0
 42114  1  0  0  0
 42115  1  0  0  0
 43 44  1  0  0  0
 44116  1  0  0  0
 45 46  2  0  0  0
 45117  1  0  0  0
 46118  1  0  0  0
 47119  1  0  0  0
 47120  1  0  0  0
 48 56  1  0  0  0
 48 65  1  0  0  0
 48121  1  0  0  0
 49 50  1  0  0  0
 49 53  1  0  0  0
 49 64  1  0  0  0
 49122  1  0  0  0
 50 51  1  0  0  0
 50123  1  0  0  0
 50124  1  0  0  0
 51 52  1  0  0  0
 51125  1  0  0  0
 51126  1  0  0  0
 52127  1  0  0  0
 52128  1  0  0  0
 53 54  1  0  0  0
 54 55  2  0  0  0
 54129  1  0  0  0
 55 57  1  0  0  0
 55130  1  0  0  0
 56 69  2  0  0  0
 57 58  2  0  0  0
 57131  1  0  0  0
 58132  1  0  0  0
 59 60  1  0  0  0
 59 61  1  0  0  0
 59 62  1  0  0  0
 60133  1  0  0  0
 60134  1  0  0  0
 60135  1  0  0  0
 61136  1  0  0  0
 61137  1  0  0  0
 61138  1  0  0  0
 62139  1  0  0  0
 62140  1  0  0  0
 62141  1  0  0  0
 63 65  1  0  0  0
 63142  1  0  0  0
 63143  1  0  0  0
 63144  1  0  0  0
 64145  1  0  0  0
 65146  1  0  0  0
 68 85  1  0  0  0
 71 73  2  0  0  0
 71 76  1  0  0  0
 71147  1  0  0  0
 72 74  2  0  0  0
 72 75  1  0  0  0
 72148  1  0  0  0
 73 74  1  0  0  0
 73 77  1  0  0  0
 74 80  1  0  0  0
 75 76  2  0  0  0
 75 83  1  0  0  0
 76 85  1  0  0  0
 77149  1  0  0  0
 77150  1  0  0  0
 77 87  1  0  0  0
 78 79  1  0  0  0
 78 81  1  0  0  0
 78151  1  0  0  0
 78152  1  0  0  0
 79153  1  0  0  0
 79154  1  0  0  0
 79 82  1  0  0  0
 80 84  1  0  0  0
 80 87  1  0  0  0
 80155  1  0  0  0
 81 82  1  0  0  0
 81 86  1  0  0  0
 81156  1  0  0  0
 82 87  1  0  0  0
 82157  1  0  0  0
 83158  1  0  0  0
 83159  1  0  0  0
 83160  1  0  0  0
 84161  1  0  0  0
 84162  1  0  0  0
 84163  1  0  0  0
 85164  1  0  0  0
 85165  1  0  0  0
 86166  1  0  0  0
 87167  1  0  0  0
M  CHG  1  87   1
M  ISO  4   1 100  68 101  85 101  86 100
M  END
> <chiral flag>
0

> <version>
0

> <s_m_source_file>
/data/baiqing/PycharmProjects/Reinvent-master-3.2/result/LINK_invent/BTK/process_docking_weight1_custom_sum_contain_oxygen_bond_distance_aromatic_linkinvent_7_9_3/rearranged_h_0164.sdf

> <i_m_source_file_index>
5

> <r_mmod_Potential_Energy-OPLS-2005>
10.03844165802

> <r_mmod_Stretch_Energy-OPLS-2005>
61.8244323730469

> <r_mmod_Bend_Energy-OPLS-2005>
191.850494384766

> <r_mmod_Torsional_Energy-OPLS-2005>
308.816528320312

> <r_mmod_Improper_Torsional_Energy-OPLS-2005>
7.71480655670166

> <r_mmod_Van_der_Waal_Energy-OPLS-2005>
134.289031982422

> <r_mmod_Electrostatic_Energy-OPLS-2005>
-282.271179199219

> <r_mmod_Solvation_Energy-OPLS-2005>
-448.639221191406

> <b_mmod_Minimization_Converged-OPLS-2005>
0

> <r_mmod_RMS_Derivative-OPLS-2005>
5.16173267364502

$$$$
5
                    3D
 Structure written by MMmdl.
172181  0  0  1  0            999 V2000
  -30.6473  -14.6688   20.4796 C   0  0  0  0  0  0
  -30.4298  -12.4095   19.4645 C   0  0  0  0  0  0
  -29.5075  -12.4975   18.2300 C   0  0  0  0  0  0
  -28.0323  -12.3335   18.6433 C   0  0  0  0  0  0
  -27.6465  -13.2266   19.8535 C   0  0  2  0  0  0
  -28.6909  -13.1327   20.9883 C   0  0  0  0  0  0
  -25.2510  -13.8182   20.5659 C   0  0  0  0  0  0
  -24.1806  -13.0437   20.9208 C   0  0  0  0  0  0
  -24.6393  -11.6915   20.8752 C   0  0  0  0  0  0
  -23.9062  -10.4293   21.0408 C   0  0  0  0  0  0
  -24.3613   -9.4212   21.9185 C   0  0  0  0  0  0
  -23.6293   -8.2242   22.0753 C   0  0  0  0  0  0
  -22.4277   -8.0275   21.3541 C   0  0  0  0  0  0
  -21.9913   -9.0250   20.4645 C   0  0  0  0  0  0
  -22.7236  -10.2135   20.3055 C   0  0  0  0  0  0
  -21.6857   -6.0733   22.5280 C   0  0  0  0  0  0
  -21.4014   -6.5637   23.8212 C   0  0  0  0  0  0
  -21.3658   -5.6790   24.9173 C   0  0  0  0  0  0
  -21.6046   -4.3049   24.7225 C   0  0  0  0  0  0
  -21.8819   -3.8145   23.4342 C   0  0  0  0  0  0
  -21.9196   -4.6963   22.3402 C   0  0  0  0  0  0
  -22.7826  -13.5225   21.1861 C   0  0  0  0  0  0
  -22.1664   -4.2148   21.0976 F   0  0  0  0  0  0
  -21.5629   -3.4532   25.7734 F   0  0  0  0  0  0
  -30.0016  -13.4601   20.4122 N   0  0  0  0  0  0
  -26.2954  -12.9396   20.3280 N   0  0  0  0  0  0
  -25.9325  -11.6540   20.5760 N   0  0  0  0  0  0
  -22.0464  -12.8224   22.0417 N   0  0  0  0  0  0
  -25.4149  -15.1898   20.4005 N   0  0  0  0  0  0
  -31.8272  -14.7724   20.1357 O   0  0  0  0  0  0
  -21.6640   -6.8875   21.4239 O   0  0  0  0  0  0
  -22.3510  -14.5527   20.6699 O   0  0  0  0  0  0
  -24.6289  -31.8588   23.2029 C   0  0  0  0  0  0
  -25.9129  -32.4777   23.8351 C   0  0  1  0  0  0
  -27.2130  -27.2961   20.1158 C   0  0  0  0  0  0
  -25.5943  -33.8575   24.2282 N   0  0  0  0  0  0
  -23.4223  -30.4850   21.5463 C   0  0  2  0  0  0
  -24.8661  -28.9419   20.1090 C   0  0  0  0  0  0
  -22.7486  -29.4622   22.4926 C   0  0  0  0  0  0
  -18.0289  -28.1395   22.8486 C   0  0  0  0  0  0
  -24.1487  -36.7284   23.2634 C   0  0  0  0  0  0
  -25.9664  -30.7833   21.3772 C   0  0  0  0  0  0
  -26.0382  -29.4101   20.7165 C   0  0  0  0  0  0
  -27.2153  -28.5991   20.7101 C   0  0  0  0  0  0
  -26.0157  -26.8931   19.4778 C   0  0  0  0  0  0
  -24.8581  -27.6900   19.4805 C   0  0  0  0  0  0
  -23.6369  -29.8259   20.1597 C   0  0  0  0  0  0
  -25.4113  -36.3082   24.0327 C   0  0  1  0  0  0
  -20.5893  -28.3690   23.1283 C   0  0  2  0  0  0
  -20.6783  -26.9412   22.5411 C   0  0  0  0  0  0
  -19.5756  -26.6393   21.5213 C   0  0  0  0  0  0
  -18.1933  -26.7941   22.1622 C   0  0  0  0  0  0
  -19.1544  -28.8860   23.2882 C   0  0  0  0  0  0
  -18.9467  -30.1466   23.8892 C   0  0  0  0  0  0
  -17.6467  -30.6596   24.0566 C   0  0  0  0  0  0
  -25.9054  -34.9449   23.5102 C   0  0  0  0  0  0
  -16.5356  -29.9095   23.6339 C   0  0  0  0  0  0
  -16.7277  -28.6515   23.0354 C   0  0  0  0  0  0
  -26.4507  -31.6593   25.0724 C   0  0  0  0  0  0
  -25.3742  -31.3736   26.1453 C   0  0  0  0  0  0
  -27.0348  -30.3017   24.6179 C   0  0  0  0  0  0
  -27.6058  -32.4330   25.7503 C   0  0  0  0  0  0
  -27.5578  -37.1796   24.8460 C   0  0  0  0  0  0
  -21.4196  -29.3047   22.3675 N   0  0  0  0  0  0
  -26.4286  -37.3784   23.9410 N   0  0  0  0  0  0
  -24.6912  -31.0588   22.0985 N   0  0  0  0  0  0
  -23.4208  -28.8154   23.2998 O   0  0  0  0  0  0
  -28.3119  -26.4150   20.1789 O   0  0  0  0  0  0
  -26.5609  -34.8916   22.4663 O   0  0  0  0  0  0
  -23.5450  -32.1386   23.7359 O   0  0  0  0  0  0
  -29.6866  -19.7723   20.2806 C   0  0  0  0  0  0
  -27.5040  -19.5571   21.9620 C   0  0  0  0  0  0
  -28.8900  -20.9629   20.5007 C   0  0  0  0  0  0
  -29.4104  -18.4753   20.8592 C   0  0  0  0  0  0
  -27.7686  -20.8029   21.3505 C   0  0  0  0  0  0
  -28.3033  -18.4119   21.7452 C   0  0  0  0  0  0
  -30.5086  -24.0678   19.6902 C   0  0  0  0  0  0
  -29.1432  -22.3526   19.7679 C   0  0  1  0  0  0
  -29.1421  -23.8607   20.3492 C   0  0  2  0  0  0
  -30.5595  -22.6147   19.1968 C   0  0  1  0  0  0
  -26.8087  -21.9493   21.6176 C   0  0  0  0  0  0
  -27.9425  -17.1513   22.5133 C   0  0  0  0  0  0
  -32.0161  -22.9760   17.2314 C   0  0  0  0  0  0
  -30.4124  -21.1371   17.1902 C   0  0  0  0  0  0
  -30.3493  -17.2307   20.5625 C   0  0  0  0  0  0
  -28.0544  -24.9602   19.9727 C   0  0  0  0  0  0
  -29.8983  -15.7944   20.7215 N   0  0  0  0  0  0
  -30.7006  -22.4924   17.7143 N   0  3  0  0  0  0
  -31.4722  -12.5219   19.1623 H   0  0  0  0  0  0
  -30.3584  -11.4258   19.9317 H   0  0  0  0  0  0
  -29.7792  -11.7308   17.5027 H   0  0  0  0  0  0
  -29.6479  -13.4583   17.7315 H   0  0  0  0  0  0
  -27.8791  -11.2843   18.8983 H   0  0  0  0  0  0
  -27.3766  -12.5387   17.7962 H   0  0  0  0  0  0
  -27.6509  -14.2524   19.4842 H   0  0  0  0  0  0
  -28.7076  -12.1303   21.4188 H   0  0  0  0  0  0
  -28.4364  -13.8100   21.8051 H   0  0  0  0  0  0
  -25.2755   -9.5699   22.4760 H   0  0  0  0  0  0
  -24.0010   -7.4637   22.7469 H   0  0  0  0  0  0
  -21.0849   -8.8762   19.8952 H   0  0  0  0  0  0
  -22.3685  -10.9668   19.6161 H   0  0  0  0  0  0
  -21.1999   -7.6145   23.9713 H   0  0  0  0  0  0
  -21.1484   -6.0517   25.9077 H   0  0  0  0  0  0
  -22.0602   -2.7608   23.2841 H   0  0  0  0  0  0
  -22.4082  -11.9895   22.4822 H   0  0  0  0  0  0
  -21.1071  -13.1240   22.2590 H   0  0  0  0  0  0
  -24.6360  -15.8318   20.4986 H   0  0  0  0  0  0
  -26.2419  -15.6299   20.0190 H   0  0  0  0  0  0
  -26.7190  -32.5434   23.1090 H   0  0  0  0  0  0
  -25.0116  -33.9713   25.0447 H   0  0  0  0  0  0
  -22.7172  -31.3069   21.4072 H   0  0  0  0  0  0
  -23.3758  -35.9610   23.3298 H   0  0  0  0  0  0
  -24.3580  -36.8903   22.2048 H   0  0  0  0  0  0
  -23.7228  -37.6479   23.6656 H   0  0  0  0  0  0
  -26.1008  -31.5473   20.6102 H   0  0  0  0  0  0
  -26.8462  -30.8306   22.0067 H   0  0  0  0  0  0
  -28.1122  -28.9503   21.2008 H   0  0  0  0  0  0
  -25.9340  -25.9402   18.9783 H   0  0  0  0  0  0
  -23.9606  -27.3267   18.9986 H   0  0  0  0  0  0
  -23.7600  -30.6052   19.4067 H   0  0  0  0  0  0
  -22.7550  -29.2600   19.8543 H   0  0  0  0  0  0
  -25.1302  -36.1927   25.0822 H   0  0  0  0  0  0
  -20.9991  -28.3264   24.1401 H   0  0  0  0  0  0
  -20.5694  -26.2290   23.3606 H   0  0  0  0  0  0
  -21.6649  -26.7453   22.1192 H   0  0  0  0  0  0
  -19.6911  -25.6305   21.1235 H   0  0  0  0  0  0
  -19.6698  -27.3208   20.6744 H   0  0  0  0  0  0
  -17.4206  -26.6690   21.4020 H   0  0  0  0  0  0
  -18.0330  -26.0090   22.9025 H   0  0  0  0  0  0
  -19.7942  -30.7288   24.2252 H   0  0  0  0  0  0
  -17.5022  -31.6273   24.5175 H   0  0  0  0  0  0
  -15.5359  -30.2997   23.7670 H   0  0  0  0  0  0
  -15.8675  -28.0840   22.7067 H   0  0  0  0  0  0
  -24.5919  -30.7078   25.7792 H   0  0  0  0  0  0
  -24.8928  -32.2901   26.4870 H   0  0  0  0  0  0
  -25.8075  -30.8925   27.0231 H   0  0  0  0  0  0
  -26.2919  -29.6770   24.1202 H   0  0  0  0  0  0
  -27.4045  -29.7276   25.4684 H   0  0  0  0  0  0
  -27.8801  -30.4306   23.9415 H   0  0  0  0  0  0
  -27.2662  -33.3634   26.2072 H   0  0  0  0  0  0
  -28.3886  -32.6879   25.0346 H   0  0  0  0  0  0
  -28.0710  -31.8455   26.5428 H   0  0  0  0  0  0
  -28.2592  -38.0097   24.7536 H   0  0  0  0  0  0
  -28.1084  -36.2631   24.6275 H   0  0  0  0  0  0
  -27.2297  -37.1440   25.8862 H   0  0  0  0  0  0
  -20.9365  -29.8779   21.6900 H   0  0  0  0  0  0
  -26.0167  -38.2855   24.1436 H   0  0  0  0  0  0
  -30.5486  -19.8372   19.6362 H   0  0  0  0  0  0
  -26.6518  -19.4740   22.6234 H   0  0  0  0  0  0
  -31.2970  -24.3138   20.4030 H   0  0  0  0  0  0
  -30.4686  -24.8138   18.8944 H   0  0  0  0  0  0
  -28.4203  -22.3586   18.9507 H   0  0  0  0  0  0
  -29.2986  -23.8208   21.4282 H   0  0  0  0  0  0
  -31.3310  -22.0620   19.7364 H   0  0  0  0  0  0
  -25.9343  -21.6165   22.1781 H   0  0  0  0  0  0
  -26.4471  -22.3767   20.6825 H   0  0  0  0  0  0
  -27.2932  -22.7304   22.2023 H   0  0  0  0  0  0
  -27.2110  -17.3571   23.2952 H   0  0  0  0  0  0
  -28.8200  -16.7286   23.0032 H   0  0  0  0  0  0
  -27.5056  -16.4047   21.8521 H   0  0  0  0  0  0
  -32.1912  -24.0149   17.5089 H   0  0  0  0  0  0
  -32.0763  -22.9198   16.1441 H   0  0  0  0  0  0
  -32.8296  -22.3788   17.6441 H   0  0  0  0  0  0
  -29.4278  -20.7840   17.4939 H   0  0  0  0  0  0
  -31.1570  -20.4168   17.5285 H   0  0  0  0  0  0
  -30.4261  -21.1375   16.1001 H   0  0  0  0  0  0
  -31.2384  -17.3593   21.1808 H   0  0  0  0  0  0
  -30.6980  -17.3366   19.5340 H   0  0  0  0  0  0
  -27.1462  -24.7087   20.5217 H   0  0  0  0  0  0
  -27.8108  -24.8273   18.9182 H   0  0  0  0  0  0
  -28.9277  -15.6518   20.9494 H   0  0  0  0  0  0
  -30.0103  -23.0977   17.2950 H   0  0  0  0  0  0
  1 25  1  0  0  0
  1 30  2  0  0  0
  1 87  1  0  0  0
  2  3  1  0  0  0
  2 25  1  0  0  0
  2 89  1  0  0  0
  2 90  1  0  0  0
  3  4  1  0  0  0
  3 91  1  0  0  0
  3 92  1  0  0  0
  4  5  1  0  0  0
  4 93  1  0  0  0
  4 94  1  0  0  0
  5  6  1  0  0  0
  5 26  1  0  0  0
  5 95  1  0  0  0
  6 25  1  0  0  0
  6 96  1  0  0  0
  6 97  1  0  0  0
  7  8  2  0  0  0
  7 26  1  0  0  0
  7 29  1  0  0  0
  8  9  1  0  0  0
  8 22  1  0  0  0
  9 10  1  0  0  0
  9 27  2  0  0  0
 10 11  2  0  0  0
 10 15  1  0  0  0
 11 12  1  0  0  0
 11 98  1  0  0  0
 12 13  2  0  0  0
 12 99  1  0  0  0
 13 14  1  0  0  0
 13 31  1  0  0  0
 14 15  2  0  0  0
 14100  1  0  0  0
 15101  1  0  0  0
 16 17  2  0  0  0
 16 21  1  0  0  0
 16 31  1  0  0  0
 17 18  1  0  0  0
 17102  1  0  0  0
 18 19  2  0  0  0
 18103  1  0  0  0
 19 20  1  0  0  0
 19 24  1  0  0  0
 20 21  2  0  0  0
 20104  1  0  0  0
 21 23  1  0  0  0
 22 28  1  0  0  0
 22 32  2  0  0  0
 26 27  1  0  0  0
 28105  1  0  0  0
 28106  1  0  0  0
 29107  1  0  0  0
 29108  1  0  0  0
 33 34  1  0  0  0
 33 66  1  0  0  0
 33 70  2  0  0  0
 34 36  1  0  0  0
 34 59  1  0  0  0
 34109  1  0  0  0
 35 44  2  0  0  0
 35 45  1  0  0  0
 35 68  1  0  0  0
 36 56  1  0  0  0
 36110  1  0  0  0
 37 39  1  0  0  0
 37 47  1  0  0  0
 37 66  1  0  0  0
 37111  1  0  0  0
 38 43  2  0  0  0
 38 46  1  0  0  0
 38 47  1  0  0  0
 39 64  1  0  0  0
 39 67  2  0  0  0
 40 52  1  0  0  0
 40 53  2  0  0  0
 40 58  1  0  0  0
 41112  1  0  0  0
 41113  1  0  0  0
 41114  1  0  0  0
 41 48  1  0  0  0
 42 43  1  0  0  0
 42 66  1  0  0  0
 42115  1  0  0  0
 42116  1  0  0  0
 43 44  1  0  0  0
 44117  1  0  0  0
 45 46  2  0  0  0
 45118  1  0  0  0
 46119  1  0  0  0
 47120  1  0  0  0
 47121  1  0  0  0
 48 56  1  0  0  0
 48 65  1  0  0  0
 48122  1  0  0  0
 49 50  1  0  0  0
 49 53  1  0  0  0
 49 64  1  0  0  0
 49123  1  0  0  0
 50 51  1  0  0  0
 50124  1  0  0  0
 50125  1  0  0  0
 51 52  1  0  0  0
 51126  1  0  0  0
 51127  1  0  0  0
 52128  1  0  0  0
 52129  1  0  0  0
 53 54  1  0  0  0
 54 55  2  0  0  0
 54130  1  0  0  0
 55 57  1  0  0  0
 55131  1  0  0  0
 56 69  2  0  0  0
 57 58  2  0  0  0
 57132  1  0  0  0
 58133  1  0  0  0
 59 60  1  0  0  0
 59 61  1  0  0  0
 59 62  1  0  0  0
 60134  1  0  0  0
 60135  1  0  0  0
 60136  1  0  0  0
 61137  1  0  0  0
 61138  1  0  0  0
 61139  1  0  0  0
 62140  1  0  0  0
 62141  1  0  0  0
 62142  1  0  0  0
 63 65  1  0  0  0
 63143  1  0  0  0
 63144  1  0  0  0
 63145  1  0  0  0
 64146  1  0  0  0
 65147  1  0  0  0
 68 86  1  0  0  0
 71 73  2  0  0  0
 71 74  1  0  0  0
 71148  1  0  0  0
 72 75  2  0  0  0
 72 76  1  0  0  0
 72149  1  0  0  0
 73 75  1  0  0  0
 73 78  1  0  0  0
 74 76  2  0  0  0
 74 85  1  0  0  0
 75 81  1  0  0  0
 76 82  1  0  0  0
 77 79  1  0  0  0
 77150  1  0  0  0
 77151  1  0  0  0
 77 80  1  0  0  0
 78 79  1  0  0  0
 78 80  1  0  0  0
 78152  1  0  0  0
 79 86  1  0  0  0
 79153  1  0  0  0
 80 88  1  0  0  0
 80154  1  0  0  0
 81155  1  0  0  0
 81156  1  0  0  0
 81157  1  0  0  0
 82158  1  0  0  0
 82159  1  0  0  0
 82160  1  0  0  0
 83161  1  0  0  0
 83162  1  0  0  0
 83163  1  0  0  0
 83 88  1  0  0  0
 84 88  1  0  0  0
 84164  1  0  0  0
 84165  1  0  0  0
 84166  1  0  0  0
 85 87  1  0  0  0
 85167  1  0  0  0
 85168  1  0  0  0
 86169  1  0  0  0
 86170  1  0  0  0
 87171  1  0  0  0
 88172  1  0  0  0
M  CHG  1  88   1
M  ISO  4   1 100  68 101  86 101  87 100
M  END
> <chiral flag>
0

> <version>
0

> <s_m_source_file>
/data/baiqing/PycharmProjects/Reinvent-master-3.2/result/LINK_invent/BTK/process_docking_weight1_custom_sum_contain_oxygen_bond_distance_aromatic_linkinvent_7_9_3/rearranged_h_0164.sdf

> <i_m_source_file_index>
6

> <r_mmod_Potential_Energy-OPLS-2005>
-58.7334175109863

> <r_mmod_Stretch_Energy-OPLS-2005>
101.018295288086

> <r_mmod_Bend_Energy-OPLS-2005>
153.963073730469

> <r_mmod_Torsional_Energy-OPLS-2005>
257.307220458984

> <r_mmod_Improper_Torsional_Energy-OPLS-2005>
5.50979423522949

> <r_mmod_Van_der_Waal_Energy-OPLS-2005>
142.505325317383

> <r_mmod_Electrostatic_Energy-OPLS-2005>
-334.054931640625

> <r_mmod_Solvation_Energy-OPLS-2005>
-447.092803955078

> <b_mmod_Minimization_Converged-OPLS-2005>
0

> <r_mmod_RMS_Derivative-OPLS-2005>
1.05546903610229

$$$$
6
                    3D
 Structure written by MMmdl.
188198  0  0  1  0            999 V2000
  -30.6867  -14.5842   20.5071 C   0  0  0  0  0  0
  -30.4156  -12.3670   19.4410 C   0  0  0  0  0  0
  -29.4954  -12.4969   18.2103 C   0  0  0  0  0  0
  -28.0195  -12.3492   18.6261 C   0  0  0  0  0  0
  -27.6458  -13.2231   19.8544 C   0  0  2  0  0  0
  -28.6906  -13.1057   20.9860 C   0  0  0  0  0  0
  -25.2528  -13.8175   20.5696 C   0  0  0  0  0  0
  -24.1808  -13.0426   20.9187 C   0  0  0  0  0  0
  -24.6384  -11.6895   20.8732 C   0  0  0  0  0  0
  -23.9060  -10.4285   21.0392 C   0  0  0  0  0  0
  -24.3624   -9.4199   21.9168 C   0  0  0  0  0  0
  -23.6304   -8.2226   22.0748 C   0  0  0  0  0  0
  -22.4278   -8.0262   21.3542 C   0  0  0  0  0  0
  -21.9913   -9.0229   20.4638 C   0  0  0  0  0  0
  -22.7230  -10.2110   20.3044 C   0  0  0  0  0  0
  -21.6850   -6.0717   22.5279 C   0  0  0  0  0  0
  -21.3998   -6.5638   23.8207 C   0  0  0  0  0  0
  -21.3667   -5.6796   24.9177 C   0  0  0  0  0  0
  -21.6055   -4.3061   24.7240 C   0  0  0  0  0  0
  -21.8818   -3.8143   23.4364 C   0  0  0  0  0  0
  -21.9194   -4.6944   22.3409 C   0  0  0  0  0  0
  -22.7825  -13.5202   21.1864 C   0  0  0  0  0  0
  -22.1658   -4.2142   21.0986 F   0  0  0  0  0  0
  -21.5655   -3.4544   25.7751 F   0  0  0  0  0  0
  -30.0044  -13.4036   20.4067 N   0  0  0  0  0  0
  -26.2963  -12.9368   20.3299 N   0  0  0  0  0  0
  -25.9319  -11.6509   20.5746 N   0  0  0  0  0  0
  -22.0495  -12.8176   22.0424 N   0  0  0  0  0  0
  -25.4225  -15.1888   20.4114 N   0  0  0  0  0  0
  -31.8802  -14.6570   20.1980 O   0  0  0  0  0  0
  -21.6635   -6.8855   21.4235 O   0  0  0  0  0  0
  -22.3507  -14.5521   20.6726 O   0  0  0  0  0  0
  -24.6219  -31.8625   23.2058 C   0  0  0  0  0  0
  -25.9079  -32.4757   23.8374 C   0  0  1  0  0  0
  -27.2120  -27.3241   20.1029 C   0  0  0  0  0  0
  -25.5957  -33.8558   24.2259 N   0  0  0  0  0  0
  -23.4128  -30.4872   21.5514 C   0  0  2  0  0  0
  -24.8521  -28.9508   20.1080 C   0  0  0  0  0  0
  -22.7446  -29.4592   22.4961 C   0  0  0  0  0  0
  -18.0256  -28.1326   22.8383 C   0  0  0  0  0  0
  -24.1517  -36.7288   23.2631 C   0  0  0  0  0  0
  -25.9572  -30.7859   21.3848 C   0  0  0  0  0  0
  -26.0225  -29.4182   20.7189 C   0  0  0  0  0  0
  -27.1969  -28.6145   20.7165 C   0  0  0  0  0  0
  -26.0202  -26.9232   19.4485 C   0  0  0  0  0  0
  -24.8547  -27.7040   19.4694 C   0  0  0  0  0  0
  -23.6256  -29.8358   20.1608 C   0  0  0  0  0  0
  -25.4134  -36.3058   24.0336 C   0  0  1  0  0  0
  -20.5862  -28.3614   23.1241 C   0  0  2  0  0  0
  -20.6759  -26.9320   22.5394 C   0  0  0  0  0  0
  -19.5778  -26.6307   21.5149 C   0  0  0  0  0  0
  -18.1934  -26.7866   22.1524 C   0  0  0  0  0  0
  -19.1507  -28.8785   23.2769 C   0  0  0  0  0  0
  -18.9473  -30.1360   23.8810 C   0  0  0  0  0  0
  -17.6494  -30.6516   24.0513 C   0  0  0  0  0  0
  -25.9099  -34.9442   23.5086 C   0  0  0  0  0  0
  -16.5362  -29.9017   23.6320 C   0  0  0  0  0  0
  -16.7259  -28.6442   23.0301 C   0  0  0  0  0  0
  -26.4485  -31.6586   25.0738 C   0  0  0  0  0  0
  -25.3755  -31.3739   26.1492 C   0  0  0  0  0  0
  -27.0297  -30.3002   24.6194 C   0  0  0  0  0  0
  -27.6028  -32.4375   25.7505 C   0  0  0  0  0  0
  -27.5606  -37.1776   24.8456 C   0  0  0  0  0  0
  -21.4167  -29.2974   22.3678 N   0  0  0  0  0  0
  -26.4299  -37.3770   23.9432 N   0  0  0  0  0  0
  -24.6818  -31.0636   22.1023 N   0  0  0  0  0  0
  -23.4166  -28.8131   23.3015 O   0  0  0  0  0  0
  -28.3464  -26.5038   20.1798 O   0  0  0  0  0  0
  -26.5615  -34.8909   22.4636 O   0  0  0  0  0  0
  -23.5400  -32.1433   23.7397 O   0  0  0  0  0  0
  -24.6301  -21.9138   23.4516 C   0  0  0  0  0  0
  -24.8993  -23.0912   25.9786 C   0  0  0  0  0  0
  -25.8724  -22.4933   23.8041 C   0  0  0  0  0  0
  -23.5234  -21.9517   24.3266 C   0  0  0  0  0  0
  -25.9828  -23.1238   25.0761 C   0  0  0  0  0  0
  -23.6716  -22.5073   25.6178 C   0  0  0  0  0  0
  -28.9067  -17.7622   19.4589 C   0  0  0  0  0  0
  -29.4874  -18.0227   21.8147 C   0  0  0  0  0  0
  -26.6695  -22.8638   21.3628 C   0  0  0  0  0  0
  -29.7981  -16.4955   19.3704 C   0  0  0  0  0  0
  -30.3238  -16.6937   21.7175 C   0  0  0  0  0  0
  -27.0357  -22.4936   22.7940 C   0  0  2  0  0  0
  -29.3716  -18.8222   20.4926 C   0  0  0  0  0  0
  -27.9916  -22.6011   20.6262 C   0  0  1  0  0  0
  -27.7978  -21.1713   22.5813 C   0  0  2  0  0  0
  -22.1812  -21.4199   23.8507 C   0  0  0  0  0  0
  -27.2238  -23.8789   25.5255 C   0  0  0  0  0  0
  -22.5327  -22.5150   26.6249 C   0  0  0  0  0  0
  -28.6914  -20.8028   23.7844 C   0  0  0  0  0  0
  -28.4014  -20.0891   20.3962 C   0  0  0  0  0  0
  -28.8662  -23.9369   20.6500 C   0  0  0  0  0  0
  -28.3190  -25.1014   19.7158 C   0  0  0  0  0  0
  -29.9540  -15.7427   20.6366 N   0  0  0  0  0  0
  -28.5464  -21.3245   21.2802 N   0  3  1  0  0  0
  -31.4620  -12.4641   19.1408 H   0  0  0  0  0  0
  -30.3204  -11.3767   19.8888 H   0  0  0  0  0  0
  -29.7508  -11.7399   17.4676 H   0  0  0  0  0  0
  -29.6506  -13.4616   17.7226 H   0  0  0  0  0  0
  -27.8475  -11.2960   18.8532 H   0  0  0  0  0  0
  -27.3656  -12.5826   17.7851 H   0  0  0  0  0  0
  -27.6542  -14.2557   19.5063 H   0  0  0  0  0  0
  -28.6863  -12.1053   21.4201 H   0  0  0  0  0  0
  -28.4538  -13.7978   21.7961 H   0  0  0  0  0  0
  -25.2760   -9.5683   22.4742 H   0  0  0  0  0  0
  -24.0028   -7.4611   22.7465 H   0  0  0  0  0  0
  -21.0851   -8.8721   19.8935 H   0  0  0  0  0  0
  -22.3677  -10.9639   19.6169 H   0  0  0  0  0  0
  -21.1957   -7.6135   23.9706 H   0  0  0  0  0  0
  -21.1508   -6.0528   25.9086 H   0  0  0  0  0  0
  -22.0596   -2.7603   23.2863 H   0  0  0  0  0  0
  -22.4146  -11.9859   22.4833 H   0  0  0  0  0  0
  -21.1097  -13.1144   22.2605 H   0  0  0  0  0  0
  -24.6541  -15.8428   20.5110 H   0  0  0  0  0  0
  -26.2844  -15.6293   20.1189 H   0  0  0  0  0  0
  -26.7090  -32.5394   23.1081 H   0  0  0  0  0  0
  -25.0202  -33.9734   25.0467 H   0  0  0  0  0  0
  -22.7060  -31.3062   21.4138 H   0  0  0  0  0  0
  -23.3788  -35.9608   23.3285 H   0  0  0  0  0  0
  -24.3597  -36.8945   22.2050 H   0  0  0  0  0  0
  -23.7273  -37.6495   23.6669 H   0  0  0  0  0  0
  -26.1102  -31.5571   20.6284 H   0  0  0  0  0  0
  -26.8290  -30.8107   22.0276 H   0  0  0  0  0  0
  -28.0862  -28.9588   21.2246 H   0  0  0  0  0  0
  -25.9263  -26.0056   18.8926 H   0  0  0  0  0  0
  -23.9614  -27.3384   18.9738 H   0  0  0  0  0  0
  -23.7490  -30.6232   19.4163 H   0  0  0  0  0  0
  -22.7409  -29.2767   19.8518 H   0  0  0  0  0  0
  -25.1292  -36.1936   25.0823 H   0  0  0  0  0  0
  -20.9876  -28.3201   24.1396 H   0  0  0  0  0  0
  -20.5661  -26.2186   23.3606 H   0  0  0  0  0  0
  -21.6620  -26.7367   22.1214 H   0  0  0  0  0  0
  -19.7025  -25.6228   21.1158 H   0  0  0  0  0  0
  -19.6810  -27.3116   20.6688 H   0  0  0  0  0  0
  -17.4231  -26.6545   21.3913 H   0  0  0  0  0  0
  -18.0303  -26.0042   22.8952 H   0  0  0  0  0  0
  -19.8000  -30.7066   24.2222 H   0  0  0  0  0  0
  -17.5111  -31.6233   24.5041 H   0  0  0  0  0  0
  -15.5355  -30.2875   23.7748 H   0  0  0  0  0  0
  -15.8657  -28.0743   22.7077 H   0  0  0  0  0  0
  -24.5946  -30.7039   25.7887 H   0  0  0  0  0  0
  -24.8896  -32.2907   26.4874 H   0  0  0  0  0  0
  -25.8112  -30.9009   27.0303 H   0  0  0  0  0  0
  -26.2827  -29.6806   24.1220 H   0  0  0  0  0  0
  -27.4000  -29.7220   25.4670 H   0  0  0  0  0  0
  -27.8732  -30.4292   23.9393 H   0  0  0  0  0  0
  -27.2583  -33.3693   26.2034 H   0  0  0  0  0  0
  -28.3845  -32.6968   25.0333 H   0  0  0  0  0  0
  -28.0703  -31.8573   26.5496 H   0  0  0  0  0  0
  -28.2535  -38.0138   24.7485 H   0  0  0  0  0  0
  -28.1168  -36.2662   24.6253 H   0  0  0  0  0  0
  -27.2311  -37.1362   25.8843 H   0  0  0  0  0  0
  -20.9359  -29.8799   21.6982 H   0  0  0  0  0  0
  -26.0204  -38.2852   24.1446 H   0  0  0  0  0  0
  -24.5000  -21.4526   22.4820 H   0  0  0  0  0  0
  -25.0010  -23.5473   26.9551 H   0  0  0  0  0  0
  -27.8876  -17.4510   19.6952 H   0  0  0  0  0  0
  -28.8558  -18.2127   18.4654 H   0  0  0  0  0  0
  -29.9855  -18.6524   22.5489 H   0  0  0  0  0  0
  -28.4930  -17.8016   22.2052 H   0  0  0  0  0  0
  -26.2842  -23.8812   21.2747 H   0  0  0  0  0  0
  -25.9091  -22.1910   20.9676 H   0  0  0  0  0  0
  -30.7866  -16.7798   19.0038 H   0  0  0  0  0  0
  -29.3765  -15.8311   18.6136 H   0  0  0  0  0  0
  -30.2622  -16.1731   22.6750 H   0  0  0  0  0  0
  -31.3766  -16.9590   21.5912 H   0  0  0  0  0  0
  -27.7669  -23.2202   23.1318 H   0  0  0  0  0  0
  -30.3740  -19.1528   20.2131 H   0  0  0  0  0  0
  -27.7707  -22.4084   19.5789 H   0  0  0  0  0  0
  -27.0350  -20.3971   22.4835 H   0  0  0  0  0  0
  -22.1703  -21.2807   22.7676 H   0  0  0  0  0  0
  -21.3824  -22.1263   24.0813 H   0  0  0  0  0  0
  -21.9438  -20.4652   24.3220 H   0  0  0  0  0  0
  -27.5421  -24.5988   24.7738 H   0  0  0  0  0  0
  -28.0424  -23.1982   25.7451 H   0  0  0  0  0  0
  -27.0191  -24.4498   26.4328 H   0  0  0  0  0  0
  -22.9108  -22.4764   27.6478 H   0  0  0  0  0  0
  -21.8718  -21.6578   26.4984 H   0  0  0  0  0  0
  -21.9358  -23.4220   26.5251 H   0  0  0  0  0  0
  -29.6959  -21.2185   23.7053 H   0  0  0  0  0  0
  -28.7687  -19.7251   23.9122 H   0  0  0  0  0  0
  -28.2569  -21.1601   24.7151 H   0  0  0  0  0  0
  -27.3674  -19.7470   20.4303 H   0  0  0  0  0  0
  -28.5265  -20.4298   19.3706 H   0  0  0  0  0  0
  -29.8830  -23.7077   20.3307 H   0  0  0  0  0  0
  -28.9681  -24.3237   21.6640 H   0  0  0  0  0  0
  -27.3475  -24.7639   19.3907 H   0  0  0  0  0  0
  -28.9013  -25.0896   18.7924 H   0  0  0  0  0  0
  -29.5263  -21.4772   21.4614 H   0  0  0  0  0  0
  1 25  1  0  0  0
  1 30  2  0  0  0
  1 93  1  0  0  0
  2  3  1  0  0  0
  2 25  1  0  0  0
  2 95  1  0  0  0
  2 96  1  0  0  0
  3  4  1  0  0  0
  3 97  1  0  0  0
  3 98  1  0  0  0
  4  5  1  0  0  0
  4 99  1  0  0  0
  4100  1  0  0  0
  5  6  1  0  0  0
  5 26  1  0  0  0
  5101  1  0  0  0
  6 25  1  0  0  0
  6102  1  0  0  0
  6103  1  0  0  0
  7  8  2  0  0  0
  7 26  1  0  0  0
  7 29  1  0  0  0
  8  9  1  0  0  0
  8 22  1  0  0  0
  9 10  1  0  0  0
  9 27  2  0  0  0
 10 11  2  0  0  0
 10 15  1  0  0  0
 11 12  1  0  0  0
 11104  1  0  0  0
 12 13  2  0  0  0
 12105  1  0  0  0
 13 14  1  0  0  0
 13 31  1  0  0  0
 14 15  2  0  0  0
 14106  1  0  0  0
 15107  1  0  0  0
 16 17  2  0  0  0
 16 21  1  0  0  0
 16 31  1  0  0  0
 17 18  1  0  0  0
 17108  1  0  0  0
 18 19  2  0  0  0
 18109  1  0  0  0
 19 20  1  0  0  0
 19 24  1  0  0  0
 20 21  2  0  0  0
 20110  1  0  0  0
 21 23  1  0  0  0
 22 28  1  0  0  0
 22 32  2  0  0  0
 26 27  1  0  0  0
 28111  1  0  0  0
 28112  1  0  0  0
 29113  1  0  0  0
 29114  1  0  0  0
 33 34  1  0  0  0
 33 66  1  0  0  0
 33 70  2  0  0  0
 34 36  1  0  0  0
 34 59  1  0  0  0
 34115  1  0  0  0
 35 44  2  0  0  0
 35 45  1  0  0  0
 35 68  1  0  0  0
 36 56  1  0  0  0
 36116  1  0  0  0
 37 39  1  0  0  0
 37 47  1  0  0  0
 37 66  1  0  0  0
 37117  1  0  0  0
 38 43  2  0  0  0
 38 46  1  0  0  0
 38 47  1  0  0  0
 39 64  1  0  0  0
 39 67  2  0  0  0
 40 52  1  0  0  0
 40 53  2  0  0  0
 40 58  1  0  0  0
 41118  1  0  0  0
 41119  1  0  0  0
 41120  1  0  0  0
 41 48  1  0  0  0
 42 43  1  0  0  0
 42 66  1  0  0  0
 42121  1  0  0  0
 42122  1  0  0  0
 43 44  1  0  0  0
 44123  1  0  0  0
 45 46  2  0  0  0
 45124  1  0  0  0
 46125  1  0  0  0
 47126  1  0  0  0
 47127  1  0  0  0
 48 56  1  0  0  0
 48 65  1  0  0  0
 48128  1  0  0  0
 49 50  1  0  0  0
 49 53  1  0  0  0
 49 64  1  0  0  0
 49129  1  0  0  0
 50 51  1  0  0  0
 50130  1  0  0  0
 50131  1  0  0  0
 51 52  1  0  0  0
 51132  1  0  0  0
 51133  1  0  0  0
 52134  1  0  0  0
 52135  1  0  0  0
 53 54  1  0  0  0
 54 55  2  0  0  0
 54136  1  0  0  0
 55 57  1  0  0  0
 55137  1  0  0  0
 56 69  2  0  0  0
 57 58  2  0  0  0
 57138  1  0  0  0
 58139  1  0  0  0
 59 60  1  0  0  0
 59 61  1  0  0  0
 59 62  1  0  0  0
 60140  1  0  0  0
 60141  1  0  0  0
 60142  1  0  0  0
 61143  1  0  0  0
 61144  1  0  0  0
 61145  1  0  0  0
 62146  1  0  0  0
 62147  1  0  0  0
 62148  1  0  0  0
 63 65  1  0  0  0
 63149  1  0  0  0
 63150  1  0  0  0
 63151  1  0  0  0
 64152  1  0  0  0
 65153  1  0  0  0
 68 92  1  0  0  0
 71 73  2  0  0  0
 71 74  1  0  0  0
 71154  1  0  0  0
 72 75  2  0  0  0
 72 76  1  0  0  0
 72155  1  0  0  0
 73 75  1  0  0  0
 73 82  1  0  0  0
 74 76  2  0  0  0
 74 86  1  0  0  0
 75 87  1  0  0  0
 76 88  1  0  0  0
 77 80  1  0  0  0
 77 83  1  0  0  0
 77156  1  0  0  0
 77157  1  0  0  0
 78 81  1  0  0  0
 78 83  1  0  0  0
 78158  1  0  0  0
 78159  1  0  0  0
 79 82  1  0  0  0
 79 84  1  0  0  0
 79160  1  0  0  0
 79161  1  0  0  0
 80 93  1  0  0  0
 80162  1  0  0  0
 80163  1  0  0  0
 81 93  1  0  0  0
 81164  1  0  0  0
 81165  1  0  0  0
 82 85  1  0  0  0
 82166  1  0  0  0
 83 90  1  0  0  0
 83167  1  0  0  0
 84 91  1  0  0  0
 84 94  1  0  0  0
 84168  1  0  0  0
 85 89  1  0  0  0
 85 94  1  0  0  0
 85169  1  0  0  0
 86170  1  0  0  0
 86171  1  0  0  0
 86172  1  0  0  0
 87173  1  0  0  0
 87174  1  0  0  0
 87175  1  0  0  0
 88176  1  0  0  0
 88177  1  0  0  0
 88178  1  0  0  0
 89179  1  0  0  0
 89180  1  0  0  0
 89181  1  0  0  0
 90182  1  0  0  0
 90183  1  0  0  0
 90 94  1  0  0  0
 91 92  1  0  0  0
 91184  1  0  0  0
 91185  1  0  0  0
 92186  1  0  0  0
 92187  1  0  0  0
 94188  1  0  0  0
M  CHG  1  94   1
M  ISO  4   1 100  68 101  92 101  93 100
M  END
> <chiral flag>
0

> <version>
0

> <s_m_source_file>
/data/baiqing/PycharmProjects/Reinvent-master-3.2/result/LINK_invent/BTK/process_docking_weight1_custom_sum_contain_oxygen_bond_distance_aromatic_linkinvent_7_9_3/rearranged_h_0164.sdf

> <i_m_source_file_index>
7

> <r_mmod_Potential_Energy-OPLS-2005>
323.048797607422

> <r_mmod_Stretch_Energy-OPLS-2005>
85.6616058349609

> <r_mmod_Bend_Energy-OPLS-2005>
215.451812744141

> <r_mmod_Torsional_Energy-OPLS-2005>
416.445953369141

> <r_mmod_Improper_Torsional_Energy-OPLS-2005>
13.0095634460449

> <r_mmod_Van_der_Waal_Energy-OPLS-2005>
155.829864501953

> <r_mmod_Electrostatic_Energy-OPLS-2005>
-186.154510498047

> <r_mmod_Solvation_Energy-OPLS-2005>
-421.267761230469

> <b_mmod_Minimization_Converged-OPLS-2005>
0

> <r_mmod_RMS_Derivative-OPLS-2005>
6.00852966308594

$$$$
7
                    3D
 Structure written by MMmdl.
167176  0  0  1  0            999 V2000
  -30.7372  -14.4716   20.5144 C   0  0  0  0  0  0
  -30.4246  -12.3029   19.4126 C   0  0  0  0  0  0
  -29.4886  -12.4765   18.2000 C   0  0  0  0  0  0
  -28.0140  -12.3521   18.6291 C   0  0  0  0  0  0
  -27.6685  -13.1983   19.8839 C   0  0  2  0  0  0
  -28.7261  -13.0162   20.9980 C   0  0  0  0  0  0
  -25.2680  -13.8234   20.5746 C   0  0  0  0  0  0
  -24.1874  -13.0493   20.9198 C   0  0  0  0  0  0
  -24.6399  -11.6955   20.8719 C   0  0  0  0  0  0
  -23.9058  -10.4337   21.0392 C   0  0  0  0  0  0
  -24.3615   -9.4259   21.9160 C   0  0  0  0  0  0
  -23.6316   -8.2276   22.0740 C   0  0  0  0  0  0
  -22.4306   -8.0306   21.3533 C   0  0  0  0  0  0
  -21.9909   -9.0280   20.4649 C   0  0  0  0  0  0
  -22.7222  -10.2176   20.3062 C   0  0  0  0  0  0
  -21.6858   -6.0772   22.5283 C   0  0  0  0  0  0
  -21.4010   -6.5660   23.8212 C   0  0  0  0  0  0
  -21.3634   -5.6792   24.9157 C   0  0  0  0  0  0
  -21.6049   -4.3058   24.7202 C   0  0  0  0  0  0
  -21.8839   -3.8169   23.4318 C   0  0  0  0  0  0
  -21.9217   -4.7004   22.3385 C   0  0  0  0  0  0
  -22.7913  -13.5321   21.1835 C   0  0  0  0  0  0
  -22.1701   -4.2201   21.0965 F   0  0  0  0  0  0
  -21.5620   -3.4537   25.7711 F   0  0  0  0  0  0
  -30.0439  -13.3070   20.4176 N   0  0  0  0  0  0
  -26.3080  -12.9324   20.3487 N   0  0  0  0  0  0
  -25.9333  -11.6492   20.5832 N   0  0  0  0  0  0
  -22.0535  -12.8297   22.0387 N   0  0  0  0  0  0
  -25.4358  -15.1945   20.4138 N   0  0  0  0  0  0
  -31.8971  -14.5816   20.1147 O   0  0  0  0  0  0
  -21.6654   -6.8907   21.4245 O   0  0  0  0  0  0
  -22.3603  -14.5641   20.6743 O   0  0  0  0  0  0
  -24.6182  -31.8677   23.2201 C   0  0  0  0  0  0
  -25.9075  -32.4808   23.8529 C   0  0  1  0  0  0
  -27.2387  -27.4235   20.1213 C   0  0  0  0  0  0
  -25.6019  -33.8640   24.2445 N   0  0  0  0  0  0
  -23.4143  -30.4899   21.5485 C   0  0  2  0  0  0
  -24.8670  -28.9706   20.1070 C   0  0  0  0  0  0
  -22.7404  -29.4690   22.4954 C   0  0  0  0  0  0
  -18.0258  -28.1488   22.8361 C   0  0  0  0  0  0
  -24.1493  -36.7281   23.2607 C   0  0  0  0  0  0
  -25.9421  -30.8266   21.3883 C   0  0  0  0  0  0
  -26.0221  -29.4689   20.7204 C   0  0  0  0  0  0
  -27.2111  -28.7022   20.7259 C   0  0  0  0  0  0
  -26.0664  -26.9635   19.4698 C   0  0  0  0  0  0
  -24.8828  -27.7179   19.4786 C   0  0  0  0  0  0
  -23.6330  -29.8364   20.1574 C   0  0  0  0  0  0
  -25.4095  -36.3077   24.0325 C   0  0  1  0  0  0
  -20.5839  -28.3727   23.1197 C   0  0  2  0  0  0
  -20.6800  -26.9496   22.5237 C   0  0  0  0  0  0
  -19.5713  -26.6259   21.5182 C   0  0  0  0  0  0
  -18.1884  -26.8018   22.1531 C   0  0  0  0  0  0
  -19.1511  -28.8913   23.2811 C   0  0  0  0  0  0
  -18.9471  -30.1457   23.8969 C   0  0  0  0  0  0
  -17.6483  -30.6564   24.0774 C   0  0  0  0  0  0
  -25.9016  -34.9453   23.5139 C   0  0  0  0  0  0
  -16.5368  -29.9127   23.6463 C   0  0  0  0  0  0
  -16.7258  -28.6632   23.0263 C   0  0  0  0  0  0
  -26.4551  -31.6622   25.0872 C   0  0  0  0  0  0
  -25.3936  -31.3646   26.1711 C   0  0  0  0  0  0
  -27.0349  -30.3062   24.6265 C   0  0  0  0  0  0
  -27.6169  -32.4314   25.7618 C   0  0  0  0  0  0
  -27.5564  -37.1786   24.8461 C   0  0  0  0  0  0
  -21.4131  -29.3086   22.3626 N   0  0  0  0  0  0
  -26.4278  -37.3739   23.9412 N   0  0  0  0  0  0
  -24.6742  -31.0738   22.1125 N   0  0  0  0  0  0
  -23.4105  -28.8256   23.3079 O   0  0  0  0  0  0
  -28.3799  -26.6429   20.2077 O   0  0  0  0  0  0
  -26.5448  -34.8886   22.4624 O   0  0  0  0  0  0
  -23.5361  -32.1535   23.7490 O   0  0  0  0  0  0
  -27.5718  -18.9302   19.1668 C   0  0  0  0  0  0
  -29.7906  -19.3253   20.7855 C   0  0  0  0  0  0
  -28.5095  -17.8797   19.2987 C   0  0  0  0  0  0
  -29.5645  -18.0409   20.2372 C   0  0  0  0  0  0
  -28.9205  -20.4105   20.5437 C   0  0  0  0  0  0
  -27.7230  -20.1789   19.8183 C   0  0  0  0  0  0
  -28.1569  -16.9154   16.8962 C   0  0  0  0  0  0
  -27.1098  -16.2194   17.7384 C   0  0  0  0  0  0
  -28.4041  -16.6876   18.3704 C   0  0  0  0  0  0
  -25.5122  -20.8761   19.1330 C   0  0  0  0  0  0
  -30.5589  -16.9351   20.6186 C   0  0  0  0  0  0
  -29.3007  -21.7907   21.1044 C   0  0  0  0  0  0
  -29.2060  -24.2803   20.6896 C   0  0  0  0  0  0
  -28.1611  -25.2254   20.0677 C   0  0  0  0  0  0
  -30.0357  -15.5714   20.8437 N   0  0  0  0  0  0
  -28.9903  -22.8978   20.1730 N   0  3  0  0  0  0
  -26.7767  -21.1859   19.7309 O   0  0  0  0  0  0
  -31.4672  -12.3868   19.0998 H   0  0  0  0  0  0
  -30.3203  -11.3032   19.8351 H   0  0  0  0  0  0
  -29.7107  -11.7217   17.4455 H   0  0  0  0  0  0
  -29.6550  -13.4436   17.7227 H   0  0  0  0  0  0
  -27.8162  -11.3003   18.8337 H   0  0  0  0  0  0
  -27.3572  -12.6345   17.8062 H   0  0  0  0  0  0
  -27.7080  -14.2403   19.5823 H   0  0  0  0  0  0
  -28.7275  -11.9917   21.3760 H   0  0  0  0  0  0
  -28.5154  -13.6541   21.8558 H   0  0  0  0  0  0
  -25.2746   -9.5781   22.4739 H   0  0  0  0  0  0
  -24.0047   -7.4682   22.7463 H   0  0  0  0  0  0
  -21.0825   -8.8820   19.8966 H   0  0  0  0  0  0
  -22.3644  -10.9746   19.6227 H   0  0  0  0  0  0
  -21.2002   -7.6157   23.9743 H   0  0  0  0  0  0
  -21.1406   -6.0489   25.9061 H   0  0  0  0  0  0
  -22.0632   -2.7647   23.2791 H   0  0  0  0  0  0
  -22.4116  -11.9967   22.4783 H   0  0  0  0  0  0
  -21.1176  -13.1348   22.2599 H   0  0  0  0  0  0
  -24.6462  -15.8303   20.4644 H   0  0  0  0  0  0
  -26.2861  -15.6449   20.0962 H   0  0  0  0  0  0
  -26.7122  -32.5488   23.1267 H   0  0  0  0  0  0
  -25.0479  -33.9905   25.0789 H   0  0  0  0  0  0
  -22.7125  -31.3115   21.4009 H   0  0  0  0  0  0
  -23.3757  -35.9609   23.3274 H   0  0  0  0  0  0
  -24.3576  -36.8881   22.2019 H   0  0  0  0  0  0
  -23.7297  -37.6503   23.6615 H   0  0  0  0  0  0
  -26.0796  -31.6089   20.6408 H   0  0  0  0  0  0
  -26.8124  -30.8520   22.0338 H   0  0  0  0  0  0
  -28.0951  -29.0737   21.2271 H   0  0  0  0  0  0
  -26.0281  -26.0190   18.9481 H   0  0  0  0  0  0
  -23.9976  -27.3314   18.9920 H   0  0  0  0  0  0
  -23.7560  -30.6183   19.4062 H   0  0  0  0  0  0
  -22.7658  -29.2531   19.8425 H   0  0  0  0  0  0
  -25.1268  -36.1900   25.0803 H   0  0  0  0  0  0
  -20.9840  -28.3244   24.1351 H   0  0  0  0  0  0
  -20.5998  -26.2284   23.3374 H   0  0  0  0  0  0
  -21.6620  -26.7715   22.0826 H   0  0  0  0  0  0
  -19.6836  -25.6030   21.1569 H   0  0  0  0  0  0
  -19.6701  -27.2760   20.6479 H   0  0  0  0  0  0
  -17.4202  -26.6797   21.3887 H   0  0  0  0  0  0
  -18.0165  -26.0230   22.8964 H   0  0  0  0  0  0
  -19.7954  -30.7173   24.2470 H   0  0  0  0  0  0
  -17.5058  -31.6113   24.5647 H   0  0  0  0  0  0
  -15.5375  -30.2994   23.7967 H   0  0  0  0  0  0
  -15.8615  -28.1047   22.6902 H   0  0  0  0  0  0
  -24.6170  -30.6858   25.8168 H   0  0  0  0  0  0
  -24.9102  -32.2725   26.5314 H   0  0  0  0  0  0
  -25.8519  -30.8858   27.0383 H   0  0  0  0  0  0
  -26.2880  -29.6857   24.1287 H   0  0  0  0  0  0
  -27.4023  -29.7285   25.4760 H   0  0  0  0  0  0
  -27.8799  -30.4373   23.9504 H   0  0  0  0  0  0
  -27.2850  -33.3569   26.2326 H   0  0  0  0  0  0
  -28.3958  -32.6902   25.0441 H   0  0  0  0  0  0
  -28.0865  -31.8357   26.5459 H   0  0  0  0  0  0
  -28.2540  -38.0103   24.7459 H   0  0  0  0  0  0
  -28.1088  -36.2630   24.6315 H   0  0  0  0  0  0
  -27.2283  -37.1458   25.8858 H   0  0  0  0  0  0
  -20.9322  -29.8736   21.6775 H   0  0  0  0  0  0
  -26.0146  -38.2789   24.1449 H   0  0  0  0  0  0
  -26.7430  -18.7798   18.4972 H   0  0  0  0  0  0
  -30.6652  -19.4931   21.3995 H   0  0  0  0  0  0
  -27.9450  -17.9290   16.5607 H   0  0  0  0  0  0
  -28.7496  -16.3135   16.2081 H   0  0  0  0  0  0
  -26.9776  -15.1489   17.5905 H   0  0  0  0  0  0
  -26.1934  -16.7558   17.9670 H   0  0  0  0  0  0
  -29.1640  -15.9389   18.5513 H   0  0  0  0  0  0
  -24.8571  -21.7478   19.1730 H   0  0  0  0  0  0
  -24.9902  -20.0658   19.6493 H   0  0  0  0  0  0
  -25.6166  -20.6084   18.0796 H   0  0  0  0  0  0
  -31.0558  -17.2311   21.5443 H   0  0  0  0  0  0
  -31.3311  -16.9404   19.8469 H   0  0  0  0  0  0
  -30.3708  -21.8117   21.3265 H   0  0  0  0  0  0
  -28.7906  -21.9339   22.0547 H   0  0  0  0  0  0
  -29.1048  -24.3033   21.7749 H   0  0  0  0  0  0
  -30.2235  -24.5978   20.4639 H   0  0  0  0  0  0
  -27.2154  -24.9467   20.5441 H   0  0  0  0  0  0
  -28.0905  -25.0123   19.0012 H   0  0  0  0  0  0
  -29.0894  -15.4629   21.1730 H   0  0  0  0  0  0
  -29.5084  -22.7711   19.3160 H   0  0  0  0  0  0
  -28.0130  -22.7818   19.9447 H   0  0  0  0  0  0
  1 25  1  0  0  0
  1 30  2  0  0  0
  1 85  1  0  0  0
  2  3  1  0  0  0
  2 25  1  0  0  0
  2 88  1  0  0  0
  2 89  1  0  0  0
  3  4  1  0  0  0
  3 90  1  0  0  0
  3 91  1  0  0  0
  4  5  1  0  0  0
  4 92  1  0  0  0
  4 93  1  0  0  0
  5  6  1  0  0  0
  5 26  1  0  0  0
  5 94  1  0  0  0
  6 25  1  0  0  0
  6 95  1  0  0  0
  6 96  1  0  0  0
  7  8  2  0  0  0
  7 26  1  0  0  0
  7 29  1  0  0  0
  8  9  1  0  0  0
  8 22  1  0  0  0
  9 10  1  0  0  0
  9 27  2  0  0  0
 10 11  2  0  0  0
 10 15  1  0  0  0
 11 12  1  0  0  0
 11 97  1  0  0  0
 12 13  2  0  0  0
 12 98  1  0  0  0
 13 14  1  0  0  0
 13 31  1  0  0  0
 14 15  2  0  0  0
 14 99  1  0  0  0
 15100  1  0  0  0
 16 17  2  0  0  0
 16 21  1  0  0  0
 16 31  1  0  0  0
 17 18  1  0  0  0
 17101  1  0  0  0
 18 19  2  0  0  0
 18102  1  0  0  0
 19 20  1  0  0  0
 19 24  1  0  0  0
 20 21  2  0  0  0
 20103  1  0  0  0
 21 23  1  0  0  0
 22 28  1  0  0  0
 22 32  2  0  0  0
 26 27  1  0  0  0
 28104  1  0  0  0
 28105  1  0  0  0
 29106  1  0  0  0
 29107  1  0  0  0
 33 34  1  0  0  0
 33 66  1  0  0  0
 33 70  2  0  0  0
 34 36  1  0  0  0
 34 59  1  0  0  0
 34108  1  0  0  0
 35 44  2  0  0  0
 35 45  1  0  0  0
 35 68  1  0  0  0
 36 56  1  0  0  0
 36109  1  0  0  0
 37 39  1  0  0  0
 37 47  1  0  0  0
 37 66  1  0  0  0
 37110  1  0  0  0
 38 43  2  0  0  0
 38 46  1  0  0  0
 38 47  1  0  0  0
 39 64  1  0  0  0
 39 67  2  0  0  0
 40 52  1  0  0  0
 40 53  2  0  0  0
 40 58  1  0  0  0
 41111  1  0  0  0
 41112  1  0  0  0
 41113  1  0  0  0
 41 48  1  0  0  0
 42 43  1  0  0  0
 42 66  1  0  0  0
 42114  1  0  0  0
 42115  1  0  0  0
 43 44  1  0  0  0
 44116  1  0  0  0
 45 46  2  0  0  0
 45117  1  0  0  0
 46118  1  0  0  0
 47119  1  0  0  0
 47120  1  0  0  0
 48 56  1  0  0  0
 48 65  1  0  0  0
 48121  1  0  0  0
 49 50  1  0  0  0
 49 53  1  0  0  0
 49 64  1  0  0  0
 49122  1  0  0  0
 50 51  1  0  0  0
 50123  1  0  0  0
 50124  1  0  0  0
 51 52  1  0  0  0
 51125  1  0  0  0
 51126  1  0  0  0
 52127  1  0  0  0
 52128  1  0  0  0
 53 54  1  0  0  0
 54 55  2  0  0  0
 54129  1  0  0  0
 55 57  1  0  0  0
 55130  1  0  0  0
 56 69  2  0  0  0
 57 58  2  0  0  0
 57131  1  0  0  0
 58132  1  0  0  0
 59 60  1  0  0  0
 59 61  1  0  0  0
 59 62  1  0  0  0
 60133  1  0  0  0
 60134  1  0  0  0
 60135  1  0  0  0
 61136  1  0  0  0
 61137  1  0  0  0
 61138  1  0  0  0
 62139  1  0  0  0
 62140  1  0  0  0
 62141  1  0  0  0
 63 65  1  0  0  0
 63142  1  0  0  0
 63143  1  0  0  0
 63144  1  0  0  0
 64145  1  0  0  0
 65146  1  0  0  0
 68 84  1  0  0  0
 71 73  2  0  0  0
 71 76  1  0  0  0
 71147  1  0  0  0
 72 74  2  0  0  0
 72 75  1  0  0  0
 72148  1  0  0  0
 73 74  1  0  0  0
 73 79  1  0  0  0
 74 81  1  0  0  0
 75 76  2  0  0  0
 75 82  1  0  0  0
 76 87  1  0  0  0
 77 78  1  0  0  0
 77 79  1  0  0  0
 77149  1  0  0  0
 77150  1  0  0  0
 78 79  1  0  0  0
 78151  1  0  0  0
 78152  1  0  0  0
 79153  1  0  0  0
 80 87  1  0  0  0
 80154  1  0  0  0
 80155  1  0  0  0
 80156  1  0  0  0
 81 85  1  0  0  0
 81157  1  0  0  0
 81158  1  0  0  0
 82 86  1  0  0  0
 82159  1  0  0  0
 82160  1  0  0  0
 83 84  1  0  0  0
 83 86  1  0  0  0
 83161  1  0  0  0
 83162  1  0  0  0
 84163  1  0  0  0
 84164  1  0  0  0
 85165  1  0  0  0
 86166  1  0  0  0
 86167  1  0  0  0
M  CHG  1  86   1
M  ISO  4   1 100  68 101  84 101  85 100
M  END
> <chiral flag>
0

> <version>
0

> <s_m_source_file>
/data/baiqing/PycharmProjects/Reinvent-master-3.2/result/LINK_invent/BTK/process_docking_weight1_custom_sum_contain_oxygen_bond_distance_aromatic_linkinvent_7_9_3/rearranged_h_0164.sdf

> <i_m_source_file_index>
8

> <r_mmod_Potential_Energy-OPLS-2005>
-216.491897583008

> <r_mmod_Stretch_Energy-OPLS-2005>
40.6363754272461

> <r_mmod_Bend_Energy-OPLS-2005>
113.77742767334

> <r_mmod_Torsional_Energy-OPLS-2005>
248.457580566406

> <r_mmod_Improper_Torsional_Energy-OPLS-2005>
6.06777095794678

> <r_mmod_Van_der_Waal_Energy-OPLS-2005>
165.557403564453

> <r_mmod_Electrostatic_Energy-OPLS-2005>
-384.630523681641

> <r_mmod_Solvation_Energy-OPLS-2005>
-428.535736083984

> <b_mmod_Minimization_Converged-OPLS-2005>
0

> <r_mmod_RMS_Derivative-OPLS-2005>
6.60394334793091

$$$$
8
                    3D
 Structure written by MMmdl.
168177  0  0  1  0            999 V2000
  -30.6232  -14.7112   20.4725 C   0  0  0  0  0  0
  -30.4244  -12.4316   19.4807 C   0  0  0  0  0  0
  -29.5122  -12.5015   18.2369 C   0  0  0  0  0  0
  -28.0360  -12.3279   18.6436 C   0  0  0  0  0  0
  -27.6406  -13.2280   19.8463 C   0  0  2  0  0  0
  -28.6775  -13.1529   20.9868 C   0  0  0  0  0  0
  -25.2503  -13.8187   20.5682 C   0  0  0  0  0  0
  -24.1800  -13.0432   20.9204 C   0  0  0  0  0  0
  -24.6387  -11.6912   20.8728 C   0  0  0  0  0  0
  -23.9074  -10.4286   21.0393 C   0  0  0  0  0  0
  -24.3629   -9.4198   21.9167 C   0  0  0  0  0  0
  -23.6304   -8.2234   22.0742 C   0  0  0  0  0  0
  -22.4275   -8.0282   21.3554 C   0  0  0  0  0  0
  -21.9917   -9.0248   20.4647 C   0  0  0  0  0  0
  -22.7242  -10.2125   20.3048 C   0  0  0  0  0  0
  -21.6851   -6.0744   22.5286 C   0  0  0  0  0  0
  -21.4010   -6.5639   23.8224 C   0  0  0  0  0  0
  -21.3659   -5.6781   24.9180 C   0  0  0  0  0  0
  -21.6046   -4.3050   24.7219 C   0  0  0  0  0  0
  -21.8819   -3.8157   23.4338 C   0  0  0  0  0  0
  -21.9188   -4.6974   22.3401 C   0  0  0  0  0  0
  -22.7825  -13.5224   21.1864 C   0  0  0  0  0  0
  -22.1659   -4.2162   21.0981 F   0  0  0  0  0  0
  -21.5632   -3.4535   25.7731 F   0  0  0  0  0  0
  -29.9844  -13.4939   20.4159 N   0  0  0  0  0  0
  -26.2914  -12.9390   20.3219 N   0  0  0  0  0  0
  -25.9308  -11.6535   20.5700 N   0  0  0  0  0  0
  -22.0457  -12.8239   22.0428 N   0  0  0  0  0  0
  -25.4184  -15.1915   20.4125 N   0  0  0  0  0  0
  -31.8174  -14.7599   20.1574 O   0  0  0  0  0  0
  -21.6638   -6.8881   21.4246 O   0  0  0  0  0  0
  -22.3510  -14.5523   20.6688 O   0  0  0  0  0  0
  -24.6266  -31.8589   23.2013 C   0  0  0  0  0  0
  -25.9111  -32.4772   23.8347 C   0  0  1  0  0  0
  -27.2047  -27.2909   20.1207 C   0  0  0  0  0  0
  -25.5926  -33.8580   24.2268 N   0  0  0  0  0  0
  -23.4200  -30.4820   21.5464 C   0  0  2  0  0  0
  -24.8602  -28.9344   20.1060 C   0  0  0  0  0  0
  -22.7474  -29.4624   22.4964 C   0  0  0  0  0  0
  -18.0281  -28.1387   22.8482 C   0  0  0  0  0  0
  -24.1487  -36.7281   23.2640 C   0  0  0  0  0  0
  -25.9621  -30.7811   21.3746 C   0  0  0  0  0  0
  -26.0296  -29.4080   20.7139 C   0  0  0  0  0  0
  -27.2023  -28.5953   20.7105 C   0  0  0  0  0  0
  -26.0109  -26.8708   19.4933 C   0  0  0  0  0  0
  -24.8548  -27.6747   19.4874 C   0  0  0  0  0  0
  -23.6305  -29.8173   20.1598 C   0  0  0  0  0  0
  -25.4122  -36.3090   24.0328 C   0  0  1  0  0  0
  -20.5872  -28.3688   23.1291 C   0  0  2  0  0  0
  -20.6767  -26.9404   22.5436 C   0  0  0  0  0  0
  -19.5760  -26.6379   21.5220 C   0  0  0  0  0  0
  -18.1926  -26.7939   22.1598 C   0  0  0  0  0  0
  -19.1527  -28.8857   23.2876 C   0  0  0  0  0  0
  -18.9450  -30.1458   23.8895 C   0  0  0  0  0  0
  -17.6450  -30.6587   24.0564 C   0  0  0  0  0  0
  -25.9064  -34.9460   23.5105 C   0  0  0  0  0  0
  -16.5341  -29.9091   23.6326 C   0  0  0  0  0  0
  -16.7262  -28.6503   23.0348 C   0  0  0  0  0  0
  -26.4470  -31.6594   25.0731 C   0  0  0  0  0  0
  -25.3661  -31.3776   26.1434 C   0  0  0  0  0  0
  -27.0285  -30.3000   24.6206 C   0  0  0  0  0  0
  -27.6067  -32.4305   25.7466 C   0  0  0  0  0  0
  -27.5594  -37.1792   24.8458 C   0  0  0  0  0  0
  -21.4184  -29.3039   22.3697 N   0  0  0  0  0  0
  -26.4307  -37.3782   23.9401 N   0  0  0  0  0  0
  -24.6892  -31.0573   22.0982 N   0  0  0  0  0  0
  -23.4200  -28.8175   23.3047 O   0  0  0  0  0  0
  -28.3290  -26.4539   20.2034 O   0  0  0  0  0  0
  -26.5637  -34.8930   22.4672 O   0  0  0  0  0  0
  -23.5420  -32.1416   23.7315 O   0  0  0  0  0  0
  -29.2784  -18.3739   20.7301 C   0  0  0  0  0  0
  -29.6059  -19.7592   20.4401 C   0  0  0  0  0  0
  -30.8870  -20.0162   19.8680 C   0  0  0  0  0  0
  -31.7145  -18.8786   19.6176 C   0  0  0  0  0  0
  -30.1823  -17.2793   20.4570 C   0  0  0  0  0  0
  -28.6223  -20.9625   20.7459 C   0  0  0  0  0  0
  -30.4585  -22.5458   20.2448 C   0  0  0  0  0  0
  -28.9421  -22.3924   20.0952 C   0  0  2  0  0  0
  -31.3124  -21.4761   19.5163 C   0  0  0  0  0  0
  -33.0963  -18.9166   18.9853 C   0  0  0  0  0  0
  -31.1731  -21.7074   17.9936 C   0  0  0  0  0  0
  -32.7603  -21.8104   19.9494 C   0  0  0  0  0  0
  -26.6780  -23.4910   20.7278 C   0  0  0  0  0  0
  -28.3899  -25.0699   19.6558 C   0  0  0  0  0  0
  -28.1866  -23.7511   20.5700 C   0  0  2  0  0  0
  -31.3650  -17.6104   19.9113 N   0  0  0  0  0  0
  -29.8661  -15.8550   20.7100 N   0  0  0  0  0  0
  -31.4683  -12.5417   19.1847 H   0  0  0  0  0  0
  -30.3582  -11.4527   19.9562 H   0  0  0  0  0  0
  -29.7987  -11.7361   17.5141 H   0  0  0  0  0  0
  -29.6472  -13.4598   17.7333 H   0  0  0  0  0  0
  -27.8932  -11.2794   18.9062 H   0  0  0  0  0  0
  -27.3836  -12.5194   17.7913 H   0  0  0  0  0  0
  -27.6380  -14.2503   19.4673 H   0  0  0  0  0  0
  -28.7023  -12.1520   21.4200 H   0  0  0  0  0  0
  -28.4121  -13.8325   21.7972 H   0  0  0  0  0  0
  -25.2774   -9.5680   22.4743 H   0  0  0  0  0  0
  -24.0017   -7.4622   22.7461 H   0  0  0  0  0  0
  -21.0844   -8.8770   19.8959 H   0  0  0  0  0  0
  -22.3697  -10.9668   19.6167 H   0  0  0  0  0  0
  -21.2004   -7.6142   23.9742 H   0  0  0  0  0  0
  -21.1482   -6.0505   25.9088 H   0  0  0  0  0  0
  -22.0603   -2.7617   23.2832 H   0  0  0  0  0  0
  -22.4059  -11.9914   22.4860 H   0  0  0  0  0  0
  -21.1075  -13.1290   22.2596 H   0  0  0  0  0  0
  -24.6475  -15.8398   20.5302 H   0  0  0  0  0  0
  -26.2565  -15.6386   20.0661 H   0  0  0  0  0  0
  -26.7183  -32.5407   23.1106 H   0  0  0  0  0  0
  -25.0063  -33.9727   25.0403 H   0  0  0  0  0  0
  -22.7152  -31.3038   21.4047 H   0  0  0  0  0  0
  -23.3767  -35.9591   23.3293 H   0  0  0  0  0  0
  -24.3595  -36.8905   22.2058 H   0  0  0  0  0  0
  -23.7206  -37.6468   23.6661 H   0  0  0  0  0  0
  -26.0971  -31.5462   20.6091 H   0  0  0  0  0  0
  -26.8431  -30.8282   22.0040 H   0  0  0  0  0  0
  -28.1011  -28.9507   21.1944 H   0  0  0  0  0  0
  -25.9298  -25.9014   19.0274 H   0  0  0  0  0  0
  -23.9522  -27.3086   19.0157 H   0  0  0  0  0  0
  -23.7422  -30.5949   19.4032 H   0  0  0  0  0  0
  -22.7483  -29.2475   19.8618 H   0  0  0  0  0  0
  -25.1297  -36.1965   25.0821 H   0  0  0  0  0  0
  -20.9942  -28.3256   24.1418 H   0  0  0  0  0  0
  -20.5633  -26.2296   23.3641 H   0  0  0  0  0  0
  -21.6640  -26.7428   22.1241 H   0  0  0  0  0  0
  -19.6921  -25.6286   21.1262 H   0  0  0  0  0  0
  -19.6718  -27.3173   20.6735 H   0  0  0  0  0  0
  -17.4208  -26.6695   21.3987 H   0  0  0  0  0  0
  -18.0303  -26.0082   22.8984 H   0  0  0  0  0  0
  -19.7929  -30.7269   24.2262 H   0  0  0  0  0  0
  -17.5005  -31.6267   24.5172 H   0  0  0  0  0  0
  -15.5340  -30.2988   23.7664 H   0  0  0  0  0  0
  -15.8656  -28.0826   22.7067 H   0  0  0  0  0  0
  -24.5912  -30.7030   25.7771 H   0  0  0  0  0  0
  -24.8744  -32.2944   26.4699 H   0  0  0  0  0  0
  -25.7951  -30.9096   27.0302 H   0  0  0  0  0  0
  -26.2863  -29.6789   24.1181 H   0  0  0  0  0  0
  -27.3900  -29.7234   25.4730 H   0  0  0  0  0  0
  -27.8774  -30.4248   23.9483 H   0  0  0  0  0  0
  -27.2737  -33.3632   26.2025 H   0  0  0  0  0  0
  -28.3872  -32.6813   25.0270 H   0  0  0  0  0  0
  -28.0740  -31.8428   26.5378 H   0  0  0  0  0  0
  -28.2615  -38.0083   24.7517 H   0  0  0  0  0  0
  -28.1089  -36.2630   24.6268 H   0  0  0  0  0  0
  -27.2329  -37.1413   25.8863 H   0  0  0  0  0  0
  -20.9380  -29.8750   21.6889 H   0  0  0  0  0  0
  -26.0199  -38.2859   24.1403 H   0  0  0  0  0  0
  -28.3136  -18.1575   21.1688 H   0  0  0  0  0  0
  -28.6148  -21.0761   21.8310 H   0  0  0  0  0  0
  -27.6090  -20.6608   20.4804 H   0  0  0  0  0  0
  -30.6905  -22.5312   21.3118 H   0  0  0  0  0  0
  -30.7703  -23.5327   19.9090 H   0  0  0  0  0  0
  -28.7068  -22.2939   19.0362 H   0  0  0  0  0  0
  -33.1363  -19.5513   18.1060 H   0  0  0  0  0  0
  -33.4033  -17.9239   18.6513 H   0  0  0  0  0  0
  -33.8409  -19.2447   19.7094 H   0  0  0  0  0  0
  -30.1839  -21.4349   17.6270 H   0  0  0  0  0  0
  -31.8851  -21.1284   17.4115 H   0  0  0  0  0  0
  -31.3387  -22.7537   17.7330 H   0  0  0  0  0  0
  -32.9577  -21.4802   20.9693 H   0  0  0  0  0  0
  -32.9471  -22.8849   19.9233 H   0  0  0  0  0  0
  -33.5210  -21.3943   19.2960 H   0  0  0  0  0  0
  -26.4774  -22.7366   21.4883 H   0  0  0  0  0  0
  -26.2351  -23.1446   19.7927 H   0  0  0  0  0  0
  -26.1464  -24.3945   21.0284 H   0  0  0  0  0  0
  -27.7966  -24.9747   18.7488 H   0  0  0  0  0  0
  -29.4021  -25.0315   19.2593 H   0  0  0  0  0  0
  -28.5683  -23.9943   21.5620 H   0  0  0  0  0  0
  -28.9211  -15.6759   21.0056 H   0  0  0  0  0  0
  1 25  1  0  0  0
  1 30  2  0  0  0
  1 87  1  0  0  0
  2  3  1  0  0  0
  2 25  1  0  0  0
  2 88  1  0  0  0
  2 89  1  0  0  0
  3  4  1  0  0  0
  3 90  1  0  0  0
  3 91  1  0  0  0
  4  5  1  0  0  0
  4 92  1  0  0  0
  4 93  1  0  0  0
  5  6  1  0  0  0
  5 26  1  0  0  0
  5 94  1  0  0  0
  6 25  1  0  0  0
  6 95  1  0  0  0
  6 96  1  0  0  0
  7  8  2  0  0  0
  7 26  1  0  0  0
  7 29  1  0  0  0
  8  9  1  0  0  0
  8 22  1  0  0  0
  9 10  1  0  0  0
  9 27  2  0  0  0
 10 11  2  0  0  0
 10 15  1  0  0  0
 11 12  1  0  0  0
 11 97  1  0  0  0
 12 13  2  0  0  0
 12 98  1  0  0  0
 13 14  1  0  0  0
 13 31  1  0  0  0
 14 15  2  0  0  0
 14 99  1  0  0  0
 15100  1  0  0  0
 16 17  2  0  0  0
 16 21  1  0  0  0
 16 31  1  0  0  0
 17 18  1  0  0  0
 17101  1  0  0  0
 18 19  2  0  0  0
 18102  1  0  0  0
 19 20  1  0  0  0
 19 24  1  0  0  0
 20 21  2  0  0  0
 20103  1  0  0  0
 21 23  1  0  0  0
 22 28  1  0  0  0
 22 32  2  0  0  0
 26 27  1  0  0  0
 28104  1  0  0  0
 28105  1  0  0  0
 29106  1  0  0  0
 29107  1  0  0  0
 33 34  1  0  0  0
 33 66  1  0  0  0
 33 70  2  0  0  0
 34 36  1  0  0  0
 34 59  1  0  0  0
 34108  1  0  0  0
 35 44  2  0  0  0
 35 45  1  0  0  0
 35 68  1  0  0  0
 36 56  1  0  0  0
 36109  1  0  0  0
 37 39  1  0  0  0
 37 47  1  0  0  0
 37 66  1  0  0  0
 37110  1  0  0  0
 38 43  2  0  0  0
 38 46  1  0  0  0
 38 47  1  0  0  0
 39 64  1  0  0  0
 39 67  2  0  0  0
 40 52  1  0  0  0
 40 53  2  0  0  0
 40 58  1  0  0  0
 41111  1  0  0  0
 41112  1  0  0  0
 41113  1  0  0  0
 41 48  1  0  0  0
 42 43  1  0  0  0
 42 66  1  0  0  0
 42114  1  0  0  0
 42115  1  0  0  0
 43 44  1  0  0  0
 44116  1  0  0  0
 45 46  2  0  0  0
 45117  1  0  0  0
 46118  1  0  0  0
 47119  1  0  0  0
 47120  1  0  0  0
 48 56  1  0  0  0
 48 65  1  0  0  0
 48121  1  0  0  0
 49 50  1  0  0  0
 49 53  1  0  0  0
 49 64  1  0  0  0
 49122  1  0  0  0
 50 51  1  0  0  0
 50123  1  0  0  0
 50124  1  0  0  0
 51 52  1  0  0  0
 51125  1  0  0  0
 51126  1  0  0  0
 52127  1  0  0  0
 52128  1  0  0  0
 53 54  1  0  0  0
 54 55  2  0  0  0
 54129  1  0  0  0
 55 57  1  0  0  0
 55130  1  0  0  0
 56 69  2  0  0  0
 57 58  2  0  0  0
 57131  1  0  0  0
 58132  1  0  0  0
 59 60  1  0  0  0
 59 61  1  0  0  0
 59 62  1  0  0  0
 60133  1  0  0  0
 60134  1  0  0  0
 60135  1  0  0  0
 61136  1  0  0  0
 61137  1  0  0  0
 61138  1  0  0  0
 62139  1  0  0  0
 62140  1  0  0  0
 62141  1  0  0  0
 63 65  1  0  0  0
 63142  1  0  0  0
 63143  1  0  0  0
 63144  1  0  0  0
 64145  1  0  0  0
 65146  1  0  0  0
 68 84  1  0  0  0
 71 72  2  0  0  0
 71 75  1  0  0  0
 71147  1  0  0  0
 72 73  1  0  0  0
 72 76  1  0  0  0
 73 74  2  0  0  0
 73 79  1  0  0  0
 74 80  1  0  0  0
 74 86  1  0  0  0
 75 86  2  0  0  0
 75 87  1  0  0  0
 76148  1  0  0  0
 76149  1  0  0  0
 76 78  1  0  0  0
 77 78  1  0  0  0
 77 79  1  0  0  0
 77150  1  0  0  0
 77151  1  0  0  0
 78 85  1  0  0  0
 78152  1  0  0  0
 79 81  1  0  0  0
 79 82  1  0  0  0
 80153  1  0  0  0
 80154  1  0  0  0
 80155  1  0  0  0
 81156  1  0  0  0
 81157  1  0  0  0
 81158  1  0  0  0
 82159  1  0  0  0
 82160  1  0  0  0
 82161  1  0  0  0
 83162  1  0  0  0
 83163  1  0  0  0
 83164  1  0  0  0
 83 85  1  0  0  0
 84 85  1  0  0  0
 84165  1  0  0  0
 84166  1  0  0  0
 85167  1  0  0  0
 87168  1  0  0  0
M  ISO  4   1 100  68 101  84 101  87 100
M  END
> <chiral flag>
0

> <version>
0

> <s_m_source_file>
/data/baiqing/PycharmProjects/Reinvent-master-3.2/result/LINK_invent/BTK/process_docking_weight1_custom_sum_contain_oxygen_bond_distance_aromatic_linkinvent_7_9_3/rearranged_h_0164.sdf

> <i_m_source_file_index>
9

> <r_mmod_Potential_Energy-OPLS-2005>
43.0801239013672

> <r_mmod_Stretch_Energy-OPLS-2005>
113.223861694336

> <r_mmod_Bend_Energy-OPLS-2005>
189.125305175781

> <r_mmod_Torsional_Energy-OPLS-2005>
219.931579589844

> <r_mmod_Improper_Torsional_Energy-OPLS-2005>
4.04866123199463

> <r_mmod_Van_der_Waal_Energy-OPLS-2005>
159.51042175293

> <r_mmod_Electrostatic_Energy-OPLS-2005>
-484.963714599609

> <r_mmod_Solvation_Energy-OPLS-2005>
-226.807479858398

> <b_mmod_Minimization_Converged-OPLS-2005>
0

> <r_mmod_RMS_Derivative-OPLS-2005>
2.29910063743591

$$$$
9
                    3D
 Structure written by MMmdl.
171180  0  0  1  0            999 V2000
  -28.1165  -17.0214   20.7679 C   0  0  0  0  0  0
  -29.6910  -14.4462   19.7300 C   0  0  0  0  0  0
  -29.4034  -13.2542   18.6358 C   0  0  0  0  0  0
  -28.2059  -12.3888   19.0093 C   0  0  0  0  0  0
  -27.3681  -13.3362   19.8531 C   0  0  2  0  0  0
  -28.0255  -14.0652   21.0536 C   0  0  0  0  0  0
  -25.0983  -13.8027   20.5476 C   0  0  0  0  0  0
  -24.0761  -13.0119   20.9325 C   0  0  0  0  0  0
  -24.5674  -11.6684   20.8851 C   0  0  0  0  0  0
  -23.8678  -10.4081   21.0528 C   0  0  0  0  0  0
  -24.3433   -9.4089   21.9263 C   0  0  0  0  0  0
  -23.6200   -8.2096   22.0778 C   0  0  0  0  0  0
  -22.4193   -8.0128   21.3548 C   0  0  0  0  0  0
  -21.9741   -9.0043   20.4649 C   0  0  0  0  0  0
  -22.6953  -10.1942   20.3093 C   0  0  0  0  0  0
  -21.6804   -6.0664   22.5287 C   0  0  0  0  0  0
  -21.3970   -6.5598   23.8208 C   0  0  0  0  0  0
  -21.3646   -5.6770   24.9184 C   0  0  0  0  0  0
  -21.6043   -4.3032   24.7244 C   0  0  0  0  0  0
  -21.8838   -3.8107   23.4374 C   0  0  0  0  0  0
  -21.9189   -4.6908   22.3420 C   0  0  0  0  0  0
  -22.6955  -13.4950   21.2068 C   0  0  0  0  0  0
  -22.1676   -4.2098   21.0999 F   0  0  0  0  0  0
  -21.5637   -3.4530   25.7767 F   0  0  0  0  0  0
  -28.4692  -15.3806   20.4758 N   0  0  0  0  0  0
  -26.1142  -12.9190   20.2834 N   0  0  0  0  0  0
  -25.8470  -11.6319   20.5560 N   0  0  0  0  0  0
  -21.9762  -12.7969   22.0715 N   0  0  0  0  0  0
  -25.2447  -15.1820   20.3715 N   0  0  0  0  0  0
  -29.4371  -17.0545   20.5804 O   0  0  0  0  0  0
  -21.6574   -6.8751   21.4234 O   0  0  0  0  0  0
  -22.2763  -14.5323   20.6946 O   0  0  0  0  0  0
  -24.6670  -32.0602   23.0095 C   0  0  0  0  0  0
  -25.9443  -32.5460   23.8097 C   0  0  1  0  0  0
  -26.3726  -27.5538   21.2837 C   0  0  0  0  0  0
  -25.6395  -33.9075   24.2457 N   0  0  0  0  0  0
  -23.5285  -30.6785   21.0805 C   0  0  2  0  0  0
  -25.0513  -29.2464   19.7569 C   0  0  0  0  0  0
  -23.0102  -29.3422   21.6806 C   0  0  0  0  0  0
  -18.3378  -26.0248   23.4898 C   0  0  0  0  0  0
  -24.1466  -36.7547   23.2652 C   0  0  0  0  0  0
  -26.0391  -31.1311   21.1151 C   0  0  0  0  0  0
  -26.0974  -29.7163   20.5731 C   0  0  0  0  0  0
  -26.9717  -28.8035   21.1587 C   0  0  0  0  0  0
  -25.8314  -26.9941   20.0890 C   0  0  0  0  0  0
  -25.0225  -27.8919   19.3624 C   0  0  0  0  0  0
  -23.8493  -30.1768   19.6713 C   0  0  0  0  0  0
  -25.4101  -36.3452   24.0394 C   0  0  1  0  0  0
  -22.8299  -26.5887   22.7444 C   0  0  2  0  0  0
  -22.2197  -26.2583   20.5531 C   0  0  0  0  0  0
  -20.0202  -26.1762   20.2191 C   0  0  0  0  0  0
  -18.3996  -25.7766   21.5182 C   0  0  0  0  0  0
  -20.4271  -26.7983   24.4915 C   0  0  0  0  0  0
  -20.0753  -28.6586   24.7006 C   0  0  0  0  0  0
  -18.7429  -29.5254   24.1422 C   0  0  0  0  0  0
  -25.9141  -34.9920   23.5149 C   0  0  0  0  0  0
  -17.4534  -28.9018   23.4379 C   0  0  0  0  0  0
  -17.1999  -27.3173   23.1257 C   0  0  0  0  0  0
  -26.4828  -31.7012   25.0549 C   0  0  0  0  0  0
  -25.4821  -31.3226   26.1739 C   0  0  0  0  0  0
  -27.1197  -30.3977   24.5483 C   0  0  0  0  0  0
  -27.6118  -32.5106   25.7581 C   0  0  0  0  0  0
  -27.5632  -37.2000   24.8484 C   0  0  0  0  0  0
  -23.2896  -27.9672   21.7467 N   0  0  0  0  0  0
  -26.4288  -37.4110   23.9525 N   0  0  0  0  0  0
  -24.7471  -31.4326   21.7689 N   0  0  0  0  0  0
  -23.8805  -29.4563   22.4226 O   0  0  0  0  0  0
  -25.8063  -27.1825   22.5915 O   0  0  0  0  0  0
  -26.5402  -34.9393   22.4522 O   0  0  0  0  0  0
  -23.5719  -32.3528   23.5115 O   0  0  0  0  0  0
  -20.0641  -28.5781   21.9177 C   0  0  0  0  0  0
  -20.8604  -25.7725   22.3512 C   0  0  0  0  0  0
  -20.9748  -27.7202   22.4953 C   0  0  0  0  0  0
  -19.5513  -27.5459   22.6604 C   0  0  0  0  0  0
  -20.4400  -25.2920   22.7024 C   0  0  0  0  0  0
  -21.7758  -24.2732   22.1874 C   0  0  0  0  0  0
  -24.5439  -21.8427   20.9215 C   0  0  0  0  0  0
  -23.8763  -21.0263   22.2765 C   0  0  0  0  0  0
  -26.1773  -20.3739   21.0191 C   0  0  0  0  0  0
  -25.0240  -19.2785   21.5836 C   0  0  0  0  0  0
  -18.2664  -27.4158   25.2140 C   0  0  0  0  0  0
  -19.8949  -23.9925   23.6346 C   0  0  0  0  0  0
  -22.4423  -29.9467   24.4622 C   0  0  0  0  0  0
  -24.9882  -26.9555   25.1516 C   0  0  0  0  0  0
  -22.5092  -28.3884   24.0555 C   0  0  2  0  0  0
  -24.6319  -27.8180   23.9090 C   0  0  2  0  0  0
  -23.1582  -22.6939   21.8534 N   0  0  0  0  0  0
  -26.7136  -18.5115   21.0368 N   0  0  0  0  0  0
  -30.3389  -15.1450   19.1993 H   0  0  0  0  0  0
  -30.3759  -14.0465   20.4836 H   0  0  0  0  0  0
  -30.2867  -12.6310   18.4879 H   0  0  0  0  0  0
  -29.2112  -13.7069   17.6621 H   0  0  0  0  0  0
  -28.5215  -11.5310   19.6026 H   0  0  0  0  0  0
  -27.6744  -12.0119   18.1359 H   0  0  0  0  0  0
  -27.1081  -14.0790   19.0917 H   0  0  0  0  0  0
  -28.7472  -13.4399   21.5858 H   0  0  0  0  0  0
  -27.3184  -14.3179   21.8468 H   0  0  0  0  0  0
  -25.2581   -9.5664   22.4815 H   0  0  0  0  0  0
  -23.9955   -7.4501   22.7477 H   0  0  0  0  0  0
  -21.0696   -8.8525   19.8942 H   0  0  0  0  0  0
  -22.3419  -10.9508   19.6225 H   0  0  0  0  0  0
  -21.1935   -7.6104   23.9685 H   0  0  0  0  0  0
  -21.1450   -6.0511   25.9082 H   0  0  0  0  0  0
  -22.0629   -2.7566   23.2880 H   0  0  0  0  0  0
  -22.3485  -11.9628   22.5004 H   0  0  0  0  0  0
  -21.0416  -13.0991   22.3073 H   0  0  0  0  0  0
  -24.4028  -15.7469   20.3981 H   0  0  0  0  0  0
  -25.9256  -15.5215   19.7051 H   0  0  0  0  0  0
  -26.7969  -32.6438   23.1431 H   0  0  0  0  0  0
  -25.0966  -34.0049   25.0900 H   0  0  0  0  0  0
  -22.6781  -31.3670   21.0776 H   0  0  0  0  0  0
  -23.3864  -35.9731   23.3219 H   0  0  0  0  0  0
  -24.3616  -36.9223   22.2090 H   0  0  0  0  0  0
  -23.7083  -37.6694   23.6671 H   0  0  0  0  0  0
  -26.1787  -31.8267   20.2855 H   0  0  0  0  0  0
  -26.9153  -31.2739   21.7279 H   0  0  0  0  0  0
  -27.5686  -29.1755   21.9735 H   0  0  0  0  0  0
  -25.5600  -25.9497   20.0505 H   0  0  0  0  0  0
  -24.2416  -27.5436   18.7033 H   0  0  0  0  0  0
  -24.1062  -31.0328   19.0497 H   0  0  0  0  0  0
  -22.9832  -29.7120   19.1944 H   0  0  0  0  0  0
  -25.1266  -36.2283   25.0873 H   0  0  0  0  0  0
  -23.5902  -25.8334   22.9775 H   0  0  0  0  0  0
  -22.6884  -25.3346   20.1947 H   0  0  0  0  0  0
  -22.6337  -26.9492   19.8354 H   0  0  0  0  0  0
  -19.8953  -25.5979   19.3021 H   0  0  0  0  0  0
  -19.7732  -27.1465   19.7852 H   0  0  0  0  0  0
  -17.5109  -26.1669   21.0286 H   0  0  0  0  0  0
  -18.1967  -24.7082   21.4392 H   0  0  0  0  0  0
  -20.4780  -29.0429   25.6205 H   0  0  0  0  0  0
  -18.6845  -30.5631   24.4465 H   0  0  0  0  0  0
  -16.6480  -29.5685   23.1989 H   0  0  0  0  0  0
  -16.3116  -27.0846   22.5444 H   0  0  0  0  0  0
  -25.0539  -30.3176   26.0415 H   0  0  0  0  0  0
  -24.7116  -32.0916   26.2998 H   0  0  0  0  0  0
  -26.0407  -31.2510   27.1213 H   0  0  0  0  0  0
  -26.6628  -30.1553   23.5976 H   0  0  0  0  0  0
  -26.9740  -29.5385   25.2122 H   0  0  0  0  0  0
  -28.1936  -30.5159   24.3764 H   0  0  0  0  0  0
  -27.2113  -33.3747   26.2942 H   0  0  0  0  0  0
  -28.3657  -32.8910   25.0644 H   0  0  0  0  0  0
  -28.1428  -31.9119   26.4985 H   0  0  0  0  0  0
  -28.2598  -38.0357   24.7711 H   0  0  0  0  0  0
  -28.1164  -36.2923   24.6039 H   0  0  0  0  0  0
  -27.2403  -37.1409   25.8887 H   0  0  0  0  0  0
  -24.3129  -27.9623   21.7416 H   0  0  0  0  0  0
  -26.0217  -38.3184   24.1597 H   0  0  0  0  0  0
  -20.0046  -29.6352   22.1158 H   0  0  0  0  0  0
  -21.0842  -26.8246   21.8628 H   0  0  0  0  0  0
  -24.0558  -21.5535   19.9804 H   0  0  0  0  0  0
  -25.0818  -22.7319   20.5827 H   0  0  0  0  0  0
  -24.2794  -21.2364   23.2824 H   0  0  0  0  0  0
  -22.9379  -20.5148   22.5177 H   0  0  0  0  0  0
  -26.8853  -20.8332   21.7233 H   0  0  0  0  0  0
  -26.6613  -20.6282   20.0767 H   0  0  0  0  0  0
  -24.3255  -18.7808   20.8957 H   0  0  0  0  0  0
  -24.9257  -18.6905   22.5061 H   0  0  0  0  0  0
  -18.2429  -28.2194   25.9749 H   0  0  0  0  0  0
  -18.6260  -26.6044   25.8654 H   0  0  0  0  0  0
  -17.2051  -27.1517   25.3574 H   0  0  0  0  0  0
  -19.4671  -24.2706   24.5990 H   0  0  0  0  0  0
  -20.6587  -23.2646   23.9398 H   0  0  0  0  0  0
  -19.1579  -23.4119   23.0725 H   0  0  0  0  0  0
  -21.9695  -30.5208   23.6394 H   0  0  0  0  0  0
  -21.9334  -30.2924   25.3779 H   0  0  0  0  0  0
  -23.4978  -30.2320   24.5476 H   0  0  0  0  0  0
  -24.6131  -27.4501   26.0526 H   0  0  0  0  0  0
  -26.0794  -26.8322   25.2849 H   0  0  0  0  0  0
  -24.5545  -25.9570   25.1080 H   0  0  0  0  0  0
  -22.3799  -27.9800   25.0594 H   0  0  0  0  0  0
  -25.1670  -28.7096   24.2129 H   0  0  0  0  0  0
  1 25  1  0  0  0
  1 30  2  0  0  0
  1 88  1  0  0  0
  2  3  1  0  0  0
  2 25  1  0  0  0
  2 89  1  0  0  0
  2 90  1  0  0  0
  3  4  1  0  0  0
  3 91  1  0  0  0
  3 92  1  0  0  0
  4  5  1  0  0  0
  4 93  1  0  0  0
  4 94  1  0  0  0
  5  6  1  0  0  0
  5 26  1  0  0  0
  5 95  1  0  0  0
  6 25  1  0  0  0
  6 96  1  0  0  0
  6 97  1  0  0  0
  7  8  2  0  0  0
  7 26  1  0  0  0
  7 29  1  0  0  0
  8  9  1  0  0  0
  8 22  1  0  0  0
  9 10  1  0  0  0
  9 27  2  0  0  0
 10 11  2  0  0  0
 10 15  1  0  0  0
 11 12  1  0  0  0
 11 98  1  0  0  0
 12 13  2  0  0  0
 12 99  1  0  0  0
 13 14  1  0  0  0
 13 31  1  0  0  0
 14 15  2  0  0  0
 14100  1  0  0  0
 15101  1  0  0  0
 16 17  2  0  0  0
 16 21  1  0  0  0
 16 31  1  0  0  0
 17 18  1  0  0  0
 17102  1  0  0  0
 18 19  2  0  0  0
 18103  1  0  0  0
 19 20  1  0  0  0
 19 24  1  0  0  0
 20 21  2  0  0  0
 20104  1  0  0  0
 21 23  1  0  0  0
 22 28  1  0  0  0
 22 32  2  0  0  0
 26 27  1  0  0  0
 28105  1  0  0  0
 28106  1  0  0  0
 29107  1  0  0  0
 29108  1  0  0  0
 33 34  1  0  0  0
 33 66  1  0  0  0
 33 70  2  0  0  0
 34 36  1  0  0  0
 34 59  1  0  0  0
 34109  1  0  0  0
 35 44  2  0  0  0
 35 45  1  0  0  0
 35 68  1  0  0  0
 36 56  1  0  0  0
 36110  1  0  0  0
 37 39  1  0  0  0
 37 47  1  0  0  0
 37 66  1  0  0  0
 37111  1  0  0  0
 38 43  2  0  0  0
 38 46  1  0  0  0
 38 47  1  0  0  0
 39 64  1  0  0  0
 39 67  2  0  0  0
 40 52  1  0  0  0
 40 53  2  0  0  0
 40 58  1  0  0  0
 41112  1  0  0  0
 41113  1  0  0  0
 41114  1  0  0  0
 41 48  1  0  0  0
 42 43  1  0  0  0
 42 66  1  0  0  0
 42115  1  0  0  0
 42116  1  0  0  0
 43 44  1  0  0  0
 44117  1  0  0  0
 45 46  2  0  0  0
 45118  1  0  0  0
 46119  1  0  0  0
 47120  1  0  0  0
 47121  1  0  0  0
 48 56  1  0  0  0
 48 65  1  0  0  0
 48122  1  0  0  0
 49 50  1  0  0  0
 49 53  1  0  0  0
 49 64  1  0  0  0
 49123  1  0  0  0
 50 51  1  0  0  0
 50124  1  0  0  0
 50125  1  0  0  0
 51 52  1  0  0  0
 51126  1  0  0  0
 51127  1  0  0  0
 52128  1  0  0  0
 52129  1  0  0  0
 53 54  1  0  0  0
 54 55  2  0  0  0
 54130  1  0  0  0
 55 57  1  0  0  0
 55131  1  0  0  0
 56 69  2  0  0  0
 57 58  2  0  0  0
 57132  1  0  0  0
 58133  1  0  0  0
 59 60  1  0  0  0
 59 61  1  0  0  0
 59 62  1  0  0  0
 60134  1  0  0  0
 60135  1  0  0  0
 60136  1  0  0  0
 61137  1  0  0  0
 61138  1  0  0  0
 61139  1  0  0  0
 62140  1  0  0  0
 62141  1  0  0  0
 62142  1  0  0  0
 63 65  1  0  0  0
 63143  1  0  0  0
 63144  1  0  0  0
 63145  1  0  0  0
 64146  1  0  0  0
 65147  1  0  0  0
 68 86  1  0  0  0
 71 73  2  0  0  0
 71 74  1  0  0  0
 71148  1  0  0  0
 72 73  1  0  0  0
 72 76  2  0  0  0
 72149  1  0  0  0
 73 85  1  0  0  0
 74 75  2  0  0  0
 74 81  1  0  0  0
 75 76  1  0  0  0
 75 82  1  0  0  0
 76 87  1  0  0  0
 77 79  1  0  0  0
 77 87  1  0  0  0
 77150  1  0  0  0
 77151  1  0  0  0
 78 80  1  0  0  0
 78 87  1  0  0  0
 78152  1  0  0  0
 78153  1  0  0  0
 79 88  1  0  0  0
 79154  1  0  0  0
 79155  1  0  0  0
 80 88  1  0  0  0
 80156  1  0  0  0
 80157  1  0  0  0
 81158  1  0  0  0
 81159  1  0  0  0
 81160  1  0  0  0
 82161  1  0  0  0
 82162  1  0  0  0
 82163  1  0  0  0
 83164  1  0  0  0
 83165  1  0  0  0
 83166  1  0  0  0
 83 85  1  0  0  0
 84167  1  0  0  0
 84168  1  0  0  0
 84169  1  0  0  0
 84 86  1  0  0  0
 85 86  1  0  0  0
 85170  1  0  0  0
 86171  1  0  0  0
M  ISO  4   1 100  68 101  86 101  88 100
M  END
> <chiral flag>
0

> <version>
0

> <s_m_source_file>
/data/baiqing/PycharmProjects/Reinvent-master-3.2/result/LINK_invent/BTK/process_docking_weight1_custom_sum_contain_oxygen_bond_distance_aromatic_linkinvent_7_9_3/rearranged_h_0164.sdf

> <i_m_source_file_index>
10

> <r_mmod_Potential_Energy-OPLS-2005>
43674.2109375

> <r_mmod_Stretch_Energy-OPLS-2005>
20344.85546875

> <r_mmod_Bend_Energy-OPLS-2005>
5223.64306640625

> <r_mmod_Torsional_Energy-OPLS-2005>
1031.67834472656

> <r_mmod_Improper_Torsional_Energy-OPLS-2005>
196.355072021484

> <r_mmod_Van_der_Waal_Energy-OPLS-2005>
6575.150390625

> <r_mmod_Electrostatic_Energy-OPLS-2005>
-381.840942382812

> <r_mmod_Solvation_Energy-OPLS-2005>
-213.777404785156

> <b_mmod_Minimization_Converged-OPLS-2005>
0

> <r_mmod_RMS_Derivative-OPLS-2005>
38.8627510070801

$$$$
10
                    3D
 Structure written by MMmdl.
163172  0  0  1  0            999 V2000
  -30.4336  -15.3332   20.3382 C   0  0  0  0  0  0
  -30.4281  -12.8469   19.5495 C   0  0  0  0  0  0
  -29.5426  -12.5795   18.3058 C   0  0  0  0  0  0
  -28.0944  -12.2913   18.7314 C   0  0  0  0  0  0
  -27.6065  -13.2823   19.8169 C   0  0  2  0  0  0
  -28.6294  -13.5086   20.9531 C   0  0  0  0  0  0
  -25.2370  -13.8267   20.5738 C   0  0  0  0  0  0
  -24.1735  -13.0442   20.9255 C   0  0  0  0  0  0
  -24.6403  -11.6941   20.8759 C   0  0  0  0  0  0
  -23.9101  -10.4298   21.0410 C   0  0  0  0  0  0
  -24.3647   -9.4209   21.9189 C   0  0  0  0  0  0
  -23.6304   -8.2254   22.0765 C   0  0  0  0  0  0
  -22.4279   -8.0302   21.3559 C   0  0  0  0  0  0
  -21.9918   -9.0279   20.4659 C   0  0  0  0  0  0
  -22.7266  -10.2146   20.3064 C   0  0  0  0  0  0
  -21.6852   -6.0751   22.5284 C   0  0  0  0  0  0
  -21.4020   -6.5652   23.8223 C   0  0  0  0  0  0
  -21.3654   -5.6801   24.9181 C   0  0  0  0  0  0
  -21.6036   -4.3064   24.7223 C   0  0  0  0  0  0
  -21.8817   -3.8158   23.4344 C   0  0  0  0  0  0
  -21.9192   -4.6978   22.3401 C   0  0  0  0  0  0
  -22.7753  -13.5190   21.1897 C   0  0  0  0  0  0
  -22.1661   -4.2170   21.0975 F   0  0  0  0  0  0
  -21.5617   -3.4541   25.7732 F   0  0  0  0  0  0
  -29.8598  -14.0198   20.3262 N   0  0  0  0  0  0
  -26.2788  -12.9551   20.3178 N   0  0  0  0  0  0
  -25.9332  -11.6651   20.5698 N   0  0  0  0  0  0
  -22.0403  -12.8189   22.0457 N   0  0  0  0  0  0
  -25.4004  -15.2005   20.4194 N   0  0  0  0  0  0
  -31.6457  -15.2708   20.0908 O   0  0  0  0  0  0
  -21.6641   -6.8898   21.4250 O   0  0  0  0  0  0
  -22.3433  -14.5491   20.6732 O   0  0  0  0  0  0
  -24.6659  -31.8193   23.1685 C   0  0  0  0  0  0
  -25.9322  -32.4562   23.8159 C   0  0  1  0  0  0
  -27.2170  -26.8937   20.1838 C   0  0  0  0  0  0
  -25.5974  -33.8384   24.2048 N   0  0  0  0  0  0
  -23.4833  -30.4297   21.5181 C   0  0  2  0  0  0
  -24.9372  -28.8110   20.1102 C   0  0  0  0  0  0
  -22.7684  -29.4414   22.4771 C   0  0  0  0  0  0
  -18.0330  -28.1414   22.8465 C   0  0  0  0  0  0
  -24.1498  -36.7209   23.2650 C   0  0  0  0  0  0
  -26.0547  -30.6124   21.4070 C   0  0  0  0  0  0
  -26.1214  -29.2000   20.7484 C   0  0  0  0  0  0
  -27.2545  -28.2628   20.7610 C   0  0  0  0  0  0
  -26.0060  -26.6672   19.4914 C   0  0  0  0  0  0
  -24.9077  -27.5663   19.4606 C   0  0  0  0  0  0
  -23.7258  -29.7440   20.1447 C   0  0  0  0  0  0
  -25.4141  -36.2957   24.0293 C   0  0  1  0  0  0
  -20.5957  -28.3755   23.1188 C   0  0  2  0  0  0
  -20.6804  -26.9430   22.5413 C   0  0  0  0  0  0
  -19.5779  -26.6372   21.5225 C   0  0  0  0  0  0
  -18.1959  -26.7947   22.1626 C   0  0  0  0  0  0
  -19.1589  -28.8908   23.2815 C   0  0  0  0  0  0
  -18.9498  -30.1500   23.8844 C   0  0  0  0  0  0
  -17.6487  -30.6597   24.0559 C   0  0  0  0  0  0
  -25.9104  -34.9334   23.4999 C   0  0  0  0  0  0
  -16.5380  -29.9080   23.6350 C   0  0  0  0  0  0
  -16.7311  -28.6510   23.0355 C   0  0  0  0  0  0
  -26.4546  -31.6539   25.0717 C   0  0  0  0  0  0
  -25.3647  -31.3852   26.1368 C   0  0  0  0  0  0
  -27.0432  -30.2879   24.6519 C   0  0  0  0  0  0
  -27.6038  -32.4355   25.7509 C   0  0  0  0  0  0
  -27.5572  -37.1765   24.8459 C   0  0  0  0  0  0
  -21.4345  -29.3034   22.3519 N   0  0  0  0  0  0
  -26.4284  -37.3690   23.9394 N   0  0  0  0  0  0
  -24.7561  -30.9819   22.0841 N   0  0  0  0  0  0
  -23.4210  -28.7987   23.3030 O   0  0  0  0  0  0
  -28.2004  -25.7630   20.2807 O   0  0  0  0  0  0
  -26.5721  -34.8876   22.4600 O   0  0  0  0  0  0
  -23.5721  -32.1178   23.6757 O   0  0  0  0  0  0
  -30.6832  -21.6981   21.7960 C   0  0  0  0  0  0
  -28.6937  -21.1634   20.0206 C   0  0  0  0  0  0
  -30.5353  -20.3719   21.3152 C   0  0  0  0  0  0
  -29.5140  -19.9226   20.4769 C   0  0  0  0  0  0
  -29.8595  -22.7933   21.4074 C   0  0  0  0  0  0
  -28.8175  -22.6627   20.4499 C   0  0  0  0  0  0
  -31.6322  -19.3508   21.4106 C   0  0  0  0  0  0
  -29.9546  -18.2771   19.9666 C   0  0  1  0  0  0
  -31.4978  -18.4864   20.1271 C   0  0  1  0  0  0
  -30.1700  -24.1544   22.0058 C   0  0  0  0  0  0
  -33.5519  -19.6665   19.0489 C   0  0  0  0  0  0
  -32.1630  -18.1097   17.6744 C   0  0  0  0  0  0
  -27.9392  -24.1375   20.0154 C   0  0  0  0  0  0
  -32.1280  -19.1166   18.8423 C   0  0  0  0  0  0
  -29.7122  -16.6548   20.4243 N   0  0  0  0  0  0
  -31.4514  -13.0319   19.2210 H   0  0  0  0  0  0
  -30.4882  -11.9583   20.1808 H   0  0  0  0  0  0
  -29.9395  -11.7438   17.7278 H   0  0  0  0  0  0
  -29.5698  -13.4479   17.6450 H   0  0  0  0  0  0
  -28.0650  -11.2745   19.1259 H   0  0  0  0  0  0
  -27.4298  -12.3016   17.8668 H   0  0  0  0  0  0
  -27.5090  -14.2330   19.2923 H   0  0  0  0  0  0
  -28.8044  -12.5960   21.5248 H   0  0  0  0  0  0
  -28.2495  -14.2500   21.6575 H   0  0  0  0  0  0
  -25.2797   -9.5677   22.4756 H   0  0  0  0  0  0
  -24.0019   -7.4632   22.7469 H   0  0  0  0  0  0
  -21.0852   -8.8800   19.8954 H   0  0  0  0  0  0
  -22.3736  -10.9686   19.6171 H   0  0  0  0  0  0
  -21.2033   -7.6162   23.9737 H   0  0  0  0  0  0
  -21.1465   -6.0527   25.9086 H   0  0  0  0  0  0
  -22.0598   -2.7620   23.2835 H   0  0  0  0  0  0
  -22.4032  -11.9883   22.4897 H   0  0  0  0  0  0
  -21.1017  -13.1224   22.2647 H   0  0  0  0  0  0
  -24.6294  -15.8486   20.5426 H   0  0  0  0  0  0
  -26.2399  -15.6453   20.0716 H   0  0  0  0  0  0
  -26.7393  -32.5079   23.0873 H   0  0  0  0  0  0
  -25.0035  -33.9447   25.0138 H   0  0  0  0  0  0
  -22.7998  -31.2631   21.3449 H   0  0  0  0  0  0
  -23.3757  -35.9544   23.3295 H   0  0  0  0  0  0
  -24.3569  -36.8874   22.2069 H   0  0  0  0  0  0
  -23.7265  -37.6396   23.6722 H   0  0  0  0  0  0
  -26.2442  -31.3543   20.6306 H   0  0  0  0  0  0
  -26.9105  -30.6652   22.0682 H   0  0  0  0  0  0
  -28.1464  -28.5559   21.2956 H   0  0  0  0  0  0
  -25.8728  -25.7167   18.9952 H   0  0  0  0  0  0
  -24.0090  -27.2636   18.9403 H   0  0  0  0  0  0
  -23.8861  -30.5121   19.3872 H   0  0  0  0  0  0
  -22.8341  -29.2022   19.8246 H   0  0  0  0  0  0
  -25.1346  -36.1753   25.0783 H   0  0  0  0  0  0
  -21.0046  -28.3371   24.1314 H   0  0  0  0  0  0
  -20.5687  -26.2374   23.3657 H   0  0  0  0  0  0
  -21.6669  -26.7398   22.1225 H   0  0  0  0  0  0
  -19.6932  -25.6267   21.1296 H   0  0  0  0  0  0
  -19.6721  -27.3150   20.6730 H   0  0  0  0  0  0
  -17.4230  -26.6695   21.4027 H   0  0  0  0  0  0
  -18.0339  -26.0101   22.9033 H   0  0  0  0  0  0
  -19.7969  -30.7342   24.2179 H   0  0  0  0  0  0
  -17.5032  -31.6270   24.5171 H   0  0  0  0  0  0
  -15.5377  -30.2960   23.7702 H   0  0  0  0  0  0
  -15.8717  -28.0815   22.7081 H   0  0  0  0  0  0
  -24.5823  -30.7199   25.7698 H   0  0  0  0  0  0
  -24.8841  -32.3082   26.4625 H   0  0  0  0  0  0
  -25.7845  -30.9133   27.0258 H   0  0  0  0  0  0
  -26.3104  -29.6548   24.1506 H   0  0  0  0  0  0
  -27.3882  -29.7279   25.5224 H   0  0  0  0  0  0
  -27.9087  -30.4022   23.9989 H   0  0  0  0  0  0
  -27.2592  -33.3682   26.1989 H   0  0  0  0  0  0
  -28.3886  -32.6879   25.0365 H   0  0  0  0  0  0
  -28.0661  -31.8555   26.5506 H   0  0  0  0  0  0
  -28.2590  -38.0057   24.7472 H   0  0  0  0  0  0
  -28.1064  -36.2586   24.6320 H   0  0  0  0  0  0
  -27.2289  -37.1447   25.8861 H   0  0  0  0  0  0
  -20.9608  -29.8711   21.6632 H   0  0  0  0  0  0
  -26.0137  -38.2755   24.1375 H   0  0  0  0  0  0
  -31.5274  -21.8988   22.4425 H   0  0  0  0  0  0
  -27.9622  -20.9692   19.2488 H   0  0  0  0  0  0
  -31.4494  -18.7354   22.2932 H   0  0  0  0  0  0
  -32.6120  -19.8072   21.5406 H   0  0  0  0  0  0
  -29.6732  -18.2638   18.9152 H   0  0  0  0  0  0
  -32.0587  -17.5792   20.3082 H   0  0  0  0  0  0
  -30.9268  -24.0908   22.7881 H   0  0  0  0  0  0
  -29.2785  -24.5938   22.4534 H   0  0  0  0  0  0
  -30.5455  -24.8297   21.2369 H   0  0  0  0  0  0
  -33.5574  -20.5490   19.6882 H   0  0  0  0  0  0
  -33.9969  -19.9748   18.1017 H   0  0  0  0  0  0
  -34.2097  -18.9186   19.4925 H   0  0  0  0  0  0
  -31.1809  -17.7045   17.4343 H   0  0  0  0  0  0
  -32.8147  -17.2649   17.9007 H   0  0  0  0  0  0
  -32.5385  -18.5784   16.7638 H   0  0  0  0  0  0
  -26.9399  -23.9610   20.4119 H   0  0  0  0  0  0
  -27.8155  -24.0614   18.9352 H   0  0  0  0  0  0
  -31.5096  -19.9596   18.5291 H   0  0  0  0  0  0
  -28.7468  -16.5021   20.6774 H   0  0  0  0  0  0
  1 25  1  0  0  0
  1 30  2  0  0  0
  1 85  1  0  0  0
  2  3  1  0  0  0
  2 25  1  0  0  0
  2 86  1  0  0  0
  2 87  1  0  0  0
  3  4  1  0  0  0
  3 88  1  0  0  0
  3 89  1  0  0  0
  4  5  1  0  0  0
  4 90  1  0  0  0
  4 91  1  0  0  0
  5  6  1  0  0  0
  5 26  1  0  0  0
  5 92  1  0  0  0
  6 25  1  0  0  0
  6 93  1  0  0  0
  6 94  1  0  0  0
  7  8  2  0  0  0
  7 26  1  0  0  0
  7 29  1  0  0  0
  8  9  1  0  0  0
  8 22  1  0  0  0
  9 10  1  0  0  0
  9 27  2  0  0  0
 10 11  2  0  0  0
 10 15  1  0  0  0
 11 12  1  0  0  0
 11 95  1  0  0  0
 12 13  2  0  0  0
 12 96  1  0  0  0
 13 14  1  0  0  0
 13 31  1  0  0  0
 14 15  2  0  0  0
 14 97  1  0  0  0
 15 98  1  0  0  0
 16 17  2  0  0  0
 16 21  1  0  0  0
 16 31  1  0  0  0
 17 18  1  0  0  0
 17 99  1  0  0  0
 18 19  2  0  0  0
 18100  1  0  0  0
 19 20  1  0  0  0
 19 24  1  0  0  0
 20 21  2  0  0  0
 20101  1  0  0  0
 21 23  1  0  0  0
 22 28  1  0  0  0
 22 32  2  0  0  0
 26 27  1  0  0  0
 28102  1  0  0  0
 28103  1  0  0  0
 29104  1  0  0  0
 29105  1  0  0  0
 33 34  1  0  0  0
 33 66  1  0  0  0
 33 70  2  0  0  0
 34 36  1  0  0  0
 34 59  1  0  0  0
 34106  1  0  0  0
 35 44  2  0  0  0
 35 45  1  0  0  0
 35 68  1  0  0  0
 36 56  1  0  0  0
 36107  1  0  0  0
 37 39  1  0  0  0
 37 47  1  0  0  0
 37 66  1  0  0  0
 37108  1  0  0  0
 38 43  2  0  0  0
 38 46  1  0  0  0
 38 47  1  0  0  0
 39 64  1  0  0  0
 39 67  2  0  0  0
 40 52  1  0  0  0
 40 53  2  0  0  0
 40 58  1  0  0  0
 41109  1  0  0  0
 41110  1  0  0  0
 41111  1  0  0  0
 41 48  1  0  0  0
 42 43  1  0  0  0
 42 66  1  0  0  0
 42112  1  0  0  0
 42113  1  0  0  0
 43 44  1  0  0  0
 44114  1  0  0  0
 45 46  2  0  0  0
 45115  1  0  0  0
 46116  1  0  0  0
 47117  1  0  0  0
 47118  1  0  0  0
 48 56  1  0  0  0
 48 65  1  0  0  0
 48119  1  0  0  0
 49 50  1  0  0  0
 49 53  1  0  0  0
 49 64  1  0  0  0
 49120  1  0  0  0
 50 51  1  0  0  0
 50121  1  0  0  0
 50122  1  0  0  0
 51 52  1  0  0  0
 51123  1  0  0  0
 51124  1  0  0  0
 52125  1  0  0  0
 52126  1  0  0  0
 53 54  1  0  0  0
 54 55  2  0  0  0
 54127  1  0  0  0
 55 57  1  0  0  0
 55128  1  0  0  0
 56 69  2  0  0  0
 57 58  2  0  0  0
 57129  1  0  0  0
 58130  1  0  0  0
 59 60  1  0  0  0
 59 61  1  0  0  0
 59 62  1  0  0  0
 60131  1  0  0  0
 60132  1  0  0  0
 60133  1  0  0  0
 61134  1  0  0  0
 61135  1  0  0  0
 61136  1  0  0  0
 62137  1  0  0  0
 62138  1  0  0  0
 62139  1  0  0  0
 63 65  1  0  0  0
 63140  1  0  0  0
 63141  1  0  0  0
 63142  1  0  0  0
 64143  1  0  0  0
 65144  1  0  0  0
 68 83  1  0  0  0
 71 73  2  0  0  0
 71 75  1  0  0  0
 71145  1  0  0  0
 72 74  2  0  0  0
 72 76  1  0  0  0
 72146  1  0  0  0
 73 74  1  0  0  0
 73 77  1  0  0  0
 74 78  1  0  0  0
 75 76  2  0  0  0
 75 80  1  0  0  0
 76 83  1  0  0  0
 77147  1  0  0  0
 77148  1  0  0  0
 77 79  1  0  0  0
 78 79  1  0  0  0
 78 85  1  0  0  0
 78149  1  0  0  0
 79 84  1  0  0  0
 79150  1  0  0  0
 80151  1  0  0  0
 80152  1  0  0  0
 80153  1  0  0  0
 81154  1  0  0  0
 81155  1  0  0  0
 81156  1  0  0  0
 81 84  1  0  0  0
 82 84  1  0  0  0
 82157  1  0  0  0
 82158  1  0  0  0
 82159  1  0  0  0
 83160  1  0  0  0
 83161  1  0  0  0
 84162  1  0  0  0
 85163  1  0  0  0
M  ISO  4   1 100  68 101  83 101  85 100
M  END
> <chiral flag>
0

> <version>
0

> <s_m_source_file>
/data/baiqing/PycharmProjects/Reinvent-master-3.2/result/LINK_invent/BTK/process_docking_weight1_custom_sum_contain_oxygen_bond_distance_aromatic_linkinvent_7_9_3/rearranged_h_0164.sdf

> <i_m_source_file_index>
11

> <r_mmod_Potential_Energy-OPLS-2005>
1524.44653320312

> <r_mmod_Stretch_Energy-OPLS-2005>
658.181335449219

> <r_mmod_Bend_Energy-OPLS-2005>
526.0966796875

> <r_mmod_Torsional_Energy-OPLS-2005>
253.433868408203

> <r_mmod_Improper_Torsional_Energy-OPLS-2005>
12.6745862960815

> <r_mmod_Van_der_Waal_Energy-OPLS-2005>
131.930969238281

> <r_mmod_Electrostatic_Energy-OPLS-2005>
-378.264831542969

> <r_mmod_Solvation_Energy-OPLS-2005>
-202.13069152832

> <b_mmod_Minimization_Converged-OPLS-2005>
0

> <r_mmod_RMS_Derivative-OPLS-2005>
1.64447140693665

$$$$
11
                    3D
 Structure written by MMmdl.
167176  0  0  1  0            999 V2000
  -30.6953  -14.7457   20.4847 C   0  0  0  0  0  0
  -30.3945  -12.4528   19.5049 C   0  0  0  0  0  0
  -29.4906  -12.4474   18.2551 C   0  0  0  0  0  0
  -28.0274  -12.2480   18.6770 C   0  0  0  0  0  0
  -27.6175  -13.2056   19.8206 C   0  0  2  0  0  0
  -28.6558  -13.2393   20.9673 C   0  0  0  0  0  0
  -25.2414  -13.8109   20.5654 C   0  0  0  0  0  0
  -24.1724  -13.0411   20.9217 C   0  0  0  0  0  0
  -24.6278  -11.6868   20.8784 C   0  0  0  0  0  0
  -23.8978  -10.4268   21.0439 C   0  0  0  0  0  0
  -24.3556   -9.4180   21.9195 C   0  0  0  0  0  0
  -23.6277   -8.2186   22.0756 C   0  0  0  0  0  0
  -22.4255   -8.0230   21.3526 C   0  0  0  0  0  0
  -21.9862   -9.0201   20.4632 C   0  0  0  0  0  0
  -22.7164  -10.2094   20.3053 C   0  0  0  0  0  0
  -21.6841   -6.0707   22.5289 C   0  0  0  0  0  0
  -21.4014   -6.5624   23.8221 C   0  0  0  0  0  0
  -21.3671   -5.6772   24.9184 C   0  0  0  0  0  0
  -21.6062   -4.3036   24.7230 C   0  0  0  0  0  0
  -21.8815   -3.8123   23.4347 C   0  0  0  0  0  0
  -21.9174   -4.6929   22.3398 C   0  0  0  0  0  0
  -22.7765  -13.5199   21.1929 C   0  0  0  0  0  0
  -22.1649   -4.2105   21.0981 F   0  0  0  0  0  0
  -21.5631   -3.4538   25.7755 F   0  0  0  0  0  0
  -29.9643  -13.5714   20.3868 N   0  0  0  0  0  0
  -26.2775  -12.9255   20.3146 N   0  0  0  0  0  0
  -25.9180  -11.6449   20.5763 N   0  0  0  0  0  0
  -22.0387  -12.8230   22.0491 N   0  0  0  0  0  0
  -25.4152  -15.1848   20.4115 N   0  0  0  0  0  0
  -31.8738  -14.7205   20.1173 O   0  0  0  0  0  0
  -21.6615   -6.8852   21.4248 O   0  0  0  0  0  0
  -22.3452  -14.5519   20.6771 O   0  0  0  0  0  0
  -24.6232  -31.8610   23.2006 C   0  0  0  0  0  0
  -25.9067  -32.4806   23.8338 C   0  0  1  0  0  0
  -27.2492  -27.3411   20.1236 C   0  0  0  0  0  0
  -25.5897  -33.8613   24.2265 N   0  0  0  0  0  0
  -23.4167  -30.4790   21.5458 C   0  0  2  0  0  0
  -24.8695  -28.9341   20.1149 C   0  0  0  0  0  0
  -22.7462  -29.4606   22.4980 C   0  0  0  0  0  0
  -18.0277  -28.1400   22.8484 C   0  0  0  0  0  0
  -24.1497  -36.7337   23.2628 C   0  0  0  0  0  0
  -25.9520  -30.8065   21.3581 C   0  0  0  0  0  0
  -26.0351  -29.4304   20.7095 C   0  0  0  0  0  0
  -27.2261  -28.6483   20.6986 C   0  0  0  0  0  0
  -26.0522  -26.8890   19.5152 C   0  0  0  0  0  0
  -24.8789  -27.6682   19.5087 C   0  0  0  0  0  0
  -23.6303  -29.8045   20.1642 C   0  0  0  0  0  0
  -25.4115  -36.3117   24.0320 C   0  0  1  0  0  0
  -20.5871  -28.3685   23.1333 C   0  0  2  0  0  0
  -20.6781  -26.9422   22.5437 C   0  0  0  0  0  0
  -19.5770  -26.6397   21.5227 C   0  0  0  0  0  0
  -18.1937  -26.7947   22.1619 C   0  0  0  0  0  0
  -19.1523  -28.8862   23.2907 C   0  0  0  0  0  0
  -18.9442  -30.1463   23.8922 C   0  0  0  0  0  0
  -17.6440  -30.6602   24.0573 C   0  0  0  0  0  0
  -25.9037  -34.9473   23.5095 C   0  0  0  0  0  0
  -16.5339  -29.9106   23.6322 C   0  0  0  0  0  0
  -16.7261  -28.6531   23.0326 C   0  0  0  0  0  0
  -26.4450  -31.6618   25.0704 C   0  0  0  0  0  0
  -25.3682  -31.3785   26.1440 C   0  0  0  0  0  0
  -27.0216  -30.3035   24.6098 C   0  0  0  0  0  0
  -27.6035  -32.4322   25.7472 C   0  0  0  0  0  0
  -27.5591  -37.1819   24.8442 C   0  0  0  0  0  0
  -21.4174  -29.3036   22.3738 N   0  0  0  0  0  0
  -26.4300  -37.3803   23.9399 N   0  0  0  0  0  0
  -24.6838  -31.0638   22.0942 N   0  0  0  0  0  0
  -23.4201  -28.8158   23.3059 O   0  0  0  0  0  0
  -28.3916  -26.5257   20.1848 O   0  0  0  0  0  0
  -26.5619  -34.8933   22.4670 O   0  0  0  0  0  0
  -23.5402  -32.1374   23.7362 O   0  0  0  0  0  0
  -31.8287  -23.5177   20.0564 C   0  0  0  0  0  0
  -30.8081  -24.4999   20.0963 C   0  0  0  0  0  0
  -31.4625  -22.1460   19.9658 C   0  0  0  0  0  0
  -29.4527  -24.0779   20.1395 C   0  0  0  0  0  0
  -30.1055  -21.7535   20.1118 C   0  0  0  0  0  0
  -31.0800  -18.4243   20.8143 C   0  0  0  0  0  0
  -28.7734  -18.0205   20.1338 C   0  0  0  0  0  0
  -31.0464  -17.0296   21.5469 C   0  0  0  0  0  0
  -28.8346  -16.5785   20.7961 C   0  0  0  0  0  0
  -29.7089  -19.1497   20.7061 C   0  0  0  0  0  0
  -33.3041  -23.9367   19.9778 C   0  0  0  0  0  0
  -31.1635  -25.9828   19.9649 C   0  0  0  0  0  0
  -32.5342  -21.1468   19.5498 C   0  0  0  0  0  0
  -28.2545  -25.0789   19.9098 C   0  0  0  0  0  0
  -29.1436  -22.7296   20.1997 N   0  0  0  0  0  0
  -30.1829  -15.9705   20.9398 N   0  0  0  0  0  0
  -29.6785  -20.4014   19.8527 N   0  0  0  0  0  0
  -31.4432  -12.5100   19.2157 H   0  0  0  0  0  0
  -30.3001  -11.5073   20.0426 H   0  0  0  0  0  0
  -29.7890  -11.6393   17.5851 H   0  0  0  0  0  0
  -29.5970  -13.3765   17.6943 H   0  0  0  0  0  0
  -27.9245  -11.2148   19.0159 H   0  0  0  0  0  0
  -27.3553  -12.3437   17.8229 H   0  0  0  0  0  0
  -27.5759  -14.1771   19.3375 H   0  0  0  0  0  0
  -28.6938  -12.2740   21.4746 H   0  0  0  0  0  0
  -28.3657  -13.9707   21.7211 H   0  0  0  0  0  0
  -25.2681   -9.5679   22.4784 H   0  0  0  0  0  0
  -23.9987   -7.4579   22.7469 H   0  0  0  0  0  0
  -21.0774   -8.8706   19.8963 H   0  0  0  0  0  0
  -22.3607  -10.9628   19.6172 H   0  0  0  0  0  0
  -21.2026   -7.6133   23.9732 H   0  0  0  0  0  0
  -21.1520   -6.0494   25.9095 H   0  0  0  0  0  0
  -22.0591   -2.7573   23.2843 H   0  0  0  0  0  0
  -22.3971  -11.9880   22.4895 H   0  0  0  0  0  0
  -21.1025  -13.1313   22.2739 H   0  0  0  0  0  0
  -24.6579  -15.8417   20.5641 H   0  0  0  0  0  0
  -26.2674  -15.6285   20.1004 H   0  0  0  0  0  0
  -26.7145  -32.5501   23.1104 H   0  0  0  0  0  0
  -25.0019  -33.9766   25.0395 H   0  0  0  0  0  0
  -22.7062  -31.2969   21.4004 H   0  0  0  0  0  0
  -23.3751  -35.9677   23.3268 H   0  0  0  0  0  0
  -24.3597  -36.8981   22.2046 H   0  0  0  0  0  0
  -23.7249  -37.6535   23.6663 H   0  0  0  0  0  0
  -26.0500  -31.5646   20.5801 H   0  0  0  0  0  0
  -26.8444  -30.8793   21.9676 H   0  0  0  0  0  0
  -28.1230  -29.0348   21.1625 H   0  0  0  0  0  0
  -25.9891  -25.9164   19.0532 H   0  0  0  0  0  0
  -23.9838  -27.2755   19.0455 H   0  0  0  0  0  0
  -23.7324  -30.5747   19.3992 H   0  0  0  0  0  0
  -22.7558  -29.2194   19.8750 H   0  0  0  0  0  0
  -25.1297  -36.1966   25.0815 H   0  0  0  0  0  0
  -20.9940  -28.3251   24.1465 H   0  0  0  0  0  0
  -20.5698  -26.2293   23.3621 H   0  0  0  0  0  0
  -21.6652  -26.7489   22.1221 H   0  0  0  0  0  0
  -19.6937  -25.6308   21.1265 H   0  0  0  0  0  0
  -19.6734  -27.3206   20.6758 H   0  0  0  0  0  0
  -17.4224  -26.6694   21.4004 H   0  0  0  0  0  0
  -18.0329  -26.0095   22.9016 H   0  0  0  0  0  0
  -19.7914  -30.7273   24.2315 H   0  0  0  0  0  0
  -17.4994  -31.6277   24.5172 H   0  0  0  0  0  0
  -15.5339  -30.3005   23.7645 H   0  0  0  0  0  0
  -15.8662  -28.0867   22.7001 H   0  0  0  0  0  0
  -24.5846  -30.7137   25.7786 H   0  0  0  0  0  0
  -24.8874  -32.2965   26.4839 H   0  0  0  0  0  0
  -25.7997  -30.8986   27.0230 H   0  0  0  0  0  0
  -26.2728  -29.6867   24.1105 H   0  0  0  0  0  0
  -27.3884  -29.7227   25.4570 H   0  0  0  0  0  0
  -27.8629  -30.4312   23.9277 H   0  0  0  0  0  0
  -27.2661  -33.3617   26.2069 H   0  0  0  0  0  0
  -28.3840  -32.6882   25.0296 H   0  0  0  0  0  0
  -28.0690  -31.8414   26.5368 H   0  0  0  0  0  0
  -28.2601  -38.0123   24.7505 H   0  0  0  0  0  0
  -28.1090  -36.2660   24.6236 H   0  0  0  0  0  0
  -27.2324  -37.1438   25.8847 H   0  0  0  0  0  0
  -20.9358  -29.8752   21.6940 H   0  0  0  0  0  0
  -26.0181  -38.2883   24.1401 H   0  0  0  0  0  0
  -31.4936  -18.2926   19.8145 H   0  0  0  0  0  0
  -31.7706  -19.0613   21.3655 H   0  0  0  0  0  0
  -27.7377  -18.3626   20.1613 H   0  0  0  0  0  0
  -28.9958  -17.8980   19.0737 H   0  0  0  0  0  0
  -30.6906  -17.2099   22.5622 H   0  0  0  0  0  0
  -32.0669  -16.6685   21.6771 H   0  0  0  0  0  0
  -28.2115  -15.9260   20.2023 H   0  0  0  0  0  0
  -28.3781  -16.6193   21.7868 H   0  0  0  0  0  0
  -29.3692  -19.4171   21.7093 H   0  0  0  0  0  0
  -33.5521  -24.7401   20.6730 H   0  0  0  0  0  0
  -33.5382  -24.2643   18.9629 H   0  0  0  0  0  0
  -33.9983  -23.1414   20.2420 H   0  0  0  0  0  0
  -32.2265  -26.1954   19.8866 H   0  0  0  0  0  0
  -30.7996  -26.5553   20.8182 H   0  0  0  0  0  0
  -30.7225  -26.3748   19.0489 H   0  0  0  0  0  0
  -33.2743  -21.6268   18.9040 H   0  0  0  0  0  0
  -32.1310  -20.3463   18.9344 H   0  0  0  0  0  0
  -33.0394  -20.7267   20.4200 H   0  0  0  0  0  0
  -27.3945  -24.6928   20.4576 H   0  0  0  0  0  0
  -28.0226  -24.9868   18.8481 H   0  0  0  0  0  0
  -29.7942  -20.1779   18.8708 H   0  0  0  0  0  0
  1 25  1  0  0  0
  1 30  2  0  0  0
  1 86  1  0  0  0
  2  3  1  0  0  0
  2 25  1  0  0  0
  2 88  1  0  0  0
  2 89  1  0  0  0
  3  4  1  0  0  0
  3 90  1  0  0  0
  3 91  1  0  0  0
  4  5  1  0  0  0
  4 92  1  0  0  0
  4 93  1  0  0  0
  5  6  1  0  0  0
  5 26  1  0  0  0
  5 94  1  0  0  0
  6 25  1  0  0  0
  6 95  1  0  0  0
  6 96  1  0  0  0
  7  8  2  0  0  0
  7 26  1  0  0  0
  7 29  1  0  0  0
  8  9  1  0  0  0
  8 22  1  0  0  0
  9 10  1  0  0  0
  9 27  2  0  0  0
 10 11  2  0  0  0
 10 15  1  0  0  0
 11 12  1  0  0  0
 11 97  1  0  0  0
 12 13  2  0  0  0
 12 98  1  0  0  0
 13 14  1  0  0  0
 13 31  1  0  0  0
 14 15  2  0  0  0
 14 99  1  0  0  0
 15100  1  0  0  0
 16 17  2  0  0  0
 16 21  1  0  0  0
 16 31  1  0  0  0
 17 18  1  0  0  0
 17101  1  0  0  0
 18 19  2  0  0  0
 18102  1  0  0  0
 19 20  1  0  0  0
 19 24  1  0  0  0
 20 21  2  0  0  0
 20103  1  0  0  0
 21 23  1  0  0  0
 22 28  1  0  0  0
 22 32  2  0  0  0
 26 27  1  0  0  0
 28104  1  0  0  0
 28105  1  0  0  0
 29106  1  0  0  0
 29107  1  0  0  0
 33 34  1  0  0  0
 33 66  1  0  0  0
 33 70  2  0  0  0
 34 36  1  0  0  0
 34 59  1  0  0  0
 34108  1  0  0  0
 35 44  2  0  0  0
 35 45  1  0  0  0
 35 68  1  0  0  0
 36 56  1  0  0  0
 36109  1  0  0  0
 37 39  1  0  0  0
 37 47  1  0  0  0
 37 66  1  0  0  0
 37110  1  0  0  0
 38 43  2  0  0  0
 38 46  1  0  0  0
 38 47  1  0  0  0
 39 64  1  0  0  0
 39 67  2  0  0  0
 40 52  1  0  0  0
 40 53  2  0  0  0
 40 58  1  0  0  0
 41111  1  0  0  0
 41112  1  0  0  0
 41113  1  0  0  0
 41 48  1  0  0  0
 42 43  1  0  0  0
 42 66  1  0  0  0
 42114  1  0  0  0
 42115  1  0  0  0
 43 44  1  0  0  0
 44116  1  0  0  0
 45 46  2  0  0  0
 45117  1  0  0  0
 46118  1  0  0  0
 47119  1  0  0  0
 47120  1  0  0  0
 48 56  1  0  0  0
 48 65  1  0  0  0
 48121  1  0  0  0
 49 50  1  0  0  0
 49 53  1  0  0  0
 49 64  1  0  0  0
 49122  1  0  0  0
 50 51  1  0  0  0
 50123  1  0  0  0
 50124  1  0  0  0
 51 52  1  0  0  0
 51125  1  0  0  0
 51126  1  0  0  0
 52127  1  0  0  0
 52128  1  0  0  0
 53 54  1  0  0  0
 54 55  2  0  0  0
 54129  1  0  0  0
 55 57  1  0  0  0
 55130  1  0  0  0
 56 69  2  0  0  0
 57 58  2  0  0  0
 57131  1  0  0  0
 58132  1  0  0  0
 59 60  1  0  0  0
 59 61  1  0  0  0
 59 62  1  0  0  0
 60133  1  0  0  0
 60134  1  0  0  0
 60135  1  0  0  0
 61136  1  0  0  0
 61137  1  0  0  0
 61138  1  0  0  0
 62139  1  0  0  0
 62140  1  0  0  0
 62141  1  0  0  0
 63 65  1  0  0  0
 63142  1  0  0  0
 63143  1  0  0  0
 63144  1  0  0  0
 64145  1  0  0  0
 65146  1  0  0  0
 68 84  1  0  0  0
 71 72  2  0  0  0
 71 73  1  0  0  0
 71 81  1  0  0  0
 72 74  1  0  0  0
 72 82  1  0  0  0
 73 75  2  0  0  0
 73 83  1  0  0  0
 74 84  1  0  0  0
 74 85  2  0  0  0
 75 85  1  0  0  0
 75 87  1  0  0  0
 76 78  1  0  0  0
 76 80  1  0  0  0
 76147  1  0  0  0
 76148  1  0  0  0
 77 79  1  0  0  0
 77 80  1  0  0  0
 77149  1  0  0  0
 77150  1  0  0  0
 78 86  1  0  0  0
 78151  1  0  0  0
 78152  1  0  0  0
 79 86  1  0  0  0
 79153  1  0  0  0
 79154  1  0  0  0
 80 87  1  0  0  0
 80155  1  0  0  0
 81156  1  0  0  0
 81157  1  0  0  0
 81158  1  0  0  0
 82159  1  0  0  0
 82160  1  0  0  0
 82161  1  0  0  0
 83162  1  0  0  0
 83163  1  0  0  0
 83164  1  0  0  0
 84165  1  0  0  0
 84166  1  0  0  0
 87167  1  0  0  0
M  ISO  4   1 100  68 101  84 101  86 100
M  END
> <chiral flag>
0

> <version>
0

> <s_m_source_file>
/data/baiqing/PycharmProjects/Reinvent-master-3.2/result/LINK_invent/BTK/process_docking_weight1_custom_sum_contain_oxygen_bond_distance_aromatic_linkinvent_7_9_3/rearranged_h_0164.sdf

> <i_m_source_file_index>
12

> <r_mmod_Potential_Energy-OPLS-2005>
177.304885864258

> <r_mmod_Stretch_Energy-OPLS-2005>
100.665374755859

> <r_mmod_Bend_Energy-OPLS-2005>
209.533630371094

> <r_mmod_Torsional_Energy-OPLS-2005>
346.337310791016

> <r_mmod_Improper_Torsional_Energy-OPLS-2005>
8.00712394714355

> <r_mmod_Van_der_Waal_Energy-OPLS-2005>
170.64045715332

> <r_mmod_Electrostatic_Energy-OPLS-2005>
-499.194580078125

> <r_mmod_Solvation_Energy-OPLS-2005>
-232.56315612793

> <b_mmod_Minimization_Converged-OPLS-2005>
0

> <r_mmod_RMS_Derivative-OPLS-2005>
6.18574380874634

$$$$
12
                    3D
 Structure written by MMmdl.
191201  0  0  1  0            999 V2000
  -30.6459  -14.4813   20.5076 C   0  0  0  0  0  0
  -30.4286  -12.2882   19.4285 C   0  0  0  0  0  0
  -29.5020  -12.4922   18.2101 C   0  0  0  0  0  0
  -28.0181  -12.3614   18.6122 C   0  0  0  0  0  0
  -27.6601  -13.1962   19.8719 C   0  0  2  0  0  0
  -28.7018  -12.9619   20.9921 C   0  0  0  0  0  0
  -25.2599  -13.8130   20.5691 C   0  0  0  0  0  0
  -24.1830  -13.0434   20.9188 C   0  0  0  0  0  0
  -24.6359  -11.6892   20.8725 C   0  0  0  0  0  0
  -23.9028  -10.4287   21.0414 C   0  0  0  0  0  0
  -24.3589   -9.4207   21.9197 C   0  0  0  0  0  0
  -23.6263   -8.2234   22.0764 C   0  0  0  0  0  0
  -22.4253   -8.0269   21.3544 C   0  0  0  0  0  0
  -21.9879   -9.0251   20.4656 C   0  0  0  0  0  0
  -22.7201  -10.2128   20.3070 C   0  0  0  0  0  0
  -21.6846   -6.0710   22.5270 C   0  0  0  0  0  0
  -21.4014   -6.5606   23.8206 C   0  0  0  0  0  0
  -21.3669   -5.6773   24.9169 C   0  0  0  0  0  0
  -21.6057   -4.3039   24.7227 C   0  0  0  0  0  0
  -21.8825   -3.8121   23.4350 C   0  0  0  0  0  0
  -21.9182   -4.6933   22.3400 C   0  0  0  0  0  0
  -22.7860  -13.5269   21.1854 C   0  0  0  0  0  0
  -22.1673   -4.2127   21.0982 F   0  0  0  0  0  0
  -21.5624   -3.4524   25.7743 F   0  0  0  0  0  0
  -30.0348  -13.2712   20.4463 N   0  0  0  0  0  0
  -26.3004  -12.9273   20.3330 N   0  0  0  0  0  0
  -25.9283  -11.6448   20.5723 N   0  0  0  0  0  0
  -22.0463  -12.8305   22.0400 N   0  0  0  0  0  0
  -25.4352  -15.1845   20.4142 N   0  0  0  0  0  0
  -31.7978  -14.6824   20.1099 O   0  0  0  0  0  0
  -21.6639   -6.8856   21.4231 O   0  0  0  0  0  0
  -22.3573  -14.5583   20.6688 O   0  0  0  0  0  0
  -24.6142  -31.8686   23.2091 C   0  0  0  0  0  0
  -25.9036  -32.4822   23.8388 C   0  0  1  0  0  0
  -27.2428  -27.4342   20.1109 C   0  0  0  0  0  0
  -25.5904  -33.8619   24.2334 N   0  0  0  0  0  0
  -23.4026  -30.4891   21.5501 C   0  0  2  0  0  0
  -24.8527  -28.9516   20.1179 C   0  0  0  0  0  0
  -22.7404  -29.4652   22.4992 C   0  0  0  0  0  0
  -18.0267  -28.1376   22.8481 C   0  0  0  0  0  0
  -24.1488  -36.7305   23.2633 C   0  0  0  0  0  0
  -25.9298  -30.8334   21.3624 C   0  0  0  0  0  0
  -26.0114  -29.4666   20.7139 C   0  0  0  0  0  0
  -27.2099  -28.7168   20.7044 C   0  0  0  0  0  0
  -26.0696  -26.9339   19.5043 C   0  0  0  0  0  0
  -24.8769  -27.6840   19.5092 C   0  0  0  0  0  0
  -23.6125  -29.8176   20.1662 C   0  0  0  0  0  0
  -25.4102  -36.3110   24.0344 C   0  0  1  0  0  0
  -20.5851  -28.3664   23.1310 C   0  0  2  0  0  0
  -20.6765  -26.9398   22.5417 C   0  0  0  0  0  0
  -19.5756  -26.6381   21.5199 C   0  0  0  0  0  0
  -18.1928  -26.7924   22.1601 C   0  0  0  0  0  0
  -19.1514  -28.8835   23.2898 C   0  0  0  0  0  0
  -18.9449  -30.1434   23.8922 C   0  0  0  0  0  0
  -17.6456  -30.6587   24.0559 C   0  0  0  0  0  0
  -25.9031  -34.9478   23.5133 C   0  0  0  0  0  0
  -16.5344  -29.9090   23.6321 C   0  0  0  0  0  0
  -16.7260  -28.6501   23.0352 C   0  0  0  0  0  0
  -26.4477  -31.6592   25.0704 C   0  0  0  0  0  0
  -25.3745  -31.3720   26.1457 C   0  0  0  0  0  0
  -27.0285  -30.3026   24.6068 C   0  0  0  0  0  0
  -27.6061  -32.4299   25.7472 C   0  0  0  0  0  0
  -27.5585  -37.1805   24.8466 C   0  0  0  0  0  0
  -21.4126  -29.3038   22.3720 N   0  0  0  0  0  0
  -26.4293  -37.3791   23.9412 N   0  0  0  0  0  0
  -24.6671  -31.0784   22.0997 N   0  0  0  0  0  0
  -23.4160  -28.8189   23.3040 O   0  0  0  0  0  0
  -28.4148  -26.7052   20.1013 O   0  0  0  0  0  0
  -26.5573  -34.8929   22.4684 O   0  0  0  0  0  0
  -23.5335  -32.1445   23.7480 O   0  0  0  0  0  0
  -29.9067  -17.1808   24.7970 C   0  0  0  0  0  0
  -30.9818  -18.0632   24.9939 C   0  0  0  0  0  0
  -29.1779  -17.1737   23.5993 C   0  0  0  0  0  0
  -31.2357  -19.0686   24.0240 C   0  0  0  0  0  0
  -29.5343  -18.0666   22.5564 C   0  0  0  0  0  0
  -30.4746  -19.1104   22.8187 C   0  0  0  0  0  0
  -29.0072  -22.9132   20.2693 C   0  0  0  0  0  0
  -29.1166  -23.9168   22.5821 C   0  0  0  0  0  0
  -28.9875  -24.3452   19.6722 C   0  0  0  0  0  0
  -29.1055  -25.3337   21.9746 C   0  0  0  0  0  0
  -32.0278  -16.5720   26.9109 C   0  0  0  0  0  0
  -31.7888  -17.9180   26.2578 C   0  0  1  0  0  0
  -29.7158  -22.8393   21.6425 C   0  0  1  0  0  0
  -28.3522  -25.3700   20.6345 C   0  0  1  0  0  0
  -33.1799  -17.3020   26.2650 C   0  0  0  0  0  0
  -27.9990  -16.2125   23.4967 C   0  0  0  0  0  0
  -32.3294  -20.1045   24.2769 C   0  0  0  0  0  0
  -34.2573  -17.9133   27.1395 C   0  0  0  0  0  0
  -33.7942  -16.7256   25.0000 C   0  0  0  0  0  0
  -29.5459  -16.9888   18.8219 C   0  0  0  0  0  0
  -30.6036  -20.3315   21.8796 C   0  0  0  0  0  0
  -28.9692  -17.8366   21.1532 C   0  0  0  0  0  0
  -29.6048  -21.4392   22.3133 C   0  0  0  0  0  0
  -29.8893  -16.8941   20.3197 C   0  0  1  0  0  0
  -29.7968  -15.4920   20.7643 N   0  0  0  0  0  0
  -31.4754  -12.3862   19.1350 H   0  0  0  0  0  0
  -30.3242  -11.2777   19.8248 H   0  0  0  0  0  0
  -29.7404  -11.7692   17.4286 H   0  0  0  0  0  0
  -29.6767  -13.4780   17.7763 H   0  0  0  0  0  0
  -27.8132  -11.3058   18.7961 H   0  0  0  0  0  0
  -27.3805  -12.6519   17.7766 H   0  0  0  0  0  0
  -27.7002  -14.2425   19.5734 H   0  0  0  0  0  0
  -28.6709  -11.9218   21.3193 H   0  0  0  0  0  0
  -28.4761  -13.5514   21.8798 H   0  0  0  0  0  0
  -25.2726   -9.5684   22.4773 H   0  0  0  0  0  0
  -23.9952   -7.4629   22.7497 H   0  0  0  0  0  0
  -21.0797   -8.8776   19.8977 H   0  0  0  0  0  0
  -22.3653  -10.9669   19.6186 H   0  0  0  0  0  0
  -21.2020   -7.6119   23.9702 H   0  0  0  0  0  0
  -21.1496   -6.0505   25.9077 H   0  0  0  0  0  0
  -22.0598   -2.7582   23.2861 H   0  0  0  0  0  0
  -22.3993  -11.9937   22.4786 H   0  0  0  0  0  0
  -21.1106  -13.1424   22.2604 H   0  0  0  0  0  0
  -24.6660  -15.8360   20.5265 H   0  0  0  0  0  0
  -26.2710  -15.6175   20.0452 H   0  0  0  0  0  0
  -26.7097  -32.5556   23.1146 H   0  0  0  0  0  0
  -25.0126  -33.9787   25.0533 H   0  0  0  0  0  0
  -22.6917  -31.3054   21.4074 H   0  0  0  0  0  0
  -23.3755  -35.9633   23.3312 H   0  0  0  0  0  0
  -24.3592  -36.8893   22.2045 H   0  0  0  0  0  0
  -23.7230  -37.6511   23.6633 H   0  0  0  0  0  0
  -26.0373  -31.5968   20.5897 H   0  0  0  0  0  0
  -26.8192  -30.8928   21.9790 H   0  0  0  0  0  0
  -28.1060  -29.1099   21.1629 H   0  0  0  0  0  0
  -26.0780  -25.9636   19.0263 H   0  0  0  0  0  0
  -23.9872  -27.2823   19.0427 H   0  0  0  0  0  0
  -23.7187  -30.5909   19.4044 H   0  0  0  0  0  0
  -22.7377  -29.2357   19.8700 H   0  0  0  0  0  0
  -25.1270  -36.1979   25.0832 H   0  0  0  0  0  0
  -20.9942  -28.3243   24.1430 H   0  0  0  0  0  0
  -20.5646  -26.2275   23.3606 H   0  0  0  0  0  0
  -21.6645  -26.7448   22.1224 H   0  0  0  0  0  0
  -19.6927  -25.6290   21.1241 H   0  0  0  0  0  0
  -19.6696  -27.3173   20.6715 H   0  0  0  0  0  0
  -17.4192  -26.6651   21.4014 H   0  0  0  0  0  0
  -18.0339  -26.0060   22.8996 H   0  0  0  0  0  0
  -19.7931  -30.7235   24.2319 H   0  0  0  0  0  0
  -17.5022  -31.6281   24.5133 H   0  0  0  0  0  0
  -15.5349  -30.3005   23.7651 H   0  0  0  0  0  0
  -15.8651  -28.0830   22.7074 H   0  0  0  0  0  0
  -24.5938  -30.7021   25.7834 H   0  0  0  0  0  0
  -24.8909  -32.2885   26.4857 H   0  0  0  0  0  0
  -25.8109  -30.8957   27.0246 H   0  0  0  0  0  0
  -26.2820  -29.6803   24.1109 H   0  0  0  0  0  0
  -27.4042  -29.7232   25.4516 H   0  0  0  0  0  0
  -27.8671  -30.4331   23.9214 H   0  0  0  0  0  0
  -27.2690  -33.3599   26.2068 H   0  0  0  0  0  0
  -28.3877  -32.6852   25.0300 H   0  0  0  0  0  0
  -28.0721  -31.8401   26.5378 H   0  0  0  0  0  0
  -28.2611  -38.0096   24.7515 H   0  0  0  0  0  0
  -28.1073  -36.2636   24.6284 H   0  0  0  0  0  0
  -27.2320  -37.1447   25.8874 H   0  0  0  0  0  0
  -20.9282  -29.8758   21.6941 H   0  0  0  0  0  0
  -26.0193  -38.2873   24.1403 H   0  0  0  0  0  0
  -29.6519  -16.4729   25.5735 H   0  0  0  0  0  0
  -29.4904  -22.2306   19.5684 H   0  0  0  0  0  0
  -27.9781  -22.5627   20.3711 H   0  0  0  0  0  0
  -28.0937  -23.6425   22.8456 H   0  0  0  0  0  0
  -29.6733  -23.9405   23.5195 H   0  0  0  0  0  0
  -28.4408  -24.3409   18.7293 H   0  0  0  0  0  0
  -30.0066  -24.6535   19.4320 H   0  0  0  0  0  0
  -30.1308  -25.6771   21.8347 H   0  0  0  0  0  0
  -28.6415  -26.0274   22.6761 H   0  0  0  0  0  0
  -31.6770  -15.6720   26.4094 H   0  0  0  0  0  0
  -32.0097  -16.5284   27.9981 H   0  0  0  0  0  0
  -31.5933  -18.7536   26.9284 H   0  0  0  0  0  0
  -30.7735  -23.0732   21.5023 H   0  0  0  0  0  0
  -27.3209  -25.0653   20.8262 H   0  0  0  0  0  0
  -28.0341  -15.4575   24.2835 H   0  0  0  0  0  0
  -27.9484  -15.6850   22.5499 H   0  0  0  0  0  0
  -27.0656  -16.7646   23.6134 H   0  0  0  0  0  0
  -32.8294  -19.9893   25.2360 H   0  0  0  0  0  0
  -31.9201  -21.1144   24.2555 H   0  0  0  0  0  0
  -33.1019  -20.0310   23.5104 H   0  0  0  0  0  0
  -33.8278  -18.3249   28.0534 H   0  0  0  0  0  0
  -34.7687  -18.7173   26.6085 H   0  0  0  0  0  0
  -34.9924  -17.1575   27.4202 H   0  0  0  0  0  0
  -33.0329  -16.2747   24.3632 H   0  0  0  0  0  0
  -34.5238  -15.9543   25.2506 H   0  0  0  0  0  0
  -34.2956  -17.5078   24.4286 H   0  0  0  0  0  0
  -29.6004  -18.0198   18.4685 H   0  0  0  0  0  0
  -28.5391  -16.6244   18.6147 H   0  0  0  0  0  0
  -30.2431  -16.4074   18.2154 H   0  0  0  0  0  0
  -30.4661  -20.0675   20.8332 H   0  0  0  0  0  0
  -31.6186  -20.7252   21.9042 H   0  0  0  0  0  0
  -28.8347  -18.7872   20.6420 H   0  0  0  0  0  0
  -27.9516  -17.4491   21.1932 H   0  0  0  0  0  0
  -28.5848  -21.0622   22.2198 H   0  0  0  0  0  0
  -29.7506  -21.5836   23.3847 H   0  0  0  0  0  0
  -30.9204  -17.2341   20.4400 H   0  0  0  0  0  0
  -28.8953  -15.1980   21.1031 H   0  0  0  0  0  0
  1 25  1  0  0  0
  1 30  2  0  0  0
  1 95  1  0  0  0
  2  3  1  0  0  0
  2 25  1  0  0  0
  2 96  1  0  0  0
  2 97  1  0  0  0
  3  4  1  0  0  0
  3 98  1  0  0  0
  3 99  1  0  0  0
  4  5  1  0  0  0
  4100  1  0  0  0
  4101  1  0  0  0
  5  6  1  0  0  0
  5 26  1  0  0  0
  5102  1  0  0  0
  6 25  1  0  0  0
  6103  1  0  0  0
  6104  1  0  0  0
  7  8  2  0  0  0
  7 26  1  0  0  0
  7 29  1  0  0  0
  8  9  1  0  0  0
  8 22  1  0  0  0
  9 10  1  0  0  0
  9 27  2  0  0  0
 10 11  2  0  0  0
 10 15  1  0  0  0
 11 12  1  0  0  0
 11105  1  0  0  0
 12 13  2  0  0  0
 12106  1  0  0  0
 13 14  1  0  0  0
 13 31  1  0  0  0
 14 15  2  0  0  0
 14107  1  0  0  0
 15108  1  0  0  0
 16 17  2  0  0  0
 16 21  1  0  0  0
 16 31  1  0  0  0
 17 18  1  0  0  0
 17109  1  0  0  0
 18 19  2  0  0  0
 18110  1  0  0  0
 19 20  1  0  0  0
 19 24  1  0  0  0
 20 21  2  0  0  0
 20111  1  0  0  0
 21 23  1  0  0  0
 22 28  1  0  0  0
 22 32  2  0  0  0
 26 27  1  0  0  0
 28112  1  0  0  0
 28113  1  0  0  0
 29114  1  0  0  0
 29115  1  0  0  0
 33 34  1  0  0  0
 33 66  1  0  0  0
 33 70  2  0  0  0
 34 36  1  0  0  0
 34 59  1  0  0  0
 34116  1  0  0  0
 35 44  2  0  0  0
 35 45  1  0  0  0
 35 68  1  0  0  0
 36 56  1  0  0  0
 36117  1  0  0  0
 37 39  1  0  0  0
 37 47  1  0  0  0
 37 66  1  0  0  0
 37118  1  0  0  0
 38 43  2  0  0  0
 38 46  1  0  0  0
 38 47  1  0  0  0
 39 64  1  0  0  0
 39 67  2  0  0  0
 40 52  1  0  0  0
 40 53  2  0  0  0
 40 58  1  0  0  0
 41119  1  0  0  0
 41120  1  0  0  0
 41121  1  0  0  0
 41 48  1  0  0  0
 42 43  1  0  0  0
 42 66  1  0  0  0
 42122  1  0  0  0
 42123  1  0  0  0
 43 44  1  0  0  0
 44124  1  0  0  0
 45 46  2  0  0  0
 45125  1  0  0  0
 46126  1  0  0  0
 47127  1  0  0  0
 47128  1  0  0  0
 48 56  1  0  0  0
 48 65  1  0  0  0
 48129  1  0  0  0
 49 50  1  0  0  0
 49 53  1  0  0  0
 49 64  1  0  0  0
 49130  1  0  0  0
 50 51  1  0  0  0
 50131  1  0  0  0
 50132  1  0  0  0
 51 52  1  0  0  0
 51133  1  0  0  0
 51134  1  0  0  0
 52135  1  0  0  0
 52136  1  0  0  0
 53 54  1  0  0  0
 54 55  2  0  0  0
 54137  1  0  0  0
 55 57  1  0  0  0
 55138  1  0  0  0
 56 69  2  0  0  0
 57 58  2  0  0  0
 57139  1  0  0  0
 58140  1  0  0  0
 59 60  1  0  0  0
 59 61  1  0  0  0
 59 62  1  0  0  0
 60141  1  0  0  0
 60142  1  0  0  0
 60143  1  0  0  0
 61144  1  0  0  0
 61145  1  0  0  0
 61146  1  0  0  0
 62147  1  0  0  0
 62148  1  0  0  0
 62149  1  0  0  0
 63 65  1  0  0  0
 63150  1  0  0  0
 63151  1  0  0  0
 63152  1  0  0  0
 64153  1  0  0  0
 65154  1  0  0  0
 68 84  1  0  0  0
 71 72  2  0  0  0
 71 73  1  0  0  0
 71155  1  0  0  0
 72 74  1  0  0  0
 72 82  1  0  0  0
 73 75  2  0  0  0
 73 86  1  0  0  0
 74 76  2  0  0  0
 74 87  1  0  0  0
 75 76  1  0  0  0
 75 92  1  0  0  0
 76 91  1  0  0  0
 77 79  1  0  0  0
 77 83  1  0  0  0
 77156  1  0  0  0
 77157  1  0  0  0
 78 80  1  0  0  0
 78 83  1  0  0  0
 78158  1  0  0  0
 78159  1  0  0  0
 79 84  1  0  0  0
 79160  1  0  0  0
 79161  1  0  0  0
 80 84  1  0  0  0
 80162  1  0  0  0
 80163  1  0  0  0
 81 82  1  0  0  0
 81 85  1  0  0  0
 81164  1  0  0  0
 81165  1  0  0  0
 82 85  1  0  0  0
 82166  1  0  0  0
 83 93  1  0  0  0
 83167  1  0  0  0
 84168  1  0  0  0
 85 88  1  0  0  0
 85 89  1  0  0  0
 86169  1  0  0  0
 86170  1  0  0  0
 86171  1  0  0  0
 87172  1  0  0  0
 87173  1  0  0  0
 87174  1  0  0  0
 88175  1  0  0  0
 88176  1  0  0  0
 88177  1  0  0  0
 89178  1  0  0  0
 89179  1  0  0  0
 89180  1  0  0  0
 90181  1  0  0  0
 90182  1  0  0  0
 90183  1  0  0  0
 90 94  1  0  0  0
 91 93  1  0  0  0
 91184  1  0  0  0
 91185  1  0  0  0
 92 94  1  0  0  0
 92186  1  0  0  0
 92187  1  0  0  0
 93188  1  0  0  0
 93189  1  0  0  0
 94 95  1  0  0  0
 94190  1  0  0  0
 95191  1  0  0  0
M  ISO  4   1 100  68 101  84 101  95 100
M  END
> <chiral flag>
0

> <version>
0

> <s_m_source_file>
/data/baiqing/PycharmProjects/Reinvent-master-3.2/result/LINK_invent/BTK/process_docking_weight1_custom_sum_contain_oxygen_bond_distance_aromatic_linkinvent_7_9_3/rearranged_h_0164.sdf

> <i_m_source_file_index>
13

> <r_mmod_Potential_Energy-OPLS-2005>
37.6830940246582

> <r_mmod_Stretch_Energy-OPLS-2005>
44.2886619567871

> <r_mmod_Bend_Energy-OPLS-2005>
106.536094665527

> <r_mmod_Torsional_Energy-OPLS-2005>
314.80224609375

> <r_mmod_Improper_Torsional_Energy-OPLS-2005>
8.36912822723389

> <r_mmod_Van_der_Waal_Energy-OPLS-2005>
146.523651123047

> <r_mmod_Electrostatic_Energy-OPLS-2005>
-405.092407226562

> <r_mmod_Solvation_Energy-OPLS-2005>
-192.40885925293

> <b_mmod_Minimization_Converged-OPLS-2005>
0

> <r_mmod_RMS_Derivative-OPLS-2005>
2.64800238609314

$$$$
13
                    3D
 Structure written by MMmdl.
171180  0  0  1  0            999 V2000
  -30.7453  -14.6044   20.4950 C   0  0  0  0  0  0
  -30.4008  -12.3756   19.4676 C   0  0  0  0  0  0
  -29.4909  -12.4821   18.2294 C   0  0  0  0  0  0
  -28.0202  -12.3153   18.6462 C   0  0  0  0  0  0
  -27.6383  -13.2134   19.8506 C   0  0  2  0  0  0
  -28.6883  -13.1696   20.9870 C   0  0  0  0  0  0
  -25.2536  -13.8160   20.5728 C   0  0  0  0  0  0
  -24.1798  -13.0431   20.9219 C   0  0  0  0  0  0
  -24.6366  -11.6903   20.8770 C   0  0  0  0  0  0
  -23.9041  -10.4285   21.0421 C   0  0  0  0  0  0
  -24.3605   -9.4197   21.9190 C   0  0  0  0  0  0
  -23.6284   -8.2230   22.0751 C   0  0  0  0  0  0
  -22.4267   -8.0274   21.3538 C   0  0  0  0  0  0
  -21.9900   -9.0247   20.4641 C   0  0  0  0  0  0
  -22.7223  -10.2128   20.3057 C   0  0  0  0  0  0
  -21.6851   -6.0736   22.5279 C   0  0  0  0  0  0
  -21.4011   -6.5642   23.8212 C   0  0  0  0  0  0
  -21.3656   -5.6793   24.9173 C   0  0  0  0  0  0
  -21.6043   -4.3056   24.7221 C   0  0  0  0  0  0
  -21.8822   -3.8148   23.4344 C   0  0  0  0  0  0
  -21.9190   -4.6964   22.3402 C   0  0  0  0  0  0
  -22.7825  -13.5232   21.1869 C   0  0  0  0  0  0
  -22.1662   -4.2155   21.0977 F   0  0  0  0  0  0
  -21.5629   -3.4538   25.7731 F   0  0  0  0  0  0
  -30.0065  -13.4511   20.4053 N   0  0  0  0  0  0
  -26.2928  -12.9314   20.3333 N   0  0  0  0  0  0
  -25.9292  -11.6481   20.5799 N   0  0  0  0  0  0
  -22.0461  -12.8220   22.0416 N   0  0  0  0  0  0
  -25.4281  -15.1880   20.4172 N   0  0  0  0  0  0
  -31.9129  -14.6123   20.0941 O   0  0  0  0  0  0
  -21.6633   -6.8875   21.4238 O   0  0  0  0  0  0
  -22.3512  -14.5537   20.6714 O   0  0  0  0  0  0
  -24.6212  -31.8627   23.2099 C   0  0  0  0  0  0
  -25.9077  -32.4790   23.8402 C   0  0  1  0  0  0
  -27.2089  -27.3484   20.1248 C   0  0  0  0  0  0
  -25.5909  -33.8593   24.2312 N   0  0  0  0  0  0
  -23.4161  -30.4897   21.5462 C   0  0  2  0  0  0
  -24.8679  -28.9611   20.1008 C   0  0  0  0  0  0
  -22.7465  -29.4620   22.4896 C   0  0  0  0  0  0
  -18.0291  -28.1394   22.8480 C   0  0  0  0  0  0
  -24.1492  -36.7303   23.2632 C   0  0  0  0  0  0
  -25.9552  -30.7977   21.3877 C   0  0  0  0  0  0
  -26.0285  -29.4273   20.7353 C   0  0  0  0  0  0
  -27.2024  -28.6210   20.7632 C   0  0  0  0  0  0
  -26.0727  -26.9803   19.3890 C   0  0  0  0  0  0
  -24.8889  -27.7359   19.4186 C   0  0  0  0  0  0
  -23.6330  -29.8344   20.1569 C   0  0  0  0  0  0
  -25.4109  -36.3085   24.0329 C   0  0  1  0  0  0
  -20.5889  -28.3684   23.1277 C   0  0  2  0  0  0
  -20.6781  -26.9403   22.5416 C   0  0  0  0  0  0
  -19.5760  -26.6385   21.5219 C   0  0  0  0  0  0
  -18.1934  -26.7939   22.1625 C   0  0  0  0  0  0
  -19.1547  -28.8859   23.2879 C   0  0  0  0  0  0
  -18.9468  -30.1455   23.8900 C   0  0  0  0  0  0
  -17.6467  -30.6583   24.0564 C   0  0  0  0  0  0
  -25.9044  -34.9456   23.5121 C   0  0  0  0  0  0
  -16.5359  -29.9087   23.6326 C   0  0  0  0  0  0
  -16.7277  -28.6515   23.0335 C   0  0  0  0  0  0
  -26.4477  -31.6584   25.0752 C   0  0  0  0  0  0
  -25.3716  -31.3746   26.1485 C   0  0  0  0  0  0
  -27.0303  -30.2994   24.6205 C   0  0  0  0  0  0
  -27.6050  -32.4309   25.7509 C   0  0  0  0  0  0
  -27.5578  -37.1797   24.8458 C   0  0  0  0  0  0
  -21.4175  -29.3038   22.3652 N   0  0  0  0  0  0
  -26.4288  -37.3774   23.9408 N   0  0  0  0  0  0
  -24.6815  -31.0673   22.1039 N   0  0  0  0  0  0
  -23.4204  -28.8142   23.2954 O   0  0  0  0  0  0
  -28.2445  -26.4221   20.2023 O   0  0  0  0  0  0
  -26.5602  -34.8906   22.4682 O   0  0  0  0  0  0
  -23.5381  -32.1423   23.7426 O   0  0  0  0  0  0
  -27.9200  -23.8159   20.7909 C   0  0  0  0  0  0
  -26.6984  -23.2620   20.2933 C   0  0  0  0  0  0
  -28.9278  -22.8337   21.1245 C   0  0  0  0  0  0
  -26.6267  -21.8859   19.9768 C   0  0  0  0  0  0
  -28.6684  -21.4215   20.9670 C   0  0  0  0  0  0
  -28.7555  -17.9256   20.5726 C   0  0  0  0  0  0
  -30.5546  -18.0047   22.2157 C   0  0  0  0  0  0
  -29.4002  -16.6143   19.9898 C   0  0  0  0  0  0
  -31.1548  -16.7028   21.6211 C   0  0  0  0  0  0
  -29.8005  -18.8961   21.1892 C   0  0  0  0  0  0
  -25.3954  -24.0435   20.1987 C   0  0  0  0  0  0
  -30.2420  -23.2857   21.7531 C   0  0  0  0  0  0
  -25.4126  -21.2681   19.3006 C   0  0  0  0  0  0
  -28.4672  -20.0841   23.0889 C   0  0  0  0  0  0
  -28.0407  -25.3489   21.2011 C   0  0  0  0  0  0
  -29.3363  -20.2907   21.8306 C   0  0  2  0  0  0
  -27.5696  -21.0011   20.3243 N   0  0  0  0  0  0
  -30.1929  -15.7895   20.9438 N   0  0  0  0  0  0
  -31.4486  -12.4287   19.1668 H   0  0  0  0  0  0
  -30.2854  -11.4018   19.9464 H   0  0  0  0  0  0
  -29.7593  -11.7198   17.4969 H   0  0  0  0  0  0
  -29.6345  -13.4461   17.7384 H   0  0  0  0  0  0
  -27.8692  -11.2665   18.9037 H   0  0  0  0  0  0
  -27.3622  -12.5167   17.8002 H   0  0  0  0  0  0
  -27.6111  -14.2174   19.4453 H   0  0  0  0  0  0
  -28.6945  -12.1928   21.4722 H   0  0  0  0  0  0
  -28.4400  -13.8973   21.7613 H   0  0  0  0  0  0
  -25.2751   -9.5679   22.4767 H   0  0  0  0  0  0
  -24.0003   -7.4614   22.7466 H   0  0  0  0  0  0
  -21.0833   -8.8757   19.8941 H   0  0  0  0  0  0
  -22.3680  -10.9669   19.6171 H   0  0  0  0  0  0
  -21.2004   -7.6150   23.9718 H   0  0  0  0  0  0
  -21.1476   -6.0521   25.9076 H   0  0  0  0  0  0
  -22.0606   -2.7610   23.2837 H   0  0  0  0  0  0
  -22.4072  -11.9881   22.4805 H   0  0  0  0  0  0
  -21.1074  -13.1241   22.2613 H   0  0  0  0  0  0
  -24.6717  -15.8512   20.5446 H   0  0  0  0  0  0
  -26.2977  -15.6260   20.1421 H   0  0  0  0  0  0
  -26.7138  -32.5471   23.1150 H   0  0  0  0  0  0
  -25.0083  -33.9769   25.0467 H   0  0  0  0  0  0
  -22.7071  -31.3085   21.4067 H   0  0  0  0  0  0
  -23.3750  -35.9639   23.3296 H   0  0  0  0  0  0
  -24.3604  -36.8919   22.2050 H   0  0  0  0  0  0
  -23.7258  -37.6512   23.6654 H   0  0  0  0  0  0
  -26.0917  -31.5598   20.6190 H   0  0  0  0  0  0
  -26.8340  -30.8447   22.0187 H   0  0  0  0  0  0
  -28.0794  -28.9533   21.3018 H   0  0  0  0  0  0
  -26.1056  -26.0800   18.7996 H   0  0  0  0  0  0
  -24.0143  -27.3906   18.8849 H   0  0  0  0  0  0
  -23.7483  -30.6165   19.4053 H   0  0  0  0  0  0
  -22.7555  -29.2615   19.8524 H   0  0  0  0  0  0
  -25.1282  -36.1945   25.0819 H   0  0  0  0  0  0
  -20.9991  -28.3271   24.1396 H   0  0  0  0  0  0
  -20.5693  -26.2286   23.3610 H   0  0  0  0  0  0
  -21.6645  -26.7435   22.1201 H   0  0  0  0  0  0
  -19.6925  -25.6303   21.1237 H   0  0  0  0  0  0
  -19.6718  -27.3200   20.6753 H   0  0  0  0  0  0
  -17.4207  -26.6680   21.4019 H   0  0  0  0  0  0
  -18.0326  -26.0082   22.9024 H   0  0  0  0  0  0
  -19.7949  -30.7268   24.2263 H   0  0  0  0  0  0
  -17.5028  -31.6266   24.5167 H   0  0  0  0  0  0
  -15.5359  -30.2992   23.7662 H   0  0  0  0  0  0
  -15.8675  -28.0846   22.7031 H   0  0  0  0  0  0
  -24.5905  -30.7061   25.7840 H   0  0  0  0  0  0
  -24.8891  -32.2925   26.4849 H   0  0  0  0  0  0
  -25.8043  -30.8993   27.0295 H   0  0  0  0  0  0
  -26.2880  -29.6765   24.1200 H   0  0  0  0  0  0
  -27.3954  -29.7225   25.4713 H   0  0  0  0  0  0
  -27.8773  -30.4261   23.9461 H   0  0  0  0  0  0
  -27.2670  -33.3616   26.2077 H   0  0  0  0  0  0
  -28.3864  -32.6848   25.0335 H   0  0  0  0  0  0
  -28.0702  -31.8436   26.5437 H   0  0  0  0  0  0
  -28.2570  -38.0113   24.7499 H   0  0  0  0  0  0
  -28.1093  -36.2639   24.6276 H   0  0  0  0  0  0
  -27.2302  -37.1430   25.8862 H   0  0  0  0  0  0
  -20.9326  -29.8791   21.6906 H   0  0  0  0  0  0
  -26.0173  -38.2844   24.1430 H   0  0  0  0  0  0
  -28.0077  -17.6585   21.3202 H   0  0  0  0  0  0
  -28.2119  -18.4317   19.7741 H   0  0  0  0  0  0
  -31.3520  -18.5846   22.6830 H   0  0  0  0  0  0
  -29.8832  -17.7084   23.0223 H   0  0  0  0  0  0
  -30.0550  -16.8886   19.1601 H   0  0  0  0  0  0
  -28.6158  -16.0187   19.5381 H   0  0  0  0  0  0
  -31.6617  -16.1595   22.4214 H   0  0  0  0  0  0
  -31.9374  -16.9937   20.9160 H   0  0  0  0  0  0
  -30.5012  -19.1537   20.3939 H   0  0  0  0  0  0
  -24.5790  -23.4539   20.6148 H   0  0  0  0  0  0
  -25.1338  -24.2453   19.1614 H   0  0  0  0  0  0
  -25.3900  -24.9598   20.7803 H   0  0  0  0  0  0
  -30.5647  -24.2500   21.3611 H   0  0  0  0  0  0
  -31.0536  -22.5951   21.5253 H   0  0  0  0  0  0
  -30.1488  -23.3619   22.8369 H   0  0  0  0  0  0
  -25.1062  -21.8647   18.4408 H   0  0  0  0  0  0
  -24.5716  -21.1970   19.9893 H   0  0  0  0  0  0
  -25.6270  -20.2635   18.9343 H   0  0  0  0  0  0
  -28.2211  -21.0434   23.5449 H   0  0  0  0  0  0
  -28.9726  -19.5013   23.8565 H   0  0  0  0  0  0
  -27.5291  -19.5871   22.8440 H   0  0  0  0  0  0
  -28.8470  -25.4622   21.9228 H   0  0  0  0  0  0
  -27.1713  -25.5826   21.8161 H   0  0  0  0  0  0
  -30.2629  -20.7163   22.2063 H   0  0  0  0  0  0
  1 25  1  0  0  0
  1 30  2  0  0  0
  1 88  1  0  0  0
  2  3  1  0  0  0
  2 25  1  0  0  0
  2 89  1  0  0  0
  2 90  1  0  0  0
  3  4  1  0  0  0
  3 91  1  0  0  0
  3 92  1  0  0  0
  4  5  1  0  0  0
  4 93  1  0  0  0
  4 94  1  0  0  0
  5  6  1  0  0  0
  5 26  1  0  0  0
  5 95  1  0  0  0
  6 25  1  0  0  0
  6 96  1  0  0  0
  6 97  1  0  0  0
  7  8  2  0  0  0
  7 26  1  0  0  0
  7 29  1  0  0  0
  8  9  1  0  0  0
  8 22  1  0  0  0
  9 10  1  0  0  0
  9 27  2  0  0  0
 10 11  2  0  0  0
 10 15  1  0  0  0
 11 12  1  0  0  0
 11 98  1  0  0  0
 12 13  2  0  0  0
 12 99  1  0  0  0
 13 14  1  0  0  0
 13 31  1  0  0  0
 14 15  2  0  0  0
 14100  1  0  0  0
 15101  1  0  0  0
 16 17  2  0  0  0
 16 21  1  0  0  0
 16 31  1  0  0  0
 17 18  1  0  0  0
 17102  1  0  0  0
 18 19  2  0  0  0
 18103  1  0  0  0
 19 20  1  0  0  0
 19 24  1  0  0  0
 20 21  2  0  0  0
 20104  1  0  0  0
 21 23  1  0  0  0
 22 28  1  0  0  0
 22 32  2  0  0  0
 26 27  1  0  0  0
 28105  1  0  0  0
 28106  1  0  0  0
 29107  1  0  0  0
 29108  1  0  0  0
 33 34  1  0  0  0
 33 66  1  0  0  0
 33 70  2  0  0  0
 34 36  1  0  0  0
 34 59  1  0  0  0
 34109  1  0  0  0
 35 44  2  0  0  0
 35 45  1  0  0  0
 35 68  1  0  0  0
 36 56  1  0  0  0
 36110  1  0  0  0
 37 39  1  0  0  0
 37 47  1  0  0  0
 37 66  1  0  0  0
 37111  1  0  0  0
 38 43  2  0  0  0
 38 46  1  0  0  0
 38 47  1  0  0  0
 39 64  1  0  0  0
 39 67  2  0  0  0
 40 52  1  0  0  0
 40 53  2  0  0  0
 40 58  1  0  0  0
 41112  1  0  0  0
 41113  1  0  0  0
 41114  1  0  0  0
 41 48  1  0  0  0
 42 43  1  0  0  0
 42 66  1  0  0  0
 42115  1  0  0  0
 42116  1  0  0  0
 43 44  1  0  0  0
 44117  1  0  0  0
 45 46  2  0  0  0
 45118  1  0  0  0
 46119  1  0  0  0
 47120  1  0  0  0
 47121  1  0  0  0
 48 56  1  0  0  0
 48 65  1  0  0  0
 48122  1  0  0  0
 49 50  1  0  0  0
 49 53  1  0  0  0
 49 64  1  0  0  0
 49123  1  0  0  0
 50 51  1  0  0  0
 50124  1  0  0  0
 50125  1  0  0  0
 51 52  1  0  0  0
 51126  1  0  0  0
 51127  1  0  0  0
 52128  1  0  0  0
 52129  1  0  0  0
 53 54  1  0  0  0
 54 55  2  0  0  0
 54130  1  0  0  0
 55 57  1  0  0  0
 55131  1  0  0  0
 56 69  2  0  0  0
 57 58  2  0  0  0
 57132  1  0  0  0
 58133  1  0  0  0
 59 60  1  0  0  0
 59 61  1  0  0  0
 59 62  1  0  0  0
 60134  1  0  0  0
 60135  1  0  0  0
 60136  1  0  0  0
 61137  1  0  0  0
 61138  1  0  0  0
 61139  1  0  0  0
 62140  1  0  0  0
 62141  1  0  0  0
 62142  1  0  0  0
 63 65  1  0  0  0
 63143  1  0  0  0
 63144  1  0  0  0
 63145  1  0  0  0
 64146  1  0  0  0
 65147  1  0  0  0
 68 85  1  0  0  0
 71 72  2  0  0  0
 71 73  1  0  0  0
 71 85  1  0  0  0
 72 74  1  0  0  0
 72 81  1  0  0  0
 73 75  2  0  0  0
 73 82  1  0  0  0
 74 83  1  0  0  0
 74 87  2  0  0  0
 75 86  1  0  0  0
 75 87  1  0  0  0
 76 78  1  0  0  0
 76148  1  0  0  0
 76149  1  0  0  0
 76 80  1  0  0  0
 77 79  1  0  0  0
 77 80  1  0  0  0
 77150  1  0  0  0
 77151  1  0  0  0
 78 88  1  0  0  0
 78152  1  0  0  0
 78153  1  0  0  0
 79 88  1  0  0  0
 79154  1  0  0  0
 79155  1  0  0  0
 80 86  1  0  0  0
 80156  1  0  0  0
 81157  1  0  0  0
 81158  1  0  0  0
 81159  1  0  0  0
 82160  1  0  0  0
 82161  1  0  0  0
 82162  1  0  0  0
 83163  1  0  0  0
 83164  1  0  0  0
 83165  1  0  0  0
 84166  1  0  0  0
 84167  1  0  0  0
 84168  1  0  0  0
 84 86  1  0  0  0
 85169  1  0  0  0
 85170  1  0  0  0
 86171  1  0  0  0
M  ISO  4   1 100  68 101  85 101  88 100
M  END
> <chiral flag>
0

> <version>
0

> <s_m_source_file>
/data/baiqing/PycharmProjects/Reinvent-master-3.2/result/LINK_invent/BTK/process_docking_weight1_custom_sum_contain_oxygen_bond_distance_aromatic_linkinvent_7_9_3/rearranged_h_0164.sdf

> <i_m_source_file_index>
14

> <r_mmod_Potential_Energy-OPLS-2005>
235.475997924805

> <r_mmod_Stretch_Energy-OPLS-2005>
85.1202697753906

> <r_mmod_Bend_Energy-OPLS-2005>
174.610397338867

> <r_mmod_Torsional_Energy-OPLS-2005>
379.354614257812

> <r_mmod_Improper_Torsional_Energy-OPLS-2005>
12.0490245819092

> <r_mmod_Van_der_Waal_Energy-OPLS-2005>
170.274032592773

> <r_mmod_Electrostatic_Energy-OPLS-2005>
-439.296783447266

> <r_mmod_Solvation_Energy-OPLS-2005>
-203.751129150391

> <b_mmod_Minimization_Converged-OPLS-2005>
0

> <r_mmod_RMS_Derivative-OPLS-2005>
1.71102058887482

$$$$
14
                    3D
 Structure written by MMmdl.
178188  0  0  1  0            999 V2000
  -30.6644  -14.5942   20.4264 C   0  0  0  0  0  0
  -30.4260  -12.3476   19.4390 C   0  0  0  0  0  0
  -29.4956  -12.4565   18.2116 C   0  0  0  0  0  0
  -28.0170  -12.3245   18.6321 C   0  0  0  0  0  0
  -27.6455  -13.2098   19.8530 C   0  0  2  0  0  0
  -28.7010  -13.1057   20.9763 C   0  0  0  0  0  0
  -25.2557  -13.8161   20.5708 C   0  0  0  0  0  0
  -24.1813  -13.0437   20.9206 C   0  0  0  0  0  0
  -24.6367  -11.6900   20.8756 C   0  0  0  0  0  0
  -23.9044  -10.4288   21.0414 C   0  0  0  0  0  0
  -24.3612   -9.4204   21.9187 C   0  0  0  0  0  0
  -23.6294   -8.2235   22.0747 C   0  0  0  0  0  0
  -22.4276   -8.0269   21.3540 C   0  0  0  0  0  0
  -21.9907   -9.0244   20.4645 C   0  0  0  0  0  0
  -22.7226  -10.2126   20.3058 C   0  0  0  0  0  0
  -21.6848   -6.0736   22.5278 C   0  0  0  0  0  0
  -21.4011   -6.5642   23.8214 C   0  0  0  0  0  0
  -21.3655   -5.6794   24.9175 C   0  0  0  0  0  0
  -21.6044   -4.3059   24.7224 C   0  0  0  0  0  0
  -21.8822   -3.8146   23.4345 C   0  0  0  0  0  0
  -21.9192   -4.6964   22.3402 C   0  0  0  0  0  0
  -22.7836  -13.5233   21.1859 C   0  0  0  0  0  0
  -22.1656   -4.2146   21.0981 F   0  0  0  0  0  0
  -21.5634   -3.4544   25.7739 F   0  0  0  0  0  0
  -30.0128  -13.3955   20.3848 N   0  0  0  0  0  0
  -26.2966  -12.9319   20.3345 N   0  0  0  0  0  0
  -25.9296  -11.6487   20.5795 N   0  0  0  0  0  0
  -22.0479  -12.8222   22.0421 N   0  0  0  0  0  0
  -25.4310  -15.1876   20.4104 N   0  0  0  0  0  0
  -31.8819  -14.6810   20.2465 O   0  0  0  0  0  0
  -21.6637   -6.8867   21.4235 O   0  0  0  0  0  0
  -22.3518  -14.5531   20.6694 O   0  0  0  0  0  0
  -24.6226  -31.8640   23.2069 C   0  0  0  0  0  0
  -25.9093  -32.4799   23.8377 C   0  0  1  0  0  0
  -27.2297  -27.3650   20.0884 C   0  0  0  0  0  0
  -25.5922  -33.8603   24.2302 N   0  0  0  0  0  0
  -23.4127  -30.4909   21.5492 C   0  0  2  0  0  0
  -24.8560  -28.9529   20.1132 C   0  0  0  0  0  0
  -22.7445  -29.4656   22.4960 C   0  0  0  0  0  0
  -18.0279  -28.1382   22.8492 C   0  0  0  0  0  0
  -24.1486  -36.7302   23.2638 C   0  0  0  0  0  0
  -25.9512  -30.8068   21.3713 C   0  0  0  0  0  0
  -26.0243  -29.4386   20.7119 C   0  0  0  0  0  0
  -27.2095  -28.6527   20.6982 C   0  0  0  0  0  0
  -26.0210  -26.9062   19.5088 C   0  0  0  0  0  0
  -24.8529  -27.6879   19.5113 C   0  0  0  0  0  0
  -23.6234  -29.8286   20.1634 C   0  0  0  0  0  0
  -25.4110  -36.3099   24.0329 C   0  0  1  0  0  0
  -20.5880  -28.3683   23.1293 C   0  0  2  0  0  0
  -20.6769  -26.9410   22.5410 C   0  0  0  0  0  0
  -19.5748  -26.6387   21.5209 C   0  0  0  0  0  0
  -18.1926  -26.7930   22.1618 C   0  0  0  0  0  0
  -19.1532  -28.8845   23.2889 C   0  0  0  0  0  0
  -18.9456  -30.1448   23.8911 C   0  0  0  0  0  0
  -17.6458  -30.6586   24.0564 C   0  0  0  0  0  0
  -25.9048  -34.9464   23.5113 C   0  0  0  0  0  0
  -16.5346  -29.9084   23.6331 C   0  0  0  0  0  0
  -16.7267  -28.6504   23.0353 C   0  0  0  0  0  0
  -26.4490  -31.6597   25.0731 C   0  0  0  0  0  0
  -25.3736  -31.3727   26.1468 C   0  0  0  0  0  0
  -27.0310  -30.3018   24.6162 C   0  0  0  0  0  0
  -27.6065  -32.4318   25.7494 C   0  0  0  0  0  0
  -27.5578  -37.1807   24.8462 C   0  0  0  0  0  0
  -21.4166  -29.3048   22.3688 N   0  0  0  0  0  0
  -26.4289  -37.3789   23.9410 N   0  0  0  0  0  0
  -24.6809  -31.0692   22.0994 N   0  0  0  0  0  0
  -23.4191  -28.8195   23.3021 O   0  0  0  0  0  0
  -28.3828  -26.5751   20.1307 O   0  0  0  0  0  0
  -26.5611  -34.8921   22.4677 O   0  0  0  0  0  0
  -23.5399  -32.1420   23.7417 O   0  0  0  0  0  0
  -29.3983  -21.7646   20.2898 C   0  0  0  0  0  0
  -29.0560  -20.3705   20.4230 C   0  0  0  0  0  0
  -30.7351  -21.8352   20.0337 C   0  0  0  0  0  0
  -30.1828  -19.6118   20.1615 C   0  0  0  0  0  0
  -29.8275  -17.5992   18.6358 C   0  0  0  0  0  0
  -29.7455  -16.0731   18.7678 C   0  0  0  0  0  0
  -28.5475  -23.0426   20.3410 C   0  0  2  0  0  0
  -30.4089  -18.0907   19.9507 C   0  0  2  0  0  0
  -29.8728  -17.0040   20.9306 C   0  0  2  0  0  0
  -29.2812  -24.1448   19.5086 C   0  0  1  0  0  0
  -31.5111  -23.1350   19.8082 C   0  0  0  0  0  0
  -27.6818  -19.8335   20.7293 C   0  0  0  0  0  0
  -28.3019  -23.4869   21.7906 C   0  0  0  0  0  0
  -30.5794  -16.9836   22.2978 C   0  0  0  0  0  0
  -32.0853  -23.2750   18.3831 C   0  0  0  0  0  0
  -32.5853  -23.3776   20.8819 C   0  0  0  0  0  0
  -32.5985  -20.1303   19.6444 C   0  0  0  0  0  0
  -28.5977  -25.5214   19.1430 C   0  0  0  0  0  0
  -31.2266  -20.5253   19.9496 N   0  0  0  0  0  0
  -29.8766  -15.6956   20.1933 N   0  0  0  0  0  0
  -30.6240  -24.2647   19.9962 O   0  0  0  0  0  0
  -31.4677  -12.4563   19.1316 H   0  0  0  0  0  0
  -30.3453  -11.3629   19.9024 H   0  0  0  0  0  0
  -29.7438  -11.6801   17.4867 H   0  0  0  0  0  0
  -29.6514  -13.4056   17.6988 H   0  0  0  0  0  0
  -27.8412  -11.2753   18.8738 H   0  0  0  0  0  0
  -27.3625  -12.5514   17.7891 H   0  0  0  0  0  0
  -27.6410  -14.2353   19.4955 H   0  0  0  0  0  0
  -28.6996  -12.1093   21.4190 H   0  0  0  0  0  0
  -28.4761  -13.8071   21.7822 H   0  0  0  0  0  0
  -25.2753   -9.5692   22.4758 H   0  0  0  0  0  0
  -24.0014   -7.4624   22.7459 H   0  0  0  0  0  0
  -21.0841   -8.8762   19.8947 H   0  0  0  0  0  0
  -22.3686  -10.9668   19.6168 H   0  0  0  0  0  0
  -21.1998   -7.6148   23.9724 H   0  0  0  0  0  0
  -21.1475   -6.0517   25.9082 H   0  0  0  0  0  0
  -22.0604   -2.7608   23.2847 H   0  0  0  0  0  0
  -22.4084  -11.9881   22.4811 H   0  0  0  0  0  0
  -21.1089  -13.1237   22.2608 H   0  0  0  0  0  0
  -24.6739  -15.8520   20.5247 H   0  0  0  0  0  0
  -26.2998  -15.6212   20.1245 H   0  0  0  0  0  0
  -26.7167  -32.5479   23.1133 H   0  0  0  0  0  0
  -25.0058  -33.9760   25.0437 H   0  0  0  0  0  0
  -22.7050  -31.3109   21.4098 H   0  0  0  0  0  0
  -23.3757  -35.9626   23.3294 H   0  0  0  0  0  0
  -24.3579  -36.8931   22.2054 H   0  0  0  0  0  0
  -23.7226  -37.6495   23.6663 H   0  0  0  0  0  0
  -26.0775  -31.5726   20.6048 H   0  0  0  0  0  0
  -26.8339  -30.8542   21.9971 H   0  0  0  0  0  0
  -28.1081  -29.0244   21.1708 H   0  0  0  0  0  0
  -25.9128  -25.9233   19.0818 H   0  0  0  0  0  0
  -23.9487  -27.2982   19.0645 H   0  0  0  0  0  0
  -23.7378  -30.6055   19.4066 H   0  0  0  0  0  0
  -22.7446  -29.2549   19.8634 H   0  0  0  0  0  0
  -25.1296  -36.1951   25.0823 H   0  0  0  0  0  0
  -20.9977  -28.3250   24.1411 H   0  0  0  0  0  0
  -20.5662  -26.2295   23.3611 H   0  0  0  0  0  0
  -21.6639  -26.7440   22.1200 H   0  0  0  0  0  0
  -19.6906  -25.6296   21.1241 H   0  0  0  0  0  0
  -19.6693  -27.3196   20.6738 H   0  0  0  0  0  0
  -17.4201  -26.6686   21.4016 H   0  0  0  0  0  0
  -18.0324  -26.0061   22.9004 H   0  0  0  0  0  0
  -19.7934  -30.7256   24.2288 H   0  0  0  0  0  0
  -17.5014  -31.6271   24.5159 H   0  0  0  0  0  0
  -15.5346  -30.2993   23.7645 H   0  0  0  0  0  0
  -15.8668  -28.0818   22.7074 H   0  0  0  0  0  0
  -24.5891  -30.7105   25.7789 H   0  0  0  0  0  0
  -24.8953  -32.2893   26.4931 H   0  0  0  0  0  0
  -25.8063  -30.8865   27.0219 H   0  0  0  0  0  0
  -26.2860  -29.6779   24.1207 H   0  0  0  0  0  0
  -27.4031  -29.7266   25.4650 H   0  0  0  0  0  0
  -27.8729  -30.4298   23.9352 H   0  0  0  0  0  0
  -27.2694  -33.3629   26.2062 H   0  0  0  0  0  0
  -28.3878  -32.6857   25.0317 H   0  0  0  0  0  0
  -28.0724  -31.8442   26.5413 H   0  0  0  0  0  0
  -28.2600  -38.0099   24.7511 H   0  0  0  0  0  0
  -28.1072  -36.2635   24.6288 H   0  0  0  0  0  0
  -27.2302  -37.1448   25.8866 H   0  0  0  0  0  0
  -20.9327  -29.8775   21.6908 H   0  0  0  0  0  0
  -26.0176  -38.2865   24.1420 H   0  0  0  0  0  0
  -28.8235  -17.9996   18.4933 H   0  0  0  0  0  0
  -30.4249  -17.9156   17.7794 H   0  0  0  0  0  0
  -30.5399  -15.6325   18.1600 H   0  0  0  0  0  0
  -28.8065  -15.7130   18.3495 H   0  0  0  0  0  0
  -27.5873  -22.8305   19.8686 H   0  0  0  0  0  0
  -31.4774  -17.8881   19.8991 H   0  0  0  0  0  0
  -28.8194  -17.2146   21.1219 H   0  0  0  0  0  0
  -29.3686  -23.7002   18.5165 H   0  0  0  0  0  0
  -26.9322  -20.6236   20.6956 H   0  0  0  0  0  0
  -27.6670  -19.3964   21.7274 H   0  0  0  0  0  0
  -27.3939  -19.0656   20.0125 H   0  0  0  0  0  0
  -29.2415  -23.7099   22.2984 H   0  0  0  0  0  0
  -27.7897  -22.7113   22.3602 H   0  0  0  0  0  0
  -27.6860  -24.3856   21.8260 H   0  0  0  0  0  0
  -31.6478  -16.7871   22.2001 H   0  0  0  0  0  0
  -30.1521  -16.2256   22.9555 H   0  0  0  0  0  0
  -30.4720  -17.9474   22.7974 H   0  0  0  0  0  0
  -32.8538  -22.5390   18.1606 H   0  0  0  0  0  0
  -32.5389  -24.2566   18.2429 H   0  0  0  0  0  0
  -31.3164  -23.1591   17.6200 H   0  0  0  0  0  0
  -33.3726  -22.6277   20.8815 H   0  0  0  0  0  0
  -32.1415  -23.3773   21.8779 H   0  0  0  0  0  0
  -33.0677  -24.3455   20.7414 H   0  0  0  0  0  0
  -33.2680  -20.9756   19.5494 H   0  0  0  0  0  0
  -32.6224  -19.5780   18.7049 H   0  0  0  0  0  0
  -32.9878  -19.4966   20.4414 H   0  0  0  0  0  0
  -27.7135  -25.2623   18.5727 H   0  0  0  0  0  0
  -29.2370  -25.9914   18.3950 H   0  0  0  0  0  0
  1 25  1  0  0  0
  1 30  2  0  0  0
  1 90  1  0  0  0
  2  3  1  0  0  0
  2 25  1  0  0  0
  2 92  1  0  0  0
  2 93  1  0  0  0
  3  4  1  0  0  0
  3 94  1  0  0  0
  3 95  1  0  0  0
  4  5  1  0  0  0
  4 96  1  0  0  0
  4 97  1  0  0  0
  5  6  1  0  0  0
  5 26  1  0  0  0
  5 98  1  0  0  0
  6 25  1  0  0  0
  6 99  1  0  0  0
  6100  1  0  0  0
  7  8  2  0  0  0
  7 26  1  0  0  0
  7 29  1  0  0  0
  8  9  1  0  0  0
  8 22  1  0  0  0
  9 10  1  0  0  0
  9 27  2  0  0  0
 10 11  2  0  0  0
 10 15  1  0  0  0
 11 12  1  0  0  0
 11101  1  0  0  0
 12 13  2  0  0  0
 12102  1  0  0  0
 13 14  1  0  0  0
 13 31  1  0  0  0
 14 15  2  0  0  0
 14103  1  0  0  0
 15104  1  0  0  0
 16 17  2  0  0  0
 16 21  1  0  0  0
 16 31  1  0  0  0
 17 18  1  0  0  0
 17105  1  0  0  0
 18 19  2  0  0  0
 18106  1  0  0  0
 19 20  1  0  0  0
 19 24  1  0  0  0
 20 21  2  0  0  0
 20107  1  0  0  0
 21 23  1  0  0  0
 22 28  1  0  0  0
 22 32  2  0  0  0
 26 27  1  0  0  0
 28108  1  0  0  0
 28109  1  0  0  0
 29110  1  0  0  0
 29111  1  0  0  0
 33 34  1  0  0  0
 33 66  1  0  0  0
 33 70  2  0  0  0
 34 36  1  0  0  0
 34 59  1  0  0  0
 34112  1  0  0  0
 35 44  2  0  0  0
 35 45  1  0  0  0
 35 68  1  0  0  0
 36 56  1  0  0  0
 36113  1  0  0  0
 37 39  1  0  0  0
 37 47  1  0  0  0
 37 66  1  0  0  0
 37114  1  0  0  0
 38 43  2  0  0  0
 38 46  1  0  0  0
 38 47  1  0  0  0
 39 64  1  0  0  0
 39 67  2  0  0  0
 40 52  1  0  0  0
 40 53  2  0  0  0
 40 58  1  0  0  0
 41115  1  0  0  0
 41116  1  0  0  0
 41117  1  0  0  0
 41 48  1  0  0  0
 42 43  1  0  0  0
 42 66  1  0  0  0
 42118  1  0  0  0
 42119  1  0  0  0
 43 44  1  0  0  0
 44120  1  0  0  0
 45 46  2  0  0  0
 45121  1  0  0  0
 46122  1  0  0  0
 47123  1  0  0  0
 47124  1  0  0  0
 48 56  1  0  0  0
 48 65  1  0  0  0
 48125  1  0  0  0
 49 50  1  0  0  0
 49 53  1  0  0  0
 49 64  1  0  0  0
 49126  1  0  0  0
 50 51  1  0  0  0
 50127  1  0  0  0
 50128  1  0  0  0
 51 52  1  0  0  0
 51129  1  0  0  0
 51130  1  0  0  0
 52131  1  0  0  0
 52132  1  0  0  0
 53 54  1  0  0  0
 54 55  2  0  0  0
 54133  1  0  0  0
 55 57  1  0  0  0
 55134  1  0  0  0
 56 69  2  0  0  0
 57 58  2  0  0  0
 57135  1  0  0  0
 58136  1  0  0  0
 59 60  1  0  0  0
 59 61  1  0  0  0
 59 62  1  0  0  0
 60137  1  0  0  0
 60138  1  0  0  0
 60139  1  0  0  0
 61140  1  0  0  0
 61141  1  0  0  0
 61142  1  0  0  0
 62143  1  0  0  0
 62144  1  0  0  0
 62145  1  0  0  0
 63 65  1  0  0  0
 63146  1  0  0  0
 63147  1  0  0  0
 63148  1  0  0  0
 64149  1  0  0  0
 65150  1  0  0  0
 68 88  1  0  0  0
 71 72  1  0  0  0
 71 73  2  0  0  0
 71 77  1  0  0  0
 72 74  2  0  0  0
 72 82  1  0  0  0
 73 81  1  0  0  0
 73 89  1  0  0  0
 74 89  1  0  0  0
 74 78  1  0  0  0
 75 76  1  0  0  0
 75 78  1  0  0  0
 75151  1  0  0  0
 75152  1  0  0  0
 76 90  1  0  0  0
 76153  1  0  0  0
 76154  1  0  0  0
 77 80  1  0  0  0
 77 83  1  0  0  0
 77155  1  0  0  0
 78 79  1  0  0  0
 78156  1  0  0  0
 79 84  1  0  0  0
 79 90  1  0  0  0
 79157  1  0  0  0
 80 88  1  0  0  0
 80 91  1  0  0  0
 80158  1  0  0  0
 81 85  1  0  0  0
 81 86  1  0  0  0
 81 91  1  0  0  0
 82159  1  0  0  0
 82160  1  0  0  0
 82161  1  0  0  0
 83162  1  0  0  0
 83163  1  0  0  0
 83164  1  0  0  0
 84165  1  0  0  0
 84166  1  0  0  0
 84167  1  0  0  0
 85168  1  0  0  0
 85169  1  0  0  0
 85170  1  0  0  0
 86171  1  0  0  0
 86172  1  0  0  0
 86173  1  0  0  0
 87 89  1  0  0  0
 87174  1  0  0  0
 87175  1  0  0  0
 87176  1  0  0  0
 88177  1  0  0  0
 88178  1  0  0  0
M  ISO  4   1 100  68 101  88 101  90 100
M  END
> <chiral flag>
0

> <version>
0

> <s_m_source_file>
/data/baiqing/PycharmProjects/Reinvent-master-3.2/result/LINK_invent/BTK/process_docking_weight1_custom_sum_contain_oxygen_bond_distance_aromatic_linkinvent_7_9_3/rearranged_h_0164.sdf

> <i_m_source_file_index>
15

> <r_mmod_Potential_Energy-OPLS-2005>
297.512817382812

> <r_mmod_Stretch_Energy-OPLS-2005>
66.0942077636719

> <r_mmod_Bend_Energy-OPLS-2005>
205.438598632812

> <r_mmod_Torsional_Energy-OPLS-2005>
373.025268554688

> <r_mmod_Improper_Torsional_Energy-OPLS-2005>
19.1429443359375

> <r_mmod_Van_der_Waal_Energy-OPLS-2005>
124.135673522949

> <r_mmod_Electrostatic_Energy-OPLS-2005>
-337.200805664062

> <r_mmod_Solvation_Energy-OPLS-2005>
-194.778259277344

> <b_mmod_Minimization_Converged-OPLS-2005>
0

> <r_mmod_RMS_Derivative-OPLS-2005>
1.33716940879822

$$$$
15
                    3D
 Structure written by MMmdl.
163172  0  0  1  0            999 V2000
  -30.6528  -14.6494   20.4723 C   0  0  0  0  0  0
  -30.4250  -12.3923   19.4654 C   0  0  0  0  0  0
  -29.5040  -12.4967   18.2308 C   0  0  0  0  0  0
  -28.0285  -12.3374   18.6447 C   0  0  0  0  0  0
  -27.6479  -13.2253   19.8599 C   0  0  2  0  0  0
  -28.6930  -13.1232   20.9939 C   0  0  0  0  0  0
  -25.2529  -13.8194   20.5697 C   0  0  0  0  0  0
  -24.1808  -13.0441   20.9200 C   0  0  0  0  0  0
  -24.6392  -11.6919   20.8749 C   0  0  0  0  0  0
  -23.9071  -10.4294   21.0413 C   0  0  0  0  0  0
  -24.3620   -9.4207   21.9193 C   0  0  0  0  0  0
  -23.6292   -8.2244   22.0758 C   0  0  0  0  0  0
  -22.4277   -8.0280   21.3545 C   0  0  0  0  0  0
  -21.9916   -9.0256   20.4648 C   0  0  0  0  0  0
  -22.7243  -10.2135   20.3061 C   0  0  0  0  0  0
  -21.6850   -6.0737   22.5274 C   0  0  0  0  0  0
  -21.4011   -6.5641   23.8208 C   0  0  0  0  0  0
  -21.3661   -5.6792   24.9171 C   0  0  0  0  0  0
  -21.6043   -4.3055   24.7223 C   0  0  0  0  0  0
  -21.8820   -3.8146   23.4345 C   0  0  0  0  0  0
  -21.9192   -4.6964   22.3401 C   0  0  0  0  0  0
  -22.7830  -13.5226   21.1860 C   0  0  0  0  0  0
  -22.1661   -4.2150   21.0978 F   0  0  0  0  0  0
  -21.5634   -3.4539   25.7735 F   0  0  0  0  0  0
  -30.0056  -13.4418   20.4180 N   0  0  0  0  0  0
  -26.2964  -12.9395   20.3324 N   0  0  0  0  0  0
  -25.9325  -11.6539   20.5784 N   0  0  0  0  0  0
  -22.0480  -12.8211   22.0412 N   0  0  0  0  0  0
  -25.4213  -15.1917   20.4102 N   0  0  0  0  0  0
  -31.8299  -14.7496   20.1190 O   0  0  0  0  0  0
  -21.6636   -6.8880   21.4237 O   0  0  0  0  0  0
  -22.3515  -14.5533   20.6708 O   0  0  0  0  0  0
  -24.6282  -31.8594   23.2044 C   0  0  0  0  0  0
  -25.9127  -32.4768   23.8369 C   0  0  1  0  0  0
  -27.2137  -27.3042   20.1120 C   0  0  0  0  0  0
  -25.5942  -33.8570   24.2286 N   0  0  0  0  0  0
  -23.4215  -30.4856   21.5480 C   0  0  2  0  0  0
  -24.8656  -28.9459   20.1078 C   0  0  0  0  0  0
  -22.7478  -29.4622   22.4937 C   0  0  0  0  0  0
  -18.0281  -28.1386   22.8480 C   0  0  0  0  0  0
  -24.1480  -36.7280   23.2638 C   0  0  0  0  0  0
  -25.9663  -30.7822   21.3823 C   0  0  0  0  0  0
  -26.0368  -29.4121   20.7183 C   0  0  0  0  0  0
  -27.2132  -28.6020   20.7139 C   0  0  0  0  0  0
  -26.0214  -26.9071   19.4594 C   0  0  0  0  0  0
  -24.8610  -27.6990   19.4685 C   0  0  0  0  0  0
  -23.6355  -29.8272   20.1614 C   0  0  0  0  0  0
  -25.4107  -36.3074   24.0330 C   0  0  1  0  0  0
  -20.5881  -28.3688   23.1278 C   0  0  2  0  0  0
  -20.6772  -26.9412   22.5415 C   0  0  0  0  0  0
  -19.5755  -26.6386   21.5207 C   0  0  0  0  0  0
  -18.1925  -26.7940   22.1597 C   0  0  0  0  0  0
  -19.1534  -28.8857   23.2871 C   0  0  0  0  0  0
  -18.9459  -30.1457   23.8890 C   0  0  0  0  0  0
  -17.6464  -30.6593   24.0562 C   0  0  0  0  0  0
  -25.9058  -34.9445   23.5107 C   0  0  0  0  0  0
  -16.5353  -29.9090   23.6339 C   0  0  0  0  0  0
  -16.7271  -28.6502   23.0367 C   0  0  0  0  0  0
  -26.4512  -31.6594   25.0748 C   0  0  0  0  0  0
  -25.3744  -31.3726   26.1469 C   0  0  0  0  0  0
  -27.0377  -30.3016   24.6242 C   0  0  0  0  0  0
  -27.6073  -32.4344   25.7504 C   0  0  0  0  0  0
  -27.5598  -37.1768   24.8446 C   0  0  0  0  0  0
  -21.4192  -29.3036   22.3667 N   0  0  0  0  0  0
  -26.4275  -37.3786   23.9437 N   0  0  0  0  0  0
  -24.6907  -31.0596   22.1006 N   0  0  0  0  0  0
  -23.4195  -28.8156   23.3020 O   0  0  0  0  0  0
  -28.3110  -26.4229   20.1848 O   0  0  0  0  0  0
  -26.5618  -34.8915   22.4665 O   0  0  0  0  0  0
  -23.5441  -32.1403   23.7359 O   0  0  0  0  0  0
  -28.6116  -19.6537   22.8381 C   0  0  0  0  0  0
  -28.9954  -20.9662   20.7935 C   0  0  0  0  0  0
  -28.4989  -20.8599   22.1181 C   0  0  0  0  0  0
  -29.1774  -18.4880   22.2849 C   0  0  0  0  0  0
  -29.5454  -19.7468   20.2202 C   0  0  0  0  0  0
  -29.6322  -18.4840   20.9409 C   0  0  0  0  0  0
  -30.0229  -23.1627   19.6071 C   0  0  0  0  0  0
  -28.8325  -22.3208   20.0027 C   0  0  2  0  0  0
  -28.9826  -23.8271   20.4815 C   0  0  2  0  0  0
  -27.8106  -22.0221   22.8164 C   0  0  0  0  0  0
  -29.2992  -17.2741   23.1934 C   0  0  0  0  0  0
  -30.0517  -19.7806   18.7825 C   0  0  0  0  0  0
  -30.3013  -17.1867   20.3123 C   0  0  0  0  0  0
  -28.0498  -24.9774   19.9446 C   0  0  0  0  0  0
  -29.9002  -15.7770   20.6846 N   0  0  0  0  0  0
  -31.4696  -12.4919   19.1651 H   0  0  0  0  0  0
  -30.3404  -11.4074   19.9280 H   0  0  0  0  0  0
  -29.7690  -11.7362   17.4951 H   0  0  0  0  0  0
  -29.6474  -13.4615   17.7410 H   0  0  0  0  0  0
  -27.8704  -11.2874   18.8931 H   0  0  0  0  0  0
  -27.3721  -12.5510   17.8006 H   0  0  0  0  0  0
  -27.6555  -14.2535   19.4972 H   0  0  0  0  0  0
  -28.7030  -12.1194   21.4218 H   0  0  0  0  0  0
  -28.4459  -13.8005   21.8129 H   0  0  0  0  0  0
  -25.2763   -9.5678   22.4769 H   0  0  0  0  0  0
  -23.9995   -7.4639   22.7484 H   0  0  0  0  0  0
  -21.0846   -8.8776   19.8958 H   0  0  0  0  0  0
  -22.3701  -10.9675   19.6172 H   0  0  0  0  0  0
  -21.1999   -7.6151   23.9710 H   0  0  0  0  0  0
  -21.1487   -6.0523   25.9071 H   0  0  0  0  0  0
  -22.0600   -2.7605   23.2842 H   0  0  0  0  0  0
  -22.4095  -11.9861   22.4779 H   0  0  0  0  0  0
  -21.1101  -13.1241   22.2645 H   0  0  0  0  0  0
  -24.6509  -15.8421   20.5184 H   0  0  0  0  0  0
  -26.2674  -15.6355   20.0766 H   0  0  0  0  0  0
  -26.7188  -32.5425   23.1111 H   0  0  0  0  0  0
  -25.0114  -33.9718   25.0445 H   0  0  0  0  0  0
  -22.7159  -31.3068   21.4083 H   0  0  0  0  0  0
  -23.3775  -35.9576   23.3237 H   0  0  0  0  0  0
  -24.3589  -36.8975   22.2067 H   0  0  0  0  0  0
  -23.7175  -37.6435   23.6703 H   0  0  0  0  0  0
  -26.1095  -31.5479   20.6188 H   0  0  0  0  0  0
  -26.8426  -30.8215   22.0180 H   0  0  0  0  0  0
  -28.1076  -28.9496   21.2116 H   0  0  0  0  0  0
  -25.9466  -25.9623   18.9425 H   0  0  0  0  0  0
  -23.9653  -27.3405   18.9796 H   0  0  0  0  0  0
  -23.7548  -30.6065   19.4083 H   0  0  0  0  0  0
  -22.7540  -29.2600   19.8571 H   0  0  0  0  0  0
  -25.1274  -36.1921   25.0820 H   0  0  0  0  0  0
  -20.9965  -28.3272   24.1402 H   0  0  0  0  0  0
  -20.5659  -26.2300   23.3613 H   0  0  0  0  0  0
  -21.6644  -26.7441   22.1225 H   0  0  0  0  0  0
  -19.6922  -25.6291   21.1248 H   0  0  0  0  0  0
  -19.6718  -27.3183   20.6724 H   0  0  0  0  0  0
  -17.4211  -26.6703   21.3977 H   0  0  0  0  0  0
  -18.0301  -26.0069   22.8973 H   0  0  0  0  0  0
  -19.7935  -30.7263   24.2269 H   0  0  0  0  0  0
  -17.5020  -31.6271   24.5170 H   0  0  0  0  0  0
  -15.5353  -30.2994   23.7676 H   0  0  0  0  0  0
  -15.8661  -28.0825   22.7111 H   0  0  0  0  0  0
  -24.5973  -30.7000   25.7817 H   0  0  0  0  0  0
  -24.8863  -32.2874   26.4835 H   0  0  0  0  0  0
  -25.8083  -30.8980   27.0281 H   0  0  0  0  0  0
  -26.2970  -29.6724   24.1285 H   0  0  0  0  0  0
  -27.4086  -29.7312   25.4773 H   0  0  0  0  0  0
  -27.8833  -30.4305   23.9478 H   0  0  0  0  0  0
  -27.2714  -33.3679   26.2034 H   0  0  0  0  0  0
  -28.3895  -32.6850   25.0323 H   0  0  0  0  0  0
  -28.0723  -31.8496   26.5454 H   0  0  0  0  0  0
  -28.2539  -38.0147   24.7633 H   0  0  0  0  0  0
  -28.1178  -36.2689   24.6093 H   0  0  0  0  0  0
  -27.2344  -37.1200   25.8851 H   0  0  0  0  0  0
  -20.9370  -29.8766   21.6882 H   0  0  0  0  0  0
  -26.0154  -38.2837   24.1540 H   0  0  0  0  0  0
  -28.2490  -19.6231   23.8570 H   0  0  0  0  0  0
  -30.0843  -23.4838   18.5693 H   0  0  0  0  0  0
  -30.9782  -22.9373   20.0774 H   0  0  0  0  0  0
  -28.0849  -22.1556   19.2286 H   0  0  0  0  0  0
  -29.2802  -23.9777   21.5159 H   0  0  0  0  0  0
  -27.1547  -21.6681   23.6126 H   0  0  0  0  0  0
  -27.1870  -22.5960   22.1314 H   0  0  0  0  0  0
  -28.5474  -22.6849   23.2696 H   0  0  0  0  0  0
  -29.1152  -17.5335   24.2366 H   0  0  0  0  0  0
  -30.3024  -16.8496   23.1453 H   0  0  0  0  0  0
  -28.5743  -16.5086   22.9177 H   0  0  0  0  0  0
  -30.0071  -20.7662   18.3255 H   0  0  0  0  0  0
  -29.4540  -19.1182   18.1558 H   0  0  0  0  0  0
  -31.0915  -19.4559   18.7355 H   0  0  0  0  0  0
  -31.3728  -17.2905   20.4895 H   0  0  0  0  0  0
  -30.1865  -17.2231   19.2303 H   0  0  0  0  0  0
  -27.0798  -24.7373   20.3818 H   0  0  0  0  0  0
  -27.9413  -24.8348   18.8686 H   0  0  0  0  0  0
  -28.9329  -15.6341   20.9279 H   0  0  0  0  0  0
  1 25  1  0  0  0
  1 30  2  0  0  0
  1 85  1  0  0  0
  2  3  1  0  0  0
  2 25  1  0  0  0
  2 86  1  0  0  0
  2 87  1  0  0  0
  3  4  1  0  0  0
  3 88  1  0  0  0
  3 89  1  0  0  0
  4  5  1  0  0  0
  4 90  1  0  0  0
  4 91  1  0  0  0
  5  6  1  0  0  0
  5 26  1  0  0  0
  5 92  1  0  0  0
  6 25  1  0  0  0
  6 93  1  0  0  0
  6 94  1  0  0  0
  7  8  2  0  0  0
  7 26  1  0  0  0
  7 29  1  0  0  0
  8  9  1  0  0  0
  8 22  1  0  0  0
  9 10  1  0  0  0
  9 27  2  0  0  0
 10 11  2  0  0  0
 10 15  1  0  0  0
 11 12  1  0  0  0
 11 95  1  0  0  0
 12 13  2  0  0  0
 12 96  1  0  0  0
 13 14  1  0  0  0
 13 31  1  0  0  0
 14 15  2  0  0  0
 14 97  1  0  0  0
 15 98  1  0  0  0
 16 17  2  0  0  0
 16 21  1  0  0  0
 16 31  1  0  0  0
 17 18  1  0  0  0
 17 99  1  0  0  0
 18 19  2  0  0  0
 18100  1  0  0  0
 19 20  1  0  0  0
 19 24  1  0  0  0
 20 21  2  0  0  0
 20101  1  0  0  0
 21 23  1  0  0  0
 22 28  1  0  0  0
 22 32  2  0  0  0
 26 27  1  0  0  0
 28102  1  0  0  0
 28103  1  0  0  0
 29104  1  0  0  0
 29105  1  0  0  0
 33 34  1  0  0  0
 33 66  1  0  0  0
 33 70  2  0  0  0
 34 36  1  0  0  0
 34 59  1  0  0  0
 34106  1  0  0  0
 35 44  2  0  0  0
 35 45  1  0  0  0
 35 68  1  0  0  0
 36 56  1  0  0  0
 36107  1  0  0  0
 37 39  1  0  0  0
 37 47  1  0  0  0
 37 66  1  0  0  0
 37108  1  0  0  0
 38 43  2  0  0  0
 38 46  1  0  0  0
 38 47  1  0  0  0
 39 64  1  0  0  0
 39 67  2  0  0  0
 40 52  1  0  0  0
 40 53  2  0  0  0
 40 58  1  0  0  0
 41109  1  0  0  0
 41110  1  0  0  0
 41111  1  0  0  0
 41 48  1  0  0  0
 42 43  1  0  0  0
 42 66  1  0  0  0
 42112  1  0  0  0
 42113  1  0  0  0
 43 44  1  0  0  0
 44114  1  0  0  0
 45 46  2  0  0  0
 45115  1  0  0  0
 46116  1  0  0  0
 47117  1  0  0  0
 47118  1  0  0  0
 48 56  1  0  0  0
 48 65  1  0  0  0
 48119  1  0  0  0
 49 50  1  0  0  0
 49 53  1  0  0  0
 49 64  1  0  0  0
 49120  1  0  0  0
 50 51  1  0  0  0
 50121  1  0  0  0
 50122  1  0  0  0
 51 52  1  0  0  0
 51123  1  0  0  0
 51124  1  0  0  0
 52125  1  0  0  0
 52126  1  0  0  0
 53 54  1  0  0  0
 54 55  2  0  0  0
 54127  1  0  0  0
 55 57  1  0  0  0
 55128  1  0  0  0
 56 69  2  0  0  0
 57 58  2  0  0  0
 57129  1  0  0  0
 58130  1  0  0  0
 59 60  1  0  0  0
 59 61  1  0  0  0
 59 62  1  0  0  0
 60131  1  0  0  0
 60132  1  0  0  0
 60133  1  0  0  0
 61134  1  0  0  0
 61135  1  0  0  0
 61136  1  0  0  0
 62137  1  0  0  0
 62138  1  0  0  0
 62139  1  0  0  0
 63 65  1  0  0  0
 63140  1  0  0  0
 63141  1  0  0  0
 63142  1  0  0  0
 64143  1  0  0  0
 65144  1  0  0  0
 68 84  1  0  0  0
 71 73  2  0  0  0
 71 74  1  0  0  0
 71145  1  0  0  0
 72 73  1  0  0  0
 72 75  2  0  0  0
 72 78  1  0  0  0
 73 80  1  0  0  0
 74 76  2  0  0  0
 74 81  1  0  0  0
 75 76  1  0  0  0
 75 82  1  0  0  0
 76 83  1  0  0  0
 77 78  1  0  0  0
 77 79  1  0  0  0
 77146  1  0  0  0
 77147  1  0  0  0
 78 79  1  0  0  0
 78148  1  0  0  0
 79 84  1  0  0  0
 79149  1  0  0  0
 80150  1  0  0  0
 80151  1  0  0  0
 80152  1  0  0  0
 81153  1  0  0  0
 81154  1  0  0  0
 81155  1  0  0  0
 82156  1  0  0  0
 82157  1  0  0  0
 82158  1  0  0  0
 83 85  1  0  0  0
 83159  1  0  0  0
 83160  1  0  0  0
 84161  1  0  0  0
 84162  1  0  0  0
 85163  1  0  0  0
M  ISO  4   1 100  68 101  84 101  85 100
M  END
> <chiral flag>
0

> <version>
0

> <s_m_source_file>
/data/baiqing/PycharmProjects/Reinvent-master-3.2/result/LINK_invent/BTK/process_docking_weight1_custom_sum_contain_oxygen_bond_distance_aromatic_linkinvent_7_9_3/rearranged_h_0164.sdf

> <i_m_source_file_index>
16

> <r_mmod_Potential_Energy-OPLS-2005>
63.5120124816895

> <r_mmod_Stretch_Energy-OPLS-2005>
98.5996322631836

> <r_mmod_Bend_Energy-OPLS-2005>
142.229400634766

> <r_mmod_Torsional_Energy-OPLS-2005>
238.527450561523

> <r_mmod_Improper_Torsional_Energy-OPLS-2005>
6.60459804534912

> <r_mmod_Van_der_Waal_Energy-OPLS-2005>
155.359680175781

> <r_mmod_Electrostatic_Energy-OPLS-2005>
-432.480499267578

> <r_mmod_Solvation_Energy-OPLS-2005>
-203.094619750977

> <b_mmod_Minimization_Converged-OPLS-2005>
0

> <r_mmod_RMS_Derivative-OPLS-2005>
1.05849301815033

$$$$
16
                    3D
 Structure written by MMmdl.
175184  0  0  1  0            999 V2000
  -30.5929  -14.7803   20.4637 C   0  0  0  0  0  0
  -30.4399  -12.4851   19.4640 C   0  0  0  0  0  0
  -29.5096  -12.5065   18.2307 C   0  0  0  0  0  0
  -28.0365  -12.3256   18.6483 C   0  0  0  0  0  0
  -27.6360  -13.2335   19.8414 C   0  0  2  0  0  0
  -28.6835  -13.1817   20.9724 C   0  0  0  0  0  0
  -25.2485  -13.8194   20.5702 C   0  0  0  0  0  0
  -24.1788  -13.0430   20.9236 C   0  0  0  0  0  0
  -24.6395  -11.6916   20.8762 C   0  0  0  0  0  0
  -23.9080  -10.4293   21.0416 C   0  0  0  0  0  0
  -24.3628   -9.4206   21.9184 C   0  0  0  0  0  0
  -23.6303   -8.2241   22.0754 C   0  0  0  0  0  0
  -22.4284   -8.0283   21.3543 C   0  0  0  0  0  0
  -21.9921   -9.0262   20.4646 C   0  0  0  0  0  0
  -22.7258  -10.2139   20.3065 C   0  0  0  0  0  0
  -21.6854   -6.0745   22.5287 C   0  0  0  0  0  0
  -21.4012   -6.5645   23.8221 C   0  0  0  0  0  0
  -21.3655   -5.6796   24.9185 C   0  0  0  0  0  0
  -21.6046   -4.3065   24.7233 C   0  0  0  0  0  0
  -21.8819   -3.8159   23.4350 C   0  0  0  0  0  0
  -21.9190   -4.6972   22.3407 C   0  0  0  0  0  0
  -22.7808  -13.5200   21.1891 C   0  0  0  0  0  0
  -22.1661   -4.2160   21.0985 F   0  0  0  0  0  0
  -21.5628   -3.4544   25.7743 F   0  0  0  0  0  0
  -29.9766  -13.5495   20.3826 N   0  0  0  0  0  0
  -26.2912  -12.9406   20.3254 N   0  0  0  0  0  0
  -25.9320  -11.6549   20.5740 N   0  0  0  0  0  0
  -22.0462  -12.8182   22.0455 N   0  0  0  0  0  0
  -25.4112  -15.1923   20.4109 N   0  0  0  0  0  0
  -31.7990  -14.8539   20.2367 O   0  0  0  0  0  0
  -21.6639   -6.8887   21.4247 O   0  0  0  0  0  0
  -22.3478  -14.5497   20.6740 O   0  0  0  0  0  0
  -24.6340  -31.8527   23.1944 C   0  0  0  0  0  0
  -25.9153  -32.4738   23.8296 C   0  0  1  0  0  0
  -27.2198  -27.2344   20.1465 C   0  0  0  0  0  0
  -25.5941  -33.8538   24.2219 N   0  0  0  0  0  0
  -23.4303  -30.4735   21.5395 C   0  0  2  0  0  0
  -24.8777  -28.9071   20.1176 C   0  0  0  0  0  0
  -22.7510  -29.4594   22.4912 C   0  0  0  0  0  0
  -18.0300  -28.1387   22.8488 C   0  0  0  0  0  0
  -24.1488  -36.7269   23.2639 C   0  0  0  0  0  0
  -25.9766  -30.7584   21.3745 C   0  0  0  0  0  0
  -26.0513  -29.3752   20.7232 C   0  0  0  0  0  0
  -27.2280  -28.5543   20.7202 C   0  0  0  0  0  0
  -26.0222  -26.8309   19.5243 C   0  0  0  0  0  0
  -24.8686  -27.6429   19.5072 C   0  0  0  0  0  0
  -23.6500  -29.7996   20.1590 C   0  0  0  0  0  0
  -25.4115  -36.3047   24.0316 C   0  0  1  0  0  0
  -20.5900  -28.3702   23.1264 C   0  0  2  0  0  0
  -20.6787  -26.9419   22.5408 C   0  0  0  0  0  0
  -19.5761  -26.6384   21.5214 C   0  0  0  0  0  0
  -18.1939  -26.7932   22.1620 C   0  0  0  0  0  0
  -19.1552  -28.8861   23.2872 C   0  0  0  0  0  0
  -18.9470  -30.1463   23.8892 C   0  0  0  0  0  0
  -17.6468  -30.6591   24.0559 C   0  0  0  0  0  0
  -25.9063  -34.9426   23.5068 C   0  0  0  0  0  0
  -16.5361  -29.9081   23.6333 C   0  0  0  0  0  0
  -16.7289  -28.6494   23.0366 C   0  0  0  0  0  0
  -26.4515  -31.6569   25.0688 C   0  0  0  0  0  0
  -25.3726  -31.3727   26.1398 C   0  0  0  0  0  0
  -27.0366  -30.2986   24.6172 C   0  0  0  0  0  0
  -27.6058  -32.4316   25.7461 C   0  0  0  0  0  0
  -27.5569  -37.1780   24.8467 C   0  0  0  0  0  0
  -21.4220  -29.3039   22.3643 N   0  0  0  0  0  0
  -26.4281  -37.3753   23.9413 N   0  0  0  0  0  0
  -24.6994  -31.0474   22.0922 N   0  0  0  0  0  0
  -23.4194  -28.8145   23.3027 O   0  0  0  0  0  0
  -28.3221  -26.3439   20.1305 O   0  0  0  0  0  0
  -26.5634  -34.8914   22.4635 O   0  0  0  0  0  0
  -23.5487  -32.1365   23.7232 O   0  0  0  0  0  0
  -29.4786  -19.6411   19.3271 C   0  0  0  0  0  0
  -29.4700  -19.7917   17.9101 C   0  0  0  0  0  0
  -30.3002  -18.5044   19.7908 C   0  0  0  0  0  0
  -30.6191  -19.4587   17.1520 C   0  0  0  0  0  0
  -31.5349  -18.3171   19.1022 C   0  0  0  0  0  0
  -31.7083  -18.8234   17.7889 C   0  0  0  0  0  0
  -27.3463  -21.0923   20.2215 C   0  0  0  0  0  0
  -27.1090  -22.5746   20.6330 C   0  0  0  0  0  0
  -29.3554  -22.4049   19.9512 C   0  0  0  0  0  0
  -28.8727  -20.8676   20.2011 C   0  0  2  0  0  0
  -28.1508  -23.5006   19.9412 C   0  0  1  0  0  0
  -28.1942  -20.1848   17.1748 C   0  0  0  0  0  0
  -30.6941  -19.8150   15.6663 C   0  0  0  0  0  0
  -32.7168  -17.6276   19.7824 C   0  0  0  0  0  0
  -33.0096  -18.6133   17.0138 C   0  0  0  0  0  0
  -27.7232  -23.8166   18.4923 C   0  0  0  0  0  0
  -29.9440  -17.4186   20.9062 C   0  0  0  0  0  0
  -28.2227  -24.9532   20.7270 C   0  0  0  0  0  0
  -29.7813  -15.9047   20.6095 N   0  0  0  0  0  0
  -31.4748  -12.6365   19.1521 H   0  0  0  0  0  0
  -30.4155  -11.5137   19.9612 H   0  0  0  0  0  0
  -29.7963  -11.7255   17.5257 H   0  0  0  0  0  0
  -29.6252  -13.4546   17.7024 H   0  0  0  0  0  0
  -27.9002  -11.2781   18.9207 H   0  0  0  0  0  0
  -27.3776  -12.5066   17.7976 H   0  0  0  0  0  0
  -27.6206  -14.2496   19.4474 H   0  0  0  0  0  0
  -28.7320  -12.1850   21.4123 H   0  0  0  0  0  0
  -28.4148  -13.8592   21.7838 H   0  0  0  0  0  0
  -25.2772   -9.5676   22.4759 H   0  0  0  0  0  0
  -24.0016   -7.4621   22.7459 H   0  0  0  0  0  0
  -21.0863   -8.8788   19.8932 H   0  0  0  0  0  0
  -22.3726  -10.9682   19.6179 H   0  0  0  0  0  0
  -21.2005   -7.6149   23.9734 H   0  0  0  0  0  0
  -21.1472   -6.0523   25.9085 H   0  0  0  0  0  0
  -22.0597   -2.7621   23.2855 H   0  0  0  0  0  0
  -22.4087  -11.9852   22.4842 H   0  0  0  0  0  0
  -21.1067  -13.1187   22.2644 H   0  0  0  0  0  0
  -24.6333  -15.8352   20.5174 H   0  0  0  0  0  0
  -26.2412  -15.6396   20.0448 H   0  0  0  0  0  0
  -26.7206  -32.5384   23.1020 H   0  0  0  0  0  0
  -25.0105  -33.9666   25.0376 H   0  0  0  0  0  0
  -22.7286  -31.2969   21.3887 H   0  0  0  0  0  0
  -23.3751  -35.9600   23.3302 H   0  0  0  0  0  0
  -24.3587  -36.8908   22.2056 H   0  0  0  0  0  0
  -23.7251  -37.6471   23.6678 H   0  0  0  0  0  0
  -26.1140  -31.5129   20.5990 H   0  0  0  0  0  0
  -26.8551  -30.8136   22.0068 H   0  0  0  0  0  0
  -28.1300  -28.9125   21.1955 H   0  0  0  0  0  0
  -25.9681  -25.8629   19.0510 H   0  0  0  0  0  0
  -23.9686  -27.2761   19.0317 H   0  0  0  0  0  0
  -23.7775  -30.5723   19.3999 H   0  0  0  0  0  0
  -22.7664  -29.2349   19.8556 H   0  0  0  0  0  0
  -25.1296  -36.1878   25.0807 H   0  0  0  0  0  0
  -20.9999  -28.3286   24.1384 H   0  0  0  0  0  0
  -20.5692  -26.2314   23.3616 H   0  0  0  0  0  0
  -21.6652  -26.7447   22.1193 H   0  0  0  0  0  0
  -19.6930  -25.6293   21.1248 H   0  0  0  0  0  0
  -19.6701  -27.3190   20.6736 H   0  0  0  0  0  0
  -17.4213  -26.6700   21.4020 H   0  0  0  0  0  0
  -18.0332  -26.0069   22.9004 H   0  0  0  0  0  0
  -19.7950  -30.7282   24.2261 H   0  0  0  0  0  0
  -17.5024  -31.6283   24.5146 H   0  0  0  0  0  0
  -15.5358  -30.2977   23.7673 H   0  0  0  0  0  0
  -15.8691  -28.0812   22.7090 H   0  0  0  0  0  0
  -24.5930  -30.7042   25.7731 H   0  0  0  0  0  0
  -24.8867  -32.2892   26.4748 H   0  0  0  0  0  0
  -25.8013  -30.8970   27.0224 H   0  0  0  0  0  0
  -26.2949  -29.6721   24.1198 H   0  0  0  0  0  0
  -27.4077  -29.7253   25.4678 H   0  0  0  0  0  0
  -27.8808  -30.4275   23.9394 H   0  0  0  0  0  0
  -27.2681  -33.3653   26.1968 H   0  0  0  0  0  0
  -28.3892  -32.6818   25.0295 H   0  0  0  0  0  0
  -28.0695  -31.8486   26.5431 H   0  0  0  0  0  0
  -28.2571  -38.0092   24.7516 H   0  0  0  0  0  0
  -28.1075  -36.2612   24.6280 H   0  0  0  0  0  0
  -27.2285  -37.1416   25.8873 H   0  0  0  0  0  0
  -20.9409  -29.8747   21.6834 H   0  0  0  0  0  0
  -26.0152  -38.2819   24.1431 H   0  0  0  0  0  0
  -26.8940  -20.9723   19.2449 H   0  0  0  0  0  0
  -26.8442  -20.3892   20.8864 H   0  0  0  0  0  0
  -27.2474  -22.6420   21.7134 H   0  0  0  0  0  0
  -26.0814  -22.8884   20.4435 H   0  0  0  0  0  0
  -29.9300  -22.4681   19.0257 H   0  0  0  0  0  0
  -30.0709  -22.6656   20.7316 H   0  0  0  0  0  0
  -29.1539  -20.6318   21.2295 H   0  0  0  0  0  0
  -27.3275  -19.7137   17.6356 H   0  0  0  0  0  0
  -28.1761  -19.8099   16.1530 H   0  0  0  0  0  0
  -28.0467  -21.2520   17.1249 H   0  0  0  0  0  0
  -30.3496  -18.9775   15.0585 H   0  0  0  0  0  0
  -31.6998  -20.0768   15.3445 H   0  0  0  0  0  0
  -30.0866  -20.6867   15.4233 H   0  0  0  0  0  0
  -32.5254  -17.2938   20.7988 H   0  0  0  0  0  0
  -33.5530  -18.3236   19.8571 H   0  0  0  0  0  0
  -33.0558  -16.7657   19.2091 H   0  0  0  0  0  0
  -32.8119  -18.1033   16.0705 H   0  0  0  0  0  0
  -33.7634  -18.0219   17.5279 H   0  0  0  0  0  0
  -33.4669  -19.5774   16.7901 H   0  0  0  0  0  0
  -28.1774  -23.1540   17.7690 H   0  0  0  0  0  0
  -28.0475  -24.8093   18.1859 H   0  0  0  0  0  0
  -26.6425  -23.7749   18.3587 H   0  0  0  0  0  0
  -28.9825  -17.7318   21.3157 H   0  0  0  0  0  0
  -30.6240  -17.5301   21.7496 H   0  0  0  0  0  0
  -29.0662  -24.8840   21.4142 H   0  0  0  0  0  0
  -27.3626  -24.9960   21.3978 H   0  0  0  0  0  0
  -28.8118  -15.6306   20.6516 H   0  0  0  0  0  0
  1 25  1  0  0  0
  1 30  2  0  0  0
  1 89  1  0  0  0
  2  3  1  0  0  0
  2 25  1  0  0  0
  2 90  1  0  0  0
  2 91  1  0  0  0
  3  4  1  0  0  0
  3 92  1  0  0  0
  3 93  1  0  0  0
  4  5  1  0  0  0
  4 94  1  0  0  0
  4 95  1  0  0  0
  5  6  1  0  0  0
  5 26  1  0  0  0
  5 96  1  0  0  0
  6 25  1  0  0  0
  6 97  1  0  0  0
  6 98  1  0  0  0
  7  8  2  0  0  0
  7 26  1  0  0  0
  7 29  1  0  0  0
  8  9  1  0  0  0
  8 22  1  0  0  0
  9 10  1  0  0  0
  9 27  2  0  0  0
 10 11  2  0  0  0
 10 15  1  0  0  0
 11 12  1  0  0  0
 11 99  1  0  0  0
 12 13  2  0  0  0
 12100  1  0  0  0
 13 14  1  0  0  0
 13 31  1  0  0  0
 14 15  2  0  0  0
 14101  1  0  0  0
 15102  1  0  0  0
 16 17  2  0  0  0
 16 21  1  0  0  0
 16 31  1  0  0  0
 17 18  1  0  0  0
 17103  1  0  0  0
 18 19  2  0  0  0
 18104  1  0  0  0
 19 20  1  0  0  0
 19 24  1  0  0  0
 20 21  2  0  0  0
 20105  1  0  0  0
 21 23  1  0  0  0
 22 28  1  0  0  0
 22 32  2  0  0  0
 26 27  1  0  0  0
 28106  1  0  0  0
 28107  1  0  0  0
 29108  1  0  0  0
 29109  1  0  0  0
 33 34  1  0  0  0
 33 66  1  0  0  0
 33 70  2  0  0  0
 34 36  1  0  0  0
 34 59  1  0  0  0
 34110  1  0  0  0
 35 44  2  0  0  0
 35 45  1  0  0  0
 35 68  1  0  0  0
 36 56  1  0  0  0
 36111  1  0  0  0
 37 39  1  0  0  0
 37 47  1  0  0  0
 37 66  1  0  0  0
 37112  1  0  0  0
 38 43  2  0  0  0
 38 46  1  0  0  0
 38 47  1  0  0  0
 39 64  1  0  0  0
 39 67  2  0  0  0
 40 52  1  0  0  0
 40 53  2  0  0  0
 40 58  1  0  0  0
 41113  1  0  0  0
 41114  1  0  0  0
 41115  1  0  0  0
 41 48  1  0  0  0
 42 43  1  0  0  0
 42 66  1  0  0  0
 42116  1  0  0  0
 42117  1  0  0  0
 43 44  1  0  0  0
 44118  1  0  0  0
 45 46  2  0  0  0
 45119  1  0  0  0
 46120  1  0  0  0
 47121  1  0  0  0
 47122  1  0  0  0
 48 56  1  0  0  0
 48 65  1  0  0  0
 48123  1  0  0  0
 49 50  1  0  0  0
 49 53  1  0  0  0
 49 64  1  0  0  0
 49124  1  0  0  0
 50 51  1  0  0  0
 50125  1  0  0  0
 50126  1  0  0  0
 51 52  1  0  0  0
 51127  1  0  0  0
 51128  1  0  0  0
 52129  1  0  0  0
 52130  1  0  0  0
 53 54  1  0  0  0
 54 55  2  0  0  0
 54131  1  0  0  0
 55 57  1  0  0  0
 55132  1  0  0  0
 56 69  2  0  0  0
 57 58  2  0  0  0
 57133  1  0  0  0
 58134  1  0  0  0
 59 60  1  0  0  0
 59 61  1  0  0  0
 59 62  1  0  0  0
 60135  1  0  0  0
 60136  1  0  0  0
 60137  1  0  0  0
 61138  1  0  0  0
 61139  1  0  0  0
 61140  1  0  0  0
 62141  1  0  0  0
 62142  1  0  0  0
 62143  1  0  0  0
 63 65  1  0  0  0
 63144  1  0  0  0
 63145  1  0  0  0
 63146  1  0  0  0
 64147  1  0  0  0
 65148  1  0  0  0
 68 88  1  0  0  0
 71 72  2  0  0  0
 71 73  1  0  0  0
 71 80  1  0  0  0
 72 74  1  0  0  0
 72 82  1  0  0  0
 73 75  2  0  0  0
 73 87  1  0  0  0
 74 76  2  0  0  0
 74 83  1  0  0  0
 75 76  1  0  0  0
 75 84  1  0  0  0
 76 85  1  0  0  0
 77 78  1  0  0  0
 77 80  1  0  0  0
 77149  1  0  0  0
 77150  1  0  0  0
 78 81  1  0  0  0
 78151  1  0  0  0
 78152  1  0  0  0
 79 80  1  0  0  0
 79 81  1  0  0  0
 79153  1  0  0  0
 79154  1  0  0  0
 80155  1  0  0  0
 81 86  1  0  0  0
 81 88  1  0  0  0
 82156  1  0  0  0
 82157  1  0  0  0
 82158  1  0  0  0
 83159  1  0  0  0
 83160  1  0  0  0
 83161  1  0  0  0
 84162  1  0  0  0
 84163  1  0  0  0
 84164  1  0  0  0
 85165  1  0  0  0
 85166  1  0  0  0
 85167  1  0  0  0
 86168  1  0  0  0
 86169  1  0  0  0
 86170  1  0  0  0
 87 89  1  0  0  0
 87171  1  0  0  0
 87172  1  0  0  0
 88173  1  0  0  0
 88174  1  0  0  0
 89175  1  0  0  0
M  ISO  4   1 100  68 101  88 101  89 100
M  END
> <chiral flag>
0

> <version>
0

> <s_m_source_file>
/data/baiqing/PycharmProjects/Reinvent-master-3.2/result/LINK_invent/BTK/process_docking_weight1_custom_sum_contain_oxygen_bond_distance_aromatic_linkinvent_7_9_3/rearranged_h_0164.sdf

> <i_m_source_file_index>
17

> <r_mmod_Potential_Energy-OPLS-2005>
490.808715820312

> <r_mmod_Stretch_Energy-OPLS-2005>
168.145919799805

> <r_mmod_Bend_Energy-OPLS-2005>
263.006927490234

> <r_mmod_Torsional_Energy-OPLS-2005>
456.72412109375

> <r_mmod_Improper_Torsional_Energy-OPLS-2005>
7.20004463195801

> <r_mmod_Van_der_Waal_Energy-OPLS-2005>
156.031921386719

> <r_mmod_Electrostatic_Energy-OPLS-2005>
-458.498718261719

> <r_mmod_Solvation_Energy-OPLS-2005>
-202.3193359375

> <b_mmod_Minimization_Converged-OPLS-2005>
0

> <r_mmod_RMS_Derivative-OPLS-2005>
2.11874461174011

$$$$
17
                    3D
 Structure written by MMmdl.
164173  0  0  1  0            999 V2000
  -30.6275  -14.6195   20.5111 C   0  0  0  0  0  0
  -30.4407  -12.3812   19.4467 C   0  0  0  0  0  0
  -29.5106  -12.5113   18.2199 C   0  0  0  0  0  0
  -28.0307  -12.3560   18.6266 C   0  0  0  0  0  0
  -27.6563  -13.2141   19.8645 C   0  0  2  0  0  0
  -28.7010  -13.0505   20.9921 C   0  0  0  0  0  0
  -25.2579  -13.8167   20.5685 C   0  0  0  0  0  0
  -24.1846  -13.0441   20.9201 C   0  0  0  0  0  0
  -24.6408  -11.6909   20.8734 C   0  0  0  0  0  0
  -23.9070  -10.4291   21.0393 C   0  0  0  0  0  0
  -24.3619   -9.4210   21.9174 C   0  0  0  0  0  0
  -23.6292   -8.2250   22.0751 C   0  0  0  0  0  0
  -22.4276   -8.0277   21.3541 C   0  0  0  0  0  0
  -21.9908   -9.0250   20.4645 C   0  0  0  0  0  0
  -22.7236  -10.2130   20.3049 C   0  0  0  0  0  0
  -21.6855   -6.0729   22.5276 C   0  0  0  0  0  0
  -21.4017   -6.5636   23.8207 C   0  0  0  0  0  0
  -21.3664   -5.6792   24.9168 C   0  0  0  0  0  0
  -21.6042   -4.3054   24.7226 C   0  0  0  0  0  0
  -21.8822   -3.8145   23.4348 C   0  0  0  0  0  0
  -21.9197   -4.6958   22.3402 C   0  0  0  0  0  0
  -22.7868  -13.5239   21.1842 C   0  0  0  0  0  0
  -22.1662   -4.2149   21.0977 F   0  0  0  0  0  0
  -21.5630   -3.4536   25.7738 F   0  0  0  0  0  0
  -30.0195  -13.3938   20.4342 N   0  0  0  0  0  0
  -26.3006  -12.9344   20.3309 N   0  0  0  0  0  0
  -25.9336  -11.6502   20.5740 N   0  0  0  0  0  0
  -22.0494  -12.8245   22.0401 N   0  0  0  0  0  0
  -25.4289  -15.1891   20.4066 N   0  0  0  0  0  0
  -31.7905  -14.7784   20.1221 O   0  0  0  0  0  0
  -21.6635   -6.8872   21.4240 O   0  0  0  0  0  0
  -22.3558  -14.5536   20.6670 O   0  0  0  0  0  0
  -24.6263  -31.8606   23.2043 C   0  0  0  0  0  0
  -25.9114  -32.4782   23.8363 C   0  0  1  0  0  0
  -27.2214  -27.3263   20.1037 C   0  0  0  0  0  0
  -25.5938  -33.8584   24.2288 N   0  0  0  0  0  0
  -23.4187  -30.4882   21.5464 C   0  0  2  0  0  0
  -24.8628  -28.9474   20.1107 C   0  0  0  0  0  0
  -22.7467  -29.4642   22.4920 C   0  0  0  0  0  0
  -18.0288  -28.1382   22.8488 C   0  0  0  0  0  0
  -24.1490  -36.7301   23.2636 C   0  0  0  0  0  0
  -25.9613  -30.7938   21.3743 C   0  0  0  0  0  0
  -26.0343  -29.4228   20.7139 C   0  0  0  0  0  0
  -27.2168  -28.6243   20.7016 C   0  0  0  0  0  0
  -26.0228  -26.9051   19.4807 C   0  0  0  0  0  0
  -24.8594  -27.6934   19.4861 C   0  0  0  0  0  0
  -23.6315  -29.8269   20.1607 C   0  0  0  0  0  0
  -25.4114  -36.3082   24.0331 C   0  0  1  0  0  0
  -20.5889  -28.3696   23.1271 C   0  0  2  0  0  0
  -20.6784  -26.9415   22.5405 C   0  0  0  0  0  0
  -19.5758  -26.6382   21.5207 C   0  0  0  0  0  0
  -18.1935  -26.7930   22.1619 C   0  0  0  0  0  0
  -19.1539  -28.8850   23.2886 C   0  0  0  0  0  0
  -18.9462  -30.1448   23.8907 C   0  0  0  0  0  0
  -17.6460  -30.6583   24.0560 C   0  0  0  0  0  0
  -25.9049  -34.9452   23.5106 C   0  0  0  0  0  0
  -16.5351  -29.9077   23.6329 C   0  0  0  0  0  0
  -16.7273  -28.6492   23.0359 C   0  0  0  0  0  0
  -26.4504  -31.6590   25.0729 C   0  0  0  0  0  0
  -25.3744  -31.3715   26.1453 C   0  0  0  0  0  0
  -27.0350  -30.3019   24.6177 C   0  0  0  0  0  0
  -27.6060  -32.4323   25.7514 C   0  0  0  0  0  0
  -27.5581  -37.1803   24.8454 C   0  0  0  0  0  0
  -21.4177  -29.3063   22.3668 N   0  0  0  0  0  0
  -26.4290  -37.3782   23.9406 N   0  0  0  0  0  0
  -24.6878  -31.0637   22.0981 N   0  0  0  0  0  0
  -23.4192  -28.8174   23.2991 O   0  0  0  0  0  0
  -28.3414  -26.4780   20.1327 O   0  0  0  0  0  0
  -26.5606  -34.8917   22.4666 O   0  0  0  0  0  0
  -23.5427  -32.1385   23.7383 O   0  0  0  0  0  0
  -28.6581  -17.7975   20.8780 C   0  0  0  0  0  0
  -28.5688  -19.2182   20.7909 C   0  0  0  0  0  0
  -29.7548  -19.9745   20.5272 C   0  0  0  0  0  0
  -30.9401  -19.1814   20.4094 C   0  0  0  0  0  0
  -29.8763  -17.0939   20.7360 C   0  0  0  0  0  0
  -26.8386  -20.4904   22.3091 C   0  0  0  0  0  0
  -26.1555  -19.2184   21.8816 C   0  0  0  0  0  0
  -27.2147  -19.8466   20.9910 C   0  0  0  0  0  0
  -32.2898  -19.8381   20.1773 C   0  0  0  0  0  0
  -30.1383  -24.3486   21.4861 C   0  0  0  0  0  0
  -28.7920  -22.4531   20.3865 C   0  0  0  0  0  0
  -28.0856  -25.0185   20.1014 C   0  0  0  0  0  0
  -29.2701  -23.9727   20.2768 C   0  0  1  0  0  0
  -30.9964  -17.8203   20.5044 N   0  0  0  0  0  0
  -29.8593  -21.4074   20.3870 N   0  0  0  0  0  0
  -29.8097  -15.6487   20.8869 N   0  0  0  0  0  0
  -31.4828  -12.5053   19.1470 H   0  0  0  0  0  0
  -30.3729  -11.3807   19.8762 H   0  0  0  0  0  0
  -29.7735  -11.7651   17.4690 H   0  0  0  0  0  0
  -29.6616  -13.4838   17.7476 H   0  0  0  0  0  0
  -27.8556  -11.3011   18.8388 H   0  0  0  0  0  0
  -27.3815  -12.6062   17.7871 H   0  0  0  0  0  0
  -27.6782  -14.2527   19.5353 H   0  0  0  0  0  0
  -28.7099  -12.0220   21.3556 H   0  0  0  0  0  0
  -28.4488  -13.6656   21.8577 H   0  0  0  0  0  0
  -25.2761   -9.5695   22.4753 H   0  0  0  0  0  0
  -24.0000   -7.4648   22.7481 H   0  0  0  0  0  0
  -21.0835   -8.8758   19.8964 H   0  0  0  0  0  0
  -22.3676  -10.9663   19.6162 H   0  0  0  0  0  0
  -21.2002   -7.6141   23.9714 H   0  0  0  0  0  0
  -21.1485   -6.0514   25.9069 H   0  0  0  0  0  0
  -22.0601   -2.7613   23.2845 H   0  0  0  0  0  0
  -22.4072  -11.9904   22.4817 H   0  0  0  0  0  0
  -21.1108  -13.1283   22.2564 H   0  0  0  0  0  0
  -24.6550  -15.8373   20.5005 H   0  0  0  0  0  0
  -26.2552  -15.6201   20.0136 H   0  0  0  0  0  0
  -26.7183  -32.5446   23.1110 H   0  0  0  0  0  0
  -25.0106  -33.9741   25.0444 H   0  0  0  0  0  0
  -22.7135  -31.3099   21.4045 H   0  0  0  0  0  0
  -23.3753  -35.9632   23.3281 H   0  0  0  0  0  0
  -24.3583  -36.8937   22.2052 H   0  0  0  0  0  0
  -23.7249  -37.6502   23.6671 H   0  0  0  0  0  0
  -26.0908  -31.5587   20.6069 H   0  0  0  0  0  0
  -26.8427  -30.8410   22.0022 H   0  0  0  0  0  0
  -28.1154  -28.9865   21.1818 H   0  0  0  0  0  0
  -25.9449  -25.9554   18.9763 H   0  0  0  0  0  0
  -23.9632  -27.3245   19.0063 H   0  0  0  0  0  0
  -23.7454  -30.6027   19.4020 H   0  0  0  0  0  0
  -22.7522  -29.2534   19.8625 H   0  0  0  0  0  0
  -25.1298  -36.1932   25.0830 H   0  0  0  0  0  0
  -20.9992  -28.3274   24.1383 H   0  0  0  0  0  0
  -20.5677  -26.2307   23.3609 H   0  0  0  0  0  0
  -21.6659  -26.7440   22.1199 H   0  0  0  0  0  0
  -19.6920  -25.6288   21.1249 H   0  0  0  0  0  0
  -19.6703  -27.3187   20.6734 H   0  0  0  0  0  0
  -17.4211  -26.6678   21.4015 H   0  0  0  0  0  0
  -18.0327  -26.0064   22.9004 H   0  0  0  0  0  0
  -19.7935  -30.7262   24.2291 H   0  0  0  0  0  0
  -17.5013  -31.6274   24.5146 H   0  0  0  0  0  0
  -15.5353  -30.2983   23.7659 H   0  0  0  0  0  0
  -15.8672  -28.0813   22.7085 H   0  0  0  0  0  0
  -24.5924  -30.7063   25.7776 H   0  0  0  0  0  0
  -24.8931  -32.2873   26.4895 H   0  0  0  0  0  0
  -25.8073  -30.8878   27.0216 H   0  0  0  0  0  0
  -26.2921  -29.6766   24.1208 H   0  0  0  0  0  0
  -27.4055  -29.7285   25.4684 H   0  0  0  0  0  0
  -27.8791  -30.4312   23.9398 H   0  0  0  0  0  0
  -27.2665  -33.3613   26.2107 H   0  0  0  0  0  0
  -28.3878  -32.6895   25.0357 H   0  0  0  0  0  0
  -28.0718  -31.8430   26.5419 H   0  0  0  0  0  0
  -28.2580  -38.0115   24.7518 H   0  0  0  0  0  0
  -28.1096  -36.2649   24.6260 H   0  0  0  0  0  0
  -27.2295  -37.1426   25.8852 H   0  0  0  0  0  0
  -20.9330  -29.8798   21.6902 H   0  0  0  0  0  0
  -26.0161  -38.2853   24.1416 H   0  0  0  0  0  0
  -27.7566  -17.2316   21.0605 H   0  0  0  0  0  0
  -27.5666  -20.4294   23.1170 H   0  0  0  0  0  0
  -26.2464  -21.4035   22.2802 H   0  0  0  0  0  0
  -25.1173  -19.3018   21.5668 H   0  0  0  0  0  0
  -26.3932  -18.3291   22.4631 H   0  0  0  0  0  0
  -26.8624  -20.3058   20.0683 H   0  0  0  0  0  0
  -32.3093  -20.3429   19.2122 H   0  0  0  0  0  0
  -33.1006  -19.1086   20.1893 H   0  0  0  0  0  0
  -32.4924  -20.5715   20.9582 H   0  0  0  0  0  0
  -31.0354  -23.7313   21.5411 H   0  0  0  0  0  0
  -29.5884  -24.2249   22.4190 H   0  0  0  0  0  0
  -30.4638  -25.3880   21.4273 H   0  0  0  0  0  0
  -28.1046  -22.2456   19.5652 H   0  0  0  0  0  0
  -28.2156  -22.3646   21.3047 H   0  0  0  0  0  0
  -27.3339  -24.8021   20.8626 H   0  0  0  0  0  0
  -27.6362  -24.7624   19.1420 H   0  0  0  0  0  0
  -29.8946  -24.0581   19.3860 H   0  0  0  0  0  0
  -30.7964  -21.7664   20.2227 H   0  0  0  0  0  0
  -28.9156  -15.3157   21.2067 H   0  0  0  0  0  0
  1 25  1  0  0  0
  1 30  2  0  0  0
  1 86  1  0  0  0
  2  3  1  0  0  0
  2 25  1  0  0  0
  2 87  1  0  0  0
  2 88  1  0  0  0
  3  4  1  0  0  0
  3 89  1  0  0  0
  3 90  1  0  0  0
  4  5  1  0  0  0
  4 91  1  0  0  0
  4 92  1  0  0  0
  5  6  1  0  0  0
  5 26  1  0  0  0
  5 93  1  0  0  0
  6 25  1  0  0  0
  6 94  1  0  0  0
  6 95  1  0  0  0
  7  8  2  0  0  0
  7 26  1  0  0  0
  7 29  1  0  0  0
  8  9  1  0  0  0
  8 22  1  0  0  0
  9 10  1  0  0  0
  9 27  2  0  0  0
 10 11  2  0  0  0
 10 15  1  0  0  0
 11 12  1  0  0  0
 11 96  1  0  0  0
 12 13  2  0  0  0
 12 97  1  0  0  0
 13 14  1  0  0  0
 13 31  1  0  0  0
 14 15  2  0  0  0
 14 98  1  0  0  0
 15 99  1  0  0  0
 16 17  2  0  0  0
 16 21  1  0  0  0
 16 31  1  0  0  0
 17 18  1  0  0  0
 17100  1  0  0  0
 18 19  2  0  0  0
 18101  1  0  0  0
 19 20  1  0  0  0
 19 24  1  0  0  0
 20 21  2  0  0  0
 20102  1  0  0  0
 21 23  1  0  0  0
 22 28  1  0  0  0
 22 32  2  0  0  0
 26 27  1  0  0  0
 28103  1  0  0  0
 28104  1  0  0  0
 29105  1  0  0  0
 29106  1  0  0  0
 33 34  1  0  0  0
 33 66  1  0  0  0
 33 70  2  0  0  0
 34 36  1  0  0  0
 34 59  1  0  0  0
 34107  1  0  0  0
 35 44  2  0  0  0
 35 45  1  0  0  0
 35 68  1  0  0  0
 36 56  1  0  0  0
 36108  1  0  0  0
 37 39  1  0  0  0
 37 47  1  0  0  0
 37 66  1  0  0  0
 37109  1  0  0  0
 38 43  2  0  0  0
 38 46  1  0  0  0
 38 47  1  0  0  0
 39 64  1  0  0  0
 39 67  2  0  0  0
 40 52  1  0  0  0
 40 53  2  0  0  0
 40 58  1  0  0  0
 41110  1  0  0  0
 41111  1  0  0  0
 41112  1  0  0  0
 41 48  1  0  0  0
 42 43  1  0  0  0
 42 66  1  0  0  0
 42113  1  0  0  0
 42114  1  0  0  0
 43 44  1  0  0  0
 44115  1  0  0  0
 45 46  2  0  0  0
 45116  1  0  0  0
 46117  1  0  0  0
 47118  1  0  0  0
 47119  1  0  0  0
 48 56  1  0  0  0
 48 65  1  0  0  0
 48120  1  0  0  0
 49 50  1  0  0  0
 49 53  1  0  0  0
 49 64  1  0  0  0
 49121  1  0  0  0
 50 51  1  0  0  0
 50122  1  0  0  0
 50123  1  0  0  0
 51 52  1  0  0  0
 51124  1  0  0  0
 51125  1  0  0  0
 52126  1  0  0  0
 52127  1  0  0  0
 53 54  1  0  0  0
 54 55  2  0  0  0
 54128  1  0  0  0
 55 57  1  0  0  0
 55129  1  0  0  0
 56 69  2  0  0  0
 57 58  2  0  0  0
 57130  1  0  0  0
 58131  1  0  0  0
 59 60  1  0  0  0
 59 61  1  0  0  0
 59 62  1  0  0  0
 60132  1  0  0  0
 60133  1  0  0  0
 60134  1  0  0  0
 61135  1  0  0  0
 61136  1  0  0  0
 61137  1  0  0  0
 62138  1  0  0  0
 62139  1  0  0  0
 62140  1  0  0  0
 63 65  1  0  0  0
 63141  1  0  0  0
 63142  1  0  0  0
 63143  1  0  0  0
 64144  1  0  0  0
 65145  1  0  0  0
 68 82  1  0  0  0
 71 72  2  0  0  0
 71 75  1  0  0  0
 71146  1  0  0  0
 72 73  1  0  0  0
 72 78  1  0  0  0
 73 74  2  0  0  0
 73 85  1  0  0  0
 74 79  1  0  0  0
 74 84  1  0  0  0
 75 84  2  0  0  0
 75 86  1  0  0  0
 76 77  1  0  0  0
 76 78  1  0  0  0
 76147  1  0  0  0
 76148  1  0  0  0
 77 78  1  0  0  0
 77149  1  0  0  0
 77150  1  0  0  0
 78151  1  0  0  0
 79152  1  0  0  0
 79153  1  0  0  0
 79154  1  0  0  0
 80155  1  0  0  0
 80156  1  0  0  0
 80157  1  0  0  0
 80 83  1  0  0  0
 81 83  1  0  0  0
 81 85  1  0  0  0
 81158  1  0  0  0
 81159  1  0  0  0
 82 83  1  0  0  0
 82160  1  0  0  0
 82161  1  0  0  0
 83162  1  0  0  0
 85163  1  0  0  0
 86164  1  0  0  0
M  ISO  4   1 100  68 101  82 101  86 100
M  END
> <chiral flag>
0

> <version>
0

> <s_m_source_file>
/data/baiqing/PycharmProjects/Reinvent-master-3.2/result/LINK_invent/BTK/process_docking_weight1_custom_sum_contain_oxygen_bond_distance_aromatic_linkinvent_7_9_3/rearranged_h_0164.sdf

> <i_m_source_file_index>
18

> <r_mmod_Potential_Energy-OPLS-2005>
-55.7360343933105

> <r_mmod_Stretch_Energy-OPLS-2005>
76.4406967163086

> <r_mmod_Bend_Energy-OPLS-2005>
160.26823425293

> <r_mmod_Torsional_Energy-OPLS-2005>
235.85026550293

> <r_mmod_Improper_Torsional_Energy-OPLS-2005>
4.29675674438477

> <r_mmod_Van_der_Waal_Energy-OPLS-2005>
148.848754882812

> <r_mmod_Electrostatic_Energy-OPLS-2005>
-490.574157714844

> <r_mmod_Solvation_Energy-OPLS-2005>
-233.69743347168

> <b_mmod_Minimization_Converged-OPLS-2005>
0

> <r_mmod_RMS_Derivative-OPLS-2005>
1.78531360626221

$$$$
18
                    3D
 Structure written by MMmdl.
166174  0  0  1  0            999 V2000
  -30.6998  -14.5479   20.5049 C   0  0  0  0  0  0
  -30.4232  -12.3286   19.4651 C   0  0  0  0  0  0
  -29.5156  -12.5056   18.2306 C   0  0  0  0  0  0
  -28.0352  -12.3658   18.6292 C   0  0  0  0  0  0
  -27.6648  -13.2215   19.8720 C   0  0  2  0  0  0
  -28.7030  -13.0595   21.0079 C   0  0  0  0  0  0
  -25.2634  -13.8174   20.5695 C   0  0  0  0  0  0
  -24.1901  -13.0440   20.9171 C   0  0  0  0  0  0
  -24.6459  -11.6905   20.8712 C   0  0  0  0  0  0
  -23.9097  -10.4297   21.0393 C   0  0  0  0  0  0
  -24.3642   -9.4221   21.9187 C   0  0  0  0  0  0
  -23.6313   -8.2259   22.0766 C   0  0  0  0  0  0
  -22.4296   -8.0292   21.3557 C   0  0  0  0  0  0
  -21.9923   -9.0249   20.4654 C   0  0  0  0  0  0
  -22.7248  -10.2132   20.3053 C   0  0  0  0  0  0
  -21.6860   -6.0748   22.5300 C   0  0  0  0  0  0
  -21.4018   -6.5650   23.8231 C   0  0  0  0  0  0
  -21.3667   -5.6800   24.9193 C   0  0  0  0  0  0
  -21.6043   -4.3061   24.7238 C   0  0  0  0  0  0
  -21.8829   -3.8160   23.4356 C   0  0  0  0  0  0
  -21.9202   -4.6979   22.3420 C   0  0  0  0  0  0
  -22.7924  -13.5245   21.1842 C   0  0  0  0  0  0
  -22.1674   -4.2179   21.0987 F   0  0  0  0  0  0
  -21.5619   -3.4538   25.7742 F   0  0  0  0  0  0
  -30.0367  -13.3517   20.4601 N   0  0  0  0  0  0
  -26.3070  -12.9373   20.3340 N   0  0  0  0  0  0
  -25.9391  -11.6517   20.5722 N   0  0  0  0  0  0
  -22.0534  -12.8239   22.0374 N   0  0  0  0  0  0
  -25.4362  -15.1891   20.4129 N   0  0  0  0  0  0
  -31.8162  -14.6636   20.0055 O   0  0  0  0  0  0
  -21.6651   -6.8897   21.4260 O   0  0  0  0  0  0
  -22.3632  -14.5563   20.6697 O   0  0  0  0  0  0
  -24.6201  -31.8658   23.2111 C   0  0  0  0  0  0
  -25.9082  -32.4815   23.8406 C   0  0  1  0  0  0
  -27.2107  -27.3653   20.0952 C   0  0  0  0  0  0
  -25.5929  -33.8612   24.2325 N   0  0  0  0  0  0
  -23.4075  -30.4932   21.5557 C   0  0  2  0  0  0
  -24.8471  -28.9588   20.1094 C   0  0  0  0  0  0
  -22.7429  -29.4662   22.5008 C   0  0  0  0  0  0
  -18.0274  -28.1357   22.8495 C   0  0  0  0  0  0
  -24.1487  -36.7311   23.2639 C   0  0  0  0  0  0
  -25.9443  -30.8075   21.3763 C   0  0  0  0  0  0
  -26.0143  -29.4401   20.7159 C   0  0  0  0  0  0
  -27.1955  -28.6493   20.7102 C   0  0  0  0  0  0
  -26.0261  -26.9383   19.4481 C   0  0  0  0  0  0
  -24.8522  -27.7101   19.4730 C   0  0  0  0  0  0
  -23.6135  -29.8342   20.1673 C   0  0  0  0  0  0
  -25.4109  -36.3103   24.0337 C   0  0  1  0  0  0
  -20.5864  -28.3649   23.1314 C   0  0  2  0  0  0
  -20.6763  -26.9387   22.5416 C   0  0  0  0  0  0
  -19.5740  -26.6369   21.5213 C   0  0  0  0  0  0
  -18.1914  -26.7910   22.1625 C   0  0  0  0  0  0
  -19.1525  -28.8821   23.2896 C   0  0  0  0  0  0
  -18.9463  -30.1429   23.8904 C   0  0  0  0  0  0
  -17.6465  -30.6576   24.0550 C   0  0  0  0  0  0
  -25.9047  -34.9475   23.5126 C   0  0  0  0  0  0
  -16.5350  -29.9066   23.6333 C   0  0  0  0  0  0
  -16.7261  -28.6475   23.0366 C   0  0  0  0  0  0
  -26.4476  -31.6606   25.0762 C   0  0  0  0  0  0
  -25.3734  -31.3730   26.1511 C   0  0  0  0  0  0
  -27.0313  -30.3040   24.6178 C   0  0  0  0  0  0
  -27.6045  -32.4339   25.7525 C   0  0  0  0  0  0
  -27.5580  -37.1807   24.8463 C   0  0  0  0  0  0
  -21.4155  -29.3026   22.3724 N   0  0  0  0  0  0
  -26.4290  -37.3795   23.9417 N   0  0  0  0  0  0
  -24.6763  -31.0706   22.1048 N   0  0  0  0  0  0
  -23.4180  -28.8212   23.3073 O   0  0  0  0  0  0
  -28.3455  -26.5550   20.1465 O   0  0  0  0  0  0
  -26.5599  -34.8917   22.4680 O   0  0  0  0  0  0
  -23.5389  -32.1459   23.7467 O   0  0  0  0  0  0
  -32.4717  -19.7173   21.0153 C   0  0  0  0  0  0
  -31.9392  -18.4345   20.7893 C   0  0  0  0  0  0
  -31.6159  -20.8208   21.1508 C   0  0  0  0  0  0
  -30.5321  -18.2737   20.6868 C   0  0  0  0  0  0
  -30.2297  -20.6055   21.0576 C   0  0  0  0  0  0
  -32.9256  -17.3032   20.6116 C   0  0  0  0  0  0
  -32.2151  -22.1985   21.3983 C   0  0  0  0  0  0
  -29.8520  -16.8330   18.6856 C   0  0  0  0  0  0
  -28.7899  -24.3608   22.2273 C   0  0  0  0  0  0
  -28.9749  -22.6409   20.2946 C   0  0  0  0  0  0
  -28.1940  -25.1199   19.8883 C   0  0  0  0  0  0
  -29.8234  -16.9554   20.2222 C   0  0  2  0  0  0
  -29.0997  -24.1584   20.7312 C   0  0  1  0  0  0
  -29.7152  -19.3682   20.8160 N   0  0  0  0  0  0
  -29.3354  -21.6574   21.3354 N   0  0  0  0  0  0
  -29.9949  -15.6326   20.9156 N   0  0  0  0  0  0
  -31.4713  -12.4001   19.1713 H   0  0  0  0  0  0
  -30.3031  -11.3292   19.8854 H   0  0  0  0  0  0
  -29.7716  -11.7678   17.4694 H   0  0  0  0  0  0
  -29.6947  -13.4837   17.7816 H   0  0  0  0  0  0
  -27.8517  -11.3115   18.8362 H   0  0  0  0  0  0
  -27.3959  -12.6261   17.7849 H   0  0  0  0  0  0
  -27.6900  -14.2622   19.5499 H   0  0  0  0  0  0
  -28.6827  -12.0403   21.3976 H   0  0  0  0  0  0
  -28.4588  -13.7073   21.8498 H   0  0  0  0  0  0
  -25.2791   -9.5721   22.4756 H   0  0  0  0  0  0
  -24.0032   -7.4675   22.7512 H   0  0  0  0  0  0
  -21.0841   -8.8755   19.8975 H   0  0  0  0  0  0
  -22.3693  -10.9660   19.6163 H   0  0  0  0  0  0
  -21.2000   -7.6157   23.9746 H   0  0  0  0  0  0
  -21.1478   -6.0524   25.9100 H   0  0  0  0  0  0
  -22.0599   -2.7618   23.2845 H   0  0  0  0  0  0
  -22.4079  -11.9834   22.4689 H   0  0  0  0  0  0
  -21.1190  -13.1354   22.2610 H   0  0  0  0  0  0
  -24.6630  -15.8406   20.5032 H   0  0  0  0  0  0
  -26.2912  -15.6259   20.0931 H   0  0  0  0  0  0
  -26.7150  -32.5484   23.1152 H   0  0  0  0  0  0
  -25.0084  -33.9777   25.0471 H   0  0  0  0  0  0
  -22.6976  -31.3131   21.4237 H   0  0  0  0  0  0
  -23.3756  -35.9640   23.3303 H   0  0  0  0  0  0
  -24.3582  -36.8929   22.2057 H   0  0  0  0  0  0
  -23.7230  -37.6510   23.6653 H   0  0  0  0  0  0
  -26.0707  -31.5773   20.6139 H   0  0  0  0  0  0
  -26.8253  -30.8523   22.0038 H   0  0  0  0  0  0
  -28.0866  -29.0069   21.2045 H   0  0  0  0  0  0
  -25.9747  -26.0033   18.9110 H   0  0  0  0  0  0
  -23.9589  -27.3387   18.9897 H   0  0  0  0  0  0
  -23.7165  -30.6155   19.4138 H   0  0  0  0  0  0
  -22.7313  -29.2623   19.8726 H   0  0  0  0  0  0
  -25.1283  -36.1968   25.0835 H   0  0  0  0  0  0
  -20.9944  -28.3204   24.1439 H   0  0  0  0  0  0
  -20.5658  -26.2262   23.3605 H   0  0  0  0  0  0
  -21.6628  -26.7418   22.1211 H   0  0  0  0  0  0
  -19.6897  -25.6282   21.1235 H   0  0  0  0  0  0
  -19.6671  -27.3180   20.6747 H   0  0  0  0  0  0
  -17.4187  -26.6668   21.4021 H   0  0  0  0  0  0
  -18.0300  -26.0034   22.9008 H   0  0  0  0  0  0
  -19.7940  -30.7230   24.2271 H   0  0  0  0  0  0
  -17.5026  -31.6258   24.5134 H   0  0  0  0  0  0
  -15.5350  -30.2964   23.7657 H   0  0  0  0  0  0
  -15.8667  -28.0780   22.7104 H   0  0  0  0  0  0
  -24.5902  -30.7072   25.7859 H   0  0  0  0  0  0
  -24.8929  -32.2893   26.4956 H   0  0  0  0  0  0
  -25.8089  -30.8910   27.0274 H   0  0  0  0  0  0
  -26.2876  -29.6814   24.1191 H   0  0  0  0  0  0
  -27.4016  -29.7266   25.4658 H   0  0  0  0  0  0
  -27.8743  -30.4348   23.9391 H   0  0  0  0  0  0
  -27.2654  -33.3638   26.2097 H   0  0  0  0  0  0
  -28.3849  -32.6902   25.0351 H   0  0  0  0  0  0
  -28.0710  -31.8475   26.5446 H   0  0  0  0  0  0
  -28.2591  -38.0109   24.7520 H   0  0  0  0  0  0
  -28.1081  -36.2645   24.6272 H   0  0  0  0  0  0
  -27.2305  -37.1434   25.8865 H   0  0  0  0  0  0
  -20.9316  -29.8764   21.6966 H   0  0  0  0  0  0
  -26.0184  -38.2878   24.1409 H   0  0  0  0  0  0
  -33.5416  -19.8608   21.0741 H   0  0  0  0  0  0
  -32.7458  -16.5251   21.3500 H   0  0  0  0  0  0
  -33.9547  -17.6377   20.7482 H   0  0  0  0  0  0
  -32.8564  -16.8930   19.6056 H   0  0  0  0  0  0
  -33.3011  -22.1500   21.4870 H   0  0  0  0  0  0
  -31.8276  -22.6378   22.3173 H   0  0  0  0  0  0
  -31.9870  -22.8683   20.5687 H   0  0  0  0  0  0
  -30.8652  -16.6856   18.3145 H   0  0  0  0  0  0
  -29.4602  -17.7389   18.2207 H   0  0  0  0  0  0
  -29.2412  -16.0011   18.3364 H   0  0  0  0  0  0
  -28.8431  -25.4156   22.4968 H   0  0  0  0  0  0
  -29.5020  -23.8436   22.8693 H   0  0  0  0  0  0
  -27.7876  -24.0089   22.4762 H   0  0  0  0  0  0
  -29.5669  -22.4622   19.3951 H   0  0  0  0  0  0
  -27.9403  -22.4341   20.0157 H   0  0  0  0  0  0
  -27.1787  -24.7832   20.0992 H   0  0  0  0  0  0
  -28.3580  -24.9427   18.8237 H   0  0  0  0  0  0
  -28.7729  -17.1513   20.4454 H   0  0  0  0  0  0
  -30.1342  -24.4644   20.5683 H   0  0  0  0  0  0
  -29.6233  -22.1556   22.1684 H   0  0  0  0  0  0
  -29.2025  -15.3925   21.4904 H   0  0  0  0  0  0
  1 25  1  0  0  0
  1 30  2  0  0  0
  1 86  1  0  0  0
  2  3  1  0  0  0
  2 25  1  0  0  0
  2 87  1  0  0  0
  2 88  1  0  0  0
  3  4  1  0  0  0
  3 89  1  0  0  0
  3 90  1  0  0  0
  4  5  1  0  0  0
  4 91  1  0  0  0
  4 92  1  0  0  0
  5  6  1  0  0  0
  5 26  1  0  0  0
  5 93  1  0  0  0
  6 25  1  0  0  0
  6 94  1  0  0  0
  6 95  1  0  0  0
  7  8  2  0  0  0
  7 26  1  0  0  0
  7 29  1  0  0  0
  8  9  1  0  0  0
  8 22  1  0  0  0
  9 10  1  0  0  0
  9 27  2  0  0  0
 10 11  2  0  0  0
 10 15  1  0  0  0
 11 12  1  0  0  0
 11 96  1  0  0  0
 12 13  2  0  0  0
 12 97  1  0  0  0
 13 14  1  0  0  0
 13 31  1  0  0  0
 14 15  2  0  0  0
 14 98  1  0  0  0
 15 99  1  0  0  0
 16 17  2  0  0  0
 16 21  1  0  0  0
 16 31  1  0  0  0
 17 18  1  0  0  0
 17100  1  0  0  0
 18 19  2  0  0  0
 18101  1  0  0  0
 19 20  1  0  0  0
 19 24  1  0  0  0
 20 21  2  0  0  0
 20102  1  0  0  0
 21 23  1  0  0  0
 22 28  1  0  0  0
 22 32  2  0  0  0
 26 27  1  0  0  0
 28103  1  0  0  0
 28104  1  0  0  0
 29105  1  0  0  0
 29106  1  0  0  0
 33 34  1  0  0  0
 33 66  1  0  0  0
 33 70  2  0  0  0
 34 36  1  0  0  0
 34 59  1  0  0  0
 34107  1  0  0  0
 35 44  2  0  0  0
 35 45  1  0  0  0
 35 68  1  0  0  0
 36 56  1  0  0  0
 36108  1  0  0  0
 37 39  1  0  0  0
 37 47  1  0  0  0
 37 66  1  0  0  0
 37109  1  0  0  0
 38 43  2  0  0  0
 38 46  1  0  0  0
 38 47  1  0  0  0
 39 64  1  0  0  0
 39 67  2  0  0  0
 40 52  1  0  0  0
 40 53  2  0  0  0
 40 58  1  0  0  0
 41110  1  0  0  0
 41111  1  0  0  0
 41112  1  0  0  0
 41 48  1  0  0  0
 42 43  1  0  0  0
 42 66  1  0  0  0
 42113  1  0  0  0
 42114  1  0  0  0
 43 44  1  0  0  0
 44115  1  0  0  0
 45 46  2  0  0  0
 45116  1  0  0  0
 46117  1  0  0  0
 47118  1  0  0  0
 47119  1  0  0  0
 48 56  1  0  0  0
 48 65  1  0  0  0
 48120  1  0  0  0
 49 50  1  0  0  0
 49 53  1  0  0  0
 49 64  1  0  0  0
 49121  1  0  0  0
 50 51  1  0  0  0
 50122  1  0  0  0
 50123  1  0  0  0
 51 52  1  0  0  0
 51124  1  0  0  0
 51125  1  0  0  0
 52126  1  0  0  0
 52127  1  0  0  0
 53 54  1  0  0  0
 54 55  2  0  0  0
 54128  1  0  0  0
 55 57  1  0  0  0
 55129  1  0  0  0
 56 69  2  0  0  0
 57 58  2  0  0  0
 57130  1  0  0  0
 58131  1  0  0  0
 59 60  1  0  0  0
 59 61  1  0  0  0
 59 62  1  0  0  0
 60132  1  0  0  0
 60133  1  0  0  0
 60134  1  0  0  0
 61135  1  0  0  0
 61136  1  0  0  0
 61137  1  0  0  0
 62138  1  0  0  0
 62139  1  0  0  0
 62140  1  0  0  0
 63 65  1  0  0  0
 63141  1  0  0  0
 63142  1  0  0  0
 63143  1  0  0  0
 64144  1  0  0  0
 65145  1  0  0  0
 68 81  1  0  0  0
 71 72  2  0  0  0
 71 73  1  0  0  0
 71146  1  0  0  0
 72 74  1  0  0  0
 72 76  1  0  0  0
 73 75  2  0  0  0
 73 77  1  0  0  0
 74 82  1  0  0  0
 74 84  2  0  0  0
 75 84  1  0  0  0
 75 85  1  0  0  0
 76147  1  0  0  0
 76148  1  0  0  0
 76149  1  0  0  0
 77150  1  0  0  0
 77151  1  0  0  0
 77152  1  0  0  0
 78153  1  0  0  0
 78154  1  0  0  0
 78155  1  0  0  0
 78 82  1  0  0  0
 79156  1  0  0  0
 79157  1  0  0  0
 79158  1  0  0  0
 79 83  1  0  0  0
 80 83  1  0  0  0
 80 85  1  0  0  0
 80159  1  0  0  0
 80160  1  0  0  0
 81 83  1  0  0  0
 81161  1  0  0  0
 81162  1  0  0  0
 82 86  1  0  0  0
 82163  1  0  0  0
 83164  1  0  0  0
 85165  1  0  0  0
 86166  1  0  0  0
M  ISO  4   1 100  68 101  81 101  86 100
M  END
> <chiral flag>
0

> <version>
0

> <s_m_source_file>
/data/baiqing/PycharmProjects/Reinvent-master-3.2/result/LINK_invent/BTK/process_docking_weight1_custom_sum_contain_oxygen_bond_distance_aromatic_linkinvent_7_9_3/rearranged_h_0164.sdf

> <i_m_source_file_index>
19

> <r_mmod_Potential_Energy-OPLS-2005>
-307.957061767578

> <r_mmod_Stretch_Energy-OPLS-2005>
59.4412879943848

> <r_mmod_Bend_Energy-OPLS-2005>
143.067153930664

> <r_mmod_Torsional_Energy-OPLS-2005>
253.862945556641

> <r_mmod_Improper_Torsional_Energy-OPLS-2005>
13.5209035873413

> <r_mmod_Van_der_Waal_Energy-OPLS-2005>
155.413269042969

> <r_mmod_Electrostatic_Energy-OPLS-2005>
-731.324340820312

> <r_mmod_Solvation_Energy-OPLS-2005>
-231.010787963867

> <b_mmod_Minimization_Converged-OPLS-2005>
0

> <r_mmod_RMS_Derivative-OPLS-2005>
2.63698101043701

$$$$
19
                    3D
 Structure written by MMmdl.
179189  0  0  1  0            999 V2000
  -30.6831  -14.6145   20.4868 C   0  0  0  0  0  0
  -30.4195  -12.3753   19.4565 C   0  0  0  0  0  0
  -29.4987  -12.4942   18.2241 C   0  0  0  0  0  0
  -28.0231  -12.3422   18.6397 C   0  0  0  0  0  0
  -27.6484  -13.2261   19.8603 C   0  0  2  0  0  0
  -28.6968  -13.1123   20.9905 C   0  0  0  0  0  0
  -25.2536  -13.8204   20.5694 C   0  0  0  0  0  0
  -24.1813  -13.0444   20.9200 C   0  0  0  0  0  0
  -24.6397  -11.6923   20.8754 C   0  0  0  0  0  0
  -23.9074  -10.4295   21.0406 C   0  0  0  0  0  0
  -24.3623   -9.4204   21.9180 C   0  0  0  0  0  0
  -23.6293   -8.2241   22.0749 C   0  0  0  0  0  0
  -22.4276   -8.0282   21.3543 C   0  0  0  0  0  0
  -21.9918   -9.0253   20.4642 C   0  0  0  0  0  0
  -22.7248  -10.2132   20.3051 C   0  0  0  0  0  0
  -21.6854   -6.0734   22.5272 C   0  0  0  0  0  0
  -21.4013   -6.5638   23.8204 C   0  0  0  0  0  0
  -21.3665   -5.6793   24.9170 C   0  0  0  0  0  0
  -21.6042   -4.3053   24.7220 C   0  0  0  0  0  0
  -21.8824   -3.8146   23.4342 C   0  0  0  0  0  0
  -21.9190   -4.6963   22.3398 C   0  0  0  0  0  0
  -22.7832  -13.5220   21.1862 C   0  0  0  0  0  0
  -22.1659   -4.2150   21.0975 F   0  0  0  0  0  0
  -21.5634   -3.4537   25.7733 F   0  0  0  0  0  0
  -30.0097  -13.4251   20.4113 N   0  0  0  0  0  0
  -26.2968  -12.9397   20.3336 N   0  0  0  0  0  0
  -25.9326  -11.6537   20.5788 N   0  0  0  0  0  0
  -22.0487  -12.8196   22.0419 N   0  0  0  0  0  0
  -25.4231  -15.1916   20.4076 N   0  0  0  0  0  0
  -31.8636  -14.6944   20.1420 O   0  0  0  0  0  0
  -21.6638   -6.8880   21.4236 O   0  0  0  0  0  0
  -22.3506  -14.5519   20.6710 O   0  0  0  0  0  0
  -24.6236  -31.8620   23.2052 C   0  0  0  0  0  0
  -25.9098  -32.4788   23.8365 C   0  0  1  0  0  0
  -27.2184  -27.3439   20.1250 C   0  0  0  0  0  0
  -25.5930  -33.8581   24.2293 N   0  0  0  0  0  0
  -23.4179  -30.4859   21.5445 C   0  0  2  0  0  0
  -24.8699  -28.9564   20.1003 C   0  0  0  0  0  0
  -22.7472  -29.4610   22.4910 C   0  0  0  0  0  0
  -18.0283  -28.1379   22.8480 C   0  0  0  0  0  0
  -24.1498  -36.7297   23.2644 C   0  0  0  0  0  0
  -25.9572  -30.8031   21.3761 C   0  0  0  0  0  0
  -26.0369  -29.4354   20.7124 C   0  0  0  0  0  0
  -27.2191  -28.6390   20.7205 C   0  0  0  0  0  0
  -26.0436  -26.9286   19.4597 C   0  0  0  0  0  0
  -24.8754  -27.7077   19.4604 C   0  0  0  0  0  0
  -23.6327  -29.8282   20.1562 C   0  0  0  0  0  0
  -25.4124  -36.3088   24.0329 C   0  0  1  0  0  0
  -20.5882  -28.3685   23.1280 C   0  0  2  0  0  0
  -20.6769  -26.9408   22.5407 C   0  0  0  0  0  0
  -19.5754  -26.6379   21.5202 C   0  0  0  0  0  0
  -18.1929  -26.7923   22.1610 C   0  0  0  0  0  0
  -19.1538  -28.8853   23.2873 C   0  0  0  0  0  0
  -18.9469  -30.1449   23.8901 C   0  0  0  0  0  0
  -17.6476  -30.6588   24.0557 C   0  0  0  0  0  0
  -25.9053  -34.9450   23.5110 C   0  0  0  0  0  0
  -16.5355  -29.9085   23.6332 C   0  0  0  0  0  0
  -16.7267  -28.6499   23.0358 C   0  0  0  0  0  0
  -26.4500  -31.6577   25.0715 C   0  0  0  0  0  0
  -25.3738  -31.3693   26.1445 C   0  0  0  0  0  0
  -27.0361  -30.3014   24.6149 C   0  0  0  0  0  0
  -27.6065  -32.4318   25.7484 C   0  0  0  0  0  0
  -27.5587  -37.1802   24.8465 C   0  0  0  0  0  0
  -21.4186  -29.3038   22.3667 N   0  0  0  0  0  0
  -26.4306  -37.3769   23.9398 N   0  0  0  0  0  0
  -24.6838  -31.0661   22.0985 N   0  0  0  0  0  0
  -23.4201  -28.8132   23.2971 O   0  0  0  0  0  0
  -28.2728  -26.4327   20.2256 O   0  0  0  0  0  0
  -26.5618  -34.8911   22.4675 O   0  0  0  0  0  0
  -23.5406  -32.1410   23.7399 O   0  0  0  0  0  0
  -29.6915  -21.0800   20.8353 C   0  0  0  0  0  0
  -28.9312  -21.6345   19.7566 C   0  0  0  0  0  0
  -29.7304  -21.8989   22.0183 C   0  0  0  0  0  0
  -28.4867  -23.0025   19.7552 C   0  0  0  0  0  0
  -29.2893  -23.2718   22.0295 C   0  0  0  0  0  0
  -28.6576  -23.8523   20.8857 C   0  0  0  0  0  0
  -31.9106  -19.8854   21.4123 C   0  0  0  0  0  0
  -32.6462  -19.3399   20.2208 C   0  0  0  0  0  0
  -29.7332  -18.4067   21.2240 C   0  0  0  0  0  0
  -30.9498  -17.6647   19.2935 C   0  0  0  0  0  0
  -30.5387  -17.1563   20.6913 C   0  0  2  0  0  0
  -30.5146  -19.6959   20.7478 C   0  0  1  0  0  0
  -31.3145  -19.1537   19.4847 C   0  0  1  0  0  0
  -28.4512  -20.7351   18.6257 C   0  0  0  0  0  0
  -30.1722  -21.2785   23.3464 C   0  0  0  0  0  0
  -27.7621  -23.5673   18.5330 C   0  0  0  0  0  0
  -31.3393  -19.8553   18.1212 C   0  0  0  0  0  0
  -30.4460  -25.2937   23.1250 C   0  0  0  0  0  0
  -29.4658  -24.1249   23.3022 C   0  0  0  0  0  0
  -27.8798  -25.2251   20.9786 C   0  0  0  0  0  0
  -29.9734  -15.7578   20.7479 N   0  0  0  0  0  0
  -31.4646  -12.4643   19.1555 H   0  0  0  0  0  0
  -30.3269  -11.3887   19.9141 H   0  0  0  0  0  0
  -29.7569  -11.7369   17.4822 H   0  0  0  0  0  0
  -29.6485  -13.4612   17.7421 H   0  0  0  0  0  0
  -27.8587  -11.2911   18.8810 H   0  0  0  0  0  0
  -27.3674  -12.5658   17.7972 H   0  0  0  0  0  0
  -27.6609  -14.2571   19.5058 H   0  0  0  0  0  0
  -28.7013  -12.1051   21.4107 H   0  0  0  0  0  0
  -28.4577  -13.7849   21.8155 H   0  0  0  0  0  0
  -25.2771   -9.5673   22.4754 H   0  0  0  0  0  0
  -24.0000   -7.4632   22.7469 H   0  0  0  0  0  0
  -21.0853   -8.8775   19.8944 H   0  0  0  0  0  0
  -22.3711  -10.9672   19.6158 H   0  0  0  0  0  0
  -21.2009   -7.6148   23.9711 H   0  0  0  0  0  0
  -21.1483   -6.0522   25.9076 H   0  0  0  0  0  0
  -22.0601   -2.7607   23.2840 H   0  0  0  0  0  0
  -22.4126  -11.9862   22.4785 H   0  0  0  0  0  0
  -21.1103  -13.1203   22.2643 H   0  0  0  0  0  0
  -24.6568  -15.8472   20.5161 H   0  0  0  0  0  0
  -26.2668  -15.6256   20.0561 H   0  0  0  0  0  0
  -26.7156  -32.5484   23.1107 H   0  0  0  0  0  0
  -25.0076  -33.9725   25.0437 H   0  0  0  0  0  0
  -22.7097  -31.3050   21.4036 H   0  0  0  0  0  0
  -23.3764  -35.9629   23.3306 H   0  0  0  0  0  0
  -24.3599  -36.8923   22.2064 H   0  0  0  0  0  0
  -23.7247  -37.6488   23.6676 H   0  0  0  0  0  0
  -26.0890  -31.5734   20.6147 H   0  0  0  0  0  0
  -26.8351  -30.8475   22.0084 H   0  0  0  0  0  0
  -28.1085  -28.9876   21.2281 H   0  0  0  0  0  0
  -26.0117  -25.9677   18.9664 H   0  0  0  0  0  0
  -23.9847  -27.3399   18.9687 H   0  0  0  0  0  0
  -23.7434  -30.6080   19.4015 H   0  0  0  0  0  0
  -22.7556  -29.2497   19.8575 H   0  0  0  0  0  0
  -25.1296  -36.1950   25.0821 H   0  0  0  0  0  0
  -20.9974  -28.3283   24.1400 H   0  0  0  0  0  0
  -20.5686  -26.2298   23.3603 H   0  0  0  0  0  0
  -21.6637  -26.7443   22.1195 H   0  0  0  0  0  0
  -19.6926  -25.6291   21.1236 H   0  0  0  0  0  0
  -19.6706  -27.3191   20.6735 H   0  0  0  0  0  0
  -17.4192  -26.6678   21.4006 H   0  0  0  0  0  0
  -18.0324  -26.0061   22.9007 H   0  0  0  0  0  0
  -19.7953  -30.7239   24.2290 H   0  0  0  0  0  0
  -17.5039  -31.6279   24.5148 H   0  0  0  0  0  0
  -15.5362  -30.2996   23.7666 H   0  0  0  0  0  0
  -15.8659  -28.0822   22.7086 H   0  0  0  0  0  0
  -24.5947  -30.7011   25.7762 H   0  0  0  0  0  0
  -24.8892  -32.2842   26.4864 H   0  0  0  0  0  0
  -25.8079  -30.8882   27.0219 H   0  0  0  0  0  0
  -26.2929  -29.6738   24.1225 H   0  0  0  0  0  0
  -27.4125  -29.7302   25.4640 H   0  0  0  0  0  0
  -27.8761  -30.4306   23.9323 H   0  0  0  0  0  0
  -27.2684  -33.3639   26.2031 H   0  0  0  0  0  0
  -28.3886  -32.6848   25.0309 H   0  0  0  0  0  0
  -28.0714  -31.8452   26.5421 H   0  0  0  0  0  0
  -28.2585  -38.0118   24.7519 H   0  0  0  0  0  0
  -28.1097  -36.2642   24.6277 H   0  0  0  0  0  0
  -27.2302  -37.1422   25.8867 H   0  0  0  0  0  0
  -20.9368  -29.8779   21.6888 H   0  0  0  0  0  0
  -26.0201  -38.2842   24.1413 H   0  0  0  0  0  0
  -32.2019  -20.9247   21.5731 H   0  0  0  0  0  0
  -32.0642  -19.2979   22.3187 H   0  0  0  0  0  0
  -33.1900  -18.4169   20.4284 H   0  0  0  0  0  0
  -33.3079  -20.0839   19.7728 H   0  0  0  0  0  0
  -29.6116  -18.3593   22.3047 H   0  0  0  0  0  0
  -28.7284  -18.3965   20.8014 H   0  0  0  0  0  0
  -30.1085  -17.5534   18.6083 H   0  0  0  0  0  0
  -31.7785  -17.0927   18.8744 H   0  0  0  0  0  0
  -31.4430  -17.0992   21.2998 H   0  0  0  0  0  0
  -28.6492  -19.6829   18.8142 H   0  0  0  0  0  0
  -28.8963  -21.0148   17.6722 H   0  0  0  0  0  0
  -27.3694  -20.8192   18.5217 H   0  0  0  0  0  0
  -30.2140  -20.1948   23.3297 H   0  0  0  0  0  0
  -29.4466  -21.4872   24.1321 H   0  0  0  0  0  0
  -31.1478  -21.6586   23.6508 H   0  0  0  0  0  0
  -27.9851  -24.6257   18.3971 H   0  0  0  0  0  0
  -26.6828  -23.4522   18.6340 H   0  0  0  0  0  0
  -28.0697  -23.0927   17.6035 H   0  0  0  0  0  0
  -32.2755  -19.6556   17.5975 H   0  0  0  0  0  0
  -31.2639  -20.9383   18.2190 H   0  0  0  0  0  0
  -30.5532  -19.5092   17.4519 H   0  0  0  0  0  0
  -30.5947  -25.8118   24.0726 H   0  0  0  0  0  0
  -30.0965  -26.0331   22.4061 H   0  0  0  0  0  0
  -31.4205  -24.9351   22.7925 H   0  0  0  0  0  0
  -29.8468  -23.5655   24.1504 H   0  0  0  0  0  0
  -28.4961  -24.4726   23.6568 H   0  0  0  0  0  0
  -27.7842  -25.5568   22.0086 H   0  0  0  0  0  0
  -26.8560  -24.9344   20.7417 H   0  0  0  0  0  0
  -28.9980  -15.6530   20.9844 H   0  0  0  0  0  0
  1 25  1  0  0  0
  1 30  2  0  0  0
  1 91  1  0  0  0
  2  3  1  0  0  0
  2 25  1  0  0  0
  2 92  1  0  0  0
  2 93  1  0  0  0
  3  4  1  0  0  0
  3 94  1  0  0  0
  3 95  1  0  0  0
  4  5  1  0  0  0
  4 96  1  0  0  0
  4 97  1  0  0  0
  5  6  1  0  0  0
  5 26  1  0  0  0
  5 98  1  0  0  0
  6 25  1  0  0  0
  6 99  1  0  0  0
  6100  1  0  0  0
  7  8  2  0  0  0
  7 26  1  0  0  0
  7 29  1  0  0  0
  8  9  1  0  0  0
  8 22  1  0  0  0
  9 10  1  0  0  0
  9 27  2  0  0  0
 10 11  2  0  0  0
 10 15  1  0  0  0
 11 12  1  0  0  0
 11101  1  0  0  0
 12 13  2  0  0  0
 12102  1  0  0  0
 13 14  1  0  0  0
 13 31  1  0  0  0
 14 15  2  0  0  0
 14103  1  0  0  0
 15104  1  0  0  0
 16 17  2  0  0  0
 16 21  1  0  0  0
 16 31  1  0  0  0
 17 18  1  0  0  0
 17105  1  0  0  0
 18 19  2  0  0  0
 18106  1  0  0  0
 19 20  1  0  0  0
 19 24  1  0  0  0
 20 21  2  0  0  0
 20107  1  0  0  0
 21 23  1  0  0  0
 22 28  1  0  0  0
 22 32  2  0  0  0
 26 27  1  0  0  0
 28108  1  0  0  0
 28109  1  0  0  0
 29110  1  0  0  0
 29111  1  0  0  0
 33 34  1  0  0  0
 33 66  1  0  0  0
 33 70  2  0  0  0
 34 36  1  0  0  0
 34 59  1  0  0  0
 34112  1  0  0  0
 35 44  2  0  0  0
 35 45  1  0  0  0
 35 68  1  0  0  0
 36 56  1  0  0  0
 36113  1  0  0  0
 37 39  1  0  0  0
 37 47  1  0  0  0
 37 66  1  0  0  0
 37114  1  0  0  0
 38 43  2  0  0  0
 38 46  1  0  0  0
 38 47  1  0  0  0
 39 64  1  0  0  0
 39 67  2  0  0  0
 40 52  1  0  0  0
 40 53  2  0  0  0
 40 58  1  0  0  0
 41115  1  0  0  0
 41116  1  0  0  0
 41117  1  0  0  0
 41 48  1  0  0  0
 42 43  1  0  0  0
 42 66  1  0  0  0
 42118  1  0  0  0
 42119  1  0  0  0
 43 44  1  0  0  0
 44120  1  0  0  0
 45 46  2  0  0  0
 45121  1  0  0  0
 46122  1  0  0  0
 47123  1  0  0  0
 47124  1  0  0  0
 48 56  1  0  0  0
 48 65  1  0  0  0
 48125  1  0  0  0
 49 50  1  0  0  0
 49 53  1  0  0  0
 49 64  1  0  0  0
 49126  1  0  0  0
 50 51  1  0  0  0
 50127  1  0  0  0
 50128  1  0  0  0
 51 52  1  0  0  0
 51129  1  0  0  0
 51130  1  0  0  0
 52131  1  0  0  0
 52132  1  0  0  0
 53 54  1  0  0  0
 54 55  2  0  0  0
 54133  1  0  0  0
 55 57  1  0  0  0
 55134  1  0  0  0
 56 69  2  0  0  0
 57 58  2  0  0  0
 57135  1  0  0  0
 58136  1  0  0  0
 59 60  1  0  0  0
 59 61  1  0  0  0
 59 62  1  0  0  0
 60137  1  0  0  0
 60138  1  0  0  0
 60139  1  0  0  0
 61140  1  0  0  0
 61141  1  0  0  0
 61142  1  0  0  0
 62143  1  0  0  0
 62144  1  0  0  0
 62145  1  0  0  0
 63 65  1  0  0  0
 63146  1  0  0  0
 63147  1  0  0  0
 63148  1  0  0  0
 64149  1  0  0  0
 65150  1  0  0  0
 68 90  1  0  0  0
 71 72  2  0  0  0
 71 73  1  0  0  0
 71 82  1  0  0  0
 72 74  1  0  0  0
 72 84  1  0  0  0
 73 75  2  0  0  0
 73 85  1  0  0  0
 74 76  2  0  0  0
 74 86  1  0  0  0
 75 76  1  0  0  0
 75 89  1  0  0  0
 76 90  1  0  0  0
 77 78  1  0  0  0
 77 82  1  0  0  0
 77151  1  0  0  0
 77152  1  0  0  0
 78 83  1  0  0  0
 78153  1  0  0  0
 78154  1  0  0  0
 79 81  1  0  0  0
 79 82  1  0  0  0
 79155  1  0  0  0
 79156  1  0  0  0
 80 81  1  0  0  0
 80 83  1  0  0  0
 80157  1  0  0  0
 80158  1  0  0  0
 81 91  1  0  0  0
 81159  1  0  0  0
 82 83  1  0  0  0
 83 87  1  0  0  0
 84160  1  0  0  0
 84161  1  0  0  0
 84162  1  0  0  0
 85163  1  0  0  0
 85164  1  0  0  0
 85165  1  0  0  0
 86166  1  0  0  0
 86167  1  0  0  0
 86168  1  0  0  0
 87169  1  0  0  0
 87170  1  0  0  0
 87171  1  0  0  0
 88 89  1  0  0  0
 88172  1  0  0  0
 88173  1  0  0  0
 88174  1  0  0  0
 89175  1  0  0  0
 89176  1  0  0  0
 90177  1  0  0  0
 90178  1  0  0  0
 91179  1  0  0  0
M  ISO  4   1 100  68 101  90 101  91 100
M  END
> <chiral flag>
0

> <version>
0

> <s_m_source_file>
/data/baiqing/PycharmProjects/Reinvent-master-3.2/result/LINK_invent/BTK/process_docking_weight1_custom_sum_contain_oxygen_bond_distance_aromatic_linkinvent_7_9_3/rearranged_h_0164.sdf

> <i_m_source_file_index>
20

> <r_mmod_Potential_Energy-OPLS-2005>
274.070068359375

> <r_mmod_Stretch_Energy-OPLS-2005>
100.611000061035

> <r_mmod_Bend_Energy-OPLS-2005>
227.499755859375

> <r_mmod_Torsional_Energy-OPLS-2005>
313.117248535156

> <r_mmod_Improper_Torsional_Energy-OPLS-2005>
7.59616279602051

> <r_mmod_Van_der_Waal_Energy-OPLS-2005>
179.352844238281

> <r_mmod_Electrostatic_Energy-OPLS-2005>
-404.733612060547

> <r_mmod_Solvation_Energy-OPLS-2005>
-199.968032836914

> <b_mmod_Minimization_Converged-OPLS-2005>
0

> <r_mmod_RMS_Derivative-OPLS-2005>
2.25036835670471

$$$$
20
                    3D
 Structure written by MMmdl.
168178  0  0  1  0            999 V2000
  -30.6281  -14.8966   20.4276 C   0  0  0  0  0  0
  -30.4186  -12.5639   19.4835 C   0  0  0  0  0  0
  -29.5045  -12.5148   18.2428 C   0  0  0  0  0  0
  -28.0420  -12.3012   18.6712 C   0  0  0  0  0  0
  -27.6210  -13.2399   19.8308 C   0  0  2  0  0  0
  -28.6695  -13.3047   20.9617 C   0  0  0  0  0  0
  -25.2441  -13.8190   20.5730 C   0  0  0  0  0  0
  -24.1753  -13.0425   20.9246 C   0  0  0  0  0  0
  -24.6362  -11.6911   20.8781 C   0  0  0  0  0  0
  -23.9049  -10.4285   21.0429 C   0  0  0  0  0  0
  -24.3601   -9.4199   21.9199 C   0  0  0  0  0  0
  -23.6286   -8.2230   22.0755 C   0  0  0  0  0  0
  -22.4269   -8.0266   21.3543 C   0  0  0  0  0  0
  -21.9905   -9.0241   20.4648 C   0  0  0  0  0  0
  -22.7229  -10.2125   20.3070 C   0  0  0  0  0  0
  -21.6848   -6.0729   22.5277 C   0  0  0  0  0  0
  -21.4008   -6.5632   23.8209 C   0  0  0  0  0  0
  -21.3660   -5.6786   24.9171 C   0  0  0  0  0  0
  -21.6044   -4.3048   24.7226 C   0  0  0  0  0  0
  -21.8821   -3.8141   23.4347 C   0  0  0  0  0  0
  -21.9189   -4.6958   22.3403 C   0  0  0  0  0  0
  -22.7776  -13.5206   21.1894 C   0  0  0  0  0  0
  -22.1658   -4.2145   21.0982 F   0  0  0  0  0  0
  -21.5637   -3.4535   25.7741 F   0  0  0  0  0  0
  -29.9446  -13.6863   20.3430 N   0  0  0  0  0  0
  -26.2848  -12.9405   20.3265 N   0  0  0  0  0  0
  -25.9291  -11.6546   20.5770 N   0  0  0  0  0  0
  -22.0412  -12.8200   22.0446 N   0  0  0  0  0  0
  -25.4110  -15.1918   20.4150 N   0  0  0  0  0  0
  -31.8441  -14.8522   20.2146 O   0  0  0  0  0  0
  -21.6631   -6.8866   21.4235 O   0  0  0  0  0  0
  -22.3466  -14.5511   20.6733 O   0  0  0  0  0  0
  -24.6415  -31.8469   23.1918 C   0  0  0  0  0  0
  -25.9198  -32.4706   23.8292 C   0  0  1  0  0  0
  -27.2115  -27.1666   20.1573 C   0  0  0  0  0  0
  -25.5960  -33.8510   24.2215 N   0  0  0  0  0  0
  -23.4428  -30.4680   21.5362 C   0  0  2  0  0  0
  -24.8927  -28.8994   20.1129 C   0  0  0  0  0  0
  -22.7552  -29.4563   22.4866 C   0  0  0  0  0  0
  -18.0300  -28.1392   22.8474 C   0  0  0  0  0  0
  -24.1490  -36.7251   23.2639 C   0  0  0  0  0  0
  -25.9969  -30.7310   21.3868 C   0  0  0  0  0  0
  -26.0696  -29.3443   20.7306 C   0  0  0  0  0  0
  -27.2351  -28.4942   20.7353 C   0  0  0  0  0  0
  -26.0167  -26.8196   19.4934 C   0  0  0  0  0  0
  -24.8771  -27.6493   19.4774 C   0  0  0  0  0  0
  -23.6690  -29.7990   20.1550 C   0  0  0  0  0  0
  -25.4119  -36.3033   24.0320 C   0  0  1  0  0  0
  -20.5912  -28.3716   23.1235 C   0  0  2  0  0  0
  -20.6786  -26.9421   22.5398 C   0  0  0  0  0  0
  -19.5761  -26.6382   21.5203 C   0  0  0  0  0  0
  -18.1942  -26.7932   22.1616 C   0  0  0  0  0  0
  -19.1556  -28.8867   23.2852 C   0  0  0  0  0  0
  -18.9476  -30.1466   23.8876 C   0  0  0  0  0  0
  -17.6475  -30.6591   24.0552 C   0  0  0  0  0  0
  -25.9070  -34.9409   23.5072 C   0  0  0  0  0  0
  -16.5363  -29.9083   23.6334 C   0  0  0  0  0  0
  -16.7284  -28.6500   23.0357 C   0  0  0  0  0  0
  -26.4539  -31.6558   25.0715 C   0  0  0  0  0  0
  -25.3738  -31.3730   26.1419 C   0  0  0  0  0  0
  -27.0405  -30.2957   24.6276 C   0  0  0  0  0  0
  -27.6079  -32.4316   25.7495 C   0  0  0  0  0  0
  -27.5578  -37.1780   24.8465 C   0  0  0  0  0  0
  -21.4245  -29.3050   22.3609 N   0  0  0  0  0  0
  -26.4282  -37.3747   23.9416 N   0  0  0  0  0  0
  -24.7129  -31.0358   22.0933 N   0  0  0  0  0  0
  -23.4204  -28.8103   23.3004 O   0  0  0  0  0  0
  -28.2475  -26.1765   20.1865 O   0  0  0  0  0  0
  -26.5641  -34.8902   22.4641 O   0  0  0  0  0  0
  -23.5539  -32.1331   23.7159 O   0  0  0  0  0  0
  -29.4587  -21.6223   18.9939 C   0  0  0  0  0  0
  -29.1220  -23.0345   19.0107 C   0  0  0  0  0  0
  -29.1196  -21.0120   20.1844 C   0  0  0  0  0  0
  -28.5898  -23.3948   20.2256 C   0  0  0  0  0  0
  -28.7936  -22.8405   23.3553 C   0  0  0  0  0  0
  -29.0498  -21.3565   23.3013 C   0  0  0  0  0  0
  -28.6706  -18.3039   19.6719 C   0  0  0  0  0  0
  -30.6371  -18.8062   20.9037 C   0  0  0  0  0  0
  -28.7490  -16.7440   20.1033 C   0  0  0  0  0  0
  -30.7211  -17.2816   21.4066 C   0  0  0  0  0  0
  -29.2213  -19.4342   20.6339 C   0  0  0  0  0  0
  -28.1024  -21.9952   22.3054 C   0  0  0  0  0  0
  -30.0588  -20.9140   17.8035 C   0  0  0  0  0  0
  -29.2917  -23.9657   17.8357 C   0  0  0  0  0  0
  -27.9056  -24.7817   20.7474 C   0  0  0  0  0  0
  -28.6258  -22.1371   20.9522 N   0  0  0  0  0  0
  -30.0212  -16.1703   20.6621 N   0  0  0  0  0  0
  -31.4557  -12.6851   19.1678 H   0  0  0  0  0  0
  -30.3849  -11.6191   20.0285 H   0  0  0  0  0  0
  -29.8185  -11.7163   17.5693 H   0  0  0  0  0  0
  -29.5942  -13.4455   17.6806 H   0  0  0  0  0  0
  -27.9411  -11.2613   18.9843 H   0  0  0  0  0  0
  -27.3745  -12.4281   17.8181 H   0  0  0  0  0  0
  -27.5639  -14.2255   19.3790 H   0  0  0  0  0  0
  -28.7544  -12.3489   21.4808 H   0  0  0  0  0  0
  -28.3783  -14.0428   21.7106 H   0  0  0  0  0  0
  -25.2742   -9.5683   22.4776 H   0  0  0  0  0  0
  -24.0003   -7.4616   22.7466 H   0  0  0  0  0  0
  -21.0840   -8.8757   19.8950 H   0  0  0  0  0  0
  -22.3683  -10.9665   19.6181 H   0  0  0  0  0  0
  -21.1992   -7.6137   23.9713 H   0  0  0  0  0  0
  -21.1483   -6.0515   25.9075 H   0  0  0  0  0  0
  -22.0602   -2.7605   23.2846 H   0  0  0  0  0  0
  -22.4025  -11.9865   22.4850 H   0  0  0  0  0  0
  -21.1026  -13.1229   22.2649 H   0  0  0  0  0  0
  -24.6450  -15.8453   20.5362 H   0  0  0  0  0  0
  -26.2628  -15.6332   20.0964 H   0  0  0  0  0  0
  -26.7258  -32.5333   23.1020 H   0  0  0  0  0  0
  -25.0127  -33.9625   25.0376 H   0  0  0  0  0  0
  -22.7443  -31.2934   21.3833 H   0  0  0  0  0  0
  -23.3764  -35.9570   23.3280 H   0  0  0  0  0  0
  -24.3584  -36.8899   22.2058 H   0  0  0  0  0  0
  -23.7229  -37.6435   23.6686 H   0  0  0  0  0  0
  -26.1491  -31.4863   20.6144 H   0  0  0  0  0  0
  -26.8687  -30.7809   22.0277 H   0  0  0  0  0  0
  -28.1329  -28.8286   21.2355 H   0  0  0  0  0  0
  -25.9477  -25.8620   18.9969 H   0  0  0  0  0  0
  -23.9812  -27.3067   18.9783 H   0  0  0  0  0  0
  -23.8052  -30.5737   19.3996 H   0  0  0  0  0  0
  -22.7851  -29.2404   19.8435 H   0  0  0  0  0  0
  -25.1305  -36.1862   25.0812 H   0  0  0  0  0  0
  -21.0008  -28.3306   24.1353 H   0  0  0  0  0  0
  -20.5673  -26.2328   23.3613 H   0  0  0  0  0  0
  -21.6656  -26.7425   22.1203 H   0  0  0  0  0  0
  -19.6926  -25.6286   21.1251 H   0  0  0  0  0  0
  -19.6707  -27.3174   20.6718 H   0  0  0  0  0  0
  -17.4214  -26.6664   21.4020 H   0  0  0  0  0  0
  -18.0354  -26.0077   22.9017 H   0  0  0  0  0  0
  -19.7951  -30.7284   24.2244 H   0  0  0  0  0  0
  -17.5029  -31.6269   24.5154 H   0  0  0  0  0  0
  -15.5363  -30.2979   23.7676 H   0  0  0  0  0  0
  -15.8682  -28.0812   22.7091 H   0  0  0  0  0  0
  -24.5934  -30.7053   25.7748 H   0  0  0  0  0  0
  -24.8908  -32.2901   26.4800 H   0  0  0  0  0  0
  -25.8046  -30.8942   27.0224 H   0  0  0  0  0  0
  -26.3015  -29.6672   24.1292 H   0  0  0  0  0  0
  -27.4033  -29.7259   25.4844 H   0  0  0  0  0  0
  -27.8919  -30.4191   23.9578 H   0  0  0  0  0  0
  -27.2688  -33.3642   26.2017 H   0  0  0  0  0  0
  -28.3926  -32.6833   25.0344 H   0  0  0  0  0  0
  -28.0711  -31.8472   26.5456 H   0  0  0  0  0  0
  -28.2579  -38.0094   24.7536 H   0  0  0  0  0  0
  -28.1090  -36.2626   24.6260 H   0  0  0  0  0  0
  -27.2298  -37.1388   25.8868 H   0  0  0  0  0  0
  -20.9449  -29.8760   21.6787 H   0  0  0  0  0  0
  -26.0148  -38.2812   24.1434 H   0  0  0  0  0  0
  -29.6136  -23.4875   23.0496 H   0  0  0  0  0  0
  -28.1865  -23.2149   24.1769 H   0  0  0  0  0  0
  -28.6102  -20.7394   24.0822 H   0  0  0  0  0  0
  -30.0390  -21.0494   22.9686 H   0  0  0  0  0  0
  -27.6303  -18.5372   19.4431 H   0  0  0  0  0  0
  -29.1893  -18.3932   18.7178 H   0  0  0  0  0  0
  -31.2366  -18.8913   19.9975 H   0  0  0  0  0  0
  -31.1520  -19.4275   21.6365 H   0  0  0  0  0  0
  -28.4838  -16.1640   19.2211 H   0  0  0  0  0  0
  -27.9727  -16.5510   20.8439 H   0  0  0  0  0  0
  -30.3236  -17.2497   22.4216 H   0  0  0  0  0  0
  -31.7771  -17.0319   21.5178 H   0  0  0  0  0  0
  -28.6513  -19.3312   21.5569 H   0  0  0  0  0  0
  -27.0309  -21.8086   22.3470 H   0  0  0  0  0  0
  -30.6073  -21.6071   17.1654 H   0  0  0  0  0  0
  -29.2738  -20.4491   17.2069 H   0  0  0  0  0  0
  -30.7579  -20.1397   18.1146 H   0  0  0  0  0  0
  -30.3494  -24.1460   17.6435 H   0  0  0  0  0  0
  -28.8071  -24.9268   18.0067 H   0  0  0  0  0  0
  -28.8500  -23.5278   16.9400 H   0  0  0  0  0  0
  -28.0997  -24.8757   21.8138 H   0  0  0  0  0  0
  -26.8278  -24.6331   20.6980 H   0  0  0  0  0  0
  1 25  1  0  0  0
  1 30  2  0  0  0
  1 87  1  0  0  0
  2  3  1  0  0  0
  2 25  1  0  0  0
  2 88  1  0  0  0
  2 89  1  0  0  0
  3  4  1  0  0  0
  3 90  1  0  0  0
  3 91  1  0  0  0
  4  5  1  0  0  0
  4 92  1  0  0  0
  4 93  1  0  0  0
  5  6  1  0  0  0
  5 26  1  0  0  0
  5 94  1  0  0  0
  6 25  1  0  0  0
  6 95  1  0  0  0
  6 96  1  0  0  0
  7  8  2  0  0  0
  7 26  1  0  0  0
  7 29  1  0  0  0
  8  9  1  0  0  0
  8 22  1  0  0  0
  9 10  1  0  0  0
  9 27  2  0  0  0
 10 11  2  0  0  0
 10 15  1  0  0  0
 11 12  1  0  0  0
 11 97  1  0  0  0
 12 13  2  0  0  0
 12 98  1  0  0  0
 13 14  1  0  0  0
 13 31  1  0  0  0
 14 15  2  0  0  0
 14 99  1  0  0  0
 15100  1  0  0  0
 16 17  2  0  0  0
 16 21  1  0  0  0
 16 31  1  0  0  0
 17 18  1  0  0  0
 17101  1  0  0  0
 18 19  2  0  0  0
 18102  1  0  0  0
 19 20  1  0  0  0
 19 24  1  0  0  0
 20 21  2  0  0  0
 20103  1  0  0  0
 21 23  1  0  0  0
 22 28  1  0  0  0
 22 32  2  0  0  0
 26 27  1  0  0  0
 28104  1  0  0  0
 28105  1  0  0  0
 29106  1  0  0  0
 29107  1  0  0  0
 33 34  1  0  0  0
 33 66  1  0  0  0
 33 70  2  0  0  0
 34 36  1  0  0  0
 34 59  1  0  0  0
 34108  1  0  0  0
 35 44  2  0  0  0
 35 45  1  0  0  0
 35 68  1  0  0  0
 36 56  1  0  0  0
 36109  1  0  0  0
 37 39  1  0  0  0
 37 47  1  0  0  0
 37 66  1  0  0  0
 37110  1  0  0  0
 38 43  2  0  0  0
 38 46  1  0  0  0
 38 47  1  0  0  0
 39 64  1  0  0  0
 39 67  2  0  0  0
 40 52  1  0  0  0
 40 53  2  0  0  0
 40 58  1  0  0  0
 41111  1  0  0  0
 41112  1  0  0  0
 41113  1  0  0  0
 41 48  1  0  0  0
 42 43  1  0  0  0
 42 66  1  0  0  0
 42114  1  0  0  0
 42115  1  0  0  0
 43 44  1  0  0  0
 44116  1  0  0  0
 45 46  2  0  0  0
 45117  1  0  0  0
 46118  1  0  0  0
 47119  1  0  0  0
 47120  1  0  0  0
 48 56  1  0  0  0
 48 65  1  0  0  0
 48121  1  0  0  0
 49 50  1  0  0  0
 49 53  1  0  0  0
 49 64  1  0  0  0
 49122  1  0  0  0
 50 51  1  0  0  0
 50123  1  0  0  0
 50124  1  0  0  0
 51 52  1  0  0  0
 51125  1  0  0  0
 51126  1  0  0  0
 52127  1  0  0  0
 52128  1  0  0  0
 53 54  1  0  0  0
 54 55  2  0  0  0
 54129  1  0  0  0
 55 57  1  0  0  0
 55130  1  0  0  0
 56 69  2  0  0  0
 57 58  2  0  0  0
 57131  1  0  0  0
 58132  1  0  0  0
 59 60  1  0  0  0
 59 61  1  0  0  0
 59 62  1  0  0  0
 60133  1  0  0  0
 60134  1  0  0  0
 60135  1  0  0  0
 61136  1  0  0  0
 61137  1  0  0  0
 61138  1  0  0  0
 62139  1  0  0  0
 62140  1  0  0  0
 62141  1  0  0  0
 63 65  1  0  0  0
 63142  1  0  0  0
 63143  1  0  0  0
 63144  1  0  0  0
 64145  1  0  0  0
 65146  1  0  0  0
 68 85  1  0  0  0
 71 72  1  0  0  0
 71 73  2  0  0  0
 71 83  1  0  0  0
 72 74  2  0  0  0
 72 84  1  0  0  0
 73 86  1  0  0  0
 73 81  1  0  0  0
 74 85  1  0  0  0
 74 86  1  0  0  0
 75 76  1  0  0  0
 75 82  1  0  0  0
 75147  1  0  0  0
 75148  1  0  0  0
 76 82  1  0  0  0
 76149  1  0  0  0
 76150  1  0  0  0
 77 79  1  0  0  0
 77 81  1  0  0  0
 77151  1  0  0  0
 77152  1  0  0  0
 78 80  1  0  0  0
 78 81  1  0  0  0
 78153  1  0  0  0
 78154  1  0  0  0
 79 87  1  0  0  0
 79155  1  0  0  0
 79156  1  0  0  0
 80 87  1  0  0  0
 80157  1  0  0  0
 80158  1  0  0  0
 81159  1  0  0  0
 82 86  1  0  0  0
 82160  1  0  0  0
 83161  1  0  0  0
 83162  1  0  0  0
 83163  1  0  0  0
 84164  1  0  0  0
 84165  1  0  0  0
 84166  1  0  0  0
 85167  1  0  0  0
 85168  1  0  0  0
M  ISO  4   1 100  68 101  85 101  87 100
M  END
> <chiral flag>
0

> <version>
0

> <s_m_source_file>
/data/baiqing/PycharmProjects/Reinvent-master-3.2/result/LINK_invent/BTK/process_docking_weight1_custom_sum_contain_oxygen_bond_distance_aromatic_linkinvent_7_9_3/rearranged_h_0164.sdf

> <i_m_source_file_index>
21

> <r_mmod_Potential_Energy-OPLS-2005>
659.63232421875

> <r_mmod_Stretch_Energy-OPLS-2005>
203.255111694336

> <r_mmod_Bend_Energy-OPLS-2005>
268.204010009766

> <r_mmod_Torsional_Energy-OPLS-2005>
402.950012207031

> <r_mmod_Improper_Torsional_Energy-OPLS-2005>
2.69141888618469

> <r_mmod_Van_der_Waal_Energy-OPLS-2005>
108.647926330566

> <r_mmod_Electrostatic_Energy-OPLS-2005>
-295.319061279297

> <r_mmod_Solvation_Energy-OPLS-2005>
-198.603088378906

> <b_mmod_Minimization_Converged-OPLS-2005>
0

> <r_mmod_RMS_Derivative-OPLS-2005>
1.05910110473633

$$$$
21
                    3D
 Structure written by MMmdl.
171180  0  0  1  0            999 V2000
  -30.6894  -14.6495   20.5265 C   0  0  0  0  0  0
  -30.4193  -12.4223   19.4409 C   0  0  0  0  0  0
  -29.4891  -12.5006   18.2132 C   0  0  0  0  0  0
  -28.0174  -12.3224   18.6336 C   0  0  0  0  0  0
  -27.6428  -13.2016   19.8542 C   0  0  2  0  0  0
  -28.6982  -13.0658   20.9799 C   0  0  0  0  0  0
  -25.2510  -13.8127   20.5639 C   0  0  0  0  0  0
  -24.1792  -13.0410   20.9196 C   0  0  0  0  0  0
  -24.6358  -11.6883   20.8765 C   0  0  0  0  0  0
  -23.9036  -10.4276   21.0428 C   0  0  0  0  0  0
  -24.3598   -9.4191   21.9198 C   0  0  0  0  0  0
  -23.6280   -8.2224   22.0756 C   0  0  0  0  0  0
  -22.4263   -8.0266   21.3542 C   0  0  0  0  0  0
  -21.9896   -9.0239   20.4646 C   0  0  0  0  0  0
  -22.7217  -10.2122   20.3066 C   0  0  0  0  0  0
  -21.6848   -6.0730   22.5280 C   0  0  0  0  0  0
  -21.4007   -6.5638   23.8211 C   0  0  0  0  0  0
  -21.3658   -5.6794   24.9176 C   0  0  0  0  0  0
  -21.6042   -4.3056   24.7227 C   0  0  0  0  0  0
  -21.8819   -3.8145   23.4350 C   0  0  0  0  0  0
  -21.9188   -4.6959   22.3404 C   0  0  0  0  0  0
  -22.7824  -13.5212   21.1862 C   0  0  0  0  0  0
  -22.1658   -4.2144   21.0983 F   0  0  0  0  0  0
  -21.5632   -3.4541   25.7742 F   0  0  0  0  0  0
  -29.9825  -13.4711   20.3963 N   0  0  0  0  0  0
  -26.2927  -12.9282   20.3303 N   0  0  0  0  0  0
  -25.9276  -11.6457   20.5791 N   0  0  0  0  0  0
  -22.0468  -12.8208   22.0420 N   0  0  0  0  0  0
  -25.4169  -15.1838   20.3952 N   0  0  0  0  0  0
  -31.8780  -14.6412   20.1882 O   0  0  0  0  0  0
  -21.6627   -6.8867   21.4239 O   0  0  0  0  0  0
  -22.3509  -14.5516   20.6711 O   0  0  0  0  0  0
  -24.6215  -31.8616   23.2052 C   0  0  0  0  0  0
  -25.9074  -32.4788   23.8375 C   0  0  1  0  0  0
  -27.2286  -27.3617   20.1198 C   0  0  0  0  0  0
  -25.5899  -33.8591   24.2297 N   0  0  0  0  0  0
  -23.4139  -30.4835   21.5459 C   0  0  2  0  0  0
  -24.8624  -28.9388   20.1151 C   0  0  0  0  0  0
  -22.7453  -29.4619   22.4956 C   0  0  0  0  0  0
  -18.0297  -28.1364   22.8498 C   0  0  0  0  0  0
  -24.1490  -36.7304   23.2641 C   0  0  0  0  0  0
  -25.9496  -30.8067   21.3682 C   0  0  0  0  0  0
  -26.0273  -29.4355   20.7151 C   0  0  0  0  0  0
  -27.2169  -28.6573   20.7069 C   0  0  0  0  0  0
  -26.0487  -26.9009   19.5023 C   0  0  0  0  0  0
  -24.8719  -27.6746   19.5017 C   0  0  0  0  0  0
  -23.6276  -29.8139   20.1618 C   0  0  0  0  0  0
  -25.4111  -36.3095   24.0336 C   0  0  1  0  0  0
  -20.5893  -28.3659   23.1304 C   0  0  2  0  0  0
  -20.6788  -26.9385   22.5424 C   0  0  0  0  0  0
  -19.5761  -26.6342   21.5238 C   0  0  0  0  0  0
  -18.1948  -26.7899   22.1655 C   0  0  0  0  0  0
  -19.1549  -28.8831   23.2889 C   0  0  0  0  0  0
  -18.9472  -30.1439   23.8888 C   0  0  0  0  0  0
  -17.6474  -30.6575   24.0555 C   0  0  0  0  0  0
  -25.9034  -34.9458   23.5115 C   0  0  0  0  0  0
  -16.5365  -29.9072   23.6326 C   0  0  0  0  0  0
  -16.7286  -28.6483   23.0359 C   0  0  0  0  0  0
  -26.4481  -31.6591   25.0730 C   0  0  0  0  0  0
  -25.3735  -31.3710   26.1469 C   0  0  0  0  0  0
  -27.0317  -30.3027   24.6145 C   0  0  0  0  0  0
  -27.6050  -32.4321   25.7492 C   0  0  0  0  0  0
  -27.5580  -37.1805   24.8465 C   0  0  0  0  0  0
  -21.4177  -29.3014   22.3693 N   0  0  0  0  0  0
  -26.4295  -37.3781   23.9405 N   0  0  0  0  0  0
  -24.6801  -31.0665   22.0975 N   0  0  0  0  0  0
  -23.4195  -28.8169   23.3032 O   0  0  0  0  0  0
  -28.3594  -26.5527   20.1185 O   0  0  0  0  0  0
  -26.5612  -34.8916   22.4683 O   0  0  0  0  0  0
  -23.5391  -32.1398   23.7400 O   0  0  0  0  0  0
  -28.3168  -20.1976   21.4575 C   0  0  0  0  0  0
  -27.2598  -20.3193   22.4165 C   0  0  0  0  0  0
  -26.4056  -21.4541   22.4297 C   0  0  0  0  0  0
  -26.6378  -22.5464   21.5581 C   0  0  0  0  0  0
  -27.8235  -22.5956   20.7744 C   0  0  0  0  0  0
  -28.6152  -21.3876   20.6863 C   0  0  0  0  0  0
  -28.1625  -17.5863   21.0115 C   0  0  0  0  0  0
  -30.3059  -18.5308   20.5038 C   0  0  0  0  0  0
  -28.7793  -16.2050   21.3898 C   0  0  0  0  0  0
  -30.9644  -17.1202   20.7478 C   0  0  0  0  0  0
  -29.0662  -18.7899   21.3868 C   0  0  0  0  0  0
  -26.9777  -19.2342   23.4673 C   0  0  0  0  0  0
  -25.2217  -21.4777   23.4065 C   0  0  0  0  0  0
  -25.5731  -23.6421   21.4572 C   0  0  0  0  0  0
  -28.1593  -23.9243   19.9905 C   0  0  0  0  0  0
  -28.2690  -25.2707   20.8256 C   0  0  0  0  0  0
  -30.0912  -15.8936   20.7678 N   0  0  0  0  0  0
  -29.6971  -21.3848   19.8098 N   0  0  0  0  0  0
  -31.4563  -12.5325   19.1199 H   0  0  0  0  0  0
  -30.3684  -11.4342   19.9012 H   0  0  0  0  0  0
  -29.7641  -11.7393   17.4821 H   0  0  0  0  0  0
  -29.6155  -13.4638   17.7165 H   0  0  0  0  0  0
  -27.8684  -11.2699   18.8779 H   0  0  0  0  0  0
  -27.3548  -12.5355   17.7941 H   0  0  0  0  0  0
  -27.6517  -14.2213   19.4722 H   0  0  0  0  0  0
  -28.7468  -12.0290   21.3163 H   0  0  0  0  0  0
  -28.4535  -13.6209   21.8835 H   0  0  0  0  0  0
  -25.2743   -9.5670   22.4772 H   0  0  0  0  0  0
  -23.9993   -7.4615   22.7474 H   0  0  0  0  0  0
  -21.0826   -8.8751   19.8951 H   0  0  0  0  0  0
  -22.3673  -10.9663   19.6177 H   0  0  0  0  0  0
  -21.1994   -7.6147   23.9712 H   0  0  0  0  0  0
  -21.1482   -6.0528   25.9080 H   0  0  0  0  0  0
  -22.0599   -2.7607   23.2853 H   0  0  0  0  0  0
  -22.4093  -11.9872   22.4806 H   0  0  0  0  0  0
  -21.1092  -13.1246   22.2636 H   0  0  0  0  0  0
  -24.6466  -15.8351   20.4986 H   0  0  0  0  0  0
  -26.2637  -15.6218   20.0573 H   0  0  0  0  0  0
  -26.7147  -32.5479   23.1133 H   0  0  0  0  0  0
  -25.0043  -33.9743   25.0440 H   0  0  0  0  0  0
  -22.7058  -31.3019   21.4012 H   0  0  0  0  0  0
  -23.3743  -35.9645   23.3313 H   0  0  0  0  0  0
  -24.3584  -36.8909   22.2053 H   0  0  0  0  0  0
  -23.7250  -37.6514   23.6653 H   0  0  0  0  0  0
  -26.0722  -31.5695   20.5984 H   0  0  0  0  0  0
  -26.8335  -30.8602   21.9921 H   0  0  0  0  0  0
  -28.1163  -29.0347   21.1740 H   0  0  0  0  0  0
  -26.0355  -25.9374   19.0156 H   0  0  0  0  0  0
  -23.9793  -27.2895   19.0285 H   0  0  0  0  0  0
  -23.7432  -30.5875   19.4015 H   0  0  0  0  0  0
  -22.7504  -29.2373   19.8636 H   0  0  0  0  0  0
  -25.1292  -36.1956   25.0832 H   0  0  0  0  0  0
  -20.9993  -28.3238   24.1425 H   0  0  0  0  0  0
  -20.5704  -26.2272   23.3621 H   0  0  0  0  0  0
  -21.6654  -26.7429   22.1202 H   0  0  0  0  0  0
  -19.6919  -25.6241   21.1292 H   0  0  0  0  0  0
  -19.6695  -27.3135   20.6758 H   0  0  0  0  0  0
  -17.4216  -26.6630   21.4065 H   0  0  0  0  0  0
  -18.0353  -26.0056   22.9067 H   0  0  0  0  0  0
  -19.7948  -30.7252   24.2258 H   0  0  0  0  0  0
  -17.5031  -31.6260   24.5147 H   0  0  0  0  0  0
  -15.5364  -30.2973   23.7639 H   0  0  0  0  0  0
  -15.8684  -28.0797   22.7078 H   0  0  0  0  0  0
  -24.5908  -30.7057   25.7802 H   0  0  0  0  0  0
  -24.8927  -32.2868   26.4920 H   0  0  0  0  0  0
  -25.8078  -30.8877   27.0229 H   0  0  0  0  0  0
  -26.2878  -29.6781   24.1182 H   0  0  0  0  0  0
  -27.4050  -29.7273   25.4626 H   0  0  0  0  0  0
  -27.8733  -30.4332   23.9337 H   0  0  0  0  0  0
  -27.2666  -33.3611   26.2091 H   0  0  0  0  0  0
  -28.3844  -32.6890   25.0309 H   0  0  0  0  0  0
  -28.0735  -31.8434   26.5387 H   0  0  0  0  0  0
  -28.2604  -38.0096   24.7502 H   0  0  0  0  0  0
  -28.1068  -36.2625   24.6305 H   0  0  0  0  0  0
  -27.2299  -37.1477   25.8870 H   0  0  0  0  0  0
  -20.9350  -29.8696   21.6874 H   0  0  0  0  0  0
  -26.0180  -38.2860   24.1393 H   0  0  0  0  0  0
  -27.1871  -17.6512   21.4863 H   0  0  0  0  0  0
  -27.9392  -17.6140   19.9440 H   0  0  0  0  0  0
  -30.0417  -18.6263   19.4492 H   0  0  0  0  0  0
  -31.0643  -19.2873   20.7065 H   0  0  0  0  0  0
  -28.0175  -15.4956   21.1181 H   0  0  0  0  0  0
  -28.8878  -16.1336   22.4731 H   0  0  0  0  0  0
  -31.4862  -17.1473   21.7059 H   0  0  0  0  0  0
  -31.7471  -17.0252   19.9937 H   0  0  0  0  0  0
  -29.4497  -18.6452   22.3956 H   0  0  0  0  0  0
  -27.7465  -18.4766   23.5850 H   0  0  0  0  0  0
  -26.0458  -18.7167   23.2385 H   0  0  0  0  0  0
  -26.8802  -19.6724   24.4596 H   0  0  0  0  0  0
  -25.5781  -21.4586   24.4361 H   0  0  0  0  0  0
  -24.5785  -20.6116   23.2505 H   0  0  0  0  0  0
  -24.5804  -22.3528   23.3475 H   0  0  0  0  0  0
  -25.5715  -24.2744   22.3453 H   0  0  0  0  0  0
  -25.6756  -24.2774   20.5829 H   0  0  0  0  0  0
  -24.5832  -23.1987   21.3484 H   0  0  0  0  0  0
  -27.4107  -24.0394   19.2080 H   0  0  0  0  0  0
  -29.0971  -23.8150   19.4493 H   0  0  0  0  0  0
  -29.1691  -25.1964   21.4363 H   0  0  0  0  0  0
  -27.4705  -25.3499   21.5587 H   0  0  0  0  0  0
  -29.6960  -22.0448   19.0410 H   0  0  0  0  0  0
  -30.0858  -20.4845   19.5566 H   0  0  0  0  0  0
  1 25  1  0  0  0
  1 30  2  0  0  0
  1 87  1  0  0  0
  2  3  1  0  0  0
  2 25  1  0  0  0
  2 89  1  0  0  0
  2 90  1  0  0  0
  3  4  1  0  0  0
  3 91  1  0  0  0
  3 92  1  0  0  0
  4  5  1  0  0  0
  4 93  1  0  0  0
  4 94  1  0  0  0
  5  6  1  0  0  0
  5 26  1  0  0  0
  5 95  1  0  0  0
  6 25  1  0  0  0
  6 96  1  0  0  0
  6 97  1  0  0  0
  7  8  2  0  0  0
  7 26  1  0  0  0
  7 29  1  0  0  0
  8  9  1  0  0  0
  8 22  1  0  0  0
  9 10  1  0  0  0
  9 27  2  0  0  0
 10 11  2  0  0  0
 10 15  1  0  0  0
 11 12  1  0  0  0
 11 98  1  0  0  0
 12 13  2  0  0  0
 12 99  1  0  0  0
 13 14  1  0  0  0
 13 31  1  0  0  0
 14 15  2  0  0  0
 14100  1  0  0  0
 15101  1  0  0  0
 16 17  2  0  0  0
 16 21  1  0  0  0
 16 31  1  0  0  0
 17 18  1  0  0  0
 17102  1  0  0  0
 18 19  2  0  0  0
 18103  1  0  0  0
 19 20  1  0  0  0
 19 24  1  0  0  0
 20 21  2  0  0  0
 20104  1  0  0  0
 21 23  1  0  0  0
 22 28  1  0  0  0
 22 32  2  0  0  0
 26 27  1  0  0  0
 28105  1  0  0  0
 28106  1  0  0  0
 29107  1  0  0  0
 29108  1  0  0  0
 33 34  1  0  0  0
 33 66  1  0  0  0
 33 70  2  0  0  0
 34 36  1  0  0  0
 34 59  1  0  0  0
 34109  1  0  0  0
 35 44  2  0  0  0
 35 45  1  0  0  0
 35 68  1  0  0  0
 36 56  1  0  0  0
 36110  1  0  0  0
 37 39  1  0  0  0
 37 47  1  0  0  0
 37 66  1  0  0  0
 37111  1  0  0  0
 38 43  2  0  0  0
 38 46  1  0  0  0
 38 47  1  0  0  0
 39 64  1  0  0  0
 39 67  2  0  0  0
 40 52  1  0  0  0
 40 53  2  0  0  0
 40 58  1  0  0  0
 41112  1  0  0  0
 41113  1  0  0  0
 41114  1  0  0  0
 41 48  1  0  0  0
 42 43  1  0  0  0
 42 66  1  0  0  0
 42115  1  0  0  0
 42116  1  0  0  0
 43 44  1  0  0  0
 44117  1  0  0  0
 45 46  2  0  0  0
 45118  1  0  0  0
 46119  1  0  0  0
 47120  1  0  0  0
 47121  1  0  0  0
 48 56  1  0  0  0
 48 65  1  0  0  0
 48122  1  0  0  0
 49 50  1  0  0  0
 49 53  1  0  0  0
 49 64  1  0  0  0
 49123  1  0  0  0
 50 51  1  0  0  0
 50124  1  0  0  0
 50125  1  0  0  0
 51 52  1  0  0  0
 51126  1  0  0  0
 51127  1  0  0  0
 52128  1  0  0  0
 52129  1  0  0  0
 53 54  1  0  0  0
 54 55  2  0  0  0
 54130  1  0  0  0
 55 57  1  0  0  0
 55131  1  0  0  0
 56 69  2  0  0  0
 57 58  2  0  0  0
 57132  1  0  0  0
 58133  1  0  0  0
 59 60  1  0  0  0
 59 61  1  0  0  0
 59 62  1  0  0  0
 60134  1  0  0  0
 60135  1  0  0  0
 60136  1  0  0  0
 61137  1  0  0  0
 61138  1  0  0  0
 61139  1  0  0  0
 62140  1  0  0  0
 62141  1  0  0  0
 62142  1  0  0  0
 63 65  1  0  0  0
 63143  1  0  0  0
 63144  1  0  0  0
 63145  1  0  0  0
 64146  1  0  0  0
 65147  1  0  0  0
 68 86  1  0  0  0
 71 72  2  0  0  0
 71 76  1  0  0  0
 71 81  1  0  0  0
 72 73  1  0  0  0
 72 82  1  0  0  0
 73 74  2  0  0  0
 73 83  1  0  0  0
 74 75  1  0  0  0
 74 84  1  0  0  0
 75 76  2  0  0  0
 75 85  1  0  0  0
 76 88  1  0  0  0
 77 79  1  0  0  0
 77 81  1  0  0  0
 77148  1  0  0  0
 77149  1  0  0  0
 78 80  1  0  0  0
 78 81  1  0  0  0
 78150  1  0  0  0
 78151  1  0  0  0
 79 87  1  0  0  0
 79152  1  0  0  0
 79153  1  0  0  0
 80 87  1  0  0  0
 80154  1  0  0  0
 80155  1  0  0  0
 81156  1  0  0  0
 82157  1  0  0  0
 82158  1  0  0  0
 82159  1  0  0  0
 83160  1  0  0  0
 83161  1  0  0  0
 83162  1  0  0  0
 84163  1  0  0  0
 84164  1  0  0  0
 84165  1  0  0  0
 85 86  1  0  0  0
 85166  1  0  0  0
 85167  1  0  0  0
 86168  1  0  0  0
 86169  1  0  0  0
 88170  1  0  0  0
 88171  1  0  0  0
M  ISO  4   1 100  68 101  86 101  87 100
M  END
> <chiral flag>
0

> <version>
0

> <s_m_source_file>
/data/baiqing/PycharmProjects/Reinvent-master-3.2/result/LINK_invent/BTK/process_docking_weight1_custom_sum_contain_oxygen_bond_distance_aromatic_linkinvent_7_9_3/rearranged_h_0164.sdf

> <i_m_source_file_index>
22

> <r_mmod_Potential_Energy-OPLS-2005>
302.028411865234

> <r_mmod_Stretch_Energy-OPLS-2005>
95.9963302612305

> <r_mmod_Bend_Energy-OPLS-2005>
193.164123535156

> <r_mmod_Torsional_Energy-OPLS-2005>
328.443817138672

> <r_mmod_Improper_Torsional_Energy-OPLS-2005>
9.98730754852295

> <r_mmod_Van_der_Waal_Energy-OPLS-2005>
193.718658447266

> <r_mmod_Electrostatic_Energy-OPLS-2005>
-358.790710449219

> <r_mmod_Solvation_Energy-OPLS-2005>
-203.464691162109

> <b_mmod_Minimization_Converged-OPLS-2005>
0

> <r_mmod_RMS_Derivative-OPLS-2005>
1.02681648731232

$$$$
22
                    3D
 Structure written by MMmdl.
176185  0  0  1  0            999 V2000
  -30.6307  -14.9002   20.4227 C   0  0  0  0  0  0
  -30.4178  -12.5671   19.4818 C   0  0  0  0  0  0
  -29.5020  -12.5093   18.2422 C   0  0  0  0  0  0
  -28.0411  -12.2931   18.6733 C   0  0  0  0  0  0
  -27.6194  -13.2375   19.8282 C   0  0  2  0  0  0
  -28.6687  -13.3111   20.9584 C   0  0  0  0  0  0
  -25.2443  -13.8186   20.5732 C   0  0  0  0  0  0
  -24.1755  -13.0423   20.9249 C   0  0  0  0  0  0
  -24.6366  -11.6907   20.8787 C   0  0  0  0  0  0
  -23.9058  -10.4283   21.0427 C   0  0  0  0  0  0
  -24.3615   -9.4194   21.9196 C   0  0  0  0  0  0
  -23.6291   -8.2230   22.0757 C   0  0  0  0  0  0
  -22.4273   -8.0274   21.3545 C   0  0  0  0  0  0
  -21.9908   -9.0249   20.4649 C   0  0  0  0  0  0
  -22.7236  -10.2128   20.3065 C   0  0  0  0  0  0
  -21.6850   -6.0733   22.5280 C   0  0  0  0  0  0
  -21.4011   -6.5639   23.8213 C   0  0  0  0  0  0
  -21.3657   -5.6792   24.9176 C   0  0  0  0  0  0
  -21.6042   -4.3054   24.7226 C   0  0  0  0  0  0
  -21.8819   -3.8146   23.4347 C   0  0  0  0  0  0
  -21.9192   -4.6961   22.3403 C   0  0  0  0  0  0
  -22.7780  -13.5206   21.1891 C   0  0  0  0  0  0
  -22.1660   -4.2148   21.0980 F   0  0  0  0  0  0
  -21.5629   -3.4538   25.7738 F   0  0  0  0  0  0
  -29.9422  -13.6927   20.3370 N   0  0  0  0  0  0
  -26.2844  -12.9393   20.3262 N   0  0  0  0  0  0
  -25.9293  -11.6536   20.5782 N   0  0  0  0  0  0
  -22.0425  -12.8198   22.0446 N   0  0  0  0  0  0
  -25.4116  -15.1911   20.4143 N   0  0  0  0  0  0
  -31.8474  -14.8469   20.2146 O   0  0  0  0  0  0
  -21.6635   -6.8874   21.4241 O   0  0  0  0  0  0
  -22.3470  -14.5510   20.6731 O   0  0  0  0  0  0
  -24.6402  -31.8474   23.1915 C   0  0  0  0  0  0
  -25.9190  -32.4714   23.8290 C   0  0  1  0  0  0
  -27.2102  -27.1712   20.1537 C   0  0  0  0  0  0
  -25.5955  -33.8520   24.2211 N   0  0  0  0  0  0
  -23.4421  -30.4682   21.5361 C   0  0  2  0  0  0
  -24.8911  -28.9009   20.1114 C   0  0  0  0  0  0
  -22.7552  -29.4566   22.4871 C   0  0  0  0  0  0
  -18.0303  -28.1398   22.8479 C   0  0  0  0  0  0
  -24.1491  -36.7257   23.2641 C   0  0  0  0  0  0
  -25.9954  -30.7328   21.3850 C   0  0  0  0  0  0
  -26.0679  -29.3465   20.7291 C   0  0  0  0  0  0
  -27.2341  -28.4976   20.7331 C   0  0  0  0  0  0
  -26.0148  -26.8212   19.4929 C   0  0  0  0  0  0
  -24.8750  -27.6499   19.4774 C   0  0  0  0  0  0
  -23.6666  -29.7992   20.1547 C   0  0  0  0  0  0
  -25.4120  -36.3041   24.0321 C   0  0  1  0  0  0
  -20.5913  -28.3719   23.1246 C   0  0  2  0  0  0
  -20.6787  -26.9425   22.5410 C   0  0  0  0  0  0
  -19.5766  -26.6384   21.5215 C   0  0  0  0  0  0
  -18.1944  -26.7940   22.1617 C   0  0  0  0  0  0
  -19.1559  -28.8876   23.2856 C   0  0  0  0  0  0
  -18.9476  -30.1472   23.8881 C   0  0  0  0  0  0
  -17.6474  -30.6593   24.0565 C   0  0  0  0  0  0
  -25.9071  -34.9418   23.5071 C   0  0  0  0  0  0
  -16.5364  -29.9088   23.6338 C   0  0  0  0  0  0
  -16.7288  -28.6508   23.0355 C   0  0  0  0  0  0
  -26.4524  -31.6567   25.0714 C   0  0  0  0  0  0
  -25.3720  -31.3755   26.1416 C   0  0  0  0  0  0
  -27.0377  -30.2964   24.6269 C   0  0  0  0  0  0
  -27.6066  -32.4324   25.7493 C   0  0  0  0  0  0
  -27.5579  -37.1782   24.8462 C   0  0  0  0  0  0
  -21.4248  -29.3049   22.3619 N   0  0  0  0  0  0
  -26.4284  -37.3753   23.9416 N   0  0  0  0  0  0
  -24.7121  -31.0365   22.0929 N   0  0  0  0  0  0
  -23.4209  -28.8112   23.3008 O   0  0  0  0  0  0
  -28.2466  -26.1831   20.1805 O   0  0  0  0  0  0
  -26.5648  -34.8913   22.4645 O   0  0  0  0  0  0
  -23.5528  -32.1333   23.7155 O   0  0  0  0  0  0
  -29.6327  -21.6873   19.0741 C   0  0  0  0  0  0
  -29.3121  -23.1103   19.1210 C   0  0  0  0  0  0
  -29.1377  -21.0321   20.1920 C   0  0  0  0  0  0
  -28.5926  -23.4071   20.2501 C   0  0  0  0  0  0
  -28.6160  -18.3076   19.7217 C   0  0  0  0  0  0
  -30.6739  -18.8098   20.8314 C   0  0  0  0  0  0
  -28.7315  -16.7485   20.1557 C   0  0  0  0  0  0
  -30.7645  -17.2964   21.3571 C   0  0  0  0  0  0
  -29.2516  -19.4440   20.6238 C   0  0  0  0  0  0
  -29.6630  -24.1730   18.1039 C   0  0  0  0  0  0
  -31.8570  -21.4581   17.8530 C   0  0  0  0  0  0
  -29.6434  -21.0330   16.6135 C   0  0  0  0  0  0
  -28.6887  -21.6025   23.3398 C   0  0  0  0  0  0
  -26.5225  -21.0480   22.0388 C   0  0  0  0  0  0
  -27.9088  -24.7975   20.7587 C   0  0  0  0  0  0
  -30.3959  -20.9926   17.9538 C   0  0  0  0  0  0
  -27.7554  -21.9594   22.1705 C   0  0  0  0  0  0
  -28.4818  -22.1159   20.9035 N   0  0  0  0  0  0
  -30.0347  -16.1813   20.6493 N   0  0  0  0  0  0
  -31.4539  -12.6892   19.1622 H   0  0  0  0  0  0
  -30.3885  -11.6250   20.0317 H   0  0  0  0  0  0
  -29.8175  -11.7076   17.5730 H   0  0  0  0  0  0
  -29.5874  -13.4372   17.6743 H   0  0  0  0  0  0
  -27.9454  -11.2553   18.9941 H   0  0  0  0  0  0
  -27.3709  -12.4105   17.8209 H   0  0  0  0  0  0
  -27.5588  -14.2188   19.3683 H   0  0  0  0  0  0
  -28.7559  -12.3577   21.4817 H   0  0  0  0  0  0
  -28.3751  -14.0525   21.7034 H   0  0  0  0  0  0
  -25.2757   -9.5670   22.4777 H   0  0  0  0  0  0
  -23.9998   -7.4616   22.7471 H   0  0  0  0  0  0
  -21.0842   -8.8769   19.8953 H   0  0  0  0  0  0
  -22.3697  -10.9673   19.6181 H   0  0  0  0  0  0
  -21.2003   -7.6147   23.9717 H   0  0  0  0  0  0
  -21.1478   -6.0522   25.9079 H   0  0  0  0  0  0
  -22.0601   -2.7608   23.2846 H   0  0  0  0  0  0
  -22.4043  -11.9860   22.4833 H   0  0  0  0  0  0
  -21.1044  -13.1223   22.2653 H   0  0  0  0  0  0
  -24.6437  -15.8434   20.5306 H   0  0  0  0  0  0
  -26.2614  -15.6327   20.0914 H   0  0  0  0  0  0
  -26.7255  -32.5332   23.1021 H   0  0  0  0  0  0
  -25.0100  -33.9648   25.0357 H   0  0  0  0  0  0
  -22.7431  -31.2930   21.3839 H   0  0  0  0  0  0
  -23.3765  -35.9576   23.3281 H   0  0  0  0  0  0
  -24.3579  -36.8904   22.2059 H   0  0  0  0  0  0
  -23.7231  -37.6444   23.6684 H   0  0  0  0  0  0
  -26.1456  -31.4877   20.6117 H   0  0  0  0  0  0
  -26.8685  -30.7834   22.0239 H   0  0  0  0  0  0
  -28.1327  -28.8330   21.2317 H   0  0  0  0  0  0
  -25.9458  -25.8618   18.9995 H   0  0  0  0  0  0
  -23.9784  -27.3056   18.9802 H   0  0  0  0  0  0
  -23.8008  -30.5746   19.3995 H   0  0  0  0  0  0
  -22.7820  -29.2393   19.8450 H   0  0  0  0  0  0
  -25.1308  -36.1867   25.0813 H   0  0  0  0  0  0
  -21.0008  -28.3307   24.1366 H   0  0  0  0  0  0
  -20.5676  -26.2336   23.3627 H   0  0  0  0  0  0
  -21.6655  -26.7432   22.1211 H   0  0  0  0  0  0
  -19.6931  -25.6290   21.1255 H   0  0  0  0  0  0
  -19.6711  -27.3187   20.6740 H   0  0  0  0  0  0
  -17.4218  -26.6695   21.4013 H   0  0  0  0  0  0
  -18.0334  -26.0082   22.9011 H   0  0  0  0  0  0
  -19.7952  -30.7294   24.2242 H   0  0  0  0  0  0
  -17.5027  -31.6272   24.5170 H   0  0  0  0  0  0
  -15.5364  -30.2985   23.7677 H   0  0  0  0  0  0
  -15.8686  -28.0824   22.7078 H   0  0  0  0  0  0
  -24.5930  -30.7060   25.7752 H   0  0  0  0  0  0
  -24.8873  -32.2934   26.4754 H   0  0  0  0  0  0
  -25.8018  -30.9007   27.0246 H   0  0  0  0  0  0
  -26.2982  -29.6697   24.1269 H   0  0  0  0  0  0
  -27.3990  -29.7249   25.4828 H   0  0  0  0  0  0
  -27.8891  -30.4200   23.9574 H   0  0  0  0  0  0
  -27.2673  -33.3652   26.2010 H   0  0  0  0  0  0
  -28.3909  -32.6836   25.0340 H   0  0  0  0  0  0
  -28.0694  -31.8483   26.5457 H   0  0  0  0  0  0
  -28.2580  -38.0095   24.7518 H   0  0  0  0  0  0
  -28.1090  -36.2624   24.6266 H   0  0  0  0  0  0
  -27.2304  -37.1399   25.8867 H   0  0  0  0  0  0
  -20.9448  -29.8761   21.6802 H   0  0  0  0  0  0
  -26.0149  -38.2819   24.1432 H   0  0  0  0  0  0
  -27.5585  -18.5402   19.5895 H   0  0  0  0  0  0
  -29.0366  -18.3846   18.7208 H   0  0  0  0  0  0
  -31.2450  -18.8721   19.9070 H   0  0  0  0  0  0
  -31.2170  -19.4402   21.5363 H   0  0  0  0  0  0
  -28.4238  -16.1646   19.2910 H   0  0  0  0  0  0
  -27.9964  -16.5532   20.9364 H   0  0  0  0  0  0
  -30.4009  -17.2819   22.3852 H   0  0  0  0  0  0
  -31.8231  -17.0450   21.4380 H   0  0  0  0  0  0
  -28.7659  -19.3335   21.5862 H   0  0  0  0  0  0
  -30.2434  -23.8014   17.2655 H   0  0  0  0  0  0
  -30.2443  -24.9643   18.5779 H   0  0  0  0  0  0
  -28.7535  -24.6206   17.7022 H   0  0  0  0  0  0
  -32.3772  -21.2970   18.7977 H   0  0  0  0  0  0
  -31.9541  -22.5125   17.6052 H   0  0  0  0  0  0
  -32.3922  -20.8945   17.0884 H   0  0  0  0  0  0
  -28.6543  -20.5849   16.7155 H   0  0  0  0  0  0
  -30.1776  -20.4670   15.8499 H   0  0  0  0  0  0
  -29.5039  -22.0412   16.2302 H   0  0  0  0  0  0
  -28.1450  -21.6139   24.2845 H   0  0  0  0  0  0
  -29.4960  -22.3309   23.4230 H   0  0  0  0  0  0
  -29.1478  -20.6220   23.2442 H   0  0  0  0  0  0
  -25.9326  -21.0648   22.9554 H   0  0  0  0  0  0
  -26.7661  -20.0088   21.8358 H   0  0  0  0  0  0
  -25.8747  -21.3927   21.2325 H   0  0  0  0  0  0
  -28.1400  -24.9036   21.8184 H   0  0  0  0  0  0
  -26.8296  -24.6512   20.7348 H   0  0  0  0  0  0
  -30.4555  -19.9391   18.2014 H   0  0  0  0  0  0
  -27.3394  -22.9282   22.4361 H   0  0  0  0  0  0
  1 25  1  0  0  0
  1 30  2  0  0  0
  1 89  1  0  0  0
  2  3  1  0  0  0
  2 25  1  0  0  0
  2 90  1  0  0  0
  2 91  1  0  0  0
  3  4  1  0  0  0
  3 92  1  0  0  0
  3 93  1  0  0  0
  4  5  1  0  0  0
  4 94  1  0  0  0
  4 95  1  0  0  0
  5  6  1  0  0  0
  5 26  1  0  0  0
  5 96  1  0  0  0
  6 25  1  0  0  0
  6 97  1  0  0  0
  6 98  1  0  0  0
  7  8  2  0  0  0
  7 26  1  0  0  0
  7 29  1  0  0  0
  8  9  1  0  0  0
  8 22  1  0  0  0
  9 10  1  0  0  0
  9 27  2  0  0  0
 10 11  2  0  0  0
 10 15  1  0  0  0
 11 12  1  0  0  0
 11 99  1  0  0  0
 12 13  2  0  0  0
 12100  1  0  0  0
 13 14  1  0  0  0
 13 31  1  0  0  0
 14 15  2  0  0  0
 14101  1  0  0  0
 15102  1  0  0  0
 16 17  2  0  0  0
 16 21  1  0  0  0
 16 31  1  0  0  0
 17 18  1  0  0  0
 17103  1  0  0  0
 18 19  2  0  0  0
 18104  1  0  0  0
 19 20  1  0  0  0
 19 24  1  0  0  0
 20 21  2  0  0  0
 20105  1  0  0  0
 21 23  1  0  0  0
 22 28  1  0  0  0
 22 32  2  0  0  0
 26 27  1  0  0  0
 28106  1  0  0  0
 28107  1  0  0  0
 29108  1  0  0  0
 29109  1  0  0  0
 33 34  1  0  0  0
 33 66  1  0  0  0
 33 70  2  0  0  0
 34 36  1  0  0  0
 34 59  1  0  0  0
 34110  1  0  0  0
 35 44  2  0  0  0
 35 45  1  0  0  0
 35 68  1  0  0  0
 36 56  1  0  0  0
 36111  1  0  0  0
 37 39  1  0  0  0
 37 47  1  0  0  0
 37 66  1  0  0  0
 37112  1  0  0  0
 38 43  2  0  0  0
 38 46  1  0  0  0
 38 47  1  0  0  0
 39 64  1  0  0  0
 39 67  2  0  0  0
 40 52  1  0  0  0
 40 53  2  0  0  0
 40 58  1  0  0  0
 41113  1  0  0  0
 41114  1  0  0  0
 41115  1  0  0  0
 41 48  1  0  0  0
 42 43  1  0  0  0
 42 66  1  0  0  0
 42116  1  0  0  0
 42117  1  0  0  0
 43 44  1  0  0  0
 44118  1  0  0  0
 45 46  2  0  0  0
 45119  1  0  0  0
 46120  1  0  0  0
 47121  1  0  0  0
 47122  1  0  0  0
 48 56  1  0  0  0
 48 65  1  0  0  0
 48123  1  0  0  0
 49 50  1  0  0  0
 49 53  1  0  0  0
 49 64  1  0  0  0
 49124  1  0  0  0
 50 51  1  0  0  0
 50125  1  0  0  0
 50126  1  0  0  0
 51 52  1  0  0  0
 51127  1  0  0  0
 51128  1  0  0  0
 52129  1  0  0  0
 52130  1  0  0  0
 53 54  1  0  0  0
 54 55  2  0  0  0
 54131  1  0  0  0
 55 57  1  0  0  0
 55132  1  0  0  0
 56 69  2  0  0  0
 57 58  2  0  0  0
 57133  1  0  0  0
 58134  1  0  0  0
 59 60  1  0  0  0
 59 61  1  0  0  0
 59 62  1  0  0  0
 60135  1  0  0  0
 60136  1  0  0  0
 60137  1  0  0  0
 61138  1  0  0  0
 61139  1  0  0  0
 61140  1  0  0  0
 62141  1  0  0  0
 62142  1  0  0  0
 62143  1  0  0  0
 63 65  1  0  0  0
 63144  1  0  0  0
 63145  1  0  0  0
 63146  1  0  0  0
 64147  1  0  0  0
 65148  1  0  0  0
 68 85  1  0  0  0
 71 72  1  0  0  0
 71 73  2  0  0  0
 71 86  1  0  0  0
 72 74  2  0  0  0
 72 80  1  0  0  0
 73 88  1  0  0  0
 73 79  1  0  0  0
 74 85  1  0  0  0
 74 88  1  0  0  0
 75 77  1  0  0  0
 75 79  1  0  0  0
 75149  1  0  0  0
 75150  1  0  0  0
 76 78  1  0  0  0
 76 79  1  0  0  0
 76151  1  0  0  0
 76152  1  0  0  0
 77 89  1  0  0  0
 77153  1  0  0  0
 77154  1  0  0  0
 78 89  1  0  0  0
 78155  1  0  0  0
 78156  1  0  0  0
 79157  1  0  0  0
 80158  1  0  0  0
 80159  1  0  0  0
 80160  1  0  0  0
 81161  1  0  0  0
 81162  1  0  0  0
 81163  1  0  0  0
 81 86  1  0  0  0
 82 86  1  0  0  0
 82164  1  0  0  0
 82165  1  0  0  0
 82166  1  0  0  0
 83167  1  0  0  0
 83168  1  0  0  0
 83169  1  0  0  0
 83 87  1  0  0  0
 84 87  1  0  0  0
 84170  1  0  0  0
 84171  1  0  0  0
 84172  1  0  0  0
 85173  1  0  0  0
 85174  1  0  0  0
 86175  1  0  0  0
 87 88  1  0  0  0
 87176  1  0  0  0
M  ISO  4   1 100  68 101  85 101  89 100
M  END
> <chiral flag>
0

> <version>
0

> <s_m_source_file>
/data/baiqing/PycharmProjects/Reinvent-master-3.2/result/LINK_invent/BTK/process_docking_weight1_custom_sum_contain_oxygen_bond_distance_aromatic_linkinvent_7_9_3/rearranged_h_0164.sdf

> <i_m_source_file_index>
23

> <r_mmod_Potential_Energy-OPLS-2005>
610.862670898438

> <r_mmod_Stretch_Energy-OPLS-2005>
207.609649658203

> <r_mmod_Bend_Energy-OPLS-2005>
272.415832519531

> <r_mmod_Torsional_Energy-OPLS-2005>
375.249816894531

> <r_mmod_Improper_Torsional_Energy-OPLS-2005>
1.9931263923645

> <r_mmod_Van_der_Waal_Energy-OPLS-2005>
111.951904296875

> <r_mmod_Electrostatic_Energy-OPLS-2005>
-331.695465087891

> <r_mmod_Solvation_Energy-OPLS-2005>
-194.828170776367

> <b_mmod_Minimization_Converged-OPLS-2005>
0

> <r_mmod_RMS_Derivative-OPLS-2005>
0.523243963718414

$$$$
23
                    3D
 Structure written by MMmdl.
163172  0  0  1  0            999 V2000
  -30.6707  -14.7308   20.4735 C   0  0  0  0  0  0
  -30.4162  -12.4564   19.4742 C   0  0  0  0  0  0
  -29.4939  -12.4923   18.2384 C   0  0  0  0  0  0
  -28.0302  -12.2885   18.6664 C   0  0  0  0  0  0
  -27.6296  -13.2102   19.8461 C   0  0  2  0  0  0
  -28.6780  -13.2103   20.9823 C   0  0  0  0  0  0
  -25.2518  -13.8135   20.5760 C   0  0  0  0  0  0
  -24.1769  -13.0422   20.9242 C   0  0  0  0  0  0
  -24.6328  -11.6894   20.8795 C   0  0  0  0  0  0
  -23.9008  -10.4287   21.0443 C   0  0  0  0  0  0
  -24.3584   -9.4203   21.9210 C   0  0  0  0  0  0
  -23.6281   -8.2224   22.0757 C   0  0  0  0  0  0
  -22.4267   -8.0265   21.3537 C   0  0  0  0  0  0
  -21.9884   -9.0239   20.4647 C   0  0  0  0  0  0
  -22.7194  -10.2131   20.3073 C   0  0  0  0  0  0
  -21.6848   -6.0735   22.5281 C   0  0  0  0  0  0
  -21.4005   -6.5641   23.8216 C   0  0  0  0  0  0
  -21.3657   -5.6792   24.9179 C   0  0  0  0  0  0
  -21.6050   -4.3055   24.7227 C   0  0  0  0  0  0
  -21.8821   -3.8146   23.4346 C   0  0  0  0  0  0
  -21.9187   -4.6963   22.3402 C   0  0  0  0  0  0
  -22.7804  -13.5238   21.1885 C   0  0  0  0  0  0
  -22.1661   -4.2153   21.0977 F   0  0  0  0  0  0
  -21.5634   -3.4536   25.7733 F   0  0  0  0  0  0
  -29.9778  -13.5416   20.3861 N   0  0  0  0  0  0
  -26.2875  -12.9271   20.3330 N   0  0  0  0  0  0
  -25.9244  -11.6448   20.5817 N   0  0  0  0  0  0
  -22.0438  -12.8236   22.0444 N   0  0  0  0  0  0
  -25.4336  -15.1846   20.4212 N   0  0  0  0  0  0
  -31.8677  -14.7413   20.1710 O   0  0  0  0  0  0
  -21.6632   -6.8869   21.4237 O   0  0  0  0  0  0
  -22.3518  -14.5566   20.6756 O   0  0  0  0  0  0
  -24.6332  -31.8591   23.2026 C   0  0  0  0  0  0
  -25.9175  -32.4777   23.8359 C   0  0  1  0  0  0
  -27.1977  -27.2600   20.1240 C   0  0  0  0  0  0
  -25.6004  -33.8574   24.2314 N   0  0  0  0  0  0
  -23.4269  -30.4889   21.5440 C   0  0  2  0  0  0
  -24.8703  -28.9509   20.1053 C   0  0  0  0  0  0
  -22.7505  -29.4646   22.4879 C   0  0  0  0  0  0
  -18.0288  -28.1391   22.8495 C   0  0  0  0  0  0
  -24.1481  -36.7271   23.2630 C   0  0  0  0  0  0
  -25.9766  -30.7713   21.3838 C   0  0  0  0  0  0
  -26.0450  -29.3952   20.7267 C   0  0  0  0  0  0
  -27.2114  -28.5605   20.7342 C   0  0  0  0  0  0
  -26.0032  -26.9135   19.4417 C   0  0  0  0  0  0
  -24.8561  -27.7181   19.4511 C   0  0  0  0  0  0
  -23.6446  -29.8362   20.1567 C   0  0  0  0  0  0
  -25.4105  -36.3084   24.0335 C   0  0  1  0  0  0
  -20.5898  -28.3709   23.1246 C   0  0  2  0  0  0
  -20.6766  -26.9412   22.5420 C   0  0  0  0  0  0
  -19.5756  -26.6382   21.5211 C   0  0  0  0  0  0
  -18.1929  -26.7941   22.1603 C   0  0  0  0  0  0
  -19.1550  -28.8856   23.2876 C   0  0  0  0  0  0
  -18.9473  -30.1455   23.8898 C   0  0  0  0  0  0
  -17.6477  -30.6593   24.0562 C   0  0  0  0  0  0
  -25.9063  -34.9455   23.5112 C   0  0  0  0  0  0
  -16.5365  -29.9100   23.6313 C   0  0  0  0  0  0
  -16.7274  -28.6502   23.0357 C   0  0  0  0  0  0
  -26.4518  -31.6576   25.0735 C   0  0  0  0  0  0
  -25.3722  -31.3748   26.1443 C   0  0  0  0  0  0
  -27.0322  -30.2969   24.6242 C   0  0  0  0  0  0
  -27.6137  -32.4249   25.7493 C   0  0  0  0  0  0
  -27.5572  -37.1784   24.8452 C   0  0  0  0  0  0
  -21.4203  -29.3071   22.3626 N   0  0  0  0  0  0
  -26.4260  -37.3805   23.9435 N   0  0  0  0  0  0
  -24.6981  -31.0581   22.0999 N   0  0  0  0  0  0
  -23.4218  -28.8151   23.2944 O   0  0  0  0  0  0
  -28.2465  -26.3054   20.2221 O   0  0  0  0  0  0
  -26.5597  -34.8920   22.4667 O   0  0  0  0  0  0
  -23.5477  -32.1391   23.7327 O   0  0  0  0  0  0
  -28.8908  -21.3887   21.5501 C   0  0  0  0  0  0
  -29.2493  -22.8414   19.2020 C   0  0  0  0  0  0
  -29.4376  -20.6692   20.4460 C   0  0  0  0  0  0
  -28.4895  -22.7708   21.4700 C   0  0  0  0  0  0
  -29.6270  -21.4627   19.2720 C   0  0  0  0  0  0
  -28.6348  -23.5418   20.2726 C   0  0  0  0  0  0
  -30.2068  -18.4058   21.7959 C   0  0  0  0  0  0
  -28.8006  -18.1205   19.8740 C   0  0  0  0  0  0
  -30.7825  -16.9409   21.5900 C   0  0  0  0  0  0
  -29.3587  -16.6649   19.6153 C   0  0  0  0  0  0
  -29.8299  -19.1147   20.4701 C   0  0  0  0  0  0
  -27.8163  -23.3888   22.6831 C   0  0  0  0  0  0
  -30.2260  -20.8469   18.0185 C   0  0  0  0  0  0
  -27.8303  -24.8830   19.9697 C   0  0  0  0  0  0
  -30.0306  -15.9459   20.7464 N   0  0  0  0  0  0
  -31.4554  -12.5626   19.1598 H   0  0  0  0  0  0
  -30.3570  -11.4906   19.9791 H   0  0  0  0  0  0
  -29.7857  -11.7219   17.5235 H   0  0  0  0  0  0
  -29.5953  -13.4486   17.7231 H   0  0  0  0  0  0
  -27.9148  -11.2426   18.9578 H   0  0  0  0  0  0
  -27.3593  -12.4412   17.8196 H   0  0  0  0  0  0
  -27.5917  -14.2070   19.4203 H   0  0  0  0  0  0
  -28.7223  -12.2404   21.4799 H   0  0  0  0  0  0
  -28.4060  -13.9398   21.7470 H   0  0  0  0  0  0
  -25.2727   -9.5693   22.4796 H   0  0  0  0  0  0
  -24.0011   -7.4601   22.7454 H   0  0  0  0  0  0
  -21.0827   -8.8754   19.8934 H   0  0  0  0  0  0
  -22.3655  -10.9688   19.6196 H   0  0  0  0  0  0
  -21.1998   -7.6150   23.9722 H   0  0  0  0  0  0
  -21.1480   -6.0520   25.9083 H   0  0  0  0  0  0
  -22.0603   -2.7608   23.2837 H   0  0  0  0  0  0
  -22.4018  -11.9863   22.4802 H   0  0  0  0  0  0
  -21.1072  -13.1303   22.2687 H   0  0  0  0  0  0
  -24.6878  -15.8579   20.5580 H   0  0  0  0  0  0
  -26.3119  -15.6142   20.1608 H   0  0  0  0  0  0
  -26.7240  -32.5424   23.1098 H   0  0  0  0  0  0
  -25.0230  -33.9735   25.0506 H   0  0  0  0  0  0
  -22.7251  -31.3128   21.4032 H   0  0  0  0  0  0
  -23.3771  -35.9575   23.3274 H   0  0  0  0  0  0
  -24.3573  -36.8904   22.2048 H   0  0  0  0  0  0
  -23.7180  -37.6451   23.6647 H   0  0  0  0  0  0
  -26.1113  -31.5283   20.6094 H   0  0  0  0  0  0
  -26.8593  -30.8251   22.0108 H   0  0  0  0  0  0
  -28.0982  -28.8883   21.2577 H   0  0  0  0  0  0
  -25.8873  -25.9861   18.9037 H   0  0  0  0  0  0
  -23.9627  -27.3797   18.9437 H   0  0  0  0  0  0
  -23.7686  -30.6170   19.4051 H   0  0  0  0  0  0
  -22.7619  -29.2718   19.8476 H   0  0  0  0  0  0
  -25.1273  -36.1940   25.0820 H   0  0  0  0  0  0
  -21.0021  -28.3295   24.1352 H   0  0  0  0  0  0
  -20.5618  -26.2330   23.3643 H   0  0  0  0  0  0
  -21.6633  -26.7385   22.1246 H   0  0  0  0  0  0
  -19.6918  -25.6290   21.1240 H   0  0  0  0  0  0
  -19.6707  -27.3180   20.6734 H   0  0  0  0  0  0
  -17.4212  -26.6722   21.3994 H   0  0  0  0  0  0
  -18.0297  -26.0080   22.8980 H   0  0  0  0  0  0
  -19.7954  -30.7271   24.2290 H   0  0  0  0  0  0
  -17.5026  -31.6278   24.5170 H   0  0  0  0  0  0
  -15.5369  -30.3013   23.7626 H   0  0  0  0  0  0
  -15.8667  -28.0817   22.7087 H   0  0  0  0  0  0
  -24.6124  -30.6798   25.7844 H   0  0  0  0  0  0
  -24.8617  -32.2867   26.4550 H   0  0  0  0  0  0
  -25.8057  -30.9274   27.0397 H   0  0  0  0  0  0
  -26.2897  -29.6762   24.1211 H   0  0  0  0  0  0
  -27.3903  -29.7212   25.4791 H   0  0  0  0  0  0
  -27.8834  -30.4204   23.9541 H   0  0  0  0  0  0
  -27.2922  -33.3732   26.1812 H   0  0  0  0  0  0
  -28.4093  -32.6449   25.0358 H   0  0  0  0  0  0
  -28.0598  -31.8453   26.5594 H   0  0  0  0  0  0
  -28.2565  -38.0108   24.7558 H   0  0  0  0  0  0
  -28.1098  -36.2648   24.6195 H   0  0  0  0  0  0
  -27.2313  -37.1333   25.8859 H   0  0  0  0  0  0
  -20.9382  -29.8821   21.6857 H   0  0  0  0  0  0
  -26.0142  -38.2873   24.1494 H   0  0  0  0  0  0
  -28.7349  -20.8575   22.4789 H   0  0  0  0  0  0
  -29.3546  -23.3576   18.2572 H   0  0  0  0  0  0
  -30.9576  -19.0023   22.3181 H   0  0  0  0  0  0
  -29.3455  -18.3727   22.4647 H   0  0  0  0  0  0
  -27.9334  -18.0654   20.5334 H   0  0  0  0  0  0
  -28.4162  -18.5164   18.9349 H   0  0  0  0  0  0
  -30.9526  -16.4950   22.5701 H   0  0  0  0  0  0
  -31.7766  -17.0623   21.1585 H   0  0  0  0  0  0
  -30.0617  -16.7155   18.7810 H   0  0  0  0  0  0
  -28.5321  -16.0687   19.2378 H   0  0  0  0  0  0
  -30.7337  -19.0519   19.8646 H   0  0  0  0  0  0
  -28.2922  -23.0521   23.6044 H   0  0  0  0  0  0
  -26.7634  -23.1041   22.7189 H   0  0  0  0  0  0
  -27.8775  -24.4782   22.6695 H   0  0  0  0  0  0
  -29.9707  -21.4263   17.1317 H   0  0  0  0  0  0
  -29.8666  -19.8349   17.8427 H   0  0  0  0  0  0
  -31.3120  -20.8135   18.1023 H   0  0  0  0  0  0
  -26.8694  -24.7189   20.4607 H   0  0  0  0  0  0
  -27.6333  -24.8231   18.8999 H   0  0  0  0  0  0
  1 25  1  0  0  0
  1 30  2  0  0  0
  1 85  1  0  0  0
  2  3  1  0  0  0
  2 25  1  0  0  0
  2 86  1  0  0  0
  2 87  1  0  0  0
  3  4  1  0  0  0
  3 88  1  0  0  0
  3 89  1  0  0  0
  4  5  1  0  0  0
  4 90  1  0  0  0
  4 91  1  0  0  0
  5  6  1  0  0  0
  5 26  1  0  0  0
  5 92  1  0  0  0
  6 25  1  0  0  0
  6 93  1  0  0  0
  6 94  1  0  0  0
  7  8  2  0  0  0
  7 26  1  0  0  0
  7 29  1  0  0  0
  8  9  1  0  0  0
  8 22  1  0  0  0
  9 10  1  0  0  0
  9 27  2  0  0  0
 10 11  2  0  0  0
 10 15  1  0  0  0
 11 12  1  0  0  0
 11 95  1  0  0  0
 12 13  2  0  0  0
 12 96  1  0  0  0
 13 14  1  0  0  0
 13 31  1  0  0  0
 14 15  2  0  0  0
 14 97  1  0  0  0
 15 98  1  0  0  0
 16 17  2  0  0  0
 16 21  1  0  0  0
 16 31  1  0  0  0
 17 18  1  0  0  0
 17 99  1  0  0  0
 18 19  2  0  0  0
 18100  1  0  0  0
 19 20  1  0  0  0
 19 24  1  0  0  0
 20 21  2  0  0  0
 20101  1  0  0  0
 21 23  1  0  0  0
 22 28  1  0  0  0
 22 32  2  0  0  0
 26 27  1  0  0  0
 28102  1  0  0  0
 28103  1  0  0  0
 29104  1  0  0  0
 29105  1  0  0  0
 33 34  1  0  0  0
 33 66  1  0  0  0
 33 70  2  0  0  0
 34 36  1  0  0  0
 34 59  1  0  0  0
 34106  1  0  0  0
 35 44  2  0  0  0
 35 45  1  0  0  0
 35 68  1  0  0  0
 36 56  1  0  0  0
 36107  1  0  0  0
 37 39  1  0  0  0
 37 47  1  0  0  0
 37 66  1  0  0  0
 37108  1  0  0  0
 38 43  2  0  0  0
 38 46  1  0  0  0
 38 47  1  0  0  0
 39 64  1  0  0  0
 39 67  2  0  0  0
 40 52  1  0  0  0
 40 53  2  0  0  0
 40 58  1  0  0  0
 41109  1  0  0  0
 41110  1  0  0  0
 41111  1  0  0  0
 41 48  1  0  0  0
 42 43  1  0  0  0
 42 66  1  0  0  0
 42112  1  0  0  0
 42113  1  0  0  0
 43 44  1  0  0  0
 44114  1  0  0  0
 45 46  2  0  0  0
 45115  1  0  0  0
 46116  1  0  0  0
 47117  1  0  0  0
 47118  1  0  0  0
 48 56  1  0  0  0
 48 65  1  0  0  0
 48119  1  0  0  0
 49 50  1  0  0  0
 49 53  1  0  0  0
 49 64  1  0  0  0
 49120  1  0  0  0
 50 51  1  0  0  0
 50121  1  0  0  0
 50122  1  0  0  0
 51 52  1  0  0  0
 51123  1  0  0  0
 51124  1  0  0  0
 52125  1  0  0  0
 52126  1  0  0  0
 53 54  1  0  0  0
 54 55  2  0  0  0
 54127  1  0  0  0
 55 57  1  0  0  0
 55128  1  0  0  0
 56 69  2  0  0  0
 57 58  2  0  0  0
 57129  1  0  0  0
 58130  1  0  0  0
 59 60  1  0  0  0
 59 61  1  0  0  0
 59 62  1  0  0  0
 60131  1  0  0  0
 60132  1  0  0  0
 60133  1  0  0  0
 61134  1  0  0  0
 61135  1  0  0  0
 61136  1  0  0  0
 62137  1  0  0  0
 62138  1  0  0  0
 62139  1  0  0  0
 63 65  1  0  0  0
 63140  1  0  0  0
 63141  1  0  0  0
 63142  1  0  0  0
 64143  1  0  0  0
 65144  1  0  0  0
 68 84  1  0  0  0
 71 73  2  0  0  0
 71 74  1  0  0  0
 71145  1  0  0  0
 72 75  2  0  0  0
 72 76  1  0  0  0
 72146  1  0  0  0
 73 75  1  0  0  0
 73 81  1  0  0  0
 74 76  2  0  0  0
 74 82  1  0  0  0
 75 83  1  0  0  0
 76 84  1  0  0  0
 77 79  1  0  0  0
 77 81  1  0  0  0
 77147  1  0  0  0
 77148  1  0  0  0
 78 80  1  0  0  0
 78 81  1  0  0  0
 78149  1  0  0  0
 78150  1  0  0  0
 79 85  1  0  0  0
 79151  1  0  0  0
 79152  1  0  0  0
 80 85  1  0  0  0
 80153  1  0  0  0
 80154  1  0  0  0
 81155  1  0  0  0
 82156  1  0  0  0
 82157  1  0  0  0
 82158  1  0  0  0
 83159  1  0  0  0
 83160  1  0  0  0
 83161  1  0  0  0
 84162  1  0  0  0
 84163  1  0  0  0
M  ISO  4   1 100  68 101  84 101  85 100
M  END
> <chiral flag>
0

> <version>
0

> <s_m_source_file>
/data/baiqing/PycharmProjects/Reinvent-master-3.2/result/LINK_invent/BTK/process_docking_weight1_custom_sum_contain_oxygen_bond_distance_aromatic_linkinvent_7_9_3/rearranged_h_0164.sdf

> <i_m_source_file_index>
24

> <r_mmod_Potential_Energy-OPLS-2005>
445.992401123047

> <r_mmod_Stretch_Energy-OPLS-2005>
112.913131713867

> <r_mmod_Bend_Energy-OPLS-2005>
198.616317749023

> <r_mmod_Torsional_Energy-OPLS-2005>
340.981109619141

> <r_mmod_Improper_Torsional_Energy-OPLS-2005>
10.7901315689087

> <r_mmod_Van_der_Waal_Energy-OPLS-2005>
159.974960327148

> <r_mmod_Electrostatic_Energy-OPLS-2005>
-280.852233886719

> <r_mmod_Solvation_Energy-OPLS-2005>
-191.794982910156

> <b_mmod_Minimization_Converged-OPLS-2005>
0

> <r_mmod_RMS_Derivative-OPLS-2005>
3.28103065490723

$$$$
24
                    3D
 Structure written by MMmdl.
160169  0  0  1  0            999 V2000
  -30.4892  -15.3704   20.3783 C   0  0  0  0  0  0
  -30.4140  -12.9112   19.4936 C   0  0  0  0  0  0
  -29.5222  -12.5937   18.2721 C   0  0  0  0  0  0
  -28.0870  -12.2914   18.7285 C   0  0  0  0  0  0
  -27.5983  -13.2897   19.8076 C   0  0  2  0  0  0
  -28.6376  -13.5611   20.9185 C   0  0  0  0  0  0
  -25.2354  -13.8273   20.5801 C   0  0  0  0  0  0
  -24.1715  -13.0440   20.9291 C   0  0  0  0  0  0
  -24.6391  -11.6941   20.8786 C   0  0  0  0  0  0
  -23.9096  -10.4288   21.0408 C   0  0  0  0  0  0
  -24.3636   -9.4202   21.9184 C   0  0  0  0  0  0
  -23.6307   -8.2242   22.0755 C   0  0  0  0  0  0
  -22.4288   -8.0283   21.3550 C   0  0  0  0  0  0
  -21.9938   -9.0247   20.4644 C   0  0  0  0  0  0
  -22.7272  -10.2121   20.3055 C   0  0  0  0  0  0
  -21.6857   -6.0732   22.5267 C   0  0  0  0  0  0
  -21.4031   -6.5638   23.8200 C   0  0  0  0  0  0
  -21.3676   -5.6789   24.9164 C   0  0  0  0  0  0
  -21.6048   -4.3046   24.7217 C   0  0  0  0  0  0
  -21.8806   -3.8142   23.4331 C   0  0  0  0  0  0
  -21.9184   -4.6959   22.3391 C   0  0  0  0  0  0
  -22.7722  -13.5181   21.1896 C   0  0  0  0  0  0
  -22.1645   -4.2142   21.0967 F   0  0  0  0  0  0
  -21.5638   -3.4534   25.7736 F   0  0  0  0  0  0
  -29.8279  -14.1042   20.2323 N   0  0  0  0  0  0
  -26.2787  -12.9574   20.3236 N   0  0  0  0  0  0
  -25.9339  -11.6658   20.5737 N   0  0  0  0  0  0
  -22.0368  -12.8180   22.0455 N   0  0  0  0  0  0
  -25.3949  -15.2017   20.4273 N   0  0  0  0  0  0
  -31.7173  -15.1732   20.3277 O   0  0  0  0  0  0
  -21.6658   -6.8878   21.4233 O   0  0  0  0  0  0
  -22.3414  -14.5468   20.6698 O   0  0  0  0  0  0
  -24.6691  -31.8171   23.1651 C   0  0  0  0  0  0
  -25.9350  -32.4551   23.8136 C   0  0  1  0  0  0
  -27.2147  -26.8605   20.1866 C   0  0  0  0  0  0
  -25.5979  -33.8370   24.2040 N   0  0  0  0  0  0
  -23.4878  -30.4275   21.5151 C   0  0  2  0  0  0
  -24.9413  -28.8010   20.1146 C   0  0  0  0  0  0
  -22.7700  -29.4413   22.4747 C   0  0  0  0  0  0
  -18.0325  -28.1415   22.8459 C   0  0  0  0  0  0
  -24.1493  -36.7193   23.2648 C   0  0  0  0  0  0
  -26.0612  -30.6028   21.4043 C   0  0  0  0  0  0
  -26.1282  -29.1844   20.7502 C   0  0  0  0  0  0
  -27.2591  -28.2369   20.7598 C   0  0  0  0  0  0
  -25.9972  -26.6475   19.5019 C   0  0  0  0  0  0
  -24.9037  -27.5551   19.4694 C   0  0  0  0  0  0
  -23.7324  -29.7384   20.1442 C   0  0  0  0  0  0
  -25.4133  -36.2947   24.0296 C   0  0  1  0  0  0
  -20.5963  -28.3763   23.1169 C   0  0  2  0  0  0
  -20.6803  -26.9436   22.5400 C   0  0  0  0  0  0
  -19.5775  -26.6375   21.5209 C   0  0  0  0  0  0
  -18.1956  -26.7942   22.1623 C   0  0  0  0  0  0
  -19.1593  -28.8904   23.2805 C   0  0  0  0  0  0
  -18.9502  -30.1495   23.8847 C   0  0  0  0  0  0
  -17.6491  -30.6601   24.0554 C   0  0  0  0  0  0
  -25.9103  -34.9333   23.4996 C   0  0  0  0  0  0
  -16.5380  -29.9088   23.6348 C   0  0  0  0  0  0
  -16.7302  -28.6513   23.0353 C   0  0  0  0  0  0
  -26.4566  -31.6520   25.0696 C   0  0  0  0  0  0
  -25.3664  -31.3794   26.1331 C   0  0  0  0  0  0
  -27.0461  -30.2874   24.6466 C   0  0  0  0  0  0
  -27.6055  -32.4330   25.7505 C   0  0  0  0  0  0
  -27.5571  -37.1746   24.8458 C   0  0  0  0  0  0
  -21.4364  -29.3045   22.3507 N   0  0  0  0  0  0
  -26.4267  -37.3700   23.9420 N   0  0  0  0  0  0
  -24.7615  -30.9776   22.0814 N   0  0  0  0  0  0
  -23.4218  -28.7980   23.3012 O   0  0  0  0  0  0
  -28.1972  -25.7132   20.2465 O   0  0  0  0  0  0
  -26.5725  -34.8882   22.4600 O   0  0  0  0  0  0
  -23.5750  -32.1167   23.6708 O   0  0  0  0  0  0
  -30.6257  -20.0739   19.9135 C   0  0  0  0  0  0
  -29.3025  -19.7799   20.2734 C   0  0  0  0  0  0
  -31.0788  -21.4334   19.7561 C   0  0  0  0  0  0
  -28.4440  -21.0694   20.3843 C   0  0  0  0  0  0
  -30.2220  -22.6029   19.8078 C   0  0  0  0  0  0
  -28.8367  -22.5575   20.1578 C   0  0  0  0  0  0
  -31.5579  -18.8513   19.7167 C   0  0  0  0  0  0
  -29.0483  -18.0620   20.5384 C   0  0  0  0  0  0
  -30.8843  -17.5555   19.1349 C   0  0  0  0  0  0
  -32.5831  -21.6319   19.5458 C   0  0  0  0  0  0
  -26.9928  -20.8414   20.7545 C   0  0  0  0  0  0
  -30.8034  -23.9672   19.4413 C   0  0  0  0  0  0
  -27.8736  -24.0651   20.1599 C   0  0  0  0  0  0
  -30.0090  -16.7853   20.0638 N   0  0  0  0  0  0
  -31.4248  -13.1085   19.1341 H   0  0  0  0  0  0
  -30.5034  -12.0412   20.1472 H   0  0  0  0  0  0
  -29.9278  -11.7558   17.7038 H   0  0  0  0  0  0
  -29.5180  -13.4518   17.5978 H   0  0  0  0  0  0
  -28.0778  -11.2808   19.1394 H   0  0  0  0  0  0
  -27.4063  -12.2817   17.8762 H   0  0  0  0  0  0
  -27.4809  -14.2306   19.2689 H   0  0  0  0  0  0
  -28.8533  -12.6653   21.5016 H   0  0  0  0  0  0
  -28.2570  -14.3078   21.6176 H   0  0  0  0  0  0
  -25.2764   -9.5709   22.4770 H   0  0  0  0  0  0
  -24.0011   -7.4653   22.7493 H   0  0  0  0  0  0
  -21.0861   -8.8770   19.8956 H   0  0  0  0  0  0
  -22.3714  -10.9664   19.6174 H   0  0  0  0  0  0
  -21.2039   -7.6150   23.9705 H   0  0  0  0  0  0
  -21.1522   -6.0524   25.9068 H   0  0  0  0  0  0
  -22.0578   -2.7607   23.2820 H   0  0  0  0  0  0
  -22.4017  -11.9895   22.4912 H   0  0  0  0  0  0
  -21.0963  -13.1179   22.2612 H   0  0  0  0  0  0
  -24.6273  -15.8515   20.5607 H   0  0  0  0  0  0
  -26.2414  -15.6494   20.1006 H   0  0  0  0  0  0
  -26.7418  -32.5079   23.0851 H   0  0  0  0  0  0
  -25.0057  -33.9430   25.0132 H   0  0  0  0  0  0
  -22.8046  -31.2621   21.3387 H   0  0  0  0  0  0
  -23.3782  -35.9496   23.3251 H   0  0  0  0  0  0
  -24.3574  -36.8908   22.2076 H   0  0  0  0  0  0
  -23.7222  -37.6345   23.6747 H   0  0  0  0  0  0
  -26.2447  -31.3386   20.6203 H   0  0  0  0  0  0
  -26.9205  -30.6652   22.0603 H   0  0  0  0  0  0
  -28.1574  -28.5295   21.2847 H   0  0  0  0  0  0
  -25.8514  -25.6998   19.0048 H   0  0  0  0  0  0
  -24.0019  -27.2553   18.9527 H   0  0  0  0  0  0
  -23.9003  -30.5047   19.3861 H   0  0  0  0  0  0
  -22.8398  -29.1998   19.8202 H   0  0  0  0  0  0
  -25.1336  -36.1725   25.0784 H   0  0  0  0  0  0
  -21.0049  -28.3381   24.1293 H   0  0  0  0  0  0
  -20.5676  -26.2381   23.3649 H   0  0  0  0  0  0
  -21.6665  -26.7399   22.1217 H   0  0  0  0  0  0
  -19.6933  -25.6266   21.1280 H   0  0  0  0  0  0
  -19.6718  -27.3154   20.6712 H   0  0  0  0  0  0
  -17.4226  -26.6679   21.4026 H   0  0  0  0  0  0
  -18.0361  -26.0100   22.9040 H   0  0  0  0  0  0
  -19.7979  -30.7319   24.2206 H   0  0  0  0  0  0
  -17.5042  -31.6272   24.5177 H   0  0  0  0  0  0
  -15.5375  -30.2965   23.7701 H   0  0  0  0  0  0
  -15.8713  -28.0808   22.7085 H   0  0  0  0  0  0
  -24.5837  -30.7164   25.7624 H   0  0  0  0  0  0
  -24.8855  -32.3002   26.4645 H   0  0  0  0  0  0
  -25.7858  -30.9010   27.0189 H   0  0  0  0  0  0
  -26.3116  -29.6525   24.1492 H   0  0  0  0  0  0
  -27.3985  -29.7283   25.5145 H   0  0  0  0  0  0
  -27.9074  -30.4047   23.9890 H   0  0  0  0  0  0
  -27.2615  -33.3666   26.1977 H   0  0  0  0  0  0
  -28.3923  -32.6830   25.0374 H   0  0  0  0  0  0
  -28.0654  -31.8514   26.5507 H   0  0  0  0  0  0
  -28.2543  -38.0088   24.7548 H   0  0  0  0  0  0
  -28.1112  -36.2613   24.6225 H   0  0  0  0  0  0
  -27.2294  -37.1326   25.8861 H   0  0  0  0  0  0
  -20.9622  -29.8711   21.6607 H   0  0  0  0  0  0
  -26.0107  -38.2750   24.1447 H   0  0  0  0  0  0
  -32.0489  -18.6205   20.6631 H   0  0  0  0  0  0
  -32.3540  -19.1160   19.0218 H   0  0  0  0  0  0
  -28.0590  -17.8426   20.1354 H   0  0  0  0  0  0
  -28.9358  -17.9519   21.6181 H   0  0  0  0  0  0
  -31.6732  -16.9306   18.7164 H   0  0  0  0  0  0
  -30.2920  -17.8318   18.2619 H   0  0  0  0  0  0
  -33.1583  -20.9121   20.1288 H   0  0  0  0  0  0
  -32.9388  -22.6019   19.8890 H   0  0  0  0  0  0
  -32.8493  -21.5135   18.4951 H   0  0  0  0  0  0
  -26.8120  -19.8069   21.0475 H   0  0  0  0  0  0
  -26.3440  -21.0703   19.9093 H   0  0  0  0  0  0
  -26.7055  -21.4778   21.5917 H   0  0  0  0  0  0
  -31.6091  -23.8913   18.7118 H   0  0  0  0  0  0
  -31.1800  -24.4776   20.3274 H   0  0  0  0  0  0
  -30.0669  -24.6088   18.9603 H   0  0  0  0  0  0
  -27.1144  -23.9016   20.9254 H   0  0  0  0  0  0
  -27.3256  -23.9720   19.2222 H   0  0  0  0  0  0
  1 25  1  0  0  0
  1 30  2  0  0  0
  1 84  1  0  0  0
  2  3  1  0  0  0
  2 25  1  0  0  0
  2 85  1  0  0  0
  2 86  1  0  0  0
  3  4  1  0  0  0
  3 87  1  0  0  0
  3 88  1  0  0  0
  4  5  1  0  0  0
  4 89  1  0  0  0
  4 90  1  0  0  0
  5  6  1  0  0  0
  5 26  1  0  0  0
  5 91  1  0  0  0
  6 25  1  0  0  0
  6 92  1  0  0  0
  6 93  1  0  0  0
  7  8  2  0  0  0
  7 26  1  0  0  0
  7 29  1  0  0  0
  8  9  1  0  0  0
  8 22  1  0  0  0
  9 10  1  0  0  0
  9 27  2  0  0  0
 10 11  2  0  0  0
 10 15  1  0  0  0
 11 12  1  0  0  0
 11 94  1  0  0  0
 12 13  2  0  0  0
 12 95  1  0  0  0
 13 14  1  0  0  0
 13 31  1  0  0  0
 14 15  2  0  0  0
 14 96  1  0  0  0
 15 97  1  0  0  0
 16 17  2  0  0  0
 16 21  1  0  0  0
 16 31  1  0  0  0
 17 18  1  0  0  0
 17 98  1  0  0  0
 18 19  2  0  0  0
 18 99  1  0  0  0
 19 20  1  0  0  0
 19 24  1  0  0  0
 20 21  2  0  0  0
 20100  1  0  0  0
 21 23  1  0  0  0
 22 28  1  0  0  0
 22 32  2  0  0  0
 26 27  1  0  0  0
 28101  1  0  0  0
 28102  1  0  0  0
 29103  1  0  0  0
 29104  1  0  0  0
 33 34  1  0  0  0
 33 66  1  0  0  0
 33 70  2  0  0  0
 34 36  1  0  0  0
 34 59  1  0  0  0
 34105  1  0  0  0
 35 44  2  0  0  0
 35 45  1  0  0  0
 35 68  1  0  0  0
 36 56  1  0  0  0
 36106  1  0  0  0
 37 39  1  0  0  0
 37 47  1  0  0  0
 37 66  1  0  0  0
 37107  1  0  0  0
 38 43  2  0  0  0
 38 46  1  0  0  0
 38 47  1  0  0  0
 39 64  1  0  0  0
 39 67  2  0  0  0
 40 52  1  0  0  0
 40 53  2  0  0  0
 40 58  1  0  0  0
 41108  1  0  0  0
 41109  1  0  0  0
 41110  1  0  0  0
 41 48  1  0  0  0
 42 43  1  0  0  0
 42 66  1  0  0  0
 42111  1  0  0  0
 42112  1  0  0  0
 43 44  1  0  0  0
 44113  1  0  0  0
 45 46  2  0  0  0
 45114  1  0  0  0
 46115  1  0  0  0
 47116  1  0  0  0
 47117  1  0  0  0
 48 56  1  0  0  0
 48 65  1  0  0  0
 48118  1  0  0  0
 49 50  1  0  0  0
 49 53  1  0  0  0
 49 64  1  0  0  0
 49119  1  0  0  0
 50 51  1  0  0  0
 50120  1  0  0  0
 50121  1  0  0  0
 51 52  1  0  0  0
 51122  1  0  0  0
 51123  1  0  0  0
 52124  1  0  0  0
 52125  1  0  0  0
 53 54  1  0  0  0
 54 55  2  0  0  0
 54126  1  0  0  0
 55 57  1  0  0  0
 55127  1  0  0  0
 56 69  2  0  0  0
 57 58  2  0  0  0
 57128  1  0  0  0
 58129  1  0  0  0
 59 60  1  0  0  0
 59 61  1  0  0  0
 59 62  1  0  0  0
 60130  1  0  0  0
 60131  1  0  0  0
 60132  1  0  0  0
 61133  1  0  0  0
 61134  1  0  0  0
 61135  1  0  0  0
 62136  1  0  0  0
 62137  1  0  0  0
 62138  1  0  0  0
 63 65  1  0  0  0
 63139  1  0  0  0
 63140  1  0  0  0
 63141  1  0  0  0
 64142  1  0  0  0
 65143  1  0  0  0
 68 83  1  0  0  0
 71 72  1  0  0  0
 71 73  2  0  0  0
 71 77  1  0  0  0
 72 74  2  0  0  0
 72 78  1  0  0  0
 73 75  1  0  0  0
 73 80  1  0  0  0
 74 76  1  0  0  0
 74 81  1  0  0  0
 75 76  2  0  0  0
 75 82  1  0  0  0
 76 83  1  0  0  0
 77 79  1  0  0  0
 77144  1  0  0  0
 77145  1  0  0  0
 78 84  1  0  0  0
 78146  1  0  0  0
 78147  1  0  0  0
 79 84  1  0  0  0
 79148  1  0  0  0
 79149  1  0  0  0
 80150  1  0  0  0
 80151  1  0  0  0
 80152  1  0  0  0
 81153  1  0  0  0
 81154  1  0  0  0
 81155  1  0  0  0
 82156  1  0  0  0
 82157  1  0  0  0
 82158  1  0  0  0
 83159  1  0  0  0
 83160  1  0  0  0
M  ISO  4   1 100  68 101  83 101  84 100
M  END
> <chiral flag>
0

> <version>
0

> <s_m_source_file>
/data/baiqing/PycharmProjects/Reinvent-master-3.2/result/LINK_invent/BTK/process_docking_weight1_custom_sum_contain_oxygen_bond_distance_aromatic_linkinvent_7_9_3/rearranged_h_0164.sdf

> <i_m_source_file_index>
25

> <r_mmod_Potential_Energy-OPLS-2005>
1668.14367675781

> <r_mmod_Stretch_Energy-OPLS-2005>
672.881958007812

> <r_mmod_Bend_Energy-OPLS-2005>
480.705444335938

> <r_mmod_Torsional_Energy-OPLS-2005>
301.033233642578

> <r_mmod_Improper_Torsional_Energy-OPLS-2005>
21.5810661315918

> <r_mmod_Van_der_Waal_Energy-OPLS-2005>
152.519348144531

> <r_mmod_Electrostatic_Energy-OPLS-2005>
-327.938629150391

> <r_mmod_Solvation_Energy-OPLS-2005>
-203.409484863281

> <b_mmod_Minimization_Converged-OPLS-2005>
0

> <r_mmod_RMS_Derivative-OPLS-2005>
2.33322858810425

$$$$
25
                    3D
 Structure written by MMmdl.
177187  0  0  1  0            999 V2000
  -30.5974  -14.8968   20.3687 C   0  0  0  0  0  0
  -30.4477  -12.5031   19.5486 C   0  0  0  0  0  0
  -29.5492  -12.2133   18.3288 C   0  0  0  0  0  0
  -28.0331  -12.2908   18.6424 C   0  0  0  0  0  0
  -27.6237  -13.2444   19.8044 C   0  0  2  0  0  0
  -28.6654  -13.3066   20.9286 C   0  0  0  0  0  0
  -25.2492  -13.8283   20.5685 C   0  0  0  0  0  0
  -24.1797  -13.0528   20.9236 C   0  0  0  0  0  0
  -24.6392  -11.7012   20.8795 C   0  0  0  0  0  0
  -23.9083  -10.4372   21.0431 C   0  0  0  0  0  0
  -24.3632   -9.4279   21.9197 C   0  0  0  0  0  0
  -23.6335   -8.2291   22.0738 C   0  0  0  0  0  0
  -22.4318   -8.0334   21.3527 C   0  0  0  0  0  0
  -21.9954   -9.0319   20.4639 C   0  0  0  0  0  0
  -22.7266  -10.2202   20.3066 C   0  0  0  0  0  0
  -21.6869   -6.0819   22.5272 C   0  0  0  0  0  0
  -21.4033   -6.5688   23.8218 C   0  0  0  0  0  0
  -21.3642   -5.6799   24.9150 C   0  0  0  0  0  0
  -21.6040   -4.3070   24.7159 C   0  0  0  0  0  0
  -21.8827   -3.8204   23.4266 C   0  0  0  0  0  0
  -21.9190   -4.7052   22.3367 C   0  0  0  0  0  0
  -22.7806  -13.5333   21.1810 C   0  0  0  0  0  0
  -22.1666   -4.2277   21.0928 F   0  0  0  0  0  0
  -21.5597   -3.4523   25.7652 F   0  0  0  0  0  0
  -29.9275  -13.6824   20.2871 N   0  0  0  0  0  0
  -26.2869  -12.9496   20.3152 N   0  0  0  0  0  0
  -25.9309  -11.6652   20.5799 N   0  0  0  0  0  0
  -22.0361  -12.8388   22.0339 N   0  0  0  0  0  0
  -25.4279  -15.2001   20.4117 N   0  0  0  0  0  0
  -31.8238  -14.8632   20.2206 O   0  0  0  0  0  0
  -21.6646   -6.8966   21.4247 O   0  0  0  0  0  0
  -22.3514  -14.5617   20.6579 O   0  0  0  0  0  0
  -24.6332  -31.8559   23.1939 C   0  0  0  0  0  0
  -25.9158  -32.4741   23.8307 C   0  0  1  0  0  0
  -27.2152  -27.2078   20.1396 C   0  0  0  0  0  0
  -25.5942  -33.8553   24.2224 N   0  0  0  0  0  0
  -23.4316  -30.4745   21.5412 C   0  0  2  0  0  0
  -24.8782  -28.9142   20.1091 C   0  0  0  0  0  0
  -22.7518  -29.4600   22.4924 C   0  0  0  0  0  0
  -18.0284  -28.1405   22.8438 C   0  0  0  0  0  0
  -24.1488  -36.7265   23.2640 C   0  0  0  0  0  0
  -25.9817  -30.7461   21.3900 C   0  0  0  0  0  0
  -26.0497  -29.3659   20.7255 C   0  0  0  0  0  0
  -27.2134  -28.5257   20.7304 C   0  0  0  0  0  0
  -26.0193  -26.8439   19.4771 C   0  0  0  0  0  0
  -24.8718  -27.6645   19.4714 C   0  0  0  0  0  0
  -23.6535  -29.8091   20.1564 C   0  0  0  0  0  0
  -25.4121  -36.3065   24.0323 C   0  0  1  0  0  0
  -20.5880  -28.3727   23.1252 C   0  0  2  0  0  0
  -20.6786  -26.9458   22.5390 C   0  0  0  0  0  0
  -19.5771  -26.6394   21.5184 C   0  0  0  0  0  0
  -18.1941  -26.7938   22.1590 C   0  0  0  0  0  0
  -19.1535  -28.8881   23.2819 C   0  0  0  0  0  0
  -18.9479  -30.1479   23.8836 C   0  0  0  0  0  0
  -17.6482  -30.6606   24.0551 C   0  0  0  0  0  0
  -25.9078  -34.9443   23.5082 C   0  0  0  0  0  0
  -16.5364  -29.9102   23.6339 C   0  0  0  0  0  0
  -16.7273  -28.6525   23.0337 C   0  0  0  0  0  0
  -26.4488  -31.6582   25.0729 C   0  0  0  0  0  0
  -25.3656  -31.3787   26.1418 C   0  0  0  0  0  0
  -27.0373  -30.2975   24.6323 C   0  0  0  0  0  0
  -27.6011  -32.4349   25.7510 C   0  0  0  0  0  0
  -27.5588  -37.1794   24.8462 C   0  0  0  0  0  0
  -21.4233  -29.3058   22.3670 N   0  0  0  0  0  0
  -26.4289  -37.3773   23.9417 N   0  0  0  0  0  0
  -24.7006  -31.0450   22.0963 N   0  0  0  0  0  0
  -23.4191  -28.8187   23.3076 O   0  0  0  0  0  0
  -28.3137  -26.3030   20.2514 O   0  0  0  0  0  0
  -26.5659  -34.8921   22.4661 O   0  0  0  0  0  0
  -23.5471  -32.1461   23.7165 O   0  0  0  0  0  0
  -27.7734  -18.9694   18.9182 C   0  0  0  0  0  0
  -28.8172  -18.3834   19.6627 C   0  0  0  0  0  0
  -28.7746  -16.4713   18.1485 C   0  0  0  0  0  0
  -27.6895  -17.0676   17.4376 C   0  0  0  0  0  0
  -29.1998  -16.9867   19.4222 C   0  0  0  0  0  0
  -27.1693  -18.3037   17.8410 C   0  0  0  0  0  0
  -31.0106  -15.3506   17.3126 C   0  0  0  0  0  0
  -30.1683  -15.5953   16.1029 C   0  0  0  0  0  0
  -30.3313  -18.5212   21.6683 C   0  0  0  0  0  0
  -30.1552  -16.9399   21.7061 C   0  0  0  0  0  0
  -29.4953  -15.3694   17.4469 C   0  0  0  0  0  0
  -29.6310  -19.3729   20.5526 C   0  0  2  0  0  0
  -25.7197  -15.7276   16.5104 C   0  0  0  0  0  0
  -26.0689  -20.2675   17.0141 C   0  0  0  0  0  0
  -27.0504  -16.4278   16.1956 C   0  0  0  0  0  0
  -28.6099  -23.5252   20.7550 C   0  0  0  0  0  0
  -28.9697  -22.0390   20.1151 C   0  0  0  0  0  0
  -28.3255  -24.8409   19.8012 C   0  0  0  0  0  0
  -29.9521  -16.1741   20.4398 N   0  0  0  0  0  0
  -29.0415  -20.7559   21.0070 N   0  3  0  0  0  0
  -26.1328  -18.8499   17.1153 O   0  0  0  0  0  0
  -31.4764  -12.6374   19.2170 H   0  0  0  0  0  0
  -30.4698  -11.6440   20.2214 H   0  0  0  0  0  0
  -29.7609  -11.1917   18.0104 H   0  0  0  0  0  0
  -29.8625  -12.7772   17.4603 H   0  0  0  0  0  0
  -27.7254  -11.2738   18.8806 H   0  0  0  0  0  0
  -27.4729  -12.5444   17.7420 H   0  0  0  0  0  0
  -27.5731  -14.2420   19.3702 H   0  0  0  0  0  0
  -28.7344  -12.3534   21.4532 H   0  0  0  0  0  0
  -28.3759  -14.0524   21.6704 H   0  0  0  0  0  0
  -25.2740   -9.5802   22.4794 H   0  0  0  0  0  0
  -24.0049   -7.4706   22.7466 H   0  0  0  0  0  0
  -21.0866   -8.8860   19.8987 H   0  0  0  0  0  0
  -22.3705  -10.9745   19.6201 H   0  0  0  0  0  0
  -21.2053   -7.6190   23.9779 H   0  0  0  0  0  0
  -21.1435   -6.0482   25.9051 H   0  0  0  0  0  0
  -22.0619   -2.7685   23.2669 H   0  0  0  0  0  0
  -22.3835  -12.0087   22.4903 H   0  0  0  0  0  0
  -21.0995  -13.1544   22.2411 H   0  0  0  0  0  0
  -24.6809  -15.8783   20.5204 H   0  0  0  0  0  0
  -26.2887  -15.6141   20.0838 H   0  0  0  0  0  0
  -26.7225  -32.5357   23.1041 H   0  0  0  0  0  0
  -25.0057  -33.9693   25.0344 H   0  0  0  0  0  0
  -22.7282  -31.2967   21.3927 H   0  0  0  0  0  0
  -23.3774  -35.9572   23.3283 H   0  0  0  0  0  0
  -24.3566  -36.8918   22.2057 H   0  0  0  0  0  0
  -23.7213  -37.6445   23.6685 H   0  0  0  0  0  0
  -26.1400  -31.5141   20.6309 H   0  0  0  0  0  0
  -26.8487  -30.7778   22.0384 H   0  0  0  0  0  0
  -28.1030  -28.8692   21.2396 H   0  0  0  0  0  0
  -25.9140  -25.9019   18.9657 H   0  0  0  0  0  0
  -23.9758  -27.3178   18.9739 H   0  0  0  0  0  0
  -23.7886  -30.5896   19.4068 H   0  0  0  0  0  0
  -22.7696  -29.2533   19.8377 H   0  0  0  0  0  0
  -25.1297  -36.1906   25.0813 H   0  0  0  0  0  0
  -20.9885  -28.3292   24.1405 H   0  0  0  0  0  0
  -20.5672  -26.2351   23.3600 H   0  0  0  0  0  0
  -21.6675  -26.7517   22.1210 H   0  0  0  0  0  0
  -19.6971  -25.6282   21.1272 H   0  0  0  0  0  0
  -19.6709  -27.3156   20.6667 H   0  0  0  0  0  0
  -17.4221  -26.6622   21.3995 H   0  0  0  0  0  0
  -18.0383  -26.0089   22.9001 H   0  0  0  0  0  0
  -19.7971  -30.7294   24.2163 H   0  0  0  0  0  0
  -17.5069  -31.6275   24.5194 H   0  0  0  0  0  0
  -15.5374  -30.3012   23.7716 H   0  0  0  0  0  0
  -15.8656  -28.0861   22.7072 H   0  0  0  0  0  0
  -24.5792  -30.7193   25.7729 H   0  0  0  0  0  0
  -24.8887  -32.2988   26.4814 H   0  0  0  0  0  0
  -25.7907  -30.8960   27.0228 H   0  0  0  0  0  0
  -26.3033  -29.6680   24.1287 H   0  0  0  0  0  0
  -27.3940  -29.7284   25.4920 H   0  0  0  0  0  0
  -27.8942  -30.4210   23.9692 H   0  0  0  0  0  0
  -27.2592  -33.3651   26.2066 H   0  0  0  0  0  0
  -28.3826  -32.6927   25.0345 H   0  0  0  0  0  0
  -28.0679  -31.8504   26.5452 H   0  0  0  0  0  0
  -28.2590  -38.0109   24.7550 H   0  0  0  0  0  0
  -28.1105  -36.2650   24.6234 H   0  0  0  0  0  0
  -27.2317  -37.1376   25.8866 H   0  0  0  0  0  0
  -20.9467  -29.8744   21.6821 H   0  0  0  0  0  0
  -26.0169  -38.2853   24.1401 H   0  0  0  0  0  0
  -27.4282  -19.9553   19.1601 H   0  0  0  0  0  0
  -31.5631  -16.2006   17.7076 H   0  0  0  0  0  0
  -31.5337  -14.3989   17.3646 H   0  0  0  0  0  0
  -30.1071  -14.7855   15.3788 H   0  0  0  0  0  0
  -30.1632  -16.5980   15.6853 H   0  0  0  0  0  0
  -31.3999  -18.7362   21.6097 H   0  0  0  0  0  0
  -30.0387  -18.9023   22.6483 H   0  0  0  0  0  0
  -29.2652  -16.7304   22.3013 H   0  0  0  0  0  0
  -30.9805  -16.5157   22.2833 H   0  0  0  0  0  0
  -28.8476  -14.5094   17.4185 H   0  0  0  0  0  0
  -30.4501  -19.6648   19.8909 H   0  0  0  0  0  0
  -25.2864  -15.3167   15.5967 H   0  0  0  0  0  0
  -24.9858  -16.4168   16.9373 H   0  0  0  0  0  0
  -25.8635  -14.9035   17.2112 H   0  0  0  0  0  0
  -25.3550  -20.5342   16.2346 H   0  0  0  0  0  0
  -27.0337  -20.6969   16.7363 H   0  0  0  0  0  0
  -25.7232  -20.7246   17.9412 H   0  0  0  0  0  0
  -27.6992  -15.7252   15.6832 H   0  0  0  0  0  0
  -26.8819  -17.2041   15.4483 H   0  0  0  0  0  0
  -29.4229  -23.7820   21.4348 H   0  0  0  0  0  0
  -27.7306  -23.4099   21.3900 H   0  0  0  0  0  0
  -29.9292  -22.1283   19.6076 H   0  0  0  0  0  0
  -28.2587  -21.8595   19.3116 H   0  0  0  0  0  0
  -27.4325  -24.6017   19.2353 H   0  0  0  0  0  0
  -29.1058  -24.8229   19.0399 H   0  0  0  0  0  0
  -29.6364  -21.0225   21.7745 H   0  0  0  0  0  0
  -28.1336  -20.5905   21.4123 H   0  0  0  0  0  0
  1 25  1  0  0  0
  1 30  2  0  0  0
  1 89  1  0  0  0
  2  3  1  0  0  0
  2 25  1  0  0  0
  2 92  1  0  0  0
  2 93  1  0  0  0
  3  4  1  0  0  0
  3 94  1  0  0  0
  3 95  1  0  0  0
  4  5  1  0  0  0
  4 96  1  0  0  0
  4 97  1  0  0  0
  5  6  1  0  0  0
  5 26  1  0  0  0
  5 98  1  0  0  0
  6 25  1  0  0  0
  6 99  1  0  0  0
  6100  1  0  0  0
  7  8  2  0  0  0
  7 26  1  0  0  0
  7 29  1  0  0  0
  8  9  1  0  0  0
  8 22  1  0  0  0
  9 10  1  0  0  0
  9 27  2  0  0  0
 10 11  2  0  0  0
 10 15  1  0  0  0
 11 12  1  0  0  0
 11101  1  0  0  0
 12 13  2  0  0  0
 12102  1  0  0  0
 13 14  1  0  0  0
 13 31  1  0  0  0
 14 15  2  0  0  0
 14103  1  0  0  0
 15104  1  0  0  0
 16 17  2  0  0  0
 16 21  1  0  0  0
 16 31  1  0  0  0
 17 18  1  0  0  0
 17105  1  0  0  0
 18 19  2  0  0  0
 18106  1  0  0  0
 19 20  1  0  0  0
 19 24  1  0  0  0
 20 21  2  0  0  0
 20107  1  0  0  0
 21 23  1  0  0  0
 22 28  1  0  0  0
 22 32  2  0  0  0
 26 27  1  0  0  0
 28108  1  0  0  0
 28109  1  0  0  0
 29110  1  0  0  0
 29111  1  0  0  0
 33 34  1  0  0  0
 33 66  1  0  0  0
 33 70  2  0  0  0
 34 36  1  0  0  0
 34 59  1  0  0  0
 34112  1  0  0  0
 35 44  2  0  0  0
 35 45  1  0  0  0
 35 68  1  0  0  0
 36 56  1  0  0  0
 36113  1  0  0  0
 37 39  1  0  0  0
 37 47  1  0  0  0
 37 66  1  0  0  0
 37114  1  0  0  0
 38 43  2  0  0  0
 38 46  1  0  0  0
 38 47  1  0  0  0
 39 64  1  0  0  0
 39 67  2  0  0  0
 40 52  1  0  0  0
 40 53  2  0  0  0
 40 58  1  0  0  0
 41115  1  0  0  0
 41116  1  0  0  0
 41117  1  0  0  0
 41 48  1  0  0  0
 42 43  1  0  0  0
 42 66  1  0  0  0
 42118  1  0  0  0
 42119  1  0  0  0
 43 44  1  0  0  0
 44120  1  0  0  0
 45 46  2  0  0  0
 45121  1  0  0  0
 46122  1  0  0  0
 47123  1  0  0  0
 47124  1  0  0  0
 48 56  1  0  0  0
 48 65  1  0  0  0
 48125  1  0  0  0
 49 50  1  0  0  0
 49 53  1  0  0  0
 49 64  1  0  0  0
 49126  1  0  0  0
 50 51  1  0  0  0
 50127  1  0  0  0
 50128  1  0  0  0
 51 52  1  0  0  0
 51129  1  0  0  0
 51130  1  0  0  0
 52131  1  0  0  0
 52132  1  0  0  0
 53 54  1  0  0  0
 54 55  2  0  0  0
 54133  1  0  0  0
 55 57  1  0  0  0
 55134  1  0  0  0
 56 69  2  0  0  0
 57 58  2  0  0  0
 57135  1  0  0  0
 58136  1  0  0  0
 59 60  1  0  0  0
 59 61  1  0  0  0
 59 62  1  0  0  0
 60137  1  0  0  0
 60138  1  0  0  0
 60139  1  0  0  0
 61140  1  0  0  0
 61141  1  0  0  0
 61142  1  0  0  0
 62143  1  0  0  0
 62144  1  0  0  0
 62145  1  0  0  0
 63 65  1  0  0  0
 63146  1  0  0  0
 63147  1  0  0  0
 63148  1  0  0  0
 64149  1  0  0  0
 65150  1  0  0  0
 68 88  1  0  0  0
 71 72  2  0  0  0
 71 76  1  0  0  0
 71151  1  0  0  0
 72 75  1  0  0  0
 72 82  1  0  0  0
 73 74  1  0  0  0
 73 75  2  0  0  0
 73 81  1  0  0  0
 74 76  2  0  0  0
 74 85  1  0  0  0
 75 89  1  0  0  0
 76 91  1  0  0  0
 77 78  1  0  0  0
 77 81  1  0  0  0
 77152  1  0  0  0
 77153  1  0  0  0
 78 81  1  0  0  0
 78154  1  0  0  0
 78155  1  0  0  0
 79 80  1  0  0  0
 79 82  1  0  0  0
 79156  1  0  0  0
 79157  1  0  0  0
 80 89  1  0  0  0
 80158  1  0  0  0
 80159  1  0  0  0
 81160  1  0  0  0
 82 90  1  0  0  0
 82161  1  0  0  0
 83 85  1  0  0  0
 83162  1  0  0  0
 83163  1  0  0  0
 83164  1  0  0  0
 84 91  1  0  0  0
 84165  1  0  0  0
 84166  1  0  0  0
 84167  1  0  0  0
 85168  1  0  0  0
 85169  1  0  0  0
 86 87  1  0  0  0
 86 88  1  0  0  0
 86170  1  0  0  0
 86171  1  0  0  0
 87 90  1  0  0  0
 87172  1  0  0  0
 87173  1  0  0  0
 88174  1  0  0  0
 88175  1  0  0  0
 90176  1  0  0  0
 90177  1  0  0  0
M  CHG  1  90   1
M  ISO  4   1 100  68 101  88 101  89 100
M  END
> <chiral flag>
0

> <version>
0

> <s_m_source_file>
/data/baiqing/PycharmProjects/Reinvent-master-3.2/result/LINK_invent/BTK/process_docking_weight1_custom_sum_contain_oxygen_bond_distance_aromatic_linkinvent_7_9_3/rearranged_h_0164.sdf

> <i_m_source_file_index>
26

> <r_mmod_Potential_Energy-OPLS-2005>
505.019378662109

> <r_mmod_Stretch_Energy-OPLS-2005>
196.699432373047

> <r_mmod_Bend_Energy-OPLS-2005>
289.669036865234

> <r_mmod_Torsional_Energy-OPLS-2005>
400.141540527344

> <r_mmod_Improper_Torsional_Energy-OPLS-2005>
4.66739749908447

> <r_mmod_Van_der_Waal_Energy-OPLS-2005>
152.649719238281

> <r_mmod_Electrostatic_Energy-OPLS-2005>
-240.817977905273

> <r_mmod_Solvation_Energy-OPLS-2005>
-464.262481689453

> <b_mmod_Minimization_Converged-OPLS-2005>
0

> <r_mmod_RMS_Derivative-OPLS-2005>
4.8917293548584

$$$$
26
                    3D
 Structure written by MMmdl.
162171  0  0  1  0            999 V2000
  -30.5389  -15.0508   20.3361 C   0  0  0  0  0  0
  -30.4477  -12.6439   19.4988 C   0  0  0  0  0  0
  -29.5260  -12.4380   18.2725 C   0  0  0  0  0  0
  -28.0620  -12.2186   18.7039 C   0  0  0  0  0  0
  -27.6081  -13.1926   19.8163 C   0  0  2  0  0  0
  -28.6610  -13.3660   20.9351 C   0  0  0  0  0  0
  -25.2471  -13.8025   20.5734 C   0  0  0  0  0  0
  -24.1718  -13.0347   20.9233 C   0  0  0  0  0  0
  -24.6268  -11.6819   20.8809 C   0  0  0  0  0  0
  -23.8955  -10.4232   21.0451 C   0  0  0  0  0  0
  -24.3536   -9.4158   21.9216 C   0  0  0  0  0  0
  -23.6228   -8.2198   22.0775 C   0  0  0  0  0  0
  -22.4230   -8.0228   21.3543 C   0  0  0  0  0  0
  -21.9849   -9.0195   20.4650 C   0  0  0  0  0  0
  -22.7153  -10.2082   20.3071 C   0  0  0  0  0  0
  -21.6820   -6.0695   22.5284 C   0  0  0  0  0  0
  -21.3974   -6.5616   23.8203 C   0  0  0  0  0  0
  -21.3641   -5.6783   24.9178 C   0  0  0  0  0  0
  -21.6038   -4.3050   24.7241 C   0  0  0  0  0  0
  -21.8822   -3.8124   23.4373 C   0  0  0  0  0  0
  -21.9191   -4.6930   22.3416 C   0  0  0  0  0  0
  -22.7777  -13.5207   21.1890 C   0  0  0  0  0  0
  -22.1670   -4.2106   21.0999 F   0  0  0  0  0  0
  -21.5635   -3.4555   25.7768 F   0  0  0  0  0  0
  -29.9196  -13.7896   20.2980 N   0  0  0  0  0  0
  -26.2790  -12.9112   20.3282 N   0  0  0  0  0  0
  -25.9176  -11.6323   20.5834 N   0  0  0  0  0  0
  -22.0388  -12.8179   22.0397 N   0  0  0  0  0  0
  -25.4289  -15.1741   20.4183 N   0  0  0  0  0  0
  -31.7727  -15.0461   20.2817 O   0  0  0  0  0  0
  -21.6606   -6.8829   21.4240 O   0  0  0  0  0  0
  -22.3516  -14.5555   20.6774 O   0  0  0  0  0  0
  -24.6455  -31.8453   23.1873 C   0  0  0  0  0  0
  -25.9239  -32.4695   23.8275 C   0  0  1  0  0  0
  -27.2199  -27.1275   20.1593 C   0  0  0  0  0  0
  -25.5971  -33.8499   24.2178 N   0  0  0  0  0  0
  -23.4505  -30.4637   21.5322 C   0  0  2  0  0  0
  -24.9002  -28.8872   20.1155 C   0  0  0  0  0  0
  -22.7582  -29.4559   22.4849 C   0  0  0  0  0  0
  -18.0314  -28.1388   22.8459 C   0  0  0  0  0  0
  -24.1487  -36.7264   23.2635 C   0  0  0  0  0  0
  -26.0079  -30.7142   21.3895 C   0  0  0  0  0  0
  -26.0796  -29.3244   20.7315 C   0  0  0  0  0  0
  -27.2411  -28.4631   20.7313 C   0  0  0  0  0  0
  -26.0122  -26.7958   19.5038 C   0  0  0  0  0  0
  -24.8808  -27.6362   19.4842 C   0  0  0  0  0  0
  -23.6778  -29.7904   20.1537 C   0  0  0  0  0  0
  -25.4121  -36.3017   24.0287 C   0  0  1  0  0  0
  -20.5917  -28.3733   23.1206 C   0  0  2  0  0  0
  -20.6798  -26.9433   22.5390 C   0  0  0  0  0  0
  -19.5774  -26.6371   21.5195 C   0  0  0  0  0  0
  -18.1953  -26.7926   22.1604 C   0  0  0  0  0  0
  -19.1568  -28.8881   23.2823 C   0  0  0  0  0  0
  -18.9487  -30.1468   23.8853 C   0  0  0  0  0  0
  -17.6486  -30.6586   24.0549 C   0  0  0  0  0  0
  -25.9074  -34.9398   23.5041 C   0  0  0  0  0  0
  -16.5372  -29.9081   23.6327 C   0  0  0  0  0  0
  -16.7298  -28.6498   23.0345 C   0  0  0  0  0  0
  -26.4518  -31.6585   25.0750 C   0  0  0  0  0  0
  -25.3646  -31.3803   26.1408 C   0  0  0  0  0  0
  -27.0419  -30.2977   24.6405 C   0  0  0  0  0  0
  -27.6025  -32.4391   25.7545 C   0  0  0  0  0  0
  -27.5574  -37.1786   24.8455 C   0  0  0  0  0  0
  -21.4273  -29.3060   22.3581 N   0  0  0  0  0  0
  -26.4279  -37.3744   23.9393 N   0  0  0  0  0  0
  -24.7208  -31.0300   22.0906 N   0  0  0  0  0  0
  -23.4228  -28.8107   23.3002 O   0  0  0  0  0  0
  -28.2742  -26.1398   20.2113 O   0  0  0  0  0  0
  -26.5661  -34.8901   22.4623 O   0  0  0  0  0  0
  -23.5568  -32.1337   23.7081 O   0  0  0  0  0  0
  -30.8958  -21.1352   19.6816 C   0  0  0  0  0  0
  -28.7739  -21.9167   20.5041 C   0  0  0  0  0  0
  -29.6725  -20.7493   20.2738 C   0  0  0  0  0  0
  -31.1879  -22.4702   19.2879 C   0  0  0  0  0  0
  -29.0319  -23.3428   20.1406 C   0  0  0  0  0  0
  -30.2802  -23.5535   19.4973 C   0  0  0  0  0  0
  -29.4552  -19.1700   20.6475 C   0  0  0  0  0  0
  -28.8797  -17.4541   18.1595 C   0  0  0  0  0  0
  -30.2557  -18.0094   18.4679 C   0  0  0  0  0  0
  -28.8424  -16.1849   19.0106 C   0  0  0  0  0  0
  -30.2804  -17.8239   19.9843 C   0  0  2  0  0  0
  -32.5207  -22.7145   18.5956 C   0  0  0  0  0  0
  -30.6237  -24.9586   19.0036 C   0  0  0  0  0  0
  -27.9695  -24.6057   20.2943 C   0  0  0  0  0  0
  -29.8170  -16.2922   20.1221 N   0  0  0  0  0  0
  -28.5670  -18.9136   21.4653 O   0  0  0  0  0  0
  -31.4676  -12.8279   19.1568 H   0  0  0  0  0  0
  -30.4953  -11.7421   20.1112 H   0  0  0  0  0  0
  -29.8666  -11.5719   17.7030 H   0  0  0  0  0  0
  -29.5999  -13.2879   17.5954 H   0  0  0  0  0  0
  -27.9813  -11.1957   19.0701 H   0  0  0  0  0  0
  -27.3986  -12.2809   17.8408 H   0  0  0  0  0  0
  -27.4841  -14.1132   19.2767 H   0  0  0  0  0  0
  -28.7910  -12.4371   21.4933 H   0  0  0  0  0  0
  -28.3333  -14.1216   21.6507 H   0  0  0  0  0  0
  -25.2664   -9.5652   22.4813 H   0  0  0  0  0  0
  -23.9922   -7.4595   22.7498 H   0  0  0  0  0  0
  -21.0785   -8.8687   19.8956 H   0  0  0  0  0  0
  -22.3584  -10.9625   19.6198 H   0  0  0  0  0  0
  -21.1932   -7.6118   23.9689 H   0  0  0  0  0  0
  -21.1463   -6.0525   25.9072 H   0  0  0  0  0  0
  -22.0616   -2.7587   23.2900 H   0  0  0  0  0  0
  -22.3950  -11.9755   22.4665 H   0  0  0  0  0  0
  -21.1040  -13.1260   22.2681 H   0  0  0  0  0  0
  -24.6807  -15.8474   20.5388 H   0  0  0  0  0  0
  -26.3124  -15.6038   20.1813 H   0  0  0  0  0  0
  -26.7314  -32.5289   23.1010 H   0  0  0  0  0  0
  -25.0085  -33.9608   25.0301 H   0  0  0  0  0  0
  -22.7503  -31.2866   21.3745 H   0  0  0  0  0  0
  -23.3737  -35.9614   23.3280 H   0  0  0  0  0  0
  -24.3557  -36.8950   22.2059 H   0  0  0  0  0  0
  -23.7273  -37.6455   23.6705 H   0  0  0  0  0  0
  -26.1659  -31.4669   20.6157 H   0  0  0  0  0  0
  -26.8751  -30.7666   22.0359 H   0  0  0  0  0  0
  -28.1416  -28.7934   21.2276 H   0  0  0  0  0  0
  -25.9030  -25.8480   19.0026 H   0  0  0  0  0  0
  -23.9802  -27.2948   18.9911 H   0  0  0  0  0  0
  -23.8168  -30.5618   19.3955 H   0  0  0  0  0  0
  -22.7926  -29.2334   19.8415 H   0  0  0  0  0  0
  -25.1313  -36.1826   25.0775 H   0  0  0  0  0  0
  -20.9997  -28.3339   24.1332 H   0  0  0  0  0  0
  -20.5688  -26.2355   23.3617 H   0  0  0  0  0  0
  -21.6666  -26.7444   22.1191 H   0  0  0  0  0  0
  -19.6933  -25.6270   21.1265 H   0  0  0  0  0  0
  -19.6701  -27.3135   20.6684 H   0  0  0  0  0  0
  -17.4225  -26.6650   21.4007 H   0  0  0  0  0  0
  -18.0357  -26.0072   22.9000 H   0  0  0  0  0  0
  -19.7960  -30.7280   24.2208 H   0  0  0  0  0  0
  -17.5045  -31.6249   24.5178 H   0  0  0  0  0  0
  -15.5369  -30.2975   23.7678 H   0  0  0  0  0  0
  -15.8692  -28.0810   22.7082 H   0  0  0  0  0  0
  -24.5823  -30.7172   25.7691 H   0  0  0  0  0  0
  -24.8825  -32.3000   26.4734 H   0  0  0  0  0  0
  -25.7875  -30.9018   27.0254 H   0  0  0  0  0  0
  -26.3087  -29.6653   24.1395 H   0  0  0  0  0  0
  -27.3964  -29.7335   25.5045 H   0  0  0  0  0  0
  -27.9008  -30.4180   23.9800 H   0  0  0  0  0  0
  -27.2595  -33.3721   26.2019 H   0  0  0  0  0  0
  -28.3879  -32.6932   25.0412 H   0  0  0  0  0  0
  -28.0637  -31.8601   26.5548 H   0  0  0  0  0  0
  -28.2560  -38.0111   24.7522 H   0  0  0  0  0  0
  -28.1097  -36.2639   24.6252 H   0  0  0  0  0  0
  -27.2280  -37.1414   25.8854 H   0  0  0  0  0  0
  -20.9491  -29.8796   21.6761 H   0  0  0  0  0  0
  -26.0128  -38.2798   24.1425 H   0  0  0  0  0  0
  -31.6434  -20.3740   19.5072 H   0  0  0  0  0  0
  -27.8214  -21.6973   20.9669 H   0  0  0  0  0  0
  -28.7424  -17.2460   17.0969 H   0  0  0  0  0  0
  -28.0871  -18.1447   18.4531 H   0  0  0  0  0  0
  -30.3619  -19.0350   18.1189 H   0  0  0  0  0  0
  -31.0362  -17.4181   17.9895 H   0  0  0  0  0  0
  -29.0323  -15.3383   18.3515 H   0  0  0  0  0  0
  -27.8424  -16.1145   19.4296 H   0  0  0  0  0  0
  -31.3128  -17.8834   20.3316 H   0  0  0  0  0  0
  -33.1003  -21.7987   18.4813 H   0  0  0  0  0  0
  -33.1266  -23.4178   19.1666 H   0  0  0  0  0  0
  -32.3623  -23.1218   17.5955 H   0  0  0  0  0  0
  -31.5684  -25.0437   18.4719 H   0  0  0  0  0  0
  -30.6799  -25.6507   19.8448 H   0  0  0  0  0  0
  -29.8541  -25.3157   18.3164 H   0  0  0  0  0  0
  -27.4416  -24.4528   21.2368 H   0  0  0  0  0  0
  -27.2452  -24.3729   19.5194 H   0  0  0  0  0  0
  1 25  1  0  0  0
  1 30  2  0  0  0
  1 85  1  0  0  0
  2  3  1  0  0  0
  2 25  1  0  0  0
  2 87  1  0  0  0
  2 88  1  0  0  0
  3  4  1  0  0  0
  3 89  1  0  0  0
  3 90  1  0  0  0
  4  5  1  0  0  0
  4 91  1  0  0  0
  4 92  1  0  0  0
  5  6  1  0  0  0
  5 26  1  0  0  0
  5 93  1  0  0  0
  6 25  1  0  0  0
  6 94  1  0  0  0
  6 95  1  0  0  0
  7  8  2  0  0  0
  7 26  1  0  0  0
  7 29  1  0  0  0
  8  9  1  0  0  0
  8 22  1  0  0  0
  9 10  1  0  0  0
  9 27  2  0  0  0
 10 11  2  0  0  0
 10 15  1  0  0  0
 11 12  1  0  0  0
 11 96  1  0  0  0
 12 13  2  0  0  0
 12 97  1  0  0  0
 13 14  1  0  0  0
 13 31  1  0  0  0
 14 15  2  0  0  0
 14 98  1  0  0  0
 15 99  1  0  0  0
 16 17  2  0  0  0
 16 21  1  0  0  0
 16 31  1  0  0  0
 17 18  1  0  0  0
 17100  1  0  0  0
 18 19  2  0  0  0
 18101  1  0  0  0
 19 20  1  0  0  0
 19 24  1  0  0  0
 20 21  2  0  0  0
 20102  1  0  0  0
 21 23  1  0  0  0
 22 28  1  0  0  0
 22 32  2  0  0  0
 26 27  1  0  0  0
 28103  1  0  0  0
 28104  1  0  0  0
 29105  1  0  0  0
 29106  1  0  0  0
 33 34  1  0  0  0
 33 66  1  0  0  0
 33 70  2  0  0  0
 34 36  1  0  0  0
 34 59  1  0  0  0
 34107  1  0  0  0
 35 44  2  0  0  0
 35 45  1  0  0  0
 35 68  1  0  0  0
 36 56  1  0  0  0
 36108  1  0  0  0
 37 39  1  0  0  0
 37 47  1  0  0  0
 37 66  1  0  0  0
 37109  1  0  0  0
 38 43  2  0  0  0
 38 46  1  0  0  0
 38 47  1  0  0  0
 39 64  1  0  0  0
 39 67  2  0  0  0
 40 52  1  0  0  0
 40 53  2  0  0  0
 40 58  1  0  0  0
 41110  1  0  0  0
 41111  1  0  0  0
 41112  1  0  0  0
 41 48  1  0  0  0
 42 43  1  0  0  0
 42 66  1  0  0  0
 42113  1  0  0  0
 42114  1  0  0  0
 43 44  1  0  0  0
 44115  1  0  0  0
 45 46  2  0  0  0
 45116  1  0  0  0
 46117  1  0  0  0
 47118  1  0  0  0
 47119  1  0  0  0
 48 56  1  0  0  0
 48 65  1  0  0  0
 48120  1  0  0  0
 49 50  1  0  0  0
 49 53  1  0  0  0
 49 64  1  0  0  0
 49121  1  0  0  0
 50 51  1  0  0  0
 50122  1  0  0  0
 50123  1  0  0  0
 51 52  1  0  0  0
 51124  1  0  0  0
 51125  1  0  0  0
 52126  1  0  0  0
 52127  1  0  0  0
 53 54  1  0  0  0
 54 55  2  0  0  0
 54128  1  0  0  0
 55 57  1  0  0  0
 55129  1  0  0  0
 56 69  2  0  0  0
 57 58  2  0  0  0
 57130  1  0  0  0
 58131  1  0  0  0
 59 60  1  0  0  0
 59 61  1  0  0  0
 59 62  1  0  0  0
 60132  1  0  0  0
 60133  1  0  0  0
 60134  1  0  0  0
 61135  1  0  0  0
 61136  1  0  0  0
 61137  1  0  0  0
 62138  1  0  0  0
 62139  1  0  0  0
 62140  1  0  0  0
 63 65  1  0  0  0
 63141  1  0  0  0
 63142  1  0  0  0
 63143  1  0  0  0
 64144  1  0  0  0
 65145  1  0  0  0
 68 84  1  0  0  0
 71 73  2  0  0  0
 71 74  1  0  0  0
 71146  1  0  0  0
 72 73  1  0  0  0
 72 75  2  0  0  0
 72147  1  0  0  0
 73 77  1  0  0  0
 74 76  2  0  0  0
 74 82  1  0  0  0
 75 76  1  0  0  0
 75 84  1  0  0  0
 76 83  1  0  0  0
 77 86  2  0  0  0
 77 81  1  0  0  0
 78 79  1  0  0  0
 78 80  1  0  0  0
 78148  1  0  0  0
 78149  1  0  0  0
 79 81  1  0  0  0
 79150  1  0  0  0
 79151  1  0  0  0
 80 85  1  0  0  0
 80152  1  0  0  0
 80153  1  0  0  0
 81 85  1  0  0  0
 81154  1  0  0  0
 82155  1  0  0  0
 82156  1  0  0  0
 82157  1  0  0  0
 83158  1  0  0  0
 83159  1  0  0  0
 83160  1  0  0  0
 84161  1  0  0  0
 84162  1  0  0  0
M  ISO  4   1 100  68 101  84 101  85 100
M  END
> <chiral flag>
0

> <version>
0

> <s_m_source_file>
/data/baiqing/PycharmProjects/Reinvent-master-3.2/result/LINK_invent/BTK/process_docking_weight1_custom_sum_contain_oxygen_bond_distance_aromatic_linkinvent_7_9_3/rearranged_h_0164.sdf

> <i_m_source_file_index>
27

> <r_mmod_Potential_Energy-OPLS-2005>
822.016418457031

> <r_mmod_Stretch_Energy-OPLS-2005>
305.035675048828

> <r_mmod_Bend_Energy-OPLS-2005>
296.790863037109

> <r_mmod_Torsional_Energy-OPLS-2005>
319.906311035156

> <r_mmod_Improper_Torsional_Energy-OPLS-2005>
12.4934968948364

> <r_mmod_Van_der_Waal_Energy-OPLS-2005>
148.901306152344

> <r_mmod_Electrostatic_Energy-OPLS-2005>
-305.185211181641

> <r_mmod_Solvation_Energy-OPLS-2005>
-205.749328613281

> <b_mmod_Minimization_Converged-OPLS-2005>
0

> <r_mmod_RMS_Derivative-OPLS-2005>
2.7923104763031

$$$$
27
                    3D
 Structure written by MMmdl.
169178  0  0  1  0            999 V2000
  -30.4151  -15.3141   20.3689 C   0  0  0  0  0  0
  -30.4368  -12.8495   19.5109 C   0  0  0  0  0  0
  -29.5308  -12.5816   18.2826 C   0  0  0  0  0  0
  -28.0857  -12.2905   18.7218 C   0  0  0  0  0  0
  -27.6067  -13.2762   19.8158 C   0  0  2  0  0  0
  -28.6420  -13.4774   20.9416 C   0  0  0  0  0  0
  -25.2383  -13.8245   20.5759 C   0  0  0  0  0  0
  -24.1738  -13.0440   20.9281 C   0  0  0  0  0  0
  -24.6397  -11.6936   20.8779 C   0  0  0  0  0  0
  -23.9095  -10.4296   21.0421 C   0  0  0  0  0  0
  -24.3640   -9.4207   21.9194 C   0  0  0  0  0  0
  -23.6310   -8.2244   22.0754 C   0  0  0  0  0  0
  -22.4288   -8.0286   21.3545 C   0  0  0  0  0  0
  -21.9935   -9.0263   20.4647 C   0  0  0  0  0  0
  -22.7272  -10.2139   20.3060 C   0  0  0  0  0  0
  -21.6858   -6.0748   22.5283 C   0  0  0  0  0  0
  -21.4014   -6.5649   23.8218 C   0  0  0  0  0  0
  -21.3651   -5.6798   24.9178 C   0  0  0  0  0  0
  -21.6038   -4.3061   24.7228 C   0  0  0  0  0  0
  -21.8817   -3.8158   23.4349 C   0  0  0  0  0  0
  -21.9194   -4.6975   22.3407 C   0  0  0  0  0  0
  -22.7757  -13.5191   21.1927 C   0  0  0  0  0  0
  -22.1664   -4.2161   21.0985 F   0  0  0  0  0  0
  -21.5621   -3.4540   25.7741 F   0  0  0  0  0  0
  -29.8585  -14.0015   20.2986 N   0  0  0  0  0  0
  -26.2803  -12.9524   20.3217 N   0  0  0  0  0  0
  -25.9334  -11.6627   20.5728 N   0  0  0  0  0  0
  -22.0419  -12.8157   22.0473 N   0  0  0  0  0  0
  -25.4009  -15.1979   20.4183 N   0  0  0  0  0  0
  -31.6472  -15.3056   20.2272 O   0  0  0  0  0  0
  -21.6641   -6.8891   21.4246 O   0  0  0  0  0  0
  -22.3435  -14.5490   20.6764 O   0  0  0  0  0  0
  -24.6654  -31.8200   23.1646 C   0  0  0  0  0  0
  -25.9326  -32.4571   23.8119 C   0  0  1  0  0  0
  -27.2203  -26.8962   20.1919 C   0  0  0  0  0  0
  -25.5994  -33.8383   24.2035 N   0  0  0  0  0  0
  -23.4814  -30.4278   21.5139 C   0  0  2  0  0  0
  -24.9349  -28.8059   20.1113 C   0  0  0  0  0  0
  -22.7680  -29.4414   22.4758 C   0  0  0  0  0  0
  -18.0326  -28.1412   22.8473 C   0  0  0  0  0  0
  -24.1481  -36.7173   23.2646 C   0  0  0  0  0  0
  -26.0513  -30.6177   21.3970 C   0  0  0  0  0  0
  -26.1191  -29.2028   20.7440 C   0  0  0  0  0  0
  -27.2552  -28.2701   20.7547 C   0  0  0  0  0  0
  -26.0048  -26.6550   19.5121 C   0  0  0  0  0  0
  -24.9051  -27.5544   19.4730 C   0  0  0  0  0  0
  -23.7222  -29.7379   20.1424 C   0  0  0  0  0  0
  -25.4127  -36.2944   24.0296 C   0  0  1  0  0  0
  -20.5953  -28.3751   23.1193 C   0  0  2  0  0  0
  -20.6798  -26.9432   22.5413 C   0  0  0  0  0  0
  -19.5774  -26.6384   21.5220 C   0  0  0  0  0  0
  -18.1950  -26.7949   22.1617 C   0  0  0  0  0  0
  -19.1589  -28.8900   23.2825 C   0  0  0  0  0  0
  -18.9497  -30.1490   23.8860 C   0  0  0  0  0  0
  -17.6488  -30.6605   24.0548 C   0  0  0  0  0  0
  -25.9100  -34.9339   23.4982 C   0  0  0  0  0  0
  -16.5377  -29.9088   23.6352 C   0  0  0  0  0  0
  -16.7308  -28.6505   23.0385 C   0  0  0  0  0  0
  -26.4574  -31.6532   25.0658 C   0  0  0  0  0  0
  -25.3705  -31.3808   26.1318 C   0  0  0  0  0  0
  -27.0466  -30.2892   24.6420 C   0  0  0  0  0  0
  -27.6047  -32.4355   25.7479 C   0  0  0  0  0  0
  -27.5556  -37.1739   24.8465 C   0  0  0  0  0  0
  -21.4340  -29.3030   22.3523 N   0  0  0  0  0  0
  -26.4251  -37.3700   23.9427 N   0  0  0  0  0  0
  -24.7544  -30.9844   22.0788 N   0  0  0  0  0  0
  -23.4216  -28.8000   23.3020 O   0  0  0  0  0  0
  -28.2300  -25.7891   20.2698 O   0  0  0  0  0  0
  -26.5702  -34.8888   22.4571 O   0  0  0  0  0  0
  -23.5719  -32.1168   23.6744 O   0  0  0  0  0  0
  -30.2941  -21.1134   21.8434 C   0  0  0  0  0  0
  -29.3787  -21.3312   20.7584 C   0  0  0  0  0  0
  -31.2599  -22.0989   22.1799 C   0  0  0  0  0  0
  -29.2454  -22.8680   20.3431 C   0  0  0  0  0  0
  -31.4819  -23.1882   21.3132 C   0  0  0  0  0  0
  -30.4988  -23.5345   20.3629 C   0  0  0  0  0  0
  -30.3859  -19.7901   22.6552 C   0  0  0  0  0  0
  -29.7398  -18.4789   22.1627 C   0  0  0  0  0  0
  -29.8622  -18.2472   20.6601 C   0  0  2  0  0  0
  -29.0707  -19.7613   20.0784 C   0  0  0  0  0  0
  -32.1488  -21.9414   23.4173 C   0  0  0  0  0  0
  -32.7339  -24.0555   21.4557 C   0  0  0  0  0  0
  -30.7612  -24.7265   19.4419 C   0  0  0  0  0  0
  -29.4556  -19.8589   18.5961 C   0  0  0  0  0  0
  -27.5514  -19.5320   20.1393 C   0  0  0  0  0  0
  -28.0359  -24.1291   20.1623 C   0  0  0  0  0  0
  -29.6392  -16.5928   20.4027 N   0  0  0  0  0  0
  -31.4474  -13.0736   19.1677 H   0  0  0  0  0  0
  -30.5290  -11.9565   20.1314 H   0  0  0  0  0  0
  -29.9202  -11.7508   17.6926 H   0  0  0  0  0  0
  -29.5415  -13.4544   17.6290 H   0  0  0  0  0  0
  -28.0592  -11.2730   19.1135 H   0  0  0  0  0  0
  -27.4110  -12.3076   17.8642 H   0  0  0  0  0  0
  -27.5114  -14.2329   19.3018 H   0  0  0  0  0  0
  -28.8305  -12.5537   21.4905 H   0  0  0  0  0  0
  -28.2733  -14.2038   21.6684 H   0  0  0  0  0  0
  -25.2780   -9.5682   22.4778 H   0  0  0  0  0  0
  -24.0020   -7.4628   22.7466 H   0  0  0  0  0  0
  -21.0869   -8.8791   19.8946 H   0  0  0  0  0  0
  -22.3736  -10.9683   19.6169 H   0  0  0  0  0  0
  -21.2006   -7.6157   23.9728 H   0  0  0  0  0  0
  -21.1465   -6.0526   25.9081 H   0  0  0  0  0  0
  -22.0598   -2.7621   23.2846 H   0  0  0  0  0  0
  -22.4055  -11.9810   22.4827 H   0  0  0  0  0  0
  -21.1032  -13.1153   22.2693 H   0  0  0  0  0  0
  -24.6288  -15.8466   20.5264 H   0  0  0  0  0  0
  -26.2403  -15.6393   20.0681 H   0  0  0  0  0  0
  -26.7393  -32.5092   23.0822 H   0  0  0  0  0  0
  -25.0149  -33.9459   25.0196 H   0  0  0  0  0  0
  -22.7966  -31.2598   21.3397 H   0  0  0  0  0  0
  -23.3764  -35.9480   23.3274 H   0  0  0  0  0  0
  -24.3567  -36.8856   22.2072 H   0  0  0  0  0  0
  -23.7219  -37.6341   23.6722 H   0  0  0  0  0  0
  -26.2362  -31.3576   20.6168 H   0  0  0  0  0  0
  -26.9106  -30.6752   22.0532 H   0  0  0  0  0  0
  -28.1531  -28.5788   21.2723 H   0  0  0  0  0  0
  -25.8739  -25.6978   19.0286 H   0  0  0  0  0  0
  -24.0053  -27.2448   18.9589 H   0  0  0  0  0  0
  -23.8797  -30.5028   19.3814 H   0  0  0  0  0  0
  -22.8313  -29.1931   19.8244 H   0  0  0  0  0  0
  -25.1339  -36.1705   25.0787 H   0  0  0  0  0  0
  -21.0050  -28.3346   24.1316 H   0  0  0  0  0  0
  -20.5664  -26.2371   23.3655 H   0  0  0  0  0  0
  -21.6660  -26.7401   22.1222 H   0  0  0  0  0  0
  -19.6927  -25.6286   21.1277 H   0  0  0  0  0  0
  -19.6717  -27.3162   20.6729 H   0  0  0  0  0  0
  -17.4234  -26.6720   21.4004 H   0  0  0  0  0  0
  -18.0313  -26.0099   22.9018 H   0  0  0  0  0  0
  -19.7971  -30.7321   24.2206 H   0  0  0  0  0  0
  -17.5047  -31.6281   24.5161 H   0  0  0  0  0  0
  -15.5378  -30.2982   23.7712 H   0  0  0  0  0  0
  -15.8705  -28.0808   22.7142 H   0  0  0  0  0  0
  -24.5914  -30.7111   25.7662 H   0  0  0  0  0  0
  -24.8855  -32.3014   26.4562 H   0  0  0  0  0  0
  -25.7951  -30.9123   27.0202 H   0  0  0  0  0  0
  -26.3123  -29.6575   24.1403 H   0  0  0  0  0  0
  -27.3957  -29.7265   25.5088 H   0  0  0  0  0  0
  -27.9094  -30.4068   23.9862 H   0  0  0  0  0  0
  -27.2592  -33.3713   26.1877 H   0  0  0  0  0  0
  -28.3954  -32.6816   25.0384 H   0  0  0  0  0  0
  -28.0592  -31.8592   26.5545 H   0  0  0  0  0  0
  -28.2543  -38.0066   24.7542 H   0  0  0  0  0  0
  -28.1079  -36.2594   24.6239 H   0  0  0  0  0  0
  -27.2290  -37.1330   25.8872 H   0  0  0  0  0  0
  -20.9591  -29.8713   21.6649 H   0  0  0  0  0  0
  -26.0078  -38.2738   24.1480 H   0  0  0  0  0  0
  -30.0059  -19.9829   23.6596 H   0  0  0  0  0  0
  -31.4436  -19.5524   22.7729 H   0  0  0  0  0  0
  -28.6870  -18.4715   22.4445 H   0  0  0  0  0  0
  -30.1821  -17.6493   22.7153 H   0  0  0  0  0  0
  -30.9184  -18.3739   20.4146 H   0  0  0  0  0  0
  -33.0650  -21.4029   23.1724 H   0  0  0  0  0  0
  -31.6478  -21.4198   24.2316 H   0  0  0  0  0  0
  -32.4207  -22.9114   23.8338 H   0  0  0  0  0  0
  -32.4923  -24.9875   21.9669 H   0  0  0  0  0  0
  -33.1654  -24.2994   20.4873 H   0  0  0  0  0  0
  -33.5357  -23.5653   22.0050 H   0  0  0  0  0  0
  -30.0008  -24.8430   18.6702 H   0  0  0  0  0  0
  -31.6961  -24.5932   18.8979 H   0  0  0  0  0  0
  -30.8254  -25.6553   20.0099 H   0  0  0  0  0  0
  -30.5187  -20.0742   18.4871 H   0  0  0  0  0  0
  -28.9079  -20.6537   18.0884 H   0  0  0  0  0  0
  -29.2510  -18.9262   18.0693 H   0  0  0  0  0  0
  -27.1855  -19.5370   21.1646 H   0  0  0  0  0  0
  -27.2786  -18.5754   19.6932 H   0  0  0  0  0  0
  -27.0091  -20.3117   19.6039 H   0  0  0  0  0  0
  -27.2622  -23.8820   20.8888 H   0  0  0  0  0  0
  -27.5755  -23.9453   19.1913 H   0  0  0  0  0  0
  -28.6540  -16.3818   20.3537 H   0  0  0  0  0  0
  1 25  1  0  0  0
  1 30  2  0  0  0
  1 87  1  0  0  0
  2  3  1  0  0  0
  2 25  1  0  0  0
  2 88  1  0  0  0
  2 89  1  0  0  0
  3  4  1  0  0  0
  3 90  1  0  0  0
  3 91  1  0  0  0
  4  5  1  0  0  0
  4 92  1  0  0  0
  4 93  1  0  0  0
  5  6  1  0  0  0
  5 26  1  0  0  0
  5 94  1  0  0  0
  6 25  1  0  0  0
  6 95  1  0  0  0
  6 96  1  0  0  0
  7  8  2  0  0  0
  7 26  1  0  0  0
  7 29  1  0  0  0
  8  9  1  0  0  0
  8 22  1  0  0  0
  9 10  1  0  0  0
  9 27  2  0  0  0
 10 11  2  0  0  0
 10 15  1  0  0  0
 11 12  1  0  0  0
 11 97  1  0  0  0
 12 13  2  0  0  0
 12 98  1  0  0  0
 13 14  1  0  0  0
 13 31  1  0  0  0
 14 15  2  0  0  0
 14 99  1  0  0  0
 15100  1  0  0  0
 16 17  2  0  0  0
 16 21  1  0  0  0
 16 31  1  0  0  0
 17 18  1  0  0  0
 17101  1  0  0  0
 18 19  2  0  0  0
 18102  1  0  0  0
 19 20  1  0  0  0
 19 24  1  0  0  0
 20 21  2  0  0  0
 20103  1  0  0  0
 21 23  1  0  0  0
 22 28  1  0  0  0
 22 32  2  0  0  0
 26 27  1  0  0  0
 28104  1  0  0  0
 28105  1  0  0  0
 29106  1  0  0  0
 29107  1  0  0  0
 33 34  1  0  0  0
 33 66  1  0  0  0
 33 70  2  0  0  0
 34 36  1  0  0  0
 34 59  1  0  0  0
 34108  1  0  0  0
 35 44  2  0  0  0
 35 45  1  0  0  0
 35 68  1  0  0  0
 36 56  1  0  0  0
 36109  1  0  0  0
 37 39  1  0  0  0
 37 47  1  0  0  0
 37 66  1  0  0  0
 37110  1  0  0  0
 38 43  2  0  0  0
 38 46  1  0  0  0
 38 47  1  0  0  0
 39 64  1  0  0  0
 39 67  2  0  0  0
 40 52  1  0  0  0
 40 53  2  0  0  0
 40 58  1  0  0  0
 41111  1  0  0  0
 41112  1  0  0  0
 41113  1  0  0  0
 41 48  1  0  0  0
 42 43  1  0  0  0
 42 66  1  0  0  0
 42114  1  0  0  0
 42115  1  0  0  0
 43 44  1  0  0  0
 44116  1  0  0  0
 45 46  2  0  0  0
 45117  1  0  0  0
 46118  1  0  0  0
 47119  1  0  0  0
 47120  1  0  0  0
 48 56  1  0  0  0
 48 65  1  0  0  0
 48121  1  0  0  0
 49 50  1  0  0  0
 49 53  1  0  0  0
 49 64  1  0  0  0
 49122  1  0  0  0
 50 51  1  0  0  0
 50123  1  0  0  0
 50124  1  0  0  0
 51 52  1  0  0  0
 51125  1  0  0  0
 51126  1  0  0  0
 52127  1  0  0  0
 52128  1  0  0  0
 53 54  1  0  0  0
 54 55  2  0  0  0
 54129  1  0  0  0
 55 57  1  0  0  0
 55130  1  0  0  0
 56 69  2  0  0  0
 57 58  2  0  0  0
 57131  1  0  0  0
 58132  1  0  0  0
 59 60  1  0  0  0
 59 61  1  0  0  0
 59 62  1  0  0  0
 60133  1  0  0  0
 60134  1  0  0  0
 60135  1  0  0  0
 61136  1  0  0  0
 61137  1  0  0  0
 61138  1  0  0  0
 62139  1  0  0  0
 62140  1  0  0  0
 62141  1  0  0  0
 63 65  1  0  0  0
 63142  1  0  0  0
 63143  1  0  0  0
 63144  1  0  0  0
 64145  1  0  0  0
 65146  1  0  0  0
 68 86  1  0  0  0
 71 72  1  0  0  0
 71 73  2  0  0  0
 71 77  1  0  0  0
 72 74  2  0  0  0
 72 80  1  0  0  0
 73 75  1  0  0  0
 73 81  1  0  0  0
 74 76  1  0  0  0
 74 86  1  0  0  0
 75 76  2  0  0  0
 75 82  1  0  0  0
 76 83  1  0  0  0
 77 78  1  0  0  0
 77147  1  0  0  0
 77148  1  0  0  0
 78 79  1  0  0  0
 78149  1  0  0  0
 78150  1  0  0  0
 79 80  1  0  0  0
 79 87  1  0  0  0
 79151  1  0  0  0
 80 84  1  0  0  0
 80 85  1  0  0  0
 81152  1  0  0  0
 81153  1  0  0  0
 81154  1  0  0  0
 82155  1  0  0  0
 82156  1  0  0  0
 82157  1  0  0  0
 83158  1  0  0  0
 83159  1  0  0  0
 83160  1  0  0  0
 84161  1  0  0  0
 84162  1  0  0  0
 84163  1  0  0  0
 85164  1  0  0  0
 85165  1  0  0  0
 85166  1  0  0  0
 86167  1  0  0  0
 86168  1  0  0  0
 87169  1  0  0  0
M  ISO  4   1 100  68 101  86 101  87 100
M  END
> <chiral flag>
0

> <version>
0

> <s_m_source_file>
/data/baiqing/PycharmProjects/Reinvent-master-3.2/result/LINK_invent/BTK/process_docking_weight1_custom_sum_contain_oxygen_bond_distance_aromatic_linkinvent_7_9_3/rearranged_h_0164.sdf

> <i_m_source_file_index>
28

> <r_mmod_Potential_Energy-OPLS-2005>
1572.90686035156

> <r_mmod_Stretch_Energy-OPLS-2005>
668.617919921875

> <r_mmod_Bend_Energy-OPLS-2005>
487.071960449219

> <r_mmod_Torsional_Energy-OPLS-2005>
399.872833251953

> <r_mmod_Improper_Torsional_Energy-OPLS-2005>
10.9336214065552

> <r_mmod_Van_der_Waal_Energy-OPLS-2005>
145.735137939453

> <r_mmod_Electrostatic_Energy-OPLS-2005>
-443.440185546875

> <r_mmod_Solvation_Energy-OPLS-2005>
-206.341766357422

> <b_mmod_Minimization_Converged-OPLS-2005>
0

> <r_mmod_RMS_Derivative-OPLS-2005>
1.77025389671326

$$$$
28
                    3D
 Structure written by MMmdl.
168178  0  0  1  0            999 V2000
  -30.6783  -14.5414   20.4194 C   0  0  0  0  0  0
  -30.4138  -12.3111   19.4303 C   0  0  0  0  0  0
  -29.4822  -12.4307   18.2042 C   0  0  0  0  0  0
  -28.0055  -12.3213   18.6281 C   0  0  0  0  0  0
  -27.6447  -13.2106   19.8491 C   0  0  2  0  0  0
  -28.6975  -13.0951   20.9730 C   0  0  0  0  0  0
  -25.2546  -13.8178   20.5710 C   0  0  0  0  0  0
  -24.1810  -13.0437   20.9206 C   0  0  0  0  0  0
  -24.6378  -11.6915   20.8780 C   0  0  0  0  0  0
  -23.9057  -10.4293   21.0435 C   0  0  0  0  0  0
  -24.3619   -9.4202   21.9202 C   0  0  0  0  0  0
  -23.6298   -8.2237   22.0760 C   0  0  0  0  0  0
  -22.4280   -8.0280   21.3550 C   0  0  0  0  0  0
  -21.9922   -9.0247   20.4648 C   0  0  0  0  0  0
  -22.7243  -10.2131   20.3068 C   0  0  0  0  0  0
  -21.6844   -6.0747   22.5288 C   0  0  0  0  0  0
  -21.4006   -6.5653   23.8220 C   0  0  0  0  0  0
  -21.3649   -5.6801   24.9182 C   0  0  0  0  0  0
  -21.6039   -4.3064   24.7227 C   0  0  0  0  0  0
  -21.8821   -3.8159   23.4349 C   0  0  0  0  0  0
  -21.9191   -4.6975   22.3405 C   0  0  0  0  0  0
  -22.7833  -13.5230   21.1850 C   0  0  0  0  0  0
  -22.1661   -4.2167   21.0980 F   0  0  0  0  0  0
  -21.5629   -3.4541   25.7739 F   0  0  0  0  0  0
  -30.0129  -13.3562   20.3805 N   0  0  0  0  0  0
  -26.2958  -12.9345   20.3334 N   0  0  0  0  0  0
  -25.9301  -11.6509   20.5809 N   0  0  0  0  0  0
  -22.0472  -12.8220   22.0407 N   0  0  0  0  0  0
  -25.4268  -15.1892   20.4125 N   0  0  0  0  0  0
  -31.9031  -14.6156   20.2890 O   0  0  0  0  0  0
  -21.6634   -6.8883   21.4249 O   0  0  0  0  0  0
  -22.3529  -14.5533   20.6692 O   0  0  0  0  0  0
  -24.6161  -31.8667   23.2096 C   0  0  0  0  0  0
  -25.9050  -32.4810   23.8395 C   0  0  1  0  0  0
  -27.2286  -27.4093   20.1001 C   0  0  0  0  0  0
  -25.5902  -33.8608   24.2325 N   0  0  0  0  0  0
  -23.4042  -30.4898   21.5510 C   0  0  2  0  0  0
  -24.8473  -28.9533   20.1133 C   0  0  0  0  0  0
  -22.7411  -29.4654   22.4996 C   0  0  0  0  0  0
  -18.0265  -28.1377   22.8498 C   0  0  0  0  0  0
  -24.1472  -36.7298   23.2641 C   0  0  0  0  0  0
  -25.9343  -30.8256   21.3636 C   0  0  0  0  0  0
  -26.0082  -29.4579   20.7110 C   0  0  0  0  0  0
  -27.1987  -28.6925   20.7012 C   0  0  0  0  0  0
  -26.0463  -26.9278   19.4904 C   0  0  0  0  0  0
  -24.8626  -27.6891   19.5001 C   0  0  0  0  0  0
  -23.6110  -29.8227   20.1649 C   0  0  0  0  0  0
  -25.4094  -36.3102   24.0339 C   0  0  1  0  0  0
  -20.5858  -28.3667   23.1322 C   0  0  2  0  0  0
  -20.6752  -26.9405   22.5421 C   0  0  0  0  0  0
  -19.5731  -26.6387   21.5215 C   0  0  0  0  0  0
  -18.1910  -26.7929   22.1623 C   0  0  0  0  0  0
  -19.1515  -28.8838   23.2903 C   0  0  0  0  0  0
  -18.9443  -30.1447   23.8907 C   0  0  0  0  0  0
  -17.6449  -30.6587   24.0567 C   0  0  0  0  0  0
  -25.9037  -34.9470   23.5129 C   0  0  0  0  0  0
  -16.5339  -29.9092   23.6326 C   0  0  0  0  0  0
  -16.7254  -28.6506   23.0349 C   0  0  0  0  0  0
  -26.4472  -31.6591   25.0724 C   0  0  0  0  0  0
  -25.3741  -31.3664   26.1466 C   0  0  0  0  0  0
  -27.0328  -30.3046   24.6096 C   0  0  0  0  0  0
  -27.6043  -32.4316   25.7497 C   0  0  0  0  0  0
  -27.5576  -37.1787   24.8463 C   0  0  0  0  0  0
  -21.4140  -29.3032   22.3727 N   0  0  0  0  0  0
  -26.4273  -37.3799   23.9434 N   0  0  0  0  0  0
  -24.6704  -31.0755   22.1002 N   0  0  0  0  0  0
  -23.4176  -28.8201   23.3048 O   0  0  0  0  0  0
  -28.4039  -26.6771   20.1475 O   0  0  0  0  0  0
  -26.5605  -34.8924   22.4692 O   0  0  0  0  0  0
  -23.5348  -32.1426   23.7477 O   0  0  0  0  0  0
  -28.1754  -19.8861   19.9866 C   0  0  0  0  0  0
  -28.1514  -21.2989   19.9924 C   0  0  0  0  0  0
  -28.9867  -21.2776   22.2614 C   0  0  0  0  0  0
  -28.9963  -19.8585   22.2763 C   0  0  0  0  0  0
  -28.6105  -19.1456   21.1127 C   0  0  0  0  0  0
  -28.5586  -22.0221   21.1390 C   0  0  0  0  0  0
  -30.4115  -17.4041   18.4635 C   0  0  0  0  0  0
  -28.4074  -18.3538   24.3368 C   0  0  0  0  0  0
  -28.9924  -19.6254   24.8984 C   0  0  0  0  0  0
  -30.9387  -17.7798   19.8337 C   0  0  0  0  0  0
  -29.9389  -15.9577   18.6410 C   0  0  0  0  0  0
  -29.4140  -19.1403   23.5272 C   0  0  0  0  0  0
  -30.0547  -16.9433   20.7696 C   0  0  1  0  0  0
  -28.6544  -17.6009   21.0322 C   0  0  0  0  0  0
  -28.4554  -25.3276   19.6348 C   0  0  0  0  0  0
  -27.7122  -24.2373   20.4642 C   0  0  0  0  0  0
  -29.9195  -15.6278   20.0877 N   0  0  0  0  0  0
  -28.6067  -23.4083   21.2316 O   0  0  0  0  0  0
  -31.4566  -12.4075   19.1217 H   0  0  0  0  0  0
  -30.3164  -11.3276   19.8932 H   0  0  0  0  0  0
  -29.7145  -11.6468   17.4817 H   0  0  0  0  0  0
  -29.6426  -13.3705   17.6799 H   0  0  0  0  0  0
  -27.8179  -11.2750   18.8681 H   0  0  0  0  0  0
  -27.3527  -12.5567   17.7869 H   0  0  0  0  0  0
  -27.6503  -14.2385   19.4906 H   0  0  0  0  0  0
  -28.6798  -12.1037   21.4280 H   0  0  0  0  0  0
  -28.4844  -13.8107   21.7696 H   0  0  0  0  0  0
  -25.2755   -9.5689   22.4787 H   0  0  0  0  0  0
  -24.0003   -7.4638   22.7488 H   0  0  0  0  0  0
  -21.0856   -8.8766   19.8957 H   0  0  0  0  0  0
  -22.3693  -10.9680   19.6190 H   0  0  0  0  0  0
  -21.1997   -7.6165   23.9725 H   0  0  0  0  0  0
  -21.1464   -6.0535   25.9083 H   0  0  0  0  0  0
  -22.0607   -2.7623   23.2843 H   0  0  0  0  0  0
  -22.4077  -11.9880   22.4802 H   0  0  0  0  0  0
  -21.1093  -13.1252   22.2608 H   0  0  0  0  0  0
  -24.6623  -15.8456   20.5289 H   0  0  0  0  0  0
  -26.2843  -15.6274   20.1035 H   0  0  0  0  0  0
  -26.7124  -32.5518   23.1165 H   0  0  0  0  0  0
  -25.0048  -33.9764   25.0467 H   0  0  0  0  0  0
  -22.6940  -31.3079   21.4123 H   0  0  0  0  0  0
  -23.3756  -35.9607   23.3268 H   0  0  0  0  0  0
  -24.3575  -36.8956   22.2062 H   0  0  0  0  0  0
  -23.7192  -37.6474   23.6683 H   0  0  0  0  0  0
  -26.0455  -31.5890   20.5919 H   0  0  0  0  0  0
  -26.8240  -30.8809   21.9794 H   0  0  0  0  0  0
  -28.0954  -29.0782   21.1660 H   0  0  0  0  0  0
  -26.0097  -25.9615   19.0104 H   0  0  0  0  0  0
  -23.9690  -27.2956   19.0362 H   0  0  0  0  0  0
  -23.7214  -30.5982   19.4058 H   0  0  0  0  0  0
  -22.7334  -29.2437   19.8694 H   0  0  0  0  0  0
  -25.1263  -36.1960   25.0831 H   0  0  0  0  0  0
  -20.9937  -28.3232   24.1445 H   0  0  0  0  0  0
  -20.5664  -26.2272   23.3603 H   0  0  0  0  0  0
  -21.6624  -26.7452   22.1216 H   0  0  0  0  0  0
  -19.6897  -25.6303   21.1229 H   0  0  0  0  0  0
  -19.6670  -27.3203   20.6751 H   0  0  0  0  0  0
  -17.4184  -26.6686   21.4020 H   0  0  0  0  0  0
  -18.0304  -26.0066   22.9012 H   0  0  0  0  0  0
  -19.7919  -30.7257   24.2286 H   0  0  0  0  0  0
  -17.5004  -31.6265   24.5176 H   0  0  0  0  0  0
  -15.5341  -30.2998   23.7645 H   0  0  0  0  0  0
  -15.8655  -28.0833   22.7057 H   0  0  0  0  0  0
  -24.5927  -30.7001   25.7788 H   0  0  0  0  0  0
  -24.8910  -32.2796   26.4945 H   0  0  0  0  0  0
  -25.8101  -30.8809   27.0205 H   0  0  0  0  0  0
  -26.2871  -29.6778   24.1182 H   0  0  0  0  0  0
  -27.4151  -29.7305   25.4546 H   0  0  0  0  0  0
  -27.8681  -30.4387   23.9220 H   0  0  0  0  0  0
  -27.2667  -33.3629   26.2058 H   0  0  0  0  0  0
  -28.3863  -32.6844   25.0327 H   0  0  0  0  0  0
  -28.0690  -31.8442   26.5423 H   0  0  0  0  0  0
  -28.2555  -38.0122   24.7587 H   0  0  0  0  0  0
  -28.1111  -36.2657   24.6203 H   0  0  0  0  0  0
  -27.2305  -37.1342   25.8866 H   0  0  0  0  0  0
  -20.9300  -29.8760   21.6956 H   0  0  0  0  0  0
  -26.0153  -38.2864   24.1487 H   0  0  0  0  0  0
  -27.8683  -19.3678   19.0887 H   0  0  0  0  0  0
  -27.8439  -21.8047   19.0891 H   0  0  0  0  0  0
  -29.3060  -21.8154   23.1435 H   0  0  0  0  0  0
  -31.1678  -17.5075   17.6848 H   0  0  0  0  0  0
  -29.5714  -18.0411   18.1865 H   0  0  0  0  0  0
  -27.3658  -18.3795   24.0196 H   0  0  0  0  0  0
  -28.7368  -17.4177   24.7818 H   0  0  0  0  0  0
  -29.7002  -19.5188   25.7185 H   0  0  0  0  0  0
  -28.3274  -20.4839   24.9648 H   0  0  0  0  0  0
  -30.9285  -18.8529   20.0238 H   0  0  0  0  0  0
  -31.9782  -17.4589   19.9246 H   0  0  0  0  0  0
  -30.6145  -15.3147   18.0717 H   0  0  0  0  0  0
  -28.9465  -15.8222   18.2119 H   0  0  0  0  0  0
  -30.4163  -18.7279   23.4288 H   0  0  0  0  0  0
  -30.5701  -16.8381   21.7258 H   0  0  0  0  0  0
  -27.9768  -17.3116   20.2284 H   0  0  0  0  0  0
  -28.2060  -17.1652   21.9248 H   0  0  0  0  0  0
  -28.1072  -25.3179   18.6014 H   0  0  0  0  0  0
  -29.5078  -25.0511   19.5696 H   0  0  0  0  0  0
  -27.0676  -23.6616   19.8025 H   0  0  0  0  0  0
  -27.0249  -24.7141   21.1638 H   0  0  0  0  0  0
  1 25  1  0  0  0
  1 30  2  0  0  0
  1 87  1  0  0  0
  2  3  1  0  0  0
  2 25  1  0  0  0
  2 89  1  0  0  0
  2 90  1  0  0  0
  3  4  1  0  0  0
  3 91  1  0  0  0
  3 92  1  0  0  0
  4  5  1  0  0  0
  4 93  1  0  0  0
  4 94  1  0  0  0
  5  6  1  0  0  0
  5 26  1  0  0  0
  5 95  1  0  0  0
  6 25  1  0  0  0
  6 96  1  0  0  0
  6 97  1  0  0  0
  7  8  2  0  0  0
  7 26  1  0  0  0
  7 29  1  0  0  0
  8  9  1  0  0  0
  8 22  1  0  0  0
  9 10  1  0  0  0
  9 27  2  0  0  0
 10 11  2  0  0  0
 10 15  1  0  0  0
 11 12  1  0  0  0
 11 98  1  0  0  0
 12 13  2  0  0  0
 12 99  1  0  0  0
 13 14  1  0  0  0
 13 31  1  0  0  0
 14 15  2  0  0  0
 14100  1  0  0  0
 15101  1  0  0  0
 16 17  2  0  0  0
 16 21  1  0  0  0
 16 31  1  0  0  0
 17 18  1  0  0  0
 17102  1  0  0  0
 18 19  2  0  0  0
 18103  1  0  0  0
 19 20  1  0  0  0
 19 24  1  0  0  0
 20 21  2  0  0  0
 20104  1  0  0  0
 21 23  1  0  0  0
 22 28  1  0  0  0
 22 32  2  0  0  0
 26 27  1  0  0  0
 28105  1  0  0  0
 28106  1  0  0  0
 29107  1  0  0  0
 29108  1  0  0  0
 33 34  1  0  0  0
 33 66  1  0  0  0
 33 70  2  0  0  0
 34 36  1  0  0  0
 34 59  1  0  0  0
 34109  1  0  0  0
 35 44  2  0  0  0
 35 45  1  0  0  0
 35 68  1  0  0  0
 36 56  1  0  0  0
 36110  1  0  0  0
 37 39  1  0  0  0
 37 47  1  0  0  0
 37 66  1  0  0  0
 37111  1  0  0  0
 38 43  2  0  0  0
 38 46  1  0  0  0
 38 47  1  0  0  0
 39 64  1  0  0  0
 39 67  2  0  0  0
 40 52  1  0  0  0
 40 53  2  0  0  0
 40 58  1  0  0  0
 41112  1  0  0  0
 41113  1  0  0  0
 41114  1  0  0  0
 41 48  1  0  0  0
 42 43  1  0  0  0
 42 66  1  0  0  0
 42115  1  0  0  0
 42116  1  0  0  0
 43 44  1  0  0  0
 44117  1  0  0  0
 45 46  2  0  0  0
 45118  1  0  0  0
 46119  1  0  0  0
 47120  1  0  0  0
 47121  1  0  0  0
 48 56  1  0  0  0
 48 65  1  0  0  0
 48122  1  0  0  0
 49 50  1  0  0  0
 49 53  1  0  0  0
 49 64  1  0  0  0
 49123  1  0  0  0
 50 51  1  0  0  0
 50124  1  0  0  0
 50125  1  0  0  0
 51 52  1  0  0  0
 51126  1  0  0  0
 51127  1  0  0  0
 52128  1  0  0  0
 52129  1  0  0  0
 53 54  1  0  0  0
 54 55  2  0  0  0
 54130  1  0  0  0
 55 57  1  0  0  0
 55131  1  0  0  0
 56 69  2  0  0  0
 57 58  2  0  0  0
 57132  1  0  0  0
 58133  1  0  0  0
 59 60  1  0  0  0
 59 61  1  0  0  0
 59 62  1  0  0  0
 60134  1  0  0  0
 60135  1  0  0  0
 60136  1  0  0  0
 61137  1  0  0  0
 61138  1  0  0  0
 61139  1  0  0  0
 62140  1  0  0  0
 62141  1  0  0  0
 62142  1  0  0  0
 63 65  1  0  0  0
 63143  1  0  0  0
 63144  1  0  0  0
 63145  1  0  0  0
 64146  1  0  0  0
 65147  1  0  0  0
 68 85  1  0  0  0
 71 72  2  0  0  0
 71 75  1  0  0  0
 71148  1  0  0  0
 72 76  1  0  0  0
 72149  1  0  0  0
 73 74  1  0  0  0
 73 76  2  0  0  0
 73150  1  0  0  0
 74 75  2  0  0  0
 74 82  1  0  0  0
 75 84  1  0  0  0
 76 88  1  0  0  0
 77 80  1  0  0  0
 77 81  1  0  0  0
 77151  1  0  0  0
 77152  1  0  0  0
 78 79  1  0  0  0
 78 82  1  0  0  0
 78153  1  0  0  0
 78154  1  0  0  0
 79 82  1  0  0  0
 79155  1  0  0  0
 79156  1  0  0  0
 80 83  1  0  0  0
 80157  1  0  0  0
 80158  1  0  0  0
 81 87  1  0  0  0
 81159  1  0  0  0
 81160  1  0  0  0
 82161  1  0  0  0
 83 84  1  0  0  0
 83 87  1  0  0  0
 83162  1  0  0  0
 84163  1  0  0  0
 84164  1  0  0  0
 85 86  1  0  0  0
 85165  1  0  0  0
 85166  1  0  0  0
 86 88  1  0  0  0
 86167  1  0  0  0
 86168  1  0  0  0
M  ISO  4   1 100  68 101  85 101  87 100
M  END
> <chiral flag>
0

> <version>
0

> <s_m_source_file>
/data/baiqing/PycharmProjects/Reinvent-master-3.2/result/LINK_invent/BTK/process_docking_weight1_custom_sum_contain_oxygen_bond_distance_aromatic_linkinvent_7_9_3/rearranged_h_0164.sdf

> <i_m_source_file_index>
29

> <r_mmod_Potential_Energy-OPLS-2005>
314.623718261719

> <r_mmod_Stretch_Energy-OPLS-2005>
47.917911529541

> <r_mmod_Bend_Energy-OPLS-2005>
149.473724365234

> <r_mmod_Torsional_Energy-OPLS-2005>
389.607879638672

> <r_mmod_Improper_Torsional_Energy-OPLS-2005>
21.0898170471191

> <r_mmod_Van_der_Waal_Energy-OPLS-2005>
144.291244506836

> <r_mmod_Electrostatic_Energy-OPLS-2005>
-275.283203125

> <r_mmod_Solvation_Energy-OPLS-2005>
-197.411193847656

> <b_mmod_Minimization_Converged-OPLS-2005>
0

> <r_mmod_RMS_Derivative-OPLS-2005>
1.55175852775574

$$$$
29
                    3D
 Structure written by MMmdl.
168177  0  0  1  0            999 V2000
  -30.6842  -14.7809   20.4473 C   0  0  0  0  0  0
  -30.4101  -12.4876   19.4793 C   0  0  0  0  0  0
  -29.4985  -12.5013   18.2368 C   0  0  0  0  0  0
  -28.0304  -12.3111   18.6566 C   0  0  0  0  0  0
  -27.6282  -13.2324   19.8377 C   0  0  2  0  0  0
  -28.6791  -13.2414   20.9731 C   0  0  0  0  0  0
  -25.2451  -13.8181   20.5693 C   0  0  0  0  0  0
  -24.1764  -13.0425   20.9236 C   0  0  0  0  0  0
  -24.6369  -11.6908   20.8776 C   0  0  0  0  0  0
  -23.9053  -10.4285   21.0421 C   0  0  0  0  0  0
  -24.3610   -9.4203   21.9197 C   0  0  0  0  0  0
  -23.6292   -8.2232   22.0753 C   0  0  0  0  0  0
  -22.4278   -8.0267   21.3536 C   0  0  0  0  0  0
  -21.9911   -9.0243   20.4641 C   0  0  0  0  0  0
  -22.7230  -10.2127   20.3063 C   0  0  0  0  0  0
  -21.6847   -6.0728   22.5281 C   0  0  0  0  0  0
  -21.4005   -6.5634   23.8215 C   0  0  0  0  0  0
  -21.3661   -5.6787   24.9178 C   0  0  0  0  0  0
  -21.6051   -4.3051   24.7223 C   0  0  0  0  0  0
  -21.8819   -3.8140   23.4343 C   0  0  0  0  0  0
  -21.9188   -4.6956   22.3403 C   0  0  0  0  0  0
  -22.7791  -13.5219   21.1877 C   0  0  0  0  0  0
  -22.1662   -4.2143   21.0979 F   0  0  0  0  0  0
  -21.5632   -3.4536   25.7734 F   0  0  0  0  0  0
  -29.9667  -13.5970   20.3667 N   0  0  0  0  0  0
  -26.2872  -12.9390   20.3268 N   0  0  0  0  0  0
  -25.9301  -11.6536   20.5789 N   0  0  0  0  0  0
  -22.0418  -12.8228   22.0427 N   0  0  0  0  0  0
  -25.4086  -15.1898   20.4046 N   0  0  0  0  0  0
  -31.8889  -14.7184   20.1822 O   0  0  0  0  0  0
  -21.6636   -6.8870   21.4241 O   0  0  0  0  0  0
  -22.3494  -14.5528   20.6711 O   0  0  0  0  0  0
  -24.6328  -31.8542   23.1994 C   0  0  0  0  0  0
  -25.9155  -32.4741   23.8336 C   0  0  1  0  0  0
  -27.2067  -27.2496   20.1394 C   0  0  0  0  0  0
  -25.5941  -33.8548   24.2248 N   0  0  0  0  0  0
  -23.4305  -30.4786   21.5423 C   0  0  2  0  0  0
  -24.8794  -28.9308   20.1048 C   0  0  0  0  0  0
  -22.7516  -29.4601   22.4903 C   0  0  0  0  0  0
  -18.0292  -28.1388   22.8480 C   0  0  0  0  0  0
  -24.1492  -36.7283   23.2638 C   0  0  0  0  0  0
  -25.9788  -30.7633   21.3846 C   0  0  0  0  0  0
  -26.0520  -29.3872   20.7230 C   0  0  0  0  0  0
  -27.2237  -28.5590   20.7312 C   0  0  0  0  0  0
  -26.0241  -26.8780   19.4663 C   0  0  0  0  0  0
  -24.8720  -27.6846   19.4620 C   0  0  0  0  0  0
  -23.6498  -29.8169   20.1568 C   0  0  0  0  0  0
  -25.4119  -36.3058   24.0322 C   0  0  1  0  0  0
  -20.5899  -28.3703   23.1260 C   0  0  2  0  0  0
  -20.6784  -26.9418   22.5407 C   0  0  0  0  0  0
  -19.5758  -26.6383   21.5211 C   0  0  0  0  0  0
  -18.1938  -26.7934   22.1619 C   0  0  0  0  0  0
  -19.1548  -28.8866   23.2863 C   0  0  0  0  0  0
  -18.9465  -30.1465   23.8877 C   0  0  0  0  0  0
  -17.6465  -30.6589   24.0558 C   0  0  0  0  0  0
  -25.9062  -34.9430   23.5084 C   0  0  0  0  0  0
  -16.5354  -29.9079   23.6337 C   0  0  0  0  0  0
  -16.7280  -28.6500   23.0356 C   0  0  0  0  0  0
  -26.4518  -31.6575   25.0738 C   0  0  0  0  0  0
  -25.3735  -31.3729   26.1453 C   0  0  0  0  0  0
  -27.0381  -30.2982   24.6265 C   0  0  0  0  0  0
  -27.6051  -32.4340   25.7518 C   0  0  0  0  0  0
  -27.5582  -37.1794   24.8460 C   0  0  0  0  0  0
  -21.4220  -29.3044   22.3646 N   0  0  0  0  0  0
  -26.4286  -37.3766   23.9409 N   0  0  0  0  0  0
  -24.6993  -31.0501   22.0977 N   0  0  0  0  0  0
  -23.4211  -28.8142   23.3006 O   0  0  0  0  0  0
  -28.2321  -26.2760   20.2143 O   0  0  0  0  0  0
  -26.5639  -34.8903   22.4654 O   0  0  0  0  0  0
  -23.5476  -32.1371   23.7284 O   0  0  0  0  0  0
  -29.1524  -22.9425   19.7393 C   0  0  0  0  0  0
  -27.9663  -22.5309   21.7906 C   0  0  0  0  0  0
  -28.3714  -23.4977   20.8020 C   0  0  0  0  0  0
  -29.4632  -21.5213   19.6577 C   0  0  0  0  0  0
  -28.3326  -21.1299   21.7456 C   0  0  0  0  0  0
  -29.0681  -20.5581   20.6549 C   0  0  0  0  0  0
  -30.5409  -18.6024   21.3093 C   0  0  0  0  0  0
  -28.3517  -18.0913   20.4606 C   0  0  0  0  0  0
  -31.0754  -17.2153   20.7960 C   0  0  0  0  0  0
  -28.7820  -16.5570   20.2573 C   0  0  0  0  0  0
  -29.6459  -23.8942   18.6549 C   0  0  0  0  0  0
  -27.0943  -23.0099   22.9618 C   0  0  0  0  0  0
  -30.2471  -21.0173   18.4465 C   0  0  0  0  0  0
  -27.9101  -20.2421   22.9185 C   0  0  0  0  0  0
  -27.8270  -25.0205   20.9456 C   0  0  0  0  0  0
  -29.4057  -19.1311   20.5435 N   0  0  0  0  0  0
  -30.1273  -16.0589   20.6790 N   0  0  0  0  0  0
  -31.4524  -12.5747   19.1683 H   0  0  0  0  0  0
  -30.3417  -11.5295   19.9977 H   0  0  0  0  0  0
  -29.7944  -11.7172   17.5384 H   0  0  0  0  0  0
  -29.6127  -13.4467   17.7049 H   0  0  0  0  0  0
  -27.9026  -11.2665   18.9423 H   0  0  0  0  0  0
  -27.3681  -12.4765   17.8056 H   0  0  0  0  0  0
  -27.5925  -14.2293   19.4054 H   0  0  0  0  0  0
  -28.7385  -12.2658   21.4585 H   0  0  0  0  0  0
  -28.4118  -13.9526   21.7547 H   0  0  0  0  0  0
  -25.2740   -9.5690   22.4793 H   0  0  0  0  0  0
  -23.9991   -7.4626   22.7483 H   0  0  0  0  0  0
  -21.0835   -8.8772   19.8957 H   0  0  0  0  0  0
  -22.3681  -10.9678   19.6188 H   0  0  0  0  0  0
  -21.2000   -7.6141   23.9718 H   0  0  0  0  0  0
  -21.1486   -6.0514   25.9084 H   0  0  0  0  0  0
  -22.0598   -2.7600   23.2839 H   0  0  0  0  0  0
  -22.3998  -11.9885   22.4832 H   0  0  0  0  0  0
  -21.1039  -13.1283   22.2613 H   0  0  0  0  0  0
  -24.6362  -15.8378   20.5138 H   0  0  0  0  0  0
  -26.2446  -15.6265   20.0419 H   0  0  0  0  0  0
  -26.7225  -32.5386   23.1076 H   0  0  0  0  0  0
  -25.0070  -33.9681   25.0383 H   0  0  0  0  0  0
  -22.7266  -31.3010   21.3978 H   0  0  0  0  0  0
  -23.3753  -35.9616   23.3283 H   0  0  0  0  0  0
  -24.3580  -36.8932   22.2056 H   0  0  0  0  0  0
  -23.7248  -37.6477   23.6682 H   0  0  0  0  0  0
  -26.1256  -31.5261   20.6187 H   0  0  0  0  0  0
  -26.8530  -30.8058   22.0228 H   0  0  0  0  0  0
  -28.1151  -28.8950   21.2426 H   0  0  0  0  0  0
  -25.9726  -25.9176   18.9718 H   0  0  0  0  0  0
  -23.9779  -27.3331   18.9649 H   0  0  0  0  0  0
  -23.7716  -30.5949   19.4025 H   0  0  0  0  0  0
  -22.7680  -29.2505   19.8517 H   0  0  0  0  0  0
  -25.1301  -36.1896   25.0816 H   0  0  0  0  0  0
  -20.9989  -28.3284   24.1382 H   0  0  0  0  0  0
  -20.5688  -26.2311   23.3615 H   0  0  0  0  0  0
  -21.6649  -26.7447   22.1192 H   0  0  0  0  0  0
  -19.6917  -25.6292   21.1249 H   0  0  0  0  0  0
  -19.6695  -27.3185   20.6734 H   0  0  0  0  0  0
  -17.4213  -26.6687   21.4016 H   0  0  0  0  0  0
  -18.0326  -26.0073   22.9008 H   0  0  0  0  0  0
  -19.7942  -30.7291   24.2232 H   0  0  0  0  0  0
  -17.5017  -31.6267   24.5158 H   0  0  0  0  0  0
  -15.5355  -30.2971   23.7676 H   0  0  0  0  0  0
  -15.8679  -28.0813   22.7079 H   0  0  0  0  0  0
  -24.5898  -30.7095   25.7777 H   0  0  0  0  0  0
  -24.8945  -32.2901   26.4890 H   0  0  0  0  0  0
  -25.8048  -30.8889   27.0227 H   0  0  0  0  0  0
  -26.2983  -29.6710   24.1273 H   0  0  0  0  0  0
  -27.4019  -29.7269   25.4819 H   0  0  0  0  0  0
  -27.8883  -30.4237   23.9552 H   0  0  0  0  0  0
  -27.2628  -33.3635   26.2083 H   0  0  0  0  0  0
  -28.3866  -32.6921   25.0357 H   0  0  0  0  0  0
  -28.0718  -31.8485   26.5450 H   0  0  0  0  0  0
  -28.2580  -38.0109   24.7519 H   0  0  0  0  0  0
  -28.1092  -36.2637   24.6261 H   0  0  0  0  0  0
  -27.2298  -37.1413   25.8861 H   0  0  0  0  0  0
  -20.9412  -29.8753   21.6834 H   0  0  0  0  0  0
  -26.0157  -38.2836   24.1415 H   0  0  0  0  0  0
  -31.3518  -19.3320   21.2764 H   0  0  0  0  0  0
  -30.2776  -18.5018   22.3610 H   0  0  0  0  0  0
  -27.7446  -18.1359   21.3623 H   0  0  0  0  0  0
  -27.6655  -18.3693   19.6589 H   0  0  0  0  0  0
  -31.8930  -16.9276   21.4600 H   0  0  0  0  0  0
  -31.5314  -17.3687   19.8161 H   0  0  0  0  0  0
  -28.6942  -16.3290   19.1935 H   0  0  0  0  0  0
  -28.0302  -15.9552   20.7605 H   0  0  0  0  0  0
  -29.8494  -24.8839   19.0573 H   0  0  0  0  0  0
  -28.8999  -23.9929   17.8665 H   0  0  0  0  0  0
  -30.5842  -23.5717   18.2064 H   0  0  0  0  0  0
  -26.4023  -23.8049   22.6940 H   0  0  0  0  0  0
  -27.7224  -23.3707   23.7768 H   0  0  0  0  0  0
  -26.4418  -22.2340   23.3568 H   0  0  0  0  0  0
  -29.8871  -21.4773   17.5265 H   0  0  0  0  0  0
  -30.1604  -19.9426   18.2945 H   0  0  0  0  0  0
  -31.3053  -21.2510   18.5615 H   0  0  0  0  0  0
  -28.0617  -20.7478   23.8718 H   0  0  0  0  0  0
  -28.4760  -19.3222   23.0051 H   0  0  0  0  0  0
  -26.8573  -19.9724   22.8275 H   0  0  0  0  0  0
  -27.9960  -25.2944   21.9877 H   0  0  0  0  0  0
  -26.7481  -24.9043   20.8562 H   0  0  0  0  0  0
  1 25  1  0  0  0
  1 30  2  0  0  0
  1 87  1  0  0  0
  2  3  1  0  0  0
  2 25  1  0  0  0
  2 88  1  0  0  0
  2 89  1  0  0  0
  3  4  1  0  0  0
  3 90  1  0  0  0
  3 91  1  0  0  0
  4  5  1  0  0  0
  4 92  1  0  0  0
  4 93  1  0  0  0
  5  6  1  0  0  0
  5 26  1  0  0  0
  5 94  1  0  0  0
  6 25  1  0  0  0
  6 95  1  0  0  0
  6 96  1  0  0  0
  7  8  2  0  0  0
  7 26  1  0  0  0
  7 29  1  0  0  0
  8  9  1  0  0  0
  8 22  1  0  0  0
  9 10  1  0  0  0
  9 27  2  0  0  0
 10 11  2  0  0  0
 10 15  1  0  0  0
 11 12  1  0  0  0
 11 97  1  0  0  0
 12 13  2  0  0  0
 12 98  1  0  0  0
 13 14  1  0  0  0
 13 31  1  0  0  0
 14 15  2  0  0  0
 14 99  1  0  0  0
 15100  1  0  0  0
 16 17  2  0  0  0
 16 21  1  0  0  0
 16 31  1  0  0  0
 17 18  1  0  0  0
 17101  1  0  0  0
 18 19  2  0  0  0
 18102  1  0  0  0
 19 20  1  0  0  0
 19 24  1  0  0  0
 20 21  2  0  0  0
 20103  1  0  0  0
 21 23  1  0  0  0
 22 28  1  0  0  0
 22 32  2  0  0  0
 26 27  1  0  0  0
 28104  1  0  0  0
 28105  1  0  0  0
 29106  1  0  0  0
 29107  1  0  0  0
 33 34  1  0  0  0
 33 66  1  0  0  0
 33 70  2  0  0  0
 34 36  1  0  0  0
 34 59  1  0  0  0
 34108  1  0  0  0
 35 44  2  0  0  0
 35 45  1  0  0  0
 35 68  1  0  0  0
 36 56  1  0  0  0
 36109  1  0  0  0
 37 39  1  0  0  0
 37 47  1  0  0  0
 37 66  1  0  0  0
 37110  1  0  0  0
 38 43  2  0  0  0
 38 46  1  0  0  0
 38 47  1  0  0  0
 39 64  1  0  0  0
 39 67  2  0  0  0
 40 52  1  0  0  0
 40 53  2  0  0  0
 40 58  1  0  0  0
 41111  1  0  0  0
 41112  1  0  0  0
 41113  1  0  0  0
 41 48  1  0  0  0
 42 43  1  0  0  0
 42 66  1  0  0  0
 42114  1  0  0  0
 42115  1  0  0  0
 43 44  1  0  0  0
 44116  1  0  0  0
 45 46  2  0  0  0
 45117  1  0  0  0
 46118  1  0  0  0
 47119  1  0  0  0
 47120  1  0  0  0
 48 56  1  0  0  0
 48 65  1  0  0  0
 48121  1  0  0  0
 49 50  1  0  0  0
 49 53  1  0  0  0
 49 64  1  0  0  0
 49122  1  0  0  0
 50 51  1  0  0  0
 50123  1  0  0  0
 50124  1  0  0  0
 51 52  1  0  0  0
 51125  1  0  0  0
 51126  1  0  0  0
 52127  1  0  0  0
 52128  1  0  0  0
 53 54  1  0  0  0
 54 55  2  0  0  0
 54129  1  0  0  0
 55 57  1  0  0  0
 55130  1  0  0  0
 56 69  2  0  0  0
 57 58  2  0  0  0
 57131  1  0  0  0
 58132  1  0  0  0
 59 60  1  0  0  0
 59 61  1  0  0  0
 59 62  1  0  0  0
 60133  1  0  0  0
 60134  1  0  0  0
 60135  1  0  0  0
 61136  1  0  0  0
 61137  1  0  0  0
 61138  1  0  0  0
 62139  1  0  0  0
 62140  1  0  0  0
 62141  1  0  0  0
 63 65  1  0  0  0
 63142  1  0  0  0
 63143  1  0  0  0
 63144  1  0  0  0
 64145  1  0  0  0
 65146  1  0  0  0
 68 85  1  0  0  0
 71 73  2  0  0  0
 71 74  1  0  0  0
 71 81  1  0  0  0
 72 73  1  0  0  0
 72 75  2  0  0  0
 72 82  1  0  0  0
 73 85  1  0  0  0
 74 76  2  0  0  0
 74 83  1  0  0  0
 75 76  1  0  0  0
 75 84  1  0  0  0
 76 86  1  0  0  0
 77 79  1  0  0  0
 77 86  1  0  0  0
 77147  1  0  0  0
 77148  1  0  0  0
 78 80  1  0  0  0
 78 86  1  0  0  0
 78149  1  0  0  0
 78150  1  0  0  0
 79 87  1  0  0  0
 79151  1  0  0  0
 79152  1  0  0  0
 80 87  1  0  0  0
 80153  1  0  0  0
 80154  1  0  0  0
 81155  1  0  0  0
 81156  1  0  0  0
 81157  1  0  0  0
 82158  1  0  0  0
 82159  1  0  0  0
 82160  1  0  0  0
 83161  1  0  0  0
 83162  1  0  0  0
 83163  1  0  0  0
 84164  1  0  0  0
 84165  1  0  0  0
 84166  1  0  0  0
 85167  1  0  0  0
 85168  1  0  0  0
M  ISO  4   1 100  68 101  85 101  87 100
M  END
> <chiral flag>
0

> <version>
0

> <s_m_source_file>
/data/baiqing/PycharmProjects/Reinvent-master-3.2/result/LINK_invent/BTK/process_docking_weight1_custom_sum_contain_oxygen_bond_distance_aromatic_linkinvent_7_9_3/rearranged_h_0164.sdf

> <i_m_source_file_index>
30

> <r_mmod_Potential_Energy-OPLS-2005>
484.810302734375

> <r_mmod_Stretch_Energy-OPLS-2005>
142.623458862305

> <r_mmod_Bend_Energy-OPLS-2005>
236.468170166016

> <r_mmod_Torsional_Energy-OPLS-2005>
382.280303955078

> <r_mmod_Improper_Torsional_Energy-OPLS-2005>
8.2242956161499

> <r_mmod_Van_der_Waal_Energy-OPLS-2005>
176.872909545898

> <r_mmod_Electrostatic_Energy-OPLS-2005>
-368.127777099609

> <r_mmod_Solvation_Energy-OPLS-2005>
-204.880096435547

> <b_mmod_Minimization_Converged-OPLS-2005>
0

> <r_mmod_RMS_Derivative-OPLS-2005>
1.11748886108398

$$$$
30
                    3D
 Structure written by MMmdl.
156165  0  0  1  0            999 V2000
  -30.3834  -15.3828   20.3079 C   0  0  0  0  0  0
  -30.4426  -12.8872   19.5163 C   0  0  0  0  0  0
  -29.5423  -12.5689   18.2933 C   0  0  0  0  0  0
  -28.0934  -12.2849   18.7299 C   0  0  0  0  0  0
  -27.6038  -13.2739   19.8160 C   0  0  2  0  0  0
  -28.6405  -13.5109   20.9344 C   0  0  0  0  0  0
  -25.2395  -13.8231   20.5797 C   0  0  0  0  0  0
  -24.1734  -13.0425   20.9266 C   0  0  0  0  0  0
  -24.6387  -11.6920   20.8771 C   0  0  0  0  0  0
  -23.9083  -10.4285   21.0409 C   0  0  0  0  0  0
  -24.3630   -9.4199   21.9187 C   0  0  0  0  0  0
  -23.6299   -8.2237   22.0755 C   0  0  0  0  0  0
  -22.4281   -8.0279   21.3544 C   0  0  0  0  0  0
  -21.9921   -9.0253   20.4645 C   0  0  0  0  0  0
  -22.7256  -10.2129   20.3055 C   0  0  0  0  0  0
  -21.6854   -6.0736   22.5279 C   0  0  0  0  0  0
  -21.4014   -6.5639   23.8212 C   0  0  0  0  0  0
  -21.3659   -5.6792   24.9175 C   0  0  0  0  0  0
  -21.6044   -4.3055   24.7225 C   0  0  0  0  0  0
  -21.8820   -3.8147   23.4346 C   0  0  0  0  0  0
  -21.9193   -4.6964   22.3402 C   0  0  0  0  0  0
  -22.7753  -13.5185   21.1905 C   0  0  0  0  0  0
  -22.1662   -4.2150   21.0980 F   0  0  0  0  0  0
  -21.5629   -3.4539   25.7738 F   0  0  0  0  0  0
  -29.8479  -14.0493   20.2807 N   0  0  0  0  0  0
  -26.2805  -12.9487   20.3260 N   0  0  0  0  0  0
  -25.9325  -11.6597   20.5741 N   0  0  0  0  0  0
  -22.0407  -12.8168   22.0455 N   0  0  0  0  0  0
  -25.4070  -15.1971   20.4286 N   0  0  0  0  0  0
  -31.6241  -15.3655   20.2541 O   0  0  0  0  0  0
  -21.6640   -6.8879   21.4241 O   0  0  0  0  0  0
  -22.3438  -14.5488   20.6745 O   0  0  0  0  0  0
  -24.6690  -31.8169   23.1646 C   0  0  0  0  0  0
  -25.9343  -32.4553   23.8135 C   0  0  1  0  0  0
  -27.2226  -26.8640   20.1976 C   0  0  0  0  0  0
  -25.5985  -33.8370   24.2038 N   0  0  0  0  0  0
  -23.4868  -30.4252   21.5157 C   0  0  2  0  0  0
  -24.9408  -28.7962   20.1182 C   0  0  0  0  0  0
  -22.7694  -29.4406   22.4768 C   0  0  0  0  0  0
  -18.0326  -28.1412   22.8463 C   0  0  0  0  0  0
  -24.1492  -36.7188   23.2649 C   0  0  0  0  0  0
  -26.0594  -30.6037   21.4030 C   0  0  0  0  0  0
  -26.1276  -29.1853   20.7517 C   0  0  0  0  0  0
  -27.2621  -28.2440   20.7595 C   0  0  0  0  0  0
  -26.0028  -26.6403   19.5182 C   0  0  0  0  0  0
  -24.9075  -27.5456   19.4799 C   0  0  0  0  0  0
  -23.7307  -29.7331   20.1459 C   0  0  0  0  0  0
  -25.4137  -36.2945   24.0294 C   0  0  1  0  0  0
  -20.5954  -28.3760   23.1176 C   0  0  2  0  0  0
  -20.6799  -26.9436   22.5402 C   0  0  0  0  0  0
  -19.5774  -26.6377   21.5213 C   0  0  0  0  0  0
  -18.1957  -26.7944   22.1620 C   0  0  0  0  0  0
  -19.1589  -28.8909   23.2804 C   0  0  0  0  0  0
  -18.9499  -30.1496   23.8842 C   0  0  0  0  0  0
  -17.6491  -30.6600   24.0554 C   0  0  0  0  0  0
  -25.9107  -34.9331   23.4991 C   0  0  0  0  0  0
  -16.5381  -29.9085   23.6347 C   0  0  0  0  0  0
  -16.7308  -28.6507   23.0363 C   0  0  0  0  0  0
  -26.4573  -31.6522   25.0689 C   0  0  0  0  0  0
  -25.3683  -31.3793   26.1335 C   0  0  0  0  0  0
  -27.0480  -30.2882   24.6466 C   0  0  0  0  0  0
  -27.6053  -32.4346   25.7498 C   0  0  0  0  0  0
  -27.5565  -37.1754   24.8469 C   0  0  0  0  0  0
  -21.4358  -29.3038   22.3516 N   0  0  0  0  0  0
  -26.4277  -37.3688   23.9405 N   0  0  0  0  0  0
  -24.7605  -30.9772   22.0813 N   0  0  0  0  0  0
  -23.4212  -28.7988   23.3042 O   0  0  0  0  0  0
  -28.2309  -25.7407   20.2362 O   0  0  0  0  0  0
  -26.5726  -34.8879   22.4593 O   0  0  0  0  0  0
  -23.5746  -32.1167   23.6701 O   0  0  0  0  0  0
  -28.5187  -19.4763   19.5420 C   0  0  0  0  0  0
  -30.1221  -17.2579   17.8320 C   0  0  0  0  0  0
  -30.6493  -18.3942   18.7220 C   0  0  0  0  0  0
  -29.9262  -19.5660   21.0797 C   0  0  0  0  0  0
  -29.0882  -16.5112   18.7024 C   0  0  0  0  0  0
  -28.8637  -20.7638   20.5475 C   0  0  1  0  0  0
  -29.7479  -18.3715   19.9510 C   0  0  1  0  0  0
  -30.4022  -22.9753   20.7517 C   0  0  0  0  0  0
  -28.0074  -24.0721   20.3241 C   0  0  0  0  0  0
  -29.0538  -22.5619   20.1497 C   0  0  2  0  0  0
  -29.5860  -16.6585   20.0823 N   0  0  0  0  0  0
  -27.6031  -19.3779   18.7225 O   0  0  0  0  0  0
  -31.4483  -13.1251   19.1668 H   0  0  0  0  0  0
  -30.5537  -12.0117   20.1581 H   0  0  0  0  0  0
  -29.9401  -11.7149   17.7435 H   0  0  0  0  0  0
  -29.5594  -13.4070   17.5966 H   0  0  0  0  0  0
  -28.0661  -11.2698   19.1278 H   0  0  0  0  0  0
  -27.4238  -12.2937   17.8690 H   0  0  0  0  0  0
  -27.4831  -14.2190   19.2913 H   0  0  0  0  0  0
  -28.8442  -12.5987   21.4970 H   0  0  0  0  0  0
  -28.2627  -14.2432   21.6497 H   0  0  0  0  0  0
  -25.2770   -9.5676   22.4768 H   0  0  0  0  0  0
  -24.0005   -7.4628   22.7475 H   0  0  0  0  0  0
  -21.0853   -8.8776   19.8949 H   0  0  0  0  0  0
  -22.3715  -10.9671   19.6168 H   0  0  0  0  0  0
  -21.2007   -7.6147   23.9716 H   0  0  0  0  0  0
  -21.1480   -6.0522   25.9078 H   0  0  0  0  0  0
  -22.0599   -2.7609   23.2846 H   0  0  0  0  0  0
  -22.4036  -11.9837   22.4847 H   0  0  0  0  0  0
  -21.1019  -13.1177   22.2656 H   0  0  0  0  0  0
  -24.6451  -15.8534   20.5602 H   0  0  0  0  0  0
  -26.2719  -15.6440   20.1525 H   0  0  0  0  0  0
  -26.7416  -32.5075   23.0848 H   0  0  0  0  0  0
  -25.0073  -33.9435   25.0150 H   0  0  0  0  0  0
  -22.8035  -31.2583   21.3384 H   0  0  0  0  0  0
  -23.3764  -35.9509   23.3288 H   0  0  0  0  0  0
  -24.3562  -36.8862   22.2068 H   0  0  0  0  0  0
  -23.7244  -37.6366   23.6726 H   0  0  0  0  0  0
  -26.2438  -31.3392   20.6188 H   0  0  0  0  0  0
  -26.9176  -30.6660   22.0600 H   0  0  0  0  0  0
  -28.1632  -28.5466   21.2740 H   0  0  0  0  0  0
  -25.8658  -25.6897   19.0239 H   0  0  0  0  0  0
  -24.0077  -27.2409   18.9632 H   0  0  0  0  0  0
  -23.8931  -30.4976   19.3852 H   0  0  0  0  0  0
  -22.8387  -29.1912   19.8268 H   0  0  0  0  0  0
  -25.1340  -36.1731   25.0785 H   0  0  0  0  0  0
  -21.0039  -28.3372   24.1300 H   0  0  0  0  0  0
  -20.5673  -26.2381   23.3649 H   0  0  0  0  0  0
  -21.6662  -26.7402   22.1214 H   0  0  0  0  0  0
  -19.6932  -25.6274   21.1278 H   0  0  0  0  0  0
  -19.6714  -27.3157   20.6720 H   0  0  0  0  0  0
  -17.4226  -26.6687   21.4024 H   0  0  0  0  0  0
  -18.0349  -26.0099   22.9029 H   0  0  0  0  0  0
  -19.7974  -30.7328   24.2186 H   0  0  0  0  0  0
  -17.5043  -31.6274   24.5167 H   0  0  0  0  0  0
  -15.5379  -30.2969   23.7704 H   0  0  0  0  0  0
  -15.8709  -28.0808   22.7109 H   0  0  0  0  0  0
  -24.5885  -30.7121   25.7644 H   0  0  0  0  0  0
  -24.8850  -32.2999   26.4613 H   0  0  0  0  0  0
  -25.7900  -30.9058   27.0210 H   0  0  0  0  0  0
  -26.3162  -29.6541   24.1449 H   0  0  0  0  0  0
  -27.3966  -29.7268   25.5145 H   0  0  0  0  0  0
  -27.9120  -30.4049   23.9922 H   0  0  0  0  0  0
  -27.2615  -33.3701   26.1923 H   0  0  0  0  0  0
  -28.3943  -32.6819   25.0385 H   0  0  0  0  0  0
  -28.0632  -31.8574   26.5541 H   0  0  0  0  0  0
  -28.2570  -38.0060   24.7499 H   0  0  0  0  0  0
  -28.1071  -36.2583   24.6318 H   0  0  0  0  0  0
  -27.2276  -37.1423   25.8871 H   0  0  0  0  0  0
  -20.9628  -29.8714   21.6622 H   0  0  0  0  0  0
  -26.0117  -38.2744   24.1409 H   0  0  0  0  0  0
  -30.9414  -16.6018   17.5332 H   0  0  0  0  0  0
  -29.6576  -17.6353   16.9199 H   0  0  0  0  0  0
  -30.6559  -19.3487   18.1916 H   0  0  0  0  0  0
  -31.6825  -18.1982   19.0113 H   0  0  0  0  0  0
  -29.6445  -19.2136   22.0734 H   0  0  0  0  0  0
  -30.9565  -19.9199   21.1287 H   0  0  0  0  0  0
  -28.9810  -15.4977   18.3178 H   0  0  0  0  0  0
  -28.0865  -16.9281   18.6134 H   0  0  0  0  0  0
  -28.0821  -20.7526   21.3071 H   0  0  0  0  0  0
  -31.1950  -22.2857   20.4619 H   0  0  0  0  0  0
  -30.3537  -22.9930   21.8406 H   0  0  0  0  0  0
  -30.6963  -23.9704   20.4157 H   0  0  0  0  0  0
  -27.5692  -23.9631   21.3163 H   0  0  0  0  0  0
  -27.1674  -23.8877   19.6553 H   0  0  0  0  0  0
  -29.2306  -22.5584   19.0735 H   0  0  0  0  0  0
  1 25  1  0  0  0
  1 30  2  0  0  0
  1 81  1  0  0  0
  2  3  1  0  0  0
  2 25  1  0  0  0
  2 83  1  0  0  0
  2 84  1  0  0  0
  3  4  1  0  0  0
  3 85  1  0  0  0
  3 86  1  0  0  0
  4  5  1  0  0  0
  4 87  1  0  0  0
  4 88  1  0  0  0
  5  6  1  0  0  0
  5 26  1  0  0  0
  5 89  1  0  0  0
  6 25  1  0  0  0
  6 90  1  0  0  0
  6 91  1  0  0  0
  7  8  2  0  0  0
  7 26  1  0  0  0
  7 29  1  0  0  0
  8  9  1  0  0  0
  8 22  1  0  0  0
  9 10  1  0  0  0
  9 27  2  0  0  0
 10 11  2  0  0  0
 10 15  1  0  0  0
 11 12  1  0  0  0
 11 92  1  0  0  0
 12 13  2  0  0  0
 12 93  1  0  0  0
 13 14  1  0  0  0
 13 31  1  0  0  0
 14 15  2  0  0  0
 14 94  1  0  0  0
 15 95  1  0  0  0
 16 17  2  0  0  0
 16 21  1  0  0  0
 16 31  1  0  0  0
 17 18  1  0  0  0
 17 96  1  0  0  0
 18 19  2  0  0  0
 18 97  1  0  0  0
 19 20  1  0  0  0
 19 24  1  0  0  0
 20 21  2  0  0  0
 20 98  1  0  0  0
 21 23  1  0  0  0
 22 28  1  0  0  0
 22 32  2  0  0  0
 26 27  1  0  0  0
 28 99  1  0  0  0
 28100  1  0  0  0
 29101  1  0  0  0
 29102  1  0  0  0
 33 34  1  0  0  0
 33 66  1  0  0  0
 33 70  2  0  0  0
 34 36  1  0  0  0
 34 59  1  0  0  0
 34103  1  0  0  0
 35 44  2  0  0  0
 35 45  1  0  0  0
 35 68  1  0  0  0
 36 56  1  0  0  0
 36104  1  0  0  0
 37 39  1  0  0  0
 37 47  1  0  0  0
 37 66  1  0  0  0
 37105  1  0  0  0
 38 43  2  0  0  0
 38 46  1  0  0  0
 38 47  1  0  0  0
 39 64  1  0  0  0
 39 67  2  0  0  0
 40 52  1  0  0  0
 40 53  2  0  0  0
 40 58  1  0  0  0
 41106  1  0  0  0
 41107  1  0  0  0
 41108  1  0  0  0
 41 48  1  0  0  0
 42 43  1  0  0  0
 42 66  1  0  0  0
 42109  1  0  0  0
 42110  1  0  0  0
 43 44  1  0  0  0
 44111  1  0  0  0
 45 46  2  0  0  0
 45112  1  0  0  0
 46113  1  0  0  0
 47114  1  0  0  0
 47115  1  0  0  0
 48 56  1  0  0  0
 48 65  1  0  0  0
 48116  1  0  0  0
 49 50  1  0  0  0
 49 53  1  0  0  0
 49 64  1  0  0  0
 49117  1  0  0  0
 50 51  1  0  0  0
 50118  1  0  0  0
 50119  1  0  0  0
 51 52  1  0  0  0
 51120  1  0  0  0
 51121  1  0  0  0
 52122  1  0  0  0
 52123  1  0  0  0
 53 54  1  0  0  0
 54 55  2  0  0  0
 54124  1  0  0  0
 55 57  1  0  0  0
 55125  1  0  0  0
 56 69  2  0  0  0
 57 58  2  0  0  0
 57126  1  0  0  0
 58127  1  0  0  0
 59 60  1  0  0  0
 59 61  1  0  0  0
 59 62  1  0  0  0
 60128  1  0  0  0
 60129  1  0  0  0
 60130  1  0  0  0
 61131  1  0  0  0
 61132  1  0  0  0
 61133  1  0  0  0
 62134  1  0  0  0
 62135  1  0  0  0
 62136  1  0  0  0
 63 65  1  0  0  0
 63137  1  0  0  0
 63138  1  0  0  0
 63139  1  0  0  0
 64140  1  0  0  0
 65141  1  0  0  0
 68 79  1  0  0  0
 71 76  1  0  0  0
 71 82  2  0  0  0
 71 77  1  0  0  0
 72 73  1  0  0  0
 72 75  1  0  0  0
 72142  1  0  0  0
 72143  1  0  0  0
 73144  1  0  0  0
 73145  1  0  0  0
 73 77  1  0  0  0
 74 77  1  0  0  0
 74146  1  0  0  0
 74147  1  0  0  0
 74 76  1  0  0  0
 75 81  1  0  0  0
 75148  1  0  0  0
 75149  1  0  0  0
 76 80  1  0  0  0
 76150  1  0  0  0
 77 81  1  0  0  0
 78151  1  0  0  0
 78152  1  0  0  0
 78153  1  0  0  0
 78 80  1  0  0  0
 79 80  1  0  0  0
 79154  1  0  0  0
 79155  1  0  0  0
 80156  1  0  0  0
M  ISO  4   1 100  68 101  79 101  81 100
M  END
> <chiral flag>
0

> <version>
0

> <s_m_source_file>
/data/baiqing/PycharmProjects/Reinvent-master-3.2/result/LINK_invent/BTK/process_docking_weight1_custom_sum_contain_oxygen_bond_distance_aromatic_linkinvent_7_9_3/rearranged_h_0164.sdf

> <i_m_source_file_index>
31

> <r_mmod_Potential_Energy-OPLS-2005>
1935.77319335938

> <r_mmod_Stretch_Energy-OPLS-2005>
732.485412597656

> <r_mmod_Bend_Energy-OPLS-2005>
639.12890625

> <r_mmod_Torsional_Energy-OPLS-2005>
381.61865234375

> <r_mmod_Improper_Torsional_Energy-OPLS-2005>
14.6662797927856

> <r_mmod_Van_der_Waal_Energy-OPLS-2005>
112.955085754395

> <r_mmod_Electrostatic_Energy-OPLS-2005>
-313.711059570312

> <r_mmod_Solvation_Energy-OPLS-2005>
-208.858535766602

> <b_mmod_Minimization_Converged-OPLS-2005>
0

> <r_mmod_RMS_Derivative-OPLS-2005>
0.131015479564667

$$$$
31
                    3D
 Structure written by MMmdl.
169178  0  0  1  0            999 V2000
  -30.4449  -15.0757   20.4298 C   0  0  0  0  0  0
  -30.4480  -12.6816   19.4953 C   0  0  0  0  0  0
  -29.5268  -12.5372   18.2587 C   0  0  0  0  0  0
  -28.0590  -12.3141   18.6787 C   0  0  0  0  0  0
  -27.6219  -13.2528   19.8320 C   0  0  2  0  0  0
  -28.6642  -13.3066   20.9648 C   0  0  0  0  0  0
  -25.2462  -13.8232   20.5705 C   0  0  0  0  0  0
  -24.1780  -13.0446   20.9248 C   0  0  0  0  0  0
  -24.6409  -11.6935   20.8772 C   0  0  0  0  0  0
  -23.9090  -10.4300   21.0410 C   0  0  0  0  0  0
  -24.3641   -9.4213   21.9186 C   0  0  0  0  0  0
  -23.6297   -8.2267   22.0778 C   0  0  0  0  0  0
  -22.4280   -8.0298   21.3568 C   0  0  0  0  0  0
  -21.9922   -9.0274   20.4670 C   0  0  0  0  0  0
  -22.7271  -10.2143   20.3064 C   0  0  0  0  0  0
  -21.6854   -6.0737   22.5270 C   0  0  0  0  0  0
  -21.4009   -6.5640   23.8199 C   0  0  0  0  0  0
  -21.3662   -5.6799   24.9160 C   0  0  0  0  0  0
  -21.6039   -4.3061   24.7221 C   0  0  0  0  0  0
  -21.8828   -3.8157   23.4343 C   0  0  0  0  0  0
  -21.9192   -4.6963   22.3398 C   0  0  0  0  0  0
  -22.7811  -13.5210   21.1873 C   0  0  0  0  0  0
  -22.1663   -4.2155   21.0972 F   0  0  0  0  0  0
  -21.5627   -3.4545   25.7734 F   0  0  0  0  0  0
  -29.9059  -13.7835   20.3500 N   0  0  0  0  0  0
  -26.2848  -12.9459   20.3202 N   0  0  0  0  0  0
  -25.9329  -11.6592   20.5751 N   0  0  0  0  0  0
  -22.0451  -12.8200   22.0414 N   0  0  0  0  0  0
  -25.4102  -15.1950   20.4106 N   0  0  0  0  0  0
  -31.6653  -15.1569   20.2383 O   0  0  0  0  0  0
  -21.6652   -6.8887   21.4241 O   0  0  0  0  0  0
  -22.3501  -14.5521   20.6707 O   0  0  0  0  0  0
  -24.6470  -31.8412   23.1885 C   0  0  0  0  0  0
  -25.9224  -32.4672   23.8278 C   0  0  1  0  0  0
  -27.1785  -27.0695   20.1609 C   0  0  0  0  0  0
  -25.5933  -33.8466   24.2175 N   0  0  0  0  0  0
  -23.4541  -30.4622   21.5329 C   0  0  2  0  0  0
  -24.8974  -28.8916   20.1007 C   0  0  0  0  0  0
  -22.7622  -29.4496   22.4817 C   0  0  0  0  0  0
  -18.0316  -28.1413   22.8425 C   0  0  0  0  0  0
  -24.1482  -36.7231   23.2652 C   0  0  0  0  0  0
  -26.0133  -30.6963   21.3976 C   0  0  0  0  0  0
  -26.0770  -29.3020   20.7347 C   0  0  0  0  0  0
  -27.2161  -28.4045   20.7542 C   0  0  0  0  0  0
  -25.9919  -26.8018   19.4431 C   0  0  0  0  0  0
  -24.8718  -27.6567   19.4380 C   0  0  0  0  0  0
  -23.6837  -29.8067   20.1459 C   0  0  0  0  0  0
  -25.4116  -36.3011   24.0328 C   0  0  1  0  0  0
  -20.5925  -28.3708   23.1215 C   0  0  2  0  0  0
  -20.6794  -26.9392   22.5413 C   0  0  0  0  0  0
  -19.5776  -26.6376   21.5200 C   0  0  0  0  0  0
  -18.1947  -26.7929   22.1595 C   0  0  0  0  0  0
  -19.1577  -28.8878   23.2788 C   0  0  0  0  0  0
  -18.9503  -30.1468   23.8821 C   0  0  0  0  0  0
  -17.6512  -30.6587   24.0549 C   0  0  0  0  0  0
  -25.9077  -34.9390   23.5088 C   0  0  0  0  0  0
  -16.5387  -29.9091   23.6326 C   0  0  0  0  0  0
  -16.7304  -28.6524   23.0320 C   0  0  0  0  0  0
  -26.4502  -31.6574   25.0751 C   0  0  0  0  0  0
  -25.3666  -31.3795   26.1457 C   0  0  0  0  0  0
  -27.0384  -30.2955   24.6407 C   0  0  0  0  0  0
  -27.6034  -32.4359   25.7512 C   0  0  0  0  0  0
  -27.5574  -37.1757   24.8473 C   0  0  0  0  0  0
  -21.4308  -29.3025   22.3584 N   0  0  0  0  0  0
  -26.4263  -37.3738   23.9454 N   0  0  0  0  0  0
  -24.7252  -31.0237   22.0928 N   0  0  0  0  0  0
  -23.4244  -28.8035   23.2980 O   0  0  0  0  0  0
  -28.1644  -26.0043   20.2817 O   0  0  0  0  0  0
  -26.5674  -34.8893   22.4671 O   0  0  0  0  0  0
  -23.5593  -32.1309   23.7094 O   0  0  0  0  0  0
  -26.0209  -22.1538   22.4615 C   0  0  0  0  0  0
  -23.8977  -20.6063   21.5069 C   0  0  0  0  0  0
  -26.2083  -21.4171   21.2639 C   0  0  0  0  0  0
  -24.7896  -22.1615   23.1510 C   0  0  0  0  0  0
  -25.1066  -20.6499   20.7784 C   0  0  0  0  0  0
  -23.7222  -21.3739   22.6750 C   0  0  0  0  0  0
  -29.4656  -21.8867   20.2030 C   0  0  0  0  0  0
  -27.5162  -21.6059   20.4555 C   0  0  1  0  0  0
  -28.3539  -22.9737   20.6308 C   0  0  2  0  0  0
  -24.6165  -23.0441   24.3773 C   0  0  0  0  0  0
  -25.1171  -19.9369   19.4340 C   0  0  0  0  0  0
  -22.3804  -21.3672   23.3873 C   0  0  0  0  0  0
  -27.8588  -24.4781   19.9567 C   0  0  0  0  0  0
  -29.7321  -17.8336   20.8575 C   0  0  0  0  0  0
  -28.8119  -19.1607   20.2253 C   0  0  0  0  0  0
  -29.5952  -16.2462   20.5343 N   0  0  0  0  0  0
  -28.7114  -20.6867   20.7836 N   0  3  1  0  0  0
  -31.4688  -12.8906   19.1716 H   0  0  0  0  0  0
  -30.4961  -11.7468   20.0558 H   0  0  0  0  0  0
  -29.8634  -11.7097   17.6320 H   0  0  0  0  0  0
  -29.5965  -13.4340   17.6421 H   0  0  0  0  0  0
  -27.9606  -11.2754   18.9954 H   0  0  0  0  0  0
  -27.3959  -12.4290   17.8200 H   0  0  0  0  0  0
  -27.5723  -14.2469   19.3874 H   0  0  0  0  0  0
  -28.8006  -12.3277   21.4261 H   0  0  0  0  0  0
  -28.3488  -13.9875   21.7565 H   0  0  0  0  0  0
  -25.2773   -9.5689   22.4772 H   0  0  0  0  0  0
  -23.9982   -7.4675   22.7527 H   0  0  0  0  0  0
  -21.0845   -8.8812   19.8993 H   0  0  0  0  0  0
  -22.3721  -10.9690   19.6190 H   0  0  0  0  0  0
  -21.2007   -7.6153   23.9699 H   0  0  0  0  0  0
  -21.1465   -6.0531   25.9064 H   0  0  0  0  0  0
  -22.0604   -2.7616   23.2840 H   0  0  0  0  0  0
  -22.4048  -11.9801   22.4732 H   0  0  0  0  0  0
  -21.1104  -13.1276   22.2686 H   0  0  0  0  0  0
  -24.6365  -15.8386   20.5304 H   0  0  0  0  0  0
  -26.2184  -15.6261   19.9836 H   0  0  0  0  0  0
  -26.7303  -32.5234   23.1002 H   0  0  0  0  0  0
  -24.9966  -33.9553   25.0248 H   0  0  0  0  0  0
  -22.7550  -31.2862   21.3839 H   0  0  0  0  0  0
  -23.3742  -35.9563   23.3301 H   0  0  0  0  0  0
  -24.3562  -36.8893   22.2073 H   0  0  0  0  0  0
  -23.7231  -37.6414   23.6700 H   0  0  0  0  0  0
  -26.1813  -31.4567   20.6335 H   0  0  0  0  0  0
  -26.8757  -30.7383   22.0501 H   0  0  0  0  0  0
  -28.1044  -28.7036   21.2952 H   0  0  0  0  0  0
  -25.8795  -25.8832   18.8920 H   0  0  0  0  0  0
  -23.9788  -27.3477   18.9108 H   0  0  0  0  0  0
  -23.8328  -30.5929   19.4036 H   0  0  0  0  0  0
  -22.7948  -29.2632   19.8223 H   0  0  0  0  0  0
  -25.1287  -36.1830   25.0811 H   0  0  0  0  0  0
  -20.9967  -28.3317   24.1359 H   0  0  0  0  0  0
  -20.5674  -26.2319   23.3646 H   0  0  0  0  0  0
  -21.6657  -26.7390   22.1211 H   0  0  0  0  0  0
  -19.6927  -25.6282   21.1257 H   0  0  0  0  0  0
  -19.6739  -27.3158   20.6713 H   0  0  0  0  0  0
  -17.4214  -26.6649   21.4000 H   0  0  0  0  0  0
  -18.0307  -26.0100   22.9022 H   0  0  0  0  0  0
  -19.8001  -30.7254   24.2171 H   0  0  0  0  0  0
  -17.5101  -31.6263   24.5155 H   0  0  0  0  0  0
  -15.5389  -30.2992   23.7734 H   0  0  0  0  0  0
  -15.8695  -28.0879   22.7045 H   0  0  0  0  0  0
  -24.5951  -30.6975   25.7853 H   0  0  0  0  0  0
  -24.8683  -32.2954   26.4637 H   0  0  0  0  0  0
  -25.7952  -30.9224   27.0387 H   0  0  0  0  0  0
  -26.3026  -29.6642   24.1406 H   0  0  0  0  0  0
  -27.3930  -29.7313   25.5041 H   0  0  0  0  0  0
  -27.8968  -30.4147   23.9797 H   0  0  0  0  0  0
  -27.2657  -33.3777   26.1845 H   0  0  0  0  0  0
  -28.3926  -32.6715   25.0358 H   0  0  0  0  0  0
  -28.0574  -31.8616   26.5604 H   0  0  0  0  0  0
  -28.2538  -38.0108   24.7538 H   0  0  0  0  0  0
  -28.1101  -36.2612   24.6231 H   0  0  0  0  0  0
  -27.2285  -37.1334   25.8875 H   0  0  0  0  0  0
  -20.9541  -29.8781   21.6777 H   0  0  0  0  0  0
  -26.0121  -38.2785   24.1515 H   0  0  0  0  0  0
  -26.8045  -22.7833   22.8527 H   0  0  0  0  0  0
  -23.0730  -20.0064   21.1465 H   0  0  0  0  0  0
  -30.4279  -22.0361   20.6927 H   0  0  0  0  0  0
  -29.6020  -21.8141   19.1221 H   0  0  0  0  0  0
  -27.2568  -21.5010   19.3979 H   0  0  0  0  0  0
  -28.5180  -23.1492   21.6928 H   0  0  0  0  0  0
  -25.5580  -23.5043   24.6767 H   0  0  0  0  0  0
  -24.2482  -22.4641   25.2226 H   0  0  0  0  0  0
  -23.9061  -23.8506   24.1837 H   0  0  0  0  0  0
  -24.2626  -19.2643   19.3351 H   0  0  0  0  0  0
  -26.0045  -19.3345   19.2742 H   0  0  0  0  0  0
  -25.0518  -20.6734   18.6322 H   0  0  0  0  0  0
  -21.6182  -20.8332   22.8213 H   0  0  0  0  0  0
  -22.0134  -22.3829   23.5312 H   0  0  0  0  0  0
  -22.4733  -20.8899   24.3642 H   0  0  0  0  0  0
  -26.7799  -24.4142   20.0882 H   0  0  0  0  0  0
  -27.9894  -24.4002   18.8759 H   0  0  0  0  0  0
  -29.5468  -17.8752   21.9304 H   0  0  0  0  0  0
  -30.7870  -18.0854   20.7555 H   0  0  0  0  0  0
  -27.7880  -18.8041   20.2854 H   0  0  0  0  0  0
  -29.0190  -19.2419   19.1591 H   0  0  0  0  0  0
  -28.6269  -15.9641   20.5123 H   0  0  0  0  0  0
  -28.8182  -20.6777   21.7868 H   0  0  0  0  0  0
  1 25  1  0  0  0
  1 30  2  0  0  0
  1 86  1  0  0  0
  2  3  1  0  0  0
  2 25  1  0  0  0
  2 88  1  0  0  0
  2 89  1  0  0  0
  3  4  1  0  0  0
  3 90  1  0  0  0
  3 91  1  0  0  0
  4  5  1  0  0  0
  4 92  1  0  0  0
  4 93  1  0  0  0
  5  6  1  0  0  0
  5 26  1  0  0  0
  5 94  1  0  0  0
  6 25  1  0  0  0
  6 95  1  0  0  0
  6 96  1  0  0  0
  7  8  2  0  0  0
  7 26  1  0  0  0
  7 29  1  0  0  0
  8  9  1  0  0  0
  8 22  1  0  0  0
  9 10  1  0  0  0
  9 27  2  0  0  0
 10 11  2  0  0  0
 10 15  1  0  0  0
 11 12  1  0  0  0
 11 97  1  0  0  0
 12 13  2  0  0  0
 12 98  1  0  0  0
 13 14  1  0  0  0
 13 31  1  0  0  0
 14 15  2  0  0  0
 14 99  1  0  0  0
 15100  1  0  0  0
 16 17  2  0  0  0
 16 21  1  0  0  0
 16 31  1  0  0  0
 17 18  1  0  0  0
 17101  1  0  0  0
 18 19  2  0  0  0
 18102  1  0  0  0
 19 20  1  0  0  0
 19 24  1  0  0  0
 20 21  2  0  0  0
 20103  1  0  0  0
 21 23  1  0  0  0
 22 28  1  0  0  0
 22 32  2  0  0  0
 26 27  1  0  0  0
 28104  1  0  0  0
 28105  1  0  0  0
 29106  1  0  0  0
 29107  1  0  0  0
 33 34  1  0  0  0
 33 66  1  0  0  0
 33 70  2  0  0  0
 34 36  1  0  0  0
 34 59  1  0  0  0
 34108  1  0  0  0
 35 44  2  0  0  0
 35 45  1  0  0  0
 35 68  1  0  0  0
 36 56  1  0  0  0
 36109  1  0  0  0
 37 39  1  0  0  0
 37 47  1  0  0  0
 37 66  1  0  0  0
 37110  1  0  0  0
 38 43  2  0  0  0
 38 46  1  0  0  0
 38 47  1  0  0  0
 39 64  1  0  0  0
 39 67  2  0  0  0
 40 52  1  0  0  0
 40 53  2  0  0  0
 40 58  1  0  0  0
 41111  1  0  0  0
 41112  1  0  0  0
 41113  1  0  0  0
 41 48  1  0  0  0
 42 43  1  0  0  0
 42 66  1  0  0  0
 42114  1  0  0  0
 42115  1  0  0  0
 43 44  1  0  0  0
 44116  1  0  0  0
 45 46  2  0  0  0
 45117  1  0  0  0
 46118  1  0  0  0
 47119  1  0  0  0
 47120  1  0  0  0
 48 56  1  0  0  0
 48 65  1  0  0  0
 48121  1  0  0  0
 49 50  1  0  0  0
 49 53  1  0  0  0
 49 64  1  0  0  0
 49122  1  0  0  0
 50 51  1  0  0  0
 50123  1  0  0  0
 50124  1  0  0  0
 51 52  1  0  0  0
 51125  1  0  0  0
 51126  1  0  0  0
 52127  1  0  0  0
 52128  1  0  0  0
 53 54  1  0  0  0
 54 55  2  0  0  0
 54129  1  0  0  0
 55 57  1  0  0  0
 55130  1  0  0  0
 56 69  2  0  0  0
 57 58  2  0  0  0
 57131  1  0  0  0
 58132  1  0  0  0
 59 60  1  0  0  0
 59 61  1  0  0  0
 59 62  1  0  0  0
 60133  1  0  0  0
 60134  1  0  0  0
 60135  1  0  0  0
 61136  1  0  0  0
 61137  1  0  0  0
 61138  1  0  0  0
 62139  1  0  0  0
 62140  1  0  0  0
 62141  1  0  0  0
 63 65  1  0  0  0
 63142  1  0  0  0
 63143  1  0  0  0
 63144  1  0  0  0
 64145  1  0  0  0
 65146  1  0  0  0
 68 83  1  0  0  0
 71 73  2  0  0  0
 71 74  1  0  0  0
 71147  1  0  0  0
 72 75  2  0  0  0
 72 76  1  0  0  0
 72148  1  0  0  0
 73 75  1  0  0  0
 73 78  1  0  0  0
 74 76  2  0  0  0
 74 80  1  0  0  0
 75 81  1  0  0  0
 76 82  1  0  0  0
 77 79  1  0  0  0
 77 87  1  0  0  0
 77149  1  0  0  0
 77150  1  0  0  0
 78 79  1  0  0  0
 78 87  1  0  0  0
 78151  1  0  0  0
 79 83  1  0  0  0
 79152  1  0  0  0
 80153  1  0  0  0
 80154  1  0  0  0
 80155  1  0  0  0
 81156  1  0  0  0
 81157  1  0  0  0
 81158  1  0  0  0
 82159  1  0  0  0
 82160  1  0  0  0
 82161  1  0  0  0
 83162  1  0  0  0
 83163  1  0  0  0
 84 85  1  0  0  0
 84 86  1  0  0  0
 84164  1  0  0  0
 84165  1  0  0  0
 85166  1  0  0  0
 85167  1  0  0  0
 85 87  1  0  0  0
 86168  1  0  0  0
 87169  1  0  0  0
M  CHG  1  87   1
M  ISO  4   1 100  68 101  83 101  86 100
M  END
> <chiral flag>
0

> <version>
0

> <s_m_source_file>
/data/baiqing/PycharmProjects/Reinvent-master-3.2/result/LINK_invent/BTK/process_docking_weight1_custom_sum_contain_oxygen_bond_distance_aromatic_linkinvent_7_9_3/rearranged_h_0164.sdf

> <i_m_source_file_index>
32

> <r_mmod_Potential_Energy-OPLS-2005>
573.459045410156

> <r_mmod_Stretch_Energy-OPLS-2005>
358.421356201172

> <r_mmod_Bend_Energy-OPLS-2005>
364.678985595703

> <r_mmod_Torsional_Energy-OPLS-2005>
228.785140991211

> <r_mmod_Improper_Torsional_Energy-OPLS-2005>
5.31754112243652

> <r_mmod_Van_der_Waal_Energy-OPLS-2005>
136.394241333008

> <r_mmod_Electrostatic_Energy-OPLS-2005>
-331.328796386719

> <r_mmod_Solvation_Energy-OPLS-2005>
-480.228485107422

> <b_mmod_Minimization_Converged-OPLS-2005>
0

> <r_mmod_RMS_Derivative-OPLS-2005>
4.60784864425659

$$$$
32
                    3D
 Structure written by MMmdl.
172182  0  0  1  0            999 V2000
  -30.5978  -14.7639   20.3850 C   0  0  0  0  0  0
  -30.4124  -12.4301   19.5035 C   0  0  0  0  0  0
  -29.5178  -12.4064   18.2484 C   0  0  0  0  0  0
  -28.0270  -12.3086   18.6350 C   0  0  0  0  0  0
  -27.6215  -13.2339   19.8162 C   0  0  2  0  0  0
  -28.6554  -13.2255   20.9545 C   0  0  0  0  0  0
  -25.2473  -13.8202   20.5689 C   0  0  0  0  0  0
  -24.1780  -13.0460   20.9208 C   0  0  0  0  0  0
  -24.6353  -11.6919   20.8735 C   0  0  0  0  0  0
  -23.9044  -10.4303   21.0411 C   0  0  0  0  0  0
  -24.3607   -9.4218   21.9184 C   0  0  0  0  0  0
  -23.6304   -8.2246   22.0735 C   0  0  0  0  0  0
  -22.4281   -8.0265   21.3518 C   0  0  0  0  0  0
  -21.9918   -9.0246   20.4621 C   0  0  0  0  0  0
  -22.7230  -10.2127   20.3059 C   0  0  0  0  0  0
  -21.6874   -6.0740   22.5287 C   0  0  0  0  0  0
  -21.4023   -6.5649   23.8211 C   0  0  0  0  0  0
  -21.3670   -5.6790   24.9182 C   0  0  0  0  0  0
  -21.6050   -4.3052   24.7223 C   0  0  0  0  0  0
  -21.8816   -3.8148   23.4346 C   0  0  0  0  0  0
  -21.9188   -4.6973   22.3404 C   0  0  0  0  0  0
  -22.7806  -13.5228   21.1922 C   0  0  0  0  0  0
  -22.1659   -4.2165   21.0983 F   0  0  0  0  0  0
  -21.5627   -3.4524   25.7732 F   0  0  0  0  0  0
  -29.9484  -13.5481   20.3531 N   0  0  0  0  0  0
  -26.2835  -12.9400   20.3123 N   0  0  0  0  0  0
  -25.9258  -11.6545   20.5682 N   0  0  0  0  0  0
  -22.0458  -12.8209   22.0462 N   0  0  0  0  0  0
  -25.4207  -15.1941   20.4171 N   0  0  0  0  0  0
  -31.8284  -14.7712   20.3047 O   0  0  0  0  0  0
  -21.6630   -6.8876   21.4232 O   0  0  0  0  0  0
  -22.3470  -14.5549   20.6777 O   0  0  0  0  0  0
  -24.6361  -31.8510   23.1978 C   0  0  0  0  0  0
  -25.9131  -32.4729   23.8337 C   0  0  1  0  0  0
  -27.2114  -27.2627   20.1016 C   0  0  0  0  0  0
  -25.5924  -33.8529   24.2285 N   0  0  0  0  0  0
  -23.4340  -30.4791   21.5373 C   0  0  2  0  0  0
  -24.8799  -28.9332   20.1033 C   0  0  0  0  0  0
  -22.7520  -29.4562   22.4806 C   0  0  0  0  0  0
  -18.0272  -28.1417   22.8432 C   0  0  0  0  0  0
  -24.1467  -36.7285   23.2639 C   0  0  0  0  0  0
  -25.9843  -30.7661   21.3783 C   0  0  0  0  0  0
  -26.0539  -29.3907   20.7150 C   0  0  0  0  0  0
  -27.2235  -28.5629   20.7066 C   0  0  0  0  0  0
  -26.0142  -26.8843   19.4485 C   0  0  0  0  0  0
  -24.8620  -27.6880   19.4644 C   0  0  0  0  0  0
  -23.6572  -29.8241   20.1498 C   0  0  0  0  0  0
  -25.4094  -36.3065   24.0334 C   0  0  1  0  0  0
  -20.5886  -28.3704   23.1233 C   0  0  2  0  0  0
  -20.6752  -26.9398   22.5406 C   0  0  0  0  0  0
  -19.5741  -26.6389   21.5186 C   0  0  0  0  0  0
  -18.1919  -26.7947   22.1585 C   0  0  0  0  0  0
  -19.1538  -28.8869   23.2831 C   0  0  0  0  0  0
  -18.9480  -30.1458   23.8869 C   0  0  0  0  0  0
  -17.6491  -30.6603   24.0534 C   0  0  0  0  0  0
  -25.9051  -34.9427   23.5130 C   0  0  0  0  0  0
  -16.5374  -29.9107   23.6323 C   0  0  0  0  0  0
  -16.7265  -28.6535   23.0316 C   0  0  0  0  0  0
  -26.4501  -31.6564   25.0729 C   0  0  0  0  0  0
  -25.3712  -31.3699   26.1438 C   0  0  0  0  0  0
  -27.0348  -30.2987   24.6216 C   0  0  0  0  0  0
  -27.6062  -32.4290   25.7495 C   0  0  0  0  0  0
  -27.5560  -37.1796   24.8463 C   0  0  0  0  0  0
  -21.4215  -29.3056   22.3611 N   0  0  0  0  0  0
  -26.4262  -37.3769   23.9428 N   0  0  0  0  0  0
  -24.7044  -31.0474   22.0948 N   0  0  0  0  0  0
  -23.4220  -28.8078   23.2887 O   0  0  0  0  0  0
  -28.2947  -26.3521   20.1612 O   0  0  0  0  0  0
  -26.5607  -34.8893   22.4696 O   0  0  0  0  0  0
  -23.5507  -32.1290   23.7288 O   0  0  0  0  0  0
  -29.3407  -19.1411   22.7695 C   0  0  0  0  0  0
  -29.1797  -19.7303   21.5009 C   0  0  0  0  0  0
  -28.7664  -21.1499   21.4645 C   0  0  0  0  0  0
  -28.3526  -21.6860   22.7291 C   0  0  0  0  0  0
  -28.6070  -20.9780   23.9229 C   0  0  0  0  0  0
  -31.6174  -16.3154   17.0975 C   0  0  0  0  0  0
  -30.7765  -17.5157   16.7564 C   0  0  0  0  0  0
  -31.3738  -17.6120   19.3596 C   0  0  0  0  0  0
  -29.5787  -16.1641   18.7359 C   0  0  0  0  0  0
  -30.3381  -17.3816   20.4689 C   0  0  1  0  0  0
  -30.7433  -16.9438   18.1569 C   0  0  0  0  0  0
  -27.5138  -22.9566   22.8471 C   0  0  0  0  0  0
  -28.2610  -21.5051   25.3080 C   0  0  0  0  0  0
  -29.2861  -18.6467   20.3587 C   0  0  0  0  0  0
  -28.6603  -22.1168   20.2077 C   0  0  0  0  0  0
  -29.0432  -23.7048   20.3356 C   0  0  0  0  0  0
  -27.9961  -24.8893   19.9840 C   0  0  0  0  0  0
  -29.1291  -19.7499   23.9386 N   0  0  0  0  0  0
  -29.8594  -15.9476   20.1629 N   0  0  0  0  0  0
  -31.4633  -12.5244   19.2266 H   0  0  0  0  0  0
  -30.3217  -11.4876   20.0481 H   0  0  0  0  0  0
  -29.7899  -11.5567   17.6225 H   0  0  0  0  0  0
  -29.7036  -13.2756   17.6263 H   0  0  0  0  0  0
  -27.8460  -11.2677   18.9047 H   0  0  0  0  0  0
  -27.3978  -12.5054   17.7656 H   0  0  0  0  0  0
  -27.5938  -14.2415   19.4039 H   0  0  0  0  0  0
  -28.6781  -12.2614   21.4662 H   0  0  0  0  0  0
  -28.3859  -13.9724   21.7036 H   0  0  0  0  0  0
  -25.2750   -9.5714   22.4743 H   0  0  0  0  0  0
  -24.0027   -7.4642   22.7453 H   0  0  0  0  0  0
  -21.0863   -8.8769   19.8916 H   0  0  0  0  0  0
  -22.3710  -10.9660   19.6162 H   0  0  0  0  0  0
  -21.2016   -7.6151   23.9743 H   0  0  0  0  0  0
  -21.1502   -6.0505   25.9090 H   0  0  0  0  0  0
  -22.0579   -2.7608   23.2838 H   0  0  0  0  0  0
  -22.4069  -11.9878   22.4879 H   0  0  0  0  0  0
  -21.1061  -13.1193   22.2658 H   0  0  0  0  0  0
  -24.6642  -15.8555   20.5547 H   0  0  0  0  0  0
  -26.2881  -15.6319   20.1314 H   0  0  0  0  0  0
  -26.7161  -32.5358   23.1050 H   0  0  0  0  0  0
  -25.0067  -33.9632   25.0438 H   0  0  0  0  0  0
  -22.7356  -31.3045   21.3889 H   0  0  0  0  0  0
  -23.3716  -35.9621   23.3294 H   0  0  0  0  0  0
  -24.3532  -36.8922   22.2051 H   0  0  0  0  0  0
  -23.7252  -37.6501   23.6667 H   0  0  0  0  0  0
  -26.1246  -31.5322   20.6134 H   0  0  0  0  0  0
  -26.8648  -30.8124   22.0065 H   0  0  0  0  0  0
  -28.1265  -28.8932   21.2020 H   0  0  0  0  0  0
  -25.9326  -25.9466   18.9200 H   0  0  0  0  0  0
  -23.9572  -27.3451   18.9801 H   0  0  0  0  0  0
  -23.7989  -30.6053   19.4034 H   0  0  0  0  0  0
  -22.7793  -29.2612   19.8259 H   0  0  0  0  0  0
  -25.1277  -36.1904   25.0820 H   0  0  0  0  0  0
  -20.9939  -28.3305   24.1369 H   0  0  0  0  0  0
  -20.5622  -26.2295   23.3620 H   0  0  0  0  0  0
  -21.6631  -26.7415   22.1219 H   0  0  0  0  0  0
  -19.6899  -25.6295   21.1226 H   0  0  0  0  0  0
  -19.6722  -27.3173   20.6704 H   0  0  0  0  0  0
  -17.4184  -26.6646   21.4001 H   0  0  0  0  0  0
  -18.0325  -26.0145   22.9045 H   0  0  0  0  0  0
  -19.7992  -30.7227   24.2250 H   0  0  0  0  0  0
  -17.5088  -31.6267   24.5167 H   0  0  0  0  0  0
  -15.5385  -30.3011   23.7688 H   0  0  0  0  0  0
  -15.8659  -28.0860   22.7041 H   0  0  0  0  0  0
  -24.5901  -30.7035   25.7753 H   0  0  0  0  0  0
  -24.8866  -32.2848   26.4876 H   0  0  0  0  0  0
  -25.8012  -30.8880   27.0235 H   0  0  0  0  0  0
  -26.2940  -29.6710   24.1251 H   0  0  0  0  0  0
  -27.4051  -29.7261   25.4735 H   0  0  0  0  0  0
  -27.8800  -30.4255   23.9433 H   0  0  0  0  0  0
  -27.2714  -33.3611   26.2057 H   0  0  0  0  0  0
  -28.3879  -32.6844   25.0315 H   0  0  0  0  0  0
  -28.0708  -31.8424   26.5435 H   0  0  0  0  0  0
  -28.2598  -38.0077   24.7503 H   0  0  0  0  0  0
  -28.1053  -36.2630   24.6301 H   0  0  0  0  0  0
  -27.2268  -37.1441   25.8859 H   0  0  0  0  0  0
  -20.9388  -29.8880   21.6899 H   0  0  0  0  0  0
  -26.0139  -38.2830   24.1474 H   0  0  0  0  0  0
  -29.5753  -18.0950   22.8808 H   0  0  0  0  0  0
  -32.6900  -16.4542   17.2141 H   0  0  0  0  0  0
  -31.3045  -15.3517   16.6962 H   0  0  0  0  0  0
  -29.9117  -17.3543   16.1130 H   0  0  0  0  0  0
  -31.2999  -18.4577   16.6048 H   0  0  0  0  0  0
  -32.3053  -17.1067   19.6137 H   0  0  0  0  0  0
  -31.6249  -18.6597   19.1907 H   0  0  0  0  0  0
  -29.4063  -15.2597   18.1639 H   0  0  0  0  0  0
  -28.6612  -16.7413   18.6148 H   0  0  0  0  0  0
  -30.8747  -17.3802   21.4160 H   0  0  0  0  0  0
  -28.1086  -23.8299   23.1098 H   0  0  0  0  0  0
  -26.7523  -22.8395   23.6183 H   0  0  0  0  0  0
  -26.9485  -23.1469   21.9423 H   0  0  0  0  0  0
  -27.3247  -21.0646   25.6506 H   0  0  0  0  0  0
  -28.1809  -22.5902   25.3560 H   0  0  0  0  0  0
  -29.0372  -21.2244   26.0209 H   0  0  0  0  0  0
  -29.4249  -19.1711   19.4134 H   0  0  0  0  0  0
  -28.2767  -18.2373   20.2827 H   0  0  0  0  0  0
  -27.6726  -22.0044   19.7581 H   0  0  0  0  0  0
  -29.3415  -21.6904   19.4714 H   0  0  0  0  0  0
  -29.8829  -23.8581   19.6575 H   0  0  0  0  0  0
  -29.4820  -23.8854   21.3144 H   0  0  0  0  0  0
  -27.7355  -24.7598   18.9349 H   0  0  0  0  0  0
  -27.0788  -24.6944   20.5388 H   0  0  0  0  0  0
  1 25  1  0  0  0
  1 30  2  0  0  0
  1 89  1  0  0  0
  2  3  1  0  0  0
  2 25  1  0  0  0
  2 90  1  0  0  0
  2 91  1  0  0  0
  3  4  1  0  0  0
  3 92  1  0  0  0
  3 93  1  0  0  0
  4  5  1  0  0  0
  4 94  1  0  0  0
  4 95  1  0  0  0
  5  6  1  0  0  0
  5 26  1  0  0  0
  5 96  1  0  0  0
  6 25  1  0  0  0
  6 97  1  0  0  0
  6 98  1  0  0  0
  7  8  2  0  0  0
  7 26  1  0  0  0
  7 29  1  0  0  0
  8  9  1  0  0  0
  8 22  1  0  0  0
  9 10  1  0  0  0
  9 27  2  0  0  0
 10 11  2  0  0  0
 10 15  1  0  0  0
 11 12  1  0  0  0
 11 99  1  0  0  0
 12 13  2  0  0  0
 12100  1  0  0  0
 13 14  1  0  0  0
 13 31  1  0  0  0
 14 15  2  0  0  0
 14101  1  0  0  0
 15102  1  0  0  0
 16 17  2  0  0  0
 16 21  1  0  0  0
 16 31  1  0  0  0
 17 18  1  0  0  0
 17103  1  0  0  0
 18 19  2  0  0  0
 18104  1  0  0  0
 19 20  1  0  0  0
 19 24  1  0  0  0
 20 21  2  0  0  0
 20105  1  0  0  0
 21 23  1  0  0  0
 22 28  1  0  0  0
 22 32  2  0  0  0
 26 27  1  0  0  0
 28106  1  0  0  0
 28107  1  0  0  0
 29108  1  0  0  0
 29109  1  0  0  0
 33 34  1  0  0  0
 33 66  1  0  0  0
 33 70  2  0  0  0
 34 36  1  0  0  0
 34 59  1  0  0  0
 34110  1  0  0  0
 35 44  2  0  0  0
 35 45  1  0  0  0
 35 68  1  0  0  0
 36 56  1  0  0  0
 36111  1  0  0  0
 37 39  1  0  0  0
 37 47  1  0  0  0
 37 66  1  0  0  0
 37112  1  0  0  0
 38 43  2  0  0  0
 38 46  1  0  0  0
 38 47  1  0  0  0
 39 64  1  0  0  0
 39 67  2  0  0  0
 40 52  1  0  0  0
 40 53  2  0  0  0
 40 58  1  0  0  0
 41113  1  0  0  0
 41114  1  0  0  0
 41115  1  0  0  0
 41 48  1  0  0  0
 42 43  1  0  0  0
 42 66  1  0  0  0
 42116  1  0  0  0
 42117  1  0  0  0
 43 44  1  0  0  0
 44118  1  0  0  0
 45 46  2  0  0  0
 45119  1  0  0  0
 46120  1  0  0  0
 47121  1  0  0  0
 47122  1  0  0  0
 48 56  1  0  0  0
 48 65  1  0  0  0
 48123  1  0  0  0
 49 50  1  0  0  0
 49 53  1  0  0  0
 49 64  1  0  0  0
 49124  1  0  0  0
 50 51  1  0  0  0
 50125  1  0  0  0
 50126  1  0  0  0
 51 52  1  0  0  0
 51127  1  0  0  0
 51128  1  0  0  0
 52129  1  0  0  0
 52130  1  0  0  0
 53 54  1  0  0  0
 54 55  2  0  0  0
 54131  1  0  0  0
 55 57  1  0  0  0
 55132  1  0  0  0
 56 69  2  0  0  0
 57 58  2  0  0  0
 57133  1  0  0  0
 58134  1  0  0  0
 59 60  1  0  0  0
 59 61  1  0  0  0
 59 62  1  0  0  0
 60135  1  0  0  0
 60136  1  0  0  0
 60137  1  0  0  0
 61138  1  0  0  0
 61139  1  0  0  0
 61140  1  0  0  0
 62141  1  0  0  0
 62142  1  0  0  0
 62143  1  0  0  0
 63 65  1  0  0  0
 63144  1  0  0  0
 63145  1  0  0  0
 63146  1  0  0  0
 64147  1  0  0  0
 65148  1  0  0  0
 68 87  1  0  0  0
 71 72  2  0  0  0
 71 88  1  0  0  0
 71149  1  0  0  0
 72 73  1  0  0  0
 72 84  1  0  0  0
 73 74  2  0  0  0
 73 85  1  0  0  0
 74 75  1  0  0  0
 74 82  1  0  0  0
 75 83  1  0  0  0
 75 88  2  0  0  0
 76 77  1  0  0  0
 76150  1  0  0  0
 76151  1  0  0  0
 76 81  1  0  0  0
 77 81  1  0  0  0
 77152  1  0  0  0
 77153  1  0  0  0
 78 80  1  0  0  0
 78 81  1  0  0  0
 78154  1  0  0  0
 78155  1  0  0  0
 79 81  1  0  0  0
 79 89  1  0  0  0
 79156  1  0  0  0
 79157  1  0  0  0
 80 84  1  0  0  0
 80 89  1  0  0  0
 80158  1  0  0  0
 82159  1  0  0  0
 82160  1  0  0  0
 82161  1  0  0  0
 83162  1  0  0  0
 83163  1  0  0  0
 83164  1  0  0  0
 84165  1  0  0  0
 84166  1  0  0  0
 85 86  1  0  0  0
 85167  1  0  0  0
 85168  1  0  0  0
 86 87  1  0  0  0
 86169  1  0  0  0
 86170  1  0  0  0
 87171  1  0  0  0
 87172  1  0  0  0
M  ISO  4   1 100  68 101  87 101  89 100
M  END
> <chiral flag>
0

> <version>
0

> <s_m_source_file>
/data/baiqing/PycharmProjects/Reinvent-master-3.2/result/LINK_invent/BTK/process_docking_weight1_custom_sum_contain_oxygen_bond_distance_aromatic_linkinvent_7_9_3/rearranged_h_0164.sdf

> <i_m_source_file_index>
33

> <r_mmod_Potential_Energy-OPLS-2005>
442.505523681641

> <r_mmod_Stretch_Energy-OPLS-2005>
148.716247558594

> <r_mmod_Bend_Energy-OPLS-2005>
257.433044433594

> <r_mmod_Torsional_Energy-OPLS-2005>
447.193969726562

> <r_mmod_Improper_Torsional_Energy-OPLS-2005>
16.6143684387207

> <r_mmod_Van_der_Waal_Energy-OPLS-2005>
168.298034667969

> <r_mmod_Electrostatic_Energy-OPLS-2005>
-490.458770751953

> <r_mmod_Solvation_Energy-OPLS-2005>
-211.212249755859

> <b_mmod_Minimization_Converged-OPLS-2005>
0

> <r_mmod_RMS_Derivative-OPLS-2005>
5.43683862686157

$$$$
33
                    3D
 Structure written by MMmdl.
171180  0  0  1  0            999 V2000
  -30.7001  -14.5701   20.4984 C   0  0  0  0  0  0
  -30.4229  -12.3484   19.4395 C   0  0  0  0  0  0
  -29.4984  -12.4887   18.2138 C   0  0  0  0  0  0
  -28.0221  -12.3460   18.6310 C   0  0  0  0  0  0
  -27.6547  -13.2180   19.8617 C   0  0  2  0  0  0
  -28.7047  -13.0855   20.9876 C   0  0  0  0  0  0
  -25.2586  -13.8171   20.5710 C   0  0  0  0  0  0
  -24.1844  -13.0434   20.9191 C   0  0  0  0  0  0
  -24.6410  -11.6913   20.8750 C   0  0  0  0  0  0
  -23.9077  -10.4292   21.0410 C   0  0  0  0  0  0
  -24.3625   -9.4207   21.9192 C   0  0  0  0  0  0
  -23.6282   -8.2247   22.0758 C   0  0  0  0  0  0
  -22.4265   -8.0291   21.3545 C   0  0  0  0  0  0
  -21.9919   -9.0269   20.4641 C   0  0  0  0  0  0
  -22.7255  -10.2144   20.3054 C   0  0  0  0  0  0
  -21.6848   -6.0738   22.5271 C   0  0  0  0  0  0
  -21.4020   -6.5639   23.8217 C   0  0  0  0  0  0
  -21.3656   -5.6797   24.9174 C   0  0  0  0  0  0
  -21.6036   -4.3051   24.7223 C   0  0  0  0  0  0
  -21.8825   -3.8148   23.4349 C   0  0  0  0  0  0
  -21.9195   -4.6970   22.3398 C   0  0  0  0  0  0
  -22.7872  -13.5241   21.1826 C   0  0  0  0  0  0
  -22.1665   -4.2153   21.0979 F   0  0  0  0  0  0
  -21.5613   -3.4538   25.7737 F   0  0  0  0  0  0
  -30.0226  -13.3856   20.4076 N   0  0  0  0  0  0
  -26.3016  -12.9363   20.3351 N   0  0  0  0  0  0
  -25.9342  -11.6509   20.5775 N   0  0  0  0  0  0
  -22.0504  -12.8230   22.0374 N   0  0  0  0  0  0
  -25.4292  -15.1882   20.4129 N   0  0  0  0  0  0
  -31.8774  -14.6740   20.1483 O   0  0  0  0  0  0
  -21.6625   -6.8891   21.4241 O   0  0  0  0  0  0
  -22.3584  -14.5562   20.6692 O   0  0  0  0  0  0
  -24.6240  -31.8649   23.2100 C   0  0  0  0  0  0
  -25.9104  -32.4801   23.8411 C   0  0  1  0  0  0
  -27.2368  -27.3622   20.0927 C   0  0  0  0  0  0
  -25.5945  -33.8607   24.2318 N   0  0  0  0  0  0
  -23.4146  -30.4898   21.5533 C   0  0  2  0  0  0
  -24.8612  -28.9587   20.1158 C   0  0  0  0  0  0
  -22.7457  -29.4644   22.4989 C   0  0  0  0  0  0
  -18.0271  -28.1376   22.8455 C   0  0  0  0  0  0
  -24.1484  -36.7285   23.2630 C   0  0  0  0  0  0
  -25.9551  -30.8078   21.3770 C   0  0  0  0  0  0
  -26.0307  -29.4393   20.7180 C   0  0  0  0  0  0
  -27.2190  -28.6515   20.7036 C   0  0  0  0  0  0
  -26.0370  -26.9403   19.4599 C   0  0  0  0  0  0
  -24.8657  -27.7117   19.4815 C   0  0  0  0  0  0
  -23.6254  -29.8308   20.1682 C   0  0  0  0  0  0
  -25.4100  -36.3083   24.0334 C   0  0  1  0  0  0
  -20.5863  -28.3683   23.1297 C   0  0  2  0  0  0
  -20.6751  -26.9398   22.5447 C   0  0  0  0  0  0
  -19.5772  -26.6369   21.5190 C   0  0  0  0  0  0
  -18.1915  -26.7938   22.1527 C   0  0  0  0  0  0
  -19.1520  -28.8837   23.2864 C   0  0  0  0  0  0
  -18.9450  -30.1427   23.8898 C   0  0  0  0  0  0
  -17.6462  -30.6577   24.0558 C   0  0  0  0  0  0
  -25.9063  -34.9462   23.5118 C   0  0  0  0  0  0
  -16.5354  -29.9080   23.6327 C   0  0  0  0  0  0
  -16.7266  -28.6498   23.0350 C   0  0  0  0  0  0
  -26.4486  -31.6598   25.0762 C   0  0  0  0  0  0
  -25.3718  -31.3739   26.1480 C   0  0  0  0  0  0
  -27.0308  -30.3017   24.6209 C   0  0  0  0  0  0
  -27.6074  -32.4305   25.7506 C   0  0  0  0  0  0
  -27.5609  -37.1748   24.8427 C   0  0  0  0  0  0
  -21.4177  -29.3045   22.3712 N   0  0  0  0  0  0
  -26.4252  -37.3800   23.9476 N   0  0  0  0  0  0
  -24.6825  -31.0703   22.1028 N   0  0  0  0  0  0
  -23.4189  -28.8176   23.3051 O   0  0  0  0  0  0
  -28.3656  -26.5249   20.1403 O   0  0  0  0  0  0
  -26.5622  -34.8927   22.4681 O   0  0  0  0  0  0
  -23.5415  -32.1421   23.7463 O   0  0  0  0  0  0
  -29.1053  -23.2564   21.3244 C   0  0  0  0  0  0
  -29.9325  -23.4285   19.0442 C   0  0  0  0  0  0
  -29.1428  -23.9730   20.0941 C   0  0  0  0  0  0
  -29.6891  -21.9533   21.4433 C   0  0  0  0  0  0
  -30.4901  -22.1130   19.1472 C   0  0  0  0  0  0
  -30.3367  -21.3323   20.3321 C   0  0  0  0  0  0
  -30.9762  -17.8626   21.6760 C   0  0  0  0  0  0
  -30.0153  -17.8824   19.4219 C   0  0  0  0  0  0
  -30.2466  -16.5192   21.9775 C   0  0  0  0  0  0
  -29.3416  -16.4996   19.7088 C   0  0  0  0  0  0
  -30.2073  -18.7687   20.6792 C   0  0  0  0  0  0
  -28.4056  -23.8748   22.5336 C   0  0  0  0  0  0
  -30.1632  -24.2578   17.7826 C   0  0  0  0  0  0
  -29.6169  -21.2503   22.7966 C   0  0  0  0  0  0
  -31.2459  -21.5198   17.9545 C   0  0  0  0  0  0
  -28.1200  -25.1203   19.7985 C   0  0  0  0  0  0
  -29.9742  -15.6957   20.7830 N   0  0  0  0  0  0
  -30.9328  -20.0342   20.3882 N   0  0  0  0  0  0
  -31.4673  -12.4366   19.1373 H   0  0  0  0  0  0
  -30.3226  -11.3575   19.8854 H   0  0  0  0  0  0
  -29.7473  -11.7348   17.4659 H   0  0  0  0  0  0
  -29.6559  -13.4578   17.7369 H   0  0  0  0  0  0
  -27.8470  -11.2933   18.8595 H   0  0  0  0  0  0
  -27.3698  -12.5874   17.7916 H   0  0  0  0  0  0
  -27.6677  -14.2518   19.5192 H   0  0  0  0  0  0
  -28.6959  -12.0780   21.4047 H   0  0  0  0  0  0
  -28.4736  -13.7589   21.8142 H   0  0  0  0  0  0
  -25.2759   -9.5672   22.4781 H   0  0  0  0  0  0
  -23.9976   -7.4643   22.7488 H   0  0  0  0  0  0
  -21.0851   -8.8801   19.8942 H   0  0  0  0  0  0
  -22.3717  -10.9695   19.6170 H   0  0  0  0  0  0
  -21.2024   -7.6151   23.9723 H   0  0  0  0  0  0
  -21.1465   -6.0517   25.9078 H   0  0  0  0  0  0
  -22.0604   -2.7608   23.2852 H   0  0  0  0  0  0
  -22.4103  -11.9865   22.4725 H   0  0  0  0  0  0
  -21.1141  -13.1300   22.2594 H   0  0  0  0  0  0
  -24.6645  -15.8458   20.5195 H   0  0  0  0  0  0
  -26.2901  -15.6244   20.1100 H   0  0  0  0  0  0
  -26.7193  -32.5486   23.1193 H   0  0  0  0  0  0
  -25.0123  -33.9786   25.0480 H   0  0  0  0  0  0
  -22.7027  -31.3062   21.4161 H   0  0  0  0  0  0
  -23.3808  -35.9545   23.3143 H   0  0  0  0  0  0
  -24.3600  -36.9077   22.2081 H   0  0  0  0  0  0
  -23.7158  -37.6396   23.6766 H   0  0  0  0  0  0
  -26.0857  -31.5726   20.6091 H   0  0  0  0  0  0
  -26.8349  -30.8544   22.0072 H   0  0  0  0  0  0
  -28.1142  -29.0193   21.1850 H   0  0  0  0  0  0
  -25.9532  -26.0001   18.9366 H   0  0  0  0  0  0
  -23.9741  -27.3388   18.9960 H   0  0  0  0  0  0
  -23.7370  -30.6106   19.4150 H   0  0  0  0  0  0
  -22.7469  -29.2562   19.8675 H   0  0  0  0  0  0
  -25.1238  -36.1915   25.0810 H   0  0  0  0  0  0
  -20.9904  -28.3286   24.1434 H   0  0  0  0  0  0
  -20.5585  -26.2307   23.3651 H   0  0  0  0  0  0
  -21.6641  -26.7403   22.1310 H   0  0  0  0  0  0
  -19.6966  -25.6276   21.1243 H   0  0  0  0  0  0
  -19.6768  -27.3152   20.6708 H   0  0  0  0  0  0
  -17.4218  -26.6748   21.3881 H   0  0  0  0  0  0
  -18.0248  -26.0049   22.8866 H   0  0  0  0  0  0
  -19.7925  -30.7218   24.2303 H   0  0  0  0  0  0
  -17.5029  -31.6254   24.5168 H   0  0  0  0  0  0
  -15.5364  -30.2998   23.7663 H   0  0  0  0  0  0
  -15.8645  -28.0832   22.7088 H   0  0  0  0  0  0
  -24.6096  -30.6808   25.7894 H   0  0  0  0  0  0
  -24.8644  -32.2861   26.4622 H   0  0  0  0  0  0
  -25.8081  -30.9250   27.0413 H   0  0  0  0  0  0
  -26.2867  -29.6799   24.1214 H   0  0  0  0  0  0
  -27.3973  -29.7253   25.4719 H   0  0  0  0  0  0
  -27.8752  -30.4281   23.9430 H   0  0  0  0  0  0
  -27.2735  -33.3674   26.1966 H   0  0  0  0  0  0
  -28.3906  -32.6728   25.0311 H   0  0  0  0  0  0
  -28.0684  -31.8481   26.5494 H   0  0  0  0  0  0
  -28.2473  -38.0196   24.7669 H   0  0  0  0  0  0
  -28.1233  -36.2736   24.5921 H   0  0  0  0  0  0
  -27.2388  -37.1025   25.8833 H   0  0  0  0  0  0
  -20.9367  -29.8777   21.6917 H   0  0  0  0  0  0
  -26.0114  -38.2830   24.1634 H   0  0  0  0  0  0
  -31.9678  -17.6378   21.2787 H   0  0  0  0  0  0
  -31.1530  -18.3823   22.6165 H   0  0  0  0  0  0
  -29.4251  -18.4195   18.6781 H   0  0  0  0  0  0
  -30.9843  -17.6961   18.9540 H   0  0  0  0  0  0
  -29.2913  -16.7302   22.4596 H   0  0  0  0  0  0
  -30.8268  -15.9467   22.7033 H   0  0  0  0  0  0
  -29.3185  -15.9252   18.7800 H   0  0  0  0  0  0
  -28.2989  -16.6624   19.9832 H   0  0  0  0  0  0
  -29.2278  -19.0157   21.0915 H   0  0  0  0  0  0
  -27.4798  -23.3435   22.7544 H   0  0  0  0  0  0
  -28.1670  -24.9281   22.3914 H   0  0  0  0  0  0
  -29.0437  -23.8428   23.4167 H   0  0  0  0  0  0
  -29.5036  -23.9307   16.9781 H   0  0  0  0  0  0
  -31.1962  -24.1748   17.4425 H   0  0  0  0  0  0
  -29.9976  -25.3227   17.9514 H   0  0  0  0  0  0
  -30.0330  -21.8778   23.5825 H   0  0  0  0  0  0
  -30.1899  -20.3321   22.8373 H   0  0  0  0  0  0
  -28.5839  -21.0118   23.0489 H   0  0  0  0  0  0
  -32.3133  -21.7231   18.0436 H   0  0  0  0  0  0
  -30.9052  -21.9159   16.9993 H   0  0  0  0  0  0
  -31.1059  -20.4424   17.8751 H   0  0  0  0  0  0
  -27.2097  -24.7978   20.3032 H   0  0  0  0  0  0
  -27.8769  -25.0686   18.7375 H   0  0  0  0  0  0
  -31.6407  -19.9077   19.6726 H   0  0  0  0  0  0
  1 25  1  0  0  0
  1 30  2  0  0  0
  1 87  1  0  0  0
  2  3  1  0  0  0
  2 25  1  0  0  0
  2 89  1  0  0  0
  2 90  1  0  0  0
  3  4  1  0  0  0
  3 91  1  0  0  0
  3 92  1  0  0  0
  4  5  1  0  0  0
  4 93  1  0  0  0
  4 94  1  0  0  0
  5  6  1  0  0  0
  5 26  1  0  0  0
  5 95  1  0  0  0
  6 25  1  0  0  0
  6 96  1  0  0  0
  6 97  1  0  0  0
  7  8  2  0  0  0
  7 26  1  0  0  0
  7 29  1  0  0  0
  8  9  1  0  0  0
  8 22  1  0  0  0
  9 10  1  0  0  0
  9 27  2  0  0  0
 10 11  2  0  0  0
 10 15  1  0  0  0
 11 12  1  0  0  0
 11 98  1  0  0  0
 12 13  2  0  0  0
 12 99  1  0  0  0
 13 14  1  0  0  0
 13 31  1  0  0  0
 14 15  2  0  0  0
 14100  1  0  0  0
 15101  1  0  0  0
 16 17  2  0  0  0
 16 21  1  0  0  0
 16 31  1  0  0  0
 17 18  1  0  0  0
 17102  1  0  0  0
 18 19  2  0  0  0
 18103  1  0  0  0
 19 20  1  0  0  0
 19 24  1  0  0  0
 20 21  2  0  0  0
 20104  1  0  0  0
 21 23  1  0  0  0
 22 28  1  0  0  0
 22 32  2  0  0  0
 26 27  1  0  0  0
 28105  1  0  0  0
 28106  1  0  0  0
 29107  1  0  0  0
 29108  1  0  0  0
 33 34  1  0  0  0
 33 66  1  0  0  0
 33 70  2  0  0  0
 34 36  1  0  0  0
 34 59  1  0  0  0
 34109  1  0  0  0
 35 44  2  0  0  0
 35 45  1  0  0  0
 35 68  1  0  0  0
 36 56  1  0  0  0
 36110  1  0  0  0
 37 39  1  0  0  0
 37 47  1  0  0  0
 37 66  1  0  0  0
 37111  1  0  0  0
 38 43  2  0  0  0
 38 46  1  0  0  0
 38 47  1  0  0  0
 39 64  1  0  0  0
 39 67  2  0  0  0
 40 52  1  0  0  0
 40 53  2  0  0  0
 40 58  1  0  0  0
 41112  1  0  0  0
 41113  1  0  0  0
 41114  1  0  0  0
 41 48  1  0  0  0
 42 43  1  0  0  0
 42 66  1  0  0  0
 42115  1  0  0  0
 42116  1  0  0  0
 43 44  1  0  0  0
 44117  1  0  0  0
 45 46  2  0  0  0
 45118  1  0  0  0
 46119  1  0  0  0
 47120  1  0  0  0
 47121  1  0  0  0
 48 56  1  0  0  0
 48 65  1  0  0  0
 48122  1  0  0  0
 49 50  1  0  0  0
 49 53  1  0  0  0
 49 64  1  0  0  0
 49123  1  0  0  0
 50 51  1  0  0  0
 50124  1  0  0  0
 50125  1  0  0  0
 51 52  1  0  0  0
 51126  1  0  0  0
 51127  1  0  0  0
 52128  1  0  0  0
 52129  1  0  0  0
 53 54  1  0  0  0
 54 55  2  0  0  0
 54130  1  0  0  0
 55 57  1  0  0  0
 55131  1  0  0  0
 56 69  2  0  0  0
 57 58  2  0  0  0
 57132  1  0  0  0
 58133  1  0  0  0
 59 60  1  0  0  0
 59 61  1  0  0  0
 59 62  1  0  0  0
 60134  1  0  0  0
 60135  1  0  0  0
 60136  1  0  0  0
 61137  1  0  0  0
 61138  1  0  0  0
 61139  1  0  0  0
 62140  1  0  0  0
 62141  1  0  0  0
 62142  1  0  0  0
 63 65  1  0  0  0
 63143  1  0  0  0
 63144  1  0  0  0
 63145  1  0  0  0
 64146  1  0  0  0
 65147  1  0  0  0
 68 86  1  0  0  0
 71 73  2  0  0  0
 71 74  1  0  0  0
 71 82  1  0  0  0
 72 73  1  0  0  0
 72 75  2  0  0  0
 72 83  1  0  0  0
 73 86  1  0  0  0
 74 76  2  0  0  0
 74 84  1  0  0  0
 75 76  1  0  0  0
 75 85  1  0  0  0
 76 88  1  0  0  0
 77 79  1  0  0  0
 77 81  1  0  0  0
 77148  1  0  0  0
 77149  1  0  0  0
 78 80  1  0  0  0
 78 81  1  0  0  0
 78150  1  0  0  0
 78151  1  0  0  0
 79 87  1  0  0  0
 79152  1  0  0  0
 79153  1  0  0  0
 80 87  1  0  0  0
 80154  1  0  0  0
 80155  1  0  0  0
 81 88  1  0  0  0
 81156  1  0  0  0
 82157  1  0  0  0
 82158  1  0  0  0
 82159  1  0  0  0
 83160  1  0  0  0
 83161  1  0  0  0
 83162  1  0  0  0
 84163  1  0  0  0
 84164  1  0  0  0
 84165  1  0  0  0
 85166  1  0  0  0
 85167  1  0  0  0
 85168  1  0  0  0
 86169  1  0  0  0
 86170  1  0  0  0
 88171  1  0  0  0
M  ISO  4   1 100  68 101  86 101  87 100
M  END
> <chiral flag>
0

> <version>
0

> <s_m_source_file>
/data/baiqing/PycharmProjects/Reinvent-master-3.2/result/LINK_invent/BTK/process_docking_weight1_custom_sum_contain_oxygen_bond_distance_aromatic_linkinvent_7_9_3/rearranged_h_0164.sdf

> <i_m_source_file_index>
34

> <r_mmod_Potential_Energy-OPLS-2005>
244.927322387695

> <r_mmod_Stretch_Energy-OPLS-2005>
69.2962265014648

> <r_mmod_Bend_Energy-OPLS-2005>
138.082290649414

> <r_mmod_Torsional_Energy-OPLS-2005>
364.402893066406

> <r_mmod_Improper_Torsional_Energy-OPLS-2005>
11.9671125411987

> <r_mmod_Van_der_Waal_Energy-OPLS-2005>
172.842712402344

> <r_mmod_Electrostatic_Energy-OPLS-2005>
-350.264709472656

> <r_mmod_Solvation_Energy-OPLS-2005>
-195.896728515625

> <b_mmod_Minimization_Converged-OPLS-2005>
0

> <r_mmod_RMS_Derivative-OPLS-2005>
2.39387798309326

$$$$
34
                    3D
 Structure written by MMmdl.
186196  0  0  1  0            999 V2000
  -30.8362  -14.3827   20.5067 C   0  0  0  0  0  0
  -30.3667  -12.2197   19.4496 C   0  0  0  0  0  0
  -29.4791  -12.4385   18.2144 C   0  0  0  0  0  0
  -27.9915  -12.4222   18.6189 C   0  0  0  0  0  0
  -27.6577  -13.2417   19.9025 C   0  0  2  0  0  0
  -28.7201  -13.0675   21.0125 C   0  0  0  0  0  0
  -25.2493  -13.8203   20.5883 C   0  0  0  0  0  0
  -24.1781  -13.0434   20.9349 C   0  0  0  0  0  0
  -24.6373  -11.6910   20.8776 C   0  0  0  0  0  0
  -23.9003  -10.4319   21.0361 C   0  0  0  0  0  0
  -24.3539   -9.4264   21.9162 C   0  0  0  0  0  0
  -23.6236   -8.2291   22.0700 C   0  0  0  0  0  0
  -22.4243   -8.0308   21.3494 C   0  0  0  0  0  0
  -21.9889   -9.0278   20.4587 C   0  0  0  0  0  0
  -22.7196  -10.2161   20.2977 C   0  0  0  0  0  0
  -21.6861   -6.0722   22.5265 C   0  0  0  0  0  0
  -21.4080   -6.5619   23.8212 C   0  0  0  0  0  0
  -21.3647   -5.6766   24.9165 C   0  0  0  0  0  0
  -21.6011   -4.3043   24.7231 C   0  0  0  0  0  0
  -21.8855   -3.8120   23.4383 C   0  0  0  0  0  0
  -21.9194   -4.6926   22.3411 C   0  0  0  0  0  0
  -22.7787  -13.5066   21.2235 C   0  0  0  0  0  0
  -22.1729   -4.2106   21.1004 F   0  0  0  0  0  0
  -21.5522   -3.4551   25.7760 F   0  0  0  0  0  0
  -30.0378  -13.2905   20.4011 N   0  0  0  0  0  0
  -26.3017  -12.9482   20.3628 N   0  0  0  0  0  0
  -25.9335  -11.6583   20.5856 N   0  0  0  0  0  0
  -22.0524  -12.7855   22.0682 N   0  0  0  0  0  0
  -25.4150  -15.1997   20.4391 N   0  0  0  0  0  0
  -32.0375  -14.3234   20.2556 O   0  0  0  0  0  0
  -21.6640   -6.8881   21.4223 O   0  0  0  0  0  0
  -22.3363  -14.5436   20.7333 O   0  0  0  0  0  0
  -24.6105  -31.8775   23.2270 C   0  0  0  0  0  0
  -25.9025  -32.4862   23.8537 C   0  0  1  0  0  0
  -27.1791  -27.4531   20.0637 C   0  0  0  0  0  0
  -25.5924  -33.8647   24.2425 N   0  0  0  0  0  0
  -23.3917  -30.5169   21.5690 C   0  0  2  0  0  0
  -24.8243  -29.0141   20.1084 C   0  0  0  0  0  0
  -22.7401  -29.4704   22.5019 C   0  0  0  0  0  0
  -18.0277  -28.1330   22.8519 C   0  0  0  0  0  0
  -24.1480  -36.7277   23.2659 C   0  0  0  0  0  0
  -25.9294  -30.8450   21.3890 C   0  0  0  0  0  0
  -25.9951  -29.4955   20.7102 C   0  0  0  0  0  0
  -27.1791  -28.7208   20.6933 C   0  0  0  0  0  0
  -25.9884  -27.0084   19.4338 C   0  0  0  0  0  0
  -24.8150  -27.7677   19.4794 C   0  0  0  0  0  0
  -23.5933  -29.8830   20.1742 C   0  0  0  0  0  0
  -25.4104  -36.3104   24.0356 C   0  0  1  0  0  0
  -20.5873  -28.3601   23.1323 C   0  0  2  0  0  0
  -20.6747  -26.9340   22.5398 C   0  0  0  0  0  0
  -19.5709  -26.6357   21.5212 C   0  0  0  0  0  0
  -18.1906  -26.7889   22.1640 C   0  0  0  0  0  0
  -19.1545  -28.8785   23.2927 C   0  0  0  0  0  0
  -18.9454  -30.1393   23.8907 C   0  0  0  0  0  0
  -17.6461  -30.6545   24.0556 C   0  0  0  0  0  0
  -25.9041  -34.9473   23.5173 C   0  0  0  0  0  0
  -16.5336  -29.9028   23.6339 C   0  0  0  0  0  0
  -16.7285  -28.6447   23.0383 C   0  0  0  0  0  0
  -26.4521  -31.6613   25.0812 C   0  0  0  0  0  0
  -25.3845  -31.3616   26.1587 C   0  0  0  0  0  0
  -27.0415  -30.3074   24.6169 C   0  0  0  0  0  0
  -27.6099  -32.4367   25.7525 C   0  0  0  0  0  0
  -27.5577  -37.1794   24.8495 C   0  0  0  0  0  0
  -21.4145  -29.2992   22.3733 N   0  0  0  0  0  0
  -26.4291  -37.3783   23.9441 N   0  0  0  0  0  0
  -24.6622  -31.0916   22.1185 N   0  0  0  0  0  0
  -23.4212  -28.8180   23.2996 O   0  0  0  0  0  0
  -28.3141  -26.6634   20.0893 O   0  0  0  0  0  0
  -26.5568  -34.8916   22.4712 O   0  0  0  0  0  0
  -23.5294  -32.1536   23.7685 O   0  0  0  0  0  0
  -25.6546  -20.0327   19.3690 C   0  0  0  0  0  0
  -25.9153  -18.1251   17.8795 C   0  0  0  0  0  0
  -23.7457  -18.5938   18.8621 C   0  0  0  0  0  0
  -26.4848  -19.1884   18.6001 C   0  0  0  0  0  0
  -24.2839  -19.7308   19.5078 C   0  0  0  0  0  0
  -24.5626  -17.7821   18.0368 C   0  0  0  0  0  0
  -31.5005  -17.2311   20.8677 C   0  0  0  0  0  0
  -30.3818  -16.5393   21.6453 C   0  0  0  0  0  0
  -27.9754  -19.2634   18.6585 C   0  0  2  0  0  0
  -28.7123  -18.1487   19.3934 C   0  0  2  0  0  0
  -28.6967  -19.5753   19.9533 C   0  0  1  0  0  0
  -30.8477  -16.6483   19.6177 C   0  0  2  0  0  0
  -23.4129  -20.5869   20.4102 C   0  0  0  0  0  0
  -29.2270  -16.3055   17.7266 C   0  0  0  0  0  0
  -30.7223  -20.7356   18.8065 C   0  0  0  0  0  0
  -22.9546  -16.0071   17.8493 C   0  0  0  0  0  0
  -29.1403  -24.3214   20.3367 C   0  0  0  0  0  0
  -29.5366  -21.9057   20.7649 C   0  0  0  0  0  0
  -28.0794  -25.2764   19.7885 C   0  0  0  0  0  0
  -29.8205  -17.3471   18.6971 C   0  0  1  0  0  0
  -29.8695  -20.5518   20.0767 C   0  0  1  0  0  0
  -30.2433  -15.6023   20.5014 N   0  0  0  0  0  0
  -28.8832  -22.9164   19.9038 N   0  3  0  0  0  0
  -24.1527  -16.6275   17.4067 O   0  0  0  0  0  0
  -31.4203  -12.1871   19.1660 H   0  0  0  0  0  0
  -30.1403  -11.2514   19.9040 H   0  0  0  0  0  0
  -29.6580  -11.6524   17.4802 H   0  0  0  0  0  0
  -29.7330  -13.3759   17.7151 H   0  0  0  0  0  0
  -27.7107  -11.3798   18.7738 H   0  0  0  0  0  0
  -27.3736  -12.7732   17.7918 H   0  0  0  0  0  0
  -27.6760  -14.2969   19.6454 H   0  0  0  0  0  0
  -28.6709  -12.0629   21.4371 H   0  0  0  0  0  0
  -28.5522  -13.7594   21.8410 H   0  0  0  0  0  0
  -25.2689   -9.5745   22.4755 H   0  0  0  0  0  0
  -23.9937   -7.4666   22.7448 H   0  0  0  0  0  0
  -21.0820   -8.8740   19.8901 H   0  0  0  0  0  0
  -22.3643  -10.9671   19.6024 H   0  0  0  0  0  0
  -21.2224   -7.6118   23.9738 H   0  0  0  0  0  0
  -21.1363   -6.0481   25.9046 H   0  0  0  0  0  0
  -22.0646   -2.7574   23.2888 H   0  0  0  0  0  0
  -22.4131  -11.9433   22.4909 H   0  0  0  0  0  0
  -21.1166  -13.0829   22.3008 H   0  0  0  0  0  0
  -24.6468  -15.8438   20.5695 H   0  0  0  0  0  0
  -26.2561  -15.6622   20.1238 H   0  0  0  0  0  0
  -26.7057  -32.5565   23.1279 H   0  0  0  0  0  0
  -25.0172  -33.9864   25.0629 H   0  0  0  0  0  0
  -22.6755  -31.3330   21.4561 H   0  0  0  0  0  0
  -23.3769  -35.9589   23.3343 H   0  0  0  0  0  0
  -24.3588  -36.8864   22.2083 H   0  0  0  0  0  0
  -23.7220  -37.6465   23.6655 H   0  0  0  0  0  0
  -26.0718  -31.6343   20.6483 H   0  0  0  0  0  0
  -26.8051  -30.8583   22.0289 H   0  0  0  0  0  0
  -28.0787  -29.0872   21.1696 H   0  0  0  0  0  0
  -25.9095  -26.0746   18.8996 H   0  0  0  0  0  0
  -23.9135  -27.4032   19.0108 H   0  0  0  0  0  0
  -23.7047  -30.6798   19.4377 H   0  0  0  0  0  0
  -22.7100  -29.3176   19.8632 H   0  0  0  0  0  0
  -25.1272  -36.1992   25.0846 H   0  0  0  0  0  0
  -21.0007  -28.3133   24.1440 H   0  0  0  0  0  0
  -20.5642  -26.2213   23.3585 H   0  0  0  0  0  0
  -21.6616  -26.7360   22.1194 H   0  0  0  0  0  0
  -19.6870  -25.6289   21.1192 H   0  0  0  0  0  0
  -19.6626  -27.3201   20.6781 H   0  0  0  0  0  0
  -17.4180  -26.6701   21.4015 H   0  0  0  0  0  0
  -18.0263  -25.9965   22.8979 H   0  0  0  0  0  0
  -19.7921  -30.7243   24.2257 H   0  0  0  0  0  0
  -17.4994  -31.6239   24.5110 H   0  0  0  0  0  0
  -15.5323  -30.2930   23.7652 H   0  0  0  0  0  0
  -15.8702  -28.0760   22.7108 H   0  0  0  0  0  0
  -24.6030  -30.6948   25.7922 H   0  0  0  0  0  0
  -24.9047  -32.2725   26.5143 H   0  0  0  0  0  0
  -25.8278  -30.8722   27.0278 H   0  0  0  0  0  0
  -26.2981  -29.6756   24.1282 H   0  0  0  0  0  0
  -27.4303  -29.7342   25.4607 H   0  0  0  0  0  0
  -27.8750  -30.4448   23.9277 H   0  0  0  0  0  0
  -27.2722  -33.3681   26.2076 H   0  0  0  0  0  0
  -28.3866  -32.6923   25.0304 H   0  0  0  0  0  0
  -28.0816  -31.8546   26.5454 H   0  0  0  0  0  0
  -28.2609  -38.0073   24.7526 H   0  0  0  0  0  0
  -28.1048  -36.2610   24.6322 H   0  0  0  0  0  0
  -27.2298  -37.1436   25.8895 H   0  0  0  0  0  0
  -20.9256  -29.8789   21.7041 H   0  0  0  0  0  0
  -26.0175  -38.2849   24.1454 H   0  0  0  0  0  0
  -26.0763  -20.8709   19.9106 H   0  0  0  0  0  0
  -26.5543  -17.4938   17.2799 H   0  0  0  0  0  0
  -22.7069  -18.3500   19.0251 H   0  0  0  0  0  0
  -32.4829  -16.7885   21.0690 H   0  0  0  0  0  0
  -31.5851  -18.3113   20.8933 H   0  0  0  0  0  0
  -29.5173  -17.1788   21.8254 H   0  0  0  0  0  0
  -30.7012  -16.0893   22.5872 H   0  0  0  0  0  0
  -28.4000  -19.5599   17.7016 H   0  0  0  0  0  0
  -28.0997  -17.4838   19.9946 H   0  0  0  0  0  0
  -28.0610  -19.6269   20.8369 H   0  0  0  0  0  0
  -31.6571  -16.2876   18.9704 H   0  0  0  0  0  0
  -23.6370  -21.6486   20.3052 H   0  0  0  0  0  0
  -23.5709  -20.3199   21.4553 H   0  0  0  0  0  0
  -22.3601  -20.4432   20.1737 H   0  0  0  0  0  0
  -28.6686  -16.7750   16.9168 H   0  0  0  0  0  0
  -28.5498  -15.6278   18.2328 H   0  0  0  0  0  0
  -30.0031  -15.6864   17.2741 H   0  0  0  0  0  0
  -31.1912  -19.8047   18.5033 H   0  0  0  0  0  0
  -31.5454  -21.4272   18.9805 H   0  0  0  0  0  0
  -30.1337  -21.1120   17.9689 H   0  0  0  0  0  0
  -22.8007  -16.1174   18.9197 H   0  0  0  0  0  0
  -22.9971  -14.9357   17.6455 H   0  0  0  0  0  0
  -22.0868  -16.4077   17.3278 H   0  0  0  0  0  0
  -29.0872  -24.3782   21.4264 H   0  0  0  0  0  0
  -30.1383  -24.6424   20.0430 H   0  0  0  0  0  0
  -30.4786  -22.3242   21.1186 H   0  0  0  0  0  0
  -28.9287  -21.7585   21.6583 H   0  0  0  0  0  0
  -27.1558  -24.9450   20.2664 H   0  0  0  0  0  0
  -27.9554  -25.1505   18.7115 H   0  0  0  0  0  0
  -30.3593  -18.0149   18.0362 H   0  0  0  0  0  0
  -30.5135  -20.0891   20.8218 H   0  0  0  0  0  0
  -29.1701  -22.7995   18.9443 H   0  0  0  0  0  0
  -27.8923  -22.7334   19.9562 H   0  0  0  0  0  0
  1 25  1  0  0  0
  1 30  2  0  0  0
  1 92  1  0  0  0
  2  3  1  0  0  0
  2 25  1  0  0  0
  2 95  1  0  0  0
  2 96  1  0  0  0
  3  4  1  0  0  0
  3 97  1  0  0  0
  3 98  1  0  0  0
  4  5  1  0  0  0
  4 99  1  0  0  0
  4100  1  0  0  0
  5  6  1  0  0  0
  5 26  1  0  0  0
  5101  1  0  0  0
  6 25  1  0  0  0
  6102  1  0  0  0
  6103  1  0  0  0
  7  8  2  0  0  0
  7 26  1  0  0  0
  7 29  1  0  0  0
  8  9  1  0  0  0
  8 22  1  0  0  0
  9 10  1  0  0  0
  9 27  2  0  0  0
 10 11  2  0  0  0
 10 15  1  0  0  0
 11 12  1  0  0  0
 11104  1  0  0  0
 12 13  2  0  0  0
 12105  1  0  0  0
 13 14  1  0  0  0
 13 31  1  0  0  0
 14 15  2  0  0  0
 14106  1  0  0  0
 15107  1  0  0  0
 16 17  2  0  0  0
 16 21  1  0  0  0
 16 31  1  0  0  0
 17 18  1  0  0  0
 17108  1  0  0  0
 18 19  2  0  0  0
 18109  1  0  0  0
 19 20  1  0  0  0
 19 24  1  0  0  0
 20 21  2  0  0  0
 20110  1  0  0  0
 21 23  1  0  0  0
 22 28  1  0  0  0
 22 32  2  0  0  0
 26 27  1  0  0  0
 28111  1  0  0  0
 28112  1  0  0  0
 29113  1  0  0  0
 29114  1  0  0  0
 33 34  1  0  0  0
 33 66  1  0  0  0
 33 70  2  0  0  0
 34 36  1  0  0  0
 34 59  1  0  0  0
 34115  1  0  0  0
 35 44  2  0  0  0
 35 45  1  0  0  0
 35 68  1  0  0  0
 36 56  1  0  0  0
 36116  1  0  0  0
 37 39  1  0  0  0
 37 47  1  0  0  0
 37 66  1  0  0  0
 37117  1  0  0  0
 38 43  2  0  0  0
 38 46  1  0  0  0
 38 47  1  0  0  0
 39 64  1  0  0  0
 39 67  2  0  0  0
 40 52  1  0  0  0
 40 53  2  0  0  0
 40 58  1  0  0  0
 41118  1  0  0  0
 41119  1  0  0  0
 41120  1  0  0  0
 41 48  1  0  0  0
 42 43  1  0  0  0
 42 66  1  0  0  0
 42121  1  0  0  0
 42122  1  0  0  0
 43 44  1  0  0  0
 44123  1  0  0  0
 45 46  2  0  0  0
 45124  1  0  0  0
 46125  1  0  0  0
 47126  1  0  0  0
 47127  1  0  0  0
 48 56  1  0  0  0
 48 65  1  0  0  0
 48128  1  0  0  0
 49 50  1  0  0  0
 49 53  1  0  0  0
 49 64  1  0  0  0
 49129  1  0  0  0
 50 51  1  0  0  0
 50130  1  0  0  0
 50131  1  0  0  0
 51 52  1  0  0  0
 51132  1  0  0  0
 51133  1  0  0  0
 52134  1  0  0  0
 52135  1  0  0  0
 53 54  1  0  0  0
 54 55  2  0  0  0
 54136  1  0  0  0
 55 57  1  0  0  0
 55137  1  0  0  0
 56 69  2  0  0  0
 57 58  2  0  0  0
 57138  1  0  0  0
 58139  1  0  0  0
 59 60  1  0  0  0
 59 61  1  0  0  0
 59 62  1  0  0  0
 60140  1  0  0  0
 60141  1  0  0  0
 60142  1  0  0  0
 61143  1  0  0  0
 61144  1  0  0  0
 61145  1  0  0  0
 62146  1  0  0  0
 62147  1  0  0  0
 62148  1  0  0  0
 63 65  1  0  0  0
 63149  1  0  0  0
 63150  1  0  0  0
 63151  1  0  0  0
 64152  1  0  0  0
 65153  1  0  0  0
 68 89  1  0  0  0
 71 74  2  0  0  0
 71 75  1  0  0  0
 71154  1  0  0  0
 72 74  1  0  0  0
 72 76  2  0  0  0
 72155  1  0  0  0
 73 75  2  0  0  0
 73 76  1  0  0  0
 73156  1  0  0  0
 74 79  1  0  0  0
 75 83  1  0  0  0
 76 94  1  0  0  0
 77 78  1  0  0  0
 77157  1  0  0  0
 77158  1  0  0  0
 77 82  1  0  0  0
 78 92  1  0  0  0
 78159  1  0  0  0
 78160  1  0  0  0
 79 80  1  0  0  0
 79 81  1  0  0  0
 79161  1  0  0  0
 80 81  1  0  0  0
 80 90  1  0  0  0
 80162  1  0  0  0
 81 91  1  0  0  0
 81163  1  0  0  0
 82 90  1  0  0  0
 82 92  1  0  0  0
 82164  1  0  0  0
 83165  1  0  0  0
 83166  1  0  0  0
 83167  1  0  0  0
 84168  1  0  0  0
 84169  1  0  0  0
 84170  1  0  0  0
 84 90  1  0  0  0
 85171  1  0  0  0
 85172  1  0  0  0
 85173  1  0  0  0
 85 91  1  0  0  0
 86 94  1  0  0  0
 86174  1  0  0  0
 86175  1  0  0  0
 86176  1  0  0  0
 87 89  1  0  0  0
 87 93  1  0  0  0
 87177  1  0  0  0
 87178  1  0  0  0
 88 91  1  0  0  0
 88 93  1  0  0  0
 88179  1  0  0  0
 88180  1  0  0  0
 89181  1  0  0  0
 89182  1  0  0  0
 90183  1  0  0  0
 91184  1  0  0  0
 93185  1  0  0  0
 93186  1  0  0  0
M  CHG  1  93   1
M  ISO  4   1 100  68 101  89 101  92 100
M  END
> <chiral flag>
0

> <version>
0

> <s_m_source_file>
/data/baiqing/PycharmProjects/Reinvent-master-3.2/result/LINK_invent/BTK/process_docking_weight1_custom_sum_contain_oxygen_bond_distance_aromatic_linkinvent_7_9_3/rearranged_h_0164.sdf

> <i_m_source_file_index>
35

> <r_mmod_Potential_Energy-OPLS-2005>
150.460968017578

> <r_mmod_Stretch_Energy-OPLS-2005>
43.5345649719238

> <r_mmod_Bend_Energy-OPLS-2005>
165.840469360352

> <r_mmod_Torsional_Energy-OPLS-2005>
375.433258056641

> <r_mmod_Improper_Torsional_Energy-OPLS-2005>
18.9994087219238

> <r_mmod_Van_der_Waal_Energy-OPLS-2005>
159.695571899414

> <r_mmod_Electrostatic_Energy-OPLS-2005>
-225.036849975586

> <r_mmod_Solvation_Energy-OPLS-2005>
-432.721099853516

> <b_mmod_Minimization_Converged-OPLS-2005>
0

> <r_mmod_RMS_Derivative-OPLS-2005>
9.20243549346924

$$$$
35
                    3D
 Structure written by MMmdl.
176185  0  0  1  0            999 V2000
  -30.5727  -14.8657   20.4251 C   0  0  0  0  0  0
  -30.4333  -12.5343   19.4851 C   0  0  0  0  0  0
  -29.5145  -12.5188   18.2437 C   0  0  0  0  0  0
  -28.0446  -12.3204   18.6611 C   0  0  0  0  0  0
  -27.6303  -13.2437   19.8374 C   0  0  2  0  0  0
  -28.6735  -13.2426   20.9742 C   0  0  0  0  0  0
  -25.2463  -13.8216   20.5702 C   0  0  0  0  0  0
  -24.1773  -13.0447   20.9225 C   0  0  0  0  0  0
  -24.6381  -11.6927   20.8746 C   0  0  0  0  0  0
  -23.9065  -10.4296   21.0400 C   0  0  0  0  0  0
  -24.3615   -9.4208   21.9175 C   0  0  0  0  0  0
  -23.6290   -8.2242   22.0747 C   0  0  0  0  0  0
  -22.4272   -8.0279   21.3535 C   0  0  0  0  0  0
  -21.9904   -9.0251   20.4642 C   0  0  0  0  0  0
  -22.7236  -10.2132   20.3053 C   0  0  0  0  0  0
  -21.6856   -6.0729   22.5270 C   0  0  0  0  0  0
  -21.4017   -6.5629   23.8206 C   0  0  0  0  0  0
  -21.3662   -5.6782   24.9166 C   0  0  0  0  0  0
  -21.6050   -4.3045   24.7218 C   0  0  0  0  0  0
  -21.8821   -3.8136   23.4337 C   0  0  0  0  0  0
  -21.9194   -4.6954   22.3394 C   0  0  0  0  0  0
  -22.7797  -13.5219   21.1885 C   0  0  0  0  0  0
  -22.1664   -4.2144   21.0971 F   0  0  0  0  0  0
  -21.5631   -3.4529   25.7729 F   0  0  0  0  0  0
  -29.9580  -13.6248   20.3762 N   0  0  0  0  0  0
  -26.2880  -12.9443   20.3230 N   0  0  0  0  0  0
  -25.9307  -11.6575   20.5724 N   0  0  0  0  0  0
  -22.0444  -12.8203   22.0442 N   0  0  0  0  0  0
  -25.4136  -15.1945   20.4117 N   0  0  0  0  0  0
  -31.7858  -14.9107   20.2028 O   0  0  0  0  0  0
  -21.6641   -6.8872   21.4233 O   0  0  0  0  0  0
  -22.3478  -14.5523   20.6736 O   0  0  0  0  0  0
  -24.6398  -31.8478   23.1914 C   0  0  0  0  0  0
  -25.9184  -32.4717   23.8297 C   0  0  1  0  0  0
  -27.2167  -27.1852   20.1531 C   0  0  0  0  0  0
  -25.5952  -33.8519   24.2219 N   0  0  0  0  0  0
  -23.4413  -30.4674   21.5366 C   0  0  2  0  0  0
  -24.8918  -28.9007   20.1128 C   0  0  0  0  0  0
  -22.7554  -29.4558   22.4880 C   0  0  0  0  0  0
  -18.0304  -28.1392   22.8474 C   0  0  0  0  0  0
  -24.1490  -36.7264   23.2637 C   0  0  0  0  0  0
  -25.9933  -30.7381   21.3819 C   0  0  0  0  0  0
  -26.0677  -29.3521   20.7280 C   0  0  0  0  0  0
  -27.2374  -28.5103   20.7305 C   0  0  0  0  0  0
  -26.0200  -26.8199   19.5042 C   0  0  0  0  0  0
  -24.8776  -27.6458   19.4852 C   0  0  0  0  0  0
  -23.6660  -29.7975   20.1554 C   0  0  0  0  0  0
  -25.4118  -36.3045   24.0321 C   0  0  1  0  0  0
  -20.5914  -28.3711   23.1248 C   0  0  2  0  0  0
  -20.6786  -26.9416   22.5409 C   0  0  0  0  0  0
  -19.5763  -26.6378   21.5210 C   0  0  0  0  0  0
  -18.1943  -26.7930   22.1620 C   0  0  0  0  0  0
  -19.1558  -28.8870   23.2852 C   0  0  0  0  0  0
  -18.9474  -30.1468   23.8875 C   0  0  0  0  0  0
  -17.6469  -30.6586   24.0561 C   0  0  0  0  0  0
  -25.9069  -34.9419   23.5077 C   0  0  0  0  0  0
  -16.5362  -29.9080   23.6330 C   0  0  0  0  0  0
  -16.7288  -28.6501   23.0345 C   0  0  0  0  0  0
  -26.4522  -31.6563   25.0715 C   0  0  0  0  0  0
  -25.3720  -31.3745   26.1421 C   0  0  0  0  0  0
  -27.0367  -30.2961   24.6252 C   0  0  0  0  0  0
  -27.6071  -32.4311   25.7493 C   0  0  0  0  0  0
  -27.5579  -37.1786   24.8463 C   0  0  0  0  0  0
  -21.4251  -29.3038   22.3627 N   0  0  0  0  0  0
  -26.4284  -37.3755   23.9413 N   0  0  0  0  0  0
  -24.7111  -31.0377   22.0926 N   0  0  0  0  0  0
  -23.4214  -28.8101   23.3015 O   0  0  0  0  0  0
  -28.2604  -26.2089   20.1669 O   0  0  0  0  0  0
  -26.5647  -34.8911   22.4649 O   0  0  0  0  0  0
  -23.5525  -32.1335   23.7156 O   0  0  0  0  0  0
  -29.8619  -21.2647   20.4013 C   0  0  0  0  0  0
  -27.3366  -22.3829   20.3287 C   0  0  0  0  0  0
  -28.8045  -20.2978   20.2705 C   0  0  0  0  0  0
  -29.6673  -22.7097   20.5149 C   0  0  0  0  0  0
  -27.5203  -20.9532   20.2407 C   0  0  0  0  0  0
  -28.3762  -23.3486   20.4741 C   0  0  0  0  0  0
  -28.8212  -18.4739   18.5087 C   0  0  0  0  0  0
  -28.9133  -18.6644   20.0226 C   0  0  1  0  0  0
  -30.2722  -18.5312   18.0197 C   0  0  1  0  0  0
  -31.0654  -17.7514   19.0938 C   0  0  2  0  0  0
  -30.1328  -17.5798   20.3306 C   0  0  2  0  0  0
  -30.8892  -23.5792   20.7404 C   0  0  0  0  0  0
  -26.2504  -20.1208   20.1276 C   0  0  0  0  0  0
  -32.4199  -18.3823   19.4557 C   0  0  0  0  0  0
  -29.6522  -18.7937   15.5453 C   0  0  0  0  0  0
  -32.2464  -17.0581   15.3256 C   0  0  0  0  0  0
  -27.9921  -24.8888   20.8920 C   0  0  0  0  0  0
  -30.4414  -17.9795   16.5852 C   0  0  1  0  0  0
  -29.7970  -16.0464   20.4900 N   0  0  0  0  0  0
  -31.8237  -18.0468   16.2560 O   0  0  0  0  0  0
  -31.4699  -12.6770   19.1758 H   0  0  0  0  0  0
  -30.4048  -11.5747   20.0036 H   0  0  0  0  0  0
  -29.8187  -11.7275   17.5572 H   0  0  0  0  0  0
  -29.6198  -13.4568   17.6972 H   0  0  0  0  0  0
  -27.9249  -11.2768   18.9542 H   0  0  0  0  0  0
  -27.3846  -12.4730   17.8065 H   0  0  0  0  0  0
  -27.6032  -14.2518   19.4232 H   0  0  0  0  0  0
  -28.7380  -12.2616   21.4476 H   0  0  0  0  0  0
  -28.3893  -13.9480   21.7566 H   0  0  0  0  0  0
  -25.2759   -9.5686   22.4752 H   0  0  0  0  0  0
  -24.0000   -7.4632   22.7461 H   0  0  0  0  0  0
  -21.0838   -8.8766   19.8946 H   0  0  0  0  0  0
  -22.3682  -10.9667   19.6163 H   0  0  0  0  0  0
  -21.2007   -7.6136   23.9709 H   0  0  0  0  0  0
  -21.1491   -6.0509   25.9072 H   0  0  0  0  0  0
  -22.0600   -2.7598   23.2842 H   0  0  0  0  0  0
  -22.4064  -11.9868   22.4833 H   0  0  0  0  0  0
  -21.1067  -13.1229   22.2661 H   0  0  0  0  0  0
  -24.6405  -15.8426   20.5162 H   0  0  0  0  0  0
  -26.2486  -15.6313   20.0460 H   0  0  0  0  0  0
  -26.7251  -32.5345   23.1033 H   0  0  0  0  0  0
  -25.0101  -33.9645   25.0367 H   0  0  0  0  0  0
  -22.7411  -31.2914   21.3843 H   0  0  0  0  0  0
  -23.3760  -35.9587   23.3283 H   0  0  0  0  0  0
  -24.3580  -36.8906   22.2055 H   0  0  0  0  0  0
  -23.7236  -37.6454   23.6679 H   0  0  0  0  0  0
  -26.1394  -31.4913   20.6063 H   0  0  0  0  0  0
  -26.8677  -30.7921   22.0189 H   0  0  0  0  0  0
  -28.1382  -28.8518   21.2204 H   0  0  0  0  0  0
  -25.9575  -25.8528   19.0257 H   0  0  0  0  0  0
  -23.9806  -27.2955   18.9932 H   0  0  0  0  0  0
  -23.8000  -30.5719   19.3993 H   0  0  0  0  0  0
  -22.7820  -29.2371   19.8464 H   0  0  0  0  0  0
  -25.1297  -36.1881   25.0812 H   0  0  0  0  0  0
  -21.0005  -28.3297   24.1370 H   0  0  0  0  0  0
  -20.5673  -26.2321   23.3624 H   0  0  0  0  0  0
  -21.6655  -26.7420   22.1213 H   0  0  0  0  0  0
  -19.6923  -25.6285   21.1253 H   0  0  0  0  0  0
  -19.6702  -27.3179   20.6734 H   0  0  0  0  0  0
  -17.4211  -26.6673   21.4027 H   0  0  0  0  0  0
  -18.0342  -26.0076   22.9022 H   0  0  0  0  0  0
  -19.7949  -30.7293   24.2234 H   0  0  0  0  0  0
  -17.5021  -31.6262   24.5169 H   0  0  0  0  0  0
  -15.5361  -30.2973   23.7662 H   0  0  0  0  0  0
  -15.8691  -28.0818   22.7062 H   0  0  0  0  0  0
  -24.5923  -30.7055   25.7761 H   0  0  0  0  0  0
  -24.8879  -32.2923   26.4771 H   0  0  0  0  0  0
  -25.8022  -30.8991   27.0244 H   0  0  0  0  0  0
  -26.2963  -29.6702   24.1255 H   0  0  0  0  0  0
  -27.3992  -29.7239   25.4801 H   0  0  0  0  0  0
  -27.8870  -30.4203   23.9541 H   0  0  0  0  0  0
  -27.2682  -33.3629   26.2031 H   0  0  0  0  0  0
  -28.3903  -32.6834   25.0331 H   0  0  0  0  0  0
  -28.0712  -31.8456   26.5439 H   0  0  0  0  0  0
  -28.2582  -38.0094   24.7514 H   0  0  0  0  0  0
  -28.1087  -36.2628   24.6276 H   0  0  0  0  0  0
  -27.2305  -37.1416   25.8867 H   0  0  0  0  0  0
  -20.9455  -29.8764   21.6821 H   0  0  0  0  0  0
  -26.0156  -38.2823   24.1421 H   0  0  0  0  0  0
  -30.8733  -20.8915   20.4290 H   0  0  0  0  0  0
  -26.3233  -22.7597   20.3385 H   0  0  0  0  0  0
  -28.1876  -19.2129   18.0186 H   0  0  0  0  0  0
  -28.3972  -17.4927   18.2889 H   0  0  0  0  0  0
  -28.0295  -18.2422   20.4975 H   0  0  0  0  0  0
  -30.5894  -19.5754   18.0346 H   0  0  0  0  0  0
  -31.2941  -16.7847   18.6499 H   0  0  0  0  0  0
  -30.6334  -17.8751   21.2537 H   0  0  0  0  0  0
  -31.8079  -23.0591   20.4665 H   0  0  0  0  0  0
  -30.9606  -23.8625   21.7909 H   0  0  0  0  0  0
  -30.8316  -24.4903   20.1441 H   0  0  0  0  0  0
  -25.3594  -20.7469   20.0698 H   0  0  0  0  0  0
  -26.1357  -19.4778   21.0004 H   0  0  0  0  0  0
  -26.2576  -19.4954   19.2360 H   0  0  0  0  0  0
  -32.3136  -19.3776   19.8807 H   0  0  0  0  0  0
  -33.0634  -18.4627   18.5796 H   0  0  0  0  0  0
  -32.9452  -17.7680   20.1880 H   0  0  0  0  0  0
  -28.5810  -18.7622   15.7438 H   0  0  0  0  0  0
  -29.7941  -18.4081   14.5363 H   0  0  0  0  0  0
  -29.9598  -19.8397   15.5477 H   0  0  0  0  0  0
  -33.3147  -17.1675   15.1381 H   0  0  0  0  0  0
  -31.7307  -17.1517   14.3699 H   0  0  0  0  0  0
  -32.0799  -16.0526   15.7141 H   0  0  0  0  0  0
  -28.4549  -25.0240   21.8695 H   0  0  0  0  0  0
  -26.9277  -24.8616   21.1267 H   0  0  0  0  0  0
  -30.0964  -16.9429   16.5714 H   0  0  0  0  0  0
  -28.8170  -15.8617   20.6401 H   0  0  0  0  0  0
  1 25  1  0  0  0
  1 30  2  0  0  0
  1 89  1  0  0  0
  2  3  1  0  0  0
  2 25  1  0  0  0
  2 91  1  0  0  0
  2 92  1  0  0  0
  3  4  1  0  0  0
  3 93  1  0  0  0
  3 94  1  0  0  0
  4  5  1  0  0  0
  4 95  1  0  0  0
  4 96  1  0  0  0
  5  6  1  0  0  0
  5 26  1  0  0  0
  5 97  1  0  0  0
  6 25  1  0  0  0
  6 98  1  0  0  0
  6 99  1  0  0  0
  7  8  2  0  0  0
  7 26  1  0  0  0
  7 29  1  0  0  0
  8  9  1  0  0  0
  8 22  1  0  0  0
  9 10  1  0  0  0
  9 27  2  0  0  0
 10 11  2  0  0  0
 10 15  1  0  0  0
 11 12  1  0  0  0
 11100  1  0  0  0
 12 13  2  0  0  0
 12101  1  0  0  0
 13 14  1  0  0  0
 13 31  1  0  0  0
 14 15  2  0  0  0
 14102  1  0  0  0
 15103  1  0  0  0
 16 17  2  0  0  0
 16 21  1  0  0  0
 16 31  1  0  0  0
 17 18  1  0  0  0
 17104  1  0  0  0
 18 19  2  0  0  0
 18105  1  0  0  0
 19 20  1  0  0  0
 19 24  1  0  0  0
 20 21  2  0  0  0
 20106  1  0  0  0
 21 23  1  0  0  0
 22 28  1  0  0  0
 22 32  2  0  0  0
 26 27  1  0  0  0
 28107  1  0  0  0
 28108  1  0  0  0
 29109  1  0  0  0
 29110  1  0  0  0
 33 34  1  0  0  0
 33 66  1  0  0  0
 33 70  2  0  0  0
 34 36  1  0  0  0
 34 59  1  0  0  0
 34111  1  0  0  0
 35 44  2  0  0  0
 35 45  1  0  0  0
 35 68  1  0  0  0
 36 56  1  0  0  0
 36112  1  0  0  0
 37 39  1  0  0  0
 37 47  1  0  0  0
 37 66  1  0  0  0
 37113  1  0  0  0
 38 43  2  0  0  0
 38 46  1  0  0  0
 38 47  1  0  0  0
 39 64  1  0  0  0
 39 67  2  0  0  0
 40 52  1  0  0  0
 40 53  2  0  0  0
 40 58  1  0  0  0
 41114  1  0  0  0
 41115  1  0  0  0
 41116  1  0  0  0
 41 48  1  0  0  0
 42 43  1  0  0  0
 42 66  1  0  0  0
 42117  1  0  0  0
 42118  1  0  0  0
 43 44  1  0  0  0
 44119  1  0  0  0
 45 46  2  0  0  0
 45120  1  0  0  0
 46121  1  0  0  0
 47122  1  0  0  0
 47123  1  0  0  0
 48 56  1  0  0  0
 48 65  1  0  0  0
 48124  1  0  0  0
 49 50  1  0  0  0
 49 53  1  0  0  0
 49 64  1  0  0  0
 49125  1  0  0  0
 50 51  1  0  0  0
 50126  1  0  0  0
 50127  1  0  0  0
 51 52  1  0  0  0
 51128  1  0  0  0
 51129  1  0  0  0
 52130  1  0  0  0
 52131  1  0  0  0
 53 54  1  0  0  0
 54 55  2  0  0  0
 54132  1  0  0  0
 55 57  1  0  0  0
 55133  1  0  0  0
 56 69  2  0  0  0
 57 58  2  0  0  0
 57134  1  0  0  0
 58135  1  0  0  0
 59 60  1  0  0  0
 59 61  1  0  0  0
 59 62  1  0  0  0
 60136  1  0  0  0
 60137  1  0  0  0
 60138  1  0  0  0
 61139  1  0  0  0
 61140  1  0  0  0
 61141  1  0  0  0
 62142  1  0  0  0
 62143  1  0  0  0
 62144  1  0  0  0
 63 65  1  0  0  0
 63145  1  0  0  0
 63146  1  0  0  0
 63147  1  0  0  0
 64148  1  0  0  0
 65149  1  0  0  0
 68 87  1  0  0  0
 71 73  2  0  0  0
 71 74  1  0  0  0
 71150  1  0  0  0
 72 75  2  0  0  0
 72 76  1  0  0  0
 72151  1  0  0  0
 73 75  1  0  0  0
 73 78  1  0  0  0
 74 76  2  0  0  0
 74 82  1  0  0  0
 75 83  1  0  0  0
 76 87  1  0  0  0
 77 78  1  0  0  0
 77152  1  0  0  0
 77153  1  0  0  0
 77 79  1  0  0  0
 78 81  1  0  0  0
 78154  1  0  0  0
 79 80  1  0  0  0
 79 88  1  0  0  0
 79155  1  0  0  0
 80 81  1  0  0  0
 80 84  1  0  0  0
 80156  1  0  0  0
 81 89  1  0  0  0
 81157  1  0  0  0
 82158  1  0  0  0
 82159  1  0  0  0
 82160  1  0  0  0
 83161  1  0  0  0
 83162  1  0  0  0
 83163  1  0  0  0
 84164  1  0  0  0
 84165  1  0  0  0
 84166  1  0  0  0
 85167  1  0  0  0
 85168  1  0  0  0
 85169  1  0  0  0
 85 88  1  0  0  0
 86 90  1  0  0  0
 86170  1  0  0  0
 86171  1  0  0  0
 86172  1  0  0  0
 87173  1  0  0  0
 87174  1  0  0  0
 88 90  1  0  0  0
 88175  1  0  0  0
 89176  1  0  0  0
M  ISO  4   1 100  68 101  87 101  89 100
M  END
> <chiral flag>
0

> <version>
0

> <s_m_source_file>
/data/baiqing/PycharmProjects/Reinvent-master-3.2/result/LINK_invent/BTK/process_docking_weight1_custom_sum_contain_oxygen_bond_distance_aromatic_linkinvent_7_9_3/rearranged_h_0164.sdf

> <i_m_source_file_index>
36

> <r_mmod_Potential_Energy-OPLS-2005>
460.388214111328

> <r_mmod_Stretch_Energy-OPLS-2005>
202.974304199219

> <r_mmod_Bend_Energy-OPLS-2005>
286.421569824219

> <r_mmod_Torsional_Energy-OPLS-2005>
303.952575683594

> <r_mmod_Improper_Torsional_Energy-OPLS-2005>
8.09373188018799

> <r_mmod_Van_der_Waal_Energy-OPLS-2005>
129.937957763672

> <r_mmod_Electrostatic_Energy-OPLS-2005>
-410.079620361328

> <r_mmod_Solvation_Energy-OPLS-2005>
-208.803009033203

> <b_mmod_Minimization_Converged-OPLS-2005>
0

> <r_mmod_RMS_Derivative-OPLS-2005>
1.039311170578

$$$$
36
                    3D
 Structure written by MMmdl.
161171  0  0  1  0            999 V2000
  -30.6231  -14.6350   20.4875 C   0  0  0  0  0  0
  -30.4375  -12.3827   19.4615 C   0  0  0  0  0  0
  -29.5093  -12.5030   18.2317 C   0  0  0  0  0  0
  -28.0293  -12.3493   18.6405 C   0  0  0  0  0  0
  -27.6554  -13.2170   19.8725 C   0  0  2  0  0  0
  -28.7016  -13.0697   21.0035 C   0  0  0  0  0  0
  -25.2556  -13.8164   20.5699 C   0  0  0  0  0  0
  -24.1824  -13.0424   20.9203 C   0  0  0  0  0  0
  -24.6395  -11.6898   20.8752 C   0  0  0  0  0  0
  -23.9065  -10.4292   21.0406 C   0  0  0  0  0  0
  -24.3623   -9.4207   21.9174 C   0  0  0  0  0  0
  -23.6307   -8.2240   22.0737 C   0  0  0  0  0  0
  -22.4291   -8.0275   21.3534 C   0  0  0  0  0  0
  -21.9919   -9.0242   20.4638 C   0  0  0  0  0  0
  -22.7233  -10.2132   20.3059 C   0  0  0  0  0  0
  -21.6849   -6.0741   22.5280 C   0  0  0  0  0  0
  -21.4013   -6.5638   23.8215 C   0  0  0  0  0  0
  -21.3664   -5.6788   24.9169 C   0  0  0  0  0  0
  -21.6050   -4.3056   24.7221 C   0  0  0  0  0  0
  -21.8821   -3.8152   23.4339 C   0  0  0  0  0  0
  -21.9196   -4.6971   22.3393 C   0  0  0  0  0  0
  -22.7842  -13.5204   21.1864 C   0  0  0  0  0  0
  -22.1655   -4.2157   21.0967 F   0  0  0  0  0  0
  -21.5644   -3.4540   25.7732 F   0  0  0  0  0  0
  -30.0204  -13.4044   20.4436 N   0  0  0  0  0  0
  -26.3000  -12.9352   20.3364 N   0  0  0  0  0  0
  -25.9335  -11.6510   20.5799 N   0  0  0  0  0  0
  -22.0500  -12.8199   22.0432 N   0  0  0  0  0  0
  -25.4240  -15.1880   20.4095 N   0  0  0  0  0  0
  -31.7660  -14.8097   20.0565 O   0  0  0  0  0  0
  -21.6641   -6.8883   21.4243 O   0  0  0  0  0  0
  -22.3525  -14.5497   20.6696 O   0  0  0  0  0  0
  -24.6290  -31.8599   23.2060 C   0  0  0  0  0  0
  -25.9140  -32.4782   23.8371 C   0  0  1  0  0  0
  -27.2241  -27.3186   20.0729 C   0  0  0  0  0  0
  -25.5940  -33.8588   24.2278 N   0  0  0  0  0  0
  -23.4218  -30.4886   21.5499 C   0  0  2  0  0  0
  -24.8667  -28.9509   20.1066 C   0  0  0  0  0  0
  -22.7459  -29.4641   22.4935 C   0  0  0  0  0  0
  -18.0284  -28.1394   22.8506 C   0  0  0  0  0  0
  -24.1485  -36.7289   23.2633 C   0  0  0  0  0  0
  -25.9686  -30.7818   21.3862 C   0  0  0  0  0  0
  -26.0387  -29.4138   20.7165 C   0  0  0  0  0  0
  -27.2151  -28.6038   20.7044 C   0  0  0  0  0  0
  -26.0195  -26.9116   19.4557 C   0  0  0  0  0  0
  -24.8583  -27.7002   19.4760 C   0  0  0  0  0  0
  -23.6371  -29.8327   20.1630 C   0  0  0  0  0  0
  -25.4100  -36.3081   24.0338 C   0  0  1  0  0  0
  -20.5879  -28.3697   23.1291 C   0  0  2  0  0  0
  -20.6777  -26.9417   22.5424 C   0  0  0  0  0  0
  -19.5758  -26.6388   21.5223 C   0  0  0  0  0  0
  -18.1929  -26.7949   22.1619 C   0  0  0  0  0  0
  -19.1531  -28.8859   23.2908 C   0  0  0  0  0  0
  -18.9460  -30.1459   23.8926 C   0  0  0  0  0  0
  -17.6459  -30.6608   24.0562 C   0  0  0  0  0  0
  -25.9064  -34.9463   23.5100 C   0  0  0  0  0  0
  -16.5351  -29.9099   23.6345 C   0  0  0  0  0  0
  -16.7268  -28.6514   23.0378 C   0  0  0  0  0  0
  -26.4504  -31.6609   25.0756 C   0  0  0  0  0  0
  -25.3735  -31.3780   26.1484 C   0  0  0  0  0  0
  -27.0343  -30.3014   24.6265 C   0  0  0  0  0  0
  -27.6070  -32.4355   25.7509 C   0  0  0  0  0  0
  -27.5623  -37.1726   24.8407 C   0  0  0  0  0  0
  -21.4170  -29.3048   22.3670 N   0  0  0  0  0  0
  -26.4242  -37.3819   23.9490 N   0  0  0  0  0  0
  -24.6916  -31.0589   22.1033 N   0  0  0  0  0  0
  -23.4170  -28.8170   23.3016 O   0  0  0  0  0  0
  -28.3183  -26.4354   20.1303 O   0  0  0  0  0  0
  -26.5627  -34.8936   22.4666 O   0  0  0  0  0  0
  -23.5450  -32.1404   23.7382 O   0  0  0  0  0  0
  -29.3023  -20.2287   18.9987 C   0  0  0  0  0  0
  -29.5134  -21.0121   21.2424 C   0  0  0  0  0  0
  -29.4347  -19.8934   20.3652 C   0  0  0  0  0  0
  -29.2718  -22.7014   19.4233 C   0  0  0  0  0  0
  -29.2159  -21.5734   18.5377 C   0  0  0  0  0  0
  -29.4446  -22.3742   20.7969 C   0  0  0  0  0  0
  -28.3519  -17.5453   20.2348 C   0  0  0  0  0  0
  -27.8133  -24.5186   18.4468 C   0  0  0  0  0  0
  -29.3781  -18.4168   20.8883 C   0  0  1  0  0  0
  -29.2466  -24.1453   18.8028 C   0  0  1  0  0  0
  -29.7824  -17.0437   20.2025 C   0  0  1  0  0  0
  -28.6652  -25.6316   18.9496 C   0  0  2  0  0  0
  -29.0643  -21.7616   17.0322 C   0  0  0  0  0  0
  -29.5778  -23.4921   21.8125 C   0  0  0  0  0  0
  -29.8109  -15.6896   20.7961 N   0  0  0  0  0  0
  -31.4800  -12.5019   19.1608 H   0  0  0  0  0  0
  -30.3659  -11.3873   19.9003 H   0  0  0  0  0  0
  -29.7690  -11.7497   17.4868 H   0  0  0  0  0  0
  -29.6586  -13.4699   17.7503 H   0  0  0  0  0  0
  -27.8603  -11.2952   18.8641 H   0  0  0  0  0  0
  -27.3782  -12.5877   17.7981 H   0  0  0  0  0  0
  -27.6725  -14.2525   19.5341 H   0  0  0  0  0  0
  -28.7117  -12.0486   21.3892 H   0  0  0  0  0  0
  -28.4540  -13.7069   21.8533 H   0  0  0  0  0  0
  -25.2781   -9.5670   22.4730 H   0  0  0  0  0  0
  -24.0023   -7.4623   22.7443 H   0  0  0  0  0  0
  -21.0857   -8.8749   19.8937 H   0  0  0  0  0  0
  -22.3690  -10.9660   19.6172 H   0  0  0  0  0  0
  -21.1991   -7.6147   23.9715 H   0  0  0  0  0  0
  -21.1489   -6.0521   25.9071 H   0  0  0  0  0  0
  -22.0602   -2.7618   23.2834 H   0  0  0  0  0  0
  -22.4145  -11.9878   22.4827 H   0  0  0  0  0  0
  -21.1111  -13.1201   22.2633 H   0  0  0  0  0  0
  -24.6549  -15.8403   20.5200 H   0  0  0  0  0  0
  -26.2636  -15.6231   20.0514 H   0  0  0  0  0  0
  -26.7195  -32.5431   23.1108 H   0  0  0  0  0  0
  -25.0038  -33.9744   25.0378 H   0  0  0  0  0  0
  -22.7193  -31.3129   21.4098 H   0  0  0  0  0  0
  -23.3834  -35.9519   23.3091 H   0  0  0  0  0  0
  -24.3626  -36.9122   22.2089 H   0  0  0  0  0  0
  -23.7093  -37.6365   23.6785 H   0  0  0  0  0  0
  -26.1112  -31.5505   20.6258 H   0  0  0  0  0  0
  -26.8462  -30.8191   22.0212 H   0  0  0  0  0  0
  -28.1114  -28.9513   21.1993 H   0  0  0  0  0  0
  -25.9178  -25.9551   18.9782 H   0  0  0  0  0  0
  -23.9573  -27.3326   19.0069 H   0  0  0  0  0  0
  -23.7592  -30.6163   19.4137 H   0  0  0  0  0  0
  -22.7556  -29.2682   19.8558 H   0  0  0  0  0  0
  -25.1254  -36.1888   25.0823 H   0  0  0  0  0  0
  -20.9988  -28.3283   24.1403 H   0  0  0  0  0  0
  -20.5681  -26.2315   23.3629 H   0  0  0  0  0  0
  -21.6652  -26.7460   22.1208 H   0  0  0  0  0  0
  -19.6920  -25.6292   21.1276 H   0  0  0  0  0  0
  -19.6713  -27.3197   20.6752 H   0  0  0  0  0  0
  -17.4205  -26.6732   21.4007 H   0  0  0  0  0  0
  -18.0304  -26.0078   22.9002 H   0  0  0  0  0  0
  -19.7928  -30.7274   24.2318 H   0  0  0  0  0  0
  -17.5010  -31.6303   24.5138 H   0  0  0  0  0  0
  -15.5351  -30.3001   23.7675 H   0  0  0  0  0  0
  -15.8670  -28.0834   22.7097 H   0  0  0  0  0  0
  -24.5867  -30.7188   25.7798 H   0  0  0  0  0  0
  -24.9003  -32.2981   26.4934 H   0  0  0  0  0  0
  -25.8049  -30.8907   27.0240 H   0  0  0  0  0  0
  -26.2937  -29.6754   24.1284 H   0  0  0  0  0  0
  -27.3981  -29.7285   25.4804 H   0  0  0  0  0  0
  -27.8832  -30.4251   23.9537 H   0  0  0  0  0  0
  -27.2661  -33.3620   26.2135 H   0  0  0  0  0  0
  -28.3834  -32.6983   25.0316 H   0  0  0  0  0  0
  -28.0793  -31.8472   26.5378 H   0  0  0  0  0  0
  -28.2419  -38.0236   24.7797 H   0  0  0  0  0  0
  -28.1335  -36.2818   24.5766 H   0  0  0  0  0  0
  -27.2434  -37.0794   25.8801 H   0  0  0  0  0  0
  -20.9338  -29.8759   21.6875 H   0  0  0  0  0  0
  -26.0111  -38.2831   24.1733 H   0  0  0  0  0  0
  -29.2380  -19.4250   18.2777 H   0  0  0  0  0  0
  -29.6179  -20.8185   22.3009 H   0  0  0  0  0  0
  -27.9284  -17.8368   19.2756 H   0  0  0  0  0  0
  -27.6397  -17.0795   20.9124 H   0  0  0  0  0  0
  -27.0468  -24.1216   19.1095 H   0  0  0  0  0  0
  -27.5457  -24.5174   17.3913 H   0  0  0  0  0  0
  -29.4041  -18.4230   21.9761 H   0  0  0  0  0  0
  -29.9985  -24.1311   18.0171 H   0  0  0  0  0  0
  -30.3244  -17.1534   19.2641 H   0  0  0  0  0  0
  -29.0175  -26.3277   18.1898 H   0  0  0  0  0  0
  -29.0902  -20.8076   16.5032 H   0  0  0  0  0  0
  -29.8720  -22.3661   16.6196 H   0  0  0  0  0  0
  -28.1113  -22.2323   16.7922 H   0  0  0  0  0  0
  -29.6795  -23.1016   22.8256 H   0  0  0  0  0  0
  -28.7066  -24.1472   21.7852 H   0  0  0  0  0  0
  -30.4639  -24.0897   21.5958 H   0  0  0  0  0  0
  -28.9414  -15.4032   21.2207 H   0  0  0  0  0  0
  1 25  1  0  0  0
  1 30  2  0  0  0
  1 85  1  0  0  0
  2  3  1  0  0  0
  2 25  1  0  0  0
  2 86  1  0  0  0
  2 87  1  0  0  0
  3  4  1  0  0  0
  3 88  1  0  0  0
  3 89  1  0  0  0
  4  5  1  0  0  0
  4 90  1  0  0  0
  4 91  1  0  0  0
  5  6  1  0  0  0
  5 26  1  0  0  0
  5 92  1  0  0  0
  6 25  1  0  0  0
  6 93  1  0  0  0
  6 94  1  0  0  0
  7  8  2  0  0  0
  7 26  1  0  0  0
  7 29  1  0  0  0
  8  9  1  0  0  0
  8 22  1  0  0  0
  9 10  1  0  0  0
  9 27  2  0  0  0
 10 11  2  0  0  0
 10 15  1  0  0  0
 11 12  1  0  0  0
 11 95  1  0  0  0
 12 13  2  0  0  0
 12 96  1  0  0  0
 13 14  1  0  0  0
 13 31  1  0  0  0
 14 15  2  0  0  0
 14 97  1  0  0  0
 15 98  1  0  0  0
 16 17  2  0  0  0
 16 21  1  0  0  0
 16 31  1  0  0  0
 17 18  1  0  0  0
 17 99  1  0  0  0
 18 19  2  0  0  0
 18100  1  0  0  0
 19 20  1  0  0  0
 19 24  1  0  0  0
 20 21  2  0  0  0
 20101  1  0  0  0
 21 23  1  0  0  0
 22 28  1  0  0  0
 22 32  2  0  0  0
 26 27  1  0  0  0
 28102  1  0  0  0
 28103  1  0  0  0
 29104  1  0  0  0
 29105  1  0  0  0
 33 34  1  0  0  0
 33 66  1  0  0  0
 33 70  2  0  0  0
 34 36  1  0  0  0
 34 59  1  0  0  0
 34106  1  0  0  0
 35 44  2  0  0  0
 35 45  1  0  0  0
 35 68  1  0  0  0
 36 56  1  0  0  0
 36107  1  0  0  0
 37 39  1  0  0  0
 37 47  1  0  0  0
 37 66  1  0  0  0
 37108  1  0  0  0
 38 43  2  0  0  0
 38 46  1  0  0  0
 38 47  1  0  0  0
 39 64  1  0  0  0
 39 67  2  0  0  0
 40 52  1  0  0  0
 40 53  2  0  0  0
 40 58  1  0  0  0
 41109  1  0  0  0
 41110  1  0  0  0
 41111  1  0  0  0
 41 48  1  0  0  0
 42 43  1  0  0  0
 42 66  1  0  0  0
 42112  1  0  0  0
 42113  1  0  0  0
 43 44  1  0  0  0
 44114  1  0  0  0
 45 46  2  0  0  0
 45115  1  0  0  0
 46116  1  0  0  0
 47117  1  0  0  0
 47118  1  0  0  0
 48 56  1  0  0  0
 48 65  1  0  0  0
 48119  1  0  0  0
 49 50  1  0  0  0
 49 53  1  0  0  0
 49 64  1  0  0  0
 49120  1  0  0  0
 50 51  1  0  0  0
 50121  1  0  0  0
 50122  1  0  0  0
 51 52  1  0  0  0
 51123  1  0  0  0
 51124  1  0  0  0
 52125  1  0  0  0
 52126  1  0  0  0
 53 54  1  0  0  0
 54 55  2  0  0  0
 54127  1  0  0  0
 55 57  1  0  0  0
 55128  1  0  0  0
 56 69  2  0  0  0
 57 58  2  0  0  0
 57129  1  0  0  0
 58130  1  0  0  0
 59 60  1  0  0  0
 59 61  1  0  0  0
 59 62  1  0  0  0
 60131  1  0  0  0
 60132  1  0  0  0
 60133  1  0  0  0
 61134  1  0  0  0
 61135  1  0  0  0
 61136  1  0  0  0
 62137  1  0  0  0
 62138  1  0  0  0
 62139  1  0  0  0
 63 65  1  0  0  0
 63140  1  0  0  0
 63141  1  0  0  0
 63142  1  0  0  0
 64143  1  0  0  0
 65144  1  0  0  0
 68 82  1  0  0  0
 71 73  2  0  0  0
 71 75  1  0  0  0
 71145  1  0  0  0
 72 73  1  0  0  0
 72 76  2  0  0  0
 72146  1  0  0  0
 73 79  1  0  0  0
 74 75  2  0  0  0
 74 76  1  0  0  0
 74 80  1  0  0  0
 75 83  1  0  0  0
 76 84  1  0  0  0
 77 79  1  0  0  0
 77 81  1  0  0  0
 77147  1  0  0  0
 77148  1  0  0  0
 78 80  1  0  0  0
 78 82  1  0  0  0
 78149  1  0  0  0
 78150  1  0  0  0
 79 81  1  0  0  0
 79151  1  0  0  0
 80 82  1  0  0  0
 80152  1  0  0  0
 81 85  1  0  0  0
 81153  1  0  0  0
 82154  1  0  0  0
 83155  1  0  0  0
 83156  1  0  0  0
 83157  1  0  0  0
 84158  1  0  0  0
 84159  1  0  0  0
 84160  1  0  0  0
 85161  1  0  0  0
M  ISO  4   1 100  68 101  82 101  85 100
M  END
> <chiral flag>
0

> <version>
0

> <s_m_source_file>
/data/baiqing/PycharmProjects/Reinvent-master-3.2/result/LINK_invent/BTK/process_docking_weight1_custom_sum_contain_oxygen_bond_distance_aromatic_linkinvent_7_9_3/rearranged_h_0164.sdf

> <i_m_source_file_index>
37

> <r_mmod_Potential_Energy-OPLS-2005>
230.370391845703

> <r_mmod_Stretch_Energy-OPLS-2005>
90.676643371582

> <r_mmod_Bend_Energy-OPLS-2005>
250.159286499023

> <r_mmod_Torsional_Energy-OPLS-2005>
285.806365966797

> <r_mmod_Improper_Torsional_Energy-OPLS-2005>
8.09810447692871

> <r_mmod_Van_der_Waal_Energy-OPLS-2005>
143.080276489258

> <r_mmod_Electrostatic_Energy-OPLS-2005>
-385.629425048828

> <r_mmod_Solvation_Energy-OPLS-2005>
-213.053802490234

> <b_mmod_Minimization_Converged-OPLS-2005>
0

> <r_mmod_RMS_Derivative-OPLS-2005>
2.37678790092468

$$$$
37
                    3D
 Structure written by MMmdl.
166175  0  0  1  0            999 V2000
  -30.6522  -14.7282   20.4540 C   0  0  0  0  0  0
  -30.4172  -12.4462   19.4716 C   0  0  0  0  0  0
  -29.5013  -12.5013   18.2316 C   0  0  0  0  0  0
  -28.0304  -12.3272   18.6510 C   0  0  0  0  0  0
  -27.6368  -13.2367   19.8462 C   0  0  2  0  0  0
  -28.6825  -13.1973   20.9808 C   0  0  0  0  0  0
  -25.2503  -13.8217   20.5712 C   0  0  0  0  0  0
  -24.1790  -13.0452   20.9209 C   0  0  0  0  0  0
  -24.6390  -11.6931   20.8751 C   0  0  0  0  0  0
  -23.9078  -10.4299   21.0415 C   0  0  0  0  0  0
  -24.3627   -9.4208   21.9189 C   0  0  0  0  0  0
  -23.6302   -8.2244   22.0753 C   0  0  0  0  0  0
  -22.4284   -8.0285   21.3545 C   0  0  0  0  0  0
  -21.9925   -9.0261   20.4647 C   0  0  0  0  0  0
  -22.7253  -10.2140   20.3061 C   0  0  0  0  0  0
  -21.6852   -6.0739   22.5279 C   0  0  0  0  0  0
  -21.4010   -6.5640   23.8213 C   0  0  0  0  0  0
  -21.3662   -5.6793   24.9176 C   0  0  0  0  0  0
  -21.6047   -4.3057   24.7226 C   0  0  0  0  0  0
  -21.8816   -3.8148   23.4348 C   0  0  0  0  0  0
  -21.9191   -4.6966   22.3403 C   0  0  0  0  0  0
  -22.7811  -13.5225   21.1875 C   0  0  0  0  0  0
  -22.1656   -4.2150   21.0982 F   0  0  0  0  0  0
  -21.5636   -3.4541   25.7741 F   0  0  0  0  0  0
  -29.9810  -13.5273   20.3860 N   0  0  0  0  0  0
  -26.2920  -12.9426   20.3298 N   0  0  0  0  0  0
  -25.9322  -11.6564   20.5770 N   0  0  0  0  0  0
  -22.0467  -12.8200   22.0427 N   0  0  0  0  0  0
  -25.4245  -15.1936   20.4154 N   0  0  0  0  0  0
  -31.8537  -14.7609   20.1682 O   0  0  0  0  0  0
  -21.6642   -6.8884   21.4244 O   0  0  0  0  0  0
  -22.3496  -14.5539   20.6742 O   0  0  0  0  0  0
  -24.6309  -31.8555   23.1994 C   0  0  0  0  0  0
  -25.9134  -32.4754   23.8344 C   0  0  1  0  0  0
  -27.2190  -27.2767   20.1251 C   0  0  0  0  0  0
  -25.5943  -33.8554   24.2272 N   0  0  0  0  0  0
  -23.4279  -30.4771   21.5426 C   0  0  2  0  0  0
  -24.8773  -28.9271   20.1108 C   0  0  0  0  0  0
  -22.7500  -29.4596   22.4921 C   0  0  0  0  0  0
  -18.0286  -28.1389   22.8483 C   0  0  0  0  0  0
  -24.1486  -36.7269   23.2633 C   0  0  0  0  0  0
  -25.9733  -30.7729   21.3789 C   0  0  0  0  0  0
  -26.0495  -29.3970   20.7195 C   0  0  0  0  0  0
  -27.2283  -28.5838   20.7162 C   0  0  0  0  0  0
  -26.0298  -26.8715   19.4868 C   0  0  0  0  0  0
  -24.8711  -27.6710   19.4840 C   0  0  0  0  0  0
  -23.6458  -29.8101   20.1596 C   0  0  0  0  0  0
  -25.4109  -36.3060   24.0328 C   0  0  1  0  0  0
  -20.5892  -28.3697   23.1268 C   0  0  2  0  0  0
  -20.6772  -26.9414   22.5410 C   0  0  0  0  0  0
  -19.5752  -26.6379   21.5211 C   0  0  0  0  0  0
  -18.1925  -26.7932   22.1612 C   0  0  0  0  0  0
  -19.1544  -28.8859   23.2866 C   0  0  0  0  0  0
  -18.9463  -30.1459   23.8887 C   0  0  0  0  0  0
  -17.6464  -30.6588   24.0558 C   0  0  0  0  0  0
  -25.9059  -34.9436   23.5101 C   0  0  0  0  0  0
  -16.5352  -29.9083   23.6341 C   0  0  0  0  0  0
  -16.7273  -28.6500   23.0363 C   0  0  0  0  0  0
  -26.4505  -31.6577   25.0731 C   0  0  0  0  0  0
  -25.3726  -31.3732   26.1451 C   0  0  0  0  0  0
  -27.0349  -30.2985   24.6226 C   0  0  0  0  0  0
  -27.6072  -32.4306   25.7495 C   0  0  0  0  0  0
  -27.5592  -37.1766   24.8443 C   0  0  0  0  0  0
  -21.4209  -29.3043   22.3661 N   0  0  0  0  0  0
  -26.4272  -37.3775   23.9435 N   0  0  0  0  0  0
  -24.6961  -31.0527   22.0965 N   0  0  0  0  0  0
  -23.4196  -28.8140   23.3021 O   0  0  0  0  0  0
  -28.2787  -26.3474   20.1480 O   0  0  0  0  0  0
  -26.5626  -34.8909   22.4670 O   0  0  0  0  0  0
  -23.5461  -32.1374   23.7291 O   0  0  0  0  0  0
  -27.7178  -22.5569   21.2168 C   0  0  0  0  0  0
  -29.1712  -20.6830   20.4100 C   0  0  0  0  0  0
  -28.0480  -21.1656   21.1518 C   0  0  0  0  0  0
  -28.4467  -23.6017   20.5855 C   0  0  0  0  0  0
  -29.8727  -21.7240   19.6908 C   0  0  0  0  0  0
  -29.5548  -23.1408   19.8103 C   0  0  0  0  0  0
  -29.7747  -18.3309   21.7291 C   0  0  0  0  0  0
  -28.9324  -18.1126   19.4709 C   0  0  0  0  0  0
  -30.4896  -16.9212   21.5995 C   0  0  0  0  0  0
  -29.6391  -16.6938   19.3538 C   0  0  0  0  0  0
  -29.6582  -19.1328   20.3964 C   0  0  0  0  0  0
  -27.1512  -20.2216   21.9324 C   0  0  0  0  0  0
  -31.0110  -21.3094   18.7603 C   0  0  0  0  0  0
  -30.4257  -24.1868   19.1230 C   0  0  0  0  0  0
  -28.0177  -25.1083   20.9456 C   0  0  0  0  0  0
  -29.9557  -15.9334   20.6067 N   0  0  0  0  0  0
  -31.4612  -12.5454   19.1704 H   0  0  0  0  0  0
  -30.3402  -11.4760   19.9647 H   0  0  0  0  0  0
  -29.7806  -11.7250   17.5178 H   0  0  0  0  0  0
  -29.6300  -13.4545   17.7160 H   0  0  0  0  0  0
  -27.8925  -11.2810   18.9257 H   0  0  0  0  0  0
  -27.3689  -12.5072   17.8027 H   0  0  0  0  0  0
  -27.6233  -14.2540   19.4554 H   0  0  0  0  0  0
  -28.7133  -12.2140   21.4528 H   0  0  0  0  0  0
  -28.4239  -13.9122   21.7641 H   0  0  0  0  0  0
  -25.2771   -9.5681   22.4767 H   0  0  0  0  0  0
  -24.0011   -7.4633   22.7469 H   0  0  0  0  0  0
  -21.0858   -8.8783   19.8950 H   0  0  0  0  0  0
  -22.3715  -10.9684   19.6173 H   0  0  0  0  0  0
  -21.1992   -7.6146   23.9718 H   0  0  0  0  0  0
  -21.1489   -6.0523   25.9082 H   0  0  0  0  0  0
  -22.0590   -2.7611   23.2850 H   0  0  0  0  0  0
  -22.4092  -11.9854   22.4790 H   0  0  0  0  0  0
  -21.1093  -13.1223   22.2655 H   0  0  0  0  0  0
  -24.6699  -15.8592   20.5388 H   0  0  0  0  0  0
  -26.2949  -15.6286   20.1358 H   0  0  0  0  0  0
  -26.7204  -32.5410   23.1093 H   0  0  0  0  0  0
  -25.0111  -33.9697   25.0434 H   0  0  0  0  0  0
  -22.7234  -31.2985   21.3951 H   0  0  0  0  0  0
  -23.3782  -35.9562   23.3212 H   0  0  0  0  0  0
  -24.3601  -36.8981   22.2067 H   0  0  0  0  0  0
  -23.7184  -37.6421   23.6713 H   0  0  0  0  0  0
  -26.1122  -31.5360   20.6124 H   0  0  0  0  0  0
  -26.8490  -30.8197   22.0140 H   0  0  0  0  0  0
  -28.1261  -28.9346   21.2061 H   0  0  0  0  0  0
  -25.9895  -25.9018   19.0102 H   0  0  0  0  0  0
  -23.9731  -27.3056   19.0046 H   0  0  0  0  0  0
  -23.7654  -30.5846   19.4012 H   0  0  0  0  0  0
  -22.7658  -29.2394   19.8581 H   0  0  0  0  0  0
  -25.1283  -36.1897   25.0818 H   0  0  0  0  0  0
  -20.9980  -28.3276   24.1390 H   0  0  0  0  0  0
  -20.5673  -26.2309   23.3618 H   0  0  0  0  0  0
  -21.6638  -26.7431   22.1207 H   0  0  0  0  0  0
  -19.6913  -25.6287   21.1249 H   0  0  0  0  0  0
  -19.6699  -27.3178   20.6733 H   0  0  0  0  0  0
  -17.4206  -26.6697   21.3997 H   0  0  0  0  0  0
  -18.0305  -26.0063   22.8994 H   0  0  0  0  0  0
  -19.7940  -30.7274   24.2255 H   0  0  0  0  0  0
  -17.5019  -31.6275   24.5154 H   0  0  0  0  0  0
  -15.5357  -30.2983   23.7674 H   0  0  0  0  0  0
  -15.8669  -28.0814   22.7100 H   0  0  0  0  0  0
  -24.5893  -30.7095   25.7767 H   0  0  0  0  0  0
  -24.8929  -32.2908   26.4867 H   0  0  0  0  0  0
  -25.8032  -30.8904   27.0231 H   0  0  0  0  0  0
  -26.2933  -29.6724   24.1243 H   0  0  0  0  0  0
  -27.4009  -29.7256   25.4757 H   0  0  0  0  0  0
  -27.8825  -30.4242   23.9483 H   0  0  0  0  0  0
  -27.2708  -33.3630   26.2037 H   0  0  0  0  0  0
  -28.3902  -32.6818   25.0329 H   0  0  0  0  0  0
  -28.0713  -31.8442   26.5438 H   0  0  0  0  0  0
  -28.2524  -38.0145   24.7618 H   0  0  0  0  0  0
  -28.1177  -36.2688   24.6106 H   0  0  0  0  0  0
  -27.2337  -37.1211   25.8844 H   0  0  0  0  0  0
  -20.9397  -29.8776   21.6874 H   0  0  0  0  0  0
  -26.0144  -38.2828   24.1516 H   0  0  0  0  0  0
  -26.8723  -22.8458   21.8261 H   0  0  0  0  0  0
  -30.3258  -18.9341   22.4516 H   0  0  0  0  0  0
  -28.7932  -18.1626   22.1658 H   0  0  0  0  0  0
  -27.9053  -17.9720   19.8077 H   0  0  0  0  0  0
  -28.8562  -18.5401   18.4707 H   0  0  0  0  0  0
  -30.4838  -16.4439   22.5806 H   0  0  0  0  0  0
  -31.5421  -17.1013   21.3717 H   0  0  0  0  0  0
  -30.5747  -16.8339   18.8078 H   0  0  0  0  0  0
  -29.0284  -16.0550   18.7140 H   0  0  0  0  0  0
  -30.6903  -19.1609   20.0540 H   0  0  0  0  0  0
  -26.1833  -20.6786   22.1398 H   0  0  0  0  0  0
  -27.6076  -19.9743   22.8908 H   0  0  0  0  0  0
  -26.9515  -19.3040   21.3823 H   0  0  0  0  0  0
  -30.7896  -20.3695   18.2560 H   0  0  0  0  0  0
  -31.9396  -21.1952   19.3204 H   0  0  0  0  0  0
  -31.1800  -22.0189   17.9521 H   0  0  0  0  0  0
  -30.3985  -25.1419   19.6439 H   0  0  0  0  0  0
  -30.0904  -24.3491   18.0983 H   0  0  0  0  0  0
  -31.4760  -23.8983   19.1037 H   0  0  0  0  0  0
  -28.4811  -25.3035   21.9131 H   0  0  0  0  0  0
  -26.9518  -25.0611   21.1726 H   0  0  0  0  0  0
  1 25  1  0  0  0
  1 30  2  0  0  0
  1 86  1  0  0  0
  2  3  1  0  0  0
  2 25  1  0  0  0
  2 87  1  0  0  0
  2 88  1  0  0  0
  3  4  1  0  0  0
  3 89  1  0  0  0
  3 90  1  0  0  0
  4  5  1  0  0  0
  4 91  1  0  0  0
  4 92  1  0  0  0
  5  6  1  0  0  0
  5 26  1  0  0  0
  5 93  1  0  0  0
  6 25  1  0  0  0
  6 94  1  0  0  0
  6 95  1  0  0  0
  7  8  2  0  0  0
  7 26  1  0  0  0
  7 29  1  0  0  0
  8  9  1  0  0  0
  8 22  1  0  0  0
  9 10  1  0  0  0
  9 27  2  0  0  0
 10 11  2  0  0  0
 10 15  1  0  0  0
 11 12  1  0  0  0
 11 96  1  0  0  0
 12 13  2  0  0  0
 12 97  1  0  0  0
 13 14  1  0  0  0
 13 31  1  0  0  0
 14 15  2  0  0  0
 14 98  1  0  0  0
 15 99  1  0  0  0
 16 17  2  0  0  0
 16 21  1  0  0  0
 16 31  1  0  0  0
 17 18  1  0  0  0
 17100  1  0  0  0
 18 19  2  0  0  0
 18101  1  0  0  0
 19 20  1  0  0  0
 19 24  1  0  0  0
 20 21  2  0  0  0
 20102  1  0  0  0
 21 23  1  0  0  0
 22 28  1  0  0  0
 22 32  2  0  0  0
 26 27  1  0  0  0
 28103  1  0  0  0
 28104  1  0  0  0
 29105  1  0  0  0
 29106  1  0  0  0
 33 34  1  0  0  0
 33 66  1  0  0  0
 33 70  2  0  0  0
 34 36  1  0  0  0
 34 59  1  0  0  0
 34107  1  0  0  0
 35 44  2  0  0  0
 35 45  1  0  0  0
 35 68  1  0  0  0
 36 56  1  0  0  0
 36108  1  0  0  0
 37 39  1  0  0  0
 37 47  1  0  0  0
 37 66  1  0  0  0
 37109  1  0  0  0
 38 43  2  0  0  0
 38 46  1  0  0  0
 38 47  1  0  0  0
 39 64  1  0  0  0
 39 67  2  0  0  0
 40 52  1  0  0  0
 40 53  2  0  0  0
 40 58  1  0  0  0
 41110  1  0  0  0
 41111  1  0  0  0
 41112  1  0  0  0
 41 48  1  0  0  0
 42 43  1  0  0  0
 42 66  1  0  0  0
 42113  1  0  0  0
 42114  1  0  0  0
 43 44  1  0  0  0
 44115  1  0  0  0
 45 46  2  0  0  0
 45116  1  0  0  0
 46117  1  0  0  0
 47118  1  0  0  0
 47119  1  0  0  0
 48 56  1  0  0  0
 48 65  1  0  0  0
 48120  1  0  0  0
 49 50  1  0  0  0
 49 53  1  0  0  0
 49 64  1  0  0  0
 49121  1  0  0  0
 50 51  1  0  0  0
 50122  1  0  0  0
 50123  1  0  0  0
 51 52  1  0  0  0
 51124  1  0  0  0
 51125  1  0  0  0
 52126  1  0  0  0
 52127  1  0  0  0
 53 54  1  0  0  0
 54 55  2  0  0  0
 54128  1  0  0  0
 55 57  1  0  0  0
 55129  1  0  0  0
 56 69  2  0  0  0
 57 58  2  0  0  0
 57130  1  0  0  0
 58131  1  0  0  0
 59 60  1  0  0  0
 59 61  1  0  0  0
 59 62  1  0  0  0
 60132  1  0  0  0
 60133  1  0  0  0
 60134  1  0  0  0
 61135  1  0  0  0
 61136  1  0  0  0
 61137  1  0  0  0
 62138  1  0  0  0
 62139  1  0  0  0
 62140  1  0  0  0
 63 65  1  0  0  0
 63141  1  0  0  0
 63142  1  0  0  0
 63143  1  0  0  0
 64144  1  0  0  0
 65145  1  0  0  0
 68 85  1  0  0  0
 71 73  2  0  0  0
 71 74  1  0  0  0
 71146  1  0  0  0
 72 73  1  0  0  0
 72 75  2  0  0  0
 72 81  1  0  0  0
 73 82  1  0  0  0
 74 76  2  0  0  0
 74 85  1  0  0  0
 75 76  1  0  0  0
 75 83  1  0  0  0
 76 84  1  0  0  0
 77 79  1  0  0  0
 77 81  1  0  0  0
 77147  1  0  0  0
 77148  1  0  0  0
 78 80  1  0  0  0
 78 81  1  0  0  0
 78149  1  0  0  0
 78150  1  0  0  0
 79 86  1  0  0  0
 79151  1  0  0  0
 79152  1  0  0  0
 80 86  1  0  0  0
 80153  1  0  0  0
 80154  1  0  0  0
 81155  1  0  0  0
 82156  1  0  0  0
 82157  1  0  0  0
 82158  1  0  0  0
 83159  1  0  0  0
 83160  1  0  0  0
 83161  1  0  0  0
 84162  1  0  0  0
 84163  1  0  0  0
 84164  1  0  0  0
 85165  1  0  0  0
 85166  1  0  0  0
M  ISO  4   1 100  68 101  85 101  86 100
M  END
> <chiral flag>
0

> <version>
0

> <s_m_source_file>
/data/baiqing/PycharmProjects/Reinvent-master-3.2/result/LINK_invent/BTK/process_docking_weight1_custom_sum_contain_oxygen_bond_distance_aromatic_linkinvent_7_9_3/rearranged_h_0164.sdf

> <i_m_source_file_index>
38

> <r_mmod_Potential_Energy-OPLS-2005>
446.351623535156

> <r_mmod_Stretch_Energy-OPLS-2005>
124.27417755127

> <r_mmod_Bend_Energy-OPLS-2005>
205.510818481445

> <r_mmod_Torsional_Energy-OPLS-2005>
358.532348632812

> <r_mmod_Improper_Torsional_Energy-OPLS-2005>
10.4083204269409

> <r_mmod_Van_der_Waal_Energy-OPLS-2005>
151.095321655273

> <r_mmod_Electrostatic_Energy-OPLS-2005>
-299.850402832031

> <r_mmod_Solvation_Energy-OPLS-2005>
-187.347534179688

> <b_mmod_Minimization_Converged-OPLS-2005>
0

> <r_mmod_RMS_Derivative-OPLS-2005>
1.20266628265381

$$$$
38
                    3D
 Structure written by MMmdl.
171181  0  0  1  0            999 V2000
  -30.6735  -14.5921   20.4798 C   0  0  0  0  0  0
  -30.4197  -12.3603   19.4466 C   0  0  0  0  0  0
  -29.4980  -12.4872   18.2162 C   0  0  0  0  0  0
  -28.0204  -12.3436   18.6307 C   0  0  0  0  0  0
  -27.6476  -13.2213   19.8564 C   0  0  2  0  0  0
  -28.6943  -13.1028   20.9856 C   0  0  0  0  0  0
  -25.2543  -13.8175   20.5701 C   0  0  0  0  0  0
  -24.1817  -13.0435   20.9194 C   0  0  0  0  0  0
  -24.6393  -11.6907   20.8742 C   0  0  0  0  0  0
  -23.9063  -10.4287   21.0403 C   0  0  0  0  0  0
  -24.3619   -9.4202   21.9181 C   0  0  0  0  0  0
  -23.6299   -8.2235   22.0747 C   0  0  0  0  0  0
  -22.4280   -8.0273   21.3538 C   0  0  0  0  0  0
  -21.9910   -9.0247   20.4644 C   0  0  0  0  0  0
  -22.7235  -10.2130   20.3052 C   0  0  0  0  0  0
  -21.6851   -6.0733   22.5280 C   0  0  0  0  0  0
  -21.4010   -6.5639   23.8213 C   0  0  0  0  0  0
  -21.3662   -5.6791   24.9174 C   0  0  0  0  0  0
  -21.6049   -4.3053   24.7225 C   0  0  0  0  0  0
  -21.8820   -3.8144   23.4346 C   0  0  0  0  0  0
  -21.9192   -4.6962   22.3403 C   0  0  0  0  0  0
  -22.7841  -13.5229   21.1857 C   0  0  0  0  0  0
  -22.1662   -4.2147   21.0982 F   0  0  0  0  0  0
  -21.5634   -3.4537   25.7738 F   0  0  0  0  0  0
  -30.0076  -13.4017   20.4041 N   0  0  0  0  0  0
  -26.2968  -12.9369   20.3321 N   0  0  0  0  0  0
  -25.9325  -11.6520   20.5768 N   0  0  0  0  0  0
  -22.0485  -12.8224   22.0420 N   0  0  0  0  0  0
  -25.4266  -15.1889   20.4139 N   0  0  0  0  0  0
  -31.8668  -14.6805   20.1732 O   0  0  0  0  0  0
  -21.6640   -6.8874   21.4240 O   0  0  0  0  0  0
  -22.3527  -14.5533   20.6702 O   0  0  0  0  0  0
  -24.6212  -31.8627   23.2053 C   0  0  0  0  0  0
  -25.9076  -32.4798   23.8369 C   0  0  1  0  0  0
  -27.2255  -27.3678   20.1111 C   0  0  0  0  0  0
  -25.5905  -33.8599   24.2299 N   0  0  0  0  0  0
  -23.4140  -30.4848   21.5470 C   0  0  2  0  0  0
  -24.8629  -28.9447   20.1106 C   0  0  0  0  0  0
  -22.7454  -29.4628   22.4961 C   0  0  0  0  0  0
  -18.0280  -28.1380   22.8488 C   0  0  0  0  0  0
  -24.1489  -36.7305   23.2639 C   0  0  0  0  0  0
  -25.9499  -30.8083   21.3690 C   0  0  0  0  0  0
  -26.0285  -29.4389   20.7122 C   0  0  0  0  0  0
  -27.2182  -28.6597   20.7058 C   0  0  0  0  0  0
  -26.0461  -26.9084   19.4923 C   0  0  0  0  0  0
  -24.8704  -27.6823   19.4928 C   0  0  0  0  0  0
  -23.6270  -29.8179   20.1620 C   0  0  0  0  0  0
  -25.4114  -36.3100   24.0332 C   0  0  1  0  0  0
  -20.5876  -28.3675   23.1302 C   0  0  2  0  0  0
  -20.6770  -26.9402   22.5424 C   0  0  0  0  0  0
  -19.5752  -26.6382   21.5218 C   0  0  0  0  0  0
  -18.1926  -26.7929   22.1615 C   0  0  0  0  0  0
  -19.1530  -28.8845   23.2890 C   0  0  0  0  0  0
  -18.9454  -30.1449   23.8904 C   0  0  0  0  0  0
  -17.6454  -30.6583   24.0563 C   0  0  0  0  0  0
  -25.9044  -34.9465   23.5116 C   0  0  0  0  0  0
  -16.5346  -29.9084   23.6326 C   0  0  0  0  0  0
  -16.7267  -28.6499   23.0348 C   0  0  0  0  0  0
  -26.4483  -31.6597   25.0721 C   0  0  0  0  0  0
  -25.3735  -31.3723   26.1461 C   0  0  0  0  0  0
  -27.0312  -30.3024   24.6142 C   0  0  0  0  0  0
  -27.6060  -32.4324   25.7474 C   0  0  0  0  0  0
  -27.5588  -37.1803   24.8461 C   0  0  0  0  0  0
  -21.4171  -29.3030   22.3699 N   0  0  0  0  0  0
  -26.4299  -37.3790   23.9408 N   0  0  0  0  0  0
  -24.6803  -31.0674   22.0983 N   0  0  0  0  0  0
  -23.4193  -28.8175   23.3031 O   0  0  0  0  0  0
  -28.3190  -26.5107   20.1408 O   0  0  0  0  0  0
  -26.5615  -34.8926   22.4684 O   0  0  0  0  0  0
  -23.5386  -32.1406   23.7404 O   0  0  0  0  0  0
  -28.2397  -21.5037   21.3506 C   0  0  0  0  0  0
  -29.4281  -23.4837   19.7331 C   0  0  0  0  0  0
  -29.7685  -22.0916   19.5835 C   0  0  0  0  0  0
  -27.9172  -22.8749   21.5344 C   0  0  0  0  0  0
  -28.4966  -23.9074   20.7309 C   0  0  0  0  0  0
  -29.1684  -21.0730   20.3772 C   0  0  0  0  0  0
  -30.0978  -24.5407   18.8515 C   0  0  0  0  0  0
  -30.8032  -21.6485   18.5521 C   0  0  0  0  0  0
  -30.9440  -23.9959   17.6932 C   0  0  0  0  0  0
  -31.7465  -22.7674   18.1084 C   0  0  0  0  0  0
  -28.5255  -17.5575   19.5217 C   0  0  0  0  0  0
  -29.3010  -17.8662   21.8878 C   0  0  0  0  0  0
  -29.6383  -16.4806   19.3738 C   0  0  0  0  0  0
  -30.3593  -16.7500   21.6103 C   0  0  0  0  0  0
  -28.7478  -18.6070   20.6395 C   0  0  0  0  0  0
  -26.9428  -23.2046   22.6570 C   0  0  0  0  0  0
  -28.1864  -25.4123   21.0977 C   0  0  0  0  0  0
  -29.9233  -15.7356   20.6222 N   0  0  0  0  0  0
  -29.5521  -19.7319   20.1830 O   0  0  0  0  0  0
  -31.4646  -12.4557   19.1459 H   0  0  0  0  0  0
  -30.3278  -11.3724   19.9005 H   0  0  0  0  0  0
  -29.7532  -11.7276   17.4760 H   0  0  0  0  0  0
  -29.6550  -13.4516   17.7305 H   0  0  0  0  0  0
  -27.8481  -11.2923   18.8641 H   0  0  0  0  0  0
  -27.3674  -12.5767   17.7889 H   0  0  0  0  0  0
  -27.6561  -14.2531   19.5070 H   0  0  0  0  0  0
  -28.6932  -12.1003   21.4158 H   0  0  0  0  0  0
  -28.4601  -13.7901   21.8007 H   0  0  0  0  0  0
  -25.2763   -9.5686   22.4759 H   0  0  0  0  0  0
  -24.0012   -7.4623   22.7463 H   0  0  0  0  0  0
  -21.0835   -8.8763   19.8954 H   0  0  0  0  0  0
  -22.3684  -10.9671   19.6164 H   0  0  0  0  0  0
  -21.1994   -7.6145   23.9718 H   0  0  0  0  0  0
  -21.1490   -6.0518   25.9081 H   0  0  0  0  0  0
  -22.0599   -2.7603   23.2844 H   0  0  0  0  0  0
  -22.4093  -11.9889   22.4821 H   0  0  0  0  0  0
  -21.1102  -13.1247   22.2616 H   0  0  0  0  0  0
  -24.6670  -15.8506   20.5318 H   0  0  0  0  0  0
  -26.2936  -15.6226   20.1266 H   0  0  0  0  0  0
  -26.7144  -32.5491   23.1124 H   0  0  0  0  0  0
  -25.0049  -33.9754   25.0439 H   0  0  0  0  0  0
  -22.7054  -31.3033   21.4050 H   0  0  0  0  0  0
  -23.3753  -35.9635   23.3304 H   0  0  0  0  0  0
  -24.3580  -36.8923   22.2052 H   0  0  0  0  0  0
  -23.7237  -37.6508   23.6656 H   0  0  0  0  0  0
  -26.0731  -31.5739   20.6017 H   0  0  0  0  0  0
  -26.8329  -30.8589   21.9944 H   0  0  0  0  0  0
  -28.1149  -29.0303   21.1827 H   0  0  0  0  0  0
  -26.0333  -25.9319   19.0278 H   0  0  0  0  0  0
  -23.9758  -27.2967   19.0233 H   0  0  0  0  0  0
  -23.7383  -30.5934   19.4033 H   0  0  0  0  0  0
  -22.7493  -29.2411   19.8644 H   0  0  0  0  0  0
  -25.1294  -36.1961   25.0827 H   0  0  0  0  0  0
  -20.9963  -28.3247   24.1424 H   0  0  0  0  0  0
  -20.5663  -26.2285   23.3620 H   0  0  0  0  0  0
  -21.6642  -26.7437   22.1221 H   0  0  0  0  0  0
  -19.6913  -25.6293   21.1246 H   0  0  0  0  0  0
  -19.6701  -27.3194   20.6750 H   0  0  0  0  0  0
  -17.4207  -26.6689   21.4005 H   0  0  0  0  0  0
  -18.0309  -26.0064   22.9000 H   0  0  0  0  0  0
  -19.7931  -30.7262   24.2278 H   0  0  0  0  0  0
  -17.5008  -31.6264   24.5162 H   0  0  0  0  0  0
  -15.5346  -30.2985   23.7649 H   0  0  0  0  0  0
  -15.8666  -28.0821   22.7060 H   0  0  0  0  0  0
  -24.5917  -30.7060   25.7799 H   0  0  0  0  0  0
  -24.8917  -32.2882   26.4890 H   0  0  0  0  0  0
  -25.8077  -30.8909   27.0230 H   0  0  0  0  0  0
  -26.2864  -29.6782   24.1189 H   0  0  0  0  0  0
  -27.4044  -29.7273   25.4627 H   0  0  0  0  0  0
  -27.8722  -30.4319   23.9324 H   0  0  0  0  0  0
  -27.2678  -33.3606   26.2090 H   0  0  0  0  0  0
  -28.3839  -32.6916   25.0279 H   0  0  0  0  0  0
  -28.0766  -31.8430   26.5353 H   0  0  0  0  0  0
  -28.2611  -38.0096   24.7511 H   0  0  0  0  0  0
  -28.1079  -36.2631   24.6278 H   0  0  0  0  0  0
  -27.2309  -37.1442   25.8864 H   0  0  0  0  0  0
  -20.9343  -29.8748   21.6910 H   0  0  0  0  0  0
  -26.0187  -38.2866   24.1416 H   0  0  0  0  0  0
  -27.7852  -20.7797   22.0104 H   0  0  0  0  0  0
  -30.7209  -25.1640   19.4939 H   0  0  0  0  0  0
  -29.3373  -25.1898   18.4190 H   0  0  0  0  0  0
  -30.2680  -21.2506   17.6892 H   0  0  0  0  0  0
  -31.4007  -20.8269   18.9492 H   0  0  0  0  0  0
  -31.5990  -24.7785   17.3076 H   0  0  0  0  0  0
  -30.2853  -23.7168   16.8697 H   0  0  0  0  0  0
  -32.3746  -22.4220   17.2861 H   0  0  0  0  0  0
  -32.4192  -23.0301   18.9261 H   0  0  0  0  0  0
  -27.5904  -17.0377   19.7291 H   0  0  0  0  0  0
  -28.3675  -18.0666   18.5704 H   0  0  0  0  0  0
  -29.6938  -18.5912   22.6013 H   0  0  0  0  0  0
  -28.4576  -17.3916   22.3915 H   0  0  0  0  0  0
  -30.5545  -16.9524   19.0124 H   0  0  0  0  0  0
  -29.3384  -15.7818   18.5907 H   0  0  0  0  0  0
  -30.5985  -16.2516   22.5514 H   0  0  0  0  0  0
  -31.2900  -17.2109   21.2724 H   0  0  0  0  0  0
  -27.7525  -18.9772   20.8811 H   0  0  0  0  0  0
  -26.6972  -22.3250   23.2531 H   0  0  0  0  0  0
  -26.0080  -23.5933   22.2516 H   0  0  0  0  0  0
  -27.3647  -23.9441   23.3382 H   0  0  0  0  0  0
  -28.8480  -25.6606   21.9278 H   0  0  0  0  0  0
  -27.1841  -25.4560   21.5233 H   0  0  0  0  0  0
  1 25  1  0  0  0
  1 30  2  0  0  0
  1 88  1  0  0  0
  2  3  1  0  0  0
  2 25  1  0  0  0
  2 90  1  0  0  0
  2 91  1  0  0  0
  3  4  1  0  0  0
  3 92  1  0  0  0
  3 93  1  0  0  0
  4  5  1  0  0  0
  4 94  1  0  0  0
  4 95  1  0  0  0
  5  6  1  0  0  0
  5 26  1  0  0  0
  5 96  1  0  0  0
  6 25  1  0  0  0
  6 97  1  0  0  0
  6 98  1  0  0  0
  7  8  2  0  0  0
  7 26  1  0  0  0
  7 29  1  0  0  0
  8  9  1  0  0  0
  8 22  1  0  0  0
  9 10  1  0  0  0
  9 27  2  0  0  0
 10 11  2  0  0  0
 10 15  1  0  0  0
 11 12  1  0  0  0
 11 99  1  0  0  0
 12 13  2  0  0  0
 12100  1  0  0  0
 13 14  1  0  0  0
 13 31  1  0  0  0
 14 15  2  0  0  0
 14101  1  0  0  0
 15102  1  0  0  0
 16 17  2  0  0  0
 16 21  1  0  0  0
 16 31  1  0  0  0
 17 18  1  0  0  0
 17103  1  0  0  0
 18 19  2  0  0  0
 18104  1  0  0  0
 19 20  1  0  0  0
 19 24  1  0  0  0
 20 21  2  0  0  0
 20105  1  0  0  0
 21 23  1  0  0  0
 22 28  1  0  0  0
 22 32  2  0  0  0
 26 27  1  0  0  0
 28106  1  0  0  0
 28107  1  0  0  0
 29108  1  0  0  0
 29109  1  0  0  0
 33 34  1  0  0  0
 33 66  1  0  0  0
 33 70  2  0  0  0
 34 36  1  0  0  0
 34 59  1  0  0  0
 34110  1  0  0  0
 35 44  2  0  0  0
 35 45  1  0  0  0
 35 68  1  0  0  0
 36 56  1  0  0  0
 36111  1  0  0  0
 37 39  1  0  0  0
 37 47  1  0  0  0
 37 66  1  0  0  0
 37112  1  0  0  0
 38 43  2  0  0  0
 38 46  1  0  0  0
 38 47  1  0  0  0
 39 64  1  0  0  0
 39 67  2  0  0  0
 40 52  1  0  0  0
 40 53  2  0  0  0
 40 58  1  0  0  0
 41113  1  0  0  0
 41114  1  0  0  0
 41115  1  0  0  0
 41 48  1  0  0  0
 42 43  1  0  0  0
 42 66  1  0  0  0
 42116  1  0  0  0
 42117  1  0  0  0
 43 44  1  0  0  0
 44118  1  0  0  0
 45 46  2  0  0  0
 45119  1  0  0  0
 46120  1  0  0  0
 47121  1  0  0  0
 47122  1  0  0  0
 48 56  1  0  0  0
 48 65  1  0  0  0
 48123  1  0  0  0
 49 50  1  0  0  0
 49 53  1  0  0  0
 49 64  1  0  0  0
 49124  1  0  0  0
 50 51  1  0  0  0
 50125  1  0  0  0
 50126  1  0  0  0
 51 52  1  0  0  0
 51127  1  0  0  0
 51128  1  0  0  0
 52129  1  0  0  0
 52130  1  0  0  0
 53 54  1  0  0  0
 54 55  2  0  0  0
 54131  1  0  0  0
 55 57  1  0  0  0
 55132  1  0  0  0
 56 69  2  0  0  0
 57 58  2  0  0  0
 57133  1  0  0  0
 58134  1  0  0  0
 59 60  1  0  0  0
 59 61  1  0  0  0
 59 62  1  0  0  0
 60135  1  0  0  0
 60136  1  0  0  0
 60137  1  0  0  0
 61138  1  0  0  0
 61139  1  0  0  0
 61140  1  0  0  0
 62141  1  0  0  0
 62142  1  0  0  0
 62143  1  0  0  0
 63 65  1  0  0  0
 63144  1  0  0  0
 63145  1  0  0  0
 63146  1  0  0  0
 64147  1  0  0  0
 65148  1  0  0  0
 68 87  1  0  0  0
 71 74  2  0  0  0
 71 76  1  0  0  0
 71149  1  0  0  0
 72 73  1  0  0  0
 72 75  2  0  0  0
 72 77  1  0  0  0
 73 76  2  0  0  0
 73 78  1  0  0  0
 74 75  1  0  0  0
 74 86  1  0  0  0
 75 87  1  0  0  0
 76 89  1  0  0  0
 77 79  1  0  0  0
 77150  1  0  0  0
 77151  1  0  0  0
 78 80  1  0  0  0
 78152  1  0  0  0
 78153  1  0  0  0
 79 80  1  0  0  0
 79154  1  0  0  0
 79155  1  0  0  0
 80156  1  0  0  0
 80157  1  0  0  0
 81 83  1  0  0  0
 81 85  1  0  0  0
 81158  1  0  0  0
 81159  1  0  0  0
 82 84  1  0  0  0
 82 85  1  0  0  0
 82160  1  0  0  0
 82161  1  0  0  0
 83 88  1  0  0  0
 83162  1  0  0  0
 83163  1  0  0  0
 84 88  1  0  0  0
 84164  1  0  0  0
 84165  1  0  0  0
 85 89  1  0  0  0
 85166  1  0  0  0
 86167  1  0  0  0
 86168  1  0  0  0
 86169  1  0  0  0
 87170  1  0  0  0
 87171  1  0  0  0
M  ISO  4   1 100  68 101  87 101  88 100
M  END
> <chiral flag>
0

> <version>
0

> <s_m_source_file>
/data/baiqing/PycharmProjects/Reinvent-master-3.2/result/LINK_invent/BTK/process_docking_weight1_custom_sum_contain_oxygen_bond_distance_aromatic_linkinvent_7_9_3/rearranged_h_0164.sdf

> <i_m_source_file_index>
39

> <r_mmod_Potential_Energy-OPLS-2005>
325.521636962891

> <r_mmod_Stretch_Energy-OPLS-2005>
69.1699142456055

> <r_mmod_Bend_Energy-OPLS-2005>
150.506912231445

> <r_mmod_Torsional_Energy-OPLS-2005>
374.064758300781

> <r_mmod_Improper_Torsional_Energy-OPLS-2005>
12.4037141799927

> <r_mmod_Van_der_Waal_Energy-OPLS-2005>
155.360977172852

> <r_mmod_Electrostatic_Energy-OPLS-2005>
-282.157745361328

> <r_mmod_Solvation_Energy-OPLS-2005>
-192.684051513672

> <b_mmod_Minimization_Converged-OPLS-2005>
0

> <r_mmod_RMS_Derivative-OPLS-2005>
0.756808400154114

$$$$
39
                    3D
 Structure written by MMmdl.
169178  0  0  1  0            999 V2000
  -30.7978  -14.3802   20.6690 C   0  0  0  0  0  0
  -30.4142  -12.2972   19.4108 C   0  0  0  0  0  0
  -29.4856  -12.5238   18.2037 C   0  0  0  0  0  0
  -28.0121  -12.3780   18.6212 C   0  0  0  0  0  0
  -27.6676  -13.2122   19.8847 C   0  0  2  0  0  0
  -28.7099  -12.9870   21.0059 C   0  0  0  0  0  0
  -25.2606  -13.8180   20.5716 C   0  0  0  0  0  0
  -24.1857  -13.0438   20.9173 C   0  0  0  0  0  0
  -24.6419  -11.6909   20.8737 C   0  0  0  0  0  0
  -23.9085  -10.4285   21.0391 C   0  0  0  0  0  0
  -24.3634   -9.4205   21.9174 C   0  0  0  0  0  0
  -23.6306   -8.2245   22.0749 C   0  0  0  0  0  0
  -22.4283   -8.0287   21.3548 C   0  0  0  0  0  0
  -21.9931   -9.0251   20.4639 C   0  0  0  0  0  0
  -22.7259  -10.2127   20.3040 C   0  0  0  0  0  0
  -21.6861   -6.0754   22.5284 C   0  0  0  0  0  0
  -21.4000   -6.5639   23.8220 C   0  0  0  0  0  0
  -21.3652   -5.6783   24.9175 C   0  0  0  0  0  0
  -21.6044   -4.3052   24.7211 C   0  0  0  0  0  0
  -21.8825   -3.8158   23.4327 C   0  0  0  0  0  0
  -21.9192   -4.6983   22.3396 C   0  0  0  0  0  0
  -22.7876  -13.5230   21.1839 C   0  0  0  0  0  0
  -22.1667   -4.2185   21.0971 F   0  0  0  0  0  0
  -21.5631   -3.4525   25.7716 F   0  0  0  0  0  0
  -30.0533  -13.2628   20.4613 N   0  0  0  0  0  0
  -26.3070  -12.9374   20.3442 N   0  0  0  0  0  0
  -25.9364  -11.6518   20.5807 N   0  0  0  0  0  0
  -22.0520  -12.8218   22.0393 N   0  0  0  0  0  0
  -25.4264  -15.1904   20.4129 N   0  0  0  0  0  0
  -31.8154  -14.6321   20.0182 O   0  0  0  0  0  0
  -21.6640   -6.8893   21.4250 O   0  0  0  0  0  0
  -22.3556  -14.5536   20.6692 O   0  0  0  0  0  0
  -24.6172  -31.8666   23.2081 C   0  0  0  0  0  0
  -25.9067  -32.4800   23.8375 C   0  0  1  0  0  0
  -27.2321  -27.4185   20.0916 C   0  0  0  0  0  0
  -25.5935  -33.8598   24.2322 N   0  0  0  0  0  0
  -23.4054  -30.4900   21.5502 C   0  0  2  0  0  0
  -24.8503  -28.9583   20.1142 C   0  0  0  0  0  0
  -22.7422  -29.4653   22.4992 C   0  0  0  0  0  0
  -18.0265  -28.1364   22.8496 C   0  0  0  0  0  0
  -24.1499  -36.7276   23.2644 C   0  0  0  0  0  0
  -25.9380  -30.8266   21.3659 C   0  0  0  0  0  0
  -26.0129  -29.4622   20.7094 C   0  0  0  0  0  0
  -27.2073  -28.7009   20.6928 C   0  0  0  0  0  0
  -26.0459  -26.9417   19.4817 C   0  0  0  0  0  0
  -24.8620  -27.6981   19.4986 C   0  0  0  0  0  0
  -23.6110  -29.8216   20.1659 C   0  0  0  0  0  0
  -25.4118  -36.3087   24.0346 C   0  0  1  0  0  0
  -20.5863  -28.3632   23.1306 C   0  0  2  0  0  0
  -20.6748  -26.9355   22.5420 C   0  0  0  0  0  0
  -19.5725  -26.6336   21.5222 C   0  0  0  0  0  0
  -18.1889  -26.7921   22.1601 C   0  0  0  0  0  0
  -19.1523  -28.8814   23.2904 C   0  0  0  0  0  0
  -18.9453  -30.1435   23.8893 C   0  0  0  0  0  0
  -17.6449  -30.6573   24.0559 C   0  0  0  0  0  0
  -25.9036  -34.9454   23.5117 C   0  0  0  0  0  0
  -16.5336  -29.9062   23.6357 C   0  0  0  0  0  0
  -16.7253  -28.6487   23.0366 C   0  0  0  0  0  0
  -26.4467  -31.6578   25.0714 C   0  0  0  0  0  0
  -25.3702  -31.3686   26.1428 C   0  0  0  0  0  0
  -27.0314  -30.3027   24.6091 C   0  0  0  0  0  0
  -27.6031  -32.4296   25.7486 C   0  0  0  0  0  0
  -27.5591  -37.1779   24.8463 C   0  0  0  0  0  0
  -21.4143  -29.3018   22.3724 N   0  0  0  0  0  0
  -26.4295  -37.3773   23.9418 N   0  0  0  0  0  0
  -24.6717  -31.0756   22.0990 N   0  0  0  0  0  0
  -23.4203  -28.8171   23.3011 O   0  0  0  0  0  0
  -28.3942  -26.6637   20.1155 O   0  0  0  0  0  0
  -26.5590  -34.8909   22.4668 O   0  0  0  0  0  0
  -23.5361  -32.1414   23.7467 O   0  0  0  0  0  0
  -28.8199  -19.8357   23.2675 C   0  0  0  0  0  0
  -29.3767  -19.7895   21.9722 C   0  0  0  0  0  0
  -30.1136  -18.6339   21.5785 C   0  0  0  0  0  0
  -30.3143  -17.5640   22.5052 C   0  0  0  0  0  0
  -29.7498  -17.6449   23.8059 C   0  0  0  0  0  0
  -29.0044  -18.7821   24.1739 C   0  0  0  0  0  0
  -30.2512  -21.9546   20.5722 C   0  0  0  0  0  0
  -28.4523  -22.2933   21.4742 C   0  0  0  0  0  0
  -29.1502  -20.9948   21.0460 C   0  0  2  0  0  0
  -30.7046  -18.5449   20.1719 C   0  0  0  0  0  0
  -29.9523  -16.5412   24.8378 C   0  0  0  0  0  0
  -30.0711  -24.8761   21.7883 C   0  0  0  0  0  0
  -31.1734  -16.3449   22.1395 C   0  0  0  0  0  0
  -28.2267  -25.2311   20.0423 C   0  0  0  0  0  0
  -29.4814  -24.4070   20.4367 C   0  0  2  0  0  0
  -30.4076  -15.1869   21.6661 N   0  0  0  0  0  0
  -29.1718  -22.9368   20.3642 N   0  3  1  0  0  0
  -28.4706  -18.8826   25.4149 F   0  0  0  0  0  0
  -31.4591  -12.3802   19.1039 H   0  0  0  0  0  0
  -30.3074  -11.2819   19.7936 H   0  0  0  0  0  0
  -29.7216  -11.8118   17.4112 H   0  0  0  0  0  0
  -29.6539  -13.5180   17.7866 H   0  0  0  0  0  0
  -27.8216  -11.3204   18.8077 H   0  0  0  0  0  0
  -27.3583  -12.6617   17.7956 H   0  0  0  0  0  0
  -27.7155  -14.2628   19.5971 H   0  0  0  0  0  0
  -28.6740  -11.9545   21.3560 H   0  0  0  0  0  0
  -28.4654  -13.5992   21.8746 H   0  0  0  0  0  0
  -25.2785   -9.5690   22.4734 H   0  0  0  0  0  0
  -24.0033   -7.4636   22.7461 H   0  0  0  0  0  0
  -21.0880   -8.8760   19.8923 H   0  0  0  0  0  0
  -22.3735  -10.9661   19.6137 H   0  0  0  0  0  0
  -21.1975   -7.6138   23.9748 H   0  0  0  0  0  0
  -21.1468   -6.0491   25.9083 H   0  0  0  0  0  0
  -22.0607   -2.7626   23.2807 H   0  0  0  0  0  0
  -22.4133  -11.9874   22.4777 H   0  0  0  0  0  0
  -21.1133  -13.1245   22.2589 H   0  0  0  0  0  0
  -24.6555  -15.8395   20.5227 H   0  0  0  0  0  0
  -26.2863  -15.6408   20.1243 H   0  0  0  0  0  0
  -26.7132  -32.5505   23.1132 H   0  0  0  0  0  0
  -25.0186  -33.9763   25.0530 H   0  0  0  0  0  0
  -22.6964  -31.3074   21.4069 H   0  0  0  0  0  0
  -23.3791  -35.9585   23.3291 H   0  0  0  0  0  0
  -24.3601  -36.8904   22.2063 H   0  0  0  0  0  0
  -23.7210  -37.6456   23.6662 H   0  0  0  0  0  0
  -26.0573  -31.5959   20.6018 H   0  0  0  0  0  0
  -26.8251  -30.8729   21.9869 H   0  0  0  0  0  0
  -28.1059  -29.0824   21.1566 H   0  0  0  0  0  0
  -26.0058  -25.9877   18.9791 H   0  0  0  0  0  0
  -23.9690  -27.3042   19.0338 H   0  0  0  0  0  0
  -23.7120  -30.5925   19.4014 H   0  0  0  0  0  0
  -22.7381  -29.2338   19.8751 H   0  0  0  0  0  0
  -25.1294  -36.1945   25.0845 H   0  0  0  0  0  0
  -20.9946  -28.3186   24.1432 H   0  0  0  0  0  0
  -20.5608  -26.2246   23.3621 H   0  0  0  0  0  0
  -21.6616  -26.7359   22.1219 H   0  0  0  0  0  0
  -19.6869  -25.6240   21.1259 H   0  0  0  0  0  0
  -19.6690  -27.3148   20.6758 H   0  0  0  0  0  0
  -17.4181  -26.6734   21.3977 H   0  0  0  0  0  0
  -18.0226  -26.0030   22.8949 H   0  0  0  0  0  0
  -19.7931  -30.7263   24.2238 H   0  0  0  0  0  0
  -17.5002  -31.6254   24.5144 H   0  0  0  0  0  0
  -15.5338  -30.2949   23.7703 H   0  0  0  0  0  0
  -15.8652  -28.0800   22.7092 H   0  0  0  0  0  0
  -24.5981  -30.6900   25.7778 H   0  0  0  0  0  0
  -24.8751  -32.2826   26.4728 H   0  0  0  0  0  0
  -25.8036  -30.8999   27.0271 H   0  0  0  0  0  0
  -26.2862  -29.6779   24.1155 H   0  0  0  0  0  0
  -27.4108  -29.7268   25.4539 H   0  0  0  0  0  0
  -27.8677  -30.4364   23.9229 H   0  0  0  0  0  0
  -27.2647  -33.3587   26.2085 H   0  0  0  0  0  0
  -28.3842  -32.6867   25.0322 H   0  0  0  0  0  0
  -28.0700  -31.8409   26.5392 H   0  0  0  0  0  0
  -28.2582  -38.0101   24.7554 H   0  0  0  0  0  0
  -28.1118  -36.2631   24.6240 H   0  0  0  0  0  0
  -27.2316  -37.1366   25.8869 H   0  0  0  0  0  0
  -20.9283  -29.8777   21.6978 H   0  0  0  0  0  0
  -26.0190  -38.2857   24.1439 H   0  0  0  0  0  0
  -28.2420  -20.6860   23.5939 H   0  0  0  0  0  0
  -30.7703  -21.6506   19.6627 H   0  0  0  0  0  0
  -30.9549  -22.2125   21.3658 H   0  0  0  0  0  0
  -28.7641  -22.6384   22.4606 H   0  0  0  0  0  0
  -27.3671  -22.2785   21.3781 H   0  0  0  0  0  0
  -28.6048  -20.5968   20.1848 H   0  0  0  0  0  0
  -30.2079  -19.1901   19.4512 H   0  0  0  0  0  0
  -30.6200  -17.5363   19.7682 H   0  0  0  0  0  0
  -31.7601  -18.8166   20.1847 H   0  0  0  0  0  0
  -30.9668  -16.5786   25.2348 H   0  0  0  0  0  0
  -29.7866  -15.5544   24.4082 H   0  0  0  0  0  0
  -29.2652  -16.6391   25.6783 H   0  0  0  0  0  0
  -30.3989  -25.9139   21.7172 H   0  0  0  0  0  0
  -30.9454  -24.3008   22.0899 H   0  0  0  0  0  0
  -29.3404  -24.8312   22.5948 H   0  0  0  0  0  0
  -31.7536  -16.0282   23.0060 H   0  0  0  0  0  0
  -31.9414  -16.6441   21.4269 H   0  0  0  0  0  0
  -27.4012  -24.9310   20.6918 H   0  0  0  0  0  0
  -27.9475  -24.9600   19.0223 H   0  0  0  0  0  0
  -30.2391  -24.5916   19.6750 H   0  0  0  0  0  0
  -29.5789  -14.9272   22.1786 H   0  0  0  0  0  0
  -28.7129  -22.7166   19.4907 H   0  0  0  0  0  0
  1 25  1  0  0  0
  1 30  2  0  0  0
  1 86  1  0  0  0
  2  3  1  0  0  0
  2 25  1  0  0  0
  2 89  1  0  0  0
  2 90  1  0  0  0
  3  4  1  0  0  0
  3 91  1  0  0  0
  3 92  1  0  0  0
  4  5  1  0  0  0
  4 93  1  0  0  0
  4 94  1  0  0  0
  5  6  1  0  0  0
  5 26  1  0  0  0
  5 95  1  0  0  0
  6 25  1  0  0  0
  6 96  1  0  0  0
  6 97  1  0  0  0
  7  8  2  0  0  0
  7 26  1  0  0  0
  7 29  1  0  0  0
  8  9  1  0  0  0
  8 22  1  0  0  0
  9 10  1  0  0  0
  9 27  2  0  0  0
 10 11  2  0  0  0
 10 15  1  0  0  0
 11 12  1  0  0  0
 11 98  1  0  0  0
 12 13  2  0  0  0
 12 99  1  0  0  0
 13 14  1  0  0  0
 13 31  1  0  0  0
 14 15  2  0  0  0
 14100  1  0  0  0
 15101  1  0  0  0
 16 17  2  0  0  0
 16 21  1  0  0  0
 16 31  1  0  0  0
 17 18  1  0  0  0
 17102  1  0  0  0
 18 19  2  0  0  0
 18103  1  0  0  0
 19 20  1  0  0  0
 19 24  1  0  0  0
 20 21  2  0  0  0
 20104  1  0  0  0
 21 23  1  0  0  0
 22 28  1  0  0  0
 22 32  2  0  0  0
 26 27  1  0  0  0
 28105  1  0  0  0
 28106  1  0  0  0
 29107  1  0  0  0
 29108  1  0  0  0
 33 34  1  0  0  0
 33 66  1  0  0  0
 33 70  2  0  0  0
 34 36  1  0  0  0
 34 59  1  0  0  0
 34109  1  0  0  0
 35 44  2  0  0  0
 35 45  1  0  0  0
 35 68  1  0  0  0
 36 56  1  0  0  0
 36110  1  0  0  0
 37 39  1  0  0  0
 37 47  1  0  0  0
 37 66  1  0  0  0
 37111  1  0  0  0
 38 43  2  0  0  0
 38 46  1  0  0  0
 38 47  1  0  0  0
 39 64  1  0  0  0
 39 67  2  0  0  0
 40 52  1  0  0  0
 40 53  2  0  0  0
 40 58  1  0  0  0
 41112  1  0  0  0
 41113  1  0  0  0
 41114  1  0  0  0
 41 48  1  0  0  0
 42 43  1  0  0  0
 42 66  1  0  0  0
 42115  1  0  0  0
 42116  1  0  0  0
 43 44  1  0  0  0
 44117  1  0  0  0
 45 46  2  0  0  0
 45118  1  0  0  0
 46119  1  0  0  0
 47120  1  0  0  0
 47121  1  0  0  0
 48 56  1  0  0  0
 48 65  1  0  0  0
 48122  1  0  0  0
 49 50  1  0  0  0
 49 53  1  0  0  0
 49 64  1  0  0  0
 49123  1  0  0  0
 50 51  1  0  0  0
 50124  1  0  0  0
 50125  1  0  0  0
 51 52  1  0  0  0
 51126  1  0  0  0
 51127  1  0  0  0
 52128  1  0  0  0
 52129  1  0  0  0
 53 54  1  0  0  0
 54 55  2  0  0  0
 54130  1  0  0  0
 55 57  1  0  0  0
 55131  1  0  0  0
 56 69  2  0  0  0
 57 58  2  0  0  0
 57132  1  0  0  0
 58133  1  0  0  0
 59 60  1  0  0  0
 59 61  1  0  0  0
 59 62  1  0  0  0
 60134  1  0  0  0
 60135  1  0  0  0
 60136  1  0  0  0
 61137  1  0  0  0
 61138  1  0  0  0
 61139  1  0  0  0
 62140  1  0  0  0
 62141  1  0  0  0
 62142  1  0  0  0
 63 65  1  0  0  0
 63143  1  0  0  0
 63144  1  0  0  0
 63145  1  0  0  0
 64146  1  0  0  0
 65147  1  0  0  0
 68 84  1  0  0  0
 71 72  2  0  0  0
 71 76  1  0  0  0
 71148  1  0  0  0
 72 73  1  0  0  0
 72 79  1  0  0  0
 73 74  2  0  0  0
 73 80  1  0  0  0
 74 75  1  0  0  0
 74 83  1  0  0  0
 75 76  2  0  0  0
 75 81  1  0  0  0
 76 88  1  0  0  0
 77 79  1  0  0  0
 77149  1  0  0  0
 77150  1  0  0  0
 77 87  1  0  0  0
 78 79  1  0  0  0
 78 87  1  0  0  0
 78151  1  0  0  0
 78152  1  0  0  0
 79153  1  0  0  0
 80154  1  0  0  0
 80155  1  0  0  0
 80156  1  0  0  0
 81157  1  0  0  0
 81158  1  0  0  0
 81159  1  0  0  0
 82160  1  0  0  0
 82161  1  0  0  0
 82162  1  0  0  0
 82 85  1  0  0  0
 83 86  1  0  0  0
 83163  1  0  0  0
 83164  1  0  0  0
 84 85  1  0  0  0
 84165  1  0  0  0
 84166  1  0  0  0
 85 87  1  0  0  0
 85167  1  0  0  0
 86168  1  0  0  0
 87169  1  0  0  0
M  CHG  1  87   1
M  ISO  4   1 100  68 101  84 101  86 100
M  END
> <chiral flag>
0

> <version>
0

> <s_m_source_file>
/data/baiqing/PycharmProjects/Reinvent-master-3.2/result/LINK_invent/BTK/process_docking_weight1_custom_sum_contain_oxygen_bond_distance_aromatic_linkinvent_7_9_3/rearranged_h_0164.sdf

> <i_m_source_file_index>
40

> <r_mmod_Potential_Energy-OPLS-2005>
-187.090286254883

> <r_mmod_Stretch_Energy-OPLS-2005>
43.9350967407227

> <r_mmod_Bend_Energy-OPLS-2005>
124.410690307617

> <r_mmod_Torsional_Energy-OPLS-2005>
230.533477783203

> <r_mmod_Improper_Torsional_Energy-OPLS-2005>
1.91242778301239

> <r_mmod_Van_der_Waal_Energy-OPLS-2005>
167.953567504883

> <r_mmod_Electrostatic_Energy-OPLS-2005>
-327.518157958984

> <r_mmod_Solvation_Energy-OPLS-2005>
-439.025817871094

> <b_mmod_Minimization_Converged-OPLS-2005>
0

> <r_mmod_RMS_Derivative-OPLS-2005>
2.52921509742737

$$$$
40
                    3D
 Structure written by MMmdl.
159169  0  0  1  0            999 V2000
  -30.6690  -14.5731   20.5017 C   0  0  0  0  0  0
  -30.4240  -12.3517   19.4386 C   0  0  0  0  0  0
  -29.5025  -12.4900   18.2094 C   0  0  0  0  0  0
  -28.0232  -12.3457   18.6226 C   0  0  0  0  0  0
  -27.6506  -13.2166   19.8554 C   0  0  2  0  0  0
  -28.6936  -13.0717   20.9837 C   0  0  0  0  0  0
  -25.2567  -13.8176   20.5698 C   0  0  0  0  0  0
  -24.1833  -13.0450   20.9208 C   0  0  0  0  0  0
  -24.6393  -11.6924   20.8746 C   0  0  0  0  0  0
  -23.9063  -10.4312   21.0400 C   0  0  0  0  0  0
  -24.3620   -9.4223   21.9171 C   0  0  0  0  0  0
  -23.6310   -8.2248   22.0734 C   0  0  0  0  0  0
  -22.4293   -8.0279   21.3535 C   0  0  0  0  0  0
  -21.9929   -9.0251   20.4639 C   0  0  0  0  0  0
  -22.7242  -10.2136   20.3057 C   0  0  0  0  0  0
  -21.6861   -6.0741   22.5277 C   0  0  0  0  0  0
  -21.4016   -6.5640   23.8214 C   0  0  0  0  0  0
  -21.3671   -5.6785   24.9180 C   0  0  0  0  0  0
  -21.6042   -4.3046   24.7219 C   0  0  0  0  0  0
  -21.8828   -3.8149   23.4337 C   0  0  0  0  0  0
  -21.9200   -4.6973   22.3402 C   0  0  0  0  0  0
  -22.7858  -13.5242   21.1860 C   0  0  0  0  0  0
  -22.1658   -4.2159   21.0977 F   0  0  0  0  0  0
  -21.5635   -3.4528   25.7721 F   0  0  0  0  0  0
  -30.0109  -13.3802   20.4109 N   0  0  0  0  0  0
  -26.2975  -12.9346   20.3283 N   0  0  0  0  0  0
  -25.9306  -11.6500   20.5726 N   0  0  0  0  0  0
  -22.0483  -12.8259   22.0427 N   0  0  0  0  0  0
  -25.4300  -15.1897   20.4111 N   0  0  0  0  0  0
  -31.8588  -14.6752   20.1934 O   0  0  0  0  0  0
  -21.6647   -6.8880   21.4237 O   0  0  0  0  0  0
  -22.3557  -14.5546   20.6694 O   0  0  0  0  0  0
  -24.6193  -31.8616   23.2018 C   0  0  0  0  0  0
  -25.9070  -32.4767   23.8337 C   0  0  1  0  0  0
  -27.2398  -27.3570   20.1195 C   0  0  0  0  0  0
  -25.5934  -33.8572   24.2274 N   0  0  0  0  0  0
  -23.4103  -30.4805   21.5434 C   0  0  2  0  0  0
  -24.8605  -28.9310   20.1146 C   0  0  0  0  0  0
  -22.7434  -29.4623   22.4959 C   0  0  0  0  0  0
  -18.0265  -28.1354   22.8488 C   0  0  0  0  0  0
  -24.1501  -36.7275   23.2629 C   0  0  0  0  0  0
  -25.9465  -30.8023   21.3685 C   0  0  0  0  0  0
  -26.0220  -29.4304   20.7154 C   0  0  0  0  0  0
  -27.2124  -28.6547   20.7059 C   0  0  0  0  0  0
  -26.0551  -26.8899   19.5103 C   0  0  0  0  0  0
  -24.8770  -27.6659   19.5029 C   0  0  0  0  0  0
  -23.6220  -29.8005   20.1626 C   0  0  0  0  0  0
  -25.4130  -36.3072   24.0313 C   0  0  1  0  0  0
  -20.5864  -28.3662   23.1291 C   0  0  2  0  0  0
  -20.6758  -26.9393   22.5415 C   0  0  0  0  0  0
  -19.5744  -26.6361   21.5203 C   0  0  0  0  0  0
  -18.1913  -26.7899   22.1601 C   0  0  0  0  0  0
  -19.1521  -28.8819   23.2881 C   0  0  0  0  0  0
  -18.9447  -30.1422   23.8895 C   0  0  0  0  0  0
  -17.6454  -30.6575   24.0540 C   0  0  0  0  0  0
  -25.9065  -34.9441   23.5084 C   0  0  0  0  0  0
  -16.5339  -29.9064   23.6331 C   0  0  0  0  0  0
  -16.7255  -28.6465   23.0377 C   0  0  0  0  0  0
  -26.4511  -31.6561   25.0682 C   0  0  0  0  0  0
  -25.3755  -31.3702   26.1409 C   0  0  0  0  0  0
  -27.0349  -30.2975   24.6129 C   0  0  0  0  0  0
  -27.6069  -32.4292   25.7466 C   0  0  0  0  0  0
  -27.5588  -37.1788   24.8455 C   0  0  0  0  0  0
  -21.4160  -29.3017   22.3693 N   0  0  0  0  0  0
  -26.4314  -37.3761   23.9385 N   0  0  0  0  0  0
  -24.6766  -31.0665   22.0937 N   0  0  0  0  0  0
  -23.4186  -28.8172   23.3025 O   0  0  0  0  0  0
  -28.4074  -26.5964   20.1741 O   0  0  0  0  0  0
  -26.5622  -34.8907   22.4651 O   0  0  0  0  0  0
  -23.5370  -32.1405   23.7389 O   0  0  0  0  0  0
  -29.7744  -19.7809   20.1863 C   0  0  0  0  0  0
  -28.5360  -20.3487   20.5931 C   0  0  0  0  0  0
  -30.7642  -20.7718   19.9235 C   0  0  0  0  0  0
  -29.3092  -22.5347   20.3922 C   0  0  0  0  0  0
  -31.2772  -17.5806   19.7858 C   0  0  0  0  0  0
  -29.9499  -24.9629   19.6923 C   0  0  0  0  0  0
  -29.9197  -18.2448   19.9085 C   0  0  1  0  0  0
  -29.1660  -24.0706   20.6253 C   0  0  1  0  0  0
  -30.3495  -17.0750   20.8567 C   0  0  1  0  0  0
  -28.4653  -25.1866   19.7576 C   0  0  2  0  0  0
  -27.3497  -19.4639   20.9284 C   0  0  0  0  0  0
  -32.1729  -20.4746   19.4452 C   0  0  0  0  0  0
  -28.3150  -21.6935   20.6894 N   0  0  0  0  0  0
  -30.5203  -22.1001   20.0509 N   0  0  0  0  0  0
  -29.9050  -15.6816   20.7337 N   0  0  0  0  0  0
  -31.4678  -12.4579   19.1364 H   0  0  0  0  0  0
  -30.3322  -11.3539   19.8721 H   0  0  0  0  0  0
  -29.7570  -11.7359   17.4623 H   0  0  0  0  0  0
  -29.6596  -13.4604   17.7341 H   0  0  0  0  0  0
  -27.8569  -11.2926   18.8511 H   0  0  0  0  0  0
  -27.3691  -12.5779   17.7807 H   0  0  0  0  0  0
  -27.6696  -14.2534   19.5193 H   0  0  0  0  0  0
  -28.6878  -12.0563   21.3821 H   0  0  0  0  0  0
  -28.4554  -13.7266   21.8215 H   0  0  0  0  0  0
  -25.2760   -9.5703   22.4747 H   0  0  0  0  0  0
  -24.0024   -7.4655   22.7460 H   0  0  0  0  0  0
  -21.0850   -8.8775   19.8968 H   0  0  0  0  0  0
  -22.3680  -10.9678   19.6182 H   0  0  0  0  0  0
  -21.1991   -7.6145   23.9719 H   0  0  0  0  0  0
  -21.1489   -6.0509   25.9077 H   0  0  0  0  0  0
  -22.0597   -2.7612   23.2825 H   0  0  0  0  0  0
  -22.4066  -11.9932   22.4859 H   0  0  0  0  0  0
  -21.1084  -13.1284   22.2589 H   0  0  0  0  0  0
  -24.6593  -15.8402   20.5140 H   0  0  0  0  0  0
  -26.2694  -15.6269   20.0547 H   0  0  0  0  0  0
  -26.7131  -32.5460   23.1081 H   0  0  0  0  0  0
  -25.0130  -33.9746   25.0452 H   0  0  0  0  0  0
  -22.7004  -31.2973   21.3964 H   0  0  0  0  0  0
  -23.3765  -35.9608   23.3307 H   0  0  0  0  0  0
  -24.3584  -36.8898   22.2040 H   0  0  0  0  0  0
  -23.7256  -37.6475   23.6656 H   0  0  0  0  0  0
  -26.0826  -31.5660   20.6014 H   0  0  0  0  0  0
  -26.8258  -30.8454   21.9999 H   0  0  0  0  0  0
  -28.1060  -29.0415   21.1731 H   0  0  0  0  0  0
  -26.0150  -25.9181   19.0431 H   0  0  0  0  0  0
  -23.9846  -27.2769   19.0321 H   0  0  0  0  0  0
  -23.7250  -30.5650   19.3930 H   0  0  0  0  0  0
  -22.7477  -29.2125   19.8741 H   0  0  0  0  0  0
  -25.1324  -36.1918   25.0809 H   0  0  0  0  0  0
  -20.9958  -28.3229   24.1405 H   0  0  0  0  0  0
  -20.5630  -26.2284   23.3616 H   0  0  0  0  0  0
  -21.6633  -26.7414   22.1224 H   0  0  0  0  0  0
  -19.6921  -25.6268   21.1233 H   0  0  0  0  0  0
  -19.6674  -27.3162   20.6720 H   0  0  0  0  0  0
  -17.4199  -26.6653   21.3984 H   0  0  0  0  0  0
  -18.0302  -26.0021   22.8970 H   0  0  0  0  0  0
  -19.7936  -30.7219   24.2273 H   0  0  0  0  0  0
  -17.5016  -31.6266   24.5121 H   0  0  0  0  0  0
  -15.5339  -30.2966   23.7654 H   0  0  0  0  0  0
  -15.8649  -28.0760   22.7144 H   0  0  0  0  0  0
  -24.5945  -30.7039   25.7729 H   0  0  0  0  0  0
  -24.8944  -32.2879   26.4801 H   0  0  0  0  0  0
  -25.8096  -30.8900   27.0185 H   0  0  0  0  0  0
  -26.2915  -29.6695   24.1204 H   0  0  0  0  0  0
  -27.4087  -29.7250   25.4624 H   0  0  0  0  0  0
  -27.8770  -30.4224   23.9317 H   0  0  0  0  0  0
  -27.2675  -33.3573   26.2076 H   0  0  0  0  0  0
  -28.3894  -32.6880   25.0317 H   0  0  0  0  0  0
  -28.0728  -31.8389   26.5370 H   0  0  0  0  0  0
  -28.2605  -38.0086   24.7514 H   0  0  0  0  0  0
  -28.1104  -36.2615   24.6304 H   0  0  0  0  0  0
  -27.2297  -37.1453   25.8859 H   0  0  0  0  0  0
  -20.9336  -29.8713   21.6891 H   0  0  0  0  0  0
  -26.0189  -38.2836   24.1399 H   0  0  0  0  0  0
  -32.1863  -17.9996   20.2047 H   0  0  0  0  0  0
  -31.4283  -16.9761   18.8927 H   0  0  0  0  0  0
  -30.3373  -24.5255   18.7740 H   0  0  0  0  0  0
  -30.6185  -25.6776   20.1690 H   0  0  0  0  0  0
  -29.2061  -17.9809   19.1303 H   0  0  0  0  0  0
  -29.2379  -24.2753   21.6910 H   0  0  0  0  0  0
  -30.5821  -17.3794   21.8755 H   0  0  0  0  0  0
  -27.9346  -24.9383   18.8409 H   0  0  0  0  0  0
  -27.6277  -18.7308   21.6867 H   0  0  0  0  0  0
  -27.0032  -18.9313   20.0431 H   0  0  0  0  0  0
  -26.5125  -20.0438   21.3189 H   0  0  0  0  0  0
  -32.1778  -19.7442   18.6369 H   0  0  0  0  0  0
  -32.7870  -20.1107   20.2694 H   0  0  0  0  0  0
  -32.6583  -21.3711   19.0601 H   0  0  0  0  0  0
  -28.9255  -15.5090   20.8990 H   0  0  0  0  0  0
  1 25  1  0  0  0
  1 30  2  0  0  0
  1 85  1  0  0  0
  2  3  1  0  0  0
  2 25  1  0  0  0
  2 86  1  0  0  0
  2 87  1  0  0  0
  3  4  1  0  0  0
  3 88  1  0  0  0
  3 89  1  0  0  0
  4  5  1  0  0  0
  4 90  1  0  0  0
  4 91  1  0  0  0
  5  6  1  0  0  0
  5 26  1  0  0  0
  5 92  1  0  0  0
  6 25  1  0  0  0
  6 93  1  0  0  0
  6 94  1  0  0  0
  7  8  2  0  0  0
  7 26  1  0  0  0
  7 29  1  0  0  0
  8  9  1  0  0  0
  8 22  1  0  0  0
  9 10  1  0  0  0
  9 27  2  0  0  0
 10 11  2  0  0  0
 10 15  1  0  0  0
 11 12  1  0  0  0
 11 95  1  0  0  0
 12 13  2  0  0  0
 12 96  1  0  0  0
 13 14  1  0  0  0
 13 31  1  0  0  0
 14 15  2  0  0  0
 14 97  1  0  0  0
 15 98  1  0  0  0
 16 17  2  0  0  0
 16 21  1  0  0  0
 16 31  1  0  0  0
 17 18  1  0  0  0
 17 99  1  0  0  0
 18 19  2  0  0  0
 18100  1  0  0  0
 19 20  1  0  0  0
 19 24  1  0  0  0
 20 21  2  0  0  0
 20101  1  0  0  0
 21 23  1  0  0  0
 22 28  1  0  0  0
 22 32  2  0  0  0
 26 27  1  0  0  0
 28102  1  0  0  0
 28103  1  0  0  0
 29104  1  0  0  0
 29105  1  0  0  0
 33 34  1  0  0  0
 33 66  1  0  0  0
 33 70  2  0  0  0
 34 36  1  0  0  0
 34 59  1  0  0  0
 34106  1  0  0  0
 35 44  2  0  0  0
 35 45  1  0  0  0
 35 68  1  0  0  0
 36 56  1  0  0  0
 36107  1  0  0  0
 37 39  1  0  0  0
 37 47  1  0  0  0
 37 66  1  0  0  0
 37108  1  0  0  0
 38 43  2  0  0  0
 38 46  1  0  0  0
 38 47  1  0  0  0
 39 64  1  0  0  0
 39 67  2  0  0  0
 40 52  1  0  0  0
 40 53  2  0  0  0
 40 58  1  0  0  0
 41109  1  0  0  0
 41110  1  0  0  0
 41111  1  0  0  0
 41 48  1  0  0  0
 42 43  1  0  0  0
 42 66  1  0  0  0
 42112  1  0  0  0
 42113  1  0  0  0
 43 44  1  0  0  0
 44114  1  0  0  0
 45 46  2  0  0  0
 45115  1  0  0  0
 46116  1  0  0  0
 47117  1  0  0  0
 47118  1  0  0  0
 48 56  1  0  0  0
 48 65  1  0  0  0
 48119  1  0  0  0
 49 50  1  0  0  0
 49 53  1  0  0  0
 49 64  1  0  0  0
 49120  1  0  0  0
 50 51  1  0  0  0
 50121  1  0  0  0
 50122  1  0  0  0
 51 52  1  0  0  0
 51123  1  0  0  0
 51124  1  0  0  0
 52125  1  0  0  0
 52126  1  0  0  0
 53 54  1  0  0  0
 54 55  2  0  0  0
 54127  1  0  0  0
 55 57  1  0  0  0
 55128  1  0  0  0
 56 69  2  0  0  0
 57 58  2  0  0  0
 57129  1  0  0  0
 58130  1  0  0  0
 59 60  1  0  0  0
 59 61  1  0  0  0
 59 62  1  0  0  0
 60131  1  0  0  0
 60132  1  0  0  0
 60133  1  0  0  0
 61134  1  0  0  0
 61135  1  0  0  0
 61136  1  0  0  0
 62137  1  0  0  0
 62138  1  0  0  0
 62139  1  0  0  0
 63 65  1  0  0  0
 63140  1  0  0  0
 63141  1  0  0  0
 63142  1  0  0  0
 64143  1  0  0  0
 65144  1  0  0  0
 68 80  1  0  0  0
 71 72  2  0  0  0
 71 73  1  0  0  0
 71 77  1  0  0  0
 72 81  1  0  0  0
 72 83  1  0  0  0
 73 82  1  0  0  0
 73 84  2  0  0  0
 74 83  2  0  0  0
 74 84  1  0  0  0
 74 78  1  0  0  0
 75 77  1  0  0  0
 75 79  1  0  0  0
 75145  1  0  0  0
 75146  1  0  0  0
 76 78  1  0  0  0
 76 80  1  0  0  0
 76147  1  0  0  0
 76148  1  0  0  0
 77 79  1  0  0  0
 77149  1  0  0  0
 78 80  1  0  0  0
 78150  1  0  0  0
 79 85  1  0  0  0
 79151  1  0  0  0
 80152  1  0  0  0
 81153  1  0  0  0
 81154  1  0  0  0
 81155  1  0  0  0
 82156  1  0  0  0
 82157  1  0  0  0
 82158  1  0  0  0
 85159  1  0  0  0
M  ISO  4   1 100  68 101  80 101  85 100
M  END
> <chiral flag>
0

> <version>
0

> <s_m_source_file>
/data/baiqing/PycharmProjects/Reinvent-master-3.2/result/LINK_invent/BTK/process_docking_weight1_custom_sum_contain_oxygen_bond_distance_aromatic_linkinvent_7_9_3/rearranged_h_0164.sdf

> <i_m_source_file_index>
41

> <r_mmod_Potential_Energy-OPLS-2005>
-305.99365234375

> <r_mmod_Stretch_Energy-OPLS-2005>
70.4489364624023

> <r_mmod_Bend_Energy-OPLS-2005>
163.155899047852

> <r_mmod_Torsional_Energy-OPLS-2005>
278.757568359375

> <r_mmod_Improper_Torsional_Energy-OPLS-2005>
6.20938682556152

> <r_mmod_Van_der_Waal_Energy-OPLS-2005>
155.826782226562

> <r_mmod_Electrostatic_Energy-OPLS-2005>
-775.929504394531

> <r_mmod_Solvation_Energy-OPLS-2005>
-237.855758666992

> <b_mmod_Minimization_Converged-OPLS-2005>
0

> <r_mmod_RMS_Derivative-OPLS-2005>
2.98149299621582

$$$$
41
                    3D
 Structure written by MMmdl.
181190  0  0  1  0            999 V2000
  -30.7263  -14.5321   20.5429 C   0  0  0  0  0  0
  -30.4005  -12.3303   19.4442 C   0  0  0  0  0  0
  -29.4884  -12.5040   18.2107 C   0  0  0  0  0  0
  -28.0095  -12.3427   18.6183 C   0  0  0  0  0  0
  -27.6403  -13.1962   19.8635 C   0  0  2  0  0  0
  -28.6943  -13.0685   20.9903 C   0  0  0  0  0  0
  -25.2517  -13.8112   20.5684 C   0  0  0  0  0  0
  -24.1796  -13.0403   20.9219 C   0  0  0  0  0  0
  -24.6315  -11.6891   20.8781 C   0  0  0  0  0  0
  -23.8966  -10.4310   21.0455 C   0  0  0  0  0  0
  -24.3557   -9.4273   21.9225 C   0  0  0  0  0  0
  -23.6300   -8.2277   22.0736 C   0  0  0  0  0  0
  -22.4270   -8.0304   21.3552 C   0  0  0  0  0  0
  -21.9876   -9.0243   20.4657 C   0  0  0  0  0  0
  -22.7148  -10.2134   20.3084 C   0  0  0  0  0  0
  -21.6881   -6.0792   22.5313 C   0  0  0  0  0  0
  -21.4059   -6.5684   23.8257 C   0  0  0  0  0  0
  -21.3621   -5.6807   24.9190 C   0  0  0  0  0  0
  -21.6032   -4.3086   24.7221 C   0  0  0  0  0  0
  -21.8835   -3.8199   23.4343 C   0  0  0  0  0  0
  -21.9191   -4.7036   22.3427 C   0  0  0  0  0  0
  -22.7848  -13.5265   21.1876 C   0  0  0  0  0  0
  -22.1626   -4.2243   21.0991 F   0  0  0  0  0  0
  -21.5578   -3.4522   25.7708 F   0  0  0  0  0  0
  -30.0142  -13.3670   20.4202 N   0  0  0  0  0  0
  -26.2916  -12.9202   20.3377 N   0  0  0  0  0  0
  -25.9257  -11.6393   20.5842 N   0  0  0  0  0  0
  -22.0442  -12.8273   22.0411 N   0  0  0  0  0  0
  -25.4201  -15.1805   20.4037 N   0  0  0  0  0  0
  -31.8793  -14.6362   20.1311 O   0  0  0  0  0  0
  -21.6671   -6.8889   21.4256 O   0  0  0  0  0  0
  -22.3602  -14.5574   20.6699 O   0  0  0  0  0  0
  -24.6169  -31.8683   23.2133 C   0  0  0  0  0  0
  -25.9055  -32.4834   23.8423 C   0  0  1  0  0  0
  -27.2104  -27.3950   20.0974 C   0  0  0  0  0  0
  -25.5901  -33.8631   24.2369 N   0  0  0  0  0  0
  -23.4019  -30.4981   21.5580 C   0  0  2  0  0  0
  -24.8394  -28.9657   20.1132 C   0  0  0  0  0  0
  -22.7410  -29.4674   22.5034 C   0  0  0  0  0  0
  -18.0283  -28.1365   22.8506 C   0  0  0  0  0  0
  -24.1475  -36.7302   23.2650 C   0  0  0  0  0  0
  -25.9360  -30.8250   21.3667 C   0  0  0  0  0  0
  -26.0069  -29.4608   20.7067 C   0  0  0  0  0  0
  -27.1984  -28.6890   20.6819 C   0  0  0  0  0  0
  -26.0218  -26.9314   19.4836 C   0  0  0  0  0  0
  -24.8454  -27.7039   19.4955 C   0  0  0  0  0  0
  -23.6047  -29.8418   20.1689 C   0  0  0  0  0  0
  -25.4095  -36.3119   24.0358 C   0  0  1  0  0  0
  -20.5869  -28.3646   23.1312 C   0  0  2  0  0  0
  -20.6774  -26.9381   22.5404 C   0  0  0  0  0  0
  -19.5746  -26.6370   21.5210 C   0  0  0  0  0  0
  -18.1916  -26.7926   22.1614 C   0  0  0  0  0  0
  -19.1534  -28.8831   23.2907 C   0  0  0  0  0  0
  -18.9464  -30.1445   23.8901 C   0  0  0  0  0  0
  -17.6463  -30.6570   24.0562 C   0  0  0  0  0  0
  -25.9034  -34.9491   23.5178 C   0  0  0  0  0  0
  -16.5344  -29.9052   23.6339 C   0  0  0  0  0  0
  -16.7261  -28.6479   23.0361 C   0  0  0  0  0  0
  -26.4471  -31.6593   25.0741 C   0  0  0  0  0  0
  -25.3747  -31.3612   26.1487 C   0  0  0  0  0  0
  -27.0336  -30.3070   24.6073 C   0  0  0  0  0  0
  -27.6066  -32.4293   25.7490 C   0  0  0  0  0  0
  -27.5588  -37.1804   24.8474 C   0  0  0  0  0  0
  -21.4155  -29.3028   22.3747 N   0  0  0  0  0  0
  -26.4295  -37.3802   23.9429 N   0  0  0  0  0  0
  -24.6709  -31.0760   22.1040 N   0  0  0  0  0  0
  -23.4189  -28.8219   23.3068 O   0  0  0  0  0  0
  -28.3715  -26.6325   20.0995 O   0  0  0  0  0  0
  -26.5612  -34.8928   22.4741 O   0  0  0  0  0  0
  -23.5357  -32.1458   23.7516 O   0  0  0  0  0  0
  -30.0223  -20.9639   21.8483 C   0  0  0  0  0  0
  -29.1975  -16.3459   20.0191 C   0  0  0  0  0  0
  -29.5647  -22.4601   21.6725 C   0  0  0  0  0  0
  -30.8921  -22.3882   19.6245 C   0  0  0  0  0  0
  -31.0660  -18.0030   21.4687 C   0  0  0  0  0  0
  -30.8730  -20.8223   19.4808 C   0  0  2  0  0  0
  -29.9326  -20.1387   20.5359 C   0  0  1  0  0  0
  -30.7261  -16.5631   21.9840 C   0  0  1  0  0  0
  -29.6826  -17.7379   19.5169 C   0  0  1  0  0  0
  -32.3270  -20.3039   19.4473 C   0  0  0  0  0  0
  -28.6688  -18.2711   18.4792 C   0  0  0  0  0  0
  -29.8249  -15.7081   25.7091 C   0  0  0  0  0  0
  -29.9339  -16.6166   23.3155 C   0  0  0  0  0  0
  -30.1747  -15.4101   24.2419 C   0  0  0  0  0  0
  -29.6273  -24.4787   20.1148 C   0  0  0  0  0  0
  -28.2574  -25.2000   20.3311 C   0  0  0  0  0  0
  -30.0765  -15.6528   20.9895 N   0  0  0  0  0  0
  -29.6753  -22.9721   20.2671 N   0  3  2  0  0  0
  -29.9556  -18.6192   20.6958 N   0  3  1  0  0  0
  -31.4510  -12.3877   19.1527 H   0  0  0  0  0  0
  -30.2671  -11.3371   19.8787 H   0  0  0  0  0  0
  -29.7460  -11.7783   17.4352 H   0  0  0  0  0  0
  -29.6442  -13.4916   17.7743 H   0  0  0  0  0  0
  -27.8265  -11.2836   18.8126 H   0  0  0  0  0  0
  -27.3619  -12.6038   17.7835 H   0  0  0  0  0  0
  -27.6275  -14.2229   19.5198 H   0  0  0  0  0  0
  -28.6958  -12.0513   21.3882 H   0  0  0  0  0  0
  -28.4596  -13.7172   21.8369 H   0  0  0  0  0  0
  -25.2711   -9.5834   22.4755 H   0  0  0  0  0  0
  -24.0093   -7.4673   22.7389 H   0  0  0  0  0  0
  -21.0821   -8.8739   19.8938 H   0  0  0  0  0  0
  -22.3622  -10.9648   19.6163 H   0  0  0  0  0  0
  -21.2102   -7.6206   23.9795 H   0  0  0  0  0  0
  -21.1360   -6.0530   25.9083 H   0  0  0  0  0  0
  -22.0642   -2.7677   23.2825 H   0  0  0  0  0  0
  -22.4041  -11.9922   22.4786 H   0  0  0  0  0  0
  -21.1067  -13.1368   22.2580 H   0  0  0  0  0  0
  -24.6400  -15.8225   20.5013 H   0  0  0  0  0  0
  -26.2513  -15.6053   20.0156 H   0  0  0  0  0  0
  -26.7126  -32.5516   23.1185 H   0  0  0  0  0  0
  -25.0049  -33.9808   25.0514 H   0  0  0  0  0  0
  -22.6914  -31.3170   21.4291 H   0  0  0  0  0  0
  -23.3778  -35.9603   23.3299 H   0  0  0  0  0  0
  -24.3584  -36.8918   22.2067 H   0  0  0  0  0  0
  -23.7175  -37.6481   23.6665 H   0  0  0  0  0  0
  -26.0565  -31.5944   20.6034 H   0  0  0  0  0  0
  -26.8209  -30.8719   21.9885 H   0  0  0  0  0  0
  -28.1042  -29.0749   21.1304 H   0  0  0  0  0  0
  -25.9768  -25.9814   18.9707 H   0  0  0  0  0  0
  -23.9475  -27.3249   19.0257 H   0  0  0  0  0  0
  -23.7160  -30.6256   19.4183 H   0  0  0  0  0  0
  -22.7211  -29.2754   19.8711 H   0  0  0  0  0  0
  -25.1279  -36.2019   25.0859 H   0  0  0  0  0  0
  -20.9971  -28.3192   24.1427 H   0  0  0  0  0  0
  -20.5668  -26.2260   23.3593 H   0  0  0  0  0  0
  -21.6647  -26.7410   22.1199 H   0  0  0  0  0  0
  -19.6895  -25.6279   21.1227 H   0  0  0  0  0  0
  -19.6673  -27.3205   20.6757 H   0  0  0  0  0  0
  -17.4197  -26.6725   21.3983 H   0  0  0  0  0  0
  -18.0262  -26.0024   22.8957 H   0  0  0  0  0  0
  -19.7932  -30.7288   24.2233 H   0  0  0  0  0  0
  -17.4990  -31.6259   24.5142 H   0  0  0  0  0  0
  -15.5335  -30.2952   23.7651 H   0  0  0  0  0  0
  -15.8676  -28.0778   22.7072 H   0  0  0  0  0  0
  -24.5984  -30.6898   25.7792 H   0  0  0  0  0  0
  -24.8859  -32.2711   26.4981 H   0  0  0  0  0  0
  -25.8120  -30.8754   27.0225 H   0  0  0  0  0  0
  -26.2872  -29.6780   24.1204 H   0  0  0  0  0  0
  -27.4254  -29.7336   25.4485 H   0  0  0  0  0  0
  -27.8637  -30.4465   23.9147 H   0  0  0  0  0  0
  -27.2756  -33.3627   26.2066 H   0  0  0  0  0  0
  -28.3879  -32.6778   25.0293 H   0  0  0  0  0  0
  -28.0747  -31.8399   26.5393 H   0  0  0  0  0  0
  -28.2599  -38.0105   24.7579 H   0  0  0  0  0  0
  -28.1095  -36.2656   24.6256 H   0  0  0  0  0  0
  -27.2326  -37.1397   25.8877 H   0  0  0  0  0  0
  -20.9312  -29.8743   21.6969 H   0  0  0  0  0  0
  -26.0198  -38.2895   24.1417 H   0  0  0  0  0  0
  -29.4567  -20.5024   22.6578 H   0  0  0  0  0  0
  -31.0633  -20.9584   22.1813 H   0  0  0  0  0  0
  -29.0553  -15.7297   19.1309 H   0  0  0  0  0  0
  -28.2154  -16.4445   20.4865 H   0  0  0  0  0  0
  -30.1844  -23.0845   22.3244 H   0  0  0  0  0  0
  -28.5423  -22.5917   22.0324 H   0  0  0  0  0  0
  -31.0549  -22.8357   18.6429 H   0  0  0  0  0  0
  -31.7436  -22.7042   20.2326 H   0  0  0  0  0  0
  -31.9592  -17.9138   20.8511 H   0  0  0  0  0  0
  -31.3632  -18.6392   22.2984 H   0  0  0  0  0  0
  -30.4607  -20.6210   18.4945 H   0  0  0  0  0  0
  -28.9131  -20.3197   20.1913 H   0  0  0  0  0  0
  -31.7058  -16.1518   22.2368 H   0  0  0  0  0  0
  -30.6257  -17.5997   18.9800 H   0  0  0  0  0  0
  -32.8780  -20.5513   20.3583 H   0  0  0  0  0  0
  -32.8722  -20.7450   18.6111 H   0  0  0  0  0  0
  -32.3885  -19.2315   19.2834 H   0  0  0  0  0  0
  -27.7075  -18.5201   18.9267 H   0  0  0  0  0  0
  -28.4828  -17.5096   17.7200 H   0  0  0  0  0  0
  -29.0216  -19.1391   17.9260 H   0  0  0  0  0  0
  -29.9480  -14.8198   26.3332 H   0  0  0  0  0  0
  -28.7946  -16.0464   25.8156 H   0  0  0  0  0  0
  -30.4744  -16.4802   26.1262 H   0  0  0  0  0  0
  -28.8644  -16.7344   23.1257 H   0  0  0  0  0  0
  -30.2411  -17.5077   23.8632 H   0  0  0  0  0  0
  -29.6014  -14.5511   23.8943 H   0  0  0  0  0  0
  -31.2219  -15.1038   24.2107 H   0  0  0  0  0  0
  -30.3905  -24.9404   20.7398 H   0  0  0  0  0  0
  -29.9138  -24.7160   19.0892 H   0  0  0  0  0  0
  -27.9102  -25.0477   21.3540 H   0  0  0  0  0  0
  -27.5226  -24.7398   19.6731 H   0  0  0  0  0  0
  -28.8855  -22.6118   19.7509 H   0  0  0  0  0  0
  -29.1566  -18.4724   21.2963 H   0  0  0  0  0  0
  1 25  1  0  0  0
  1 30  2  0  0  0
  1 87  1  0  0  0
  2  3  1  0  0  0
  2 25  1  0  0  0
  2 90  1  0  0  0
  2 91  1  0  0  0
  3  4  1  0  0  0
  3 92  1  0  0  0
  3 93  1  0  0  0
  4  5  1  0  0  0
  4 94  1  0  0  0
  4 95  1  0  0  0
  5  6  1  0  0  0
  5 26  1  0  0  0
  5 96  1  0  0  0
  6 25  1  0  0  0
  6 97  1  0  0  0
  6 98  1  0  0  0
  7  8  2  0  0  0
  7 26  1  0  0  0
  7 29  1  0  0  0
  8  9  1  0  0  0
  8 22  1  0  0  0
  9 10  1  0  0  0
  9 27  2  0  0  0
 10 11  2  0  0  0
 10 15  1  0  0  0
 11 12  1  0  0  0
 11 99  1  0  0  0
 12 13  2  0  0  0
 12100  1  0  0  0
 13 14  1  0  0  0
 13 31  1  0  0  0
 14 15  2  0  0  0
 14101  1  0  0  0
 15102  1  0  0  0
 16 17  2  0  0  0
 16 21  1  0  0  0
 16 31  1  0  0  0
 17 18  1  0  0  0
 17103  1  0  0  0
 18 19  2  0  0  0
 18104  1  0  0  0
 19 20  1  0  0  0
 19 24  1  0  0  0
 20 21  2  0  0  0
 20105  1  0  0  0
 21 23  1  0  0  0
 22 28  1  0  0  0
 22 32  2  0  0  0
 26 27  1  0  0  0
 28106  1  0  0  0
 28107  1  0  0  0
 29108  1  0  0  0
 29109  1  0  0  0
 33 34  1  0  0  0
 33 66  1  0  0  0
 33 70  2  0  0  0
 34 36  1  0  0  0
 34 59  1  0  0  0
 34110  1  0  0  0
 35 44  2  0  0  0
 35 45  1  0  0  0
 35 68  1  0  0  0
 36 56  1  0  0  0
 36111  1  0  0  0
 37 39  1  0  0  0
 37 47  1  0  0  0
 37 66  1  0  0  0
 37112  1  0  0  0
 38 43  2  0  0  0
 38 46  1  0  0  0
 38 47  1  0  0  0
 39 64  1  0  0  0
 39 67  2  0  0  0
 40 52  1  0  0  0
 40 53  2  0  0  0
 40 58  1  0  0  0
 41113  1  0  0  0
 41114  1  0  0  0
 41115  1  0  0  0
 41 48  1  0  0  0
 42 43  1  0  0  0
 42 66  1  0  0  0
 42116  1  0  0  0
 42117  1  0  0  0
 43 44  1  0  0  0
 44118  1  0  0  0
 45 46  2  0  0  0
 45119  1  0  0  0
 46120  1  0  0  0
 47121  1  0  0  0
 47122  1  0  0  0
 48 56  1  0  0  0
 48 65  1  0  0  0
 48123  1  0  0  0
 49 50  1  0  0  0
 49 53  1  0  0  0
 49 64  1  0  0  0
 49124  1  0  0  0
 50 51  1  0  0  0
 50125  1  0  0  0
 50126  1  0  0  0
 51 52  1  0  0  0
 51127  1  0  0  0
 51128  1  0  0  0
 52129  1  0  0  0
 52130  1  0  0  0
 53 54  1  0  0  0
 54 55  2  0  0  0
 54131  1  0  0  0
 55 57  1  0  0  0
 55132  1  0  0  0
 56 69  2  0  0  0
 57 58  2  0  0  0
 57133  1  0  0  0
 58134  1  0  0  0
 59 60  1  0  0  0
 59 61  1  0  0  0
 59 62  1  0  0  0
 60135  1  0  0  0
 60136  1  0  0  0
 60137  1  0  0  0
 61138  1  0  0  0
 61139  1  0  0  0
 61140  1  0  0  0
 62141  1  0  0  0
 62142  1  0  0  0
 62143  1  0  0  0
 63 65  1  0  0  0
 63144  1  0  0  0
 63145  1  0  0  0
 63146  1  0  0  0
 64147  1  0  0  0
 65148  1  0  0  0
 68 86  1  0  0  0
 71 73  1  0  0  0
 71149  1  0  0  0
 71150  1  0  0  0
 71 77  1  0  0  0
 72 79  1  0  0  0
 72 87  1  0  0  0
 72151  1  0  0  0
 72152  1  0  0  0
 73 88  1  0  0  0
 73153  1  0  0  0
 73154  1  0  0  0
 74 76  1  0  0  0
 74 88  1  0  0  0
 74155  1  0  0  0
 74156  1  0  0  0
 75 78  1  0  0  0
 75157  1  0  0  0
 75158  1  0  0  0
 75 89  1  0  0  0
 76 77  1  0  0  0
 76 80  1  0  0  0
 76159  1  0  0  0
 77 89  1  0  0  0
 77160  1  0  0  0
 78 83  1  0  0  0
 78 87  1  0  0  0
 78161  1  0  0  0
 79 81  1  0  0  0
 79 89  1  0  0  0
 79162  1  0  0  0
 80163  1  0  0  0
 80164  1  0  0  0
 80165  1  0  0  0
 81166  1  0  0  0
 81167  1  0  0  0
 81168  1  0  0  0
 82 84  1  0  0  0
 82169  1  0  0  0
 82170  1  0  0  0
 82171  1  0  0  0
 83 84  1  0  0  0
 83172  1  0  0  0
 83173  1  0  0  0
 84174  1  0  0  0
 84175  1  0  0  0
 85 86  1  0  0  0
 85176  1  0  0  0
 85177  1  0  0  0
 85 88  1  0  0  0
 86178  1  0  0  0
 86179  1  0  0  0
 88180  1  0  0  0
 89181  1  0  0  0
M  CHG  2  88   1  89   1
M  ISO  4   1 100  68 101  86 101  87 100
M  END
> <chiral flag>
0

> <version>
0

> <s_m_source_file>
/data/baiqing/PycharmProjects/Reinvent-master-3.2/result/LINK_invent/BTK/process_docking_weight1_custom_sum_contain_oxygen_bond_distance_aromatic_linkinvent_7_9_3/rearranged_h_0164.sdf

> <i_m_source_file_index>
42

> <r_mmod_Potential_Energy-OPLS-2005>
185.465698242188

> <r_mmod_Stretch_Energy-OPLS-2005>
66.0556564331055

> <r_mmod_Bend_Energy-OPLS-2005>
168.233108520508

> <r_mmod_Torsional_Energy-OPLS-2005>
494.714477539062

> <r_mmod_Improper_Torsional_Energy-OPLS-2005>
6.11384344100952

> <r_mmod_Van_der_Waal_Energy-OPLS-2005>
139.821105957031

> <r_mmod_Electrostatic_Energy-OPLS-2005>
182.17643737793

> <r_mmod_Solvation_Energy-OPLS-2005>
-894.941040039062

> <b_mmod_Minimization_Converged-OPLS-2005>
0

> <r_mmod_RMS_Derivative-OPLS-2005>
6.46715307235718

$$$$
42
                    3D
 Structure written by MMmdl.
171179  0  0  1  0            999 V2000
  -30.5309  -14.8966   20.4601 C   0  0  0  0  0  0
  -30.4518  -12.5559   19.5177 C   0  0  0  0  0  0
  -29.5333  -12.5218   18.2720 C   0  0  0  0  0  0
  -28.0578  -12.3304   18.6700 C   0  0  0  0  0  0
  -27.6356  -13.2391   19.8513 C   0  0  2  0  0  0
  -28.6725  -13.2185   20.9959 C   0  0  0  0  0  0
  -25.2449  -13.8219   20.5665 C   0  0  0  0  0  0
  -24.1740  -13.0468   20.9189 C   0  0  0  0  0  0
  -24.6363  -11.6950   20.8752 C   0  0  0  0  0  0
  -23.9058  -10.4334   21.0430 C   0  0  0  0  0  0
  -24.3622   -9.4248   21.9207 C   0  0  0  0  0  0
  -23.6287   -8.2294   22.0740 C   0  0  0  0  0  0
  -22.4288   -8.0275   21.3530 C   0  0  0  0  0  0
  -21.9917   -9.0266   20.4652 C   0  0  0  0  0  0
  -22.7225  -10.2156   20.3094 C   0  0  0  0  0  0
  -21.6882   -6.0716   22.5266 C   0  0  0  0  0  0
  -21.4027   -6.5625   23.8184 C   0  0  0  0  0  0
  -21.3684   -5.6770   24.9154 C   0  0  0  0  0  0
  -21.6044   -4.3023   24.7209 C   0  0  0  0  0  0
  -21.8829   -3.8118   23.4322 C   0  0  0  0  0  0
  -21.9206   -4.6946   22.3382 C   0  0  0  0  0  0
  -22.7733  -13.5215   21.1828 C   0  0  0  0  0  0
  -22.1638   -4.2126   21.0949 F   0  0  0  0  0  0
  -21.5689   -3.4505   25.7721 F   0  0  0  0  0  0
  -29.9564  -13.6323   20.4207 N   0  0  0  0  0  0
  -26.2887  -12.9431   20.3249 N   0  0  0  0  0  0
  -25.9287  -11.6581   20.5711 N   0  0  0  0  0  0
  -22.0325  -12.8267   22.0411 N   0  0  0  0  0  0
  -25.4172  -15.1912   20.4113 N   0  0  0  0  0  0
  -31.7309  -14.9829   20.1881 O   0  0  0  0  0  0
  -21.6635   -6.8869   21.4236 O   0  0  0  0  0  0
  -22.3443  -14.5473   20.6581 O   0  0  0  0  0  0
  -24.6423  -31.8466   23.1885 C   0  0  0  0  0  0
  -25.9205  -32.4708   23.8270 C   0  0  1  0  0  0
  -27.2139  -27.1514   20.1666 C   0  0  0  0  0  0
  -25.5968  -33.8512   24.2200 N   0  0  0  0  0  0
  -23.4428  -30.4677   21.5355 C   0  0  2  0  0  0
  -24.8901  -28.8906   20.1117 C   0  0  0  0  0  0
  -22.7541  -29.4580   22.4864 C   0  0  0  0  0  0
  -18.0295  -28.1386   22.8471 C   0  0  0  0  0  0
  -24.1482  -36.7282   23.2639 C   0  0  0  0  0  0
  -25.9948  -30.7249   21.3822 C   0  0  0  0  0  0
  -26.0662  -29.3336   20.7312 C   0  0  0  0  0  0
  -27.2309  -28.4844   20.7384 C   0  0  0  0  0  0
  -26.0177  -26.8034   19.5049 C   0  0  0  0  0  0
  -24.8801  -27.6360   19.4799 C   0  0  0  0  0  0
  -23.6668  -29.7922   20.1554 C   0  0  0  0  0  0
  -25.4113  -36.3047   24.0316 C   0  0  1  0  0  0
  -20.5910  -28.3716   23.1231 C   0  0  2  0  0  0
  -20.6801  -26.9425   22.5394 C   0  0  0  0  0  0
  -19.5779  -26.6369   21.5206 C   0  0  0  0  0  0
  -18.1958  -26.7921   22.1609 C   0  0  0  0  0  0
  -19.1556  -28.8854   23.2840 C   0  0  0  0  0  0
  -18.9475  -30.1464   23.8864 C   0  0  0  0  0  0
  -17.6481  -30.6582   24.0560 C   0  0  0  0  0  0
  -25.9062  -34.9420   23.5056 C   0  0  0  0  0  0
  -16.5366  -29.9081   23.6339 C   0  0  0  0  0  0
  -16.7290  -28.6488   23.0356 C   0  0  0  0  0  0
  -26.4526  -31.6560   25.0699 C   0  0  0  0  0  0
  -25.3721  -31.3765   26.1400 C   0  0  0  0  0  0
  -27.0398  -30.2960   24.6266 C   0  0  0  0  0  0
  -27.6034  -32.4322   25.7522 C   0  0  0  0  0  0
  -27.5570  -37.1807   24.8453 C   0  0  0  0  0  0
  -21.4245  -29.3059   22.3603 N   0  0  0  0  0  0
  -26.4280  -37.3759   23.9392 N   0  0  0  0  0  0
  -24.7140  -31.0331   22.0910 N   0  0  0  0  0  0
  -23.4173  -28.8144   23.3034 O   0  0  0  0  0  0
  -28.2783  -26.1888   20.1898 O   0  0  0  0  0  0
  -26.5641  -34.8909   22.4632 O   0  0  0  0  0  0
  -23.5560  -32.1333   23.7129 O   0  0  0  0  0  0
  -30.0558  -20.2095   18.9810 C   0  0  0  0  0  0
  -29.0324  -20.3355   20.1159 C   0  0  1  0  0  0
  -29.0865  -18.8396   20.8578 C   0  0  2  0  0  0
  -29.8869  -17.5637   20.1102 C   0  0  2  0  0  0
  -29.7353  -17.7038   18.5291 C   0  0  0  0  0  0
  -27.6369  -18.4476   21.2076 C   0  0  0  0  0  0
  -28.4968  -16.8808   18.0913 C   0  0  0  0  0  0
  -30.9652  -17.0992   17.7994 C   0  0  0  0  0  0
  -30.0023  -21.9246   21.9333 C   0  0  0  0  0  0
  -29.7753  -19.4439   16.6371 C   0  0  0  0  0  0
  -28.8156  -23.3308   20.0602 C   0  0  0  0  0  0
  -28.0529  -24.7168   20.6307 C   0  0  0  0  0  0
  -28.9099  -21.8422   20.8548 C   0  0  1  0  0  0
  -29.7166  -16.0568   20.5624 N   0  0  0  0  0  0
  -29.5492  -19.1384   18.0783 N   0  3  2  0  0  0
  -31.4822  -12.7225   19.2061 H   0  0  0  0  0  0
  -30.4552  -11.5942   20.0355 H   0  0  0  0  0  0
  -29.8326  -11.7072   17.6132 H   0  0  0  0  0  0
  -29.6455  -13.4473   17.7024 H   0  0  0  0  0  0
  -27.9338  -11.2841   18.9474 H   0  0  0  0  0  0
  -27.4057  -12.5009   17.8103 H   0  0  0  0  0  0
  -27.6094  -14.2487   19.4503 H   0  0  0  0  0  0
  -28.7503  -12.2180   21.4247 H   0  0  0  0  0  0
  -28.3801  -13.8774   21.8135 H   0  0  0  0  0  0
  -25.2789   -9.5693   22.4734 H   0  0  0  0  0  0
  -24.0014   -7.4698   22.7452 H   0  0  0  0  0  0
  -21.0843   -8.8794   19.8955 H   0  0  0  0  0  0
  -22.3712  -10.9685   19.6174 H   0  0  0  0  0  0
  -21.1973   -7.6119   23.9675 H   0  0  0  0  0  0
  -21.1506   -6.0487   25.9046 H   0  0  0  0  0  0
  -22.0582   -2.7584   23.2817 H   0  0  0  0  0  0
  -22.3922  -12.0015   22.4931 H   0  0  0  0  0  0
  -21.0899  -13.1302   22.2445 H   0  0  0  0  0  0
  -24.6565  -15.8497   20.5426 H   0  0  0  0  0  0
  -26.2633  -15.6297   20.0859 H   0  0  0  0  0  0
  -26.7274  -32.5309   23.1010 H   0  0  0  0  0  0
  -25.0141  -33.9624   25.0365 H   0  0  0  0  0  0
  -22.7447  -31.2934   21.3793 H   0  0  0  0  0  0
  -23.3739  -35.9621   23.3290 H   0  0  0  0  0  0
  -24.3571  -36.8924   22.2056 H   0  0  0  0  0  0
  -23.7235  -37.6478   23.6679 H   0  0  0  0  0  0
  -26.1406  -31.4751   20.6034 H   0  0  0  0  0  0
  -26.8697  -30.7809   22.0186 H   0  0  0  0  0  0
  -28.1302  -28.8260   21.2341 H   0  0  0  0  0  0
  -25.9516  -25.8502   19.0018 H   0  0  0  0  0  0
  -23.9863  -27.2927   18.9767 H   0  0  0  0  0  0
  -23.7975  -30.5624   19.3958 H   0  0  0  0  0  0
  -22.7800  -29.2351   19.8498 H   0  0  0  0  0  0
  -25.1306  -36.1902   25.0814 H   0  0  0  0  0  0
  -21.0007  -28.3324   24.1351 H   0  0  0  0  0  0
  -20.5714  -26.2347   23.3622 H   0  0  0  0  0  0
  -21.6678  -26.7475   22.1181 H   0  0  0  0  0  0
  -19.6968  -25.6271   21.1264 H   0  0  0  0  0  0
  -19.6734  -27.3152   20.6712 H   0  0  0  0  0  0
  -17.4256  -26.6671   21.3997 H   0  0  0  0  0  0
  -18.0360  -26.0049   22.8983 H   0  0  0  0  0  0
  -19.7961  -30.7275   24.2219 H   0  0  0  0  0  0
  -17.5040  -31.6270   24.5166 H   0  0  0  0  0  0
  -15.5373  -30.2977   23.7664 H   0  0  0  0  0  0
  -15.8684  -28.0796   22.7094 H   0  0  0  0  0  0
  -24.5861  -30.7160   25.7730 H   0  0  0  0  0  0
  -24.8970  -32.2966   26.4800 H   0  0  0  0  0  0
  -25.7999  -30.8941   27.0193 H   0  0  0  0  0  0
  -26.3022  -29.6668   24.1276 H   0  0  0  0  0  0
  -27.4022  -29.7262   25.4829 H   0  0  0  0  0  0
  -27.8911  -30.4184   23.9571 H   0  0  0  0  0  0
  -27.2596  -33.3634   26.2033 H   0  0  0  0  0  0
  -28.3918  -32.6857   25.0425 H   0  0  0  0  0  0
  -28.0613  -31.8486   26.5516 H   0  0  0  0  0  0
  -28.2584  -38.0107   24.7503 H   0  0  0  0  0  0
  -28.1074  -36.2639   24.6288 H   0  0  0  0  0  0
  -27.2290  -37.1465   25.8856 H   0  0  0  0  0  0
  -20.9433  -29.8765   21.6781 H   0  0  0  0  0  0
  -26.0158  -38.2841   24.1364 H   0  0  0  0  0  0
  -31.0643  -19.9865   19.3380 H   0  0  0  0  0  0
  -30.1200  -21.1638   18.4583 H   0  0  0  0  0  0
  -28.0756  -20.3329   19.5905 H   0  0  0  0  0  0
  -29.5914  -18.9790   21.8171 H   0  0  0  0  0  0
  -30.9348  -17.7731   20.3271 H   0  0  0  0  0  0
  -27.0564  -18.2056   20.3221 H   0  0  0  0  0  0
  -27.1092  -19.2827   21.6697 H   0  0  0  0  0  0
  -27.5736  -17.6010   21.8915 H   0  0  0  0  0  0
  -28.6547  -15.8149   18.2339 H   0  0  0  0  0  0
  -28.2513  -17.0055   17.0389 H   0  0  0  0  0  0
  -27.5962  -17.1326   18.6414 H   0  0  0  0  0  0
  -31.1920  -16.0839   18.0968 H   0  0  0  0  0  0
  -31.8627  -17.6953   17.9658 H   0  0  0  0  0  0
  -30.8037  -17.0258   16.7230 H   0  0  0  0  0  0
  -29.8893  -21.1282   22.6702 H   0  0  0  0  0  0
  -29.9640  -22.8679   22.4751 H   0  0  0  0  0  0
  -30.9993  -21.8260   21.5015 H   0  0  0  0  0  0
  -29.5012  -20.4785   16.4246 H   0  0  0  0  0  0
  -29.1499  -18.8219   15.9941 H   0  0  0  0  0  0
  -30.8153  -19.3164   16.3397 H   0  0  0  0  0  0
  -29.8419  -23.6240   19.8416 H   0  0  0  0  0  0
  -28.3848  -23.1375   19.0763 H   0  0  0  0  0  0
  -28.2505  -24.7337   21.7030 H   0  0  0  0  0  0
  -26.9838  -24.5153   20.5709 H   0  0  0  0  0  0
  -27.9642  -21.7896   21.3953 H   0  0  0  0  0  0
  -28.7747  -15.8328   20.8371 H   0  0  0  0  0  0
  -28.5527  -19.2722   18.1758 H   0  0  0  0  0  0
  1 25  1  0  0  0
  1 30  2  0  0  0
  1 84  1  0  0  0
  2  3  1  0  0  0
  2 25  1  0  0  0
  2 86  1  0  0  0
  2 87  1  0  0  0
  3  4  1  0  0  0
  3 88  1  0  0  0
  3 89  1  0  0  0
  4  5  1  0  0  0
  4 90  1  0  0  0
  4 91  1  0  0  0
  5  6  1  0  0  0
  5 26  1  0  0  0
  5 92  1  0  0  0
  6 25  1  0  0  0
  6 93  1  0  0  0
  6 94  1  0  0  0
  7  8  2  0  0  0
  7 26  1  0  0  0
  7 29  1  0  0  0
  8  9  1  0  0  0
  8 22  1  0  0  0
  9 10  1  0  0  0
  9 27  2  0  0  0
 10 11  2  0  0  0
 10 15  1  0  0  0
 11 12  1  0  0  0
 11 95  1  0  0  0
 12 13  2  0  0  0
 12 96  1  0  0  0
 13 14  1  0  0  0
 13 31  1  0  0  0
 14 15  2  0  0  0
 14 97  1  0  0  0
 15 98  1  0  0  0
 16 17  2  0  0  0
 16 21  1  0  0  0
 16 31  1  0  0  0
 17 18  1  0  0  0
 17 99  1  0  0  0
 18 19  2  0  0  0
 18100  1  0  0  0
 19 20  1  0  0  0
 19 24  1  0  0  0
 20 21  2  0  0  0
 20101  1  0  0  0
 21 23  1  0  0  0
 22 28  1  0  0  0
 22 32  2  0  0  0
 26 27  1  0  0  0
 28102  1  0  0  0
 28103  1  0  0  0
 29104  1  0  0  0
 29105  1  0  0  0
 33 34  1  0  0  0
 33 66  1  0  0  0
 33 70  2  0  0  0
 34 36  1  0  0  0
 34 59  1  0  0  0
 34106  1  0  0  0
 35 44  2  0  0  0
 35 45  1  0  0  0
 35 68  1  0  0  0
 36 56  1  0  0  0
 36107  1  0  0  0
 37 39  1  0  0  0
 37 47  1  0  0  0
 37 66  1  0  0  0
 37108  1  0  0  0
 38 43  2  0  0  0
 38 46  1  0  0  0
 38 47  1  0  0  0
 39 64  1  0  0  0
 39 67  2  0  0  0
 40 52  1  0  0  0
 40 53  2  0  0  0
 40 58  1  0  0  0
 41109  1  0  0  0
 41110  1  0  0  0
 41111  1  0  0  0
 41 48  1  0  0  0
 42 43  1  0  0  0
 42 66  1  0  0  0
 42112  1  0  0  0
 42113  1  0  0  0
 43 44  1  0  0  0
 44114  1  0  0  0
 45 46  2  0  0  0
 45115  1  0  0  0
 46116  1  0  0  0
 47117  1  0  0  0
 47118  1  0  0  0
 48 56  1  0  0  0
 48 65  1  0  0  0
 48119  1  0  0  0
 49 50  1  0  0  0
 49 53  1  0  0  0
 49 64  1  0  0  0
 49120  1  0  0  0
 50 51  1  0  0  0
 50121  1  0  0  0
 50122  1  0  0  0
 51 52  1  0  0  0
 51123  1  0  0  0
 51124  1  0  0  0
 52125  1  0  0  0
 52126  1  0  0  0
 53 54  1  0  0  0
 54 55  2  0  0  0
 54127  1  0  0  0
 55 57  1  0  0  0
 55128  1  0  0  0
 56 69  2  0  0  0
 57 58  2  0  0  0
 57129  1  0  0  0
 58130  1  0  0  0
 59 60  1  0  0  0
 59 61  1  0  0  0
 59 62  1  0  0  0
 60131  1  0  0  0
 60132  1  0  0  0
 60133  1  0  0  0
 61134  1  0  0  0
 61135  1  0  0  0
 61136  1  0  0  0
 62137  1  0  0  0
 62138  1  0  0  0
 62139  1  0  0  0
 63 65  1  0  0  0
 63140  1  0  0  0
 63141  1  0  0  0
 63142  1  0  0  0
 64143  1  0  0  0
 65144  1  0  0  0
 68 82  1  0  0  0
 71 85  1  0  0  0
 71145  1  0  0  0
 71146  1  0  0  0
 71 72  1  0  0  0
 72 73  1  0  0  0
 72 83  1  0  0  0
 72147  1  0  0  0
 73 74  1  0  0  0
 73 76  1  0  0  0
 73148  1  0  0  0
 74 75  1  0  0  0
 74 84  1  0  0  0
 74149  1  0  0  0
 75 77  1  0  0  0
 75 78  1  0  0  0
 75 85  1  0  0  0
 76150  1  0  0  0
 76151  1  0  0  0
 76152  1  0  0  0
 77153  1  0  0  0
 77154  1  0  0  0
 77155  1  0  0  0
 78156  1  0  0  0
 78157  1  0  0  0
 78158  1  0  0  0
 79159  1  0  0  0
 79160  1  0  0  0
 79161  1  0  0  0
 79 83  1  0  0  0
 80162  1  0  0  0
 80163  1  0  0  0
 80164  1  0  0  0
 80 85  1  0  0  0
 81 82  1  0  0  0
 81 83  1  0  0  0
 81165  1  0  0  0
 81166  1  0  0  0
 82167  1  0  0  0
 82168  1  0  0  0
 83169  1  0  0  0
 84170  1  0  0  0
 85171  1  0  0  0
M  CHG  1  85   1
M  ISO  4   1 100  68 101  82 101  84 100
M  END
> <chiral flag>
0

> <version>
0

> <s_m_source_file>
/data/baiqing/PycharmProjects/Reinvent-master-3.2/result/LINK_invent/BTK/process_docking_weight1_custom_sum_contain_oxygen_bond_distance_aromatic_linkinvent_7_9_3/rearranged_h_0164.sdf

> <i_m_source_file_index>
43

> <r_mmod_Potential_Energy-OPLS-2005>
436.321807861328

> <r_mmod_Stretch_Energy-OPLS-2005>
264.401885986328

> <r_mmod_Bend_Energy-OPLS-2005>
283.676239013672

> <r_mmod_Torsional_Energy-OPLS-2005>
330.205688476562

> <r_mmod_Improper_Torsional_Energy-OPLS-2005>
5.72677993774414

> <r_mmod_Van_der_Waal_Energy-OPLS-2005>
123.084037780762

> <r_mmod_Electrostatic_Energy-OPLS-2005>
-304.922424316406

> <r_mmod_Solvation_Energy-OPLS-2005>
-430.745910644531

> <b_mmod_Minimization_Converged-OPLS-2005>
0

> <r_mmod_RMS_Derivative-OPLS-2005>
6.20630693435669

$$$$
43
                    3D
 Structure written by MMmdl.
170179  0  0  1  0            999 V2000
  -30.7499  -14.6891   20.4627 C   0  0  0  0  0  0
  -30.4026  -12.4418   19.4532 C   0  0  0  0  0  0
  -29.4845  -12.4898   18.2182 C   0  0  0  0  0  0
  -28.0193  -12.3137   18.6506 C   0  0  0  0  0  0
  -27.6344  -13.2305   19.8438 C   0  0  2  0  0  0
  -28.6953  -13.1961   20.9690 C   0  0  0  0  0  0
  -25.2504  -13.8203   20.5744 C   0  0  0  0  0  0
  -24.1790  -13.0442   20.9224 C   0  0  0  0  0  0
  -24.6382  -11.6919   20.8772 C   0  0  0  0  0  0
  -23.9057  -10.4299   21.0418 C   0  0  0  0  0  0
  -24.3608   -9.4208   21.9189 C   0  0  0  0  0  0
  -23.6289   -8.2237   22.0744 C   0  0  0  0  0  0
  -22.4277   -8.0271   21.3528 C   0  0  0  0  0  0
  -21.9908   -9.0252   20.4640 C   0  0  0  0  0  0
  -22.7231  -10.2140   20.3059 C   0  0  0  0  0  0
  -21.6857   -6.0723   22.5271 C   0  0  0  0  0  0
  -21.4021   -6.5628   23.8206 C   0  0  0  0  0  0
  -21.3664   -5.6776   24.9166 C   0  0  0  0  0  0
  -21.6050   -4.3040   24.7219 C   0  0  0  0  0  0
  -21.8824   -3.8134   23.4341 C   0  0  0  0  0  0
  -21.9197   -4.6951   22.3399 C   0  0  0  0  0  0
  -22.7810  -13.5229   21.1851 C   0  0  0  0  0  0
  -22.1661   -4.2130   21.0976 F   0  0  0  0  0  0
  -21.5631   -3.4530   25.7739 F   0  0  0  0  0  0
  -29.9801  -13.5471   20.3518 N   0  0  0  0  0  0
  -26.2927  -12.9407   20.3343 N   0  0  0  0  0  0
  -25.9320  -11.6550   20.5814 N   0  0  0  0  0  0
  -22.0442  -12.8245   22.0419 N   0  0  0  0  0  0
  -25.4186  -15.1929   20.4159 N   0  0  0  0  0  0
  -31.9533  -14.5663   20.2280 O   0  0  0  0  0  0
  -21.6638   -6.8868   21.4230 O   0  0  0  0  0  0
  -22.3504  -14.5521   20.6661 O   0  0  0  0  0  0
  -24.6291  -31.8598   23.2030 C   0  0  0  0  0  0
  -25.9129  -32.4777   23.8362 C   0  0  1  0  0  0
  -27.2135  -27.2944   20.1168 C   0  0  0  0  0  0
  -25.5937  -33.8577   24.2285 N   0  0  0  0  0  0
  -23.4236  -30.4862   21.5461 C   0  0  2  0  0  0
  -24.8678  -28.9463   20.1090 C   0  0  0  0  0  0
  -22.7492  -29.4630   22.4920 C   0  0  0  0  0  0
  -18.0295  -28.1394   22.8486 C   0  0  0  0  0  0
  -24.1490  -36.7297   23.2638 C   0  0  0  0  0  0
  -25.9693  -30.7821   21.3804 C   0  0  0  0  0  0
  -26.0416  -29.4103   20.7181 C   0  0  0  0  0  0
  -27.2187  -28.5969   20.7124 C   0  0  0  0  0  0
  -26.0155  -26.9025   19.4704 C   0  0  0  0  0  0
  -24.8587  -27.6977   19.4759 C   0  0  0  0  0  0
  -23.6386  -29.8285   20.1598 C   0  0  0  0  0  0
  -25.4114  -36.3080   24.0329 C   0  0  1  0  0  0
  -20.5898  -28.3702   23.1276 C   0  0  2  0  0  0
  -20.6783  -26.9425   22.5407 C   0  0  0  0  0  0
  -19.5754  -26.6392   21.5214 C   0  0  0  0  0  0
  -18.1935  -26.7939   22.1625 C   0  0  0  0  0  0
  -19.1548  -28.8866   23.2878 C   0  0  0  0  0  0
  -18.9469  -30.1465   23.8897 C   0  0  0  0  0  0
  -17.6467  -30.6595   24.0567 C   0  0  0  0  0  0
  -25.9057  -34.9450   23.5105 C   0  0  0  0  0  0
  -16.5359  -29.9091   23.6334 C   0  0  0  0  0  0
  -16.7280  -28.6510   23.0356 C   0  0  0  0  0  0
  -26.4505  -31.6590   25.0738 C   0  0  0  0  0  0
  -25.3738  -31.3745   26.1470 C   0  0  0  0  0  0
  -27.0347  -30.3003   24.6217 C   0  0  0  0  0  0
  -27.6070  -32.4329   25.7498 C   0  0  0  0  0  0
  -27.5584  -37.1797   24.8464 C   0  0  0  0  0  0
  -21.4209  -29.3049   22.3661 N   0  0  0  0  0  0
  -26.4293  -37.3775   23.9413 N   0  0  0  0  0  0
  -24.6929  -31.0594   22.0989 N   0  0  0  0  0  0
  -23.4207  -28.8165   23.3006 O   0  0  0  0  0  0
  -28.2961  -26.3902   20.1867 O   0  0  0  0  0  0
  -26.5621  -34.8915   22.4671 O   0  0  0  0  0  0
  -23.5439  -32.1412   23.7332 O   0  0  0  0  0  0
  -30.1917  -23.7571   18.5524 C   0  0  0  0  0  0
  -30.3882  -21.0036   18.2197 C   0  0  0  0  0  0
  -30.8549  -23.2513   17.4230 C   0  0  0  0  0  0
  -29.5956  -22.9191   19.5247 C   0  0  0  0  0  0
  -30.9281  -21.8601   17.2420 C   0  0  0  0  0  0
  -29.7283  -21.4663   19.3948 C   0  0  0  0  0  0
  -30.9100  -18.5782   20.4167 C   0  0  0  0  0  0
  -28.6511  -18.0624   20.9943 C   0  0  0  0  0  0
  -31.1980  -17.0872   20.0516 C   0  0  0  0  0  0
  -28.8570  -16.5147   20.6914 C   0  0  0  0  0  0
  -29.4760  -19.0431   20.1145 C   0  0  0  0  0  0
  -31.4773  -24.2095   16.4205 C   0  0  0  0  0  0
  -31.5973  -21.2662   16.0119 C   0  0  0  0  0  0
  -29.8349  -24.1160   21.7694 C   0  0  0  0  0  0
  -27.9314  -24.9407   20.1964 C   0  0  0  0  0  0
  -28.8651  -23.7115   20.6507 C   0  0  1  0  0  0
  -30.2468  -16.0039   20.4886 N   0  0  0  0  0  0
  -29.2630  -20.5055   20.3308 O   0  0  0  0  0  0
  -31.4425  -12.5075   19.1298 H   0  0  0  0  0  0
  -30.3230  -11.4781   19.9591 H   0  0  0  0  0  0
  -29.7624  -11.7090   17.5085 H   0  0  0  0  0  0
  -29.6072  -13.4400   17.6954 H   0  0  0  0  0  0
  -27.8894  -11.2681   18.9350 H   0  0  0  0  0  0
  -27.3500  -12.4840   17.8061 H   0  0  0  0  0  0
  -27.6125  -14.2374   19.4345 H   0  0  0  0  0  0
  -28.7466  -12.2030   21.4176 H   0  0  0  0  0  0
  -28.4453  -13.8684   21.7867 H   0  0  0  0  0  0
  -25.2753   -9.5691   22.4758 H   0  0  0  0  0  0
  -23.9989   -7.4643   22.7481 H   0  0  0  0  0  0
  -21.0829   -8.8784   19.8973 H   0  0  0  0  0  0
  -22.3683  -10.9673   19.6169 H   0  0  0  0  0  0
  -21.2007   -7.6134   23.9701 H   0  0  0  0  0  0
  -21.1482   -6.0505   25.9064 H   0  0  0  0  0  0
  -22.0602   -2.7592   23.2846 H   0  0  0  0  0  0
  -22.4044  -11.9922   22.4858 H   0  0  0  0  0  0
  -21.1052  -13.1283   22.2588 H   0  0  0  0  0  0
  -24.6533  -15.8476   20.5338 H   0  0  0  0  0  0
  -26.2747  -15.6336   20.1075 H   0  0  0  0  0  0
  -26.7197  -32.5438   23.1107 H   0  0  0  0  0  0
  -25.0063  -33.9725   25.0412 H   0  0  0  0  0  0
  -22.7182  -31.3078   21.4060 H   0  0  0  0  0  0
  -23.3749  -35.9631   23.3298 H   0  0  0  0  0  0
  -24.3584  -36.8919   22.2053 H   0  0  0  0  0  0
  -23.7243  -37.6498   23.6663 H   0  0  0  0  0  0
  -26.1095  -31.5472   20.6152 H   0  0  0  0  0  0
  -26.8467  -30.8259   22.0142 H   0  0  0  0  0  0
  -28.1137  -28.9423   21.2103 H   0  0  0  0  0  0
  -25.9276  -25.9556   18.9620 H   0  0  0  0  0  0
  -23.9612  -27.3382   18.9915 H   0  0  0  0  0  0
  -23.7609  -30.6089   19.4076 H   0  0  0  0  0  0
  -22.7573  -29.2616   19.8542 H   0  0  0  0  0  0
  -25.1290  -36.1927   25.0820 H   0  0  0  0  0  0
  -20.9997  -28.3277   24.1395 H   0  0  0  0  0  0
  -20.5697  -26.2310   23.3607 H   0  0  0  0  0  0
  -21.6648  -26.7457   22.1195 H   0  0  0  0  0  0
  -19.6919  -25.6304   21.1243 H   0  0  0  0  0  0
  -19.6692  -27.3200   20.6744 H   0  0  0  0  0  0
  -17.4206  -26.6693   21.4023 H   0  0  0  0  0  0
  -18.0333  -26.0084   22.9024 H   0  0  0  0  0  0
  -19.7945  -30.7283   24.2263 H   0  0  0  0  0  0
  -17.5024  -31.6273   24.5173 H   0  0  0  0  0  0
  -15.5361  -30.2995   23.7664 H   0  0  0  0  0  0
  -15.8680  -28.0830   22.7072 H   0  0  0  0  0  0
  -24.5891  -30.7122   25.7795 H   0  0  0  0  0  0
  -24.8962  -32.2924   26.4908 H   0  0  0  0  0  0
  -25.8059  -30.8901   27.0236 H   0  0  0  0  0  0
  -26.2926  -29.6748   24.1241 H   0  0  0  0  0  0
  -27.4026  -29.7265   25.4731 H   0  0  0  0  0  0
  -27.8808  -30.4271   23.9463 H   0  0  0  0  0  0
  -27.2682  -33.3619   26.2097 H   0  0  0  0  0  0
  -28.3859  -32.6913   25.0315 H   0  0  0  0  0  0
  -28.0771  -31.8453   26.5390 H   0  0  0  0  0  0
  -28.2595  -38.0098   24.7512 H   0  0  0  0  0  0
  -28.1083  -36.2629   24.6280 H   0  0  0  0  0  0
  -27.2312  -37.1439   25.8869 H   0  0  0  0  0  0
  -20.9384  -29.8775   21.6876 H   0  0  0  0  0  0
  -26.0173  -38.2848   24.1417 H   0  0  0  0  0  0
  -30.1335  -24.8304   18.6749 H   0  0  0  0  0  0
  -30.5174  -19.9530   18.0211 H   0  0  0  0  0  0
  -31.6341  -19.2070   19.8995 H   0  0  0  0  0  0
  -31.1182  -18.7332   21.4760 H   0  0  0  0  0  0
  -28.8825  -18.2497   22.0443 H   0  0  0  0  0  0
  -27.5918  -18.3019   20.8925 H   0  0  0  0  0  0
  -32.2024  -16.9001   20.4369 H   0  0  0  0  0  0
  -31.2805  -17.0114   18.9662 H   0  0  0  0  0  0
  -28.3125  -16.2965   19.7745 H   0  0  0  0  0  0
  -28.3714  -15.9601   21.4914 H   0  0  0  0  0  0
  -29.1981  -18.7945   19.0904 H   0  0  0  0  0  0
  -31.4362  -25.2410   16.7703 H   0  0  0  0  0  0
  -30.9567  -24.1594   15.4635 H   0  0  0  0  0  0
  -32.5270  -23.9630   16.2548 H   0  0  0  0  0  0
  -31.3984  -20.1983   15.9193 H   0  0  0  0  0  0
  -32.6778  -21.4059   16.0589 H   0  0  0  0  0  0
  -31.2298  -21.7439   15.1028 H   0  0  0  0  0  0
  -30.3553  -23.2440   22.1679 H   0  0  0  0  0  0
  -29.3046  -24.5907   22.5953 H   0  0  0  0  0  0
  -30.5860  -24.8188   21.4078 H   0  0  0  0  0  0
  -27.0757  -24.8770   20.8708 H   0  0  0  0  0  0
  -27.5493  -24.6706   19.2129 H   0  0  0  0  0  0
  -28.1856  -22.9727   21.0789 H   0  0  0  0  0  0
  1 25  1  0  0  0
  1 30  2  0  0  0
  1 87  1  0  0  0
  2  3  1  0  0  0
  2 25  1  0  0  0
  2 89  1  0  0  0
  2 90  1  0  0  0
  3  4  1  0  0  0
  3 91  1  0  0  0
  3 92  1  0  0  0
  4  5  1  0  0  0
  4 93  1  0  0  0
  4 94  1  0  0  0
  5  6  1  0  0  0
  5 26  1  0  0  0
  5 95  1  0  0  0
  6 25  1  0  0  0
  6 96  1  0  0  0
  6 97  1  0  0  0
  7  8  2  0  0  0
  7 26  1  0  0  0
  7 29  1  0  0  0
  8  9  1  0  0  0
  8 22  1  0  0  0
  9 10  1  0  0  0
  9 27  2  0  0  0
 10 11  2  0  0  0
 10 15  1  0  0  0
 11 12  1  0  0  0
 11 98  1  0  0  0
 12 13  2  0  0  0
 12 99  1  0  0  0
 13 14  1  0  0  0
 13 31  1  0  0  0
 14 15  2  0  0  0
 14100  1  0  0  0
 15101  1  0  0  0
 16 17  2  0  0  0
 16 21  1  0  0  0
 16 31  1  0  0  0
 17 18  1  0  0  0
 17102  1  0  0  0
 18 19  2  0  0  0
 18103  1  0  0  0
 19 20  1  0  0  0
 19 24  1  0  0  0
 20 21  2  0  0  0
 20104  1  0  0  0
 21 23  1  0  0  0
 22 28  1  0  0  0
 22 32  2  0  0  0
 26 27  1  0  0  0
 28105  1  0  0  0
 28106  1  0  0  0
 29107  1  0  0  0
 29108  1  0  0  0
 33 34  1  0  0  0
 33 66  1  0  0  0
 33 70  2  0  0  0
 34 36  1  0  0  0
 34 59  1  0  0  0
 34109  1  0  0  0
 35 44  2  0  0  0
 35 45  1  0  0  0
 35 68  1  0  0  0
 36 56  1  0  0  0
 36110  1  0  0  0
 37 39  1  0  0  0
 37 47  1  0  0  0
 37 66  1  0  0  0
 37111  1  0  0  0
 38 43  2  0  0  0
 38 46  1  0  0  0
 38 47  1  0  0  0
 39 64  1  0  0  0
 39 67  2  0  0  0
 40 52  1  0  0  0
 40 53  2  0  0  0
 40 58  1  0  0  0
 41112  1  0  0  0
 41113  1  0  0  0
 41114  1  0  0  0
 41 48  1  0  0  0
 42 43  1  0  0  0
 42 66  1  0  0  0
 42115  1  0  0  0
 42116  1  0  0  0
 43 44  1  0  0  0
 44117  1  0  0  0
 45 46  2  0  0  0
 45118  1  0  0  0
 46119  1  0  0  0
 47120  1  0  0  0
 47121  1  0  0  0
 48 56  1  0  0  0
 48 65  1  0  0  0
 48122  1  0  0  0
 49 50  1  0  0  0
 49 53  1  0  0  0
 49 64  1  0  0  0
 49123  1  0  0  0
 50 51  1  0  0  0
 50124  1  0  0  0
 50125  1  0  0  0
 51 52  1  0  0  0
 51126  1  0  0  0
 51127  1  0  0  0
 52128  1  0  0  0
 52129  1  0  0  0
 53 54  1  0  0  0
 54 55  2  0  0  0
 54130  1  0  0  0
 55 57  1  0  0  0
 55131  1  0  0  0
 56 69  2  0  0  0
 57 58  2  0  0  0
 57132  1  0  0  0
 58133  1  0  0  0
 59 60  1  0  0  0
 59 61  1  0  0  0
 59 62  1  0  0  0
 60134  1  0  0  0
 60135  1  0  0  0
 60136  1  0  0  0
 61137  1  0  0  0
 61138  1  0  0  0
 61139  1  0  0  0
 62140  1  0  0  0
 62141  1  0  0  0
 62142  1  0  0  0
 63 65  1  0  0  0
 63143  1  0  0  0
 63144  1  0  0  0
 63145  1  0  0  0
 64146  1  0  0  0
 65147  1  0  0  0
 68 85  1  0  0  0
 71 73  2  0  0  0
 71 74  1  0  0  0
 71148  1  0  0  0
 72 75  2  0  0  0
 72 76  1  0  0  0
 72149  1  0  0  0
 73 75  1  0  0  0
 73 82  1  0  0  0
 74 76  2  0  0  0
 74 86  1  0  0  0
 75 83  1  0  0  0
 76 88  1  0  0  0
 77 79  1  0  0  0
 77 81  1  0  0  0
 77150  1  0  0  0
 77151  1  0  0  0
 78 80  1  0  0  0
 78 81  1  0  0  0
 78152  1  0  0  0
 78153  1  0  0  0
 79 87  1  0  0  0
 79154  1  0  0  0
 79155  1  0  0  0
 80 87  1  0  0  0
 80156  1  0  0  0
 80157  1  0  0  0
 81 88  1  0  0  0
 81158  1  0  0  0
 82159  1  0  0  0
 82160  1  0  0  0
 82161  1  0  0  0
 83162  1  0  0  0
 83163  1  0  0  0
 83164  1  0  0  0
 84165  1  0  0  0
 84166  1  0  0  0
 84167  1  0  0  0
 84 86  1  0  0  0
 85 86  1  0  0  0
 85168  1  0  0  0
 85169  1  0  0  0
 86170  1  0  0  0
M  ISO  4   1 100  68 101  85 101  87 100
M  END
> <chiral flag>
0

> <version>
0

> <s_m_source_file>
/data/baiqing/PycharmProjects/Reinvent-master-3.2/result/LINK_invent/BTK/process_docking_weight1_custom_sum_contain_oxygen_bond_distance_aromatic_linkinvent_7_9_3/rearranged_h_0164.sdf

> <i_m_source_file_index>
44

> <r_mmod_Potential_Energy-OPLS-2005>
397.604553222656

> <r_mmod_Stretch_Energy-OPLS-2005>
112.260787963867

> <r_mmod_Bend_Energy-OPLS-2005>
223.209457397461

> <r_mmod_Torsional_Energy-OPLS-2005>
307.756195068359

> <r_mmod_Improper_Torsional_Energy-OPLS-2005>
8.74581432342529

> <r_mmod_Van_der_Waal_Energy-OPLS-2005>
172.985702514648

> <r_mmod_Electrostatic_Energy-OPLS-2005>
-306.520690917969

> <r_mmod_Solvation_Energy-OPLS-2005>
-201.7998046875

> <b_mmod_Minimization_Converged-OPLS-2005>
0

> <r_mmod_RMS_Derivative-OPLS-2005>
1.74014317989349

$$$$
44
                    3D
 Structure written by MMmdl.
160169  0  0  1  0            999 V2000
  -30.7101  -14.6128   20.5221 C   0  0  0  0  0  0
  -30.4085  -12.3894   19.4522 C   0  0  0  0  0  0
  -29.4898  -12.5069   18.2193 C   0  0  0  0  0  0
  -28.0185  -12.3297   18.6374 C   0  0  0  0  0  0
  -27.6424  -13.2077   19.8588 C   0  0  2  0  0  0
  -28.6944  -13.0971   20.9906 C   0  0  0  0  0  0
  -25.2500  -13.8134   20.5673 C   0  0  0  0  0  0
  -24.1779  -13.0410   20.9209 C   0  0  0  0  0  0
  -24.6351  -11.6887   20.8768 C   0  0  0  0  0  0
  -23.9036  -10.4273   21.0431 C   0  0  0  0  0  0
  -24.3598   -9.4192   21.9207 C   0  0  0  0  0  0
  -23.6279   -8.2222   22.0761 C   0  0  0  0  0  0
  -22.4264   -8.0258   21.3549 C   0  0  0  0  0  0
  -21.9896   -9.0230   20.4653 C   0  0  0  0  0  0
  -22.7213  -10.2113   20.3074 C   0  0  0  0  0  0
  -21.6840   -6.0722   22.5282 C   0  0  0  0  0  0
  -21.3998   -6.5632   23.8215 C   0  0  0  0  0  0
  -21.3661   -5.6793   24.9181 C   0  0  0  0  0  0
  -21.6044   -4.3053   24.7230 C   0  0  0  0  0  0
  -21.8814   -3.8141   23.4352 C   0  0  0  0  0  0
  -21.9183   -4.6954   22.3405 C   0  0  0  0  0  0
  -22.7805  -13.5214   21.1858 C   0  0  0  0  0  0
  -22.1655   -4.2140   21.0984 F   0  0  0  0  0  0
  -21.5651   -3.4539   25.7746 F   0  0  0  0  0  0
  -30.0010  -13.4390   20.4136 N   0  0  0  0  0  0
  -26.2928  -12.9305   20.3339 N   0  0  0  0  0  0
  -25.9279  -11.6473   20.5803 N   0  0  0  0  0  0
  -22.0438  -12.8229   22.0423 N   0  0  0  0  0  0
  -25.4152  -15.1844   20.3997 N   0  0  0  0  0  0
  -31.8792  -14.6467   20.1242 O   0  0  0  0  0  0
  -21.6631   -6.8859   21.4242 O   0  0  0  0  0  0
  -22.3508  -14.5519   20.6692 O   0  0  0  0  0  0
  -24.6201  -31.8619   23.2034 C   0  0  0  0  0  0
  -25.9062  -32.4791   23.8358 C   0  0  1  0  0  0
  -27.2387  -27.3626   20.1088 C   0  0  0  0  0  0
  -25.5897  -33.8591   24.2283 N   0  0  0  0  0  0
  -23.4127  -30.4832   21.5439 C   0  0  2  0  0  0
  -24.8609  -28.9389   20.1106 C   0  0  0  0  0  0
  -22.7448  -29.4621   22.4946 C   0  0  0  0  0  0
  -18.0280  -28.1376   22.8492 C   0  0  0  0  0  0
  -24.1482  -36.7303   23.2639 C   0  0  0  0  0  0
  -25.9475  -30.8054   21.3676 C   0  0  0  0  0  0
  -26.0230  -29.4345   20.7134 C   0  0  0  0  0  0
  -27.2089  -28.6535   20.7090 C   0  0  0  0  0  0
  -26.0473  -26.8941   19.5073 C   0  0  0  0  0  0
  -24.8720  -27.6722   19.5035 C   0  0  0  0  0  0
  -23.6255  -29.8126   20.1593 C   0  0  0  0  0  0
  -25.4106  -36.3096   24.0335 C   0  0  1  0  0  0
  -20.5877  -28.3668   23.1295 C   0  0  2  0  0  0
  -20.6762  -26.9395   22.5414 C   0  0  0  0  0  0
  -19.5744  -26.6376   21.5212 C   0  0  0  0  0  0
  -18.1922  -26.7922   22.1620 C   0  0  0  0  0  0
  -19.1532  -28.8837   23.2890 C   0  0  0  0  0  0
  -18.9459  -30.1446   23.8900 C   0  0  0  0  0  0
  -17.6459  -30.6581   24.0561 C   0  0  0  0  0  0
  -25.9043  -34.9464   23.5113 C   0  0  0  0  0  0
  -16.5351  -29.9079   23.6328 C   0  0  0  0  0  0
  -16.7269  -28.6497   23.0354 C   0  0  0  0  0  0
  -26.4469  -31.6598   25.0718 C   0  0  0  0  0  0
  -25.3722  -31.3733   26.1466 C   0  0  0  0  0  0
  -27.0295  -30.3024   24.6144 C   0  0  0  0  0  0
  -27.6045  -32.4323   25.7479 C   0  0  0  0  0  0
  -27.5585  -37.1795   24.8454 C   0  0  0  0  0  0
  -21.4165  -29.3029   22.3694 N   0  0  0  0  0  0
  -26.4284  -37.3792   23.9422 N   0  0  0  0  0  0
  -24.6784  -31.0664   22.0960 N   0  0  0  0  0  0
  -23.4193  -28.8171   23.3008 O   0  0  0  0  0  0
  -28.4044  -26.6000   20.1773 O   0  0  0  0  0  0
  -26.5615  -34.8929   22.4682 O   0  0  0  0  0  0
  -23.5372  -32.1397   23.7389 O   0  0  0  0  0  0
  -29.5740  -22.4373   21.7625 C   0  0  0  0  0  0
  -28.6372  -21.6526   19.7142 C   0  0  0  0  0  0
  -29.3539  -23.7711   21.3249 C   0  0  0  0  0  0
  -29.2405  -21.3257   20.9539 C   0  0  0  0  0  0
  -28.7508  -23.9957   20.0611 C   0  0  0  0  0  0
  -30.9781  -18.1852   20.7755 C   0  0  0  0  0  0
  -28.5242  -17.8001   21.1036 C   0  0  0  0  0  0
  -31.0203  -16.8468   21.5860 C   0  0  0  0  0  0
  -28.8097  -16.3162   20.6765 C   0  0  0  0  0  0
  -29.5762  -18.8383   20.6396 C   0  0  0  0  0  0
  -29.8073  -24.9223   22.2081 C   0  0  0  0  0  0
  -28.6127  -25.3981   19.3730 C   0  0  0  0  0  0
  -28.4015  -22.9287   19.2926 N   0  0  0  0  0  0
  -30.1478  -15.7708   21.0368 N   0  0  0  0  0  0
  -29.5038  -20.0419   21.4557 O   0  0  0  0  0  0
  -31.4542  -12.4664   19.1504 H   0  0  0  0  0  0
  -30.3118  -11.4009   19.9047 H   0  0  0  0  0  0
  -29.7577  -11.7598   17.4715 H   0  0  0  0  0  0
  -29.6260  -13.4802   17.7448 H   0  0  0  0  0  0
  -27.8690  -11.2764   18.8776 H   0  0  0  0  0  0
  -27.3546  -12.5462   17.7985 H   0  0  0  0  0  0
  -27.6386  -14.2250   19.4781 H   0  0  0  0  0  0
  -28.7152  -12.0823   21.3902 H   0  0  0  0  0  0
  -28.4516  -13.7296   21.8439 H   0  0  0  0  0  0
  -25.2732   -9.5677   22.4797 H   0  0  0  0  0  0
  -23.9988   -7.4608   22.7477 H   0  0  0  0  0  0
  -21.0828   -8.8738   19.8957 H   0  0  0  0  0  0
  -22.3663  -10.9657   19.6195 H   0  0  0  0  0  0
  -21.1979   -7.6144   23.9711 H   0  0  0  0  0  0
  -21.1503   -6.0530   25.9087 H   0  0  0  0  0  0
  -22.0591   -2.7601   23.2852 H   0  0  0  0  0  0
  -22.4032  -11.9886   22.4827 H   0  0  0  0  0  0
  -21.1065  -13.1283   22.2637 H   0  0  0  0  0  0
  -24.6426  -15.8329   20.5071 H   0  0  0  0  0  0
  -26.2592  -15.6249   20.0592 H   0  0  0  0  0  0
  -26.7131  -32.5473   23.1115 H   0  0  0  0  0  0
  -25.0040  -33.9740   25.0425 H   0  0  0  0  0  0
  -22.7047  -31.3016   21.3994 H   0  0  0  0  0  0
  -23.3756  -35.9623   23.3281 H   0  0  0  0  0  0
  -24.3578  -36.8942   22.2056 H   0  0  0  0  0  0
  -23.7215  -37.6493   23.6669 H   0  0  0  0  0  0
  -26.0708  -31.5685   20.5977 H   0  0  0  0  0  0
  -26.8311  -30.8575   21.9920 H   0  0  0  0  0  0
  -28.1032  -29.0306   21.1851 H   0  0  0  0  0  0
  -25.9851  -25.9117   19.0644 H   0  0  0  0  0  0
  -23.9755  -27.2799   19.0427 H   0  0  0  0  0  0
  -23.7387  -30.5857   19.3984 H   0  0  0  0  0  0
  -22.7491  -29.2342   19.8617 H   0  0  0  0  0  0
  -25.1282  -36.1949   25.0824 H   0  0  0  0  0  0
  -20.9975  -28.3233   24.1413 H   0  0  0  0  0  0
  -20.5651  -26.2277   23.3611 H   0  0  0  0  0  0
  -21.6631  -26.7416   22.1206 H   0  0  0  0  0  0
  -19.6897  -25.6286   21.1242 H   0  0  0  0  0  0
  -19.6689  -27.3187   20.6744 H   0  0  0  0  0  0
  -17.4196  -26.6683   21.4016 H   0  0  0  0  0  0
  -18.0314  -26.0057   22.9003 H   0  0  0  0  0  0
  -19.7935  -30.7260   24.2265 H   0  0  0  0  0  0
  -17.5016  -31.6260   24.5160 H   0  0  0  0  0  0
  -15.5351  -30.2985   23.7649 H   0  0  0  0  0  0
  -15.8667  -28.0817   22.7069 H   0  0  0  0  0  0
  -24.5861  -30.7123   25.7794 H   0  0  0  0  0  0
  -24.8955  -32.2901   26.4941 H   0  0  0  0  0  0
  -25.8050  -30.8862   27.0211 H   0  0  0  0  0  0
  -26.2842  -29.6789   24.1190 H   0  0  0  0  0  0
  -27.4024  -29.7268   25.4624 H   0  0  0  0  0  0
  -27.8702  -30.4315   23.9325 H   0  0  0  0  0  0
  -27.2672  -33.3631   26.2053 H   0  0  0  0  0  0
  -28.3855  -32.6869   25.0302 H   0  0  0  0  0  0
  -28.0714  -31.8450   26.5396 H   0  0  0  0  0  0
  -28.2573  -38.0122   24.7551 H   0  0  0  0  0  0
  -28.1110  -36.2656   24.6210 H   0  0  0  0  0  0
  -27.2314  -37.1354   25.8858 H   0  0  0  0  0  0
  -20.9336  -29.8764   21.6923 H   0  0  0  0  0  0
  -26.0168  -38.2861   24.1464 H   0  0  0  0  0  0
  -30.0347  -22.2606   22.7239 H   0  0  0  0  0  0
  -28.3202  -20.8814   19.0294 H   0  0  0  0  0  0
  -31.3741  -17.9933   19.7773 H   0  0  0  0  0  0
  -31.6686  -18.9037   21.2192 H   0  0  0  0  0  0
  -28.4635  -17.8299   22.1920 H   0  0  0  0  0  0
  -27.5369  -18.1058   20.7565 H   0  0  0  0  0  0
  -30.7097  -17.0356   22.6145 H   0  0  0  0  0  0
  -32.0604  -16.5268   21.6734 H   0  0  0  0  0  0
  -28.6849  -16.2358   19.5958 H   0  0  0  0  0  0
  -28.0362  -15.7128   21.1419 H   0  0  0  0  0  0
  -29.4152  -19.0680   19.5864 H   0  0  0  0  0  0
  -30.2909  -24.5624   23.1178 H   0  0  0  0  0  0
  -28.9575  -25.5374   22.5055 H   0  0  0  0  0  0
  -30.5240  -25.5531   21.6811 H   0  0  0  0  0  0
  -27.9269  -25.3325   18.5308 H   0  0  0  0  0  0
  -29.5779  -25.5605   18.8933 H   0  0  0  0  0  0
  1 25  1  0  0  0
  1 30  2  0  0  0
  1 84  1  0  0  0
  2  3  1  0  0  0
  2 25  1  0  0  0
  2 86  1  0  0  0
  2 87  1  0  0  0
  3  4  1  0  0  0
  3 88  1  0  0  0
  3 89  1  0  0  0
  4  5  1  0  0  0
  4 90  1  0  0  0
  4 91  1  0  0  0
  5  6  1  0  0  0
  5 26  1  0  0  0
  5 92  1  0  0  0
  6 25  1  0  0  0
  6 93  1  0  0  0
  6 94  1  0  0  0
  7  8  2  0  0  0
  7 26  1  0  0  0
  7 29  1  0  0  0
  8  9  1  0  0  0
  8 22  1  0  0  0
  9 10  1  0  0  0
  9 27  2  0  0  0
 10 11  2  0  0  0
 10 15  1  0  0  0
 11 12  1  0  0  0
 11 95  1  0  0  0
 12 13  2  0  0  0
 12 96  1  0  0  0
 13 14  1  0  0  0
 13 31  1  0  0  0
 14 15  2  0  0  0
 14 97  1  0  0  0
 15 98  1  0  0  0
 16 17  2  0  0  0
 16 21  1  0  0  0
 16 31  1  0  0  0
 17 18  1  0  0  0
 17 99  1  0  0  0
 18 19  2  0  0  0
 18100  1  0  0  0
 19 20  1  0  0  0
 19 24  1  0  0  0
 20 21  2  0  0  0
 20101  1  0  0  0
 21 23  1  0  0  0
 22 28  1  0  0  0
 22 32  2  0  0  0
 26 27  1  0  0  0
 28102  1  0  0  0
 28103  1  0  0  0
 29104  1  0  0  0
 29105  1  0  0  0
 33 34  1  0  0  0
 33 66  1  0  0  0
 33 70  2  0  0  0
 34 36  1  0  0  0
 34 59  1  0  0  0
 34106  1  0  0  0
 35 44  2  0  0  0
 35 45  1  0  0  0
 35 68  1  0  0  0
 36 56  1  0  0  0
 36107  1  0  0  0
 37 39  1  0  0  0
 37 47  1  0  0  0
 37 66  1  0  0  0
 37108  1  0  0  0
 38 43  2  0  0  0
 38 46  1  0  0  0
 38 47  1  0  0  0
 39 64  1  0  0  0
 39 67  2  0  0  0
 40 52  1  0  0  0
 40 53  2  0  0  0
 40 58  1  0  0  0
 41109  1  0  0  0
 41110  1  0  0  0
 41111  1  0  0  0
 41 48  1  0  0  0
 42 43  1  0  0  0
 42 66  1  0  0  0
 42112  1  0  0  0
 42113  1  0  0  0
 43 44  1  0  0  0
 44114  1  0  0  0
 45 46  2  0  0  0
 45115  1  0  0  0
 46116  1  0  0  0
 47117  1  0  0  0
 47118  1  0  0  0
 48 56  1  0  0  0
 48 65  1  0  0  0
 48119  1  0  0  0
 49 50  1  0  0  0
 49 53  1  0  0  0
 49 64  1  0  0  0
 49120  1  0  0  0
 50 51  1  0  0  0
 50121  1  0  0  0
 50122  1  0  0  0
 51 52  1  0  0  0
 51123  1  0  0  0
 51124  1  0  0  0
 52125  1  0  0  0
 52126  1  0  0  0
 53 54  1  0  0  0
 54 55  2  0  0  0
 54127  1  0  0  0
 55 57  1  0  0  0
 55128  1  0  0  0
 56 69  2  0  0  0
 57 58  2  0  0  0
 57129  1  0  0  0
 58130  1  0  0  0
 59 60  1  0  0  0
 59 61  1  0  0  0
 59 62  1  0  0  0
 60131  1  0  0  0
 60132  1  0  0  0
 60133  1  0  0  0
 61134  1  0  0  0
 61135  1  0  0  0
 61136  1  0  0  0
 62137  1  0  0  0
 62138  1  0  0  0
 62139  1  0  0  0
 63 65  1  0  0  0
 63140  1  0  0  0
 63141  1  0  0  0
 63142  1  0  0  0
 64143  1  0  0  0
 65144  1  0  0  0
 68 82  1  0  0  0
 71 73  2  0  0  0
 71 74  1  0  0  0
 71145  1  0  0  0
 72 74  2  0  0  0
 72 83  1  0  0  0
 72146  1  0  0  0
 73 75  1  0  0  0
 73 81  1  0  0  0
 74 85  1  0  0  0
 75 82  1  0  0  0
 75 83  2  0  0  0
 76 78  1  0  0  0
 76 80  1  0  0  0
 76147  1  0  0  0
 76148  1  0  0  0
 77 79  1  0  0  0
 77 80  1  0  0  0
 77149  1  0  0  0
 77150  1  0  0  0
 78 84  1  0  0  0
 78151  1  0  0  0
 78152  1  0  0  0
 79 84  1  0  0  0
 79153  1  0  0  0
 79154  1  0  0  0
 80 85  1  0  0  0
 80155  1  0  0  0
 81156  1  0  0  0
 81157  1  0  0  0
 81158  1  0  0  0
 82159  1  0  0  0
 82160  1  0  0  0
M  ISO  4   1 100  68 101  82 101  84 100
M  END
> <chiral flag>
0

> <version>
0

> <s_m_source_file>
/data/baiqing/PycharmProjects/Reinvent-master-3.2/result/LINK_invent/BTK/process_docking_weight1_custom_sum_contain_oxygen_bond_distance_aromatic_linkinvent_7_9_3/rearranged_h_0164.sdf

> <i_m_source_file_index>
45

> <r_mmod_Potential_Energy-OPLS-2005>
191.222381591797

> <r_mmod_Stretch_Energy-OPLS-2005>
68.4543151855469

> <r_mmod_Bend_Energy-OPLS-2005>
169.228378295898

> <r_mmod_Torsional_Energy-OPLS-2005>
325.575012207031

> <r_mmod_Improper_Torsional_Energy-OPLS-2005>
3.74974870681763

> <r_mmod_Van_der_Waal_Energy-OPLS-2005>
163.169036865234

> <r_mmod_Electrostatic_Energy-OPLS-2005>
-364.894927978516

> <r_mmod_Solvation_Energy-OPLS-2005>
-211.432876586914

> <b_mmod_Minimization_Converged-OPLS-2005>
0

> <r_mmod_RMS_Derivative-OPLS-2005>
1.38207066059113

$$$$
45
                    3D
 Structure written by MMmdl.
173183  0  0  1  0            999 V2000
  -30.7028  -14.4841   20.6443 C   0  0  0  0  0  0
  -30.4250  -12.3438   19.4217 C   0  0  0  0  0  0
  -29.4919  -12.5237   18.2063 C   0  0  0  0  0  0
  -28.0158  -12.3480   18.6145 C   0  0  0  0  0  0
  -27.6580  -13.1829   19.8694 C   0  0  2  0  0  0
  -28.7000  -12.9395   20.9918 C   0  0  0  0  0  0
  -25.2571  -13.8093   20.5618 C   0  0  0  0  0  0
  -24.1829  -13.0397   20.9179 C   0  0  0  0  0  0
  -24.6366  -11.6867   20.8739 C   0  0  0  0  0  0
  -23.9036  -10.4269   21.0415 C   0  0  0  0  0  0
  -24.3598   -9.4182   21.9186 C   0  0  0  0  0  0
  -23.6275   -8.2214   22.0746 C   0  0  0  0  0  0
  -22.4253   -8.0266   21.3537 C   0  0  0  0  0  0
  -21.9890   -9.0237   20.4634 C   0  0  0  0  0  0
  -22.7214  -10.2114   20.3054 C   0  0  0  0  0  0
  -21.6841   -6.0728   22.5277 C   0  0  0  0  0  0
  -21.4014   -6.5633   23.8215 C   0  0  0  0  0  0
  -21.3657   -5.6781   24.9173 C   0  0  0  0  0  0
  -21.6047   -4.3045   24.7225 C   0  0  0  0  0  0
  -21.8813   -3.8143   23.4347 C   0  0  0  0  0  0
  -21.9193   -4.6961   22.3402 C   0  0  0  0  0  0
  -22.7855  -13.5220   21.1850 C   0  0  0  0  0  0
  -22.1650   -4.2152   21.0982 F   0  0  0  0  0  0
  -21.5634   -3.4530   25.7736 F   0  0  0  0  0  0
  -30.0189  -13.3116   20.4610 N   0  0  0  0  0  0
  -26.2985  -12.9219   20.3300 N   0  0  0  0  0  0
  -25.9275  -11.6409   20.5746 N   0  0  0  0  0  0
  -22.0493  -12.8221   22.0408 N   0  0  0  0  0  0
  -25.4251  -15.1808   20.3974 N   0  0  0  0  0  0
  -31.7921  -14.6636   20.0858 O   0  0  0  0  0  0
  -21.6618   -6.8870   21.4239 O   0  0  0  0  0  0
  -22.3549  -14.5529   20.6700 O   0  0  0  0  0  0
  -24.6143  -31.8671   23.2113 C   0  0  0  0  0  0
  -25.9029  -32.4822   23.8397 C   0  0  1  0  0  0
  -27.2282  -27.4423   20.0950 C   0  0  0  0  0  0
  -25.5872  -33.8619   24.2319 N   0  0  0  0  0  0
  -23.4010  -30.4925   21.5515 C   0  0  2  0  0  0
  -24.8456  -28.9588   20.1163 C   0  0  0  0  0  0
  -22.7399  -29.4660   22.4987 C   0  0  0  0  0  0
  -18.0262  -28.1397   22.8490 C   0  0  0  0  0  0
  -24.1484  -36.7325   23.2646 C   0  0  0  0  0  0
  -25.9296  -30.8356   21.3619 C   0  0  0  0  0  0
  -26.0069  -29.4707   20.7095 C   0  0  0  0  0  0
  -27.2048  -28.7210   20.6936 C   0  0  0  0  0  0
  -26.0533  -26.9399   19.4985 C   0  0  0  0  0  0
  -24.8622  -27.6905   19.5094 C   0  0  0  0  0  0
  -23.6093  -29.8273   20.1652 C   0  0  0  0  0  0
  -25.4107  -36.3114   24.0341 C   0  0  1  0  0  0
  -20.5849  -28.3672   23.1320 C   0  0  2  0  0  0
  -20.6750  -26.9401   22.5436 C   0  0  0  0  0  0
  -19.5740  -26.6394   21.5222 C   0  0  0  0  0  0
  -18.1907  -26.7954   22.1615 C   0  0  0  0  0  0
  -19.1513  -28.8851   23.2904 C   0  0  0  0  0  0
  -18.9452  -30.1451   23.8922 C   0  0  0  0  0  0
  -17.6453  -30.6590   24.0584 C   0  0  0  0  0  0
  -25.9033  -34.9474   23.5133 C   0  0  0  0  0  0
  -16.5343  -29.9105   23.6332 C   0  0  0  0  0  0
  -16.7255  -28.6533   23.0336 C   0  0  0  0  0  0
  -26.4477  -31.6606   25.0723 C   0  0  0  0  0  0
  -25.3754  -31.3712   26.1481 C   0  0  0  0  0  0
  -27.0319  -30.3052   24.6105 C   0  0  0  0  0  0
  -27.6045  -32.4335   25.7482 C   0  0  0  0  0  0
  -27.5583  -37.1812   24.8460 C   0  0  0  0  0  0
  -21.4124  -29.3044   22.3739 N   0  0  0  0  0  0
  -26.4295  -37.3795   23.9411 N   0  0  0  0  0  0
  -24.6668  -31.0784   22.1003 N   0  0  0  0  0  0
  -23.4184  -28.8191   23.3009 O   0  0  0  0  0  0
  -28.3837  -26.6980   20.0769 O   0  0  0  0  0  0
  -26.5608  -34.8920   22.4696 O   0  0  0  0  0  0
  -23.5334  -32.1417   23.7517 O   0  0  0  0  0  0
  -29.9695  -22.1769   19.1447 C   0  0  0  0  0  0
  -29.3780  -22.1211   20.4161 C   0  0  0  0  0  0
  -29.9035  -19.6878   20.5205 C   0  0  0  0  0  0
  -30.4893  -21.0285   18.5312 C   0  0  0  0  0  0
  -29.2941  -20.8615   21.0868 C   0  0  0  0  0  0
  -30.4579  -19.7806   19.2025 C   0  0  0  0  0  0
  -28.8318  -17.3554   20.8639 C   0  0  0  0  0  0
  -31.3119  -17.6633   21.5100 C   0  0  0  0  0  0
  -29.6661  -24.7575   20.9390 C   0  0  0  0  0  0
  -27.7405  -24.2443   20.2852 C   0  0  0  0  0  0
  -28.8985  -16.0144   21.6241 C   0  0  0  0  0  0
  -31.1878  -16.3030   22.2457 C   0  0  0  0  0  0
  -28.8505  -23.4468   21.0004 C   0  0  1  0  0  0
  -29.9270  -18.3484   21.3192 C   0  0  0  0  0  0
  -28.3354  -25.5262   20.8988 C   0  0  1  0  0  0
  -31.0846  -21.1796   17.1375 C   0  0  0  0  0  0
  -28.5130  -20.7815   22.4009 C   0  0  0  0  0  0
  -31.0157  -18.5739   18.4469 C   0  0  0  0  0  0
  -30.2444  -15.4029   21.5530 N   0  0  0  0  0  0
  -31.4664  -12.4598   19.1170 H   0  0  0  0  0  0
  -30.3543  -11.3269   19.8116 H   0  0  0  0  0  0
  -29.7546  -11.8116   17.4221 H   0  0  0  0  0  0
  -29.6369  -13.5169   17.7785 H   0  0  0  0  0  0
  -27.8447  -11.2884   18.8112 H   0  0  0  0  0  0
  -27.3622  -12.6133   17.7832 H   0  0  0  0  0  0
  -27.6994  -14.2201   19.5419 H   0  0  0  0  0  0
  -28.7021  -11.8817   21.2588 H   0  0  0  0  0  0
  -28.4540  -13.4395   21.9256 H   0  0  0  0  0  0
  -25.2742   -9.5658   22.4749 H   0  0  0  0  0  0
  -23.9992   -7.4604   22.7460 H   0  0  0  0  0  0
  -21.0823   -8.8751   19.8944 H   0  0  0  0  0  0
  -22.3672  -10.9658   19.6159 H   0  0  0  0  0  0
  -21.1989   -7.6138   23.9723 H   0  0  0  0  0  0
  -21.1488   -6.0508   25.9080 H   0  0  0  0  0  0
  -22.0599   -2.7610   23.2839 H   0  0  0  0  0  0
  -22.4101  -11.9892   22.4812 H   0  0  0  0  0  0
  -21.1111  -13.1256   22.2603 H   0  0  0  0  0  0
  -24.6514  -15.8284   20.4989 H   0  0  0  0  0  0
  -26.2670  -15.6236   20.0530 H   0  0  0  0  0  0
  -26.7106  -32.5548   23.1162 H   0  0  0  0  0  0
  -24.9962  -33.9784   25.0430 H   0  0  0  0  0  0
  -22.6892  -31.3086   21.4146 H   0  0  0  0  0  0
  -23.3738  -35.9664   23.3312 H   0  0  0  0  0  0
  -24.3572  -36.8945   22.2056 H   0  0  0  0  0  0
  -23.7239  -37.6530   23.6666 H   0  0  0  0  0  0
  -26.0383  -31.6011   20.5915 H   0  0  0  0  0  0
  -26.8183  -30.8905   21.9777 H   0  0  0  0  0  0
  -28.1029  -29.1140   21.1499 H   0  0  0  0  0  0
  -26.0551  -25.9705   19.0209 H   0  0  0  0  0  0
  -23.9700  -27.2892   19.0486 H   0  0  0  0  0  0
  -23.7228  -30.6051   19.4100 H   0  0  0  0  0  0
  -22.7319  -29.2528   19.8637 H   0  0  0  0  0  0
  -25.1286  -36.1976   25.0837 H   0  0  0  0  0  0
  -20.9945  -28.3245   24.1439 H   0  0  0  0  0  0
  -20.5635  -26.2283   23.3629 H   0  0  0  0  0  0
  -21.6629  -26.7421   22.1257 H   0  0  0  0  0  0
  -19.6902  -25.6312   21.1234 H   0  0  0  0  0  0
  -19.6700  -27.3217   20.6763 H   0  0  0  0  0  0
  -17.4187  -26.6707   21.4003 H   0  0  0  0  0  0
  -18.0291  -26.0094   22.9001 H   0  0  0  0  0  0
  -19.7923  -30.7265   24.2313 H   0  0  0  0  0  0
  -17.5008  -31.6273   24.5191 H   0  0  0  0  0  0
  -15.5351  -30.3024   23.7652 H   0  0  0  0  0  0
  -15.8656  -28.0880   22.7022 H   0  0  0  0  0  0
  -24.5924  -30.7065   25.7819 H   0  0  0  0  0  0
  -24.8973  -32.2878   26.4932 H   0  0  0  0  0  0
  -25.8128  -30.8877   27.0224 H   0  0  0  0  0  0
  -26.2868  -29.6787   24.1193 H   0  0  0  0  0  0
  -27.4120  -29.7306   25.4560 H   0  0  0  0  0  0
  -27.8679  -30.4366   23.9235 H   0  0  0  0  0  0
  -27.2637  -33.3585   26.2127 H   0  0  0  0  0  0
  -28.3810  -32.6971   25.0298 H   0  0  0  0  0  0
  -28.0767  -31.8437   26.5339 H   0  0  0  0  0  0
  -28.2606  -38.0101   24.7493 H   0  0  0  0  0  0
  -28.1070  -36.2628   24.6298 H   0  0  0  0  0  0
  -27.2312  -37.1491   25.8868 H   0  0  0  0  0  0
  -20.9273  -29.8778   21.6982 H   0  0  0  0  0  0
  -26.0181  -38.2877   24.1407 H   0  0  0  0  0  0
  -30.0063  -23.1192   18.6144 H   0  0  0  0  0  0
  -27.8524  -17.8076   21.0259 H   0  0  0  0  0  0
  -28.8763  -17.1594   19.7958 H   0  0  0  0  0  0
  -31.8393  -17.4847   20.5796 H   0  0  0  0  0  0
  -31.9655  -18.3261   22.0807 H   0  0  0  0  0  0
  -30.2373  -24.8819   20.0197 H   0  0  0  0  0  0
  -30.2871  -24.9520   21.8121 H   0  0  0  0  0  0
  -26.7278  -23.9891   20.5994 H   0  0  0  0  0  0
  -27.8346  -24.2244   19.1974 H   0  0  0  0  0  0
  -28.1024  -15.3977   21.2398 H   0  0  0  0  0  0
  -28.6344  -16.1720   22.6708 H   0  0  0  0  0  0
  -30.8458  -16.4647   23.2700 H   0  0  0  0  0  0
  -32.1709  -15.8391   22.3450 H   0  0  0  0  0  0
  -28.5865  -23.3190   22.0492 H   0  0  0  0  0  0
  -29.6899  -18.5745   22.3546 H   0  0  0  0  0  0
  -27.9489  -25.7246   21.9023 H   0  0  0  0  0  0
  -31.2857  -22.2251   16.9022 H   0  0  0  0  0  0
  -30.3926  -20.7990   16.3856 H   0  0  0  0  0  0
  -32.0297  -20.6438   17.0424 H   0  0  0  0  0  0
  -27.6694  -21.4693   22.4125 H   0  0  0  0  0  0
  -29.1583  -21.0063   23.2507 H   0  0  0  0  0  0
  -28.0398  -19.8138   22.5607 H   0  0  0  0  0  0
  -30.6700  -17.6117   18.8071 H   0  0  0  0  0  0
  -32.1057  -18.5773   18.4868 H   0  0  0  0  0  0
  -30.7191  -18.5983   17.3984 H   0  0  0  0  0  0
  1 25  1  0  0  0
  1 30  2  0  0  0
  1 89  1  0  0  0
  2  3  1  0  0  0
  2 25  1  0  0  0
  2 90  1  0  0  0
  2 91  1  0  0  0
  3  4  1  0  0  0
  3 92  1  0  0  0
  3 93  1  0  0  0
  4  5  1  0  0  0
  4 94  1  0  0  0
  4 95  1  0  0  0
  5  6  1  0  0  0
  5 26  1  0  0  0
  5 96  1  0  0  0
  6 25  1  0  0  0
  6 97  1  0  0  0
  6 98  1  0  0  0
  7  8  2  0  0  0
  7 26  1  0  0  0
  7 29  1  0  0  0
  8  9  1  0  0  0
  8 22  1  0  0  0
  9 10  1  0  0  0
  9 27  2  0  0  0
 10 11  2  0  0  0
 10 15  1  0  0  0
 11 12  1  0  0  0
 11 99  1  0  0  0
 12 13  2  0  0  0
 12100  1  0  0  0
 13 14  1  0  0  0
 13 31  1  0  0  0
 14 15  2  0  0  0
 14101  1  0  0  0
 15102  1  0  0  0
 16 17  2  0  0  0
 16 21  1  0  0  0
 16 31  1  0  0  0
 17 18  1  0  0  0
 17103  1  0  0  0
 18 19  2  0  0  0
 18104  1  0  0  0
 19 20  1  0  0  0
 19 24  1  0  0  0
 20 21  2  0  0  0
 20105  1  0  0  0
 21 23  1  0  0  0
 22 28  1  0  0  0
 22 32  2  0  0  0
 26 27  1  0  0  0
 28106  1  0  0  0
 28107  1  0  0  0
 29108  1  0  0  0
 29109  1  0  0  0
 33 34  1  0  0  0
 33 66  1  0  0  0
 33 70  2  0  0  0
 34 36  1  0  0  0
 34 59  1  0  0  0
 34110  1  0  0  0
 35 44  2  0  0  0
 35 45  1  0  0  0
 35 68  1  0  0  0
 36 56  1  0  0  0
 36111  1  0  0  0
 37 39  1  0  0  0
 37 47  1  0  0  0
 37 66  1  0  0  0
 37112  1  0  0  0
 38 43  2  0  0  0
 38 46  1  0  0  0
 38 47  1  0  0  0
 39 64  1  0  0  0
 39 67  2  0  0  0
 40 52  1  0  0  0
 40 53  2  0  0  0
 40 58  1  0  0  0
 41113  1  0  0  0
 41114  1  0  0  0
 41115  1  0  0  0
 41 48  1  0  0  0
 42 43  1  0  0  0
 42 66  1  0  0  0
 42116  1  0  0  0
 42117  1  0  0  0
 43 44  1  0  0  0
 44118  1  0  0  0
 45 46  2  0  0  0
 45119  1  0  0  0
 46120  1  0  0  0
 47121  1  0  0  0
 47122  1  0  0  0
 48 56  1  0  0  0
 48 65  1  0  0  0
 48123  1  0  0  0
 49 50  1  0  0  0
 49 53  1  0  0  0
 49 64  1  0  0  0
 49124  1  0  0  0
 50 51  1  0  0  0
 50125  1  0  0  0
 50126  1  0  0  0
 51 52  1  0  0  0
 51127  1  0  0  0
 51128  1  0  0  0
 52129  1  0  0  0
 52130  1  0  0  0
 53 54  1  0  0  0
 54 55  2  0  0  0
 54131  1  0  0  0
 55 57  1  0  0  0
 55132  1  0  0  0
 56 69  2  0  0  0
 57 58  2  0  0  0
 57133  1  0  0  0
 58134  1  0  0  0
 59 60  1  0  0  0
 59 61  1  0  0  0
 59 62  1  0  0  0
 60135  1  0  0  0
 60136  1  0  0  0
 60137  1  0  0  0
 61138  1  0  0  0
 61139  1  0  0  0
 61140  1  0  0  0
 62141  1  0  0  0
 62142  1  0  0  0
 62143  1  0  0  0
 63 65  1  0  0  0
 63144  1  0  0  0
 63145  1  0  0  0
 63146  1  0  0  0
 64147  1  0  0  0
 65148  1  0  0  0
 68 85  1  0  0  0
 71 72  2  0  0  0
 71 74  1  0  0  0
 71149  1  0  0  0
 72 75  1  0  0  0
 72 83  1  0  0  0
 73 75  2  0  0  0
 73 76  1  0  0  0
 73 84  1  0  0  0
 74 76  2  0  0  0
 74 86  1  0  0  0
 75 87  1  0  0  0
 76 88  1  0  0  0
 77 81  1  0  0  0
 77 84  1  0  0  0
 77150  1  0  0  0
 77151  1  0  0  0
 78 82  1  0  0  0
 78 84  1  0  0  0
 78152  1  0  0  0
 78153  1  0  0  0
 79 83  1  0  0  0
 79 85  1  0  0  0
 79154  1  0  0  0
 79155  1  0  0  0
 80 83  1  0  0  0
 80 85  1  0  0  0
 80156  1  0  0  0
 80157  1  0  0  0
 81 89  1  0  0  0
 81158  1  0  0  0
 81159  1  0  0  0
 82 89  1  0  0  0
 82160  1  0  0  0
 82161  1  0  0  0
 83162  1  0  0  0
 84163  1  0  0  0
 85164  1  0  0  0
 86165  1  0  0  0
 86166  1  0  0  0
 86167  1  0  0  0
 87168  1  0  0  0
 87169  1  0  0  0
 87170  1  0  0  0
 88171  1  0  0  0
 88172  1  0  0  0
 88173  1  0  0  0
M  ISO  4   1 100  68 101  85 101  89 100
M  END
> <chiral flag>
0

> <version>
0

> <s_m_source_file>
/data/baiqing/PycharmProjects/Reinvent-master-3.2/result/LINK_invent/BTK/process_docking_weight1_custom_sum_contain_oxygen_bond_distance_aromatic_linkinvent_7_9_3/rearranged_h_0164.sdf

> <i_m_source_file_index>
46

> <r_mmod_Potential_Energy-OPLS-2005>
201.058288574219

> <r_mmod_Stretch_Energy-OPLS-2005>
52.3730354309082

> <r_mmod_Bend_Energy-OPLS-2005>
145.537353515625

> <r_mmod_Torsional_Energy-OPLS-2005>
330.851501464844

> <r_mmod_Improper_Torsional_Energy-OPLS-2005>
4.49129438400269

> <r_mmod_Van_der_Waal_Energy-OPLS-2005>
182.558670043945

> <r_mmod_Electrostatic_Energy-OPLS-2005>
-333.917907714844

> <r_mmod_Solvation_Energy-OPLS-2005>
-193.046401977539

> <b_mmod_Minimization_Converged-OPLS-2005>
0

> <r_mmod_RMS_Derivative-OPLS-2005>
2.11847615242004

$$$$
46
                    3D
 Structure written by MMmdl.
168177  0  0  1  0            999 V2000
  -30.6913  -14.5870   20.4919 C   0  0  0  0  0  0
  -30.4097  -12.3625   19.4472 C   0  0  0  0  0  0
  -29.4933  -12.5027   18.2155 C   0  0  0  0  0  0
  -28.0145  -12.3638   18.6256 C   0  0  0  0  0  0
  -27.6450  -13.2316   19.8605 C   0  0  2  0  0  0
  -28.6913  -13.1071   20.9878 C   0  0  0  0  0  0
  -25.2502  -13.8225   20.5719 C   0  0  0  0  0  0
  -24.1783  -13.0457   20.9205 C   0  0  0  0  0  0
  -24.6377  -11.6944   20.8741 C   0  0  0  0  0  0
  -23.9063  -10.4309   21.0397 C   0  0  0  0  0  0
  -24.3627   -9.4226   21.9172 C   0  0  0  0  0  0
  -23.6313   -8.2254   22.0751 C   0  0  0  0  0  0
  -22.4293   -8.0287   21.3551 C   0  0  0  0  0  0
  -21.9922   -9.0248   20.4645 C   0  0  0  0  0  0
  -22.7238  -10.2131   20.3041 C   0  0  0  0  0  0
  -21.6860   -6.0750   22.5284 C   0  0  0  0  0  0
  -21.4012   -6.5654   23.8215 C   0  0  0  0  0  0
  -21.3658   -5.6806   24.9178 C   0  0  0  0  0  0
  -21.6045   -4.3069   24.7232 C   0  0  0  0  0  0
  -21.8816   -3.8161   23.4351 C   0  0  0  0  0  0
  -21.9188   -4.6975   22.3408 C   0  0  0  0  0  0
  -22.7801  -13.5219   21.1875 C   0  0  0  0  0  0
  -22.1654   -4.2159   21.0986 F   0  0  0  0  0  0
  -21.5632   -3.4553   25.7748 F   0  0  0  0  0  0
  -30.0030  -13.4090   20.4041 N   0  0  0  0  0  0
  -26.2943  -12.9429   20.3351 N   0  0  0  0  0  0
  -25.9315  -11.6566   20.5771 N   0  0  0  0  0  0
  -22.0470  -12.8180   22.0430 N   0  0  0  0  0  0
  -25.4203  -15.1942   20.4152 N   0  0  0  0  0  0
  -31.8852  -14.6378   20.1774 O   0  0  0  0  0  0
  -21.6651   -6.8891   21.4248 O   0  0  0  0  0  0
  -22.3465  -14.5526   20.6744 O   0  0  0  0  0  0
  -24.6210  -31.8633   23.2066 C   0  0  0  0  0  0
  -25.9083  -32.4793   23.8370 C   0  0  1  0  0  0
  -27.2206  -27.3616   20.0966 C   0  0  0  0  0  0
  -25.5922  -33.8597   24.2286 N   0  0  0  0  0  0
  -23.4097  -30.4879   21.5490 C   0  0  2  0  0  0
  -24.8519  -28.9441   20.1123 C   0  0  0  0  0  0
  -22.7427  -29.4645   22.4972 C   0  0  0  0  0  0
  -18.0275  -28.1376   22.8488 C   0  0  0  0  0  0
  -24.1490  -36.7301   23.2637 C   0  0  0  0  0  0
  -25.9469  -30.8031   21.3714 C   0  0  0  0  0  0
  -26.0177  -29.4337   20.7138 C   0  0  0  0  0  0
  -27.2012  -28.6479   20.7056 C   0  0  0  0  0  0
  -26.0269  -26.8980   19.4996 C   0  0  0  0  0  0
  -24.8542  -27.6775   19.5050 C   0  0  0  0  0  0
  -23.6193  -29.8221   20.1632 C   0  0  0  0  0  0
  -25.4115  -36.3089   24.0323 C   0  0  1  0  0  0
  -20.5863  -28.3672   23.1305 C   0  0  2  0  0  0
  -20.6767  -26.9405   22.5416 C   0  0  0  0  0  0
  -19.5748  -26.6374   21.5213 C   0  0  0  0  0  0
  -18.1920  -26.7923   22.1614 C   0  0  0  0  0  0
  -19.1522  -28.8841   23.2892 C   0  0  0  0  0  0
  -18.9451  -30.1450   23.8901 C   0  0  0  0  0  0
  -17.6451  -30.6583   24.0560 C   0  0  0  0  0  0
  -25.9053  -34.9461   23.5102 C   0  0  0  0  0  0
  -16.5345  -29.9077   23.6339 C   0  0  0  0  0  0
  -16.7264  -28.6498   23.0357 C   0  0  0  0  0  0
  -26.4485  -31.6606   25.0737 C   0  0  0  0  0  0
  -25.3730  -31.3737   26.1473 C   0  0  0  0  0  0
  -27.0327  -30.3036   24.6184 C   0  0  0  0  0  0
  -27.6047  -32.4346   25.7497 C   0  0  0  0  0  0
  -27.5587  -37.1793   24.8450 C   0  0  0  0  0  0
  -21.4148  -29.3034   22.3705 N   0  0  0  0  0  0
  -26.4284  -37.3788   23.9418 N   0  0  0  0  0  0
  -24.6779  -31.0676   22.0997 N   0  0  0  0  0  0
  -23.4178  -28.8195   23.3037 O   0  0  0  0  0  0
  -28.3718  -26.5777   20.1380 O   0  0  0  0  0  0
  -26.5611  -34.8922   22.4662 O   0  0  0  0  0  0
  -23.5389  -32.1422   23.7427 O   0  0  0  0  0  0
  -28.5971  -22.0826   21.1834 C   0  0  0  0  0  0
  -28.6535  -23.4797   20.9037 C   0  0  0  0  0  0
  -28.1465  -23.0024   18.5754 C   0  0  0  0  0  0
  -28.4162  -23.9780   19.5894 C   0  0  0  0  0  0
  -28.0205  -21.6073   18.8826 C   0  0  0  0  0  0
  -28.2677  -21.1249   20.1959 C   0  0  0  0  0  0
  -29.3431  -17.9699   19.3531 C   0  0  0  0  0  0
  -28.7195  -17.6451   21.7098 C   0  0  0  0  0  0
  -30.3419  -16.7864   19.5033 C   0  0  0  0  0  0
  -29.7207  -16.4461   21.8002 C   0  0  0  0  0  0
  -29.0999  -18.7361   20.6713 C   0  0  0  0  0  0
  -28.9765  -24.4252   22.0477 C   0  0  0  0  0  0
  -28.0013  -23.4632   17.1227 C   0  0  0  0  0  0
  -27.6056  -20.6225   17.7890 C   0  0  0  0  0  0
  -28.5757  -25.4932   19.1846 C   0  0  0  0  0  0
  -29.9652  -15.7588   20.5125 N   0  0  0  0  0  0
  -28.0370  -19.7638   20.5446 N   0  0  0  0  0  0
  -31.4563  -12.4437   19.1501 H   0  0  0  0  0  0
  -30.3022  -11.3739   19.8961 H   0  0  0  0  0  0
  -29.7464  -11.7534   17.4638 H   0  0  0  0  0  0
  -29.6536  -13.4744   17.7444 H   0  0  0  0  0  0
  -27.8295  -11.3115   18.8408 H   0  0  0  0  0  0
  -27.3679  -12.6172   17.7844 H   0  0  0  0  0  0
  -27.6573  -14.2674   19.5201 H   0  0  0  0  0  0
  -28.6895  -12.1020   21.4126 H   0  0  0  0  0  0
  -28.4541  -13.7870   21.8058 H   0  0  0  0  0  0
  -25.2777   -9.5720   22.4737 H   0  0  0  0  0  0
  -24.0047   -7.4650   22.7456 H   0  0  0  0  0  0
  -21.0859   -8.8746   19.8946 H   0  0  0  0  0  0
  -22.3688  -10.9662   19.6143 H   0  0  0  0  0  0
  -21.2003   -7.6162   23.9723 H   0  0  0  0  0  0
  -21.1486   -6.0542   25.9080 H   0  0  0  0  0  0
  -22.0597   -2.7624   23.2857 H   0  0  0  0  0  0
  -22.4133  -11.9858   22.4817 H   0  0  0  0  0  0
  -21.1072  -13.1146   22.2645 H   0  0  0  0  0  0
  -24.6611  -15.8565   20.5307 H   0  0  0  0  0  0
  -26.2872  -15.6317   20.1298 H   0  0  0  0  0  0
  -26.7143  -32.5462   23.1112 H   0  0  0  0  0  0
  -25.0095  -33.9758   25.0445 H   0  0  0  0  0  0
  -22.7014  -31.3076   21.4102 H   0  0  0  0  0  0
  -23.3759  -35.9623   23.3273 H   0  0  0  0  0  0
  -24.3585  -36.8957   22.2057 H   0  0  0  0  0  0
  -23.7234  -37.6489   23.6683 H   0  0  0  0  0  0
  -26.0753  -31.5689   20.6052 H   0  0  0  0  0  0
  -26.8284  -30.8476   21.9999 H   0  0  0  0  0  0
  -28.0986  -29.0201   21.1790 H   0  0  0  0  0  0
  -25.9708  -25.9158   19.0538 H   0  0  0  0  0  0
  -23.9520  -27.2874   19.0537 H   0  0  0  0  0  0
  -23.7335  -30.5992   19.4065 H   0  0  0  0  0  0
  -22.7378  -29.2511   19.8653 H   0  0  0  0  0  0
  -25.1293  -36.1932   25.0813 H   0  0  0  0  0  0
  -20.9953  -28.3240   24.1429 H   0  0  0  0  0  0
  -20.5674  -26.2279   23.3606 H   0  0  0  0  0  0
  -21.6640  -26.7446   22.1214 H   0  0  0  0  0  0
  -19.6917  -25.6282   21.1253 H   0  0  0  0  0  0
  -19.6699  -27.3177   20.6739 H   0  0  0  0  0  0
  -17.4200  -26.6682   21.4007 H   0  0  0  0  0  0
  -18.0314  -26.0057   22.9002 H   0  0  0  0  0  0
  -19.7923  -30.7269   24.2270 H   0  0  0  0  0  0
  -17.5005  -31.6270   24.5150 H   0  0  0  0  0  0
  -15.5345  -30.2979   23.7675 H   0  0  0  0  0  0
  -15.8656  -28.0822   22.7073 H   0  0  0  0  0  0
  -24.5892  -30.7100   25.7806 H   0  0  0  0  0  0
  -24.8937  -32.2903   26.4922 H   0  0  0  0  0  0
  -25.8063  -30.8898   27.0235 H   0  0  0  0  0  0
  -26.2899  -29.6783   24.1220 H   0  0  0  0  0  0
  -27.4040  -29.7302   25.4689 H   0  0  0  0  0  0
  -27.8759  -30.4330   23.9394 H   0  0  0  0  0  0
  -27.2662  -33.3649   26.2070 H   0  0  0  0  0  0
  -28.3854  -32.6908   25.0322 H   0  0  0  0  0  0
  -28.0718  -31.8481   26.5417 H   0  0  0  0  0  0
  -28.2562  -38.0134   24.7556 H   0  0  0  0  0  0
  -28.1125  -36.2667   24.6193 H   0  0  0  0  0  0
  -27.2313  -37.1342   25.8852 H   0  0  0  0  0  0
  -20.9313  -29.8751   21.6919 H   0  0  0  0  0  0
  -26.0160  -38.2854   24.1451 H   0  0  0  0  0  0
  -28.7583  -21.7417   22.1961 H   0  0  0  0  0  0
  -28.4007  -17.5795   18.9667 H   0  0  0  0  0  0
  -29.7217  -18.6588   18.5965 H   0  0  0  0  0  0
  -28.6241  -18.1048   22.6951 H   0  0  0  0  0  0
  -27.7314  -17.2469   21.4727 H   0  0  0  0  0  0
  -31.3267  -17.1876   19.7523 H   0  0  0  0  0  0
  -30.4536  -16.3110   18.5270 H   0  0  0  0  0  0
  -29.3566  -15.7343   22.5413 H   0  0  0  0  0  0
  -30.6773  -16.8096   22.1798 H   0  0  0  0  0  0
  -30.0266  -19.2206   20.9837 H   0  0  0  0  0  0
  -29.2147  -23.8840   22.9638 H   0  0  0  0  0  0
  -28.1217  -25.0678   22.2608 H   0  0  0  0  0  0
  -29.8331  -25.0547   21.8036 H   0  0  0  0  0  0
  -28.7694  -24.1906   16.8601 H   0  0  0  0  0  0
  -27.0234  -23.9181   16.9627 H   0  0  0  0  0  0
  -28.1216  -22.6655   16.3925 H   0  0  0  0  0  0
  -26.8127  -21.0400   17.1697 H   0  0  0  0  0  0
  -27.2089  -19.6844   18.1726 H   0  0  0  0  0  0
  -28.4594  -20.3856   17.1536 H   0  0  0  0  0  0
  -28.0081  -25.7200   18.2842 H   0  0  0  0  0  0
  -29.6132  -25.5905   18.8642 H   0  0  0  0  0  0
  -27.2481  -19.3892   20.0274 H   0  0  0  0  0  0
  1 25  1  0  0  0
  1 30  2  0  0  0
  1 86  1  0  0  0
  2  3  1  0  0  0
  2 25  1  0  0  0
  2 88  1  0  0  0
  2 89  1  0  0  0
  3  4  1  0  0  0
  3 90  1  0  0  0
  3 91  1  0  0  0
  4  5  1  0  0  0
  4 92  1  0  0  0
  4 93  1  0  0  0
  5  6  1  0  0  0
  5 26  1  0  0  0
  5 94  1  0  0  0
  6 25  1  0  0  0
  6 95  1  0  0  0
  6 96  1  0  0  0
  7  8  2  0  0  0
  7 26  1  0  0  0
  7 29  1  0  0  0
  8  9  1  0  0  0
  8 22  1  0  0  0
  9 10  1  0  0  0
  9 27  2  0  0  0
 10 11  2  0  0  0
 10 15  1  0  0  0
 11 12  1  0  0  0
 11 97  1  0  0  0
 12 13  2  0  0  0
 12 98  1  0  0  0
 13 14  1  0  0  0
 13 31  1  0  0  0
 14 15  2  0  0  0
 14 99  1  0  0  0
 15100  1  0  0  0
 16 17  2  0  0  0
 16 21  1  0  0  0
 16 31  1  0  0  0
 17 18  1  0  0  0
 17101  1  0  0  0
 18 19  2  0  0  0
 18102  1  0  0  0
 19 20  1  0  0  0
 19 24  1  0  0  0
 20 21  2  0  0  0
 20103  1  0  0  0
 21 23  1  0  0  0
 22 28  1  0  0  0
 22 32  2  0  0  0
 26 27  1  0  0  0
 28104  1  0  0  0
 28105  1  0  0  0
 29106  1  0  0  0
 29107  1  0  0  0
 33 34  1  0  0  0
 33 66  1  0  0  0
 33 70  2  0  0  0
 34 36  1  0  0  0
 34 59  1  0  0  0
 34108  1  0  0  0
 35 44  2  0  0  0
 35 45  1  0  0  0
 35 68  1  0  0  0
 36 56  1  0  0  0
 36109  1  0  0  0
 37 39  1  0  0  0
 37 47  1  0  0  0
 37 66  1  0  0  0
 37110  1  0  0  0
 38 43  2  0  0  0
 38 46  1  0  0  0
 38 47  1  0  0  0
 39 64  1  0  0  0
 39 67  2  0  0  0
 40 52  1  0  0  0
 40 53  2  0  0  0
 40 58  1  0  0  0
 41111  1  0  0  0
 41112  1  0  0  0
 41113  1  0  0  0
 41 48  1  0  0  0
 42 43  1  0  0  0
 42 66  1  0  0  0
 42114  1  0  0  0
 42115  1  0  0  0
 43 44  1  0  0  0
 44116  1  0  0  0
 45 46  2  0  0  0
 45117  1  0  0  0
 46118  1  0  0  0
 47119  1  0  0  0
 47120  1  0  0  0
 48 56  1  0  0  0
 48 65  1  0  0  0
 48121  1  0  0  0
 49 50  1  0  0  0
 49 53  1  0  0  0
 49 64  1  0  0  0
 49122  1  0  0  0
 50 51  1  0  0  0
 50123  1  0  0  0
 50124  1  0  0  0
 51 52  1  0  0  0
 51125  1  0  0  0
 51126  1  0  0  0
 52127  1  0  0  0
 52128  1  0  0  0
 53 54  1  0  0  0
 54 55  2  0  0  0
 54129  1  0  0  0
 55 57  1  0  0  0
 55130  1  0  0  0
 56 69  2  0  0  0
 57 58  2  0  0  0
 57131  1  0  0  0
 58132  1  0  0  0
 59 60  1  0  0  0
 59 61  1  0  0  0
 59 62  1  0  0  0
 60133  1  0  0  0
 60134  1  0  0  0
 60135  1  0  0  0
 61136  1  0  0  0
 61137  1  0  0  0
 61138  1  0  0  0
 62139  1  0  0  0
 62140  1  0  0  0
 62141  1  0  0  0
 63 65  1  0  0  0
 63142  1  0  0  0
 63143  1  0  0  0
 63144  1  0  0  0
 64145  1  0  0  0
 65146  1  0  0  0
 68 85  1  0  0  0
 71 72  2  0  0  0
 71 76  1  0  0  0
 71147  1  0  0  0
 72 74  1  0  0  0
 72 82  1  0  0  0
 73 74  2  0  0  0
 73 75  1  0  0  0
 73 83  1  0  0  0
 74 85  1  0  0  0
 75 76  2  0  0  0
 75 84  1  0  0  0
 76 87  1  0  0  0
 77 79  1  0  0  0
 77 81  1  0  0  0
 77148  1  0  0  0
 77149  1  0  0  0
 78 80  1  0  0  0
 78 81  1  0  0  0
 78150  1  0  0  0
 78151  1  0  0  0
 79 86  1  0  0  0
 79152  1  0  0  0
 79153  1  0  0  0
 80 86  1  0  0  0
 80154  1  0  0  0
 80155  1  0  0  0
 81 87  1  0  0  0
 81156  1  0  0  0
 82157  1  0  0  0
 82158  1  0  0  0
 82159  1  0  0  0
 83160  1  0  0  0
 83161  1  0  0  0
 83162  1  0  0  0
 84163  1  0  0  0
 84164  1  0  0  0
 84165  1  0  0  0
 85166  1  0  0  0
 85167  1  0  0  0
 87168  1  0  0  0
M  ISO  4   1 100  68 101  85 101  86 100
M  END
> <chiral flag>
0

> <version>
0

> <s_m_source_file>
/data/baiqing/PycharmProjects/Reinvent-master-3.2/result/LINK_invent/BTK/process_docking_weight1_custom_sum_contain_oxygen_bond_distance_aromatic_linkinvent_7_9_3/rearranged_h_0164.sdf

> <i_m_source_file_index>
47

> <r_mmod_Potential_Energy-OPLS-2005>
253.117065429688

> <r_mmod_Stretch_Energy-OPLS-2005>
66.360710144043

> <r_mmod_Bend_Energy-OPLS-2005>
148.390777587891

> <r_mmod_Torsional_Energy-OPLS-2005>
341.366546630859

> <r_mmod_Improper_Torsional_Energy-OPLS-2005>
21.6689567565918

> <r_mmod_Van_der_Waal_Energy-OPLS-2005>
158.580978393555

> <r_mmod_Electrostatic_Energy-OPLS-2005>
-327.033538818359

> <r_mmod_Solvation_Energy-OPLS-2005>
-192.652465820312

> <b_mmod_Minimization_Converged-OPLS-2005>
0

> <r_mmod_RMS_Derivative-OPLS-2005>
1.5294634103775

$$$$
47
                    3D
 Structure written by MMmdl.
173182  0  0  1  0            999 V2000
  -30.6105  -14.7898   20.4773 C   0  0  0  0  0  0
  -30.4402  -12.4939   19.4827 C   0  0  0  0  0  0
  -29.5134  -12.5248   18.2462 C   0  0  0  0  0  0
  -28.0409  -12.3465   18.6602 C   0  0  0  0  0  0
  -27.6471  -13.2406   19.8652 C   0  0  2  0  0  0
  -28.6959  -13.1927   20.9995 C   0  0  0  0  0  0
  -25.2545  -13.8210   20.5743 C   0  0  0  0  0  0
  -24.1835  -13.0444   20.9247 C   0  0  0  0  0  0
  -24.6442  -11.6934   20.8782 C   0  0  0  0  0  0
  -23.9115  -10.4301   21.0415 C   0  0  0  0  0  0
  -24.3648   -9.4208   21.9194 C   0  0  0  0  0  0
  -23.6314   -8.2251   22.0762 C   0  0  0  0  0  0
  -22.4291   -8.0299   21.3557 C   0  0  0  0  0  0
  -21.9938   -9.0274   20.4655 C   0  0  0  0  0  0
  -22.7283  -10.2144   20.3067 C   0  0  0  0  0  0
  -21.6866   -6.0744   22.5281 C   0  0  0  0  0  0
  -21.4012   -6.5641   23.8218 C   0  0  0  0  0  0
  -21.3655   -5.6786   24.9178 C   0  0  0  0  0  0
  -21.6060   -4.3057   24.7224 C   0  0  0  0  0  0
  -21.8813   -3.8153   23.4344 C   0  0  0  0  0  0
  -21.9198   -4.6971   22.3401 C   0  0  0  0  0  0
  -22.7850  -13.5206   21.1878 C   0  0  0  0  0  0
  -22.1664   -4.2163   21.0980 F   0  0  0  0  0  0
  -21.5642   -3.4538   25.7736 F   0  0  0  0  0  0
  -29.9903  -13.5584   20.4123 N   0  0  0  0  0  0
  -26.2996  -12.9434   20.3401 N   0  0  0  0  0  0
  -25.9388  -11.6569   20.5839 N   0  0  0  0  0  0
  -22.0489  -12.8180   22.0422 N   0  0  0  0  0  0
  -25.4233  -15.1922   20.4105 N   0  0  0  0  0  0
  -31.7810  -14.9089   20.1014 O   0  0  0  0  0  0
  -21.6662   -6.8886   21.4245 O   0  0  0  0  0  0
  -22.3536  -14.5511   20.6729 O   0  0  0  0  0  0
  -24.6380  -31.8495   23.1991 C   0  0  0  0  0  0
  -25.9186  -32.4719   23.8328 C   0  0  1  0  0  0
  -27.2084  -27.2110   20.1262 C   0  0  0  0  0  0
  -25.5948  -33.8526   24.2242 N   0  0  0  0  0  0
  -23.4360  -30.4757   21.5448 C   0  0  2  0  0  0
  -24.8811  -28.9284   20.1050 C   0  0  0  0  0  0
  -22.7525  -29.4567   22.4905 C   0  0  0  0  0  0
  -18.0287  -28.1361   22.8494 C   0  0  0  0  0  0
  -24.1492  -36.7266   23.2647 C   0  0  0  0  0  0
  -25.9903  -30.7460   21.3918 C   0  0  0  0  0  0
  -26.0593  -29.3719   20.7191 C   0  0  0  0  0  0
  -27.2259  -28.5302   20.7135 C   0  0  0  0  0  0
  -26.0002  -26.8603   19.4734 C   0  0  0  0  0  0
  -24.8620  -27.6834   19.4669 C   0  0  0  0  0  0
  -23.6544  -29.8194   20.1593 C   0  0  0  0  0  0
  -25.4123  -36.3057   24.0325 C   0  0  1  0  0  0
  -20.5896  -28.3668   23.1256 C   0  0  2  0  0  0
  -20.6766  -26.9380   22.5397 C   0  0  0  0  0  0
  -19.5738  -26.6365   21.5204 C   0  0  0  0  0  0
  -18.1924  -26.7908   22.1630 C   0  0  0  0  0  0
  -19.1544  -28.8843   23.2868 C   0  0  0  0  0  0
  -18.9464  -30.1445   23.8873 C   0  0  0  0  0  0
  -17.6459  -30.6574   24.0551 C   0  0  0  0  0  0
  -25.9068  -34.9422   23.5093 C   0  0  0  0  0  0
  -16.5348  -29.9056   23.6342 C   0  0  0  0  0  0
  -16.7272  -28.6474   23.0375 C   0  0  0  0  0  0
  -26.4518  -31.6567   25.0749 C   0  0  0  0  0  0
  -25.3711  -31.3726   26.1446 C   0  0  0  0  0  0
  -27.0405  -30.2971   24.6341 C   0  0  0  0  0  0
  -27.6049  -32.4333   25.7531 C   0  0  0  0  0  0
  -27.5578  -37.1793   24.8464 C   0  0  0  0  0  0
  -21.4227  -29.3020   22.3651 N   0  0  0  0  0  0
  -26.4298  -37.3757   23.9405 N   0  0  0  0  0  0
  -24.7073  -31.0421   22.0995 N   0  0  0  0  0  0
  -23.4205  -28.8101   23.3023 O   0  0  0  0  0  0
  -28.2673  -26.2515   20.2057 O   0  0  0  0  0  0
  -26.5651  -34.8898   22.4669 O   0  0  0  0  0  0
  -23.5512  -32.1340   23.7255 O   0  0  0  0  0  0
  -28.2733  -22.0417   19.3518 C   0  0  0  0  0  0
  -27.5313  -22.2518   18.1412 C   0  0  0  0  0  0
  -28.2822  -20.6143   19.8224 C   0  0  0  0  0  0
  -26.4690  -21.3919   17.8230 C   0  0  0  0  0  0
  -27.1249  -19.8602   19.4064 C   0  0  0  0  0  0
  -29.3588  -18.6074   21.2855 C   0  0  0  0  0  0
  -30.4807  -19.5497   19.4787 C   0  0  0  0  0  0
  -30.2900  -17.4182   20.7226 C   0  0  2  0  0  0
  -30.5987  -17.9925   19.3334 C   0  0  2  0  0  0
  -27.8707  -23.3175   17.0968 C   0  0  0  0  0  0
  -25.5220  -21.6310   16.6578 C   0  0  0  0  0  0
  -26.7666  -18.4402   19.8189 C   0  0  0  0  0  0
  -30.3267  -23.6502   19.6359 C   0  0  0  0  0  0
  -27.9481  -24.7873   19.9105 C   0  0  0  0  0  0
  -28.8634  -23.3958   20.0345 C   0  0  1  0  0  0
  -26.2187  -20.2890   18.5184 N   0  0  0  0  0  0
  -29.3930  -19.8613   20.4188 N   0  0  0  0  0  0
  -29.8616  -15.9331   20.7435 N   0  0  0  0  0  0
  -31.9079  -17.5370   18.8369 N   0  3  0  0  0  0
  -31.4782  -12.6301   19.1744 H   0  0  0  0  0  0
  -30.4027  -11.5191   19.9717 H   0  0  0  0  0  0
  -29.7989  -11.7440   17.5389 H   0  0  0  0  0  0
  -29.6346  -13.4749   17.7221 H   0  0  0  0  0  0
  -27.8927  -11.2962   18.9125 H   0  0  0  0  0  0
  -27.3833  -12.5524   17.8149 H   0  0  0  0  0  0
  -27.6332  -14.2623   19.4861 H   0  0  0  0  0  0
  -28.7483  -12.2016   21.4516 H   0  0  0  0  0  0
  -28.4286  -13.8791   21.8047 H   0  0  0  0  0  0
  -25.2783   -9.5686   22.4798 H   0  0  0  0  0  0
  -24.0022   -7.4636   22.7485 H   0  0  0  0  0  0
  -21.0876   -8.8796   19.8953 H   0  0  0  0  0  0
  -22.3744  -10.9692   19.6195 H   0  0  0  0  0  0
  -21.1980   -7.6145   23.9711 H   0  0  0  0  0  0
  -21.1489   -6.0528   25.9080 H   0  0  0  0  0  0
  -22.0589   -2.7619   23.2843 H   0  0  0  0  0  0
  -22.4078  -11.9797   22.4755 H   0  0  0  0  0  0
  -21.1127  -13.1224   22.2649 H   0  0  0  0  0  0
  -24.6506  -15.8437   20.4976 H   0  0  0  0  0  0
  -26.2600  -15.6165   20.0368 H   0  0  0  0  0  0
  -26.7244  -32.5346   23.1046 H   0  0  0  0  0  0
  -25.0039  -33.9639   25.0352 H   0  0  0  0  0  0
  -22.7339  -31.3001   21.4017 H   0  0  0  0  0  0
  -23.3766  -35.9587   23.3302 H   0  0  0  0  0  0
  -24.3582  -36.8907   22.2065 H   0  0  0  0  0  0
  -23.7228  -37.6454   23.6683 H   0  0  0  0  0  0
  -26.1530  -31.5153   20.6362 H   0  0  0  0  0  0
  -26.8569  -30.7729   22.0416 H   0  0  0  0  0  0
  -28.1250  -28.8695   21.2087 H   0  0  0  0  0  0
  -25.8714  -25.9142   18.9735 H   0  0  0  0  0  0
  -23.9631  -27.3392   18.9740 H   0  0  0  0  0  0
  -23.7790  -30.6001   19.4077 H   0  0  0  0  0  0
  -22.7685  -29.2573   19.8581 H   0  0  0  0  0  0
  -25.1309  -36.1899   25.0819 H   0  0  0  0  0  0
  -20.9986  -28.3240   24.1379 H   0  0  0  0  0  0
  -20.5646  -26.2275   23.3602 H   0  0  0  0  0  0
  -21.6627  -26.7381   22.1195 H   0  0  0  0  0  0
  -19.6891  -25.6276   21.1232 H   0  0  0  0  0  0
  -19.6678  -27.3177   20.6734 H   0  0  0  0  0  0
  -17.4184  -26.6658   21.4041 H   0  0  0  0  0  0
  -18.0328  -26.0037   22.9018 H   0  0  0  0  0  0
  -19.7935  -30.7279   24.2220 H   0  0  0  0  0  0
  -17.5003  -31.6258   24.5130 H   0  0  0  0  0  0
  -15.5344  -30.2944   23.7671 H   0  0  0  0  0  0
  -15.8677  -28.0775   22.7104 H   0  0  0  0  0  0
  -24.5887  -30.7081   25.7755 H   0  0  0  0  0  0
  -24.8901  -32.2894   26.4864 H   0  0  0  0  0  0
  -25.7995  -30.8890   27.0234 H   0  0  0  0  0  0
  -26.3047  -29.6673   24.1327 H   0  0  0  0  0  0
  -27.3982  -29.7285   25.4936 H   0  0  0  0  0  0
  -27.8959  -30.4212   23.9700 H   0  0  0  0  0  0
  -27.2637  -33.3635   26.2088 H   0  0  0  0  0  0
  -28.3869  -32.6896   25.0371 H   0  0  0  0  0  0
  -28.0711  -31.8479   26.5467 H   0  0  0  0  0  0
  -28.2585  -38.0101   24.7522 H   0  0  0  0  0  0
  -28.1090  -36.2629   24.6287 H   0  0  0  0  0  0
  -27.2290  -37.1424   25.8866 H   0  0  0  0  0  0
  -20.9393  -29.8757   21.6877 H   0  0  0  0  0  0
  -26.0174  -38.2835   24.1398 H   0  0  0  0  0  0
  -29.7893  -18.9110   22.2420 H   0  0  0  0  0  0
  -28.3822  -18.2518   21.5875 H   0  0  0  0  0  0
  -30.3415  -20.0225   18.5049 H   0  0  0  0  0  0
  -31.4012  -19.9620   19.8961 H   0  0  0  0  0  0
  -31.2039  -17.4623   21.3195 H   0  0  0  0  0  0
  -29.8315  -17.6494   18.6362 H   0  0  0  0  0  0
  -28.7507  -23.9089   17.3256 H   0  0  0  0  0  0
  -27.0357  -23.9994   16.9307 H   0  0  0  0  0  0
  -28.0838  -22.8300   16.1452 H   0  0  0  0  0  0
  -25.1667  -22.6612   16.6348 H   0  0  0  0  0  0
  -24.6408  -20.9926   16.7345 H   0  0  0  0  0  0
  -26.0071  -21.4054   15.7082 H   0  0  0  0  0  0
  -27.5738  -17.7376   19.6283 H   0  0  0  0  0  0
  -25.9148  -18.0611   19.2526 H   0  0  0  0  0  0
  -26.4617  -18.4104   20.8643 H   0  0  0  0  0  0
  -30.9575  -22.8004   19.8994 H   0  0  0  0  0  0
  -30.7095  -24.5206   20.1682 H   0  0  0  0  0  0
  -30.4622  -23.8350   18.5733 H   0  0  0  0  0  0
  -27.0234  -24.5607   20.4428 H   0  0  0  0  0  0
  -27.6603  -24.8793   18.8806 H   0  0  0  0  0  0
  -28.8931  -23.1679   21.1006 H   0  0  0  0  0  0
  -28.8960  -15.7616   20.9796 H   0  0  0  0  0  0
  -32.6532  -17.9961   19.3289 H   0  0  0  0  0  0
  -32.0034  -17.7247   17.8551 H   0  0  0  0  0  0
  -32.0019  -16.5417   18.9938 H   0  0  0  0  0  0
  1 25  1  0  0  0
  1 30  2  0  0  0
  1 88  1  0  0  0
  2  3  1  0  0  0
  2 25  1  0  0  0
  2 90  1  0  0  0
  2 91  1  0  0  0
  3  4  1  0  0  0
  3 92  1  0  0  0
  3 93  1  0  0  0
  4  5  1  0  0  0
  4 94  1  0  0  0
  4 95  1  0  0  0
  5  6  1  0  0  0
  5 26  1  0  0  0
  5 96  1  0  0  0
  6 25  1  0  0  0
  6 97  1  0  0  0
  6 98  1  0  0  0
  7  8  2  0  0  0
  7 26  1  0  0  0
  7 29  1  0  0  0
  8  9  1  0  0  0
  8 22  1  0  0  0
  9 10  1  0  0  0
  9 27  2  0  0  0
 10 11  2  0  0  0
 10 15  1  0  0  0
 11 12  1  0  0  0
 11 99  1  0  0  0
 12 13  2  0  0  0
 12100  1  0  0  0
 13 14  1  0  0  0
 13 31  1  0  0  0
 14 15  2  0  0  0
 14101  1  0  0  0
 15102  1  0  0  0
 16 17  2  0  0  0
 16 21  1  0  0  0
 16 31  1  0  0  0
 17 18  1  0  0  0
 17103  1  0  0  0
 18 19  2  0  0  0
 18104  1  0  0  0
 19 20  1  0  0  0
 19 24  1  0  0  0
 20 21  2  0  0  0
 20105  1  0  0  0
 21 23  1  0  0  0
 22 28  1  0  0  0
 22 32  2  0  0  0
 26 27  1  0  0  0
 28106  1  0  0  0
 28107  1  0  0  0
 29108  1  0  0  0
 29109  1  0  0  0
 33 34  1  0  0  0
 33 66  1  0  0  0
 33 70  2  0  0  0
 34 36  1  0  0  0
 34 59  1  0  0  0
 34110  1  0  0  0
 35 44  2  0  0  0
 35 45  1  0  0  0
 35 68  1  0  0  0
 36 56  1  0  0  0
 36111  1  0  0  0
 37 39  1  0  0  0
 37 47  1  0  0  0
 37 66  1  0  0  0
 37112  1  0  0  0
 38 43  2  0  0  0
 38 46  1  0  0  0
 38 47  1  0  0  0
 39 64  1  0  0  0
 39 67  2  0  0  0
 40 52  1  0  0  0
 40 53  2  0  0  0
 40 58  1  0  0  0
 41113  1  0  0  0
 41114  1  0  0  0
 41115  1  0  0  0
 41 48  1  0  0  0
 42 43  1  0  0  0
 42 66  1  0  0  0
 42116  1  0  0  0
 42117  1  0  0  0
 43 44  1  0  0  0
 44118  1  0  0  0
 45 46  2  0  0  0
 45119  1  0  0  0
 46120  1  0  0  0
 47121  1  0  0  0
 47122  1  0  0  0
 48 56  1  0  0  0
 48 65  1  0  0  0
 48123  1  0  0  0
 49 50  1  0  0  0
 49 53  1  0  0  0
 49 64  1  0  0  0
 49124  1  0  0  0
 50 51  1  0  0  0
 50125  1  0  0  0
 50126  1  0  0  0
 51 52  1  0  0  0
 51127  1  0  0  0
 51128  1  0  0  0
 52129  1  0  0  0
 52130  1  0  0  0
 53 54  1  0  0  0
 54 55  2  0  0  0
 54131  1  0  0  0
 55 57  1  0  0  0
 55132  1  0  0  0
 56 69  2  0  0  0
 57 58  2  0  0  0
 57133  1  0  0  0
 58134  1  0  0  0
 59 60  1  0  0  0
 59 61  1  0  0  0
 59 62  1  0  0  0
 60135  1  0  0  0
 60136  1  0  0  0
 60137  1  0  0  0
 61138  1  0  0  0
 61139  1  0  0  0
 61140  1  0  0  0
 62141  1  0  0  0
 62142  1  0  0  0
 62143  1  0  0  0
 63 65  1  0  0  0
 63144  1  0  0  0
 63145  1  0  0  0
 63146  1  0  0  0
 64147  1  0  0  0
 65148  1  0  0  0
 68 84  1  0  0  0
 71 72  2  0  0  0
 71 73  1  0  0  0
 71 85  1  0  0  0
 72 74  1  0  0  0
 72 80  1  0  0  0
 73 75  2  0  0  0
 73 87  1  0  0  0
 74 81  1  0  0  0
 74 86  2  0  0  0
 75 82  1  0  0  0
 75 86  1  0  0  0
 76 78  1  0  0  0
 76 87  1  0  0  0
 76149  1  0  0  0
 76150  1  0  0  0
 77 79  1  0  0  0
 77 87  1  0  0  0
 77151  1  0  0  0
 77152  1  0  0  0
 78 79  1  0  0  0
 78 88  1  0  0  0
 78153  1  0  0  0
 79 89  1  0  0  0
 79154  1  0  0  0
 80155  1  0  0  0
 80156  1  0  0  0
 80157  1  0  0  0
 81158  1  0  0  0
 81159  1  0  0  0
 81160  1  0  0  0
 82161  1  0  0  0
 82162  1  0  0  0
 82163  1  0  0  0
 83164  1  0  0  0
 83165  1  0  0  0
 83166  1  0  0  0
 83 85  1  0  0  0
 84 85  1  0  0  0
 84167  1  0  0  0
 84168  1  0  0  0
 85169  1  0  0  0
 88170  1  0  0  0
 89171  1  0  0  0
 89172  1  0  0  0
 89173  1  0  0  0
M  CHG  1  89   1
M  ISO  4   1 100  68 101  84 101  88 100
M  END
> <chiral flag>
0

> <version>
0

> <s_m_source_file>
/data/baiqing/PycharmProjects/Reinvent-master-3.2/result/LINK_invent/BTK/process_docking_weight1_custom_sum_contain_oxygen_bond_distance_aromatic_linkinvent_7_9_3/rearranged_h_0164.sdf

> <i_m_source_file_index>
48

> <r_mmod_Potential_Energy-OPLS-2005>
78.1728897094727

> <r_mmod_Stretch_Energy-OPLS-2005>
188.791381835938

> <r_mmod_Bend_Energy-OPLS-2005>
276.305603027344

> <r_mmod_Torsional_Energy-OPLS-2005>
398.370422363281

> <r_mmod_Improper_Torsional_Energy-OPLS-2005>
11.9852676391602

> <r_mmod_Van_der_Waal_Energy-OPLS-2005>
165.838165283203

> <r_mmod_Electrostatic_Energy-OPLS-2005>
-596.596862792969

> <r_mmod_Solvation_Energy-OPLS-2005>
-481.812866210938

> <b_mmod_Minimization_Converged-OPLS-2005>
0

> <r_mmod_RMS_Derivative-OPLS-2005>
2.69798135757446

$$$$
48
                    3D
 Structure written by MMmdl.
161170  0  0  1  0            999 V2000
  -30.5919  -14.8981   20.4239 C   0  0  0  0  0  0
  -30.4260  -12.5550   19.4946 C   0  0  0  0  0  0
  -29.5131  -12.5228   18.2505 C   0  0  0  0  0  0
  -28.0437  -12.3271   18.6664 C   0  0  0  0  0  0
  -27.6293  -13.2526   19.8418 C   0  0  2  0  0  0
  -28.6732  -13.2778   20.9783 C   0  0  0  0  0  0
  -25.2455  -13.8230   20.5733 C   0  0  0  0  0  0
  -24.1774  -13.0443   20.9225 C   0  0  0  0  0  0
  -24.6394  -11.6928   20.8752 C   0  0  0  0  0  0
  -23.9070  -10.4298   21.0403 C   0  0  0  0  0  0
  -24.3624   -9.4215   21.9190 C   0  0  0  0  0  0
  -23.6305   -8.2243   22.0750 C   0  0  0  0  0  0
  -22.4290   -8.0276   21.3539 C   0  0  0  0  0  0
  -21.9922   -9.0254   20.4644 C   0  0  0  0  0  0
  -22.7239  -10.2144   20.3052 C   0  0  0  0  0  0
  -21.6854   -6.0736   22.5276 C   0  0  0  0  0  0
  -21.4013   -6.5642   23.8210 C   0  0  0  0  0  0
  -21.3668   -5.6796   24.9174 C   0  0  0  0  0  0
  -21.6049   -4.3058   24.7224 C   0  0  0  0  0  0
  -21.8820   -3.8146   23.4346 C   0  0  0  0  0  0
  -21.9196   -4.6963   22.3402 C   0  0  0  0  0  0
  -22.7797  -13.5214   21.1889 C   0  0  0  0  0  0
  -22.1656   -4.2147   21.0979 F   0  0  0  0  0  0
  -21.5643   -3.4542   25.7743 F   0  0  0  0  0  0
  -29.9514  -13.6640   20.3708 N   0  0  0  0  0  0
  -26.2888  -12.9472   20.3295 N   0  0  0  0  0  0
  -25.9334  -11.6596   20.5766 N   0  0  0  0  0  0
  -22.0451  -12.8192   22.0442 N   0  0  0  0  0  0
  -25.4144  -15.1954   20.4166 N   0  0  0  0  0  0
  -31.7937  -14.9080   20.1335 O   0  0  0  0  0  0
  -21.6649   -6.8874   21.4235 O   0  0  0  0  0  0
  -22.3475  -14.5519   20.6739 O   0  0  0  0  0  0
  -24.6425  -31.8462   23.1906 C   0  0  0  0  0  0
  -25.9204  -32.4710   23.8289 C   0  0  1  0  0  0
  -27.2153  -27.1562   20.1438 C   0  0  0  0  0  0
  -25.5965  -33.8515   24.2214 N   0  0  0  0  0  0
  -23.4443  -30.4672   21.5361 C   0  0  2  0  0  0
  -24.8923  -28.8992   20.1096 C   0  0  0  0  0  0
  -22.7560  -29.4562   22.4873 C   0  0  0  0  0  0
  -18.0307  -28.1387   22.8466 C   0  0  0  0  0  0
  -24.1495  -36.7264   23.2637 C   0  0  0  0  0  0
  -25.9995  -30.7264   21.3857 C   0  0  0  0  0  0
  -26.0700  -29.3395   20.7270 C   0  0  0  0  0  0
  -27.2334  -28.4836   20.7281 C   0  0  0  0  0  0
  -26.0119  -26.8163   19.4846 C   0  0  0  0  0  0
  -24.8757  -27.6495   19.4741 C   0  0  0  0  0  0
  -23.6681  -29.7985   20.1543 C   0  0  0  0  0  0
  -25.4125  -36.3043   24.0317 C   0  0  1  0  0  0
  -20.5916  -28.3723   23.1242 C   0  0  2  0  0  0
  -20.6794  -26.9427   22.5408 C   0  0  0  0  0  0
  -19.5771  -26.6375   21.5212 C   0  0  0  0  0  0
  -18.1950  -26.7929   22.1615 C   0  0  0  0  0  0
  -19.1558  -28.8875   23.2845 C   0  0  0  0  0  0
  -18.9469  -30.1470   23.8875 C   0  0  0  0  0  0
  -17.6465  -30.6586   24.0560 C   0  0  0  0  0  0
  -25.9073  -34.9416   23.5072 C   0  0  0  0  0  0
  -16.5359  -29.9076   23.6335 C   0  0  0  0  0  0
  -16.7287  -28.6491   23.0357 C   0  0  0  0  0  0
  -26.4528  -31.6559   25.0719 C   0  0  0  0  0  0
  -25.3715  -31.3747   26.1416 C   0  0  0  0  0  0
  -27.0375  -30.2953   24.6284 C   0  0  0  0  0  0
  -27.6071  -32.4310   25.7503 C   0  0  0  0  0  0
  -27.5587  -37.1788   24.8458 C   0  0  0  0  0  0
  -21.4257  -29.3054   22.3619 N   0  0  0  0  0  0
  -26.4294  -37.3754   23.9409 N   0  0  0  0  0  0
  -24.7150  -31.0336   22.0930 N   0  0  0  0  0  0
  -23.4204  -28.8109   23.3019 O   0  0  0  0  0  0
  -28.2630  -26.1719   20.2270 O   0  0  0  0  0  0
  -26.5649  -34.8907   22.4646 O   0  0  0  0  0  0
  -23.5545  -32.1332   23.7134 O   0  0  0  0  0  0
  -30.7091  -21.2687   21.0289 C   0  0  0  0  0  0
  -28.5706  -21.9470   20.1885 C   0  0  0  0  0  0
  -28.9176  -23.3825   20.3751 C   0  0  0  0  0  0
  -29.4720  -20.8134   20.5150 C   0  0  0  0  0  0
  -30.2134  -23.5743   20.9059 C   0  0  0  0  0  0
  -30.1443  -18.6471   19.3894 C   0  0  0  0  0  0
  -29.4140  -18.4787   21.5810 C   0  0  0  0  0  0
  -29.9540  -17.0648   19.1735 C   0  0  0  0  0  0
  -29.1890  -16.8814   21.4444 C   0  0  0  0  0  0
  -27.1952  -21.6266   19.6316 C   0  0  0  0  0  0
  -30.7737  -24.9575   21.1785 C   0  0  0  0  0  0
  -27.9518  -24.6673   20.0191 C   0  0  0  0  0  0
  -31.0600  -22.5628   21.2146 N   0  0  0  0  0  0
  -29.2643  -19.3429   20.3677 N   0  0  0  0  0  0
  -29.8678  -16.1222   20.3436 N   0  0  0  0  0  0
  -31.4645  -12.6800   19.1863 H   0  0  0  0  0  0
  -30.3921  -11.6019   20.0260 H   0  0  0  0  0  0
  -29.8203  -11.7272   17.5707 H   0  0  0  0  0  0
  -29.6184  -13.4576   17.6970 H   0  0  0  0  0  0
  -27.9224  -11.2827   18.9579 H   0  0  0  0  0  0
  -27.3840  -12.4805   17.8121 H   0  0  0  0  0  0
  -27.5949  -14.2599   19.4248 H   0  0  0  0  0  0
  -28.7481  -12.3062   21.4689 H   0  0  0  0  0  0
  -28.3860  -13.9965   21.7470 H   0  0  0  0  0  0
  -25.2764   -9.5694   22.4781 H   0  0  0  0  0  0
  -24.0019   -7.4624   22.7464 H   0  0  0  0  0  0
  -21.0857   -8.8759   19.8950 H   0  0  0  0  0  0
  -22.3680  -10.9685   19.6163 H   0  0  0  0  0  0
  -21.1985   -7.6145   23.9709 H   0  0  0  0  0  0
  -21.1501   -6.0529   25.9079 H   0  0  0  0  0  0
  -22.0592   -2.7603   23.2851 H   0  0  0  0  0  0
  -22.4073  -11.9854   22.4836 H   0  0  0  0  0  0
  -21.1064  -13.1200   22.2645 H   0  0  0  0  0  0
  -24.6535  -15.8550   20.5357 H   0  0  0  0  0  0
  -26.2729  -15.6334   20.1059 H   0  0  0  0  0  0
  -26.7273  -32.5312   23.1020 H   0  0  0  0  0  0
  -25.0120  -33.9635   25.0370 H   0  0  0  0  0  0
  -22.7461  -31.2929   21.3846 H   0  0  0  0  0  0
  -23.3770  -35.9582   23.3264 H   0  0  0  0  0  0
  -24.3594  -36.8928   22.2060 H   0  0  0  0  0  0
  -23.7232  -37.6445   23.6693 H   0  0  0  0  0  0
  -26.1526  -31.4811   20.6127 H   0  0  0  0  0  0
  -26.8709  -30.7756   22.0263 H   0  0  0  0  0  0
  -28.1293  -28.8156   21.2331 H   0  0  0  0  0  0
  -25.9091  -25.8646   18.9869 H   0  0  0  0  0  0
  -23.9764  -27.3078   18.9794 H   0  0  0  0  0  0
  -23.8027  -30.5744   19.4000 H   0  0  0  0  0  0
  -22.7826  -29.2405   19.8450 H   0  0  0  0  0  0
  -25.1311  -36.1877   25.0811 H   0  0  0  0  0  0
  -21.0003  -28.3308   24.1364 H   0  0  0  0  0  0
  -20.5692  -26.2336   23.3624 H   0  0  0  0  0  0
  -21.6662  -26.7441   22.1202 H   0  0  0  0  0  0
  -19.6939  -25.6276   21.1268 H   0  0  0  0  0  0
  -19.6719  -27.3168   20.6727 H   0  0  0  0  0  0
  -17.4225  -26.6680   21.4005 H   0  0  0  0  0  0
  -18.0340  -26.0070   22.9009 H   0  0  0  0  0  0
  -19.7945  -30.7293   24.2235 H   0  0  0  0  0  0
  -17.5015  -31.6265   24.5163 H   0  0  0  0  0  0
  -15.5355  -30.2969   23.7679 H   0  0  0  0  0  0
  -15.8685  -28.0806   22.7092 H   0  0  0  0  0  0
  -24.5892  -30.7097   25.7738 H   0  0  0  0  0  0
  -24.8902  -32.2923   26.4808 H   0  0  0  0  0  0
  -25.7989  -30.8939   27.0220 H   0  0  0  0  0  0
  -26.2974  -29.6683   24.1294 H   0  0  0  0  0  0
  -27.3989  -29.7251   25.4852 H   0  0  0  0  0  0
  -27.8888  -30.4191   23.9590 H   0  0  0  0  0  0
  -27.2678  -33.3619   26.2058 H   0  0  0  0  0  0
  -28.3894  -32.6845   25.0339 H   0  0  0  0  0  0
  -28.0720  -31.8441   26.5435 H   0  0  0  0  0  0
  -28.2579  -38.0110   24.7531 H   0  0  0  0  0  0
  -28.1107  -36.2641   24.6244 H   0  0  0  0  0  0
  -27.2308  -37.1382   25.8860 H   0  0  0  0  0  0
  -20.9468  -29.8759   21.6797 H   0  0  0  0  0  0
  -26.0158  -38.2823   24.1414 H   0  0  0  0  0  0
  -31.4736  -20.5573   21.3045 H   0  0  0  0  0  0
  -30.0164  -19.1359   18.4217 H   0  0  0  0  0  0
  -31.1854  -18.8266   19.6622 H   0  0  0  0  0  0
  -30.4141  -18.6340   21.9893 H   0  0  0  0  0  0
  -28.7338  -18.8534   22.3480 H   0  0  0  0  0  0
  -30.7417  -16.7223   18.5005 H   0  0  0  0  0  0
  -29.0309  -16.9197   18.6103 H   0  0  0  0  0  0
  -28.1214  -16.6969   21.3294 H   0  0  0  0  0  0
  -29.4590  -16.4141   22.3928 H   0  0  0  0  0  0
  -27.0411  -22.1290   18.6774 H   0  0  0  0  0  0
  -26.4219  -21.9570   20.3255 H   0  0  0  0  0  0
  -27.0622  -20.5582   19.4684 H   0  0  0  0  0  0
  -30.8254  -25.5385   20.2577 H   0  0  0  0  0  0
  -31.7812  -24.9106   21.5935 H   0  0  0  0  0  0
  -30.1499  -25.4911   21.8959 H   0  0  0  0  0  0
  -27.0160  -24.4667   20.5417 H   0  0  0  0  0  0
  -27.7314  -24.5568   18.9572 H   0  0  0  0  0  0
  1 25  1  0  0  0
  1 30  2  0  0  0
  1 85  1  0  0  0
  2  3  1  0  0  0
  2 25  1  0  0  0
  2 86  1  0  0  0
  2 87  1  0  0  0
  3  4  1  0  0  0
  3 88  1  0  0  0
  3 89  1  0  0  0
  4  5  1  0  0  0
  4 90  1  0  0  0
  4 91  1  0  0  0
  5  6  1  0  0  0
  5 26  1  0  0  0
  5 92  1  0  0  0
  6 25  1  0  0  0
  6 93  1  0  0  0
  6 94  1  0  0  0
  7  8  2  0  0  0
  7 26  1  0  0  0
  7 29  1  0  0  0
  8  9  1  0  0  0
  8 22  1  0  0  0
  9 10  1  0  0  0
  9 27  2  0  0  0
 10 11  2  0  0  0
 10 15  1  0  0  0
 11 12  1  0  0  0
 11 95  1  0  0  0
 12 13  2  0  0  0
 12 96  1  0  0  0
 13 14  1  0  0  0
 13 31  1  0  0  0
 14 15  2  0  0  0
 14 97  1  0  0  0
 15 98  1  0  0  0
 16 17  2  0  0  0
 16 21  1  0  0  0
 16 31  1  0  0  0
 17 18  1  0  0  0
 17 99  1  0  0  0
 18 19  2  0  0  0
 18100  1  0  0  0
 19 20  1  0  0  0
 19 24  1  0  0  0
 20 21  2  0  0  0
 20101  1  0  0  0
 21 23  1  0  0  0
 22 28  1  0  0  0
 22 32  2  0  0  0
 26 27  1  0  0  0
 28102  1  0  0  0
 28103  1  0  0  0
 29104  1  0  0  0
 29105  1  0  0  0
 33 34  1  0  0  0
 33 66  1  0  0  0
 33 70  2  0  0  0
 34 36  1  0  0  0
 34 59  1  0  0  0
 34106  1  0  0  0
 35 44  2  0  0  0
 35 45  1  0  0  0
 35 68  1  0  0  0
 36 56  1  0  0  0
 36107  1  0  0  0
 37 39  1  0  0  0
 37 47  1  0  0  0
 37 66  1  0  0  0
 37108  1  0  0  0
 38 43  2  0  0  0
 38 46  1  0  0  0
 38 47  1  0  0  0
 39 64  1  0  0  0
 39 67  2  0  0  0
 40 52  1  0  0  0
 40 53  2  0  0  0
 40 58  1  0  0  0
 41109  1  0  0  0
 41110  1  0  0  0
 41111  1  0  0  0
 41 48  1  0  0  0
 42 43  1  0  0  0
 42 66  1  0  0  0
 42112  1  0  0  0
 42113  1  0  0  0
 43 44  1  0  0  0
 44114  1  0  0  0
 45 46  2  0  0  0
 45115  1  0  0  0
 46116  1  0  0  0
 47117  1  0  0  0
 47118  1  0  0  0
 48 56  1  0  0  0
 48 65  1  0  0  0
 48119  1  0  0  0
 49 50  1  0  0  0
 49 53  1  0  0  0
 49 64  1  0  0  0
 49120  1  0  0  0
 50 51  1  0  0  0
 50121  1  0  0  0
 50122  1  0  0  0
 51 52  1  0  0  0
 51123  1  0  0  0
 51124  1  0  0  0
 52125  1  0  0  0
 52126  1  0  0  0
 53 54  1  0  0  0
 54 55  2  0  0  0
 54127  1  0  0  0
 55 57  1  0  0  0
 55128  1  0  0  0
 56 69  2  0  0  0
 57 58  2  0  0  0
 57129  1  0  0  0
 58130  1  0  0  0
 59 60  1  0  0  0
 59 61  1  0  0  0
 59 62  1  0  0  0
 60131  1  0  0  0
 60132  1  0  0  0
 60133  1  0  0  0
 61134  1  0  0  0
 61135  1  0  0  0
 61136  1  0  0  0
 62137  1  0  0  0
 62138  1  0  0  0
 62139  1  0  0  0
 63 65  1  0  0  0
 63140  1  0  0  0
 63141  1  0  0  0
 63142  1  0  0  0
 64143  1  0  0  0
 65144  1  0  0  0
 68 82  1  0  0  0
 71 74  2  0  0  0
 71 83  1  0  0  0
 71145  1  0  0  0
 72 73  2  0  0  0
 72 74  1  0  0  0
 72 80  1  0  0  0
 73 75  1  0  0  0
 73 82  1  0  0  0
 74 84  1  0  0  0
 75 81  1  0  0  0
 75 83  2  0  0  0
 76 78  1  0  0  0
 76 84  1  0  0  0
 76146  1  0  0  0
 76147  1  0  0  0
 77 79  1  0  0  0
 77 84  1  0  0  0
 77148  1  0  0  0
 77149  1  0  0  0
 78 85  1  0  0  0
 78150  1  0  0  0
 78151  1  0  0  0
 79 85  1  0  0  0
 79152  1  0  0  0
 79153  1  0  0  0
 80154  1  0  0  0
 80155  1  0  0  0
 80156  1  0  0  0
 81157  1  0  0  0
 81158  1  0  0  0
 81159  1  0  0  0
 82160  1  0  0  0
 82161  1  0  0  0
M  ISO  4   1 100  68 101  82 101  85 100
M  END
> <chiral flag>
0

> <version>
0

> <s_m_source_file>
/data/baiqing/PycharmProjects/Reinvent-master-3.2/result/LINK_invent/BTK/process_docking_weight1_custom_sum_contain_oxygen_bond_distance_aromatic_linkinvent_7_9_3/rearranged_h_0164.sdf

> <i_m_source_file_index>
49

> <r_mmod_Potential_Energy-OPLS-2005>
531.933288574219

> <r_mmod_Stretch_Energy-OPLS-2005>
208.098999023438

> <r_mmod_Bend_Energy-OPLS-2005>
238.32926940918

> <r_mmod_Torsional_Energy-OPLS-2005>
372.700164794922

> <r_mmod_Improper_Torsional_Energy-OPLS-2005>
20.4015865325928

> <r_mmod_Van_der_Waal_Energy-OPLS-2005>
138.166198730469

> <r_mmod_Electrostatic_Energy-OPLS-2005>
-393.920135498047

> <r_mmod_Solvation_Energy-OPLS-2005>
-219.142547607422

> <b_mmod_Minimization_Converged-OPLS-2005>
0

> <r_mmod_RMS_Derivative-OPLS-2005>
1.54623651504517

$$$$
49
                    3D
 Structure written by MMmdl.
177186  0  0  1  0            999 V2000
  -30.6507  -14.6092   20.5074 C   0  0  0  0  0  0
  -30.4330  -12.3748   19.4566 C   0  0  0  0  0  0
  -29.5091  -12.5006   18.2259 C   0  0  0  0  0  0
  -28.0309  -12.3431   18.6374 C   0  0  0  0  0  0
  -27.6524  -13.2162   19.8645 C   0  0  2  0  0  0
  -28.6963  -13.0778   20.9968 C   0  0  0  0  0  0
  -25.2548  -13.8165   20.5705 C   0  0  0  0  0  0
  -24.1817  -13.0427   20.9189 C   0  0  0  0  0  0
  -24.6387  -11.6902   20.8732 C   0  0  0  0  0  0
  -23.9053  -10.4286   21.0392 C   0  0  0  0  0  0
  -24.3614   -9.4203   21.9165 C   0  0  0  0  0  0
  -23.6301   -8.2237   22.0743 C   0  0  0  0  0  0
  -22.4282   -8.0267   21.3538 C   0  0  0  0  0  0
  -21.9908   -9.0235   20.4642 C   0  0  0  0  0  0
  -22.7230  -10.2114   20.3045 C   0  0  0  0  0  0
  -21.6852   -6.0724   22.5275 C   0  0  0  0  0  0
  -21.4003   -6.5629   23.8203 C   0  0  0  0  0  0
  -21.3662   -5.6787   24.9169 C   0  0  0  0  0  0
  -21.6048   -4.3046   24.7220 C   0  0  0  0  0  0
  -21.8820   -3.8135   23.4341 C   0  0  0  0  0  0
  -21.9190   -4.6954   22.3400 C   0  0  0  0  0  0
  -22.7840  -13.5219   21.1849 C   0  0  0  0  0  0
  -22.1668   -4.2135   21.0981 F   0  0  0  0  0  0
  -21.5640   -3.4530   25.7737 F   0  0  0  0  0  0
  -30.0159  -13.4000   20.4331 N   0  0  0  0  0  0
  -26.2980  -12.9349   20.3330 N   0  0  0  0  0  0
  -25.9308  -11.6501   20.5745 N   0  0  0  0  0  0
  -22.0479  -12.8220   22.0416 N   0  0  0  0  0  0
  -25.4243  -15.1897   20.4153 N   0  0  0  0  0  0
  -31.8064  -14.7600   20.1086 O   0  0  0  0  0  0
  -21.6645   -6.8867   21.4235 O   0  0  0  0  0  0
  -22.3525  -14.5511   20.6680 O   0  0  0  0  0  0
  -24.6251  -31.8624   23.2054 C   0  0  0  0  0  0
  -25.9116  -32.4795   23.8373 C   0  0  1  0  0  0
  -27.2257  -27.3416   20.1061 C   0  0  0  0  0  0
  -25.5944  -33.8596   24.2302 N   0  0  0  0  0  0
  -23.4169  -30.4878   21.5487 C   0  0  2  0  0  0
  -24.8614  -28.9489   20.1138 C   0  0  0  0  0  0
  -22.7471  -29.4644   22.4957 C   0  0  0  0  0  0
  -18.0282  -28.1385   22.8481 C   0  0  0  0  0  0
  -24.1486  -36.7287   23.2638 C   0  0  0  0  0  0
  -25.9583  -30.8000   21.3736 C   0  0  0  0  0  0
  -26.0327  -29.4317   20.7112 C   0  0  0  0  0  0
  -27.2185  -28.6416   20.6955 C   0  0  0  0  0  0
  -26.0231  -26.9048   19.4978 C   0  0  0  0  0  0
  -24.8569  -27.6887   19.5012 C   0  0  0  0  0  0
  -23.6296  -29.8265   20.1632 C   0  0  0  0  0  0
  -25.4110  -36.3092   24.0335 C   0  0  1  0  0  0
  -20.5880  -28.3683   23.1294 C   0  0  2  0  0  0
  -20.6772  -26.9407   22.5418 C   0  0  0  0  0  0
  -19.5761  -26.6378   21.5208 C   0  0  0  0  0  0
  -18.1930  -26.7940   22.1597 C   0  0  0  0  0  0
  -19.1534  -28.8849   23.2883 C   0  0  0  0  0  0
  -18.9455  -30.1449   23.8904 C   0  0  0  0  0  0
  -17.6457  -30.6586   24.0558 C   0  0  0  0  0  0
  -25.9052  -34.9463   23.5113 C   0  0  0  0  0  0
  -16.5348  -29.9082   23.6332 C   0  0  0  0  0  0
  -16.7266  -28.6498   23.0356 C   0  0  0  0  0  0
  -26.4491  -31.6610   25.0749 C   0  0  0  0  0  0
  -25.3721  -31.3758   26.1480 C   0  0  0  0  0  0
  -27.0317  -30.3027   24.6210 C   0  0  0  0  0  0
  -27.6056  -32.4341   25.7515 C   0  0  0  0  0  0
  -27.5589  -37.1789   24.8455 C   0  0  0  0  0  0
  -21.4186  -29.3040   22.3698 N   0  0  0  0  0  0
  -26.4284  -37.3792   23.9425 N   0  0  0  0  0  0
  -24.6858  -31.0663   22.0995 N   0  0  0  0  0  0
  -23.4207  -28.8183   23.3028 O   0  0  0  0  0  0
  -28.3547  -26.5094   20.1467 O   0  0  0  0  0  0
  -26.5605  -34.8926   22.4670 O   0  0  0  0  0  0
  -23.5424  -32.1415   23.7394 O   0  0  0  0  0  0
  -31.6664  -23.4306   20.1203 C   0  0  0  0  0  0
  -30.6513  -24.4003   20.0224 C   0  0  0  0  0  0
  -31.3939  -22.0595   20.2977 C   0  0  0  0  0  0
  -29.2934  -24.0148   20.1405 C   0  0  0  0  0  0
  -29.0104  -22.6020   20.3084 C   0  0  0  0  0  0
  -30.0469  -21.5970   20.3925 C   0  0  0  0  0  0
  -29.8511  -18.0142   21.8895 C   0  0  0  0  0  0
  -30.2574  -19.5192   21.7547 C   0  0  0  0  0  0
  -29.8204  -19.3943   19.3008 C   0  0  0  0  0  0
  -30.1806  -17.1651   20.6307 C   0  0  2  0  0  0
  -29.4140  -17.8793   19.4692 C   0  0  2  0  0  0
  -31.0718  -25.8367   19.7544 C   0  0  0  0  0  0
  -32.6180  -21.1522   20.3689 C   0  0  0  0  0  0
  -27.5480  -22.1707   20.3830 C   0  0  0  0  0  0
  -28.3213  -17.3442   17.2966 C   0  0  0  0  0  0
  -30.7697  -17.1682   17.4772 C   0  0  0  0  0  0
  -28.1312  -25.0614   19.9802 C   0  0  0  0  0  0
  -29.7448  -20.1942   20.5419 N   0  0  0  0  0  0
  -29.8677  -15.6930   20.7904 N   0  0  0  0  0  0
  -29.4748  -17.1025   18.1974 N   0  3  0  0  0  0
  -31.4784  -12.4824   19.1599 H   0  0  0  0  0  0
  -30.3513  -11.3786   19.8950 H   0  0  0  0  0  0
  -29.7749  -11.7494   17.4801 H   0  0  0  0  0  0
  -29.6577  -13.4695   17.7482 H   0  0  0  0  0  0
  -27.8698  -11.2911   18.8744 H   0  0  0  0  0  0
  -27.3754  -12.5671   17.7957 H   0  0  0  0  0  0
  -27.6682  -14.2503   19.5211 H   0  0  0  0  0  0
  -28.6990  -12.0612   21.3944 H   0  0  0  0  0  0
  -28.4474  -13.7271   21.8377 H   0  0  0  0  0  0
  -25.2766   -9.5687   22.4719 H   0  0  0  0  0  0
  -24.0022   -7.4626   22.7454 H   0  0  0  0  0  0
  -21.0842   -8.8744   19.8947 H   0  0  0  0  0  0
  -22.3692  -10.9643   19.6145 H   0  0  0  0  0  0
  -21.1983   -7.6134   23.9703 H   0  0  0  0  0  0
  -21.1495   -6.0514   25.9074 H   0  0  0  0  0  0
  -22.0599   -2.7599   23.2835 H   0  0  0  0  0  0
  -22.4094  -11.9900   22.4844 H   0  0  0  0  0  0
  -21.1078  -13.1224   22.2576 H   0  0  0  0  0  0
  -24.6533  -15.8377   20.5345 H   0  0  0  0  0  0
  -26.2743  -15.6413   20.1104 H   0  0  0  0  0  0
  -26.7197  -32.5458   23.1131 H   0  0  0  0  0  0
  -25.0124  -33.9749   25.0471 H   0  0  0  0  0  0
  -22.7102  -31.3081   21.4086 H   0  0  0  0  0  0
  -23.3771  -35.9592   23.3270 H   0  0  0  0  0  0
  -24.3590  -36.8935   22.2060 H   0  0  0  0  0  0
  -23.7203  -37.6467   23.6673 H   0  0  0  0  0  0
  -26.0917  -31.5668   20.6094 H   0  0  0  0  0  0
  -26.8388  -30.8428   22.0035 H   0  0  0  0  0  0
  -28.1187  -29.0113   21.1670 H   0  0  0  0  0  0
  -25.9389  -25.9420   19.0188 H   0  0  0  0  0  0
  -23.9583  -27.3078   19.0358 H   0  0  0  0  0  0
  -23.7462  -30.6041   19.4074 H   0  0  0  0  0  0
  -22.7500  -29.2546   19.8615 H   0  0  0  0  0  0
  -25.1283  -36.1942   25.0827 H   0  0  0  0  0  0
  -20.9960  -28.3243   24.1418 H   0  0  0  0  0  0
  -20.5650  -26.2292   23.3612 H   0  0  0  0  0  0
  -21.6644  -26.7431   22.1223 H   0  0  0  0  0  0
  -19.6916  -25.6281   21.1254 H   0  0  0  0  0  0
  -19.6726  -27.3169   20.6727 H   0  0  0  0  0  0
  -17.4218  -26.6711   21.3977 H   0  0  0  0  0  0
  -18.0300  -26.0067   22.8971 H   0  0  0  0  0  0
  -19.7932  -30.7255   24.2284 H   0  0  0  0  0  0
  -17.5014  -31.6271   24.5148 H   0  0  0  0  0  0
  -15.5347  -30.2979   23.7665 H   0  0  0  0  0  0
  -15.8665  -28.0808   22.7085 H   0  0  0  0  0  0
  -24.5954  -30.7026   25.7844 H   0  0  0  0  0  0
  -24.8832  -32.2913   26.4820 H   0  0  0  0  0  0
  -25.8059  -30.9045   27.0310 H   0  0  0  0  0  0
  -26.2888  -29.6806   24.1210 H   0  0  0  0  0  0
  -27.3973  -29.7271   25.4725 H   0  0  0  0  0  0
  -27.8781  -30.4305   23.9457 H   0  0  0  0  0  0
  -27.2671  -33.3622   26.2129 H   0  0  0  0  0  0
  -28.3845  -32.6941   25.0338 H   0  0  0  0  0  0
  -28.0760  -31.8456   26.5401 H   0  0  0  0  0  0
  -28.2584  -38.0110   24.7539 H   0  0  0  0  0  0
  -28.1102  -36.2643   24.6213 H   0  0  0  0  0  0
  -27.2325  -37.1364   25.8862 H   0  0  0  0  0  0
  -20.9365  -29.8773   21.6917 H   0  0  0  0  0  0
  -26.0165  -38.2859   24.1461 H   0  0  0  0  0  0
  -32.6972  -23.7494   20.0382 H   0  0  0  0  0  0
  -28.7850  -17.9518   22.1139 H   0  0  0  0  0  0
  -30.3602  -17.5925   22.7572 H   0  0  0  0  0  0
  -31.3405  -19.5698   21.8109 H   0  0  0  0  0  0
  -29.8935  -20.0619   22.6288 H   0  0  0  0  0  0
  -29.1600  -19.8579   18.5672 H   0  0  0  0  0  0
  -30.8199  -19.4663   18.8789 H   0  0  0  0  0  0
  -31.2528  -17.2644   20.4495 H   0  0  0  0  0  0
  -28.3629  -17.8787   19.7671 H   0  0  0  0  0  0
  -32.1347  -25.9081   19.5219 H   0  0  0  0  0  0
  -30.8828  -26.4640   20.6256 H   0  0  0  0  0  0
  -30.5332  -26.2457   18.8991 H   0  0  0  0  0  0
  -33.4484  -21.5776   19.8043 H   0  0  0  0  0  0
  -32.4518  -20.1577   19.9645 H   0  0  0  0  0  0
  -32.9489  -21.0517   21.4029 H   0  0  0  0  0  0
  -27.0923  -22.5417   21.3011 H   0  0  0  0  0  0
  -27.4107  -21.0910   20.3693 H   0  0  0  0  0  0
  -26.9878  -22.5679   19.5364 H   0  0  0  0  0  0
  -27.3719  -17.1764   17.8068 H   0  0  0  0  0  0
  -28.3488  -16.6658   16.4437 H   0  0  0  0  0  0
  -28.3219  -18.3627   16.9094 H   0  0  0  0  0  0
  -31.6098  -16.9456   18.1347 H   0  0  0  0  0  0
  -30.9336  -18.1485   17.0293 H   0  0  0  0  0  0
  -30.7914  -16.4365   16.6692 H   0  0  0  0  0  0
  -27.3407  -24.7862   20.6791 H   0  0  0  0  0  0
  -27.7562  -24.8841   18.9726 H   0  0  0  0  0  0
  -28.9461  -15.4684   21.1376 H   0  0  0  0  0  0
  -29.3789  -16.1424   18.4860 H   0  0  0  0  0  0
  1 25  1  0  0  0
  1 30  2  0  0  0
  1 89  1  0  0  0
  2  3  1  0  0  0
  2 25  1  0  0  0
  2 91  1  0  0  0
  2 92  1  0  0  0
  3  4  1  0  0  0
  3 93  1  0  0  0
  3 94  1  0  0  0
  4  5  1  0  0  0
  4 95  1  0  0  0
  4 96  1  0  0  0
  5  6  1  0  0  0
  5 26  1  0  0  0
  5 97  1  0  0  0
  6 25  1  0  0  0
  6 98  1  0  0  0
  6 99  1  0  0  0
  7  8  2  0  0  0
  7 26  1  0  0  0
  7 29  1  0  0  0
  8  9  1  0  0  0
  8 22  1  0  0  0
  9 10  1  0  0  0
  9 27  2  0  0  0
 10 11  2  0  0  0
 10 15  1  0  0  0
 11 12  1  0  0  0
 11100  1  0  0  0
 12 13  2  0  0  0
 12101  1  0  0  0
 13 14  1  0  0  0
 13 31  1  0  0  0
 14 15  2  0  0  0
 14102  1  0  0  0
 15103  1  0  0  0
 16 17  2  0  0  0
 16 21  1  0  0  0
 16 31  1  0  0  0
 17 18  1  0  0  0
 17104  1  0  0  0
 18 19  2  0  0  0
 18105  1  0  0  0
 19 20  1  0  0  0
 19 24  1  0  0  0
 20 21  2  0  0  0
 20106  1  0  0  0
 21 23  1  0  0  0
 22 28  1  0  0  0
 22 32  2  0  0  0
 26 27  1  0  0  0
 28107  1  0  0  0
 28108  1  0  0  0
 29109  1  0  0  0
 29110  1  0  0  0
 33 34  1  0  0  0
 33 66  1  0  0  0
 33 70  2  0  0  0
 34 36  1  0  0  0
 34 59  1  0  0  0
 34111  1  0  0  0
 35 44  2  0  0  0
 35 45  1  0  0  0
 35 68  1  0  0  0
 36 56  1  0  0  0
 36112  1  0  0  0
 37 39  1  0  0  0
 37 47  1  0  0  0
 37 66  1  0  0  0
 37113  1  0  0  0
 38 43  2  0  0  0
 38 46  1  0  0  0
 38 47  1  0  0  0
 39 64  1  0  0  0
 39 67  2  0  0  0
 40 52  1  0  0  0
 40 53  2  0  0  0
 40 58  1  0  0  0
 41114  1  0  0  0
 41115  1  0  0  0
 41116  1  0  0  0
 41 48  1  0  0  0
 42 43  1  0  0  0
 42 66  1  0  0  0
 42117  1  0  0  0
 42118  1  0  0  0
 43 44  1  0  0  0
 44119  1  0  0  0
 45 46  2  0  0  0
 45120  1  0  0  0
 46121  1  0  0  0
 47122  1  0  0  0
 47123  1  0  0  0
 48 56  1  0  0  0
 48 65  1  0  0  0
 48124  1  0  0  0
 49 50  1  0  0  0
 49 53  1  0  0  0
 49 64  1  0  0  0
 49125  1  0  0  0
 50 51  1  0  0  0
 50126  1  0  0  0
 50127  1  0  0  0
 51 52  1  0  0  0
 51128  1  0  0  0
 51129  1  0  0  0
 52130  1  0  0  0
 52131  1  0  0  0
 53 54  1  0  0  0
 54 55  2  0  0  0
 54132  1  0  0  0
 55 57  1  0  0  0
 55133  1  0  0  0
 56 69  2  0  0  0
 57 58  2  0  0  0
 57134  1  0  0  0
 58135  1  0  0  0
 59 60  1  0  0  0
 59 61  1  0  0  0
 59 62  1  0  0  0
 60136  1  0  0  0
 60137  1  0  0  0
 60138  1  0  0  0
 61139  1  0  0  0
 61140  1  0  0  0
 61141  1  0  0  0
 62142  1  0  0  0
 62143  1  0  0  0
 62144  1  0  0  0
 63 65  1  0  0  0
 63145  1  0  0  0
 63146  1  0  0  0
 63147  1  0  0  0
 64148  1  0  0  0
 65149  1  0  0  0
 68 87  1  0  0  0
 71 72  2  0  0  0
 71 73  1  0  0  0
 71150  1  0  0  0
 72 74  1  0  0  0
 72 82  1  0  0  0
 73 76  2  0  0  0
 73 83  1  0  0  0
 74 75  2  0  0  0
 74 87  1  0  0  0
 75 76  1  0  0  0
 75 84  1  0  0  0
 76 88  1  0  0  0
 77 78  1  0  0  0
 77 80  1  0  0  0
 77151  1  0  0  0
 77152  1  0  0  0
 78 88  1  0  0  0
 78153  1  0  0  0
 78154  1  0  0  0
 79 88  1  0  0  0
 79155  1  0  0  0
 79156  1  0  0  0
 79 81  1  0  0  0
 80 81  1  0  0  0
 80 89  1  0  0  0
 80157  1  0  0  0
 81 90  1  0  0  0
 81158  1  0  0  0
 82159  1  0  0  0
 82160  1  0  0  0
 82161  1  0  0  0
 83162  1  0  0  0
 83163  1  0  0  0
 83164  1  0  0  0
 84165  1  0  0  0
 84166  1  0  0  0
 84167  1  0  0  0
 85168  1  0  0  0
 85169  1  0  0  0
 85170  1  0  0  0
 85 90  1  0  0  0
 86 90  1  0  0  0
 86171  1  0  0  0
 86172  1  0  0  0
 86173  1  0  0  0
 87174  1  0  0  0
 87175  1  0  0  0
 89176  1  0  0  0
 90177  1  0  0  0
M  CHG  1  90   1
M  ISO  4   1 100  68 101  87 101  89 100
M  END
> <chiral flag>
0

> <version>
0

> <s_m_source_file>
/data/baiqing/PycharmProjects/Reinvent-master-3.2/result/LINK_invent/BTK/process_docking_weight1_custom_sum_contain_oxygen_bond_distance_aromatic_linkinvent_7_9_3/rearranged_h_0164.sdf

> <i_m_source_file_index>
50

> <r_mmod_Potential_Energy-OPLS-2005>
-26.6336288452148

> <r_mmod_Stretch_Energy-OPLS-2005>
82.4599533081055

> <r_mmod_Bend_Energy-OPLS-2005>
139.090301513672

> <r_mmod_Torsional_Energy-OPLS-2005>
299.525970458984

> <r_mmod_Improper_Torsional_Energy-OPLS-2005>
9.72040462493896

> <r_mmod_Van_der_Waal_Energy-OPLS-2005>
159.975082397461

> <r_mmod_Electrostatic_Energy-OPLS-2005>
-324.388793945312

> <r_mmod_Solvation_Energy-OPLS-2005>
-432.845703125

> <b_mmod_Minimization_Converged-OPLS-2005>
0

> <r_mmod_RMS_Derivative-OPLS-2005>
1.69523417949677

$$$$
50
                    3D
 Structure written by MMmdl.
167176  0  0  1  0            999 V2000
  -30.6683  -14.5498   20.5145 C   0  0  0  0  0  0
  -30.4258  -12.3476   19.4221 C   0  0  0  0  0  0
  -29.4939  -12.5011   18.2017 C   0  0  0  0  0  0
  -28.0140  -12.3628   18.6167 C   0  0  0  0  0  0
  -27.6555  -13.2072   19.8710 C   0  0  2  0  0  0
  -28.7071  -12.9953   20.9831 C   0  0  0  0  0  0
  -25.2567  -13.8156   20.5670 C   0  0  0  0  0  0
  -24.1829  -13.0440   20.9151 C   0  0  0  0  0  0
  -24.6375  -11.6900   20.8715 C   0  0  0  0  0  0
  -23.9047  -10.4290   21.0395 C   0  0  0  0  0  0
  -24.3607   -9.4208   21.9169 C   0  0  0  0  0  0
  -23.6283   -8.2250   22.0739 C   0  0  0  0  0  0
  -22.4267   -8.0276   21.3534 C   0  0  0  0  0  0
  -21.9893   -9.0246   20.4638 C   0  0  0  0  0  0
  -22.7220  -10.2127   20.3044 C   0  0  0  0  0  0
  -21.6852   -6.0726   22.5270 C   0  0  0  0  0  0
  -21.4026   -6.5628   23.8203 C   0  0  0  0  0  0
  -21.3658   -5.6780   24.9163 C   0  0  0  0  0  0
  -21.6047   -4.3042   24.7217 C   0  0  0  0  0  0
  -21.8826   -3.8131   23.4337 C   0  0  0  0  0  0
  -21.9200   -4.6953   22.3394 C   0  0  0  0  0  0
  -22.7858  -13.5244   21.1829 C   0  0  0  0  0  0
  -22.1667   -4.2133   21.0975 F   0  0  0  0  0  0
  -21.5623   -3.4526   25.7732 F   0  0  0  0  0  0
  -30.0078  -13.3570   20.4121 N   0  0  0  0  0  0
  -26.3001  -12.9327   20.3372 N   0  0  0  0  0  0
  -25.9307  -11.6488   20.5764 N   0  0  0  0  0  0
  -22.0499  -12.8237   22.0384 N   0  0  0  0  0  0
  -25.4294  -15.1877   20.4074 N   0  0  0  0  0  0
  -31.8596  -14.6268   20.1950 O   0  0  0  0  0  0
  -21.6638   -6.8871   21.4234 O   0  0  0  0  0  0
  -22.3539  -14.5548   20.6663 O   0  0  0  0  0  0
  -24.6162  -31.8660   23.2086 C   0  0  0  0  0  0
  -25.9047  -32.4818   23.8371 C   0  0  1  0  0  0
  -27.2315  -27.4030   20.1168 C   0  0  0  0  0  0
  -25.5906  -33.8612   24.2314 N   0  0  0  0  0  0
  -23.4054  -30.4881   21.5509 C   0  0  2  0  0  0
  -24.8506  -28.9403   20.1266 C   0  0  0  0  0  0
  -22.7408  -29.4659   22.5011 C   0  0  0  0  0  0
  -18.0268  -28.1390   22.8503 C   0  0  0  0  0  0
  -24.1485  -36.7309   23.2640 C   0  0  0  0  0  0
  -25.9339  -30.8208   21.3654 C   0  0  0  0  0  0
  -26.0111  -29.4485   20.7233 C   0  0  0  0  0  0
  -27.2051  -28.6880   20.7128 C   0  0  0  0  0  0
  -26.0550  -26.9177   19.5079 C   0  0  0  0  0  0
  -24.8668  -27.6739   19.5178 C   0  0  0  0  0  0
  -23.6166  -29.8143   20.1685 C   0  0  0  0  0  0
  -25.4109  -36.3111   24.0339 C   0  0  1  0  0  0
  -20.5858  -28.3677   23.1324 C   0  0  2  0  0  0
  -20.6764  -26.9419   22.5415 C   0  0  0  0  0  0
  -19.5744  -26.6404   21.5212 C   0  0  0  0  0  0
  -18.1922  -26.7937   22.1632 C   0  0  0  0  0  0
  -19.1515  -28.8847   23.2913 C   0  0  0  0  0  0
  -18.9452  -30.1456   23.8915 C   0  0  0  0  0  0
  -17.6455  -30.6595   24.0573 C   0  0  0  0  0  0
  -25.9035  -34.9476   23.5121 C   0  0  0  0  0  0
  -16.5347  -29.9099   23.6340 C   0  0  0  0  0  0
  -16.7257  -28.6523   23.0350 C   0  0  0  0  0  0
  -26.4464  -31.6599   25.0703 C   0  0  0  0  0  0
  -25.3735  -31.3698   26.1459 C   0  0  0  0  0  0
  -27.0282  -30.3043   24.6065 C   0  0  0  0  0  0
  -27.6036  -32.4314   25.7472 C   0  0  0  0  0  0
  -27.5579  -37.1810   24.8466 C   0  0  0  0  0  0
  -21.4133  -29.3042   22.3725 N   0  0  0  0  0  0
  -26.4291  -37.3800   23.9416 N   0  0  0  0  0  0
  -24.6705  -31.0738   22.1007 N   0  0  0  0  0  0
  -23.4168  -28.8215   23.3079 O   0  0  0  0  0  0
  -28.4110  -26.6887   20.0414 O   0  0  0  0  0  0
  -26.5597  -34.8936   22.4680 O   0  0  0  0  0  0
  -23.5351  -32.1426   23.7474 O   0  0  0  0  0  0
  -29.0706  -20.5599   19.6496 C   0  0  0  0  0  0
  -28.4035  -22.3265   21.7105 C   0  0  0  0  0  0
  -29.1868  -20.0970   20.9809 C   0  0  0  0  0  0
  -28.8344  -21.0088   22.0180 C   0  0  0  0  0  0
  -28.3254  -22.7914   20.3774 C   0  0  0  0  0  0
  -28.6815  -21.8860   19.3448 C   0  0  0  0  0  0
  -28.5250  -17.6344   21.4328 C   0  0  0  0  0  0
  -30.7349  -18.0769   20.2884 C   0  0  0  0  0  0
  -28.9996  -16.1523   21.5554 C   0  0  0  0  0  0
  -30.2748  -16.7938   19.5437 C   0  0  0  0  0  0
  -29.6782  -18.6496   21.2767 C   0  0  0  0  0  0
  -28.8934  -20.5946   23.4810 C   0  0  0  0  0  0
  -29.6940  -23.0821   17.5911 C   0  0  0  0  0  0
  -27.7784  -24.2041   20.0586 C   0  0  0  0  0  0
  -28.5195  -25.4088   20.7064 C   0  0  0  0  0  0
  -29.9065  -15.6954   20.4729 N   0  0  0  0  0  0
  -28.6243  -22.2452   18.0222 O   0  0  0  0  0  0
  -31.4673  -12.4586   19.1157 H   0  0  0  0  0  0
  -30.3485  -11.3434   19.8395 H   0  0  0  0  0  0
  -29.7383  -11.7551   17.4443 H   0  0  0  0  0  0
  -29.6565  -13.4739   17.7349 H   0  0  0  0  0  0
  -27.8258  -11.3072   18.8164 H   0  0  0  0  0  0
  -27.3653  -12.6324   17.7827 H   0  0  0  0  0  0
  -27.6898  -14.2513   19.5612 H   0  0  0  0  0  0
  -28.7145  -11.9491   21.2903 H   0  0  0  0  0  0
  -28.4861  -13.5426   21.8961 H   0  0  0  0  0  0
  -25.2761   -9.5691   22.4726 H   0  0  0  0  0  0
  -23.9989   -7.4652   22.7463 H   0  0  0  0  0  0
  -21.0813   -8.8763   19.8947 H   0  0  0  0  0  0
  -22.3673  -10.9658   19.6137 H   0  0  0  0  0  0
  -21.2019   -7.6134   23.9701 H   0  0  0  0  0  0
  -21.1473   -6.0506   25.9064 H   0  0  0  0  0  0
  -22.0605   -2.7591   23.2840 H   0  0  0  0  0  0
  -22.4122  -11.9918   22.4811 H   0  0  0  0  0  0
  -21.1108  -13.1244   22.2577 H   0  0  0  0  0  0
  -24.6655  -15.8455   20.5180 H   0  0  0  0  0  0
  -26.2884  -15.6248   20.1003 H   0  0  0  0  0  0
  -26.7106  -32.5526   23.1125 H   0  0  0  0  0  0
  -25.0069  -33.9761   25.0467 H   0  0  0  0  0  0
  -22.6967  -31.3057   21.4077 H   0  0  0  0  0  0
  -23.3747  -35.9642   23.3308 H   0  0  0  0  0  0
  -24.3577  -36.8911   22.2052 H   0  0  0  0  0  0
  -23.7229  -37.6516   23.6639 H   0  0  0  0  0  0
  -26.0399  -31.5766   20.5862 H   0  0  0  0  0  0
  -26.8238  -30.8839   21.9793 H   0  0  0  0  0  0
  -28.1068  -29.0837   21.1598 H   0  0  0  0  0  0
  -26.0493  -25.9668   18.9984 H   0  0  0  0  0  0
  -23.9772  -27.2794   19.0471 H   0  0  0  0  0  0
  -23.7356  -30.5833   19.4047 H   0  0  0  0  0  0
  -22.7376  -29.2387   19.8726 H   0  0  0  0  0  0
  -25.1282  -36.1977   25.0830 H   0  0  0  0  0  0
  -20.9947  -28.3246   24.1449 H   0  0  0  0  0  0
  -20.5680  -26.2288   23.3604 H   0  0  0  0  0  0
  -21.6636  -26.7473   22.1206 H   0  0  0  0  0  0
  -19.6905  -25.6320   21.1235 H   0  0  0  0  0  0
  -19.6683  -27.3219   20.6748 H   0  0  0  0  0  0
  -17.4196  -26.6691   21.4032 H   0  0  0  0  0  0
  -18.0330  -26.0063   22.9015 H   0  0  0  0  0  0
  -19.7924  -30.7265   24.2304 H   0  0  0  0  0  0
  -17.5013  -31.6282   24.5164 H   0  0  0  0  0  0
  -15.5352  -30.3009   23.7652 H   0  0  0  0  0  0
  -15.8661  -28.0849   22.7050 H   0  0  0  0  0  0
  -24.5928  -30.7015   25.7810 H   0  0  0  0  0  0
  -24.8908  -32.2846   26.4901 H   0  0  0  0  0  0
  -25.8115  -30.8889   27.0212 H   0  0  0  0  0  0
  -26.2808  -29.6829   24.1123 H   0  0  0  0  0  0
  -27.4050  -29.7259   25.4506 H   0  0  0  0  0  0
  -27.8644  -30.4359   23.9199 H   0  0  0  0  0  0
  -27.2648  -33.3600   26.2069 H   0  0  0  0  0  0
  -28.3844  -32.6889   25.0307 H   0  0  0  0  0  0
  -28.0697  -31.8421   26.5378 H   0  0  0  0  0  0
  -28.2609  -38.0099   24.7522 H   0  0  0  0  0  0
  -28.1063  -36.2632   24.6282 H   0  0  0  0  0  0
  -27.2297  -37.1453   25.8870 H   0  0  0  0  0  0
  -20.9305  -29.8749   21.6919 H   0  0  0  0  0  0
  -26.0178  -38.2878   24.1424 H   0  0  0  0  0  0
  -29.2919  -19.8895   18.8329 H   0  0  0  0  0  0
  -28.1110  -22.9912   22.5113 H   0  0  0  0  0  0
  -27.9093  -17.8934   22.2929 H   0  0  0  0  0  0
  -27.8636  -17.7210   20.5696 H   0  0  0  0  0  0
  -31.0829  -18.8294   19.5822 H   0  0  0  0  0  0
  -31.6302  -17.8175   20.8542 H   0  0  0  0  0  0
  -29.5007  -16.0041   22.5129 H   0  0  0  0  0  0
  -28.0943  -15.5528   21.5760 H   0  0  0  0  0  0
  -31.0497  -16.4896   18.8385 H   0  0  0  0  0  0
  -29.4123  -17.0141   18.9122 H   0  0  0  0  0  0
  -30.1904  -18.6883   22.2382 H   0  0  0  0  0  0
  -28.4884  -21.3689   24.1335 H   0  0  0  0  0  0
  -29.9234  -20.4090   23.7887 H   0  0  0  0  0  0
  -28.3116  -19.6902   23.6556 H   0  0  0  0  0  0
  -30.2067  -22.6243   16.7449 H   0  0  0  0  0  0
  -30.4401  -23.2702   18.3657 H   0  0  0  0  0  0
  -29.3052  -24.0456   17.2603 H   0  0  0  0  0  0
  -27.7538  -24.3501   18.9808 H   0  0  0  0  0  0
  -26.7355  -24.2228   20.3724 H   0  0  0  0  0  0
  -29.5866  -25.1854   20.6922 H   0  0  0  0  0  0
  -28.2540  -25.5074   21.7605 H   0  0  0  0  0  0
  1 25  1  0  0  0
  1 30  2  0  0  0
  1 86  1  0  0  0
  2  3  1  0  0  0
  2 25  1  0  0  0
  2 88  1  0  0  0
  2 89  1  0  0  0
  3  4  1  0  0  0
  3 90  1  0  0  0
  3 91  1  0  0  0
  4  5  1  0  0  0
  4 92  1  0  0  0
  4 93  1  0  0  0
  5  6  1  0  0  0
  5 26  1  0  0  0
  5 94  1  0  0  0
  6 25  1  0  0  0
  6 95  1  0  0  0
  6 96  1  0  0  0
  7  8  2  0  0  0
  7 26  1  0  0  0
  7 29  1  0  0  0
  8  9  1  0  0  0
  8 22  1  0  0  0
  9 10  1  0  0  0
  9 27  2  0  0  0
 10 11  2  0  0  0
 10 15  1  0  0  0
 11 12  1  0  0  0
 11 97  1  0  0  0
 12 13  2  0  0  0
 12 98  1  0  0  0
 13 14  1  0  0  0
 13 31  1  0  0  0
 14 15  2  0  0  0
 14 99  1  0  0  0
 15100  1  0  0  0
 16 17  2  0  0  0
 16 21  1  0  0  0
 16 31  1  0  0  0
 17 18  1  0  0  0
 17101  1  0  0  0
 18 19  2  0  0  0
 18102  1  0  0  0
 19 20  1  0  0  0
 19 24  1  0  0  0
 20 21  2  0  0  0
 20103  1  0  0  0
 21 23  1  0  0  0
 22 28  1  0  0  0
 22 32  2  0  0  0
 26 27  1  0  0  0
 28104  1  0  0  0
 28105  1  0  0  0
 29106  1  0  0  0
 29107  1  0  0  0
 33 34  1  0  0  0
 33 66  1  0  0  0
 33 70  2  0  0  0
 34 36  1  0  0  0
 34 59  1  0  0  0
 34108  1  0  0  0
 35 44  2  0  0  0
 35 45  1  0  0  0
 35 68  1  0  0  0
 36 56  1  0  0  0
 36109  1  0  0  0
 37 39  1  0  0  0
 37 47  1  0  0  0
 37 66  1  0  0  0
 37110  1  0  0  0
 38 43  2  0  0  0
 38 46  1  0  0  0
 38 47  1  0  0  0
 39 64  1  0  0  0
 39 67  2  0  0  0
 40 52  1  0  0  0
 40 53  2  0  0  0
 40 58  1  0  0  0
 41111  1  0  0  0
 41112  1  0  0  0
 41113  1  0  0  0
 41 48  1  0  0  0
 42 43  1  0  0  0
 42 66  1  0  0  0
 42114  1  0  0  0
 42115  1  0  0  0
 43 44  1  0  0  0
 44116  1  0  0  0
 45 46  2  0  0  0
 45117  1  0  0  0
 46118  1  0  0  0
 47119  1  0  0  0
 47120  1  0  0  0
 48 56  1  0  0  0
 48 65  1  0  0  0
 48121  1  0  0  0
 49 50  1  0  0  0
 49 53  1  0  0  0
 49 64  1  0  0  0
 49122  1  0  0  0
 50 51  1  0  0  0
 50123  1  0  0  0
 50124  1  0  0  0
 51 52  1  0  0  0
 51125  1  0  0  0
 51126  1  0  0  0
 52127  1  0  0  0
 52128  1  0  0  0
 53 54  1  0  0  0
 54 55  2  0  0  0
 54129  1  0  0  0
 55 57  1  0  0  0
 55130  1  0  0  0
 56 69  2  0  0  0
 57 58  2  0  0  0
 57131  1  0  0  0
 58132  1  0  0  0
 59 60  1  0  0  0
 59 61  1  0  0  0
 59 62  1  0  0  0
 60133  1  0  0  0
 60134  1  0  0  0
 60135  1  0  0  0
 61136  1  0  0  0
 61137  1  0  0  0
 61138  1  0  0  0
 62139  1  0  0  0
 62140  1  0  0  0
 62141  1  0  0  0
 63 65  1  0  0  0
 63142  1  0  0  0
 63143  1  0  0  0
 63144  1  0  0  0
 64145  1  0  0  0
 65146  1  0  0  0
 68 85  1  0  0  0
 71 73  2  0  0  0
 71 76  1  0  0  0
 71147  1  0  0  0
 72 74  2  0  0  0
 72 75  1  0  0  0
 72148  1  0  0  0
 73 74  1  0  0  0
 73 81  1  0  0  0
 74 82  1  0  0  0
 75 76  2  0  0  0
 75 84  1  0  0  0
 76 87  1  0  0  0
 77 79  1  0  0  0
 77 81  1  0  0  0
 77149  1  0  0  0
 77150  1  0  0  0
 78 80  1  0  0  0
 78 81  1  0  0  0
 78151  1  0  0  0
 78152  1  0  0  0
 79 86  1  0  0  0
 79153  1  0  0  0
 79154  1  0  0  0
 80 86  1  0  0  0
 80155  1  0  0  0
 80156  1  0  0  0
 81157  1  0  0  0
 82158  1  0  0  0
 82159  1  0  0  0
 82160  1  0  0  0
 83 87  1  0  0  0
 83161  1  0  0  0
 83162  1  0  0  0
 83163  1  0  0  0
 84 85  1  0  0  0
 84164  1  0  0  0
 84165  1  0  0  0
 85166  1  0  0  0
 85167  1  0  0  0
M  ISO  4   1 100  68 101  85 101  86 100
M  END
> <chiral flag>
0

> <version>
0

> <s_m_source_file>
/data/baiqing/PycharmProjects/Reinvent-master-3.2/result/LINK_invent/BTK/process_docking_weight1_custom_sum_contain_oxygen_bond_distance_aromatic_linkinvent_7_9_3/rearranged_h_0164.sdf

> <i_m_source_file_index>
51

> <r_mmod_Potential_Energy-OPLS-2005>
250.123550415039

> <r_mmod_Stretch_Energy-OPLS-2005>
52.4637184143066

> <r_mmod_Bend_Energy-OPLS-2005>
122.057289123535

> <r_mmod_Torsional_Energy-OPLS-2005>
376.513031005859

> <r_mmod_Improper_Torsional_Energy-OPLS-2005>
17.4485645294189

> <r_mmod_Van_der_Waal_Energy-OPLS-2005>
162.51789855957

> <r_mmod_Electrostatic_Energy-OPLS-2005>
-309.563446044922

> <r_mmod_Solvation_Energy-OPLS-2005>
-193.694885253906

> <b_mmod_Minimization_Converged-OPLS-2005>
0

> <r_mmod_RMS_Derivative-OPLS-2005>
1.98093664646149

$$$$
51
                    3D
 Structure written by MMmdl.
167176  0  0  1  0            999 V2000
  -30.0224  -16.3528   19.8957 C   0  0  0  0  0  0
  -30.3779  -13.5368   19.4295 C   0  0  0  0  0  0
  -29.5563  -12.6592   18.4065 C   0  0  0  0  0  0
  -28.1720  -12.2527   18.9077 C   0  0  0  0  0  0
  -27.5908  -13.3179   19.8422 C   0  0  2  0  0  0
  -28.6114  -14.0181   20.7974 C   0  0  0  0  0  0
  -25.2340  -13.8172   20.6212 C   0  0  0  0  0  0
  -24.1660  -13.0341   20.9452 C   0  0  0  0  0  0
  -24.6396  -11.6892   20.8935 C   0  0  0  0  0  0
  -23.9094  -10.4248   21.0455 C   0  0  0  0  0  0
  -24.3667   -9.4161   21.9201 C   0  0  0  0  0  0
  -23.6316   -8.2224   22.0771 C   0  0  0  0  0  0
  -22.4292   -8.0287   21.3560 C   0  0  0  0  0  0
  -21.9942   -9.0260   20.4657 C   0  0  0  0  0  0
  -22.7293  -10.2114   20.3051 C   0  0  0  0  0  0
  -21.6857   -6.0742   22.5267 C   0  0  0  0  0  0
  -21.4018   -6.5653   23.8194 C   0  0  0  0  0  0
  -21.3653   -5.6810   24.9151 C   0  0  0  0  0  0
  -21.6031   -4.3069   24.7207 C   0  0  0  0  0  0
  -21.8831   -3.8161   23.4333 C   0  0  0  0  0  0
  -21.9200   -4.6971   22.3385 C   0  0  0  0  0  0
  -22.7666  -13.5094   21.1969 C   0  0  0  0  0  0
  -22.1666   -4.2158   21.0962 F   0  0  0  0  0  0
  -21.5624   -3.4553   25.7722 F   0  0  0  0  0  0
  -29.6221  -14.8117   19.9617 N   0  0  0  0  0  0
  -26.2913  -12.9588   20.3938 N   0  0  0  0  0  0
  -25.9386  -11.6638   20.6057 N   0  0  0  0  0  0
  -22.0309  -12.8018   22.0479 N   0  0  0  0  0  0
  -25.3873  -15.1846   20.4680 N   0  0  0  0  0  0
  -31.1529  -16.0271   20.4273 O   0  0  0  0  0  0
  -21.6640   -6.8894   21.4243 O   0  0  0  0  0  0
  -22.3396  -14.5420   20.6824 O   0  0  0  0  0  0
  -24.7207  -31.7530   23.1192 C   0  0  0  0  0  0
  -25.9585  -32.4248   23.7878 C   0  0  1  0  0  0
  -27.2547  -26.3256   20.2261 C   0  0  0  0  0  0
  -25.5988  -33.8096   24.1709 N   0  0  0  0  0  0
  -23.5660  -30.3376   21.4810 C   0  0  2  0  0  0
  -25.0296  -28.5985   20.1256 C   0  0  0  0  0  0
  -22.7923  -29.4074   22.4578 C   0  0  0  0  0  0
  -18.0383  -28.1456   22.8446 C   0  0  0  0  0  0
  -24.1497  -36.7078   23.2654 C   0  0  0  0  0  0
  -26.1577  -30.3589   21.4434 C   0  0  0  0  0  0
  -26.2209  -28.8814   20.7999 C   0  0  0  0  0  0
  -27.2956  -27.7832   20.8092 C   0  0  0  0  0  0
  -26.0274  -26.3514   19.4834 C   0  0  0  0  0  0
  -24.9960  -27.3657   19.4422 C   0  0  0  0  0  0
  -23.8430  -29.5994   20.1325 C   0  0  0  0  0  0
  -25.4150  -36.2764   24.0245 C   0  0  1  0  0  0
  -20.6019  -28.3834   23.1075 C   0  0  2  0  0  0
  -20.6813  -26.9454   22.5417 C   0  0  0  0  0  0
  -19.5787  -26.6356   21.5239 C   0  0  0  0  0  0
  -18.1981  -26.7974   22.1632 C   0  0  0  0  0  0
  -19.1654  -28.8981   23.2729 C   0  0  0  0  0  0
  -18.9544  -30.1554   23.8793 C   0  0  0  0  0  0
  -17.6525  -30.6615   24.0555 C   0  0  0  0  0  0
  -25.9147  -34.9168   23.4838 C   0  0  0  0  0  0
  -16.5417  -29.9086   23.6361 C   0  0  0  0  0  0
  -16.7363  -28.6517   23.0366 C   0  0  0  0  0  0
  -26.4649  -31.6465   25.0666 C   0  0  0  0  0  0
  -25.3613  -31.3912   26.1202 C   0  0  0  0  0  0
  -27.0617  -30.2758   24.6841 C   0  0  0  0  0  0
  -27.6009  -32.4413   25.7525 C   0  0  0  0  0  0
  -27.5546  -37.1689   24.8445 C   0  0  0  0  0  0
  -21.4537  -29.3002   22.3356 N   0  0  0  0  0  0
  -26.4236  -37.3574   23.9407 N   0  0  0  0  0  0
  -24.8432  -30.8582   22.0670 N   0  0  0  0  0  0
  -23.4183  -28.7746   23.3096 O   0  0  0  0  0  0
  -28.1752  -24.9396   20.3347 O   0  0  0  0  0  0
  -26.5848  -34.8816   22.4499 O   0  0  0  0  0  0
  -23.6148  -32.0765   23.5914 O   0  0  0  0  0  0
  -28.2995  -16.2811   18.2380 C   0  0  0  0  0  0
  -27.9723  -17.6928   19.6329 C   0  0  0  0  0  0
  -30.1869  -16.0423   17.5586 C   0  0  0  0  0  0
  -29.3325  -19.0034   20.1729 C   0  0  0  0  0  0
  -31.5883  -17.2738   18.3115 C   0  0  0  0  0  0
  -31.0981  -18.2015   16.1035 C   0  0  0  0  0  0
  -31.7461  -19.4750   17.3832 C   0  0  0  0  0  0
  -30.2668  -19.0191   17.1120 C   0  0  0  0  0  0
  -27.1493  -15.7372   17.4155 C   0  0  0  0  0  0
  -26.5488  -18.0562   19.9922 C   0  0  0  0  0  0
  -30.5090  -15.1015   16.3945 C   0  0  0  0  0  0
  -30.1520  -21.3815   21.3969 C   0  0  0  0  0  0
  -28.3049  -23.0123   19.9698 C   0  0  0  0  0  0
  -28.9363  -21.0060   20.5522 C   0  0  1  0  0  0
  -31.0789  -18.5416   19.6903 N   0  0  0  0  0  0
  -32.1125  -18.0496   17.1948 N   0  0  0  0  0  0
  -29.5584  -18.0791   18.1450 N   0  0  0  0  0  0
  -31.2956  -13.8739   18.9449 H   0  0  0  0  0  0
  -30.7450  -12.9180   20.2500 H   0  0  0  0  0  0
  -30.1226  -11.7603   18.1623 H   0  0  0  0  0  0
  -29.3845  -13.1667   17.4703 H   0  0  0  0  0  0
  -28.2603  -11.3075   19.4463 H   0  0  0  0  0  0
  -27.5008  -12.0650   18.0704 H   0  0  0  0  0  0
  -27.3171  -14.0912   19.1581 H   0  0  0  0  0  0
  -29.0615  -13.3043   21.4918 H   0  0  0  0  0  0
  -28.0911  -14.7390   21.4292 H   0  0  0  0  0  0
  -25.2844   -9.5612   22.4728 H   0  0  0  0  0  0
  -24.0023   -7.4625   22.7495 H   0  0  0  0  0  0
  -21.0864   -8.8801   19.8974 H   0  0  0  0  0  0
  -22.3821  -10.9658   19.6130 H   0  0  0  0  0  0
  -21.2023   -7.6166   23.9686 H   0  0  0  0  0  0
  -21.1453   -6.0545   25.9046 H   0  0  0  0  0  0
  -22.0620   -2.7628   23.2823 H   0  0  0  0  0  0
  -22.4015  -11.9690   22.4840 H   0  0  0  0  0  0
  -21.0925  -13.0992   22.2704 H   0  0  0  0  0  0
  -24.6231  -15.8355   20.5951 H   0  0  0  0  0  0
  -26.2705  -15.6335   20.2636 H   0  0  0  0  0  0
  -26.7666  -32.4625   23.0579 H   0  0  0  0  0  0
  -25.0002  -33.9067   24.9776 H   0  0  0  0  0  0
  -22.9172  -31.1857   21.2556 H   0  0  0  0  0  0
  -23.3781  -35.9381   23.3209 H   0  0  0  0  0  0
  -24.3557  -36.8891   22.2090 H   0  0  0  0  0  0
  -23.7249  -37.6206   23.6853 H   0  0  0  0  0  0
  -26.3965  -31.0578   20.6416 H   0  0  0  0  0  0
  -26.9972  -30.4434   22.1200 H   0  0  0  0  0  0
  -28.1844  -28.0190   21.3758 H   0  0  0  0  0  0
  -25.8021  -25.4479   18.9349 H   0  0  0  0  0  0
  -24.1109  -27.1385   18.8622 H   0  0  0  0  0  0
  -24.0590  -30.3434   19.3660 H   0  0  0  0  0  0
  -22.9420  -29.0879   19.7951 H   0  0  0  0  0  0
  -25.1392  -36.1455   25.0735 H   0  0  0  0  0  0
  -21.0118  -28.3494   24.1192 H   0  0  0  0  0  0
  -20.5642  -26.2478   23.3722 H   0  0  0  0  0  0
  -21.6673  -26.7310   22.1268 H   0  0  0  0  0  0
  -19.6908  -25.6229   21.1362 H   0  0  0  0  0  0
  -19.6734  -27.3090   20.6712 H   0  0  0  0  0  0
  -17.4246  -26.6756   21.4030 H   0  0  0  0  0  0
  -18.0323  -26.0149   22.9055 H   0  0  0  0  0  0
  -19.8021  -30.7412   24.2096 H   0  0  0  0  0  0
  -17.5068  -31.6283   24.5181 H   0  0  0  0  0  0
  -15.5412  -30.2941   23.7734 H   0  0  0  0  0  0
  -15.8781  -28.0801   22.7095 H   0  0  0  0  0  0
  -24.5817  -30.7254   25.7494 H   0  0  0  0  0  0
  -24.8779  -32.3180   26.4305 H   0  0  0  0  0  0
  -25.7670  -30.9276   27.0199 H   0  0  0  0  0  0
  -26.3375  -29.6259   24.1917 H   0  0  0  0  0  0
  -27.3977  -29.7360   25.5707 H   0  0  0  0  0  0
  -27.9401  -30.3795   24.0464 H   0  0  0  0  0  0
  -27.2495  -33.3831   26.1755 H   0  0  0  0  0  0
  -28.4021  -32.6787   25.0516 H   0  0  0  0  0  0
  -28.0454  -31.8779   26.5743 H   0  0  0  0  0  0
  -28.2477  -38.0063   24.7527 H   0  0  0  0  0  0
  -28.1129  -36.2582   24.6231 H   0  0  0  0  0  0
  -27.2264  -37.1264   25.8844 H   0  0  0  0  0  0
  -20.9923  -29.8640   21.6366 H   0  0  0  0  0  0
  -26.0025  -38.2597   24.1462 H   0  0  0  0  0  0
  -31.4682  -18.7747   15.2426 H   0  0  0  0  0  0
  -30.5480  -17.3927   15.6581 H   0  0  0  0  0  0
  -32.0007  -20.0045   18.2984 H   0  0  0  0  0  0
  -32.1569  -20.1223   16.6000 H   0  0  0  0  0  0
  -29.6268  -19.7773   16.6548 H   0  0  0  0  0  0
  -27.3440  -14.7283   17.0537 H   0  0  0  0  0  0
  -27.0254  -16.3746   16.5398 H   0  0  0  0  0  0
  -26.2101  -15.7550   17.9681 H   0  0  0  0  0  0
  -26.2585  -17.5555   20.9168 H   0  0  0  0  0  0
  -25.8471  -17.7890   19.1994 H   0  0  0  0  0  0
  -26.4627  -19.1297   20.1642 H   0  0  0  0  0  0
  -31.0739  -14.2430   16.7470 H   0  0  0  0  0  0
  -31.1466  -15.5233   15.6178 H   0  0  0  0  0  0
  -29.5909  -14.7570   15.9186 H   0  0  0  0  0  0
  -31.0472  -21.4130   20.7721 H   0  0  0  0  0  0
  -30.3236  -20.6570   22.1883 H   0  0  0  0  0  0
  -30.0216  -22.3624   21.8592 H   0  0  0  0  0  0
  -27.3129  -22.8248   19.5553 H   0  0  0  0  0  0
  -28.9335  -23.1130   19.0845 H   0  0  0  0  0  0
  -28.1326  -20.8150   21.2598 H   0  0  0  0  0  0
  -28.5551  -18.0607   18.0051 H   0  0  0  0  0  0
  1 25  1  0  0  0
  1 30  2  0  0  0
  1 87  1  0  0  0
  2  3  1  0  0  0
  2 25  1  0  0  0
  2 88  1  0  0  0
  2 89  1  0  0  0
  3  4  1  0  0  0
  3 90  1  0  0  0
  3 91  1  0  0  0
  4  5  1  0  0  0
  4 92  1  0  0  0
  4 93  1  0  0  0
  5  6  1  0  0  0
  5 26  1  0  0  0
  5 94  1  0  0  0
  6 25  1  0  0  0
  6 95  1  0  0  0
  6 96  1  0  0  0
  7  8  2  0  0  0
  7 26  1  0  0  0
  7 29  1  0  0  0
  8  9  1  0  0  0
  8 22  1  0  0  0
  9 10  1  0  0  0
  9 27  2  0  0  0
 10 11  2  0  0  0
 10 15  1  0  0  0
 11 12  1  0  0  0
 11 97  1  0  0  0
 12 13  2  0  0  0
 12 98  1  0  0  0
 13 14  1  0  0  0
 13 31  1  0  0  0
 14 15  2  0  0  0
 14 99  1  0  0  0
 15100  1  0  0  0
 16 17  2  0  0  0
 16 21  1  0  0  0
 16 31  1  0  0  0
 17 18  1  0  0  0
 17101  1  0  0  0
 18 19  2  0  0  0
 18102  1  0  0  0
 19 20  1  0  0  0
 19 24  1  0  0  0
 20 21  2  0  0  0
 20103  1  0  0  0
 21 23  1  0  0  0
 22 28  1  0  0  0
 22 32  2  0  0  0
 26 27  1  0  0  0
 28104  1  0  0  0
 28105  1  0  0  0
 29106  1  0  0  0
 29107  1  0  0  0
 33 34  1  0  0  0
 33 66  1  0  0  0
 33 70  2  0  0  0
 34 36  1  0  0  0
 34 59  1  0  0  0
 34108  1  0  0  0
 35 44  2  0  0  0
 35 45  1  0  0  0
 35 68  1  0  0  0
 36 56  1  0  0  0
 36109  1  0  0  0
 37 39  1  0  0  0
 37 47  1  0  0  0
 37 66  1  0  0  0
 37110  1  0  0  0
 38 43  2  0  0  0
 38 46  1  0  0  0
 38 47  1  0  0  0
 39 64  1  0  0  0
 39 67  2  0  0  0
 40 52  1  0  0  0
 40 53  2  0  0  0
 40 58  1  0  0  0
 41111  1  0  0  0
 41112  1  0  0  0
 41113  1  0  0  0
 41 48  1  0  0  0
 42 43  1  0  0  0
 42 66  1  0  0  0
 42114  1  0  0  0
 42115  1  0  0  0
 43 44  1  0  0  0
 44116  1  0  0  0
 45 46  2  0  0  0
 45117  1  0  0  0
 46118  1  0  0  0
 47119  1  0  0  0
 47120  1  0  0  0
 48 56  1  0  0  0
 48 65  1  0  0  0
 48121  1  0  0  0
 49 50  1  0  0  0
 49 53  1  0  0  0
 49 64  1  0  0  0
 49122  1  0  0  0
 50 51  1  0  0  0
 50123  1  0  0  0
 50124  1  0  0  0
 51 52  1  0  0  0
 51125  1  0  0  0
 51126  1  0  0  0
 52127  1  0  0  0
 52128  1  0  0  0
 53 54  1  0  0  0
 54 55  2  0  0  0
 54129  1  0  0  0
 55 57  1  0  0  0
 55130  1  0  0  0
 56 69  2  0  0  0
 57 58  2  0  0  0
 57131  1  0  0  0
 58132  1  0  0  0
 59 60  1  0  0  0
 59 61  1  0  0  0
 59 62  1  0  0  0
 60133  1  0  0  0
 60134  1  0  0  0
 60135  1  0  0  0
 61136  1  0  0  0
 61137  1  0  0  0
 61138  1  0  0  0
 62139  1  0  0  0
 62140  1  0  0  0
 62141  1  0  0  0
 63 65  1  0  0  0
 63142  1  0  0  0
 63143  1  0  0  0
 63144  1  0  0  0
 64145  1  0  0  0
 65146  1  0  0  0
 68 83  1  0  0  0
 71 72  2  0  0  0
 71 73  1  0  0  0
 71 79  1  0  0  0
 72 74  1  0  0  0
 72 80  1  0  0  0
 73 75  2  0  0  0
 73 81  1  0  0  0
 74 84  1  0  0  0
 74 85  2  0  0  0
 75 85  1  0  0  0
 75 86  1  0  0  0
 76 78  1  0  0  0
 76 86  1  0  0  0
 76147  1  0  0  0
 76148  1  0  0  0
 77 78  1  0  0  0
 77 86  1  0  0  0
 77149  1  0  0  0
 77150  1  0  0  0
 78 87  1  0  0  0
 78151  1  0  0  0
 79152  1  0  0  0
 79153  1  0  0  0
 79154  1  0  0  0
 80155  1  0  0  0
 80156  1  0  0  0
 80157  1  0  0  0
 81158  1  0  0  0
 81159  1  0  0  0
 81160  1  0  0  0
 82161  1  0  0  0
 82162  1  0  0  0
 82163  1  0  0  0
 82 84  1  0  0  0
 83 84  1  0  0  0
 83164  1  0  0  0
 83165  1  0  0  0
 84166  1  0  0  0
 87167  1  0  0  0
M  ISO  4   1 100  68 101  83 101  87 100
M  END
> <chiral flag>
0

> <version>
0

> <s_m_source_file>
/data/baiqing/PycharmProjects/Reinvent-master-3.2/result/LINK_invent/BTK/process_docking_weight1_custom_sum_contain_oxygen_bond_distance_aromatic_linkinvent_7_9_3/rearranged_h_0164.sdf

> <i_m_source_file_index>
52

> <r_mmod_Potential_Energy-OPLS-2005>
14703.9619140625

> <r_mmod_Stretch_Energy-OPLS-2005>
8806.6953125

> <r_mmod_Bend_Energy-OPLS-2005>
1062.17565917969

> <r_mmod_Torsional_Energy-OPLS-2005>
454.727233886719

> <r_mmod_Improper_Torsional_Energy-OPLS-2005>
98.2395248413086

> <r_mmod_Van_der_Waal_Energy-OPLS-2005>
3028.51586914062

> <r_mmod_Electrostatic_Energy-OPLS-2005>
-603.370849609375

> <r_mmod_Solvation_Energy-OPLS-2005>
-268.596984863281

> <b_mmod_Minimization_Converged-OPLS-2005>
0

> <r_mmod_RMS_Derivative-OPLS-2005>
9.21109104156494

$$$$
52
                    3D
 Structure written by MMmdl.
166175  0  0  1  0            999 V2000
  -30.5685  -14.9226   20.3635 C   0  0  0  0  0  0
  -30.4364  -12.5663   19.4703 C   0  0  0  0  0  0
  -29.5068  -12.4951   18.2383 C   0  0  0  0  0  0
  -28.0417  -12.2883   18.6716 C   0  0  0  0  0  0
  -27.6203  -13.2327   19.8256 C   0  0  2  0  0  0
  -28.6758  -13.2905   20.9486 C   0  0  0  0  0  0
  -25.2452  -13.8196   20.5763 C   0  0  0  0  0  0
  -24.1738  -13.0428   20.9278 C   0  0  0  0  0  0
  -24.6346  -11.6923   20.8790 C   0  0  0  0  0  0
  -23.9031  -10.4292   21.0424 C   0  0  0  0  0  0
  -24.3586   -9.4199   21.9183 C   0  0  0  0  0  0
  -23.6271   -8.2223   22.0740 C   0  0  0  0  0  0
  -22.4254   -8.0263   21.3542 C   0  0  0  0  0  0
  -21.9892   -9.0237   20.4639 C   0  0  0  0  0  0
  -22.7205  -10.2126   20.3057 C   0  0  0  0  0  0
  -21.6849   -6.0703   22.5284 C   0  0  0  0  0  0
  -21.3993   -6.5622   23.8205 C   0  0  0  0  0  0
  -21.3670   -5.6791   24.9181 C   0  0  0  0  0  0
  -21.6059   -4.3059   24.7247 C   0  0  0  0  0  0
  -21.8823   -3.8126   23.4374 C   0  0  0  0  0  0
  -21.9185   -4.6923   22.3415 C   0  0  0  0  0  0
  -22.7762  -13.5195   21.1963 C   0  0  0  0  0  0
  -22.1656   -4.2102   21.0992 F   0  0  0  0  0  0
  -21.5662   -3.4554   25.7768 F   0  0  0  0  0  0
  -29.9466  -13.6792   20.3218 N   0  0  0  0  0  0
  -26.2853  -12.9381   20.3296 N   0  0  0  0  0  0
  -25.9274  -11.6535   20.5799 N   0  0  0  0  0  0
  -22.0424  -12.8123   22.0504 N   0  0  0  0  0  0
  -25.4182  -15.1920   20.4206 N   0  0  0  0  0  0
  -31.8002  -14.9510   20.2620 O   0  0  0  0  0  0
  -21.6644   -6.8838   21.4237 O   0  0  0  0  0  0
  -22.3414  -14.5476   20.6808 O   0  0  0  0  0  0
  -24.6412  -31.8466   23.1882 C   0  0  0  0  0  0
  -25.9203  -32.4699   23.8263 C   0  0  1  0  0  0
  -27.2270  -27.1766   20.1206 C   0  0  0  0  0  0
  -25.5943  -33.8508   24.2186 N   0  0  0  0  0  0
  -23.4416  -30.4679   21.5337 C   0  0  2  0  0  0
  -24.8875  -28.8957   20.1029 C   0  0  0  0  0  0
  -22.7556  -29.4588   22.4878 C   0  0  0  0  0  0
  -18.0313  -28.1401   22.8480 C   0  0  0  0  0  0
  -24.1498  -36.7267   23.2641 C   0  0  0  0  0  0
  -25.9927  -30.7279   21.3813 C   0  0  0  0  0  0
  -26.0616  -29.3425   20.7199 C   0  0  0  0  0  0
  -27.2250  -28.4944   20.7219 C   0  0  0  0  0  0
  -26.0221  -26.8132   19.4775 C   0  0  0  0  0  0
  -24.8764  -27.6405   19.4740 C   0  0  0  0  0  0
  -23.6612  -29.7942   20.1525 C   0  0  0  0  0  0
  -25.4133  -36.3050   24.0319 C   0  0  1  0  0  0
  -20.5921  -28.3741   23.1244 C   0  0  2  0  0  0
  -20.6814  -26.9449   22.5402 C   0  0  0  0  0  0
  -19.5781  -26.6372   21.5220 C   0  0  0  0  0  0
  -18.1960  -26.7925   22.1651 C   0  0  0  0  0  0
  -19.1567  -28.8887   23.2845 C   0  0  0  0  0  0
  -18.9475  -30.1490   23.8856 C   0  0  0  0  0  0
  -17.6461  -30.6599   24.0562 C   0  0  0  0  0  0
  -25.9077  -34.9419   23.5063 C   0  0  0  0  0  0
  -16.5355  -29.9081   23.6339 C   0  0  0  0  0  0
  -16.7299  -28.6517   23.0336 C   0  0  0  0  0  0
  -26.4505  -31.6567   25.0716 C   0  0  0  0  0  0
  -25.3678  -31.3740   26.1401 C   0  0  0  0  0  0
  -27.0370  -30.2979   24.6280 C   0  0  0  0  0  0
  -27.6050  -32.4321   25.7487 C   0  0  0  0  0  0
  -27.5583  -37.1790   24.8464 C   0  0  0  0  0  0
  -21.4254  -29.3069   22.3620 N   0  0  0  0  0  0
  -26.4300  -37.3756   23.9397 N   0  0  0  0  0  0
  -24.7115  -31.0349   22.0893 N   0  0  0  0  0  0
  -23.4202  -28.8138   23.3037 O   0  0  0  0  0  0
  -28.3000  -26.2301   20.2387 O   0  0  0  0  0  0
  -26.5665  -34.8914   22.4647 O   0  0  0  0  0  0
  -23.5550  -32.1346   23.7121 O   0  0  0  0  0  0
  -28.9320  -20.3028   20.0368 C   0  0  0  0  0  0
  -29.7626  -21.2787   20.7014 C   0  0  0  0  0  0
  -27.8515  -20.9482   19.3217 C   0  0  0  0  0  0
  -29.5851  -22.7359   20.5804 C   0  0  0  0  0  0
  -27.7083  -22.3925   19.1599 C   0  0  0  0  0  0
  -28.5537  -23.3716   19.7924 C   0  0  0  0  0  0
  -29.2571  -17.9873   18.6667 C   0  0  0  0  0  0
  -29.2181  -16.4530   18.9218 C   0  0  0  0  0  0
  -30.0160  -17.5579   20.8054 C   0  0  0  0  0  0
  -29.0609  -18.6390   20.0384 C   0  0  2  0  0  0
  -30.8807  -20.7485   21.5874 C   0  0  0  0  0  0
  -26.7566  -20.0780   18.6983 C   0  0  0  0  0  0
  -30.5760  -23.6469   21.2913 C   0  0  0  0  0  0
  -26.6286  -22.9293   18.2133 C   0  0  0  0  0  0
  -28.4801  -24.9778   19.3749 C   0  0  0  0  0  0
  -29.8092  -16.1241   20.2407 N   0  0  0  0  0  0
  -31.4679  -12.7208   19.1522 H   0  0  0  0  0  0
  -30.4295  -11.6253   20.0223 H   0  0  0  0  0  0
  -29.8202  -11.6854   17.5796 H   0  0  0  0  0  0
  -29.5923  -13.4105   17.6523 H   0  0  0  0  0  0
  -27.9424  -11.2521   18.9945 H   0  0  0  0  0  0
  -27.3685  -12.4032   17.8202 H   0  0  0  0  0  0
  -27.5643  -14.2130   19.3694 H   0  0  0  0  0  0
  -28.7614  -12.3303   21.4593 H   0  0  0  0  0  0
  -28.3898  -14.0281   21.7003 H   0  0  0  0  0  0
  -25.2726   -9.5684   22.4756 H   0  0  0  0  0  0
  -24.0002   -7.4602   22.7435 H   0  0  0  0  0  0
  -21.0833   -8.8723   19.8928 H   0  0  0  0  0  0
  -22.3643  -10.9647   19.6160 H   0  0  0  0  0  0
  -21.1961   -7.6129   23.9693 H   0  0  0  0  0  0
  -21.1501   -6.0534   25.9086 H   0  0  0  0  0  0
  -22.0582   -2.7579   23.2909 H   0  0  0  0  0  0
  -22.4055  -11.9761   22.4843 H   0  0  0  0  0  0
  -21.1035  -13.1096   22.2756 H   0  0  0  0  0  0
  -24.6657  -15.8591   20.5493 H   0  0  0  0  0  0
  -26.2924  -15.6275   20.1558 H   0  0  0  0  0  0
  -26.7277  -32.5311   23.0991 H   0  0  0  0  0  0
  -25.0028  -33.9606   25.0293 H   0  0  0  0  0  0
  -22.7442  -31.2945   21.3824 H   0  0  0  0  0  0
  -23.3764  -35.9592   23.3303 H   0  0  0  0  0  0
  -24.3579  -36.8900   22.2053 H   0  0  0  0  0  0
  -23.7247  -37.6464   23.6677 H   0  0  0  0  0  0
  -26.1488  -31.4855   20.6124 H   0  0  0  0  0  0
  -26.8626  -30.7695   22.0241 H   0  0  0  0  0  0
  -28.1163  -28.8262   21.2350 H   0  0  0  0  0  0
  -25.9232  -25.8429   19.0192 H   0  0  0  0  0  0
  -23.9704  -27.2883   18.9979 H   0  0  0  0  0  0
  -23.7835  -30.5664   19.3914 H   0  0  0  0  0  0
  -22.7751  -29.2317   19.8531 H   0  0  0  0  0  0
  -25.1323  -36.1881   25.0812 H   0  0  0  0  0  0
  -21.0013  -28.3333   24.1367 H   0  0  0  0  0  0
  -21.6684  -26.7505   22.1180 H   0  0  0  0  0  0
  -20.5766  -26.2358   23.3624 H   0  0  0  0  0  0
  -19.6959  -25.6267   21.1278 H   0  0  0  0  0  0
  -19.6690  -27.3164   20.6731 H   0  0  0  0  0  0
  -17.4183  -26.6647   21.4097 H   0  0  0  0  0  0
  -18.0403  -26.0094   22.9089 H   0  0  0  0  0  0
  -19.7952  -30.7323   24.2190 H   0  0  0  0  0  0
  -17.5021  -31.6274   24.5170 H   0  0  0  0  0  0
  -15.5347  -30.2956   23.7712 H   0  0  0  0  0  0
  -15.8708  -28.0836   22.7034 H   0  0  0  0  0  0
  -24.5865  -30.7082   25.7695 H   0  0  0  0  0  0
  -24.8843  -32.2914   26.4783 H   0  0  0  0  0  0
  -25.7952  -30.8926   27.0207 H   0  0  0  0  0  0
  -26.2983  -29.6700   24.1282 H   0  0  0  0  0  0
  -27.3989  -29.7281   25.4843 H   0  0  0  0  0  0
  -27.8885  -30.4240   23.9593 H   0  0  0  0  0  0
  -27.2664  -33.3638   26.2030 H   0  0  0  0  0  0
  -28.3866  -32.6847   25.0309 H   0  0  0  0  0  0
  -28.0708  -31.8462   26.5418 H   0  0  0  0  0  0
  -28.2604  -38.0082   24.7511 H   0  0  0  0  0  0
  -28.1078  -36.2614   24.6307 H   0  0  0  0  0  0
  -27.2288  -37.1455   25.8862 H   0  0  0  0  0  0
  -20.9470  -29.8747   21.6758 H   0  0  0  0  0  0
  -26.0180  -38.2834   24.1374 H   0  0  0  0  0  0
  -28.5197  -18.2773   17.9191 H   0  0  0  0  0  0
  -30.2298  -18.2779   18.2650 H   0  0  0  0  0  0
  -29.7008  -15.9191   18.1016 H   0  0  0  0  0  0
  -28.1704  -16.1595   18.9240 H   0  0  0  0  0  0
  -31.0685  -17.8262   20.6856 H   0  0  0  0  0  0
  -29.8109  -17.5543   21.8765 H   0  0  0  0  0  0
  -28.0847  -18.3408   20.4163 H   0  0  0  0  0  0
  -30.6251  -19.7797   22.0083 H   0  0  0  0  0  0
  -31.0615  -21.3908   22.4478 H   0  0  0  0  0  0
  -31.8070  -20.6474   21.0189 H   0  0  0  0  0  0
  -26.8553  -20.0371   17.6133 H   0  0  0  0  0  0
  -26.7033  -19.0550   19.0558 H   0  0  0  0  0  0
  -25.7764  -20.4896   18.9409 H   0  0  0  0  0  0
  -30.3864  -23.6390   22.3647 H   0  0  0  0  0  0
  -30.5135  -24.6821   20.9614 H   0  0  0  0  0  0
  -31.6012  -23.3166   21.1209 H   0  0  0  0  0  0
  -26.0688  -22.1802   17.6624 H   0  0  0  0  0  0
  -27.0688  -23.5379   17.4259 H   0  0  0  0  0  0
  -25.9064  -23.5324   18.7599 H   0  0  0  0  0  0
  -27.8780  -25.1270   18.4889 H   0  0  0  0  0  0
  -29.4760  -25.1354   18.9586 H   0  0  0  0  0  0
  1 25  1  0  0  0
  1 30  2  0  0  0
  1 86  1  0  0  0
  2  3  1  0  0  0
  2 25  1  0  0  0
  2 87  1  0  0  0
  2 88  1  0  0  0
  3  4  1  0  0  0
  3 89  1  0  0  0
  3 90  1  0  0  0
  4  5  1  0  0  0
  4 91  1  0  0  0
  4 92  1  0  0  0
  5  6  1  0  0  0
  5 26  1  0  0  0
  5 93  1  0  0  0
  6 25  1  0  0  0
  6 94  1  0  0  0
  6 95  1  0  0  0
  7  8  2  0  0  0
  7 26  1  0  0  0
  7 29  1  0  0  0
  8  9  1  0  0  0
  8 22  1  0  0  0
  9 10  1  0  0  0
  9 27  2  0  0  0
 10 11  2  0  0  0
 10 15  1  0  0  0
 11 12  1  0  0  0
 11 96  1  0  0  0
 12 13  2  0  0  0
 12 97  1  0  0  0
 13 14  1  0  0  0
 13 31  1  0  0  0
 14 15  2  0  0  0
 14 98  1  0  0  0
 15 99  1  0  0  0
 16 17  2  0  0  0
 16 21  1  0  0  0
 16 31  1  0  0  0
 17 18  1  0  0  0
 17100  1  0  0  0
 18 19  2  0  0  0
 18101  1  0  0  0
 19 20  1  0  0  0
 19 24  1  0  0  0
 20 21  2  0  0  0
 20102  1  0  0  0
 21 23  1  0  0  0
 22 28  1  0  0  0
 22 32  2  0  0  0
 26 27  1  0  0  0
 28103  1  0  0  0
 28104  1  0  0  0
 29105  1  0  0  0
 29106  1  0  0  0
 33 34  1  0  0  0
 33 66  1  0  0  0
 33 70  2  0  0  0
 34 36  1  0  0  0
 34 59  1  0  0  0
 34107  1  0  0  0
 35 44  2  0  0  0
 35 45  1  0  0  0
 35 68  1  0  0  0
 36 56  1  0  0  0
 36108  1  0  0  0
 37 39  1  0  0  0
 37 47  1  0  0  0
 37 66  1  0  0  0
 37109  1  0  0  0
 38 43  2  0  0  0
 38 46  1  0  0  0
 38 47  1  0  0  0
 39 64  1  0  0  0
 39 67  2  0  0  0
 40 52  1  0  0  0
 40 53  2  0  0  0
 40 58  1  0  0  0
 41110  1  0  0  0
 41111  1  0  0  0
 41112  1  0  0  0
 41 48  1  0  0  0
 42 43  1  0  0  0
 42 66  1  0  0  0
 42113  1  0  0  0
 42114  1  0  0  0
 43 44  1  0  0  0
 44115  1  0  0  0
 45 46  2  0  0  0
 45116  1  0  0  0
 46117  1  0  0  0
 47118  1  0  0  0
 47119  1  0  0  0
 48 56  1  0  0  0
 48 65  1  0  0  0
 48120  1  0  0  0
 49 50  1  0  0  0
 49 53  1  0  0  0
 49 64  1  0  0  0
 49121  1  0  0  0
 50 51  1  0  0  0
 50122  1  0  0  0
 50123  1  0  0  0
 51 52  1  0  0  0
 51124  1  0  0  0
 51125  1  0  0  0
 52126  1  0  0  0
 52127  1  0  0  0
 53 54  1  0  0  0
 54 55  2  0  0  0
 54128  1  0  0  0
 55 57  1  0  0  0
 55129  1  0  0  0
 56 69  2  0  0  0
 57 58  2  0  0  0
 57130  1  0  0  0
 58131  1  0  0  0
 59 60  1  0  0  0
 59 61  1  0  0  0
 59 62  1  0  0  0
 60132  1  0  0  0
 60133  1  0  0  0
 60134  1  0  0  0
 61135  1  0  0  0
 61136  1  0  0  0
 61137  1  0  0  0
 62138  1  0  0  0
 62139  1  0  0  0
 62140  1  0  0  0
 63 65  1  0  0  0
 63141  1  0  0  0
 63142  1  0  0  0
 63143  1  0  0  0
 64144  1  0  0  0
 65145  1  0  0  0
 68 85  1  0  0  0
 71 72  2  0  0  0
 71 73  1  0  0  0
 71 80  1  0  0  0
 72 74  1  0  0  0
 72 81  1  0  0  0
 73 75  2  0  0  0
 73 82  1  0  0  0
 74 76  2  0  0  0
 74 83  1  0  0  0
 75 76  1  0  0  0
 75 84  1  0  0  0
 76 85  1  0  0  0
 77 78  1  0  0  0
 77 80  1  0  0  0
 77146  1  0  0  0
 77147  1  0  0  0
 78 86  1  0  0  0
 78148  1  0  0  0
 78149  1  0  0  0
 79 80  1  0  0  0
 79 86  1  0  0  0
 79150  1  0  0  0
 79151  1  0  0  0
 80152  1  0  0  0
 81153  1  0  0  0
 81154  1  0  0  0
 81155  1  0  0  0
 82156  1  0  0  0
 82157  1  0  0  0
 82158  1  0  0  0
 83159  1  0  0  0
 83160  1  0  0  0
 83161  1  0  0  0
 84162  1  0  0  0
 84163  1  0  0  0
 84164  1  0  0  0
 85165  1  0  0  0
 85166  1  0  0  0
M  ISO  4   1 100  68 101  85 101  86 100
M  END
> <chiral flag>
0

> <version>
0

> <s_m_source_file>
/data/baiqing/PycharmProjects/Reinvent-master-3.2/result/LINK_invent/BTK/process_docking_weight1_custom_sum_contain_oxygen_bond_distance_aromatic_linkinvent_7_9_3/rearranged_h_0164.sdf

> <i_m_source_file_index>
53

> <r_mmod_Potential_Energy-OPLS-2005>
726.437927246094

> <r_mmod_Stretch_Energy-OPLS-2005>
221.417053222656

> <r_mmod_Bend_Energy-OPLS-2005>
325.144317626953

> <r_mmod_Torsional_Energy-OPLS-2005>
348.447296142578

> <r_mmod_Improper_Torsional_Energy-OPLS-2005>
11.6738405227661

> <r_mmod_Van_der_Waal_Energy-OPLS-2005>
157.875839233398

> <r_mmod_Electrostatic_Energy-OPLS-2005>
-312.407928466797

> <r_mmod_Solvation_Energy-OPLS-2005>
-201.641296386719

> <b_mmod_Minimization_Converged-OPLS-2005>
0

> <r_mmod_RMS_Derivative-OPLS-2005>
3.56263208389282

$$$$
53
                    3D
 Structure written by MMmdl.
165175  0  0  1  0            999 V2000
  -30.6902  -14.5431   20.5235 C   0  0  0  0  0  0
  -30.4245  -12.3391   19.4370 C   0  0  0  0  0  0
  -29.4985  -12.4970   18.2132 C   0  0  0  0  0  0
  -28.0210  -12.3557   18.6277 C   0  0  0  0  0  0
  -27.6568  -13.2183   19.8666 C   0  0  2  0  0  0
  -28.7031  -13.0561   20.9925 C   0  0  0  0  0  0
  -25.2569  -13.8190   20.5695 C   0  0  0  0  0  0
  -24.1827  -13.0449   20.9177 C   0  0  0  0  0  0
  -24.6395  -11.6921   20.8733 C   0  0  0  0  0  0
  -23.9060  -10.4301   21.0404 C   0  0  0  0  0  0
  -24.3604   -9.4216   21.9185 C   0  0  0  0  0  0
  -23.6288   -8.2246   22.0754 C   0  0  0  0  0  0
  -22.4277   -8.0272   21.3539 C   0  0  0  0  0  0
  -21.9910   -9.0249   20.4645 C   0  0  0  0  0  0
  -22.7235  -10.2132   20.3057 C   0  0  0  0  0  0
  -21.6854   -6.0729   22.5275 C   0  0  0  0  0  0
  -21.4014   -6.5632   23.8206 C   0  0  0  0  0  0
  -21.3662   -5.6787   24.9169 C   0  0  0  0  0  0
  -21.6047   -4.3050   24.7224 C   0  0  0  0  0  0
  -21.8817   -3.8141   23.4347 C   0  0  0  0  0  0
  -21.9187   -4.6957   22.3402 C   0  0  0  0  0  0
  -22.7843  -13.5239   21.1830 C   0  0  0  0  0  0
  -22.1661   -4.2140   21.0984 F   0  0  0  0  0  0
  -21.5636   -3.4537   25.7739 F   0  0  0  0  0  0
  -30.0239  -13.3578   20.4222 N   0  0  0  0  0  0
  -26.3010  -12.9380   20.3353 N   0  0  0  0  0  0
  -25.9328  -11.6527   20.5765 N   0  0  0  0  0  0
  -22.0474  -12.8243   22.0392 N   0  0  0  0  0  0
  -25.4300  -15.1909   20.4140 N   0  0  0  0  0  0
  -31.8553  -14.6744   20.1382 O   0  0  0  0  0  0
  -21.6639   -6.8872   21.4239 O   0  0  0  0  0  0
  -22.3535  -14.5543   20.6667 O   0  0  0  0  0  0
  -24.6215  -31.8652   23.2085 C   0  0  0  0  0  0
  -25.9093  -32.4804   23.8397 C   0  0  1  0  0  0
  -27.2222  -27.3715   20.1028 C   0  0  0  0  0  0
  -25.5944  -33.8603   24.2337 N   0  0  0  0  0  0
  -23.4117  -30.4923   21.5495 C   0  0  2  0  0  0
  -24.8564  -28.9590   20.1091 C   0  0  0  0  0  0
  -22.7452  -29.4657   22.4948 C   0  0  0  0  0  0
  -18.0287  -28.1381   22.8481 C   0  0  0  0  0  0
  -24.1486  -36.7289   23.2635 C   0  0  0  0  0  0
  -25.9488  -30.8115   21.3719 C   0  0  0  0  0  0
  -26.0221  -29.4432   20.7156 C   0  0  0  0  0  0
  -27.2068  -28.6581   20.7101 C   0  0  0  0  0  0
  -26.0366  -26.9364   19.4628 C   0  0  0  0  0  0
  -24.8626  -27.7075   19.4768 C   0  0  0  0  0  0
  -23.6229  -29.8330   20.1624 C   0  0  0  0  0  0
  -25.4104  -36.3092   24.0342 C   0  0  1  0  0  0
  -20.5882  -28.3686   23.1291 C   0  0  2  0  0  0
  -20.6782  -26.9419   22.5406 C   0  0  0  0  0  0
  -19.5762  -26.6397   21.5206 C   0  0  0  0  0  0
  -18.1938  -26.7932   22.1611 C   0  0  0  0  0  0
  -19.1534  -28.8847   23.2883 C   0  0  0  0  0  0
  -18.9460  -30.1446   23.8903 C   0  0  0  0  0  0
  -17.6459  -30.6582   24.0564 C   0  0  0  0  0  0
  -25.9046  -34.9462   23.5125 C   0  0  0  0  0  0
  -16.5353  -29.9084   23.6327 C   0  0  0  0  0  0
  -16.7270  -28.6503   23.0345 C   0  0  0  0  0  0
  -26.4501  -31.6580   25.0728 C   0  0  0  0  0  0
  -25.3755  -31.3672   26.1463 C   0  0  0  0  0  0
  -27.0339  -30.3027   24.6108 C   0  0  0  0  0  0
  -27.6094  -32.4272   25.7488 C   0  0  0  0  0  0
  -27.5580  -37.1788   24.8459 C   0  0  0  0  0  0
  -21.4174  -29.3046   22.3688 N   0  0  0  0  0  0
  -26.4278  -37.3789   23.9425 N   0  0  0  0  0  0
  -24.6795  -31.0719   22.1008 N   0  0  0  0  0  0
  -23.4207  -28.8194   23.3004 O   0  0  0  0  0  0
  -28.3540  -26.5568   20.1607 O   0  0  0  0  0  0
  -26.5591  -34.8918   22.4680 O   0  0  0  0  0  0
  -23.5396  -32.1428   23.7446 O   0  0  0  0  0  0
  -30.8317  -19.5991   22.2486 C   0  0  0  0  0  0
  -29.8672  -19.2064   21.2991 C   0  0  0  0  0  0
  -29.1994  -20.2536   20.5770 C   0  0  0  0  0  0
  -31.1070  -20.9613   22.4435 C   0  0  0  0  0  0
  -29.5477  -21.6188   20.8523 C   0  0  0  0  0  0
  -26.8325  -20.5841   19.4119 C   0  0  0  0  0  0
  -26.9141  -19.1425   19.8378 C   0  0  0  0  0  0
  -29.9457  -16.8331   19.9263 C   0  0  0  0  0  0
  -30.2984  -16.5729   21.9072 C   0  0  0  0  0  0
  -29.5652  -17.6868   21.1376 C   0  0  0  0  0  0
  -28.1834  -19.9037   19.5161 C   0  0  0  0  0  0
  -32.1308  -21.4088   23.4633 C   0  0  0  0  0  0
  -29.2237  -24.1399   20.5091 C   0  0  0  0  0  0
  -28.1599  -25.1270   19.9263 C   0  0  0  0  0  0
  -30.4835  -21.9422   21.7638 N   0  0  0  0  0  0
  -29.9350  -15.6392   20.8169 N   0  0  0  0  0  0
  -28.9405  -22.7158   20.1962 N   0  0  0  0  0  0
  -31.4700  -12.4333   19.1370 H   0  0  0  0  0  0
  -30.3257  -11.3419   19.8677 H   0  0  0  0  0  0
  -29.7473  -11.7542   17.4536 H   0  0  0  0  0  0
  -29.6579  -13.4729   17.7513 H   0  0  0  0  0  0
  -27.8403  -11.3030   18.8462 H   0  0  0  0  0  0
  -27.3673  -12.6065   17.7919 H   0  0  0  0  0  0
  -27.6835  -14.2585   19.5398 H   0  0  0  0  0  0
  -28.6919  -12.0390   21.3876 H   0  0  0  0  0  0
  -28.4704  -13.7111   21.8338 H   0  0  0  0  0  0
  -25.2748   -9.5708   22.4754 H   0  0  0  0  0  0
  -24.0001   -7.4648   22.7480 H   0  0  0  0  0  0
  -21.0837   -8.8769   19.8952 H   0  0  0  0  0  0
  -22.3694  -10.9663   19.6158 H   0  0  0  0  0  0
  -21.2007   -7.6141   23.9711 H   0  0  0  0  0  0
  -21.1491   -6.0517   25.9076 H   0  0  0  0  0  0
  -22.0595   -2.7605   23.2843 H   0  0  0  0  0  0
  -22.4080  -11.9907   22.4795 H   0  0  0  0  0  0
  -21.1084  -13.1278   22.2570 H   0  0  0  0  0  0
  -24.6699  -15.8506   20.5357 H   0  0  0  0  0  0
  -26.2982  -15.6289   20.1329 H   0  0  0  0  0  0
  -26.7159  -32.5501   23.1155 H   0  0  0  0  0  0
  -25.0132  -33.9767   25.0506 H   0  0  0  0  0  0
  -22.7023  -31.3111   21.4127 H   0  0  0  0  0  0
  -23.3765  -35.9603   23.3271 H   0  0  0  0  0  0
  -24.3601  -36.8928   22.2059 H   0  0  0  0  0  0
  -23.7212  -37.6477   23.6658 H   0  0  0  0  0  0
  -26.0697  -31.5740   20.6013 H   0  0  0  0  0  0
  -26.8352  -30.8644   21.9922 H   0  0  0  0  0  0
  -28.0991  -29.0215   21.2001 H   0  0  0  0  0  0
  -25.9847  -25.9883   18.9482 H   0  0  0  0  0  0
  -23.9710  -27.3329   18.9927 H   0  0  0  0  0  0
  -23.7391  -30.6124   19.4087 H   0  0  0  0  0  0
  -22.7440  -29.2604   19.8604 H   0  0  0  0  0  0
  -25.1269  -36.1953   25.0833 H   0  0  0  0  0  0
  -20.9973  -28.3264   24.1411 H   0  0  0  0  0  0
  -20.5713  -26.2292   23.3596 H   0  0  0  0  0  0
  -21.6652  -26.7477   22.1185 H   0  0  0  0  0  0
  -19.6933  -25.6314   21.1224 H   0  0  0  0  0  0
  -19.6710  -27.3215   20.6741 H   0  0  0  0  0  0
  -17.4219  -26.6679   21.4001 H   0  0  0  0  0  0
  -18.0339  -26.0072   22.9002 H   0  0  0  0  0  0
  -19.7933  -30.7254   24.2289 H   0  0  0  0  0  0
  -17.5015  -31.6266   24.5161 H   0  0  0  0  0  0
  -15.5348  -30.2985   23.7648 H   0  0  0  0  0  0
  -15.8674  -28.0825   22.7048 H   0  0  0  0  0  0
  -24.5957  -30.6992   25.7782 H   0  0  0  0  0  0
  -24.8905  -32.2809   26.4904 H   0  0  0  0  0  0
  -25.8104  -30.8850   27.0226 H   0  0  0  0  0  0
  -26.2886  -29.6769   24.1184 H   0  0  0  0  0  0
  -27.4148  -29.7279   25.4559 H   0  0  0  0  0  0
  -27.8706  -30.4359   23.9244 H   0  0  0  0  0  0
  -27.2763  -33.3586   26.2077 H   0  0  0  0  0  0
  -28.3905  -32.6792   25.0301 H   0  0  0  0  0  0
  -28.0758  -31.8368   26.5387 H   0  0  0  0  0  0
  -28.2558  -38.0123   24.7561 H   0  0  0  0  0  0
  -28.1107  -36.2654   24.6201 H   0  0  0  0  0  0
  -27.2309  -37.1339   25.8863 H   0  0  0  0  0  0
  -20.9342  -29.8767   21.6901 H   0  0  0  0  0  0
  -26.0158  -38.2855   24.1467 H   0  0  0  0  0  0
  -31.3617  -18.8662   22.8412 H   0  0  0  0  0  0
  -26.5305  -21.2922   20.1817 H   0  0  0  0  0  0
  -26.4399  -20.7803   18.4158 H   0  0  0  0  0  0
  -26.5709  -18.3985   19.1214 H   0  0  0  0  0  0
  -26.6746  -18.9354   20.8788 H   0  0  0  0  0  0
  -30.9281  -17.0852   19.5181 H   0  0  0  0  0  0
  -29.1889  -16.8367   19.1414 H   0  0  0  0  0  0
  -29.8523  -16.3531   22.8774 H   0  0  0  0  0  0
  -31.3751  -16.7348   22.0040 H   0  0  0  0  0  0
  -28.4987  -17.5685   21.3373 H   0  0  0  0  0  0
  -28.6882  -19.6531   18.5846 H   0  0  0  0  0  0
  -32.7762  -20.5838   23.7655 H   0  0  0  0  0  0
  -31.6329  -21.7938   24.3537 H   0  0  0  0  0  0
  -32.7635  -22.1968   23.0539 H   0  0  0  0  0  0
  -29.2677  -24.2701   21.5912 H   0  0  0  0  0  0
  -30.2127  -24.3908   20.1249 H   0  0  0  0  0  0
  -27.2091  -24.8147   20.3609 H   0  0  0  0  0  0
  -28.0845  -24.9677   18.8497 H   0  0  0  0  0  0
  -28.2009  -22.5150   19.5326 H   0  0  0  0  0  0
  1 25  1  0  0  0
  1 30  2  0  0  0
  1 86  1  0  0  0
  2  3  1  0  0  0
  2 25  1  0  0  0
  2 88  1  0  0  0
  2 89  1  0  0  0
  3  4  1  0  0  0
  3 90  1  0  0  0
  3 91  1  0  0  0
  4  5  1  0  0  0
  4 92  1  0  0  0
  4 93  1  0  0  0
  5  6  1  0  0  0
  5 26  1  0  0  0
  5 94  1  0  0  0
  6 25  1  0  0  0
  6 95  1  0  0  0
  6 96  1  0  0  0
  7  8  2  0  0  0
  7 26  1  0  0  0
  7 29  1  0  0  0
  8  9  1  0  0  0
  8 22  1  0  0  0
  9 10  1  0  0  0
  9 27  2  0  0  0
 10 11  2  0  0  0
 10 15  1  0  0  0
 11 12  1  0  0  0
 11 97  1  0  0  0
 12 13  2  0  0  0
 12 98  1  0  0  0
 13 14  1  0  0  0
 13 31  1  0  0  0
 14 15  2  0  0  0
 14 99  1  0  0  0
 15100  1  0  0  0
 16 17  2  0  0  0
 16 21  1  0  0  0
 16 31  1  0  0  0
 17 18  1  0  0  0
 17101  1  0  0  0
 18 19  2  0  0  0
 18102  1  0  0  0
 19 20  1  0  0  0
 19 24  1  0  0  0
 20 21  2  0  0  0
 20103  1  0  0  0
 21 23  1  0  0  0
 22 28  1  0  0  0
 22 32  2  0  0  0
 26 27  1  0  0  0
 28104  1  0  0  0
 28105  1  0  0  0
 29106  1  0  0  0
 29107  1  0  0  0
 33 34  1  0  0  0
 33 66  1  0  0  0
 33 70  2  0  0  0
 34 36  1  0  0  0
 34 59  1  0  0  0
 34108  1  0  0  0
 35 44  2  0  0  0
 35 45  1  0  0  0
 35 68  1  0  0  0
 36 56  1  0  0  0
 36109  1  0  0  0
 37 39  1  0  0  0
 37 47  1  0  0  0
 37 66  1  0  0  0
 37110  1  0  0  0
 38 43  2  0  0  0
 38 46  1  0  0  0
 38 47  1  0  0  0
 39 64  1  0  0  0
 39 67  2  0  0  0
 40 52  1  0  0  0
 40 53  2  0  0  0
 40 58  1  0  0  0
 41111  1  0  0  0
 41112  1  0  0  0
 41113  1  0  0  0
 41 48  1  0  0  0
 42 43  1  0  0  0
 42 66  1  0  0  0
 42114  1  0  0  0
 42115  1  0  0  0
 43 44  1  0  0  0
 44116  1  0  0  0
 45 46  2  0  0  0
 45117  1  0  0  0
 46118  1  0  0  0
 47119  1  0  0  0
 47120  1  0  0  0
 48 56  1  0  0  0
 48 65  1  0  0  0
 48121  1  0  0  0
 49 50  1  0  0  0
 49 53  1  0  0  0
 49 64  1  0  0  0
 49122  1  0  0  0
 50 51  1  0  0  0
 50123  1  0  0  0
 50124  1  0  0  0
 51 52  1  0  0  0
 51125  1  0  0  0
 51126  1  0  0  0
 52127  1  0  0  0
 52128  1  0  0  0
 53 54  1  0  0  0
 54 55  2  0  0  0
 54129  1  0  0  0
 55 57  1  0  0  0
 55130  1  0  0  0
 56 69  2  0  0  0
 57 58  2  0  0  0
 57131  1  0  0  0
 58132  1  0  0  0
 59 60  1  0  0  0
 59 61  1  0  0  0
 59 62  1  0  0  0
 60133  1  0  0  0
 60134  1  0  0  0
 60135  1  0  0  0
 61136  1  0  0  0
 61137  1  0  0  0
 61138  1  0  0  0
 62139  1  0  0  0
 62140  1  0  0  0
 62141  1  0  0  0
 63 65  1  0  0  0
 63142  1  0  0  0
 63143  1  0  0  0
 63144  1  0  0  0
 64145  1  0  0  0
 65146  1  0  0  0
 68 84  1  0  0  0
 71 72  2  0  0  0
 71 74  1  0  0  0
 71147  1  0  0  0
 72 73  1  0  0  0
 72 80  1  0  0  0
 73 75  2  0  0  0
 73 81  1  0  0  0
 74 82  1  0  0  0
 74 85  2  0  0  0
 75 85  1  0  0  0
 75 87  1  0  0  0
 76 77  1  0  0  0
 76 81  1  0  0  0
 76148  1  0  0  0
 76149  1  0  0  0
 77 81  1  0  0  0
 77150  1  0  0  0
 77151  1  0  0  0
 78 80  1  0  0  0
 78 86  1  0  0  0
 78152  1  0  0  0
 78153  1  0  0  0
 79 80  1  0  0  0
 79 86  1  0  0  0
 79154  1  0  0  0
 79155  1  0  0  0
 80156  1  0  0  0
 81157  1  0  0  0
 82158  1  0  0  0
 82159  1  0  0  0
 82160  1  0  0  0
 83 84  1  0  0  0
 83 87  1  0  0  0
 83161  1  0  0  0
 83162  1  0  0  0
 84163  1  0  0  0
 84164  1  0  0  0
 87165  1  0  0  0
M  ISO  4   1 100  68 101  84 101  86 100
M  END
> <chiral flag>
0

> <version>
0

> <s_m_source_file>
/data/baiqing/PycharmProjects/Reinvent-master-3.2/result/LINK_invent/BTK/process_docking_weight1_custom_sum_contain_oxygen_bond_distance_aromatic_linkinvent_7_9_3/rearranged_h_0164.sdf

> <i_m_source_file_index>
54

> <r_mmod_Potential_Energy-OPLS-2005>
-115.78394317627

> <r_mmod_Stretch_Energy-OPLS-2005>
55.7678375244141

> <r_mmod_Bend_Energy-OPLS-2005>
130.291091918945

> <r_mmod_Torsional_Energy-OPLS-2005>
277.401885986328

> <r_mmod_Improper_Torsional_Energy-OPLS-2005>
13.7520923614502

> <r_mmod_Van_der_Waal_Energy-OPLS-2005>
155.021408081055

> <r_mmod_Electrostatic_Energy-OPLS-2005>
-551.823608398438

> <r_mmod_Solvation_Energy-OPLS-2005>
-224.838088989258

> <b_mmod_Minimization_Converged-OPLS-2005>
0

> <r_mmod_RMS_Derivative-OPLS-2005>
1.40019071102142

$$$$
54
                    3D
 Structure written by MMmdl.
169178  0  0  1  0            999 V2000
  -30.6730  -14.5398   20.5113 C   0  0  0  0  0  0
  -30.4286  -12.3286   19.4428 C   0  0  0  0  0  0
  -29.5021  -12.4874   18.2186 C   0  0  0  0  0  0
  -28.0229  -12.3433   18.6307 C   0  0  0  0  0  0
  -27.6568  -13.2033   19.8703 C   0  0  2  0  0  0
  -28.7020  -13.0383   20.9972 C   0  0  0  0  0  0
  -25.2586  -13.8151   20.5694 C   0  0  0  0  0  0
  -24.1829  -13.0437   20.9185 C   0  0  0  0  0  0
  -24.6379  -11.6902   20.8744 C   0  0  0  0  0  0
  -23.9040  -10.4295   21.0406 C   0  0  0  0  0  0
  -24.3596   -9.4213   21.9185 C   0  0  0  0  0  0
  -23.6289   -8.2240   22.0749 C   0  0  0  0  0  0
  -22.4271   -8.0279   21.3543 C   0  0  0  0  0  0
  -21.9899   -9.0251   20.4642 C   0  0  0  0  0  0
  -22.7216  -10.2138   20.3053 C   0  0  0  0  0  0
  -21.6848   -6.0732   22.5284 C   0  0  0  0  0  0
  -21.4007   -6.5631   23.8218 C   0  0  0  0  0  0
  -21.3661   -5.6785   24.9177 C   0  0  0  0  0  0
  -21.6053   -4.3053   24.7224 C   0  0  0  0  0  0
  -21.8820   -3.8139   23.4341 C   0  0  0  0  0  0
  -21.9190   -4.6957   22.3399 C   0  0  0  0  0  0
  -22.7856  -13.5249   21.1848 C   0  0  0  0  0  0
  -22.1663   -4.2142   21.0976 F   0  0  0  0  0  0
  -21.5633   -3.4534   25.7736 F   0  0  0  0  0  0
  -30.0236  -13.3435   20.4298 N   0  0  0  0  0  0
  -26.3011  -12.9300   20.3373 N   0  0  0  0  0  0
  -25.9305  -11.6474   20.5789 N   0  0  0  0  0  0
  -22.0469  -12.8262   22.0399 N   0  0  0  0  0  0
  -25.4347  -15.1865   20.4106 N   0  0  0  0  0  0
  -31.8443  -14.6763   20.1419 O   0  0  0  0  0  0
  -21.6635   -6.8879   21.4247 O   0  0  0  0  0  0
  -22.3562  -14.5561   20.6694 O   0  0  0  0  0  0
  -24.6186  -31.8666   23.2071 C   0  0  0  0  0  0
  -25.9060  -32.4814   23.8381 C   0  0  1  0  0  0
  -27.2270  -27.3951   20.1062 C   0  0  0  0  0  0
  -25.5892  -33.8609   24.2304 N   0  0  0  0  0  0
  -23.4082  -30.4924   21.5478 C   0  0  2  0  0  0
  -24.8529  -28.9566   20.1116 C   0  0  0  0  0  0
  -22.7434  -29.4658   22.4955 C   0  0  0  0  0  0
  -18.0280  -28.1378   22.8498 C   0  0  0  0  0  0
  -24.1484  -36.7312   23.2641 C   0  0  0  0  0  0
  -25.9418  -30.8238   21.3645 C   0  0  0  0  0  0
  -26.0172  -29.4568   20.7066 C   0  0  0  0  0  0
  -27.2089  -28.6883   20.6918 C   0  0  0  0  0  0
  -26.0392  -26.9225   19.5016 C   0  0  0  0  0  0
  -24.8611  -27.6919   19.5022 C   0  0  0  0  0  0
  -23.6172  -29.8281   20.1619 C   0  0  0  0  0  0
  -25.4105  -36.3101   24.0336 C   0  0  1  0  0  0
  -20.5874  -28.3664   23.1308 C   0  0  2  0  0  0
  -20.6755  -26.9395   22.5415 C   0  0  0  0  0  0
  -19.5734  -26.6381   21.5212 C   0  0  0  0  0  0
  -18.1917  -26.7928   22.1629 C   0  0  0  0  0  0
  -19.1532  -28.8838   23.2907 C   0  0  0  0  0  0
  -18.9456  -30.1440   23.8923 C   0  0  0  0  0  0
  -17.6456  -30.6586   24.0562 C   0  0  0  0  0  0
  -25.9035  -34.9471   23.5126 C   0  0  0  0  0  0
  -16.5348  -29.9086   23.6318 C   0  0  0  0  0  0
  -16.7268  -28.6498   23.0355 C   0  0  0  0  0  0
  -26.4464  -31.6609   25.0732 C   0  0  0  0  0  0
  -25.3705  -31.3756   26.1469 C   0  0  0  0  0  0
  -27.0284  -30.3037   24.6143 C   0  0  0  0  0  0
  -27.6044  -32.4326   25.7492 C   0  0  0  0  0  0
  -27.5584  -37.1808   24.8459 C   0  0  0  0  0  0
  -21.4158  -29.3038   22.3704 N   0  0  0  0  0  0
  -26.4290  -37.3785   23.9412 N   0  0  0  0  0  0
  -24.6748  -31.0751   22.0976 N   0  0  0  0  0  0
  -23.4195  -28.8197   23.3002 O   0  0  0  0  0  0
  -28.3816  -26.6238   20.1435 O   0  0  0  0  0  0
  -26.5612  -34.8925   22.4695 O   0  0  0  0  0  0
  -23.5366  -32.1427   23.7442 O   0  0  0  0  0  0
  -30.2241  -20.7347   21.5663 C   0  0  0  0  0  0
  -28.6588  -22.0997   19.7003 C   0  0  0  0  0  0
  -30.2315  -22.1532   21.5399 C   0  0  0  0  0  0
  -29.4550  -22.8669   20.5834 C   0  0  0  0  0  0
  -29.4585  -19.9652   20.6567 C   0  0  0  0  0  0
  -28.6374  -20.6729   19.7329 C   0  0  0  0  0  0
  -30.0206  -17.9094   19.4418 C   0  0  0  0  0  0
  -29.9031  -17.8056   21.8660 C   0  0  0  0  0  0
  -29.6049  -16.4230   19.3402 C   0  0  0  0  0  0
  -29.4724  -16.3094   21.8115 C   0  0  0  0  0  0
  -31.1181  -22.8840   22.5375 C   0  0  0  0  0  0
  -30.6533  -24.7687   19.4363 C   0  0  0  0  0  0
  -26.8322  -20.5899   18.1371 C   0  0  0  0  0  0
  -28.2344  -25.1786   20.0737 C   0  0  0  0  0  0
  -29.5473  -24.4171   20.4432 C   0  0  1  0  0  0
  -29.5030  -18.5361   20.6588 N   0  0  0  0  0  0
  -29.8577  -15.6293   20.5606 N   0  0  0  0  0  0
  -27.8360  -19.9248   18.8919 O   0  0  0  0  0  0
  -31.4732  -12.4320   19.1436 H   0  0  0  0  0  0
  -30.3385  -11.3292   19.8711 H   0  0  0  0  0  0
  -29.7539  -11.7438   17.4611 H   0  0  0  0  0  0
  -29.6644  -13.4616   17.7553 H   0  0  0  0  0  0
  -27.8449  -11.2899   18.8494 H   0  0  0  0  0  0
  -27.3703  -12.5924   17.7934 H   0  0  0  0  0  0
  -27.6782  -14.2406   19.5409 H   0  0  0  0  0  0
  -28.6920  -12.0201   21.3899 H   0  0  0  0  0  0
  -28.4671  -13.6882   21.8407 H   0  0  0  0  0  0
  -25.2732   -9.5696   22.4768 H   0  0  0  0  0  0
  -24.0002   -7.4623   22.7459 H   0  0  0  0  0  0
  -21.0832   -8.8757   19.8952 H   0  0  0  0  0  0
  -22.3665  -10.9671   19.6161 H   0  0  0  0  0  0
  -21.1998   -7.6139   23.9722 H   0  0  0  0  0  0
  -21.1490   -6.0507   25.9084 H   0  0  0  0  0  0
  -22.0601   -2.7600   23.2833 H   0  0  0  0  0  0
  -22.4052  -11.9921   22.4819 H   0  0  0  0  0  0
  -21.1087  -13.1322   22.2573 H   0  0  0  0  0  0
  -24.6777  -15.8494   20.5315 H   0  0  0  0  0  0
  -26.3028  -15.6243   20.1276 H   0  0  0  0  0  0
  -26.7142  -32.5505   23.1153 H   0  0  0  0  0  0
  -24.9996  -33.9748   25.0417 H   0  0  0  0  0  0
  -22.6980  -31.3104   21.4085 H   0  0  0  0  0  0
  -23.3737  -35.9654   23.3304 H   0  0  0  0  0  0
  -24.3583  -36.8924   22.2056 H   0  0  0  0  0  0
  -23.7242  -37.6521   23.6653 H   0  0  0  0  0  0
  -26.0631  -31.5935   20.6005 H   0  0  0  0  0  0
  -26.8262  -30.8704   21.9887 H   0  0  0  0  0  0
  -28.1072  -29.0738   21.1527 H   0  0  0  0  0  0
  -25.9970  -25.9561   19.0239 H   0  0  0  0  0  0
  -23.9665  -27.3025   19.0364 H   0  0  0  0  0  0
  -23.7271  -30.6041   19.4030 H   0  0  0  0  0  0
  -22.7401  -29.2511   19.8647 H   0  0  0  0  0  0
  -25.1288  -36.1964   25.0829 H   0  0  0  0  0  0
  -20.9985  -28.3225   24.1421 H   0  0  0  0  0  0
  -20.5635  -26.2281   23.3606 H   0  0  0  0  0  0
  -21.6626  -26.7412   22.1224 H   0  0  0  0  0  0
  -19.6884  -25.6293   21.1237 H   0  0  0  0  0  0
  -19.6670  -27.3194   20.6743 H   0  0  0  0  0  0
  -17.4187  -26.6690   21.4026 H   0  0  0  0  0  0
  -18.0311  -26.0063   22.9019 H   0  0  0  0  0  0
  -19.7934  -30.7251   24.2303 H   0  0  0  0  0  0
  -17.5013  -31.6270   24.5156 H   0  0  0  0  0  0
  -15.5350  -30.2999   23.7618 H   0  0  0  0  0  0
  -15.8671  -28.0819   22.7061 H   0  0  0  0  0  0
  -24.5851  -30.7137   25.7807 H   0  0  0  0  0  0
  -24.8920  -32.2926   26.4916 H   0  0  0  0  0  0
  -25.8019  -30.8916   27.0237 H   0  0  0  0  0  0
  -26.2846  -29.6826   24.1138 H   0  0  0  0  0  0
  -27.3964  -29.7257   25.4631 H   0  0  0  0  0  0
  -27.8721  -30.4337   23.9363 H   0  0  0  0  0  0
  -27.2666  -33.3602   26.2129 H   0  0  0  0  0  0
  -28.3820  -32.6935   25.0300 H   0  0  0  0  0  0
  -28.0757  -31.8419   26.5358 H   0  0  0  0  0  0
  -28.2605  -38.0102   24.7503 H   0  0  0  0  0  0
  -28.1076  -36.2636   24.6279 H   0  0  0  0  0  0
  -27.2310  -37.1452   25.8863 H   0  0  0  0  0  0
  -20.9306  -29.8794   21.6965 H   0  0  0  0  0  0
  -26.0182  -38.2866   24.1400 H   0  0  0  0  0  0
  -30.8477  -20.2319   22.2909 H   0  0  0  0  0  0
  -28.0760  -22.6345   18.9685 H   0  0  0  0  0  0
  -29.6849  -18.4325   18.5457 H   0  0  0  0  0  0
  -31.1090  -17.9870   19.4420 H   0  0  0  0  0  0
  -30.9883  -17.8659   21.9725 H   0  0  0  0  0  0
  -29.4755  -18.2776   22.7523 H   0  0  0  0  0  0
  -30.1005  -15.9735   18.4769 H   0  0  0  0  0  0
  -28.5382  -16.3704   19.1234 H   0  0  0  0  0  0
  -28.3872  -16.2438   21.8991 H   0  0  0  0  0  0
  -29.8745  -15.7781   22.6763 H   0  0  0  0  0  0
  -31.6708  -22.1910   23.1731 H   0  0  0  0  0  0
  -30.5226  -23.5205   23.1928 H   0  0  0  0  0  0
  -31.8494  -23.5065   22.0221 H   0  0  0  0  0  0
  -31.6104  -24.3348   19.7265 H   0  0  0  0  0  0
  -30.7904  -25.8474   19.3614 H   0  0  0  0  0  0
  -30.4096  -24.3970   18.4411 H   0  0  0  0  0  0
  -27.2592  -21.2842   17.4130 H   0  0  0  0  0  0
  -26.1369  -21.1234   18.7870 H   0  0  0  0  0  0
  -26.2566  -19.8524   17.5777 H   0  0  0  0  0  0
  -27.4432  -24.8664   20.7584 H   0  0  0  0  0  0
  -27.9281  -24.8966   19.0664 H   0  0  0  0  0  0
  -29.8389  -24.8233   21.4096 H   0  0  0  0  0  0
  1 25  1  0  0  0
  1 30  2  0  0  0
  1 87  1  0  0  0
  2  3  1  0  0  0
  2 25  1  0  0  0
  2 89  1  0  0  0
  2 90  1  0  0  0
  3  4  1  0  0  0
  3 91  1  0  0  0
  3 92  1  0  0  0
  4  5  1  0  0  0
  4 93  1  0  0  0
  4 94  1  0  0  0
  5  6  1  0  0  0
  5 26  1  0  0  0
  5 95  1  0  0  0
  6 25  1  0  0  0
  6 96  1  0  0  0
  6 97  1  0  0  0
  7  8  2  0  0  0
  7 26  1  0  0  0
  7 29  1  0  0  0
  8  9  1  0  0  0
  8 22  1  0  0  0
  9 10  1  0  0  0
  9 27  2  0  0  0
 10 11  2  0  0  0
 10 15  1  0  0  0
 11 12  1  0  0  0
 11 98  1  0  0  0
 12 13  2  0  0  0
 12 99  1  0  0  0
 13 14  1  0  0  0
 13 31  1  0  0  0
 14 15  2  0  0  0
 14100  1  0  0  0
 15101  1  0  0  0
 16 17  2  0  0  0
 16 21  1  0  0  0
 16 31  1  0  0  0
 17 18  1  0  0  0
 17102  1  0  0  0
 18 19  2  0  0  0
 18103  1  0  0  0
 19 20  1  0  0  0
 19 24  1  0  0  0
 20 21  2  0  0  0
 20104  1  0  0  0
 21 23  1  0  0  0
 22 28  1  0  0  0
 22 32  2  0  0  0
 26 27  1  0  0  0
 28105  1  0  0  0
 28106  1  0  0  0
 29107  1  0  0  0
 29108  1  0  0  0
 33 34  1  0  0  0
 33 66  1  0  0  0
 33 70  2  0  0  0
 34 36  1  0  0  0
 34 59  1  0  0  0
 34109  1  0  0  0
 35 44  2  0  0  0
 35 45  1  0  0  0
 35 68  1  0  0  0
 36 56  1  0  0  0
 36110  1  0  0  0
 37 39  1  0  0  0
 37 47  1  0  0  0
 37 66  1  0  0  0
 37111  1  0  0  0
 38 43  2  0  0  0
 38 46  1  0  0  0
 38 47  1  0  0  0
 39 64  1  0  0  0
 39 67  2  0  0  0
 40 52  1  0  0  0
 40 53  2  0  0  0
 40 58  1  0  0  0
 41112  1  0  0  0
 41113  1  0  0  0
 41114  1  0  0  0
 41 48  1  0  0  0
 42 43  1  0  0  0
 42 66  1  0  0  0
 42115  1  0  0  0
 42116  1  0  0  0
 43 44  1  0  0  0
 44117  1  0  0  0
 45 46  2  0  0  0
 45118  1  0  0  0
 46119  1  0  0  0
 47120  1  0  0  0
 47121  1  0  0  0
 48 56  1  0  0  0
 48 65  1  0  0  0
 48122  1  0  0  0
 49 50  1  0  0  0
 49 53  1  0  0  0
 49 64  1  0  0  0
 49123  1  0  0  0
 50 51  1  0  0  0
 50124  1  0  0  0
 50125  1  0  0  0
 51 52  1  0  0  0
 51126  1  0  0  0
 51127  1  0  0  0
 52128  1  0  0  0
 52129  1  0  0  0
 53 54  1  0  0  0
 54 55  2  0  0  0
 54130  1  0  0  0
 55 57  1  0  0  0
 55131  1  0  0  0
 56 69  2  0  0  0
 57 58  2  0  0  0
 57132  1  0  0  0
 58133  1  0  0  0
 59 60  1  0  0  0
 59 61  1  0  0  0
 59 62  1  0  0  0
 60134  1  0  0  0
 60135  1  0  0  0
 60136  1  0  0  0
 61137  1  0  0  0
 61138  1  0  0  0
 61139  1  0  0  0
 62140  1  0  0  0
 62141  1  0  0  0
 62142  1  0  0  0
 63 65  1  0  0  0
 63143  1  0  0  0
 63144  1  0  0  0
 63145  1  0  0  0
 64146  1  0  0  0
 65147  1  0  0  0
 68 84  1  0  0  0
 71 73  2  0  0  0
 71 75  1  0  0  0
 71148  1  0  0  0
 72 74  2  0  0  0
 72 76  1  0  0  0
 72149  1  0  0  0
 73 74  1  0  0  0
 73 81  1  0  0  0
 74 85  1  0  0  0
 75 76  2  0  0  0
 75 86  1  0  0  0
 76 88  1  0  0  0
 77 79  1  0  0  0
 77 86  1  0  0  0
 77150  1  0  0  0
 77151  1  0  0  0
 78 80  1  0  0  0
 78 86  1  0  0  0
 78152  1  0  0  0
 78153  1  0  0  0
 79 87  1  0  0  0
 79154  1  0  0  0
 79155  1  0  0  0
 80 87  1  0  0  0
 80156  1  0  0  0
 80157  1  0  0  0
 81158  1  0  0  0
 81159  1  0  0  0
 81160  1  0  0  0
 82161  1  0  0  0
 82162  1  0  0  0
 82163  1  0  0  0
 82 85  1  0  0  0
 83 88  1  0  0  0
 83164  1  0  0  0
 83165  1  0  0  0
 83166  1  0  0  0
 84 85  1  0  0  0
 84167  1  0  0  0
 84168  1  0  0  0
 85169  1  0  0  0
M  ISO  4   1 100  68 101  84 101  87 100
M  END
> <chiral flag>
0

> <version>
0

> <s_m_source_file>
/data/baiqing/PycharmProjects/Reinvent-master-3.2/result/LINK_invent/BTK/process_docking_weight1_custom_sum_contain_oxygen_bond_distance_aromatic_linkinvent_7_9_3/rearranged_h_0164.sdf

> <i_m_source_file_index>
55

> <r_mmod_Potential_Energy-OPLS-2005>
203.203018188477

> <r_mmod_Stretch_Energy-OPLS-2005>
53.5836753845215

> <r_mmod_Bend_Energy-OPLS-2005>
116.227760314941

> <r_mmod_Torsional_Energy-OPLS-2005>
365.094299316406

> <r_mmod_Improper_Torsional_Energy-OPLS-2005>
18.1032791137695

> <r_mmod_Van_der_Waal_Energy-OPLS-2005>
161.63786315918

> <r_mmod_Electrostatic_Energy-OPLS-2005>
-325.919097900391

> <r_mmod_Solvation_Energy-OPLS-2005>
-209.506423950195

> <b_mmod_Minimization_Converged-OPLS-2005>
0

> <r_mmod_RMS_Derivative-OPLS-2005>
1.86299908161163

$$$$
55
                    3D
 Structure written by MMmdl.
161170  0  0  1  0            999 V2000
  -30.7057  -14.6452   20.4459 C   0  0  0  0  0  0
  -30.4195  -12.3903   19.4640 C   0  0  0  0  0  0
  -29.5079  -12.4955   18.2222 C   0  0  0  0  0  0
  -28.0333  -12.3389   18.6341 C   0  0  0  0  0  0
  -27.6479  -13.2329   19.8440 C   0  0  2  0  0  0
  -28.6973  -13.1668   20.9772 C   0  0  0  0  0  0
  -25.2596  -13.8156   20.5755 C   0  0  0  0  0  0
  -24.1886  -13.0451   20.9197 C   0  0  0  0  0  0
  -24.6433  -11.6898   20.8714 C   0  0  0  0  0  0
  -23.9067  -10.4297   21.0403 C   0  0  0  0  0  0
  -24.3639   -9.4204   21.9179 C   0  0  0  0  0  0
  -23.6304   -8.2246   22.0749 C   0  0  0  0  0  0
  -22.4267   -8.0294   21.3560 C   0  0  0  0  0  0
  -21.9913   -9.0278   20.4665 C   0  0  0  0  0  0
  -22.7247  -10.2135   20.3045 C   0  0  0  0  0  0
  -21.6858   -6.0738   22.5280 C   0  0  0  0  0  0
  -21.4036   -6.5625   23.8209 C   0  0  0  0  0  0
  -21.3661   -5.6783   24.9174 C   0  0  0  0  0  0
  -21.6036   -4.3046   24.7225 C   0  0  0  0  0  0
  -21.8821   -3.8145   23.4341 C   0  0  0  0  0  0
  -21.9218   -4.6974   22.3403 C   0  0  0  0  0  0
  -22.7873  -13.5208   21.1838 C   0  0  0  0  0  0
  -22.1684   -4.2167   21.0974 F   0  0  0  0  0  0
  -21.5613   -3.4526   25.7738 F   0  0  0  0  0  0
  -30.0036  -13.4716   20.3825 N   0  0  0  0  0  0
  -26.3015  -12.9398   20.3299 N   0  0  0  0  0  0
  -25.9379  -11.6516   20.5712 N   0  0  0  0  0  0
  -22.0540  -12.8252   22.0380 N   0  0  0  0  0  0
  -25.4323  -15.1909   20.4264 N   0  0  0  0  0  0
  -31.9095  -14.6479   20.1731 O   0  0  0  0  0  0
  -21.6618   -6.8910   21.4260 O   0  0  0  0  0  0
  -22.3584  -14.5534   20.6658 O   0  0  0  0  0  0
  -24.6407  -31.8616   23.1995 C   0  0  0  0  0  0
  -25.9269  -32.4757   23.8300 C   0  0  1  0  0  0
  -27.2293  -27.3135   20.0022 C   0  0  0  0  0  0
  -25.6037  -33.8552   24.2245 N   0  0  0  0  0  0
  -23.4270  -30.4892   21.5510 C   0  0  2  0  0  0
  -24.8546  -28.9341   20.1202 C   0  0  0  0  0  0
  -22.7536  -29.4679   22.4992 C   0  0  0  0  0  0
  -18.0314  -28.1417   22.8459 C   0  0  0  0  0  0
  -24.1495  -36.7230   23.2606 C   0  0  0  0  0  0
  -25.9783  -30.7654   21.3840 C   0  0  0  0  0  0
  -26.0397  -29.3994   20.7012 C   0  0  0  0  0  0
  -27.2256  -28.5973   20.6411 C   0  0  0  0  0  0
  -25.9962  -26.9089   19.4271 C   0  0  0  0  0  0
  -24.8293  -27.6806   19.5016 C   0  0  0  0  0  0
  -23.6334  -29.8247   20.1687 C   0  0  0  0  0  0
  -25.4088  -36.3021   24.0332 C   0  0  1  0  0  0
  -20.5914  -28.3735   23.1271 C   0  0  2  0  0  0
  -20.6821  -26.9461   22.5391 C   0  0  0  0  0  0
  -19.5777  -26.6406   21.5199 C   0  0  0  0  0  0
  -18.1962  -26.7961   22.1611 C   0  0  0  0  0  0
  -19.1566  -28.8888   23.2856 C   0  0  0  0  0  0
  -18.9496  -30.1489   23.8888 C   0  0  0  0  0  0
  -17.6487  -30.6601   24.0558 C   0  0  0  0  0  0
  -25.9097  -34.9445   23.5063 C   0  0  0  0  0  0
  -16.5375  -29.9080   23.6332 C   0  0  0  0  0  0
  -16.7294  -28.6504   23.0335 C   0  0  0  0  0  0
  -26.4535  -31.6587   25.0749 C   0  0  0  0  0  0
  -25.3725  -31.3831   26.1462 C   0  0  0  0  0  0
  -27.0357  -30.2969   24.6321 C   0  0  0  0  0  0
  -27.6102  -32.4319   25.7502 C   0  0  0  0  0  0
  -27.5651  -37.1661   24.8369 C   0  0  0  0  0  0
  -21.4269  -29.3094   22.3693 N   0  0  0  0  0  0
  -26.4206  -37.3810   23.9553 N   0  0  0  0  0  0
  -24.7002  -31.0552   22.0975 N   0  0  0  0  0  0
  -23.4263  -28.8222   23.3079 O   0  0  0  0  0  0
  -28.3693  -26.4788   19.9482 O   0  0  0  0  0  0
  -26.5602  -34.8940   22.4610 O   0  0  0  0  0  0
  -23.5569  -32.1484   23.7265 O   0  0  0  0  0  0
  -30.5044  -23.9559   18.7520 C   0  0  0  0  0  0
  -31.2645  -22.7631   18.7661 C   0  0  0  0  0  0
  -29.2316  -23.9893   19.3713 C   0  0  0  0  0  0
  -28.7870  -22.7481   19.9686 C   0  0  0  0  0  0
  -29.6044  -21.5677   19.9143 C   0  0  0  0  0  0
  -29.8099  -18.2246   19.2221 C   0  0  0  0  0  0
  -29.0969  -18.0302   21.5255 C   0  0  0  0  0  0
  -30.4585  -16.7986   19.2933 C   0  0  0  0  0  0
  -29.7061  -16.5778   21.6493 C   0  0  0  0  0  0
  -29.8169  -19.0049   20.5466 C   0  0  0  0  0  0
  -27.4191  -22.6457   20.6564 C   0  0  0  0  0  0
  -28.2909  -25.2282   19.1392 C   0  0  0  0  0  0
  -30.8250  -21.5982   19.3239 N   0  0  0  0  0  0
  -30.0261  -15.8591   20.3847 N   0  0  0  0  0  0
  -29.1311  -20.3330   20.4668 N   0  0  0  0  0  0
  -31.4681  -12.4613   19.1660 H   0  0  0  0  0  0
  -30.3076  -11.4190   19.9480 H   0  0  0  0  0  0
  -29.7783  -11.7331   17.4851 H   0  0  0  0  0  0
  -29.6570  -13.4572   17.7282 H   0  0  0  0  0  0
  -27.8851  -11.2887   18.8941 H   0  0  0  0  0  0
  -27.3793  -12.5437   17.7873 H   0  0  0  0  0  0
  -27.6428  -14.2566   19.4651 H   0  0  0  0  0  0
  -28.7102  -12.1762   21.4381 H   0  0  0  0  0  0
  -28.4502  -13.8725   21.7707 H   0  0  0  0  0  0
  -25.2779   -9.5693   22.4738 H   0  0  0  0  0  0
  -24.0055   -7.4636   22.7407 H   0  0  0  0  0  0
  -21.0852   -8.8767   19.8969 H   0  0  0  0  0  0
  -22.3692  -10.9669   19.6144 H   0  0  0  0  0  0
  -21.2013   -7.6127   23.9702 H   0  0  0  0  0  0
  -21.1468   -6.0513   25.9076 H   0  0  0  0  0  0
  -22.0600   -2.7620   23.2803 H   0  0  0  0  0  0
  -22.4146  -11.9915   22.4780 H   0  0  0  0  0  0
  -21.1172  -13.1329   22.2579 H   0  0  0  0  0  0
  -24.6716  -15.8481   20.5245 H   0  0  0  0  0  0
  -26.3018  -15.6240   20.1416 H   0  0  0  0  0  0
  -26.7349  -32.5367   23.1043 H   0  0  0  0  0  0
  -25.0217  -33.9670   25.0401 H   0  0  0  0  0  0
  -22.7252  -31.3133   21.4088 H   0  0  0  0  0  0
  -23.3887  -35.9422   23.3000 H   0  0  0  0  0  0
  -24.3687  -36.9114   22.2079 H   0  0  0  0  0  0
  -23.7064  -37.6275   23.6788 H   0  0  0  0  0  0
  -26.1539  -31.5399   20.6374 H   0  0  0  0  0  0
  -26.8484  -30.7773   22.0299 H   0  0  0  0  0  0
  -28.1495  -28.9512   21.0755 H   0  0  0  0  0  0
  -25.8405  -25.9927   18.8833 H   0  0  0  0  0  0
  -23.9119  -27.2971   19.0757 H   0  0  0  0  0  0
  -23.7837  -30.6040   19.4197 H   0  0  0  0  0  0
  -22.7415  -29.2802   19.8512 H   0  0  0  0  0  0
  -25.1204  -36.1784   25.0800 H   0  0  0  0  0  0
  -20.9982  -28.3335   24.1401 H   0  0  0  0  0  0
  -20.5765  -26.2365   23.3604 H   0  0  0  0  0  0
  -21.6720  -26.7573   22.1161 H   0  0  0  0  0  0
  -19.6956  -25.6312   21.1249 H   0  0  0  0  0  0
  -19.6648  -27.3204   20.6708 H   0  0  0  0  0  0
  -17.4225  -26.6708   21.3993 H   0  0  0  0  0  0
  -18.0340  -26.0135   22.9019 H   0  0  0  0  0  0
  -19.7988  -30.7282   24.2269 H   0  0  0  0  0  0
  -17.5059  -31.6297   24.5154 H   0  0  0  0  0  0
  -15.5367  -30.2937   23.7708 H   0  0  0  0  0  0
  -15.8724  -28.0780   22.7077 H   0  0  0  0  0  0
  -24.5812  -30.7271   25.7794 H   0  0  0  0  0  0
  -24.9026  -32.3062   26.4878 H   0  0  0  0  0  0
  -25.7998  -30.8977   27.0260 H   0  0  0  0  0  0
  -26.2961  -29.6725   24.1311 H   0  0  0  0  0  0
  -27.3930  -29.7212   25.4876 H   0  0  0  0  0  0
  -27.8883  -30.4147   23.9640 H   0  0  0  0  0  0
  -27.2734  -33.3632   26.2066 H   0  0  0  0  0  0
  -28.3899  -32.6882   25.0323 H   0  0  0  0  0  0
  -28.0809  -31.8490   26.5439 H   0  0  0  0  0  0
  -28.2279  -38.0311   24.8076 H   0  0  0  0  0  0
  -28.1500  -36.2983   24.5319 H   0  0  0  0  0  0
  -27.2563  -37.0289   25.8742 H   0  0  0  0  0  0
  -20.9506  -29.8730   21.6787 H   0  0  0  0  0  0
  -26.0043  -38.2775   24.1916 H   0  0  0  0  0  0
  -30.8637  -24.8223   18.2057 H   0  0  0  0  0  0
  -32.2389  -22.7436   18.2787 H   0  0  0  0  0  0
  -28.7765  -18.1244   18.8797 H   0  0  0  0  0  0
  -30.3386  -18.8130   18.4692 H   0  0  0  0  0  0
  -29.0812  -18.4890   22.5213 H   0  0  0  0  0  0
  -28.0451  -17.9490   21.2343 H   0  0  0  0  0  0
  -31.5421  -16.9563   19.3639 H   0  0  0  0  0  0
  -30.2692  -16.2988   18.3386 H   0  0  0  0  0  0
  -29.0096  -15.9651   22.2290 H   0  0  0  0  0  0
  -30.6277  -16.6400   22.2333 H   0  0  0  0  0  0
  -30.8451  -19.1745   20.8871 H   0  0  0  0  0  0
  -26.7443  -23.4830   20.5230 H   0  0  0  0  0  0
  -27.5966  -22.6588   21.7318 H   0  0  0  0  0  0
  -26.8703  -21.7630   20.3060 H   0  0  0  0  0  0
  -27.3140  -24.8060   19.1714 H   0  0  0  0  0  0
  -28.2957  -25.4402   18.0728 H   0  0  0  0  0  0
  -28.2655  -20.4080   21.0007 H   0  0  0  0  0  0
  1 25  1  0  0  0
  1 30  2  0  0  0
  1 84  1  0  0  0
  2  3  1  0  0  0
  2 25  1  0  0  0
  2 86  1  0  0  0
  2 87  1  0  0  0
  3  4  1  0  0  0
  3 88  1  0  0  0
  3 89  1  0  0  0
  4  5  1  0  0  0
  4 90  1  0  0  0
  4 91  1  0  0  0
  5  6  1  0  0  0
  5 26  1  0  0  0
  5 92  1  0  0  0
  6 25  1  0  0  0
  6 93  1  0  0  0
  6 94  1  0  0  0
  7  8  2  0  0  0
  7 26  1  0  0  0
  7 29  1  0  0  0
  8  9  1  0  0  0
  8 22  1  0  0  0
  9 10  1  0  0  0
  9 27  2  0  0  0
 10 11  2  0  0  0
 10 15  1  0  0  0
 11 12  1  0  0  0
 11 95  1  0  0  0
 12 13  2  0  0  0
 12 96  1  0  0  0
 13 14  1  0  0  0
 13 31  1  0  0  0
 14 15  2  0  0  0
 14 97  1  0  0  0
 15 98  1  0  0  0
 16 17  2  0  0  0
 16 21  1  0  0  0
 16 31  1  0  0  0
 17 18  1  0  0  0
 17 99  1  0  0  0
 18 19  2  0  0  0
 18100  1  0  0  0
 19 20  1  0  0  0
 19 24  1  0  0  0
 20 21  2  0  0  0
 20101  1  0  0  0
 21 23  1  0  0  0
 22 28  1  0  0  0
 22 32  2  0  0  0
 26 27  1  0  0  0
 28102  1  0  0  0
 28103  1  0  0  0
 29104  1  0  0  0
 29105  1  0  0  0
 33 34  1  0  0  0
 33 66  1  0  0  0
 33 70  2  0  0  0
 34 36  1  0  0  0
 34 59  1  0  0  0
 34106  1  0  0  0
 35 44  2  0  0  0
 35 45  1  0  0  0
 35 68  1  0  0  0
 36 56  1  0  0  0
 36107  1  0  0  0
 37 39  1  0  0  0
 37 47  1  0  0  0
 37 66  1  0  0  0
 37108  1  0  0  0
 38 43  2  0  0  0
 38 46  1  0  0  0
 38 47  1  0  0  0
 39 64  1  0  0  0
 39 67  2  0  0  0
 40 52  1  0  0  0
 40 53  2  0  0  0
 40 58  1  0  0  0
 41109  1  0  0  0
 41110  1  0  0  0
 41111  1  0  0  0
 41 48  1  0  0  0
 42 43  1  0  0  0
 42 66  1  0  0  0
 42112  1  0  0  0
 42113  1  0  0  0
 43 44  1  0  0  0
 44114  1  0  0  0
 45 46  2  0  0  0
 45115  1  0  0  0
 46116  1  0  0  0
 47117  1  0  0  0
 47118  1  0  0  0
 48 56  1  0  0  0
 48 65  1  0  0  0
 48119  1  0  0  0
 49 50  1  0  0  0
 49 53  1  0  0  0
 49 64  1  0  0  0
 49120  1  0  0  0
 50 51  1  0  0  0
 50121  1  0  0  0
 50122  1  0  0  0
 51 52  1  0  0  0
 51123  1  0  0  0
 51124  1  0  0  0
 52125  1  0  0  0
 52126  1  0  0  0
 53 54  1  0  0  0
 54 55  2  0  0  0
 54127  1  0  0  0
 55 57  1  0  0  0
 55128  1  0  0  0
 56 69  2  0  0  0
 57 58  2  0  0  0
 57129  1  0  0  0
 58130  1  0  0  0
 59 60  1  0  0  0
 59 61  1  0  0  0
 59 62  1  0  0  0
 60131  1  0  0  0
 60132  1  0  0  0
 60133  1  0  0  0
 61134  1  0  0  0
 61135  1  0  0  0
 61136  1  0  0  0
 62137  1  0  0  0
 62138  1  0  0  0
 62139  1  0  0  0
 63 65  1  0  0  0
 63140  1  0  0  0
 63141  1  0  0  0
 63142  1  0  0  0
 64143  1  0  0  0
 65144  1  0  0  0
 68 82  1  0  0  0
 71 72  2  0  0  0
 71 73  1  0  0  0
 71145  1  0  0  0
 72 83  1  0  0  0
 72146  1  0  0  0
 73 74  2  0  0  0
 73 82  1  0  0  0
 74 75  1  0  0  0
 74 81  1  0  0  0
 75 83  2  0  0  0
 75 85  1  0  0  0
 76 78  1  0  0  0
 76 80  1  0  0  0
 76147  1  0  0  0
 76148  1  0  0  0
 77 79  1  0  0  0
 77 80  1  0  0  0
 77149  1  0  0  0
 77150  1  0  0  0
 78 84  1  0  0  0
 78151  1  0  0  0
 78152  1  0  0  0
 79 84  1  0  0  0
 79153  1  0  0  0
 79154  1  0  0  0
 80 85  1  0  0  0
 80155  1  0  0  0
 81156  1  0  0  0
 81157  1  0  0  0
 81158  1  0  0  0
 82159  1  0  0  0
 82160  1  0  0  0
 85161  1  0  0  0
M  ISO  4   1 100  68 101  82 101  84 100
M  END
> <chiral flag>
0

> <version>
0

> <s_m_source_file>
/data/baiqing/PycharmProjects/Reinvent-master-3.2/result/LINK_invent/BTK/process_docking_weight1_custom_sum_contain_oxygen_bond_distance_aromatic_linkinvent_7_9_3/rearranged_h_0164.sdf

> <i_m_source_file_index>
56

> <r_mmod_Potential_Energy-OPLS-2005>
116.378051757812

> <r_mmod_Stretch_Energy-OPLS-2005>
93.7035217285156

> <r_mmod_Bend_Energy-OPLS-2005>
186.946365356445

> <r_mmod_Torsional_Energy-OPLS-2005>
316.988952636719

> <r_mmod_Improper_Torsional_Energy-OPLS-2005>
17.6940078735352

> <r_mmod_Van_der_Waal_Energy-OPLS-2005>
169.063171386719

> <r_mmod_Electrostatic_Energy-OPLS-2005>
-505.035827636719

> <r_mmod_Solvation_Energy-OPLS-2005>
-224.67692565918

> <b_mmod_Minimization_Converged-OPLS-2005>
0

> <r_mmod_RMS_Derivative-OPLS-2005>
11.637619972229

$$$$
56
                    3D
 Structure written by MMmdl.
172181  0  0  1  0            999 V2000
  -30.7069  -14.5572   20.4718 C   0  0  0  0  0  0
  -30.4108  -12.3388   19.4394 C   0  0  0  0  0  0
  -29.4899  -12.4811   18.2114 C   0  0  0  0  0  0
  -28.0129  -12.3403   18.6303 C   0  0  0  0  0  0
  -27.6438  -13.2107   19.8628 C   0  0  2  0  0  0
  -28.6986  -13.1018   20.9866 C   0  0  0  0  0  0
  -25.2549  -13.8148   20.5741 C   0  0  0  0  0  0
  -24.1806  -13.0424   20.9204 C   0  0  0  0  0  0
  -24.6367  -11.6897   20.8770 C   0  0  0  0  0  0
  -23.9042  -10.4281   21.0420 C   0  0  0  0  0  0
  -24.3600   -9.4194   21.9189 C   0  0  0  0  0  0
  -23.6282   -8.2229   22.0755 C   0  0  0  0  0  0
  -22.4266   -8.0266   21.3545 C   0  0  0  0  0  0
  -21.9896   -9.0243   20.4650 C   0  0  0  0  0  0
  -22.7223  -10.2125   20.3062 C   0  0  0  0  0  0
  -21.6847   -6.0728   22.5276 C   0  0  0  0  0  0
  -21.4008   -6.5633   23.8209 C   0  0  0  0  0  0
  -21.3657   -5.6785   24.9172 C   0  0  0  0  0  0
  -21.6046   -4.3048   24.7220 C   0  0  0  0  0  0
  -21.8821   -3.8142   23.4340 C   0  0  0  0  0  0
  -21.9192   -4.6958   22.3398 C   0  0  0  0  0  0
  -22.7834  -13.5227   21.1845 C   0  0  0  0  0  0
  -22.1666   -4.2141   21.0976 F   0  0  0  0  0  0
  -21.5625   -3.4533   25.7737 F   0  0  0  0  0  0
  -30.0122  -13.3844   20.3959 N   0  0  0  0  0  0
  -26.2956  -12.9305   20.3398 N   0  0  0  0  0  0
  -25.9294  -11.6468   20.5815 N   0  0  0  0  0  0
  -22.0467  -12.8228   22.0406 N   0  0  0  0  0  0
  -25.4294  -15.1870   20.4170 N   0  0  0  0  0  0
  -31.9050  -14.6137   20.1781 O   0  0  0  0  0  0
  -21.6636   -6.8865   21.4238 O   0  0  0  0  0  0
  -22.3533  -14.5535   20.6687 O   0  0  0  0  0  0
  -24.6177  -31.8655   23.2066 C   0  0  0  0  0  0
  -25.9055  -32.4806   23.8375 C   0  0  1  0  0  0
  -27.2255  -27.4005   20.1142 C   0  0  0  0  0  0
  -25.5907  -33.8604   24.2319 N   0  0  0  0  0  0
  -23.4064  -30.4881   21.5474 C   0  0  2  0  0  0
  -24.8519  -28.9461   20.1157 C   0  0  0  0  0  0
  -22.7429  -29.4653   22.4979 C   0  0  0  0  0  0
  -18.0274  -28.1376   22.8478 C   0  0  0  0  0  0
  -24.1487  -36.7302   23.2642 C   0  0  0  0  0  0
  -25.9377  -30.8247   21.3600 C   0  0  0  0  0  0
  -26.0148  -29.4552   20.7095 C   0  0  0  0  0  0
  -27.2086  -28.6921   20.6970 C   0  0  0  0  0  0
  -26.0486  -26.9135   19.5106 C   0  0  0  0  0  0
  -24.8658  -27.6773   19.5091 C   0  0  0  0  0  0
  -23.6156  -29.8167   20.1632 C   0  0  0  0  0  0
  -25.4104  -36.3102   24.0349 C   0  0  1  0  0  0
  -20.5865  -28.3667   23.1313 C   0  0  2  0  0  0
  -20.6759  -26.9403   22.5414 C   0  0  0  0  0  0
  -19.5742  -26.6384   21.5201 C   0  0  0  0  0  0
  -18.1917  -26.7922   22.1614 C   0  0  0  0  0  0
  -19.1523  -28.8838   23.2889 C   0  0  0  0  0  0
  -18.9447  -30.1437   23.8904 C   0  0  0  0  0  0
  -17.6453  -30.6578   24.0553 C   0  0  0  0  0  0
  -25.9031  -34.9470   23.5137 C   0  0  0  0  0  0
  -16.5342  -29.9078   23.6332 C   0  0  0  0  0  0
  -16.7261  -28.6495   23.0355 C   0  0  0  0  0  0
  -26.4478  -31.6588   25.0712 C   0  0  0  0  0  0
  -25.3752  -31.3689   26.1468 C   0  0  0  0  0  0
  -27.0299  -30.3030   24.6078 C   0  0  0  0  0  0
  -27.6069  -32.4300   25.7467 C   0  0  0  0  0  0
  -27.5583  -37.1796   24.8463 C   0  0  0  0  0  0
  -21.4153  -29.3034   22.3721 N   0  0  0  0  0  0
  -26.4284  -37.3791   23.9422 N   0  0  0  0  0  0
  -24.6725  -31.0746   22.0961 N   0  0  0  0  0  0
  -23.4188  -28.8204   23.3033 O   0  0  0  0  0  0
  -28.3712  -26.6286   20.1047 O   0  0  0  0  0  0
  -26.5588  -34.8938   22.4693 O   0  0  0  0  0  0
  -23.5364  -32.1400   23.7461 O   0  0  0  0  0  0
  -29.7262  -20.3910   17.7859 C   0  0  0  0  0  0
  -30.0363  -21.1708   16.6607 C   0  0  0  0  0  0
  -30.0989  -22.5742   16.7800 C   0  0  0  0  0  0
  -29.8295  -23.1764   18.0353 C   0  0  0  0  0  0
  -29.3866  -20.9609   19.0359 C   0  0  0  0  0  0
  -29.3638  -22.3949   19.1391 C   0  0  0  0  0  0
  -28.7606  -17.6527   19.4825 C   0  0  0  0  0  0
  -29.8964  -18.1489   21.5715 C   0  0  0  0  0  0
  -29.5670  -16.3376   19.3379 C   0  0  0  0  0  0
  -30.5956  -16.7494   21.5252 C   0  0  0  0  0  0
  -29.6397  -18.7207   20.1643 C   0  0  0  0  0  0
  -30.3303  -20.4651   15.3458 C   0  0  0  0  0  0
  -30.4751  -23.4313   15.5729 C   0  0  0  0  0  0
  -30.1230  -24.6660   18.2004 C   0  0  0  0  0  0
  -28.3391  -25.4200   20.9074 C   0  0  0  0  0  0
  -27.9551  -24.0744   20.2008 C   0  0  0  0  0  0
  -30.0024  -15.7240   20.6184 N   0  0  0  0  0  0
  -29.0937  -20.1042   20.1340 N   0  0  0  0  0  0
  -28.9473  -23.0155   20.3112 O   0  0  0  0  0  0
  -31.4574  -12.4160   19.1381 H   0  0  0  0  0  0
  -30.3037  -11.3521   19.8923 H   0  0  0  0  0  0
  -29.7393  -11.7272   17.4638 H   0  0  0  0  0  0
  -29.6498  -13.4483   17.7338 H   0  0  0  0  0  0
  -27.8368  -11.2879   18.8564 H   0  0  0  0  0  0
  -27.3584  -12.5836   17.7923 H   0  0  0  0  0  0
  -27.6332  -14.2378   19.5166 H   0  0  0  0  0  0
  -28.6937  -12.1055   21.4313 H   0  0  0  0  0  0
  -28.4743  -13.8023   21.7928 H   0  0  0  0  0  0
  -25.2745   -9.5677   22.4760 H   0  0  0  0  0  0
  -23.9995   -7.4621   22.7473 H   0  0  0  0  0  0
  -21.0823   -8.8764   19.8960 H   0  0  0  0  0  0
  -22.3682  -10.9662   19.6169 H   0  0  0  0  0  0
  -21.2005   -7.6146   23.9707 H   0  0  0  0  0  0
  -21.1474   -6.0520   25.9074 H   0  0  0  0  0  0
  -22.0603   -2.7605   23.2837 H   0  0  0  0  0  0
  -22.4080  -11.9877   22.4773 H   0  0  0  0  0  0
  -21.1093  -13.1262   22.2616 H   0  0  0  0  0  0
  -24.6707  -15.8494   20.5352 H   0  0  0  0  0  0
  -26.2998  -15.6230   20.1394 H   0  0  0  0  0  0
  -26.7131  -32.5510   23.1142 H   0  0  0  0  0  0
  -25.0106  -33.9756   25.0493 H   0  0  0  0  0  0
  -22.6960  -31.3050   21.4056 H   0  0  0  0  0  0
  -23.3761  -35.9623   23.3289 H   0  0  0  0  0  0
  -24.3593  -36.8920   22.2058 H   0  0  0  0  0  0
  -23.7217  -37.6500   23.6653 H   0  0  0  0  0  0
  -26.0523  -31.5898   20.5906 H   0  0  0  0  0  0
  -26.8259  -30.8807   21.9776 H   0  0  0  0  0  0
  -28.1097  -29.0839   21.1480 H   0  0  0  0  0  0
  -26.0437  -25.9437   19.0356 H   0  0  0  0  0  0
  -23.9736  -27.2842   19.0396 H   0  0  0  0  0  0
  -23.7258  -30.5883   19.4006 H   0  0  0  0  0  0
  -22.7389  -29.2367   19.8694 H   0  0  0  0  0  0
  -25.1275  -36.1970   25.0842 H   0  0  0  0  0  0
  -20.9946  -28.3229   24.1437 H   0  0  0  0  0  0
  -20.5654  -26.2273   23.3597 H   0  0  0  0  0  0
  -21.6634  -26.7440   22.1212 H   0  0  0  0  0  0
  -19.6910  -25.6296   21.1225 H   0  0  0  0  0  0
  -19.6694  -27.3193   20.6730 H   0  0  0  0  0  0
  -17.4194  -26.6671   21.4008 H   0  0  0  0  0  0
  -18.0323  -26.0059   22.9011 H   0  0  0  0  0  0
  -19.7929  -30.7237   24.2282 H   0  0  0  0  0  0
  -17.5018  -31.6260   24.5149 H   0  0  0  0  0  0
  -15.5345  -30.2985   23.7643 H   0  0  0  0  0  0
  -15.8666  -28.0811   22.7079 H   0  0  0  0  0  0
  -24.5925  -30.7031   25.7814 H   0  0  0  0  0  0
  -24.8934  -32.2836   26.4940 H   0  0  0  0  0  0
  -25.8117  -30.8849   27.0214 H   0  0  0  0  0  0
  -26.2825  -29.6791   24.1161 H   0  0  0  0  0  0
  -27.4104  -29.7277   25.4528 H   0  0  0  0  0  0
  -27.8658  -30.4358   23.9203 H   0  0  0  0  0  0
  -27.2712  -33.3621   26.2036 H   0  0  0  0  0  0
  -28.3883  -32.6811   25.0279 H   0  0  0  0  0  0
  -28.0727  -31.8411   26.5382 H   0  0  0  0  0  0
  -28.2582  -38.0114   24.7542 H   0  0  0  0  0  0
  -28.1096  -36.2643   24.6239 H   0  0  0  0  0  0
  -27.2315  -37.1389   25.8870 H   0  0  0  0  0  0
  -20.9322  -29.8750   21.6934 H   0  0  0  0  0  0
  -26.0179  -38.2875   24.1427 H   0  0  0  0  0  0
  -29.7530  -19.3243   17.6480 H   0  0  0  0  0  0
  -27.8522  -17.4758   20.0605 H   0  0  0  0  0  0
  -28.4155  -17.9669   18.4996 H   0  0  0  0  0  0
  -30.5235  -18.8362   22.1421 H   0  0  0  0  0  0
  -28.9571  -18.0693   22.1214 H   0  0  0  0  0  0
  -30.4534  -16.5436   18.7335 H   0  0  0  0  0  0
  -28.9926  -15.6333   18.7420 H   0  0  0  0  0  0
  -30.6367  -16.3393   22.5349 H   0  0  0  0  0  0
  -31.6348  -16.9170   21.2326 H   0  0  0  0  0  0
  -30.6086  -18.7531   19.6613 H   0  0  0  0  0  0
  -30.3567  -19.3815   15.4648 H   0  0  0  0  0  0
  -31.2960  -20.7736   14.9445 H   0  0  0  0  0  0
  -29.5582  -20.6940   14.6104 H   0  0  0  0  0  0
  -30.2488  -22.9502   14.6227 H   0  0  0  0  0  0
  -31.5409  -23.6604   15.5895 H   0  0  0  0  0  0
  -29.9226  -24.3714   15.5675 H   0  0  0  0  0  0
  -30.9755  -24.9817   17.6007 H   0  0  0  0  0  0
  -30.3989  -24.8999   19.2268 H   0  0  0  0  0  0
  -29.2666  -25.2728   17.9079 H   0  0  0  0  0  0
  -29.3355  -25.3053   21.3341 H   0  0  0  0  0  0
  -27.6888  -25.5720   21.7714 H   0  0  0  0  0  0
  -27.6468  -24.2510   19.1708 H   0  0  0  0  0  0
  -27.0546  -23.6928   20.6829 H   0  0  0  0  0  0
  -28.9878  -20.5821   21.0254 H   0  0  0  0  0  0
  1 25  1  0  0  0
  1 30  2  0  0  0
  1 87  1  0  0  0
  2  3  1  0  0  0
  2 25  1  0  0  0
  2 90  1  0  0  0
  2 91  1  0  0  0
  3  4  1  0  0  0
  3 92  1  0  0  0
  3 93  1  0  0  0
  4  5  1  0  0  0
  4 94  1  0  0  0
  4 95  1  0  0  0
  5  6  1  0  0  0
  5 26  1  0  0  0
  5 96  1  0  0  0
  6 25  1  0  0  0
  6 97  1  0  0  0
  6 98  1  0  0  0
  7  8  2  0  0  0
  7 26  1  0  0  0
  7 29  1  0  0  0
  8  9  1  0  0  0
  8 22  1  0  0  0
  9 10  1  0  0  0
  9 27  2  0  0  0
 10 11  2  0  0  0
 10 15  1  0  0  0
 11 12  1  0  0  0
 11 99  1  0  0  0
 12 13  2  0  0  0
 12100  1  0  0  0
 13 14  1  0  0  0
 13 31  1  0  0  0
 14 15  2  0  0  0
 14101  1  0  0  0
 15102  1  0  0  0
 16 17  2  0  0  0
 16 21  1  0  0  0
 16 31  1  0  0  0
 17 18  1  0  0  0
 17103  1  0  0  0
 18 19  2  0  0  0
 18104  1  0  0  0
 19 20  1  0  0  0
 19 24  1  0  0  0
 20 21  2  0  0  0
 20105  1  0  0  0
 21 23  1  0  0  0
 22 28  1  0  0  0
 22 32  2  0  0  0
 26 27  1  0  0  0
 28106  1  0  0  0
 28107  1  0  0  0
 29108  1  0  0  0
 29109  1  0  0  0
 33 34  1  0  0  0
 33 66  1  0  0  0
 33 70  2  0  0  0
 34 36  1  0  0  0
 34 59  1  0  0  0
 34110  1  0  0  0
 35 44  2  0  0  0
 35 45  1  0  0  0
 35 68  1  0  0  0
 36 56  1  0  0  0
 36111  1  0  0  0
 37 39  1  0  0  0
 37 47  1  0  0  0
 37 66  1  0  0  0
 37112  1  0  0  0
 38 43  2  0  0  0
 38 46  1  0  0  0
 38 47  1  0  0  0
 39 64  1  0  0  0
 39 67  2  0  0  0
 40 52  1  0  0  0
 40 53  2  0  0  0
 40 58  1  0  0  0
 41113  1  0  0  0
 41114  1  0  0  0
 41115  1  0  0  0
 41 48  1  0  0  0
 42 43  1  0  0  0
 42 66  1  0  0  0
 42116  1  0  0  0
 42117  1  0  0  0
 43 44  1  0  0  0
 44118  1  0  0  0
 45 46  2  0  0  0
 45119  1  0  0  0
 46120  1  0  0  0
 47121  1  0  0  0
 47122  1  0  0  0
 48 56  1  0  0  0
 48 65  1  0  0  0
 48123  1  0  0  0
 49 50  1  0  0  0
 49 53  1  0  0  0
 49 64  1  0  0  0
 49124  1  0  0  0
 50 51  1  0  0  0
 50125  1  0  0  0
 50126  1  0  0  0
 51 52  1  0  0  0
 51127  1  0  0  0
 51128  1  0  0  0
 52129  1  0  0  0
 52130  1  0  0  0
 53 54  1  0  0  0
 54 55  2  0  0  0
 54131  1  0  0  0
 55 57  1  0  0  0
 55132  1  0  0  0
 56 69  2  0  0  0
 57 58  2  0  0  0
 57133  1  0  0  0
 58134  1  0  0  0
 59 60  1  0  0  0
 59 61  1  0  0  0
 59 62  1  0  0  0
 60135  1  0  0  0
 60136  1  0  0  0
 60137  1  0  0  0
 61138  1  0  0  0
 61139  1  0  0  0
 61140  1  0  0  0
 62141  1  0  0  0
 62142  1  0  0  0
 62143  1  0  0  0
 63 65  1  0  0  0
 63144  1  0  0  0
 63145  1  0  0  0
 63146  1  0  0  0
 64147  1  0  0  0
 65148  1  0  0  0
 68 85  1  0  0  0
 71 72  2  0  0  0
 71 75  1  0  0  0
 71149  1  0  0  0
 72 73  1  0  0  0
 72 82  1  0  0  0
 73 74  2  0  0  0
 73 83  1  0  0  0
 74 76  1  0  0  0
 74 84  1  0  0  0
 75 76  2  0  0  0
 75 88  1  0  0  0
 76 89  1  0  0  0
 77 79  1  0  0  0
 77 81  1  0  0  0
 77150  1  0  0  0
 77151  1  0  0  0
 78 80  1  0  0  0
 78 81  1  0  0  0
 78152  1  0  0  0
 78153  1  0  0  0
 79 87  1  0  0  0
 79154  1  0  0  0
 79155  1  0  0  0
 80 87  1  0  0  0
 80156  1  0  0  0
 80157  1  0  0  0
 81 88  1  0  0  0
 81158  1  0  0  0
 82159  1  0  0  0
 82160  1  0  0  0
 82161  1  0  0  0
 83162  1  0  0  0
 83163  1  0  0  0
 83164  1  0  0  0
 84165  1  0  0  0
 84166  1  0  0  0
 84167  1  0  0  0
 85 86  1  0  0  0
 85168  1  0  0  0
 85169  1  0  0  0
 86 89  1  0  0  0
 86170  1  0  0  0
 86171  1  0  0  0
 88172  1  0  0  0
M  ISO  4   1 100  68 101  85 101  87 100
M  END
> <chiral flag>
0

> <version>
0

> <s_m_source_file>
/data/baiqing/PycharmProjects/Reinvent-master-3.2/result/LINK_invent/BTK/process_docking_weight1_custom_sum_contain_oxygen_bond_distance_aromatic_linkinvent_7_9_3/rearranged_h_0164.sdf

> <i_m_source_file_index>
57

> <r_mmod_Potential_Energy-OPLS-2005>
240.908889770508

> <r_mmod_Stretch_Energy-OPLS-2005>
59.2342567443848

> <r_mmod_Bend_Energy-OPLS-2005>
139.727584838867

> <r_mmod_Torsional_Energy-OPLS-2005>
371.606292724609

> <r_mmod_Improper_Torsional_Energy-OPLS-2005>
13.1190557479858

> <r_mmod_Van_der_Waal_Energy-OPLS-2005>
170.306243896484

> <r_mmod_Electrostatic_Energy-OPLS-2005>
-341.600982666016

> <r_mmod_Solvation_Energy-OPLS-2005>
-201.058898925781

> <b_mmod_Minimization_Converged-OPLS-2005>
0

> <r_mmod_RMS_Derivative-OPLS-2005>
1.57235050201416

$$$$
57
                    3D
 Structure written by MMmdl.
178187  0  0  1  0            999 V2000
  -30.7110  -14.6718   20.4666 C   0  0  0  0  0  0
  -30.4141  -12.4228   19.4379 C   0  0  0  0  0  0
  -29.4815  -12.4831   18.2109 C   0  0  0  0  0  0
  -28.0154  -12.2734   18.6360 C   0  0  0  0  0  0
  -27.6195  -13.1758   19.8322 C   0  0  2  0  0  0
  -28.6870  -13.1830   20.9568 C   0  0  0  0  0  0
  -25.2483  -13.7936   20.5754 C   0  0  0  0  0  0
  -24.1759  -13.0261   20.9260 C   0  0  0  0  0  0
  -24.6302  -11.6727   20.8800 C   0  0  0  0  0  0
  -23.8975  -10.4168   21.0459 C   0  0  0  0  0  0
  -24.3557   -9.4103   21.9227 C   0  0  0  0  0  0
  -23.6241   -8.2144   22.0761 C   0  0  0  0  0  0
  -22.4232   -8.0187   21.3527 C   0  0  0  0  0  0
  -21.9854   -9.0145   20.4647 C   0  0  0  0  0  0
  -22.7162  -10.2031   20.3093 C   0  0  0  0  0  0
  -21.6814   -6.0707   22.5291 C   0  0  0  0  0  0
  -21.3974   -6.5629   23.8215 C   0  0  0  0  0  0
  -21.3648   -5.6790   24.9187 C   0  0  0  0  0  0
  -21.6033   -4.3049   24.7256 C   0  0  0  0  0  0
  -21.8830   -3.8145   23.4388 C   0  0  0  0  0  0
  -21.9188   -4.6950   22.3437 C   0  0  0  0  0  0
  -22.7812  -13.5139   21.1891 C   0  0  0  0  0  0
  -22.1674   -4.2144   21.1015 F   0  0  0  0  0  0
  -21.5635   -3.4535   25.7773 F   0  0  0  0  0  0
  -29.9944  -13.5013   20.3589 N   0  0  0  0  0  0
  -26.2834  -12.9033   20.3295 N   0  0  0  0  0  0
  -25.9209  -11.6230   20.5787 N   0  0  0  0  0  0
  -22.0442  -12.8154   22.0433 N   0  0  0  0  0  0
  -25.4114  -15.1658   20.4190 N   0  0  0  0  0  0
  -31.9164  -14.6812   20.2088 O   0  0  0  0  0  0
  -21.6589   -6.8805   21.4225 O   0  0  0  0  0  0
  -22.3574  -14.5489   20.6748 O   0  0  0  0  0  0
  -24.6243  -31.8604   23.2057 C   0  0  0  0  0  0
  -25.9102  -32.4761   23.8390 C   0  0  1  0  0  0
  -27.2306  -27.3496   20.1222 C   0  0  0  0  0  0
  -25.5928  -33.8574   24.2297 N   0  0  0  0  0  0
  -23.4166  -30.4840   21.5478 C   0  0  2  0  0  0
  -24.8636  -28.9392   20.1154 C   0  0  0  0  0  0
  -22.7472  -29.4628   22.4980 C   0  0  0  0  0  0
  -18.0265  -28.1378   22.8511 C   0  0  0  0  0  0
  -24.1474  -36.7270   23.2660 C   0  0  0  0  0  0
  -25.9537  -30.7961   21.3759 C   0  0  0  0  0  0
  -26.0290  -29.4280   20.7185 C   0  0  0  0  0  0
  -27.2172  -28.6453   20.7139 C   0  0  0  0  0  0
  -26.0473  -26.9091   19.4871 C   0  0  0  0  0  0
  -24.8728  -27.6821   19.4925 C   0  0  0  0  0  0
  -23.6309  -29.8168   20.1638 C   0  0  0  0  0  0
  -25.4106  -36.3072   24.0340 C   0  0  1  0  0  0
  -20.5869  -28.3672   23.1296 C   0  0  2  0  0  0
  -20.6747  -26.9402   22.5407 C   0  0  0  0  0  0
  -19.5720  -26.6373   21.5216 C   0  0  0  0  0  0
  -18.1898  -26.7930   22.1627 C   0  0  0  0  0  0
  -19.1525  -28.8845   23.2901 C   0  0  0  0  0  0
  -18.9459  -30.1451   23.8909 C   0  0  0  0  0  0
  -17.6452  -30.6586   24.0568 C   0  0  0  0  0  0
  -25.9049  -34.9439   23.5106 C   0  0  0  0  0  0
  -16.5342  -29.9075   23.6352 C   0  0  0  0  0  0
  -16.7256  -28.6493   23.0397 C   0  0  0  0  0  0
  -26.4514  -31.6598   25.0762 C   0  0  0  0  0  0
  -25.3766  -31.3641   26.1477 C   0  0  0  0  0  0
  -27.0419  -30.3068   24.6186 C   0  0  0  0  0  0
  -27.6058  -32.4374   25.7501 C   0  0  0  0  0  0
  -27.5568  -37.1777   24.8479 C   0  0  0  0  0  0
  -21.4188  -29.3034   22.3707 N   0  0  0  0  0  0
  -26.4274  -37.3781   23.9437 N   0  0  0  0  0  0
  -24.6825  -31.0624   22.1000 N   0  0  0  0  0  0
  -23.4199  -28.8170   23.3067 O   0  0  0  0  0  0
  -28.3536  -26.5212   20.1385 O   0  0  0  0  0  0
  -26.5608  -34.8911   22.4682 O   0  0  0  0  0  0
  -23.5417  -32.1391   23.7410 O   0  0  0  0  0  0
  -31.4315  -23.2364   19.7613 C   0  0  0  0  0  0
  -30.9462  -21.9165   19.5405 C   0  0  0  0  0  0
  -30.5475  -24.2802   20.1566 C   0  0  0  0  0  0
  -28.7447  -22.6326   20.3559 C   0  0  0  0  0  0
  -29.6088  -21.5683   19.8895 C   0  0  0  0  0  0
  -29.1700  -24.0137   20.3845 C   0  0  0  0  0  0
  -28.8362  -16.2563   20.0187 C   0  0  0  0  0  0
  -30.6204  -18.4297   20.6108 C   0  0  0  0  0  0
  -30.7378  -17.0510   21.3690 C   0  0  1  0  0  0
  -28.6258  -17.7003   19.4605 C   0  0  1  0  0  0
  -32.9101  -23.5687   19.5301 C   0  0  0  0  0  0
  -31.8689  -20.9083   18.8482 C   0  0  0  0  0  0
  -31.0755  -25.7092   20.3240 C   0  0  0  0  0  0
  -27.3160  -22.2922   20.7881 C   0  0  0  0  0  0
  -30.2754  -17.1689   22.8357 C   0  0  0  0  0  0
  -27.1145  -17.8685   19.1692 C   0  0  0  0  0  0
  -29.0304  -20.1527   19.4895 C   0  0  0  0  0  0
  -28.1650  -25.1823   20.7209 C   0  0  0  0  0  0
  -30.0729  -15.8809   20.7201 N   0  0  0  0  0  0
  -29.2309  -18.8317   20.2426 N   0  3  2  0  0  0
  -31.4505  -12.5313   19.1101 H   0  0  0  0  0  0
  -30.3593  -11.4513   19.9328 H   0  0  0  0  0  0
  -29.7673  -11.7328   17.4718 H   0  0  0  0  0  0
  -29.5857  -13.4476   17.7112 H   0  0  0  0  0  0
  -27.8879  -11.2205   18.8962 H   0  0  0  0  0  0
  -27.3529  -12.4536   17.7868 H   0  0  0  0  0  0
  -27.5273  -14.1476   19.3796 H   0  0  0  0  0  0
  -28.7295  -12.2170   21.4561 H   0  0  0  0  0  0
  -28.4270  -13.9126   21.7264 H   0  0  0  0  0  0
  -25.2701   -9.5576   22.4798 H   0  0  0  0  0  0
  -23.9953   -7.4534   22.7490 H   0  0  0  0  0  0
  -21.0784   -8.8639   19.8971 H   0  0  0  0  0  0
  -22.3612  -10.9573   19.6212 H   0  0  0  0  0  0
  -21.1937   -7.6131   23.9719 H   0  0  0  0  0  0
  -21.1450   -6.0525   25.9077 H   0  0  0  0  0  0
  -22.0631   -2.7613   23.2904 H   0  0  0  0  0  0
  -22.4001  -11.9784   22.4805 H   0  0  0  0  0  0
  -21.1070  -13.1192   22.2634 H   0  0  0  0  0  0
  -24.6203  -15.7901   20.5162 H   0  0  0  0  0  0
  -26.2373  -15.6180   20.0591 H   0  0  0  0  0  0
  -26.7166  -32.5442   23.1139 H   0  0  0  0  0  0
  -25.0141  -33.9738   25.0475 H   0  0  0  0  0  0
  -22.7094  -31.3037   21.4042 H   0  0  0  0  0  0
  -23.3765  -35.9575   23.3278 H   0  0  0  0  0  0
  -24.3574  -36.8946   22.2086 H   0  0  0  0  0  0
  -23.7170  -37.6432   23.6718 H   0  0  0  0  0  0
  -26.0905  -31.5620   20.6110 H   0  0  0  0  0  0
  -26.8319  -30.8392   22.0091 H   0  0  0  0  0  0
  -28.1119  -29.0118   21.1962 H   0  0  0  0  0  0
  -26.0195  -25.9515   18.9878 H   0  0  0  0  0  0
  -23.9809  -27.2992   19.0171 H   0  0  0  0  0  0
  -23.7525  -30.5934   19.4075 H   0  0  0  0  0  0
  -22.7494  -29.2493   19.8589 H   0  0  0  0  0  0
  -25.1290  -36.1916   25.0827 H   0  0  0  0  0  0
  -20.9964  -28.3210   24.1419 H   0  0  0  0  0  0
  -20.5655  -26.2283   23.3623 H   0  0  0  0  0  0
  -21.6616  -26.7419   22.1194 H   0  0  0  0  0  0
  -19.6868  -25.6279   21.1261 H   0  0  0  0  0  0
  -19.6651  -27.3189   20.6766 H   0  0  0  0  0  0
  -17.4180  -26.6752   21.4001 H   0  0  0  0  0  0
  -18.0250  -26.0032   22.8986 H   0  0  0  0  0  0
  -19.7935  -30.7287   24.2285 H   0  0  0  0  0  0
  -17.4994  -31.6270   24.5155 H   0  0  0  0  0  0
  -15.5347  -30.2978   23.7660 H   0  0  0  0  0  0
  -15.8667  -28.0790   22.7144 H   0  0  0  0  0  0
  -24.5984  -30.6932   25.7775 H   0  0  0  0  0  0
  -24.8894  -32.2762   26.4958 H   0  0  0  0  0  0
  -25.8136  -30.8795   27.0223 H   0  0  0  0  0  0
  -26.2991  -29.6723   24.1315 H   0  0  0  0  0  0
  -27.4296  -29.7394   25.4660 H   0  0  0  0  0  0
  -27.8767  -30.4423   23.9296 H   0  0  0  0  0  0
  -27.2665  -33.3705   26.2023 H   0  0  0  0  0  0
  -28.3869  -32.6904   25.0306 H   0  0  0  0  0  0
  -28.0726  -31.8546   26.5457 H   0  0  0  0  0  0
  -28.2557  -38.0104   24.7602 H   0  0  0  0  0  0
  -28.1095  -36.2643   24.6223 H   0  0  0  0  0  0
  -27.2300  -37.1314   25.8884 H   0  0  0  0  0  0
  -20.9368  -29.8770   21.6929 H   0  0  0  0  0  0
  -26.0141  -38.2841   24.1508 H   0  0  0  0  0  0
  -28.7919  -15.6497   19.1169 H   0  0  0  0  0  0
  -28.0115  -15.9930   20.6772 H   0  0  0  0  0  0
  -31.2123  -18.3373   19.7014 H   0  0  0  0  0  0
  -31.0854  -19.2200   21.1994 H   0  0  0  0  0  0
  -31.8084  -16.8493   21.4233 H   0  0  0  0  0  0
  -29.1350  -17.7135   18.4935 H   0  0  0  0  0  0
  -33.5462  -22.7258   19.2723 H   0  0  0  0  0  0
  -33.3495  -23.9822   20.4382 H   0  0  0  0  0  0
  -33.0118  -24.3015   18.7280 H   0  0  0  0  0  0
  -32.6124  -20.5230   19.5469 H   0  0  0  0  0  0
  -32.3911  -21.3771   18.0130 H   0  0  0  0  0  0
  -31.3706  -20.0637   18.3859 H   0  0  0  0  0  0
  -32.1546  -25.7941   20.4338 H   0  0  0  0  0  0
  -30.6622  -26.1711   21.2207 H   0  0  0  0  0  0
  -30.8045  -26.3188   19.4613 H   0  0  0  0  0  0
  -27.2699  -21.3200   21.2786 H   0  0  0  0  0  0
  -26.6370  -22.2818   19.9326 H   0  0  0  0  0  0
  -26.9129  -22.9841   21.5286 H   0  0  0  0  0  0
  -29.2135  -17.4018   22.9162 H   0  0  0  0  0  0
  -30.8266  -17.9535   23.3564 H   0  0  0  0  0  0
  -30.4518  -16.2440   23.3846 H   0  0  0  0  0  0
  -26.5376  -17.9788   20.0873 H   0  0  0  0  0  0
  -26.7253  -16.9932   18.6468 H   0  0  0  0  0  0
  -26.8812  -18.7110   18.5221 H   0  0  0  0  0  0
  -29.2803  -19.9959   18.4414 H   0  0  0  0  0  0
  -27.9589  -20.2984   19.4237 H   0  0  0  0  0  0
  -28.1633  -25.3052   21.8047 H   0  0  0  0  0  0
  -27.1658  -24.8389   20.4715 H   0  0  0  0  0  0
  -28.7316  -18.9201   21.1150 H   0  0  0  0  0  0
  1 25  1  0  0  0
  1 30  2  0  0  0
  1 89  1  0  0  0
  2  3  1  0  0  0
  2 25  1  0  0  0
  2 91  1  0  0  0
  2 92  1  0  0  0
  3  4  1  0  0  0
  3 93  1  0  0  0
  3 94  1  0  0  0
  4  5  1  0  0  0
  4 95  1  0  0  0
  4 96  1  0  0  0
  5  6  1  0  0  0
  5 26  1  0  0  0
  5 97  1  0  0  0
  6 25  1  0  0  0
  6 98  1  0  0  0
  6 99  1  0  0  0
  7  8  2  0  0  0
  7 26  1  0  0  0
  7 29  1  0  0  0
  8  9  1  0  0  0
  8 22  1  0  0  0
  9 10  1  0  0  0
  9 27  2  0  0  0
 10 11  2  0  0  0
 10 15  1  0  0  0
 11 12  1  0  0  0
 11100  1  0  0  0
 12 13  2  0  0  0
 12101  1  0  0  0
 13 14  1  0  0  0
 13 31  1  0  0  0
 14 15  2  0  0  0
 14102  1  0  0  0
 15103  1  0  0  0
 16 17  2  0  0  0
 16 21  1  0  0  0
 16 31  1  0  0  0
 17 18  1  0  0  0
 17104  1  0  0  0
 18 19  2  0  0  0
 18105  1  0  0  0
 19 20  1  0  0  0
 19 24  1  0  0  0
 20 21  2  0  0  0
 20106  1  0  0  0
 21 23  1  0  0  0
 22 28  1  0  0  0
 22 32  2  0  0  0
 26 27  1  0  0  0
 28107  1  0  0  0
 28108  1  0  0  0
 29109  1  0  0  0
 29110  1  0  0  0
 33 34  1  0  0  0
 33 66  1  0  0  0
 33 70  2  0  0  0
 34 36  1  0  0  0
 34 59  1  0  0  0
 34111  1  0  0  0
 35 44  2  0  0  0
 35 45  1  0  0  0
 35 68  1  0  0  0
 36 56  1  0  0  0
 36112  1  0  0  0
 37 39  1  0  0  0
 37 47  1  0  0  0
 37 66  1  0  0  0
 37113  1  0  0  0
 38 43  2  0  0  0
 38 46  1  0  0  0
 38 47  1  0  0  0
 39 64  1  0  0  0
 39 67  2  0  0  0
 40 52  1  0  0  0
 40 53  2  0  0  0
 40 58  1  0  0  0
 41114  1  0  0  0
 41115  1  0  0  0
 41116  1  0  0  0
 41 48  1  0  0  0
 42 43  1  0  0  0
 42 66  1  0  0  0
 42117  1  0  0  0
 42118  1  0  0  0
 43 44  1  0  0  0
 44119  1  0  0  0
 45 46  2  0  0  0
 45120  1  0  0  0
 46121  1  0  0  0
 47122  1  0  0  0
 47123  1  0  0  0
 48 56  1  0  0  0
 48 65  1  0  0  0
 48124  1  0  0  0
 49 50  1  0  0  0
 49 53  1  0  0  0
 49 64  1  0  0  0
 49125  1  0  0  0
 50 51  1  0  0  0
 50126  1  0  0  0
 50127  1  0  0  0
 51 52  1  0  0  0
 51128  1  0  0  0
 51129  1  0  0  0
 52130  1  0  0  0
 52131  1  0  0  0
 53 54  1  0  0  0
 54 55  2  0  0  0
 54132  1  0  0  0
 55 57  1  0  0  0
 55133  1  0  0  0
 56 69  2  0  0  0
 57 58  2  0  0  0
 57134  1  0  0  0
 58135  1  0  0  0
 59 60  1  0  0  0
 59 61  1  0  0  0
 59 62  1  0  0  0
 60136  1  0  0  0
 60137  1  0  0  0
 60138  1  0  0  0
 61139  1  0  0  0
 61140  1  0  0  0
 61141  1  0  0  0
 62142  1  0  0  0
 62143  1  0  0  0
 62144  1  0  0  0
 63 65  1  0  0  0
 63145  1  0  0  0
 63146  1  0  0  0
 63147  1  0  0  0
 64148  1  0  0  0
 65149  1  0  0  0
 68 88  1  0  0  0
 71 72  2  0  0  0
 71 73  1  0  0  0
 71 81  1  0  0  0
 72 75  1  0  0  0
 72 82  1  0  0  0
 73 76  2  0  0  0
 73 83  1  0  0  0
 74 75  2  0  0  0
 74 76  1  0  0  0
 74 84  1  0  0  0
 75 87  1  0  0  0
 76 88  1  0  0  0
 77 80  1  0  0  0
 77 89  1  0  0  0
 77150  1  0  0  0
 77151  1  0  0  0
 78 79  1  0  0  0
 78 90  1  0  0  0
 78152  1  0  0  0
 78153  1  0  0  0
 79 85  1  0  0  0
 79 89  1  0  0  0
 79154  1  0  0  0
 80 86  1  0  0  0
 80 90  1  0  0  0
 80155  1  0  0  0
 81156  1  0  0  0
 81157  1  0  0  0
 81158  1  0  0  0
 82159  1  0  0  0
 82160  1  0  0  0
 82161  1  0  0  0
 83162  1  0  0  0
 83163  1  0  0  0
 83164  1  0  0  0
 84165  1  0  0  0
 84166  1  0  0  0
 84167  1  0  0  0
 85168  1  0  0  0
 85169  1  0  0  0
 85170  1  0  0  0
 86171  1  0  0  0
 86172  1  0  0  0
 86173  1  0  0  0
 87174  1  0  0  0
 87175  1  0  0  0
 87 90  1  0  0  0
 88176  1  0  0  0
 88177  1  0  0  0
 90178  1  0  0  0
M  CHG  1  90   1
M  ISO  4   1 100  68 101  88 101  89 100
M  END
> <chiral flag>
0

> <version>
0

> <s_m_source_file>
/data/baiqing/PycharmProjects/Reinvent-master-3.2/result/LINK_invent/BTK/process_docking_weight1_custom_sum_contain_oxygen_bond_distance_aromatic_linkinvent_7_9_3/rearranged_h_0164.sdf

> <i_m_source_file_index>
58

> <r_mmod_Potential_Energy-OPLS-2005>
307.83447265625

> <r_mmod_Stretch_Energy-OPLS-2005>
91.5677871704102

> <r_mmod_Bend_Energy-OPLS-2005>
187.071182250977

> <r_mmod_Torsional_Energy-OPLS-2005>
420.255462646484

> <r_mmod_Improper_Torsional_Energy-OPLS-2005>
5.78896951675415

> <r_mmod_Van_der_Waal_Energy-OPLS-2005>
189.214019775391

> <r_mmod_Electrostatic_Energy-OPLS-2005>
-230.578628540039

> <r_mmod_Solvation_Energy-OPLS-2005>
-414.059844970703

> <b_mmod_Minimization_Converged-OPLS-2005>
0

> <r_mmod_RMS_Derivative-OPLS-2005>
4.66875982284546

$$$$
58
                    3D
 Structure written by MMmdl.
173182  0  0  1  0            999 V2000
  -30.6615  -14.5912   20.4985 C   0  0  0  0  0  0
  -30.4257  -12.3619   19.4481 C   0  0  0  0  0  0
  -29.5024  -12.4981   18.2184 C   0  0  0  0  0  0
  -28.0233  -12.3488   18.6292 C   0  0  0  0  0  0
  -27.6516  -13.2150   19.8634 C   0  0  2  0  0  0
  -28.6961  -13.0577   20.9897 C   0  0  0  0  0  0
  -25.2552  -13.8168   20.5683 C   0  0  0  0  0  0
  -24.1816  -13.0440   20.9186 C   0  0  0  0  0  0
  -24.6382  -11.6909   20.8739 C   0  0  0  0  0  0
  -23.9050  -10.4295   21.0406 C   0  0  0  0  0  0
  -24.3605   -9.4213   21.9184 C   0  0  0  0  0  0
  -23.6284   -8.2246   22.0755 C   0  0  0  0  0  0
  -22.4266   -8.0280   21.3544 C   0  0  0  0  0  0
  -21.9897   -9.0254   20.4651 C   0  0  0  0  0  0
  -22.7222  -10.2136   20.3059 C   0  0  0  0  0  0
  -21.6852   -6.0729   22.5274 C   0  0  0  0  0  0
  -21.4017   -6.5633   23.8207 C   0  0  0  0  0  0
  -21.3664   -5.6786   24.9170 C   0  0  0  0  0  0
  -21.6046   -4.3049   24.7223 C   0  0  0  0  0  0
  -21.8822   -3.8139   23.4345 C   0  0  0  0  0  0
  -21.9195   -4.6956   22.3400 C   0  0  0  0  0  0
  -22.7843  -13.5240   21.1845 C   0  0  0  0  0  0
  -22.1663   -4.2142   21.0979 F   0  0  0  0  0  0
  -21.5629   -3.4532   25.7737 F   0  0  0  0  0  0
  -30.0090  -13.3901   20.4209 N   0  0  0  0  0  0
  -26.2979  -12.9349   20.3327 N   0  0  0  0  0  0
  -25.9310  -11.6504   20.5758 N   0  0  0  0  0  0
  -22.0477  -12.8243   22.0408 N   0  0  0  0  0  0
  -25.4269  -15.1884   20.4085 N   0  0  0  0  0  0
  -31.8406  -14.6901   20.1435 O   0  0  0  0  0  0
  -21.6638   -6.8871   21.4235 O   0  0  0  0  0  0
  -22.3532  -14.5543   20.6687 O   0  0  0  0  0  0
  -24.6216  -31.8625   23.2055 C   0  0  0  0  0  0
  -25.9079  -32.4792   23.8368 C   0  0  1  0  0  0
  -27.2271  -27.3588   20.0937 C   0  0  0  0  0  0
  -25.5911  -33.8594   24.2294 N   0  0  0  0  0  0
  -23.4122  -30.4869   21.5484 C   0  0  2  0  0  0
  -24.8556  -28.9468   20.1116 C   0  0  0  0  0  0
  -22.7446  -29.4631   22.4963 C   0  0  0  0  0  0
  -18.0277  -28.1375   22.8488 C   0  0  0  0  0  0
  -24.1489  -36.7303   23.2638 C   0  0  0  0  0  0
  -25.9496  -30.8038   21.3708 C   0  0  0  0  0  0
  -26.0218  -29.4343   20.7124 C   0  0  0  0  0  0
  -27.2057  -28.6475   20.7009 C   0  0  0  0  0  0
  -26.0265  -26.9004   19.5016 C   0  0  0  0  0  0
  -24.8566  -27.6822   19.5045 C   0  0  0  0  0  0
  -23.6226  -29.8230   20.1624 C   0  0  0  0  0  0
  -25.4111  -36.3091   24.0332 C   0  0  1  0  0  0
  -20.5874  -28.3670   23.1301 C   0  0  2  0  0  0
  -20.6765  -26.9398   22.5417 C   0  0  0  0  0  0
  -19.5746  -26.6377   21.5211 C   0  0  0  0  0  0
  -18.1923  -26.7919   22.1620 C   0  0  0  0  0  0
  -19.1528  -28.8839   23.2892 C   0  0  0  0  0  0
  -18.9455  -30.1444   23.8903 C   0  0  0  0  0  0
  -17.6456  -30.6582   24.0559 C   0  0  0  0  0  0
  -25.9043  -34.9460   23.5113 C   0  0  0  0  0  0
  -16.5346  -29.9078   23.6328 C   0  0  0  0  0  0
  -16.7267  -28.6493   23.0350 C   0  0  0  0  0  0
  -26.4481  -31.6594   25.0726 C   0  0  0  0  0  0
  -25.3730  -31.3730   26.1469 C   0  0  0  0  0  0
  -27.0307  -30.3018   24.6154 C   0  0  0  0  0  0
  -27.6055  -32.4319   25.7487 C   0  0  0  0  0  0
  -27.5582  -37.1802   24.8461 C   0  0  0  0  0  0
  -21.4164  -29.3032   22.3706 N   0  0  0  0  0  0
  -26.4291  -37.3782   23.9409 N   0  0  0  0  0  0
  -24.6799  -31.0669   22.0990 N   0  0  0  0  0  0
  -23.4190  -28.8166   23.3022 O   0  0  0  0  0  0
  -28.3833  -26.5769   20.1458 O   0  0  0  0  0  0
  -26.5610  -34.8922   22.4677 O   0  0  0  0  0  0
  -23.5391  -32.1412   23.7409 O   0  0  0  0  0  0
  -29.9868  -23.8357   20.8694 C   0  0  0  0  0  0
  -28.8931  -24.0120   19.9747 C   0  0  0  0  0  0
  -30.3193  -22.5206   21.3481 C   0  0  0  0  0  0
  -28.2156  -22.8190   19.5874 C   0  0  0  0  0  0
  -29.6006  -21.3970   20.8398 C   0  0  0  0  0  0
  -29.4914  -17.7491   21.9713 C   0  0  0  0  0  0
  -30.3008  -18.1146   19.6665 C   0  0  0  0  0  0
  -29.1228  -16.2712   21.6213 C   0  0  0  0  0  0
  -29.8817  -16.6528   19.3243 C   0  0  0  0  0  0
  -29.4511  -18.7567   20.7872 C   0  0  0  0  0  0
  -30.8319  -25.0432   21.2765 C   0  0  0  0  0  0
  -27.0420  -22.8436   18.6249 C   0  0  0  0  0  0
  -32.7123  -21.6842   21.7788 C   0  0  0  0  0  0
  -31.0083  -21.6775   23.6994 C   0  0  0  0  0  0
  -28.5642  -25.3941   19.3026 C   0  0  0  0  0  0
  -31.4580  -22.3401   22.3821 C   0  0  0  0  0  0
  -28.5665  -21.5672   19.9937 N   0  0  0  0  0  0
  -29.8724  -15.7184   20.4758 N   0  0  0  0  0  0
  -29.9742  -20.0774   21.2106 N   0  0  0  0  0  0
  -31.4702  -12.4642   19.1481 H   0  0  0  0  0  0
  -30.3401  -11.3667   19.8869 H   0  0  0  0  0  0
  -29.7595  -11.7481   17.4692 H   0  0  0  0  0  0
  -29.6575  -13.4691   17.7447 H   0  0  0  0  0  0
  -27.8509  -11.2954   18.8529 H   0  0  0  0  0  0
  -27.3710  -12.5906   17.7896 H   0  0  0  0  0  0
  -27.6730  -14.2523   19.5304 H   0  0  0  0  0  0
  -28.6994  -12.0347   21.3685 H   0  0  0  0  0  0
  -28.4472  -13.6848   21.8436 H   0  0  0  0  0  0
  -25.2755   -9.5691   22.4752 H   0  0  0  0  0  0
  -23.9998   -7.4640   22.7471 H   0  0  0  0  0  0
  -21.0828   -8.8772   19.8958 H   0  0  0  0  0  0
  -22.3682  -10.9670   19.6162 H   0  0  0  0  0  0
  -21.2011   -7.6141   23.9706 H   0  0  0  0  0  0
  -21.1482   -6.0517   25.9070 H   0  0  0  0  0  0
  -22.0600   -2.7601   23.2846 H   0  0  0  0  0  0
  -22.4082  -11.9910   22.4811 H   0  0  0  0  0  0
  -21.1099  -13.1284   22.2609 H   0  0  0  0  0  0
  -24.6617  -15.8450   20.5172 H   0  0  0  0  0  0
  -26.2818  -15.6242   20.0874 H   0  0  0  0  0  0
  -26.7143  -32.5466   23.1116 H   0  0  0  0  0  0
  -25.0057  -33.9744   25.0437 H   0  0  0  0  0  0
  -22.7035  -31.3060   21.4090 H   0  0  0  0  0  0
  -23.3749  -35.9637   23.3301 H   0  0  0  0  0  0
  -24.3586  -36.8920   22.2054 H   0  0  0  0  0  0
  -23.7247  -37.6508   23.6659 H   0  0  0  0  0  0
  -26.0767  -31.5697   20.6043 H   0  0  0  0  0  0
  -26.8319  -30.8507   21.9975 H   0  0  0  0  0  0
  -28.1028  -29.0192   21.1761 H   0  0  0  0  0  0
  -25.9405  -25.9215   19.0596 H   0  0  0  0  0  0
  -23.9547  -27.2939   19.0513 H   0  0  0  0  0  0
  -23.7380  -30.5997   19.4056 H   0  0  0  0  0  0
  -22.7431  -29.2499   19.8632 H   0  0  0  0  0  0
  -25.1289  -36.1948   25.0824 H   0  0  0  0  0  0
  -20.9963  -28.3237   24.1424 H   0  0  0  0  0  0
  -20.5660  -26.2275   23.3608 H   0  0  0  0  0  0
  -21.6638  -26.7429   22.1220 H   0  0  0  0  0  0
  -19.6908  -25.6289   21.1236 H   0  0  0  0  0  0
  -19.6686  -27.3191   20.6743 H   0  0  0  0  0  0
  -17.4195  -26.6673   21.4018 H   0  0  0  0  0  0
  -18.0318  -26.0057   22.9012 H   0  0  0  0  0  0
  -19.7931  -30.7256   24.2277 H   0  0  0  0  0  0
  -17.5012  -31.6264   24.5154 H   0  0  0  0  0  0
  -15.5347  -30.2980   23.7649 H   0  0  0  0  0  0
  -15.8667  -28.0813   22.7067 H   0  0  0  0  0  0
  -24.5904  -30.7071   25.7819 H   0  0  0  0  0  0
  -24.8919  -32.2893   26.4898 H   0  0  0  0  0  0
  -25.8070  -30.8919   27.0243 H   0  0  0  0  0  0
  -26.2863  -29.6785   24.1185 H   0  0  0  0  0  0
  -27.4020  -29.7259   25.4642 H   0  0  0  0  0  0
  -27.8731  -30.4310   23.9353 H   0  0  0  0  0  0
  -27.2677  -33.3617   26.2078 H   0  0  0  0  0  0
  -28.3854  -32.6880   25.0304 H   0  0  0  0  0  0
  -28.0734  -31.8434   26.5390 H   0  0  0  0  0  0
  -28.2600  -38.0099   24.7508 H   0  0  0  0  0  0
  -28.1074  -36.2630   24.6278 H   0  0  0  0  0  0
  -27.2304  -37.1448   25.8865 H   0  0  0  0  0  0
  -20.9326  -29.8764   21.6936 H   0  0  0  0  0  0
  -26.0175  -38.2857   24.1409 H   0  0  0  0  0  0
  -30.4937  -17.7466   22.4030 H   0  0  0  0  0  0
  -28.8299  -18.0989   22.7652 H   0  0  0  0  0  0
  -30.2367  -18.7272   18.7663 H   0  0  0  0  0  0
  -31.3528  -18.1147   19.9567 H   0  0  0  0  0  0
  -28.0587  -16.2059   21.3942 H   0  0  0  0  0  0
  -29.2857  -15.6576   22.5083 H   0  0  0  0  0  0
  -30.5255  -16.2742   18.5275 H   0  0  0  0  0  0
  -28.8761  -16.6597   18.9019 H   0  0  0  0  0  0
  -28.4216  -18.8721   20.4445 H   0  0  0  0  0  0
  -30.6719  -25.9272   20.6662 H   0  0  0  0  0  0
  -31.8944  -24.8231   21.1725 H   0  0  0  0  0  0
  -30.6298  -25.3193   22.3115 H   0  0  0  0  0  0
  -26.2692  -23.5263   18.9771 H   0  0  0  0  0  0
  -26.5849  -21.8588   18.5220 H   0  0  0  0  0  0
  -27.3669  -23.1610   17.6340 H   0  0  0  0  0  0
  -33.0674  -22.2473   20.9151 H   0  0  0  0  0  0
  -32.5456  -20.6580   21.4552 H   0  0  0  0  0  0
  -33.5259  -21.6640   22.5049 H   0  0  0  0  0  0
  -30.1715  -22.2200   24.1408 H   0  0  0  0  0  0
  -31.8181  -21.6916   24.4300 H   0  0  0  0  0  0
  -30.7061  -20.6380   23.5929 H   0  0  0  0  0  0
  -27.8073  -25.2938   18.5328 H   0  0  0  0  0  0
  -29.4463  -25.6218   18.7038 H   0  0  0  0  0  0
  -31.7944  -23.3140   22.7249 H   0  0  0  0  0  0
  -30.7532  -20.0396   21.8549 H   0  0  0  0  0  0
  1 25  1  0  0  0
  1 30  2  0  0  0
  1 88  1  0  0  0
  2  3  1  0  0  0
  2 25  1  0  0  0
  2 90  1  0  0  0
  2 91  1  0  0  0
  3  4  1  0  0  0
  3 92  1  0  0  0
  3 93  1  0  0  0
  4  5  1  0  0  0
  4 94  1  0  0  0
  4 95  1  0  0  0
  5  6  1  0  0  0
  5 26  1  0  0  0
  5 96  1  0  0  0
  6 25  1  0  0  0
  6 97  1  0  0  0
  6 98  1  0  0  0
  7  8  2  0  0  0
  7 26  1  0  0  0
  7 29  1  0  0  0
  8  9  1  0  0  0
  8 22  1  0  0  0
  9 10  1  0  0  0
  9 27  2  0  0  0
 10 11  2  0  0  0
 10 15  1  0  0  0
 11 12  1  0  0  0
 11 99  1  0  0  0
 12 13  2  0  0  0
 12100  1  0  0  0
 13 14  1  0  0  0
 13 31  1  0  0  0
 14 15  2  0  0  0
 14101  1  0  0  0
 15102  1  0  0  0
 16 17  2  0  0  0
 16 21  1  0  0  0
 16 31  1  0  0  0
 17 18  1  0  0  0
 17103  1  0  0  0
 18 19  2  0  0  0
 18104  1  0  0  0
 19 20  1  0  0  0
 19 24  1  0  0  0
 20 21  2  0  0  0
 20105  1  0  0  0
 21 23  1  0  0  0
 22 28  1  0  0  0
 22 32  2  0  0  0
 26 27  1  0  0  0
 28106  1  0  0  0
 28107  1  0  0  0
 29108  1  0  0  0
 29109  1  0  0  0
 33 34  1  0  0  0
 33 66  1  0  0  0
 33 70  2  0  0  0
 34 36  1  0  0  0
 34 59  1  0  0  0
 34110  1  0  0  0
 35 44  2  0  0  0
 35 45  1  0  0  0
 35 68  1  0  0  0
 36 56  1  0  0  0
 36111  1  0  0  0
 37 39  1  0  0  0
 37 47  1  0  0  0
 37 66  1  0  0  0
 37112  1  0  0  0
 38 43  2  0  0  0
 38 46  1  0  0  0
 38 47  1  0  0  0
 39 64  1  0  0  0
 39 67  2  0  0  0
 40 52  1  0  0  0
 40 53  2  0  0  0
 40 58  1  0  0  0
 41113  1  0  0  0
 41114  1  0  0  0
 41115  1  0  0  0
 41 48  1  0  0  0
 42 43  1  0  0  0
 42 66  1  0  0  0
 42116  1  0  0  0
 42117  1  0  0  0
 43 44  1  0  0  0
 44118  1  0  0  0
 45 46  2  0  0  0
 45119  1  0  0  0
 46120  1  0  0  0
 47121  1  0  0  0
 47122  1  0  0  0
 48 56  1  0  0  0
 48 65  1  0  0  0
 48123  1  0  0  0
 49 50  1  0  0  0
 49 53  1  0  0  0
 49 64  1  0  0  0
 49124  1  0  0  0
 50 51  1  0  0  0
 50125  1  0  0  0
 50126  1  0  0  0
 51 52  1  0  0  0
 51127  1  0  0  0
 51128  1  0  0  0
 52129  1  0  0  0
 52130  1  0  0  0
 53 54  1  0  0  0
 54 55  2  0  0  0
 54131  1  0  0  0
 55 57  1  0  0  0
 55132  1  0  0  0
 56 69  2  0  0  0
 57 58  2  0  0  0
 57133  1  0  0  0
 58134  1  0  0  0
 59 60  1  0  0  0
 59 61  1  0  0  0
 59 62  1  0  0  0
 60135  1  0  0  0
 60136  1  0  0  0
 60137  1  0  0  0
 61138  1  0  0  0
 61139  1  0  0  0
 61140  1  0  0  0
 62141  1  0  0  0
 62142  1  0  0  0
 62143  1  0  0  0
 63 65  1  0  0  0
 63144  1  0  0  0
 63145  1  0  0  0
 63146  1  0  0  0
 64147  1  0  0  0
 65148  1  0  0  0
 68 85  1  0  0  0
 71 72  2  0  0  0
 71 73  1  0  0  0
 71 81  1  0  0  0
 72 74  1  0  0  0
 72 85  1  0  0  0
 73 75  2  0  0  0
 73 86  1  0  0  0
 74 82  1  0  0  0
 74 87  2  0  0  0
 75 87  1  0  0  0
 75 89  1  0  0  0
 76 78  1  0  0  0
 76 80  1  0  0  0
 76149  1  0  0  0
 76150  1  0  0  0
 77 79  1  0  0  0
 77 80  1  0  0  0
 77151  1  0  0  0
 77152  1  0  0  0
 78 88  1  0  0  0
 78153  1  0  0  0
 78154  1  0  0  0
 79 88  1  0  0  0
 79155  1  0  0  0
 79156  1  0  0  0
 80 89  1  0  0  0
 80157  1  0  0  0
 81158  1  0  0  0
 81159  1  0  0  0
 81160  1  0  0  0
 82161  1  0  0  0
 82162  1  0  0  0
 82163  1  0  0  0
 83164  1  0  0  0
 83165  1  0  0  0
 83166  1  0  0  0
 83 86  1  0  0  0
 84 86  1  0  0  0
 84167  1  0  0  0
 84168  1  0  0  0
 84169  1  0  0  0
 85170  1  0  0  0
 85171  1  0  0  0
 86172  1  0  0  0
 89173  1  0  0  0
M  ISO  4   1 100  68 101  85 101  88 100
M  END
> <chiral flag>
0

> <version>
0

> <s_m_source_file>
/data/baiqing/PycharmProjects/Reinvent-master-3.2/result/LINK_invent/BTK/process_docking_weight1_custom_sum_contain_oxygen_bond_distance_aromatic_linkinvent_7_9_3/rearranged_h_0164.sdf

> <i_m_source_file_index>
59

> <r_mmod_Potential_Energy-OPLS-2005>
87.7358474731445

> <r_mmod_Stretch_Energy-OPLS-2005>
67.2255477905273

> <r_mmod_Bend_Energy-OPLS-2005>
163.394943237305

> <r_mmod_Torsional_Energy-OPLS-2005>
324.888397216797

> <r_mmod_Improper_Torsional_Energy-OPLS-2005>
17.2284660339355

> <r_mmod_Van_der_Waal_Energy-OPLS-2005>
160.698959350586

> <r_mmod_Electrostatic_Energy-OPLS-2005>
-464.294403076172

> <r_mmod_Solvation_Energy-OPLS-2005>
-215.021301269531

> <b_mmod_Minimization_Converged-OPLS-2005>
0

> <r_mmod_RMS_Derivative-OPLS-2005>
0.724974036216736

$$$$
59
                    3D
 Structure written by MMmdl.
175184  0  0  1  0            999 V2000
  -30.7413  -14.3921   20.6100 C   0  0  0  0  0  0
  -30.4091  -12.2687   19.4167 C   0  0  0  0  0  0
  -29.4860  -12.5049   18.2048 C   0  0  0  0  0  0
  -28.0082  -12.3726   18.6181 C   0  0  0  0  0  0
  -27.6649  -13.2038   19.8830 C   0  0  2  0  0  0
  -28.7026  -12.9596   21.0033 C   0  0  0  0  0  0
  -25.2604  -13.8170   20.5681 C   0  0  0  0  0  0
  -24.1840  -13.0444   20.9164 C   0  0  0  0  0  0
  -24.6383  -11.6910   20.8727 C   0  0  0  0  0  0
  -23.9051  -10.4292   21.0400 C   0  0  0  0  0  0
  -24.3604   -9.4209   21.9182 C   0  0  0  0  0  0
  -23.6283   -8.2241   22.0752 C   0  0  0  0  0  0
  -22.4270   -8.0273   21.3540 C   0  0  0  0  0  0
  -21.9903   -9.0246   20.4645 C   0  0  0  0  0  0
  -22.7224  -10.2129   20.3054 C   0  0  0  0  0  0
  -21.6857   -6.0729   22.5278 C   0  0  0  0  0  0
  -21.4013   -6.5635   23.8209 C   0  0  0  0  0  0
  -21.3660   -5.6793   24.9175 C   0  0  0  0  0  0
  -21.6047   -4.3054   24.7230 C   0  0  0  0  0  0
  -21.8819   -3.8142   23.4352 C   0  0  0  0  0  0
  -21.9192   -4.6955   22.3407 C   0  0  0  0  0  0
  -22.7869  -13.5243   21.1833 C   0  0  0  0  0  0
  -22.1661   -4.2139   21.0985 F   0  0  0  0  0  0
  -21.5629   -3.4541   25.7744 F   0  0  0  0  0  0
  -30.0419  -13.2389   20.4587 N   0  0  0  0  0  0
  -26.3036  -12.9327   20.3404 N   0  0  0  0  0  0
  -25.9311  -11.6488   20.5786 N   0  0  0  0  0  0
  -22.0519  -12.8224   22.0388 N   0  0  0  0  0  0
  -25.4362  -15.1878   20.4087 N   0  0  0  0  0  0
  -31.8348  -14.5875   20.0718 O   0  0  0  0  0  0
  -21.6638   -6.8868   21.4237 O   0  0  0  0  0  0
  -22.3548  -14.5545   20.6690 O   0  0  0  0  0  0
  -24.6098  -31.8705   23.2144 C   0  0  0  0  0  0
  -25.9008  -32.4836   23.8426 C   0  0  1  0  0  0
  -27.2393  -27.4763   20.0931 C   0  0  0  0  0  0
  -25.5883  -33.8636   24.2358 N   0  0  0  0  0  0
  -23.3972  -30.4926   21.5529 C   0  0  2  0  0  0
  -24.8463  -28.9595   20.1196 C   0  0  0  0  0  0
  -22.7384  -29.4652   22.5002 C   0  0  0  0  0  0
  -18.0260  -28.1359   22.8484 C   0  0  0  0  0  0
  -24.1481  -36.7319   23.2637 C   0  0  0  0  0  0
  -25.9201  -30.8463   21.3642 C   0  0  0  0  0  0
  -26.0000  -29.4806   20.7186 C   0  0  0  0  0  0
  -27.2015  -28.7427   20.7118 C   0  0  0  0  0  0
  -26.0776  -26.9595   19.4867 C   0  0  0  0  0  0
  -24.8760  -27.6944   19.5044 C   0  0  0  0  0  0
  -23.6069  -29.8231   20.1673 C   0  0  0  0  0  0
  -25.4099  -36.3123   24.0340 C   0  0  1  0  0  0
  -20.5849  -28.3645   23.1323 C   0  0  2  0  0  0
  -20.6757  -26.9386   22.5416 C   0  0  0  0  0  0
  -19.5743  -26.6377   21.5198 C   0  0  0  0  0  0
  -18.1914  -26.7909   22.1605 C   0  0  0  0  0  0
  -19.1509  -28.8817   23.2905 C   0  0  0  0  0  0
  -18.9449  -30.1428   23.8911 C   0  0  0  0  0  0
  -17.6457  -30.6582   24.0554 C   0  0  0  0  0  0
  -25.9016  -34.9484   23.5147 C   0  0  0  0  0  0
  -16.5341  -29.9085   23.6319 C   0  0  0  0  0  0
  -16.7255  -28.6494   23.0344 C   0  0  0  0  0  0
  -26.4471  -31.6601   25.0726 C   0  0  0  0  0  0
  -25.3767  -31.3679   26.1499 C   0  0  0  0  0  0
  -27.0306  -30.3055   24.6053 C   0  0  0  0  0  0
  -27.6055  -32.4323   25.7479 C   0  0  0  0  0  0
  -27.5582  -37.1813   24.8465 C   0  0  0  0  0  0
  -21.4115  -29.3023   22.3742 N   0  0  0  0  0  0
  -26.4293  -37.3801   23.9406 N   0  0  0  0  0  0
  -24.6600  -31.0832   22.1032 N   0  0  0  0  0  0
  -23.4177  -28.8191   23.3020 O   0  0  0  0  0  0
  -28.4037  -26.7591   20.0271 O   0  0  0  0  0  0
  -26.5574  -34.8925   22.4707 O   0  0  0  0  0  0
  -23.5302  -32.1440   23.7561 O   0  0  0  0  0  0
  -28.7887  -19.7012   19.5790 C   0  0  0  0  0  0
  -29.2493  -17.0050   18.8378 C   0  0  0  0  0  0
  -29.4674  -18.8278   20.4461 C   0  0  0  0  0  0
  -29.7111  -17.5135   20.0665 C   0  0  0  0  0  0
  -28.3060  -19.2142   18.3428 C   0  0  0  0  0  0
  -28.5292  -17.8609   17.9741 C   0  0  0  0  0  0
  -30.2435  -17.6624   22.3772 C   0  0  0  0  0  0
  -30.0353  -19.1018   21.8266 C   0  0  2  0  0  0
  -30.4882  -16.7813   21.1324 C   0  0  1  0  0  0
  -27.5441  -20.1583   17.4290 C   0  0  0  0  0  0
  -28.0069  -17.3162   16.6560 C   0  0  0  0  0  0
  -30.9739  -21.9000   22.4438 C   0  0  0  0  0  0
  -29.2024  -20.0088   22.7804 C   0  0  0  0  0  0
  -28.1725  -24.7228   21.2970 C   0  0  0  0  0  0
  -28.4625  -22.4356   22.2298 C   0  0  0  0  0  0
  -28.7909  -26.1295   21.2441 C   0  0  0  0  0  0
  -29.5368  -21.5320   22.8802 C   0  0  2  0  0  0
  -30.1072  -15.3754   21.2635 N   0  0  0  0  0  0
  -28.8046  -23.8701   22.3321 N   0  3  0  0  0  0
  -31.4559  -12.3444   19.1170 H   0  0  0  0  0  0
  -30.2854  -11.2536   19.7975 H   0  0  0  0  0  0
  -29.7147  -11.7925   17.4111 H   0  0  0  0  0  0
  -29.6655  -13.4973   17.7879 H   0  0  0  0  0  0
  -27.8105  -11.3164   18.8061 H   0  0  0  0  0  0
  -27.3577  -12.6602   17.7913 H   0  0  0  0  0  0
  -27.7188  -14.2552   19.5990 H   0  0  0  0  0  0
  -28.6614  -11.9214   21.3358 H   0  0  0  0  0  0
  -28.4693  -13.5544   21.8871 H   0  0  0  0  0  0
  -25.2754   -9.5688   22.4754 H   0  0  0  0  0  0
  -23.9998   -7.4637   22.7474 H   0  0  0  0  0  0
  -21.0835   -8.8760   19.8952 H   0  0  0  0  0  0
  -22.3680  -10.9664   19.6159 H   0  0  0  0  0  0
  -21.2006   -7.6145   23.9708 H   0  0  0  0  0  0
  -21.1484   -6.0527   25.9079 H   0  0  0  0  0  0
  -22.0599   -2.7602   23.2860 H   0  0  0  0  0  0
  -22.4147  -11.9877   22.4754 H   0  0  0  0  0  0
  -21.1142  -13.1244   22.2614 H   0  0  0  0  0  0
  -24.6766  -15.8504   20.5196 H   0  0  0  0  0  0
  -26.2965  -15.6223   20.0978 H   0  0  0  0  0  0
  -26.7077  -32.5568   23.1195 H   0  0  0  0  0  0
  -25.0087  -33.9810   25.0543 H   0  0  0  0  0  0
  -22.6835  -31.3072   21.4136 H   0  0  0  0  0  0
  -23.3744  -35.9655   23.3309 H   0  0  0  0  0  0
  -24.3584  -36.8916   22.2051 H   0  0  0  0  0  0
  -23.7235  -37.6523   23.6648 H   0  0  0  0  0  0
  -26.0249  -31.6109   20.5943 H   0  0  0  0  0  0
  -26.8101  -30.9036   21.9783 H   0  0  0  0  0  0
  -28.0968  -29.1474   21.1635 H   0  0  0  0  0  0
  -26.1059  -25.9951   19.0003 H   0  0  0  0  0  0
  -23.9907  -27.2894   19.0338 H   0  0  0  0  0  0
  -23.7177  -30.5985   19.4084 H   0  0  0  0  0  0
  -22.7326  -29.2417   19.8691 H   0  0  0  0  0  0
  -25.1277  -36.1994   25.0834 H   0  0  0  0  0  0
  -20.9929  -28.3210   24.1446 H   0  0  0  0  0  0
  -20.5649  -26.2246   23.3602 H   0  0  0  0  0  0
  -21.6634  -26.7443   22.1211 H   0  0  0  0  0  0
  -19.6910  -25.6291   21.1220 H   0  0  0  0  0  0
  -19.6683  -27.3197   20.6738 H   0  0  0  0  0  0
  -17.4182  -26.6648   21.4005 H   0  0  0  0  0  0
  -18.0320  -26.0048   22.9001 H   0  0  0  0  0  0
  -19.7935  -30.7228   24.2290 H   0  0  0  0  0  0
  -17.5020  -31.6265   24.5164 H   0  0  0  0  0  0
  -15.5343  -30.2998   23.7649 H   0  0  0  0  0  0
  -15.8639  -28.0830   22.7057 H   0  0  0  0  0  0
  -24.5936  -30.7020   25.7856 H   0  0  0  0  0  0
  -24.8970  -32.2823   26.4997 H   0  0  0  0  0  0
  -25.8161  -30.8833   27.0228 H   0  0  0  0  0  0
  -26.2818  -29.6785   24.1190 H   0  0  0  0  0  0
  -27.4187  -29.7318   25.4480 H   0  0  0  0  0  0
  -27.8612  -30.4395   23.9117 H   0  0  0  0  0  0
  -27.2672  -33.3610   26.2099 H   0  0  0  0  0  0
  -28.3847  -32.6904   25.0289 H   0  0  0  0  0  0
  -28.0745  -31.8418   26.5362 H   0  0  0  0  0  0
  -28.2604  -38.0108   24.7527 H   0  0  0  0  0  0
  -28.1073  -36.2642   24.6280 H   0  0  0  0  0  0
  -27.2301  -37.1451   25.8868 H   0  0  0  0  0  0
  -20.9267  -29.8754   21.6982 H   0  0  0  0  0  0
  -26.0182  -38.2874   24.1432 H   0  0  0  0  0  0
  -28.6343  -20.7297   19.8382 H   0  0  0  0  0  0
  -29.4390  -15.9779   18.5621 H   0  0  0  0  0  0
  -29.3171  -17.3386   22.8559 H   0  0  0  0  0  0
  -31.0355  -17.5934   23.1238 H   0  0  0  0  0  0
  -31.0354  -19.5001   21.6662 H   0  0  0  0  0  0
  -31.5451  -16.8794   20.8740 H   0  0  0  0  0  0
  -27.4887  -21.1624   17.8511 H   0  0  0  0  0  0
  -26.5233  -19.8049   17.2793 H   0  0  0  0  0  0
  -28.0331  -20.2315   16.4571 H   0  0  0  0  0  0
  -28.2235  -16.2530   16.5488 H   0  0  0  0  0  0
  -28.4670  -17.8368   15.8156 H   0  0  0  0  0  0
  -26.9256  -17.4417   16.5898 H   0  0  0  0  0  0
  -31.7101  -21.2503   22.9184 H   0  0  0  0  0  0
  -31.2456  -22.9137   22.7382 H   0  0  0  0  0  0
  -31.1032  -21.8236   21.3628 H   0  0  0  0  0  0
  -29.3820  -19.6240   23.7857 H   0  0  0  0  0  0
  -28.1350  -19.8455   22.6227 H   0  0  0  0  0  0
  -28.3138  -24.2603   20.3189 H   0  0  0  0  0  0
  -27.0965  -24.7840   21.4658 H   0  0  0  0  0  0
  -27.4874  -22.2663   22.6886 H   0  0  0  0  0  0
  -28.3483  -22.1882   21.1826 H   0  0  0  0  0  0
  -29.8794  -26.0596   21.2362 H   0  0  0  0  0  0
  -28.5200  -26.7159   22.1236 H   0  0  0  0  0  0
  -29.4881  -21.7672   23.9453 H   0  0  0  0  0  0
  -29.2138  -15.1639   21.6799 H   0  0  0  0  0  0
  -28.5794  -24.2053   23.2567 H   0  0  0  0  0  0
  -29.8059  -23.9300   22.2240 H   0  0  0  0  0  0
  1 25  1  0  0  0
  1 30  2  0  0  0
  1 88  1  0  0  0
  2  3  1  0  0  0
  2 25  1  0  0  0
  2 90  1  0  0  0
  2 91  1  0  0  0
  3  4  1  0  0  0
  3 92  1  0  0  0
  3 93  1  0  0  0
  4  5  1  0  0  0
  4 94  1  0  0  0
  4 95  1  0  0  0
  5  6  1  0  0  0
  5 26  1  0  0  0
  5 96  1  0  0  0
  6 25  1  0  0  0
  6 97  1  0  0  0
  6 98  1  0  0  0
  7  8  2  0  0  0
  7 26  1  0  0  0
  7 29  1  0  0  0
  8  9  1  0  0  0
  8 22  1  0  0  0
  9 10  1  0  0  0
  9 27  2  0  0  0
 10 11  2  0  0  0
 10 15  1  0  0  0
 11 12  1  0  0  0
 11 99  1  0  0  0
 12 13  2  0  0  0
 12100  1  0  0  0
 13 14  1  0  0  0
 13 31  1  0  0  0
 14 15  2  0  0  0
 14101  1  0  0  0
 15102  1  0  0  0
 16 17  2  0  0  0
 16 21  1  0  0  0
 16 31  1  0  0  0
 17 18  1  0  0  0
 17103  1  0  0  0
 18 19  2  0  0  0
 18104  1  0  0  0
 19 20  1  0  0  0
 19 24  1  0  0  0
 20 21  2  0  0  0
 20105  1  0  0  0
 21 23  1  0  0  0
 22 28  1  0  0  0
 22 32  2  0  0  0
 26 27  1  0  0  0
 28106  1  0  0  0
 28107  1  0  0  0
 29108  1  0  0  0
 29109  1  0  0  0
 33 34  1  0  0  0
 33 66  1  0  0  0
 33 70  2  0  0  0
 34 36  1  0  0  0
 34 59  1  0  0  0
 34110  1  0  0  0
 35 44  2  0  0  0
 35 45  1  0  0  0
 35 68  1  0  0  0
 36 56  1  0  0  0
 36111  1  0  0  0
 37 39  1  0  0  0
 37 47  1  0  0  0
 37 66  1  0  0  0
 37112  1  0  0  0
 38 43  2  0  0  0
 38 46  1  0  0  0
 38 47  1  0  0  0
 39 64  1  0  0  0
 39 67  2  0  0  0
 40 52  1  0  0  0
 40 53  2  0  0  0
 40 58  1  0  0  0
 41113  1  0  0  0
 41114  1  0  0  0
 41115  1  0  0  0
 41 48  1  0  0  0
 42 43  1  0  0  0
 42 66  1  0  0  0
 42116  1  0  0  0
 42117  1  0  0  0
 43 44  1  0  0  0
 44118  1  0  0  0
 45 46  2  0  0  0
 45119  1  0  0  0
 46120  1  0  0  0
 47121  1  0  0  0
 47122  1  0  0  0
 48 56  1  0  0  0
 48 65  1  0  0  0
 48123  1  0  0  0
 49 50  1  0  0  0
 49 53  1  0  0  0
 49 64  1  0  0  0
 49124  1  0  0  0
 50 51  1  0  0  0
 50125  1  0  0  0
 50126  1  0  0  0
 51 52  1  0  0  0
 51127  1  0  0  0
 51128  1  0  0  0
 52129  1  0  0  0
 52130  1  0  0  0
 53 54  1  0  0  0
 54 55  2  0  0  0
 54131  1  0  0  0
 55 57  1  0  0  0
 55132  1  0  0  0
 56 69  2  0  0  0
 57 58  2  0  0  0
 57133  1  0  0  0
 58134  1  0  0  0
 59 60  1  0  0  0
 59 61  1  0  0  0
 59 62  1  0  0  0
 60135  1  0  0  0
 60136  1  0  0  0
 60137  1  0  0  0
 61138  1  0  0  0
 61139  1  0  0  0
 61140  1  0  0  0
 62141  1  0  0  0
 62142  1  0  0  0
 62143  1  0  0  0
 63 65  1  0  0  0
 63144  1  0  0  0
 63145  1  0  0  0
 63146  1  0  0  0
 64147  1  0  0  0
 65148  1  0  0  0
 68 86  1  0  0  0
 71 73  2  0  0  0
 71 75  1  0  0  0
 71149  1  0  0  0
 72 74  2  0  0  0
 72 76  1  0  0  0
 72150  1  0  0  0
 73 74  1  0  0  0
 73 78  1  0  0  0
 74 79  1  0  0  0
 75 76  2  0  0  0
 75 80  1  0  0  0
 76 81  1  0  0  0
 77 78  1  0  0  0
 77 79  1  0  0  0
 77151  1  0  0  0
 77152  1  0  0  0
 78 83  1  0  0  0
 78153  1  0  0  0
 79 88  1  0  0  0
 79154  1  0  0  0
 80155  1  0  0  0
 80156  1  0  0  0
 80157  1  0  0  0
 81158  1  0  0  0
 81159  1  0  0  0
 81160  1  0  0  0
 82161  1  0  0  0
 82162  1  0  0  0
 82163  1  0  0  0
 82 87  1  0  0  0
 83 87  1  0  0  0
 83164  1  0  0  0
 83165  1  0  0  0
 84 86  1  0  0  0
 84 89  1  0  0  0
 84166  1  0  0  0
 84167  1  0  0  0
 85 87  1  0  0  0
 85 89  1  0  0  0
 85168  1  0  0  0
 85169  1  0  0  0
 86170  1  0  0  0
 86171  1  0  0  0
 87172  1  0  0  0
 88173  1  0  0  0
 89174  1  0  0  0
 89175  1  0  0  0
M  CHG  1  89   1
M  ISO  4   1 100  68 101  86 101  88 100
M  END
> <chiral flag>
0

> <version>
0

> <s_m_source_file>
/data/baiqing/PycharmProjects/Reinvent-master-3.2/result/LINK_invent/BTK/process_docking_weight1_custom_sum_contain_oxygen_bond_distance_aromatic_linkinvent_7_9_3/rearranged_h_0164.sdf

> <i_m_source_file_index>
60

> <r_mmod_Potential_Energy-OPLS-2005>
-160.977005004883

> <r_mmod_Stretch_Energy-OPLS-2005>
35.1552429199219

> <r_mmod_Bend_Energy-OPLS-2005>
153.495635986328

> <r_mmod_Torsional_Energy-OPLS-2005>
253.499710083008

> <r_mmod_Improper_Torsional_Energy-OPLS-2005>
3.73199534416199

> <r_mmod_Van_der_Waal_Energy-OPLS-2005>
149.023361206055

> <r_mmod_Electrostatic_Energy-OPLS-2005>
-325.194854736328

> <r_mmod_Solvation_Energy-OPLS-2005>
-438.085113525391

> <b_mmod_Minimization_Converged-OPLS-2005>
0

> <r_mmod_RMS_Derivative-OPLS-2005>
1.45740473270416

$$$$
60
                    3D
 Structure written by MMmdl.
172180  0  0  1  0            999 V2000
  -30.6721  -14.5625   20.5627 C   0  0  0  0  0  0
  -30.4486  -12.3714   19.4254 C   0  0  0  0  0  0
  -29.5147  -12.5317   18.2083 C   0  0  0  0  0  0
  -28.0363  -12.3725   18.6178 C   0  0  0  0  0  0
  -27.6661  -13.2113   19.8708 C   0  0  2  0  0  0
  -28.7140  -13.0201   20.9900 C   0  0  0  0  0  0
  -25.2648  -13.8127   20.5770 C   0  0  0  0  0  0
  -24.1874  -13.0402   20.9146 C   0  0  0  0  0  0
  -24.6430  -11.6878   20.8677 C   0  0  0  0  0  0
  -23.9081  -10.4288   21.0345 C   0  0  0  0  0  0
  -24.3632   -9.4225   21.9144 C   0  0  0  0  0  0
  -23.6308   -8.2262   22.0745 C   0  0  0  0  0  0
  -22.4298   -8.0282   21.3534 C   0  0  0  0  0  0
  -21.9922   -9.0242   20.4642 C   0  0  0  0  0  0
  -22.7243  -10.2120   20.3021 C   0  0  0  0  0  0
  -21.6869   -6.0737   22.5268 C   0  0  0  0  0  0
  -21.4018   -6.5642   23.8205 C   0  0  0  0  0  0
  -21.3652   -5.6791   24.9158 C   0  0  0  0  0  0
  -21.6046   -4.3053   24.7215 C   0  0  0  0  0  0
  -21.8837   -3.8146   23.4333 C   0  0  0  0  0  0
  -21.9193   -4.6957   22.3387 C   0  0  0  0  0  0
  -22.7897  -13.5219   21.1764 C   0  0  0  0  0  0
  -22.1669   -4.2148   21.0975 F   0  0  0  0  0  0
  -21.5621   -3.4540   25.7719 F   0  0  0  0  0  0
  -30.0330  -13.3602   20.4320 N   0  0  0  0  0  0
  -26.3078  -12.9312   20.3347 N   0  0  0  0  0  0
  -25.9372  -11.6458   20.5708 N   0  0  0  0  0  0
  -22.0494  -12.8265   22.0329 N   0  0  0  0  0  0
  -25.4375  -15.1859   20.4479 N   0  0  0  0  0  0
  -31.8161  -14.7536   20.1467 O   0  0  0  0  0  0
  -21.6646   -6.8887   21.4240 O   0  0  0  0  0  0
  -22.3602  -14.5487   20.6531 O   0  0  0  0  0  0
  -24.6229  -31.8624   23.2096 C   0  0  0  0  0  0
  -25.9103  -32.4802   23.8390 C   0  0  1  0  0  0
  -27.2225  -27.3758   20.0841 C   0  0  0  0  0  0
  -25.5936  -33.8601   24.2308 N   0  0  0  0  0  0
  -23.4130  -30.4902   21.5522 C   0  0  2  0  0  0
  -24.8543  -28.9585   20.1108 C   0  0  0  0  0  0
  -22.7462  -29.4624   22.4970 C   0  0  0  0  0  0
  -18.0277  -28.1377   22.8504 C   0  0  0  0  0  0
  -24.1484  -36.7310   23.2646 C   0  0  0  0  0  0
  -25.9522  -30.8066   21.3752 C   0  0  0  0  0  0
  -26.0233  -29.4422   20.7142 C   0  0  0  0  0  0
  -27.2084  -28.6586   20.6981 C   0  0  0  0  0  0
  -26.0301  -26.9381   19.4549 C   0  0  0  0  0  0
  -24.8576  -27.7106   19.4746 C   0  0  0  0  0  0
  -23.6240  -29.8359   20.1628 C   0  0  0  0  0  0
  -25.4110  -36.3105   24.0334 C   0  0  1  0  0  0
  -20.5871  -28.3670   23.1317 C   0  0  2  0  0  0
  -20.6757  -26.9401   22.5422 C   0  0  0  0  0  0
  -19.5732  -26.6378   21.5221 C   0  0  0  0  0  0
  -18.1914  -26.7923   22.1632 C   0  0  0  0  0  0
  -19.1526  -28.8840   23.2901 C   0  0  0  0  0  0
  -18.9455  -30.1444   23.8919 C   0  0  0  0  0  0
  -17.6456  -30.6590   24.0560 C   0  0  0  0  0  0
  -25.9043  -34.9472   23.5115 C   0  0  0  0  0  0
  -16.5344  -29.9097   23.6318 C   0  0  0  0  0  0
  -16.7265  -28.6499   23.0362 C   0  0  0  0  0  0
  -26.4491  -31.6615   25.0754 C   0  0  0  0  0  0
  -25.3753  -31.3759   26.1506 C   0  0  0  0  0  0
  -27.0308  -30.3043   24.6167 C   0  0  0  0  0  0
  -27.6043  -32.4368   25.7526 C   0  0  0  0  0  0
  -27.5574  -37.1817   24.8469 C   0  0  0  0  0  0
  -21.4167  -29.3043   22.3743 N   0  0  0  0  0  0
  -26.4283  -37.3806   23.9424 N   0  0  0  0  0  0
  -24.6823  -31.0674   22.1044 N   0  0  0  0  0  0
  -23.4214  -28.8149   23.3003 O   0  0  0  0  0  0
  -28.3645  -26.5730   20.1239 O   0  0  0  0  0  0
  -26.5605  -34.8933   22.4680 O   0  0  0  0  0  0
  -23.5407  -32.1413   23.7449 O   0  0  0  0  0  0
  -30.0386  -20.4753   19.8291 C   0  0  0  0  0  0
  -27.4677  -19.8532   18.9510 C   0  0  0  0  0  0
  -29.1967  -21.5471   19.3805 C   0  0  0  0  0  0
  -29.6226  -19.1045   19.7987 C   0  0  0  0  0  0
  -27.8800  -21.2017   18.9641 C   0  0  0  0  0  0
  -28.3303  -18.7976   19.3225 C   0  0  0  0  0  0
  -26.8645  -22.2299   18.4803 C   0  0  0  0  0  0
  -31.2389  -23.0481   18.8683 C   0  0  0  0  0  0
  -30.4249  -24.8001   21.0037 C   0  0  0  0  0  0
  -31.1537  -17.1381   22.5150 C   0  0  0  0  0  0
  -26.9042  -17.1452   18.3415 C   0  0  0  0  0  0
  -30.5760  -17.9298   20.1351 C   0  0  0  0  0  0
  -28.2358  -25.1740   19.7170 C   0  0  0  0  0  0
  -29.7270  -23.0120   19.1937 C   0  0  2  0  0  0
  -29.2665  -24.1074   20.2551 C   0  0  1  0  0  0
  -30.1698  -17.0065   21.3417 C   0  0  1  0  0  0
  -29.9016  -15.5693   21.0413 N   0  0  0  0  0  0
  -27.9719  -17.4680   19.2230 O   0  0  0  0  0  0
  -31.4870  -12.5060   19.1158 H   0  0  0  0  0  0
  -30.3811  -11.3614   19.8338 H   0  0  0  0  0  0
  -29.7767  -11.8049   17.4384 H   0  0  0  0  0  0
  -29.6700  -13.5133   17.7593 H   0  0  0  0  0  0
  -27.8608  -11.3152   18.8145 H   0  0  0  0  0  0
  -27.3912  -12.6393   17.7805 H   0  0  0  0  0  0
  -27.6997  -14.2593   19.5737 H   0  0  0  0  0  0
  -28.7205  -11.9846   21.3340 H   0  0  0  0  0  0
  -28.4629  -13.6221   21.8640 H   0  0  0  0  0  0
  -25.2793   -9.5694   22.4689 H   0  0  0  0  0  0
  -24.0012   -7.4675   22.7495 H   0  0  0  0  0  0
  -21.0835   -8.8753   19.8983 H   0  0  0  0  0  0
  -22.3698  -10.9629   19.6114 H   0  0  0  0  0  0
  -21.2006   -7.6143   23.9693 H   0  0  0  0  0  0
  -21.1462   -6.0520   25.9061 H   0  0  0  0  0  0
  -22.0611   -2.7599   23.2827 H   0  0  0  0  0  0
  -22.4105  -12.0015   22.4894 H   0  0  0  0  0  0
  -21.1067  -13.1289   22.2342 H   0  0  0  0  0  0
  -24.6753  -15.8385   20.5939 H   0  0  0  0  0  0
  -26.3120  -15.6409   20.2191 H   0  0  0  0  0  0
  -26.7173  -32.5469   23.1142 H   0  0  0  0  0  0
  -25.0104  -33.9754   25.0459 H   0  0  0  0  0  0
  -22.7093  -31.3136   21.4170 H   0  0  0  0  0  0
  -23.3734  -35.9651   23.3315 H   0  0  0  0  0  0
  -24.3586  -36.8914   22.2058 H   0  0  0  0  0  0
  -23.7219  -37.6516   23.6647 H   0  0  0  0  0  0
  -26.0773  -31.5700   20.6071 H   0  0  0  0  0  0
  -26.8377  -30.8542   21.9973 H   0  0  0  0  0  0
  -28.1093  -29.0227   21.1771 H   0  0  0  0  0  0
  -25.9651  -25.9929   18.9372 H   0  0  0  0  0  0
  -23.9667  -27.3423   18.9867 H   0  0  0  0  0  0
  -23.7535  -30.6198   19.4154 H   0  0  0  0  0  0
  -22.7422  -29.2716   19.8500 H   0  0  0  0  0  0
  -25.1281  -36.1963   25.0820 H   0  0  0  0  0  0
  -20.9956  -28.3206   24.1435 H   0  0  0  0  0  0
  -20.5653  -26.2271   23.3609 H   0  0  0  0  0  0
  -21.6628  -26.7448   22.1210 H   0  0  0  0  0  0
  -19.6892  -25.6291   21.1246 H   0  0  0  0  0  0
  -19.6658  -27.3189   20.6753 H   0  0  0  0  0  0
  -17.4188  -26.6691   21.4026 H   0  0  0  0  0  0
  -18.0312  -26.0048   22.9011 H   0  0  0  0  0  0
  -19.7932  -30.7247   24.2302 H   0  0  0  0  0  0
  -17.5019  -31.6279   24.5149 H   0  0  0  0  0  0
  -15.5348  -30.3009   23.7632 H   0  0  0  0  0  0
  -15.8661  -28.0825   22.7078 H   0  0  0  0  0  0
  -24.5906  -30.7114   25.7880 H   0  0  0  0  0  0
  -24.8968  -32.2926   26.4961 H   0  0  0  0  0  0
  -25.8108  -30.8942   27.0265 H   0  0  0  0  0  0
  -26.2852  -29.6837   24.1179 H   0  0  0  0  0  0
  -27.4005  -29.7261   25.4643 H   0  0  0  0  0  0
  -27.8737  -30.4348   23.9377 H   0  0  0  0  0  0
  -27.2625  -33.3663   26.2099 H   0  0  0  0  0  0
  -28.3856  -32.6946   25.0368 H   0  0  0  0  0  0
  -28.0703  -31.8505   26.5451 H   0  0  0  0  0  0
  -28.2609  -38.0103   24.7519 H   0  0  0  0  0  0
  -28.1049  -36.2632   24.6283 H   0  0  0  0  0  0
  -27.2311  -37.1474   25.8882 H   0  0  0  0  0  0
  -20.9343  -29.8824   21.7010 H   0  0  0  0  0  0
  -26.0155  -38.2883   24.1422 H   0  0  0  0  0  0
  -31.0475  -20.6908   20.1494 H   0  0  0  0  0  0
  -26.4672  -19.6363   18.6067 H   0  0  0  0  0  0
  -26.0100  -21.7497   18.0021 H   0  0  0  0  0  0
  -27.2729  -22.9142   17.7402 H   0  0  0  0  0  0
  -26.4715  -22.7990   19.3195 H   0  0  0  0  0  0
  -31.8562  -22.7246   19.7041 H   0  0  0  0  0  0
  -31.5581  -24.0539   18.5943 H   0  0  0  0  0  0
  -31.4738  -22.4129   18.0135 H   0  0  0  0  0  0
  -30.0390  -25.4675   21.7740 H   0  0  0  0  0  0
  -31.0459  -25.4027   20.3400 H   0  0  0  0  0  0
  -31.0622  -24.0732   21.5077 H   0  0  0  0  0  0
  -31.2550  -18.1786   22.8256 H   0  0  0  0  0  0
  -32.1489  -16.7835   22.2488 H   0  0  0  0  0  0
  -30.8166  -16.5752   23.3858 H   0  0  0  0  0  0
  -26.8336  -16.0651   18.2204 H   0  0  0  0  0  0
  -27.0644  -17.5750   17.3516 H   0  0  0  0  0  0
  -25.9498  -17.4936   18.7375 H   0  0  0  0  0  0
  -31.5751  -18.3324   20.3018 H   0  0  0  0  0  0
  -30.6720  -17.3227   19.2351 H   0  0  0  0  0  0
  -27.2767  -24.7982   20.0731 H   0  0  0  0  0  0
  -28.1898  -25.1587   18.6263 H   0  0  0  0  0  0
  -29.3065  -23.3238   18.2390 H   0  0  0  0  0  0
  -28.7481  -23.5590   21.0426 H   0  0  0  0  0  0
  -29.2171  -17.3821   21.7213 H   0  0  0  0  0  0
  -28.9593  -15.2782   21.2539 H   0  0  0  0  0  0
  1 25  1  0  0  0
  1 30  2  0  0  0
  1 87  1  0  0  0
  2  3  1  0  0  0
  2 25  1  0  0  0
  2 89  1  0  0  0
  2 90  1  0  0  0
  3  4  1  0  0  0
  3 91  1  0  0  0
  3 92  1  0  0  0
  4  5  1  0  0  0
  4 93  1  0  0  0
  4 94  1  0  0  0
  5  6  1  0  0  0
  5 26  1  0  0  0
  5 95  1  0  0  0
  6 25  1  0  0  0
  6 96  1  0  0  0
  6 97  1  0  0  0
  7  8  2  0  0  0
  7 26  1  0  0  0
  7 29  1  0  0  0
  8  9  1  0  0  0
  8 22  1  0  0  0
  9 10  1  0  0  0
  9 27  2  0  0  0
 10 11  2  0  0  0
 10 15  1  0  0  0
 11 12  1  0  0  0
 11 98  1  0  0  0
 12 13  2  0  0  0
 12 99  1  0  0  0
 13 14  1  0  0  0
 13 31  1  0  0  0
 14 15  2  0  0  0
 14100  1  0  0  0
 15101  1  0  0  0
 16 17  2  0  0  0
 16 21  1  0  0  0
 16 31  1  0  0  0
 17 18  1  0  0  0
 17102  1  0  0  0
 18 19  2  0  0  0
 18103  1  0  0  0
 19 20  1  0  0  0
 19 24  1  0  0  0
 20 21  2  0  0  0
 20104  1  0  0  0
 21 23  1  0  0  0
 22 28  1  0  0  0
 22 32  2  0  0  0
 26 27  1  0  0  0
 28105  1  0  0  0
 28106  1  0  0  0
 29107  1  0  0  0
 29108  1  0  0  0
 33 34  1  0  0  0
 33 66  1  0  0  0
 33 70  2  0  0  0
 34 36  1  0  0  0
 34 59  1  0  0  0
 34109  1  0  0  0
 35 44  2  0  0  0
 35 45  1  0  0  0
 35 68  1  0  0  0
 36 56  1  0  0  0
 36110  1  0  0  0
 37 39  1  0  0  0
 37 47  1  0  0  0
 37 66  1  0  0  0
 37111  1  0  0  0
 38 43  2  0  0  0
 38 46  1  0  0  0
 38 47  1  0  0  0
 39 64  1  0  0  0
 39 67  2  0  0  0
 40 52  1  0  0  0
 40 53  2  0  0  0
 40 58  1  0  0  0
 41112  1  0  0  0
 41113  1  0  0  0
 41114  1  0  0  0
 41 48  1  0  0  0
 42 43  1  0  0  0
 42 66  1  0  0  0
 42115  1  0  0  0
 42116  1  0  0  0
 43 44  1  0  0  0
 44117  1  0  0  0
 45 46  2  0  0  0
 45118  1  0  0  0
 46119  1  0  0  0
 47120  1  0  0  0
 47121  1  0  0  0
 48 56  1  0  0  0
 48 65  1  0  0  0
 48122  1  0  0  0
 49 50  1  0  0  0
 49 53  1  0  0  0
 49 64  1  0  0  0
 49123  1  0  0  0
 50 51  1  0  0  0
 50124  1  0  0  0
 50125  1  0  0  0
 51 52  1  0  0  0
 51126  1  0  0  0
 51127  1  0  0  0
 52128  1  0  0  0
 52129  1  0  0  0
 53 54  1  0  0  0
 54 55  2  0  0  0
 54130  1  0  0  0
 55 57  1  0  0  0
 55131  1  0  0  0
 56 69  2  0  0  0
 57 58  2  0  0  0
 57132  1  0  0  0
 58133  1  0  0  0
 59 60  1  0  0  0
 59 61  1  0  0  0
 59 62  1  0  0  0
 60134  1  0  0  0
 60135  1  0  0  0
 60136  1  0  0  0
 61137  1  0  0  0
 61138  1  0  0  0
 61139  1  0  0  0
 62140  1  0  0  0
 62141  1  0  0  0
 62142  1  0  0  0
 63 65  1  0  0  0
 63143  1  0  0  0
 63144  1  0  0  0
 63145  1  0  0  0
 64146  1  0  0  0
 65147  1  0  0  0
 68 83  1  0  0  0
 71 73  2  0  0  0
 71 74  1  0  0  0
 71148  1  0  0  0
 72 75  2  0  0  0
 72 76  1  0  0  0
 72149  1  0  0  0
 73 75  1  0  0  0
 73 84  1  0  0  0
 74 76  2  0  0  0
 74 82  1  0  0  0
 75 77  1  0  0  0
 76 88  1  0  0  0
 77150  1  0  0  0
 77151  1  0  0  0
 77152  1  0  0  0
 78153  1  0  0  0
 78154  1  0  0  0
 78155  1  0  0  0
 78 84  1  0  0  0
 79156  1  0  0  0
 79157  1  0  0  0
 79158  1  0  0  0
 79 85  1  0  0  0
 80159  1  0  0  0
 80160  1  0  0  0
 80161  1  0  0  0
 80 86  1  0  0  0
 81 88  1  0  0  0
 81162  1  0  0  0
 81163  1  0  0  0
 81164  1  0  0  0
 82 86  1  0  0  0
 82165  1  0  0  0
 82166  1  0  0  0
 83 85  1  0  0  0
 83167  1  0  0  0
 83168  1  0  0  0
 84 85  1  0  0  0
 84169  1  0  0  0
 85170  1  0  0  0
 86 87  1  0  0  0
 86171  1  0  0  0
 87172  1  0  0  0
M  ISO  4   1 100  68 101  83 101  87 100
M  END
> <chiral flag>
0

> <version>
0

> <s_m_source_file>
/data/baiqing/PycharmProjects/Reinvent-master-3.2/result/LINK_invent/BTK/process_docking_weight1_custom_sum_contain_oxygen_bond_distance_aromatic_linkinvent_7_9_3/rearranged_h_0164.sdf

> <i_m_source_file_index>
61

> <r_mmod_Potential_Energy-OPLS-2005>
43.0634536743164

> <r_mmod_Stretch_Energy-OPLS-2005>
65.0675888061523

> <r_mmod_Bend_Energy-OPLS-2005>
141.714538574219

> <r_mmod_Torsional_Energy-OPLS-2005>
240.351028442383

> <r_mmod_Improper_Torsional_Energy-OPLS-2005>
4.00954103469849

> <r_mmod_Van_der_Waal_Energy-OPLS-2005>
160.896469116211

> <r_mmod_Electrostatic_Energy-OPLS-2005>
-400.965728759766

> <r_mmod_Solvation_Energy-OPLS-2005>
-196.199798583984

> <b_mmod_Minimization_Converged-OPLS-2005>
0

> <r_mmod_RMS_Derivative-OPLS-2005>
3.80282664299011

$$$$
61
                    3D
 Structure written by MMmdl.
173183  0  0  1  0            999 V2000
  -30.7320  -14.4234   20.6627 C   0  0  0  0  0  0
  -30.4193  -12.3125   19.4118 C   0  0  0  0  0  0
  -29.4896  -12.5188   18.1999 C   0  0  0  0  0  0
  -28.0148  -12.3452   18.6111 C   0  0  0  0  0  0
  -27.6594  -13.1796   19.8669 C   0  0  2  0  0  0
  -28.6974  -12.9349   20.9904 C   0  0  0  0  0  0
  -25.2601  -13.8090   20.5613 C   0  0  0  0  0  0
  -24.1836  -13.0413   20.9160 C   0  0  0  0  0  0
  -24.6356  -11.6869   20.8729 C   0  0  0  0  0  0
  -23.9020  -10.4270   21.0414 C   0  0  0  0  0  0
  -24.3582   -9.4194   21.9195 C   0  0  0  0  0  0
  -23.6259   -8.2230   22.0765 C   0  0  0  0  0  0
  -22.4246   -8.0266   21.3550 C   0  0  0  0  0  0
  -21.9875   -9.0234   20.4652 C   0  0  0  0  0  0
  -22.7200  -10.2113   20.3056 C   0  0  0  0  0  0
  -21.6841   -6.0725   22.5285 C   0  0  0  0  0  0
  -21.4008   -6.5635   23.8215 C   0  0  0  0  0  0
  -21.3658   -5.6788   24.9175 C   0  0  0  0  0  0
  -21.6041   -4.3046   24.7226 C   0  0  0  0  0  0
  -21.8818   -3.8141   23.4347 C   0  0  0  0  0  0
  -21.9186   -4.6957   22.3404 C   0  0  0  0  0  0
  -22.7868  -13.5246   21.1833 C   0  0  0  0  0  0
  -22.1650   -4.2142   21.0982 F   0  0  0  0  0  0
  -21.5636   -3.4534   25.7741 F   0  0  0  0  0  0
  -30.0288  -13.2707   20.4615 N   0  0  0  0  0  0
  -26.2997  -12.9199   20.3281 N   0  0  0  0  0  0
  -25.9261  -11.6397   20.5724 N   0  0  0  0  0  0
  -22.0486  -12.8253   22.0381 N   0  0  0  0  0  0
  -25.4354  -15.1797   20.3973 N   0  0  0  0  0  0
  -31.8015  -14.6323   20.0760 O   0  0  0  0  0  0
  -21.6619   -6.8863   21.4242 O   0  0  0  0  0  0
  -22.3573  -14.5569   20.6694 O   0  0  0  0  0  0
  -24.6074  -31.8716   23.2124 C   0  0  0  0  0  0
  -25.8993  -32.4845   23.8407 C   0  0  1  0  0  0
  -27.2557  -27.4875   20.0886 C   0  0  0  0  0  0
  -25.5873  -33.8641   24.2343 N   0  0  0  0  0  0
  -23.3938  -30.4919   21.5512 C   0  0  2  0  0  0
  -24.8449  -28.9604   20.1182 C   0  0  0  0  0  0
  -22.7371  -29.4665   22.5020 C   0  0  0  0  0  0
  -18.0260  -28.1368   22.8491 C   0  0  0  0  0  0
  -24.1480  -36.7322   23.2640 C   0  0  0  0  0  0
  -25.9144  -30.8542   21.3575 C   0  0  0  0  0  0
  -25.9983  -29.4905   20.7087 C   0  0  0  0  0  0
  -27.2038  -28.7621   20.6980 C   0  0  0  0  0  0
  -26.0811  -26.9521   19.5218 C   0  0  0  0  0  0
  -24.8780  -27.6857   19.5242 C   0  0  0  0  0  0
  -23.6006  -29.8168   20.1672 C   0  0  0  0  0  0
  -25.4108  -36.3130   24.0341 C   0  0  1  0  0  0
  -20.5845  -28.3641   23.1339 C   0  0  2  0  0  0
  -20.6746  -26.9378   22.5431 C   0  0  0  0  0  0
  -19.5734  -26.6374   21.5216 C   0  0  0  0  0  0
  -18.1907  -26.7924   22.1607 C   0  0  0  0  0  0
  -19.1509  -28.8818   23.2917 C   0  0  0  0  0  0
  -18.9443  -30.1431   23.8922 C   0  0  0  0  0  0
  -17.6444  -30.6576   24.0563 C   0  0  0  0  0  0
  -25.9026  -34.9491   23.5143 C   0  0  0  0  0  0
  -16.5333  -29.9076   23.6328 C   0  0  0  0  0  0
  -16.7250  -28.6496   23.0348 C   0  0  0  0  0  0
  -26.4452  -31.6610   25.0709 C   0  0  0  0  0  0
  -25.3739  -31.3702   26.1473 C   0  0  0  0  0  0
  -27.0275  -30.3057   24.6051 C   0  0  0  0  0  0
  -27.6042  -32.4317   25.7465 C   0  0  0  0  0  0
  -27.5589  -37.1824   24.8466 C   0  0  0  0  0  0
  -21.4106  -29.3020   22.3754 N   0  0  0  0  0  0
  -26.4302  -37.3809   23.9403 N   0  0  0  0  0  0
  -24.6564  -31.0853   22.1005 N   0  0  0  0  0  0
  -23.4168  -28.8218   23.3054 O   0  0  0  0  0  0
  -28.3987  -26.7237   20.0380 O   0  0  0  0  0  0
  -26.5590  -34.8937   22.4703 O   0  0  0  0  0  0
  -23.5283  -32.1442   23.7555 O   0  0  0  0  0  0
  -31.3399  -19.3493   19.3786 C   0  0  0  0  0  0
  -31.5485  -20.4861   18.5753 C   0  0  0  0  0  0
  -30.0750  -20.6989   20.9620 C   0  0  0  0  0  0
  -30.6107  -19.4476   20.5846 C   0  0  0  0  0  0
  -31.0201  -21.7358   18.9584 C   0  0  0  0  0  0
  -30.2715  -21.8346   20.1519 C   0  0  0  0  0  0
  -32.4945  -23.1083   17.2054 C   0  0  0  0  0  0
  -32.3668  -24.6270   17.3888 C   0  0  0  0  0  0
  -29.2527  -17.3395   20.8008 C   0  0  0  0  0  0
  -31.6175  -17.3836   21.7462 C   0  0  0  0  0  0
  -29.0508  -16.0332   21.5856 C   0  0  0  0  0  0
  -31.2886  -16.0361   22.4341 C   0  0  0  0  0  0
  -30.3458  -18.2126   21.4406 C   0  0  0  0  0  0
  -31.2307  -22.9533   18.0720 C   0  0  2  0  0  0
  -31.6020  -24.3165   18.6838 C   0  0  2  0  0  0
  -30.7681  -26.4012   19.7402 C   0  0  0  0  0  0
  -29.6118  -27.4087   19.7315 C   0  0  0  0  0  0
  -30.3104  -15.2683   21.6444 N   0  0  0  0  0  0
  -30.4409  -25.1880   18.9626 N   0  3  0  0  0  0
  -29.7252  -23.0215   20.5160 F   0  0  0  0  0  0
  -31.4625  -12.4195   19.1089 H   0  0  0  0  0  0
  -30.3328  -11.2921   19.7887 H   0  0  0  0  0  0
  -29.7448  -11.8143   17.4072 H   0  0  0  0  0  0
  -29.6409  -13.5165   17.7847 H   0  0  0  0  0  0
  -27.8448  -11.2864   18.8088 H   0  0  0  0  0  0
  -27.3579  -12.6095   17.7819 H   0  0  0  0  0  0
  -27.7043  -14.2175   19.5436 H   0  0  0  0  0  0
  -28.6826  -11.8840   21.2821 H   0  0  0  0  0  0
  -28.4455  -13.4689   21.9063 H   0  0  0  0  0  0
  -25.2729   -9.5671   22.4768 H   0  0  0  0  0  0
  -23.9962   -7.4626   22.7494 H   0  0  0  0  0  0
  -21.0806   -8.8748   19.8960 H   0  0  0  0  0  0
  -22.3665  -10.9648   19.6158 H   0  0  0  0  0  0
  -21.1997   -7.6142   23.9719 H   0  0  0  0  0  0
  -21.1483   -6.0517   25.9081 H   0  0  0  0  0  0
  -22.0599   -2.7604   23.2848 H   0  0  0  0  0  0
  -22.4072  -11.9891   22.4747 H   0  0  0  0  0  0
  -21.1110  -13.1303   22.2578 H   0  0  0  0  0  0
  -24.6689  -15.8354   20.5006 H   0  0  0  0  0  0
  -26.2827  -15.6129   20.0531 H   0  0  0  0  0  0
  -26.7064  -32.5586   23.1182 H   0  0  0  0  0  0
  -25.0037  -33.9814   25.0495 H   0  0  0  0  0  0
  -22.6800  -31.3061   21.4100 H   0  0  0  0  0  0
  -23.3759  -35.9637   23.3289 H   0  0  0  0  0  0
  -24.3577  -36.8946   22.2056 H   0  0  0  0  0  0
  -23.7206  -37.6512   23.6655 H   0  0  0  0  0  0
  -26.0152  -31.6208   20.5880 H   0  0  0  0  0  0
  -26.8052  -30.9148   21.9703 H   0  0  0  0  0  0
  -28.0740  -29.1896   21.1737 H   0  0  0  0  0  0
  -26.1023  -25.9718   19.0666 H   0  0  0  0  0  0
  -23.9894  -27.2660   19.0731 H   0  0  0  0  0  0
  -23.6969  -30.5861   19.4002 H   0  0  0  0  0  0
  -22.7292  -29.2252   19.8805 H   0  0  0  0  0  0
  -25.1300  -36.1998   25.0839 H   0  0  0  0  0  0
  -20.9942  -28.3194   24.1458 H   0  0  0  0  0  0
  -20.5624  -26.2254   23.3618 H   0  0  0  0  0  0
  -21.6620  -26.7420   22.1226 H   0  0  0  0  0  0
  -19.6887  -25.6288   21.1236 H   0  0  0  0  0  0
  -19.6690  -27.3197   20.6756 H   0  0  0  0  0  0
  -17.4193  -26.6703   21.3979 H   0  0  0  0  0  0
  -18.0274  -26.0046   22.8975 H   0  0  0  0  0  0
  -19.7922  -30.7242   24.2289 H   0  0  0  0  0  0
  -17.5001  -31.6264   24.5144 H   0  0  0  0  0  0
  -15.5333  -30.2988   23.7642 H   0  0  0  0  0  0
  -15.8647  -28.0823   22.7049 H   0  0  0  0  0  0
  -24.5875  -30.7100   25.7799 H   0  0  0  0  0  0
  -24.8975  -32.2857   26.4988 H   0  0  0  0  0  0
  -25.8090  -30.8802   27.0188 H   0  0  0  0  0  0
  -26.2799  -29.6817   24.1135 H   0  0  0  0  0  0
  -27.4092  -29.7295   25.4490 H   0  0  0  0  0  0
  -27.8612  -30.4387   23.9152 H   0  0  0  0  0  0
  -27.2673  -33.3615   26.2059 H   0  0  0  0  0  0
  -28.3843  -32.6875   25.0282 H   0  0  0  0  0  0
  -28.0712  -31.8422   26.5363 H   0  0  0  0  0  0
  -28.2625  -38.0105   24.7507 H   0  0  0  0  0  0
  -28.1070  -36.2642   24.6308 H   0  0  0  0  0  0
  -27.2306  -37.1491   25.8869 H   0  0  0  0  0  0
  -20.9247  -29.8743   21.6987 H   0  0  0  0  0  0
  -26.0203  -38.2893   24.1397 H   0  0  0  0  0  0
  -31.7332  -18.3979   19.0478 H   0  0  0  0  0  0
  -32.1063  -20.3881   17.6543 H   0  0  0  0  0  0
  -29.4915  -20.7942   21.8669 H   0  0  0  0  0  0
  -33.3923  -22.7107   17.6831 H   0  0  0  0  0  0
  -32.3971  -22.7487   16.1797 H   0  0  0  0  0  0
  -31.7596  -25.0923   16.6100 H   0  0  0  0  0  0
  -33.3132  -25.1513   17.5291 H   0  0  0  0  0  0
  -28.3154  -17.8969   20.7599 H   0  0  0  0  0  0
  -29.5140  -17.1057   19.7673 H   0  0  0  0  0  0
  -32.1647  -17.1695   20.8291 H   0  0  0  0  0  0
  -32.2978  -17.9650   22.3693 H   0  0  0  0  0  0
  -28.2297  -15.4941   21.1346 H   0  0  0  0  0  0
  -28.7148  -16.2557   22.5993 H   0  0  0  0  0  0
  -30.8888  -16.2135   23.4337 H   0  0  0  0  0  0
  -32.2023  -15.4574   22.5835 H   0  0  0  0  0  0
  -29.9588  -18.5555   22.4019 H   0  0  0  0  0  0
  -30.3491  -23.0463   17.4335 H   0  0  0  0  0  0
  -32.2697  -24.2037   19.5413 H   0  0  0  0  0  0
  -30.9989  -26.1082   20.7650 H   0  0  0  0  0  0
  -31.6623  -26.8769   19.3348 H   0  0  0  0  0  0
  -29.5236  -27.8787   18.7506 H   0  0  0  0  0  0
  -29.8371  -28.1957   20.4505 H   0  0  0  0  0  0
  -29.7816  -24.6500   19.5133 H   0  0  0  0  0  0
  -29.9816  -25.4414   18.1019 H   0  0  0  0  0  0
  1 25  1  0  0  0
  1 30  2  0  0  0
  1 88  1  0  0  0
  2  3  1  0  0  0
  2 25  1  0  0  0
  2 91  1  0  0  0
  2 92  1  0  0  0
  3  4  1  0  0  0
  3 93  1  0  0  0
  3 94  1  0  0  0
  4  5  1  0  0  0
  4 95  1  0  0  0
  4 96  1  0  0  0
  5  6  1  0  0  0
  5 26  1  0  0  0
  5 97  1  0  0  0
  6 25  1  0  0  0
  6 98  1  0  0  0
  6 99  1  0  0  0
  7  8  2  0  0  0
  7 26  1  0  0  0
  7 29  1  0  0  0
  8  9  1  0  0  0
  8 22  1  0  0  0
  9 10  1  0  0  0
  9 27  2  0  0  0
 10 11  2  0  0  0
 10 15  1  0  0  0
 11 12  1  0  0  0
 11100  1  0  0  0
 12 13  2  0  0  0
 12101  1  0  0  0
 13 14  1  0  0  0
 13 31  1  0  0  0
 14 15  2  0  0  0
 14102  1  0  0  0
 15103  1  0  0  0
 16 17  2  0  0  0
 16 21  1  0  0  0
 16 31  1  0  0  0
 17 18  1  0  0  0
 17104  1  0  0  0
 18 19  2  0  0  0
 18105  1  0  0  0
 19 20  1  0  0  0
 19 24  1  0  0  0
 20 21  2  0  0  0
 20106  1  0  0  0
 21 23  1  0  0  0
 22 28  1  0  0  0
 22 32  2  0  0  0
 26 27  1  0  0  0
 28107  1  0  0  0
 28108  1  0  0  0
 29109  1  0  0  0
 29110  1  0  0  0
 33 34  1  0  0  0
 33 66  1  0  0  0
 33 70  2  0  0  0
 34 36  1  0  0  0
 34 59  1  0  0  0
 34111  1  0  0  0
 35 44  2  0  0  0
 35 45  1  0  0  0
 35 68  1  0  0  0
 36 56  1  0  0  0
 36112  1  0  0  0
 37 39  1  0  0  0
 37 47  1  0  0  0
 37 66  1  0  0  0
 37113  1  0  0  0
 38 43  2  0  0  0
 38 46  1  0  0  0
 38 47  1  0  0  0
 39 64  1  0  0  0
 39 67  2  0  0  0
 40 52  1  0  0  0
 40 53  2  0  0  0
 40 58  1  0  0  0
 41114  1  0  0  0
 41115  1  0  0  0
 41116  1  0  0  0
 41 48  1  0  0  0
 42 43  1  0  0  0
 42 66  1  0  0  0
 42117  1  0  0  0
 42118  1  0  0  0
 43 44  1  0  0  0
 44119  1  0  0  0
 45 46  2  0  0  0
 45120  1  0  0  0
 46121  1  0  0  0
 47122  1  0  0  0
 47123  1  0  0  0
 48 56  1  0  0  0
 48 65  1  0  0  0
 48124  1  0  0  0
 49 50  1  0  0  0
 49 53  1  0  0  0
 49 64  1  0  0  0
 49125  1  0  0  0
 50 51  1  0  0  0
 50126  1  0  0  0
 50127  1  0  0  0
 51 52  1  0  0  0
 51128  1  0  0  0
 51129  1  0  0  0
 52130  1  0  0  0
 52131  1  0  0  0
 53 54  1  0  0  0
 54 55  2  0  0  0
 54132  1  0  0  0
 55 57  1  0  0  0
 55133  1  0  0  0
 56 69  2  0  0  0
 57 58  2  0  0  0
 57134  1  0  0  0
 58135  1  0  0  0
 59 60  1  0  0  0
 59 61  1  0  0  0
 59 62  1  0  0  0
 60136  1  0  0  0
 60137  1  0  0  0
 60138  1  0  0  0
 61139  1  0  0  0
 61140  1  0  0  0
 61141  1  0  0  0
 62142  1  0  0  0
 62143  1  0  0  0
 62144  1  0  0  0
 63 65  1  0  0  0
 63145  1  0  0  0
 63146  1  0  0  0
 63147  1  0  0  0
 64148  1  0  0  0
 65149  1  0  0  0
 68 87  1  0  0  0
 71 72  2  0  0  0
 71 74  1  0  0  0
 71150  1  0  0  0
 72 75  1  0  0  0
 72151  1  0  0  0
 73 74  2  0  0  0
 73 76  1  0  0  0
 73152  1  0  0  0
 74 83  1  0  0  0
 75 76  2  0  0  0
 75 84  1  0  0  0
 76 90  1  0  0  0
 77 78  1  0  0  0
 77 84  1  0  0  0
 77153  1  0  0  0
 77154  1  0  0  0
 78 85  1  0  0  0
 78155  1  0  0  0
 78156  1  0  0  0
 79 81  1  0  0  0
 79 83  1  0  0  0
 79157  1  0  0  0
 79158  1  0  0  0
 80 82  1  0  0  0
 80 83  1  0  0  0
 80159  1  0  0  0
 80160  1  0  0  0
 81 88  1  0  0  0
 81161  1  0  0  0
 81162  1  0  0  0
 82 88  1  0  0  0
 82163  1  0  0  0
 82164  1  0  0  0
 83165  1  0  0  0
 84 85  1  0  0  0
 84166  1  0  0  0
 85 89  1  0  0  0
 85167  1  0  0  0
 86 87  1  0  0  0
 86 89  1  0  0  0
 86168  1  0  0  0
 86169  1  0  0  0
 87170  1  0  0  0
 87171  1  0  0  0
 89172  1  0  0  0
 89173  1  0  0  0
M  CHG  1  89   1
M  ISO  4   1 100  68 101  87 101  88 100
M  END
> <chiral flag>
0

> <version>
0

> <s_m_source_file>
/data/baiqing/PycharmProjects/Reinvent-master-3.2/result/LINK_invent/BTK/process_docking_weight1_custom_sum_contain_oxygen_bond_distance_aromatic_linkinvent_7_9_3/rearranged_h_0164.sdf

> <i_m_source_file_index>
62

> <r_mmod_Potential_Energy-OPLS-2005>
30.1515655517578

> <r_mmod_Stretch_Energy-OPLS-2005>
36.4367866516113

> <r_mmod_Bend_Energy-OPLS-2005>
118.090782165527

> <r_mmod_Torsional_Energy-OPLS-2005>
351.737121582031

> <r_mmod_Improper_Torsional_Energy-OPLS-2005>
5.97093296051025

> <r_mmod_Van_der_Waal_Energy-OPLS-2005>
166.84814453125

> <r_mmod_Electrostatic_Energy-OPLS-2005>
-255.193313598633

> <r_mmod_Solvation_Energy-OPLS-2005>
-401.338623046875

> <b_mmod_Minimization_Converged-OPLS-2005>
0

> <r_mmod_RMS_Derivative-OPLS-2005>
1.30386972427368

$$$$
62
                    3D
 Structure written by MMmdl.
178187  0  0  1  0            999 V2000
  -30.5785  -14.8109   20.3430 C   0  0  0  0  0  0
  -30.4359  -12.4462   19.4967 C   0  0  0  0  0  0
  -29.5143  -12.3492   18.2586 C   0  0  0  0  0  0
  -28.0205  -12.3192   18.6341 C   0  0  0  0  0  0
  -27.6335  -13.2402   19.8231 C   0  0  2  0  0  0
  -28.6776  -13.2276   20.9531 C   0  0  0  0  0  0
  -25.2517  -13.8266   20.5647 C   0  0  0  0  0  0
  -24.1802  -13.0475   20.9200 C   0  0  0  0  0  0
  -24.6420  -11.6963   20.8759 C   0  0  0  0  0  0
  -23.9086  -10.4325   21.0431 C   0  0  0  0  0  0
  -24.3627   -9.4226   21.9206 C   0  0  0  0  0  0
  -23.6285   -8.2262   22.0774 C   0  0  0  0  0  0
  -22.4279   -8.0303   21.3553 C   0  0  0  0  0  0
  -21.9928   -9.0284   20.4639 C   0  0  0  0  0  0
  -22.7270  -10.2165   20.3061 C   0  0  0  0  0  0
  -21.6868   -6.0721   22.5280 C   0  0  0  0  0  0
  -21.4027   -6.5632   23.8204 C   0  0  0  0  0  0
  -21.3676   -5.6790   24.9174 C   0  0  0  0  0  0
  -21.6059   -4.3047   24.7215 C   0  0  0  0  0  0
  -21.8819   -3.8132   23.4342 C   0  0  0  0  0  0
  -21.9197   -4.6940   22.3399 C   0  0  0  0  0  0
  -22.7817  -13.5242   21.1851 C   0  0  0  0  0  0
  -22.1670   -4.2133   21.0977 F   0  0  0  0  0  0
  -21.5629   -3.4536   25.7739 F   0  0  0  0  0  0
  -29.9753  -13.5632   20.3571 N   0  0  0  0  0  0
  -26.2920  -12.9469   20.3172 N   0  0  0  0  0  0
  -25.9349  -11.6631   20.5773 N   0  0  0  0  0  0
  -22.0459  -12.8226   22.0395 N   0  0  0  0  0  0
  -25.4232  -15.1996   20.4061 N   0  0  0  0  0  0
  -31.7892  -14.8514   20.1036 O   0  0  0  0  0  0
  -21.6654   -6.8878   21.4251 O   0  0  0  0  0  0
  -22.3494  -14.5517   20.6675 O   0  0  0  0  0  0
  -24.6319  -31.8544   23.2001 C   0  0  0  0  0  0
  -25.9160  -32.4734   23.8331 C   0  0  1  0  0  0
  -27.2041  -27.2712   20.1457 C   0  0  0  0  0  0
  -25.5957  -33.8533   24.2263 N   0  0  0  0  0  0
  -23.4269  -30.4811   21.5402 C   0  0  2  0  0  0
  -24.8729  -28.9268   20.1108 C   0  0  0  0  0  0
  -22.7493  -29.4620   22.4880 C   0  0  0  0  0  0
  -18.0290  -28.1401   22.8469 C   0  0  0  0  0  0
  -24.1494  -36.7290   23.2638 C   0  0  0  0  0  0
  -25.9708  -30.7729   21.3775 C   0  0  0  0  0  0
  -26.0421  -29.3957   20.7239 C   0  0  0  0  0  0
  -27.2172  -28.5793   20.7308 C   0  0  0  0  0  0
  -26.0212  -26.8679   19.4962 C   0  0  0  0  0  0
  -24.8671  -27.6735   19.4815 C   0  0  0  0  0  0
  -23.6468  -29.8178   20.1543 C   0  0  0  0  0  0
  -25.4118  -36.3057   24.0318 C   0  0  1  0  0  0
  -20.5896  -28.3733   23.1248 C   0  0  2  0  0  0
  -20.6789  -26.9454   22.5396 C   0  0  0  0  0  0
  -19.5761  -26.6405   21.5200 C   0  0  0  0  0  0
  -18.1939  -26.7945   22.1610 C   0  0  0  0  0  0
  -19.1544  -28.8879   23.2858 C   0  0  0  0  0  0
  -18.9467  -30.1472   23.8897 C   0  0  0  0  0  0
  -17.6467  -30.6608   24.0574 C   0  0  0  0  0  0
  -25.9054  -34.9422   23.5078 C   0  0  0  0  0  0
  -16.5358  -29.9112   23.6332 C   0  0  0  0  0  0
  -16.7274  -28.6528   23.0347 C   0  0  0  0  0  0
  -26.4539  -31.6547   25.0704 C   0  0  0  0  0  0
  -25.3790  -31.3646   26.1433 C   0  0  0  0  0  0
  -27.0401  -30.2964   24.6190 C   0  0  0  0  0  0
  -27.6081  -32.4301   25.7507 C   0  0  0  0  0  0
  -27.5584  -37.1799   24.8465 C   0  0  0  0  0  0
  -21.4198  -29.3079   22.3641 N   0  0  0  0  0  0
  -26.4299  -37.3767   23.9401 N   0  0  0  0  0  0
  -24.6945  -31.0549   22.0968 N   0  0  0  0  0  0
  -23.4199  -28.8154   23.2982 O   0  0  0  0  0  0
  -28.2803  -26.3677   20.1675 O   0  0  0  0  0  0
  -26.5624  -34.8903   22.4650 O   0  0  0  0  0  0
  -23.5467  -32.1364   23.7312 O   0  0  0  0  0  0
  -30.0425  -19.6853   18.2592 C   0  0  0  0  0  0
  -30.9693  -19.2451   17.2822 C   0  0  0  0  0  0
  -31.0474  -17.8583   17.0765 C   0  0  0  0  0  0
  -30.4110  -16.9748   17.9842 C   0  0  0  0  0  0
  -29.9900  -17.3961   19.2865 C   0  0  0  0  0  0
  -29.7040  -18.8536   19.3456 C   0  0  0  0  0  0
  -28.6633  -21.0241   19.6967 C   0  0  2  0  0  0
  -29.1465  -20.9382   18.2005 C   0  0  0  0  0  0
  -31.7946  -20.1735   16.3911 C   0  0  0  0  0  0
  -31.7095  -17.3534   15.7950 C   0  0  0  0  0  0
  -30.0284  -15.6148   17.4417 C   0  0  0  0  0  0
  -29.0391  -23.4906   17.2959 C   0  0  0  0  0  0
  -28.1406  -20.2106   15.8333 C   0  0  0  0  0  0
  -29.7693  -16.2383   20.4050 C   0  0  0  0  0  0
  -28.9722  -22.4256   20.4580 C   0  0  0  0  0  0
  -29.8453  -22.2119   17.5943 C   0  0  0  0  0  0
  -27.9005  -20.5691   17.3177 C   0  0  0  0  0  0
  -28.1451  -25.1431   21.0185 C   0  0  0  0  0  0
  -27.8622  -23.6111   20.5439 C   0  0  1  0  0  0
  -29.0559  -19.6864   20.2773 O   0  0  0  0  0  0
  -26.8582  -23.5651   19.5465 O   0  0  0  0  0  0
  -31.4744  -12.5622   19.1785 H   0  0  0  0  0  0
  -30.4057  -11.5120   20.0606 H   0  0  0  0  0  0
  -29.7536  -11.4427   17.7008 H   0  0  0  0  0  0
  -29.7133  -13.1367   17.5475 H   0  0  0  0  0  0
  -27.7817  -11.2817   18.8731 H   0  0  0  0  0  0
  -27.4145  -12.5711   17.7624 H   0  0  0  0  0  0
  -27.6089  -14.2489   19.4135 H   0  0  0  0  0  0
  -28.7156  -12.2560   21.4478 H   0  0  0  0  0  0
  -28.4115  -13.9536   21.7235 H   0  0  0  0  0  0
  -25.2794   -9.5689   22.4744 H   0  0  0  0  0  0
  -24.0018   -7.4650   22.7501 H   0  0  0  0  0  0
  -21.0885   -8.8787   19.8903 H   0  0  0  0  0  0
  -22.3771  -10.9680   19.6128 H   0  0  0  0  0  0
  -21.2029   -7.6140   23.9709 H   0  0  0  0  0  0
  -21.1506   -6.0513   25.9082 H   0  0  0  0  0  0
  -22.0581   -2.7582   23.2843 H   0  0  0  0  0  0
  -22.4112  -11.9903   22.4793 H   0  0  0  0  0  0
  -21.1071  -13.1212   22.2581 H   0  0  0  0  0  0
  -24.6613  -15.8595   20.5085 H   0  0  0  0  0  0
  -26.2812  -15.6375   20.0910 H   0  0  0  0  0  0
  -26.7221  -32.5393   23.1067 H   0  0  0  0  0  0
  -25.0130  -33.9666   25.0424 H   0  0  0  0  0  0
  -22.7232  -31.3040   21.3940 H   0  0  0  0  0  0
  -23.3752  -35.9625   23.3263 H   0  0  0  0  0  0
  -24.3593  -36.8960   22.2063 H   0  0  0  0  0  0
  -23.7250  -37.6473   23.6697 H   0  0  0  0  0  0
  -26.1070  -31.5310   20.6051 H   0  0  0  0  0  0
  -26.8498  -30.8222   22.0077 H   0  0  0  0  0  0
  -28.1174  -28.9285   21.2172 H   0  0  0  0  0  0
  -25.9829  -25.9126   18.9955 H   0  0  0  0  0  0
  -23.9754  -27.3180   18.9837 H   0  0  0  0  0  0
  -23.7802  -30.5953   19.4007 H   0  0  0  0  0  0
  -22.7617  -29.2583   19.8445 H   0  0  0  0  0  0
  -25.1299  -36.1898   25.0812 H   0  0  0  0  0  0
  -20.9983  -28.3329   24.1368 H   0  0  0  0  0  0
  -20.5722  -26.2348   23.3600 H   0  0  0  0  0  0
  -21.6654  -26.7507   22.1174 H   0  0  0  0  0  0
  -19.6943  -25.6314   21.1237 H   0  0  0  0  0  0
  -19.6688  -27.3210   20.6714 H   0  0  0  0  0  0
  -17.4219  -26.6690   21.4012 H   0  0  0  0  0  0
  -18.0341  -26.0089   22.9000 H   0  0  0  0  0  0
  -19.7940  -30.7278   24.2285 H   0  0  0  0  0  0
  -17.5026  -31.6275   24.5189 H   0  0  0  0  0  0
  -15.5364  -30.3023   23.7647 H   0  0  0  0  0  0
  -15.8667  -28.0853   22.7058 H   0  0  0  0  0  0
  -24.6001  -30.6949   25.7762 H   0  0  0  0  0  0
  -24.8944  -32.2780   26.4885 H   0  0  0  0  0  0
  -25.8159  -30.8822   27.0189 H   0  0  0  0  0  0
  -26.2963  -29.6655   24.1298 H   0  0  0  0  0  0
  -27.4162  -29.7277   25.4709 H   0  0  0  0  0  0
  -27.8813  -30.4211   23.9367 H   0  0  0  0  0  0
  -27.2675  -33.3622   26.2034 H   0  0  0  0  0  0
  -28.3941  -32.6824   25.0375 H   0  0  0  0  0  0
  -28.0689  -31.8449   26.5477 H   0  0  0  0  0  0
  -28.2571  -38.0130   24.7547 H   0  0  0  0  0  0
  -28.1114  -36.2653   24.6254 H   0  0  0  0  0  0
  -27.2294  -37.1401   25.8868 H   0  0  0  0  0  0
  -20.9396  -29.8793   21.6824 H   0  0  0  0  0  0
  -26.0156  -38.2832   24.1420 H   0  0  0  0  0  0
  -27.5740  -20.9657   19.7099 H   0  0  0  0  0  0
  -31.2579  -20.4271   15.4758 H   0  0  0  0  0  0
  -32.7448  -19.7269   16.1065 H   0  0  0  0  0  0
  -32.0927  -21.0778   16.9185 H   0  0  0  0  0  0
  -32.7874  -17.5083   15.8348 H   0  0  0  0  0  0
  -31.3158  -17.9111   14.9452 H   0  0  0  0  0  0
  -31.5568  -16.2995   15.5808 H   0  0  0  0  0  0
  -29.6269  -15.7087   16.4288 H   0  0  0  0  0  0
  -29.2084  -15.1893   18.0134 H   0  0  0  0  0  0
  -30.8851  -14.9410   17.4122 H   0  0  0  0  0  0
  -28.8653  -24.1016   18.1734 H   0  0  0  0  0  0
  -28.0849  -23.2889   16.8106 H   0  0  0  0  0  0
  -29.6034  -24.1193   16.6074 H   0  0  0  0  0  0
  -27.2102  -19.8928   15.3598 H   0  0  0  0  0  0
  -28.8364  -19.3787   15.7180 H   0  0  0  0  0  0
  -28.5212  -21.0548   15.2602 H   0  0  0  0  0  0
  -28.7045  -16.0268   20.4540 H   0  0  0  0  0  0
  -30.0154  -16.6840   21.3684 H   0  0  0  0  0  0
  -29.9165  -22.8421   20.1196 H   0  0  0  0  0  0
  -29.1941  -22.1525   21.4904 H   0  0  0  0  0  0
  -30.1697  -21.9681   16.5915 H   0  0  0  0  0  0
  -30.7464  -22.4662   18.1526 H   0  0  0  0  0  0
  -27.1695  -21.3764   17.3616 H   0  0  0  0  0  0
  -27.3896  -19.7120   17.7614 H   0  0  0  0  0  0
  -29.0496  -25.1060   21.6257 H   0  0  0  0  0  0
  -27.3694  -25.3798   21.7516 H   0  0  0  0  0  0
  -27.2935  -23.2463   21.4012 H   0  0  0  0  0  0
  -26.1430  -24.1169   19.8449 H   0  0  0  0  0  0
  1 25  1  0  0  0
  1 30  2  0  0  0
  1 84  1  0  0  0
  2  3  1  0  0  0
  2 25  1  0  0  0
  2 92  1  0  0  0
  2 93  1  0  0  0
  3  4  1  0  0  0
  3 94  1  0  0  0
  3 95  1  0  0  0
  4  5  1  0  0  0
  4 96  1  0  0  0
  4 97  1  0  0  0
  5  6  1  0  0  0
  5 26  1  0  0  0
  5 98  1  0  0  0
  6 25  1  0  0  0
  6 99  1  0  0  0
  6100  1  0  0  0
  7  8  2  0  0  0
  7 26  1  0  0  0
  7 29  1  0  0  0
  8  9  1  0  0  0
  8 22  1  0  0  0
  9 10  1  0  0  0
  9 27  2  0  0  0
 10 11  2  0  0  0
 10 15  1  0  0  0
 11 12  1  0  0  0
 11101  1  0  0  0
 12 13  2  0  0  0
 12102  1  0  0  0
 13 14  1  0  0  0
 13 31  1  0  0  0
 14 15  2  0  0  0
 14103  1  0  0  0
 15104  1  0  0  0
 16 17  2  0  0  0
 16 21  1  0  0  0
 16 31  1  0  0  0
 17 18  1  0  0  0
 17105  1  0  0  0
 18 19  2  0  0  0
 18106  1  0  0  0
 19 20  1  0  0  0
 19 24  1  0  0  0
 20 21  2  0  0  0
 20107  1  0  0  0
 21 23  1  0  0  0
 22 28  1  0  0  0
 22 32  2  0  0  0
 26 27  1  0  0  0
 28108  1  0  0  0
 28109  1  0  0  0
 29110  1  0  0  0
 29111  1  0  0  0
 33 34  1  0  0  0
 33 66  1  0  0  0
 33 70  2  0  0  0
 34 36  1  0  0  0
 34 59  1  0  0  0
 34112  1  0  0  0
 35 44  2  0  0  0
 35 45  1  0  0  0
 35 68  1  0  0  0
 36 56  1  0  0  0
 36113  1  0  0  0
 37 39  1  0  0  0
 37 47  1  0  0  0
 37 66  1  0  0  0
 37114  1  0  0  0
 38 43  2  0  0  0
 38 46  1  0  0  0
 38 47  1  0  0  0
 39 64  1  0  0  0
 39 67  2  0  0  0
 40 52  1  0  0  0
 40 53  2  0  0  0
 40 58  1  0  0  0
 41115  1  0  0  0
 41116  1  0  0  0
 41117  1  0  0  0
 41 48  1  0  0  0
 42 43  1  0  0  0
 42 66  1  0  0  0
 42118  1  0  0  0
 42119  1  0  0  0
 43 44  1  0  0  0
 44120  1  0  0  0
 45 46  2  0  0  0
 45121  1  0  0  0
 46122  1  0  0  0
 47123  1  0  0  0
 47124  1  0  0  0
 48 56  1  0  0  0
 48 65  1  0  0  0
 48125  1  0  0  0
 49 50  1  0  0  0
 49 53  1  0  0  0
 49 64  1  0  0  0
 49126  1  0  0  0
 50 51  1  0  0  0
 50127  1  0  0  0
 50128  1  0  0  0
 51 52  1  0  0  0
 51129  1  0  0  0
 51130  1  0  0  0
 52131  1  0  0  0
 52132  1  0  0  0
 53 54  1  0  0  0
 54 55  2  0  0  0
 54133  1  0  0  0
 55 57  1  0  0  0
 55134  1  0  0  0
 56 69  2  0  0  0
 57 58  2  0  0  0
 57135  1  0  0  0
 58136  1  0  0  0
 59 60  1  0  0  0
 59 61  1  0  0  0
 59 62  1  0  0  0
 60137  1  0  0  0
 60138  1  0  0  0
 60139  1  0  0  0
 61140  1  0  0  0
 61141  1  0  0  0
 61142  1  0  0  0
 62143  1  0  0  0
 62144  1  0  0  0
 62145  1  0  0  0
 63 65  1  0  0  0
 63146  1  0  0  0
 63147  1  0  0  0
 63148  1  0  0  0
 64149  1  0  0  0
 65150  1  0  0  0
 68 88  1  0  0  0
 71 72  2  0  0  0
 71 76  1  0  0  0
 71 78  1  0  0  0
 72 73  1  0  0  0
 72 79  1  0  0  0
 73 74  2  0  0  0
 73 80  1  0  0  0
 74 75  1  0  0  0
 74 81  1  0  0  0
 75 76  2  0  0  0
 75 84  1  0  0  0
 76 90  1  0  0  0
 77 78  1  0  0  0
 77 85  1  0  0  0
 77 90  1  0  0  0
 77151  1  0  0  0
 78 86  1  0  0  0
 78 87  1  0  0  0
 79152  1  0  0  0
 79153  1  0  0  0
 79154  1  0  0  0
 80155  1  0  0  0
 80156  1  0  0  0
 80157  1  0  0  0
 81158  1  0  0  0
 81159  1  0  0  0
 81160  1  0  0  0
 82 86  1  0  0  0
 82161  1  0  0  0
 82162  1  0  0  0
 82163  1  0  0  0
 83 87  1  0  0  0
 83164  1  0  0  0
 83165  1  0  0  0
 83166  1  0  0  0
 84167  1  0  0  0
 84168  1  0  0  0
 85 89  1  0  0  0
 85169  1  0  0  0
 85170  1  0  0  0
 86171  1  0  0  0
 86172  1  0  0  0
 87173  1  0  0  0
 87174  1  0  0  0
 88 89  1  0  0  0
 88175  1  0  0  0
 88176  1  0  0  0
 89 91  1  0  0  0
 89177  1  0  0  0
 91178  1  0  0  0
M  ISO  4   1 100  68 101  84 100  88 101
M  END
> <chiral flag>
0

> <version>
0

> <s_m_source_file>
/data/baiqing/PycharmProjects/Reinvent-master-3.2/result/LINK_invent/BTK/process_docking_weight1_custom_sum_contain_oxygen_bond_distance_aromatic_linkinvent_7_9_3/rearranged_h_0164.sdf

> <i_m_source_file_index>
63

> <r_mmod_Potential_Energy-OPLS-2005>
593.874633789062

> <r_mmod_Stretch_Energy-OPLS-2005>
165.918930053711

> <r_mmod_Bend_Energy-OPLS-2005>
304.069549560547

> <r_mmod_Torsional_Energy-OPLS-2005>
383.306365966797

> <r_mmod_Improper_Torsional_Energy-OPLS-2005>
6.61341381072998

> <r_mmod_Van_der_Waal_Energy-OPLS-2005>
169.723327636719

> <r_mmod_Electrostatic_Energy-OPLS-2005>
-332.750305175781

> <r_mmod_Solvation_Energy-OPLS-2005>
-211.238464355469

> <b_mmod_Minimization_Converged-OPLS-2005>
0

> <r_mmod_RMS_Derivative-OPLS-2005>
4.49977350234985

$$$$
63
                    3D
 Structure written by MMmdl.
157166  0  0  1  0            999 V2000
  -30.4836  -15.1848   20.3826 C   0  0  0  0  0  0
  -30.4356  -12.7548   19.5143 C   0  0  0  0  0  0
  -29.5283  -12.5587   18.2760 C   0  0  0  0  0  0
  -28.0744  -12.2980   18.7068 C   0  0  0  0  0  0
  -27.6134  -13.2695   19.8227 C   0  0  2  0  0  0
  -28.6510  -13.4206   20.9551 C   0  0  0  0  0  0
  -25.2401  -13.8245   20.5742 C   0  0  0  0  0  0
  -24.1746  -13.0440   20.9256 C   0  0  0  0  0  0
  -24.6394  -11.6934   20.8765 C   0  0  0  0  0  0
  -23.9089  -10.4294   21.0411 C   0  0  0  0  0  0
  -24.3634   -9.4206   21.9187 C   0  0  0  0  0  0
  -23.6303   -8.2244   22.0755 C   0  0  0  0  0  0
  -22.4285   -8.0284   21.3546 C   0  0  0  0  0  0
  -21.9926   -9.0259   20.4645 C   0  0  0  0  0  0
  -22.7261  -10.2135   20.3056 C   0  0  0  0  0  0
  -21.6855   -6.0740   22.5277 C   0  0  0  0  0  0
  -21.4013   -6.5641   23.8212 C   0  0  0  0  0  0
  -21.3657   -5.6794   24.9172 C   0  0  0  0  0  0
  -21.6043   -4.3057   24.7221 C   0  0  0  0  0  0
  -21.8821   -3.8149   23.4343 C   0  0  0  0  0  0
  -21.9192   -4.6967   22.3399 C   0  0  0  0  0  0
  -22.7763  -13.5193   21.1902 C   0  0  0  0  0  0
  -22.1662   -4.2155   21.0977 F   0  0  0  0  0  0
  -21.5627   -3.4538   25.7733 F   0  0  0  0  0  0
  -29.8913  -13.8994   20.3266 N   0  0  0  0  0  0
  -26.2822  -12.9508   20.3221 N   0  0  0  0  0  0
  -25.9329  -11.6619   20.5730 N   0  0  0  0  0  0
  -22.0419  -12.8176   22.0455 N   0  0  0  0  0  0
  -25.4041  -15.1978   20.4172 N   0  0  0  0  0  0
  -31.7047  -15.1688   20.1785 O   0  0  0  0  0  0
  -21.6642   -6.8885   21.4242 O   0  0  0  0  0  0
  -22.3443  -14.5493   20.6740 O   0  0  0  0  0  0
  -24.6597  -31.8292   23.1754 C   0  0  0  0  0  0
  -25.9300  -32.4617   23.8200 C   0  0  1  0  0  0
  -27.2112  -26.9729   20.1709 C   0  0  0  0  0  0
  -25.5985  -33.8429   24.2107 N   0  0  0  0  0  0
  -23.4713  -30.4449   21.5242 C   0  0  2  0  0  0
  -24.9226  -28.8459   20.1100 C   0  0  0  0  0  0
  -22.7652  -29.4481   22.4799 C   0  0  0  0  0  0
  -18.0318  -28.1412   22.8470 C   0  0  0  0  0  0
  -24.1486  -36.7210   23.2648 C   0  0  0  0  0  0
  -26.0395  -30.6499   21.4001 C   0  0  0  0  0  0
  -26.1069  -29.2455   20.7422 C   0  0  0  0  0  0
  -27.2480  -28.3289   20.7519 C   0  0  0  0  0  0
  -25.9989  -26.7232   19.4857 C   0  0  0  0  0  0
  -24.8913  -27.6032   19.4630 C   0  0  0  0  0  0
  -23.7075  -29.7678   20.1476 C   0  0  0  0  0  0
  -25.4127  -36.2982   24.0306 C   0  0  1  0  0  0
  -20.5944  -28.3754   23.1194 C   0  0  2  0  0  0
  -20.6800  -26.9442   22.5398 C   0  0  0  0  0  0
  -19.5770  -26.6385   21.5213 C   0  0  0  0  0  0
  -18.1951  -26.7947   22.1621 C   0  0  0  0  0  0
  -19.1580  -28.8903   23.2819 C   0  0  0  0  0  0
  -18.9493  -30.1493   23.8854 C   0  0  0  0  0  0
  -17.6488  -30.6605   24.0554 C   0  0  0  0  0  0
  -25.9093  -34.9366   23.5023 C   0  0  0  0  0  0
  -16.5378  -29.9093   23.6348 C   0  0  0  0  0  0
  -16.7299  -28.6511   23.0370 C   0  0  0  0  0  0
  -26.4561  -31.6547   25.0710 C   0  0  0  0  0  0
  -25.3692  -31.3794   26.1368 C   0  0  0  0  0  0
  -27.0457  -30.2919   24.6423 C   0  0  0  0  0  0
  -27.6054  -32.4354   25.7512 C   0  0  0  0  0  0
  -27.5564  -37.1764   24.8469 C   0  0  0  0  0  0
  -21.4326  -29.3053   22.3550 N   0  0  0  0  0  0
  -26.4271  -37.3717   23.9416 N   0  0  0  0  0  0
  -24.7447  -31.0002   22.0867 N   0  0  0  0  0  0
  -23.4221  -28.8044   23.3018 O   0  0  0  0  0  0
  -28.1960  -25.8645   20.2548 O   0  0  0  0  0  0
  -26.5693  -34.8895   22.4612 O   0  0  0  0  0  0
  -23.5676  -32.1242   23.6872 O   0  0  0  0  0  0
  -29.4145  -22.1862   21.1476 C   0  0  0  0  0  0
  -28.5686  -20.1623   19.4760 C   0  0  0  0  0  0
  -29.8687  -20.7758   21.2793 C   0  0  0  0  0  0
  -29.4783  -19.6178   20.4627 C   0  0  0  0  0  0
  -28.1220  -21.5755   19.3367 C   0  0  0  0  0  0
  -28.5145  -22.7339   20.1540 C   0  0  0  0  0  0
  -30.8706  -20.5269   22.3933 C   0  0  0  0  0  0
  -31.8496  -19.3940   22.0731 C   0  0  0  0  0  0
  -31.1251  -18.0650   21.8352 C   0  0  0  0  0  0
  -30.2210  -18.0409   20.5818 C   0  0  1  0  0  0
  -27.1334  -21.8325   18.2111 C   0  0  0  0  0  0
  -27.7914  -24.3123   20.0064 C   0  0  0  0  0  0
  -29.7573  -16.4641   20.4747 N   0  0  0  0  0  0
  -31.4586  -12.9413   19.1850 H   0  0  0  0  0  0
  -30.4819  -11.8421   20.1103 H   0  0  0  0  0  0
  -29.8928  -11.7333   17.6628 H   0  0  0  0  0  0
  -29.5707  -13.4506   17.6488 H   0  0  0  0  0  0
  -28.0209  -11.2717   19.0722 H   0  0  0  0  0  0
  -27.4042  -12.3514   17.8479 H   0  0  0  0  0  0
  -27.5365  -14.2417   19.3345 H   0  0  0  0  0  0
  -28.8018  -12.4809   21.4887 H   0  0  0  0  0  0
  -28.3060  -14.1476   21.6920 H   0  0  0  0  0  0
  -25.2778   -9.5677   22.4767 H   0  0  0  0  0  0
  -24.0005   -7.4633   22.7478 H   0  0  0  0  0  0
  -21.0858   -8.8784   19.8951 H   0  0  0  0  0  0
  -22.3724  -10.9676   19.6165 H   0  0  0  0  0  0
  -21.2009   -7.6150   23.9716 H   0  0  0  0  0  0
  -21.1474   -6.0522   25.9076 H   0  0  0  0  0  0
  -22.0602   -2.7613   23.2839 H   0  0  0  0  0  0
  -22.4044  -11.9842   22.4844 H   0  0  0  0  0  0
  -21.1031  -13.1188   22.2658 H   0  0  0  0  0  0
  -24.6342  -15.8482   20.5308 H   0  0  0  0  0  0
  -26.2451  -15.6393   20.0700 H   0  0  0  0  0  0
  -26.7369  -32.5168   23.0918 H   0  0  0  0  0  0
  -25.0106  -33.9517   25.0239 H   0  0  0  0  0  0
  -22.7819  -31.2753   21.3591 H   0  0  0  0  0  0
  -23.3764  -35.9524   23.3284 H   0  0  0  0  0  0
  -24.3561  -36.8875   22.2065 H   0  0  0  0  0  0
  -23.7223  -37.6387   23.6711 H   0  0  0  0  0  0
  -26.2179  -31.3954   20.6239 H   0  0  0  0  0  0
  -26.9006  -30.7024   22.0541 H   0  0  0  0  0  0
  -28.1426  -28.6301   21.2790 H   0  0  0  0  0  0
  -25.8563  -25.7799   18.9820 H   0  0  0  0  0  0
  -23.9914  -27.2918   18.9506 H   0  0  0  0  0  0
  -23.8592  -30.5392   19.3919 H   0  0  0  0  0  0
  -22.8178  -29.2212   19.8301 H   0  0  0  0  0  0
  -25.1322  -36.1780   25.0796 H   0  0  0  0  0  0
  -21.0024  -28.3351   24.1320 H   0  0  0  0  0  0
  -20.5687  -26.2374   23.3637 H   0  0  0  0  0  0
  -21.6666  -26.7429   22.1200 H   0  0  0  0  0  0
  -19.6930  -25.6282   21.1276 H   0  0  0  0  0  0
  -19.6705  -27.3171   20.6722 H   0  0  0  0  0  0
  -17.4224  -26.6691   21.4023 H   0  0  0  0  0  0
  -18.0339  -26.0099   22.9025 H   0  0  0  0  0  0
  -19.7968  -30.7320   24.2201 H   0  0  0  0  0  0
  -17.5042  -31.6276   24.5172 H   0  0  0  0  0  0
  -15.5377  -30.2983   23.7700 H   0  0  0  0  0  0
  -15.8696  -28.0813   22.7121 H   0  0  0  0  0  0
  -24.5890  -30.7121   25.7687 H   0  0  0  0  0  0
  -24.8859  -32.2994   26.4662 H   0  0  0  0  0  0
  -25.7927  -30.9055   27.0231 H   0  0  0  0  0  0
  -26.3124  -29.6601   24.1402 H   0  0  0  0  0  0
  -27.3977  -29.7277   25.5069 H   0  0  0  0  0  0
  -27.9068  -30.4118   23.9846 H   0  0  0  0  0  0
  -27.2625  -33.3705   26.1954 H   0  0  0  0  0  0
  -28.3936  -32.6834   25.0391 H   0  0  0  0  0  0
  -28.0641  -31.8567   26.5540 H   0  0  0  0  0  0
  -28.2572  -38.0070   24.7519 H   0  0  0  0  0  0
  -28.1067  -36.2599   24.6290 H   0  0  0  0  0  0
  -27.2283  -37.1398   25.8872 H   0  0  0  0  0  0
  -20.9573  -29.8744   21.6688 H   0  0  0  0  0  0
  -26.0119  -38.2774   24.1431 H   0  0  0  0  0  0
  -29.7861  -22.8952   21.8744 H   0  0  0  0  0  0
  -28.1981  -19.4506   18.7507 H   0  0  0  0  0  0
  -30.3208  -20.3024   23.3084 H   0  0  0  0  0  0
  -31.4371  -21.4382   22.5909 H   0  0  0  0  0  0
  -32.5482  -19.2811   22.9033 H   0  0  0  0  0  0
  -32.4511  -19.6522   21.2002 H   0  0  0  0  0  0
  -30.5181  -17.8424   22.7140 H   0  0  0  0  0  0
  -31.8747  -17.2759   21.7813 H   0  0  0  0  0  0
  -30.9039  -18.0985   19.7328 H   0  0  0  0  0  0
  -26.8112  -20.9090   17.7293 H   0  0  0  0  0  0
  -27.5859  -22.4622   17.4442 H   0  0  0  0  0  0
  -26.2381  -22.3296   18.5860 H   0  0  0  0  0  0
  -26.8545  -24.1971   20.5521 H   0  0  0  0  0  0
  -27.5021  -24.3363   18.9579 H   0  0  0  0  0  0
  -28.7583  -16.3401   20.5422 H   0  0  0  0  0  0
  1 25  1  0  0  0
  1 30  2  0  0  0
  1 83  1  0  0  0
  2  3  1  0  0  0
  2 25  1  0  0  0
  2 84  1  0  0  0
  2 85  1  0  0  0
  3  4  1  0  0  0
  3 86  1  0  0  0
  3 87  1  0  0  0
  4  5  1  0  0  0
  4 88  1  0  0  0
  4 89  1  0  0  0
  5  6  1  0  0  0
  5 26  1  0  0  0
  5 90  1  0  0  0
  6 25  1  0  0  0
  6 91  1  0  0  0
  6 92  1  0  0  0
  7  8  2  0  0  0
  7 26  1  0  0  0
  7 29  1  0  0  0
  8  9  1  0  0  0
  8 22  1  0  0  0
  9 10  1  0  0  0
  9 27  2  0  0  0
 10 11  2  0  0  0
 10 15  1  0  0  0
 11 12  1  0  0  0
 11 93  1  0  0  0
 12 13  2  0  0  0
 12 94  1  0  0  0
 13 14  1  0  0  0
 13 31  1  0  0  0
 14 15  2  0  0  0
 14 95  1  0  0  0
 15 96  1  0  0  0
 16 17  2  0  0  0
 16 21  1  0  0  0
 16 31  1  0  0  0
 17 18  1  0  0  0
 17 97  1  0  0  0
 18 19  2  0  0  0
 18 98  1  0  0  0
 19 20  1  0  0  0
 19 24  1  0  0  0
 20 21  2  0  0  0
 20 99  1  0  0  0
 21 23  1  0  0  0
 22 28  1  0  0  0
 22 32  2  0  0  0
 26 27  1  0  0  0
 28100  1  0  0  0
 28101  1  0  0  0
 29102  1  0  0  0
 29103  1  0  0  0
 33 34  1  0  0  0
 33 66  1  0  0  0
 33 70  2  0  0  0
 34 36  1  0  0  0
 34 59  1  0  0  0
 34104  1  0  0  0
 35 44  2  0  0  0
 35 45  1  0  0  0
 35 68  1  0  0  0
 36 56  1  0  0  0
 36105  1  0  0  0
 37 39  1  0  0  0
 37 47  1  0  0  0
 37 66  1  0  0  0
 37106  1  0  0  0
 38 43  2  0  0  0
 38 46  1  0  0  0
 38 47  1  0  0  0
 39 64  1  0  0  0
 39 67  2  0  0  0
 40 52  1  0  0  0
 40 53  2  0  0  0
 40 58  1  0  0  0
 41107  1  0  0  0
 41108  1  0  0  0
 41109  1  0  0  0
 41 48  1  0  0  0
 42 43  1  0  0  0
 42 66  1  0  0  0
 42110  1  0  0  0
 42111  1  0  0  0
 43 44  1  0  0  0
 44112  1  0  0  0
 45 46  2  0  0  0
 45113  1  0  0  0
 46114  1  0  0  0
 47115  1  0  0  0
 47116  1  0  0  0
 48 56  1  0  0  0
 48 65  1  0  0  0
 48117  1  0  0  0
 49 50  1  0  0  0
 49 53  1  0  0  0
 49 64  1  0  0  0
 49118  1  0  0  0
 50 51  1  0  0  0
 50119  1  0  0  0
 50120  1  0  0  0
 51 52  1  0  0  0
 51121  1  0  0  0
 51122  1  0  0  0
 52123  1  0  0  0
 52124  1  0  0  0
 53 54  1  0  0  0
 54 55  2  0  0  0
 54125  1  0  0  0
 55 57  1  0  0  0
 55126  1  0  0  0
 56 69  2  0  0  0
 57 58  2  0  0  0
 57127  1  0  0  0
 58128  1  0  0  0
 59 60  1  0  0  0
 59 61  1  0  0  0
 59 62  1  0  0  0
 60129  1  0  0  0
 60130  1  0  0  0
 60131  1  0  0  0
 61132  1  0  0  0
 61133  1  0  0  0
 61134  1  0  0  0
 62135  1  0  0  0
 62136  1  0  0  0
 62137  1  0  0  0
 63 65  1  0  0  0
 63138  1  0  0  0
 63139  1  0  0  0
 63140  1  0  0  0
 64141  1  0  0  0
 65142  1  0  0  0
 68 82  1  0  0  0
 71 73  2  0  0  0
 71 76  1  0  0  0
 71143  1  0  0  0
 72 74  2  0  0  0
 72 75  1  0  0  0
 72144  1  0  0  0
 73 74  1  0  0  0
 73 77  1  0  0  0
 74 80  1  0  0  0
 75 76  2  0  0  0
 75 81  1  0  0  0
 76 82  1  0  0  0
 77 78  1  0  0  0
 77145  1  0  0  0
 77146  1  0  0  0
 78 79  1  0  0  0
 78147  1  0  0  0
 78148  1  0  0  0
 79 80  1  0  0  0
 79149  1  0  0  0
 79150  1  0  0  0
 80 83  1  0  0  0
 80151  1  0  0  0
 81152  1  0  0  0
 81153  1  0  0  0
 81154  1  0  0  0
 82155  1  0  0  0
 82156  1  0  0  0
 83157  1  0  0  0
M  ISO  4   1 100  68 101  82 101  83 100
M  END
> <chiral flag>
0

> <version>
0

> <s_m_source_file>
/data/baiqing/PycharmProjects/Reinvent-master-3.2/result/LINK_invent/BTK/process_docking_weight1_custom_sum_contain_oxygen_bond_distance_aromatic_linkinvent_7_9_3/rearranged_h_0164.sdf

> <i_m_source_file_index>
64

> <r_mmod_Potential_Energy-OPLS-2005>
1052.31604003906

> <r_mmod_Stretch_Energy-OPLS-2005>
460.915802001953

> <r_mmod_Bend_Energy-OPLS-2005>
427.755096435547

> <r_mmod_Torsional_Energy-OPLS-2005>
219.15461730957

> <r_mmod_Improper_Torsional_Energy-OPLS-2005>
6.21539354324341

> <r_mmod_Van_der_Waal_Energy-OPLS-2005>
141.12272644043

> <r_mmod_Electrostatic_Energy-OPLS-2005>
-382.154113769531

> <r_mmod_Solvation_Energy-OPLS-2005>
-209.368347167969

> <b_mmod_Minimization_Converged-OPLS-2005>
0

> <r_mmod_RMS_Derivative-OPLS-2005>
0.664103388786316

$$$$
64
                    3D
 Structure written by MMmdl.
162171  0  0  1  0            999 V2000
  -30.7060  -14.7603   20.4838 C   0  0  0  0  0  0
  -30.4076  -12.4823   19.4816 C   0  0  0  0  0  0
  -29.4952  -12.4932   18.2395 C   0  0  0  0  0  0
  -28.0326  -12.2841   18.6650 C   0  0  0  0  0  0
  -27.6257  -13.2156   19.8328 C   0  0  2  0  0  0
  -28.6745  -13.2438   20.9721 C   0  0  0  0  0  0
  -25.2478  -13.8148   20.5716 C   0  0  0  0  0  0
  -24.1767  -13.0417   20.9237 C   0  0  0  0  0  0
  -24.6344  -11.6888   20.8779 C   0  0  0  0  0  0
  -23.9029  -10.4274   21.0428 C   0  0  0  0  0  0
  -24.3591   -9.4192   21.9200 C   0  0  0  0  0  0
  -23.6275   -8.2225   22.0757 C   0  0  0  0  0  0
  -22.4260   -8.0264   21.3544 C   0  0  0  0  0  0
  -21.9892   -9.0236   20.4645 C   0  0  0  0  0  0
  -22.7211  -10.2119   20.3064 C   0  0  0  0  0  0
  -21.6844   -6.0726   22.5279 C   0  0  0  0  0  0
  -21.4008   -6.5632   23.8212 C   0  0  0  0  0  0
  -21.3660   -5.6786   24.9176 C   0  0  0  0  0  0
  -21.6044   -4.3050   24.7224 C   0  0  0  0  0  0
  -21.8820   -3.8140   23.4347 C   0  0  0  0  0  0
  -21.9188   -4.6955   22.3403 C   0  0  0  0  0  0
  -22.7797  -13.5215   21.1887 C   0  0  0  0  0  0
  -22.1659   -4.2140   21.0981 F   0  0  0  0  0  0
  -21.5628   -3.4537   25.7739 F   0  0  0  0  0  0
  -29.9708  -13.5902   20.3759 N   0  0  0  0  0  0
  -26.2858  -12.9311   20.3257 N   0  0  0  0  0  0
  -25.9261  -11.6477   20.5779 N   0  0  0  0  0  0
  -22.0438  -12.8207   22.0437 N   0  0  0  0  0  0
  -25.4182  -15.1872   20.4134 N   0  0  0  0  0  0
  -31.8951  -14.7064   20.1574 O   0  0  0  0  0  0
  -21.6631   -6.8862   21.4239 O   0  0  0  0  0  0
  -22.3494  -14.5525   20.6730 O   0  0  0  0  0  0
  -24.6331  -31.8568   23.2030 C   0  0  0  0  0  0
  -25.9157  -32.4765   23.8366 C   0  0  1  0  0  0
  -27.2036  -27.2454   20.1237 C   0  0  0  0  0  0
  -25.5954  -33.8568   24.2281 N   0  0  0  0  0  0
  -23.4295  -30.4845   21.5471 C   0  0  2  0  0  0
  -24.8752  -28.9457   20.1067 C   0  0  0  0  0  0
  -22.7516  -29.4603   22.4902 C   0  0  0  0  0  0
  -18.0294  -28.1379   22.8481 C   0  0  0  0  0  0
  -24.1494  -36.7276   23.2638 C   0  0  0  0  0  0
  -25.9809  -30.7629   21.3916 C   0  0  0  0  0  0
  -26.0502  -29.3881   20.7278 C   0  0  0  0  0  0
  -27.2160  -28.5493   20.7332 C   0  0  0  0  0  0
  -26.0083  -26.9054   19.4391 C   0  0  0  0  0  0
  -24.8610  -27.7122   19.4510 C   0  0  0  0  0  0
  -23.6485  -29.8329   20.1592 C   0  0  0  0  0  0
  -25.4122  -36.3069   24.0327 C   0  0  1  0  0  0
  -20.5903  -28.3696   23.1252 C   0  0  2  0  0  0
  -20.6784  -26.9411   22.5396 C   0  0  0  0  0  0
  -19.5756  -26.6378   21.5202 C   0  0  0  0  0  0
  -18.1937  -26.7920   22.1617 C   0  0  0  0  0  0
  -19.1551  -28.8854   23.2861 C   0  0  0  0  0  0
  -18.9471  -30.1452   23.8880 C   0  0  0  0  0  0
  -17.6471  -30.6582   24.0554 C   0  0  0  0  0  0
  -25.9066  -34.9441   23.5103 C   0  0  0  0  0  0
  -16.5359  -29.9076   23.6332 C   0  0  0  0  0  0
  -16.7280  -28.6492   23.0358 C   0  0  0  0  0  0
  -26.4516  -31.6589   25.0756 C   0  0  0  0  0  0
  -25.3733  -31.3731   26.1466 C   0  0  0  0  0  0
  -27.0379  -30.3003   24.6268 C   0  0  0  0  0  0
  -27.6062  -32.4343   25.7528 C   0  0  0  0  0  0
  -27.5581  -37.1796   24.8463 C   0  0  0  0  0  0
  -21.4222  -29.3046   22.3643 N   0  0  0  0  0  0
  -26.4290  -37.3773   23.9411 N   0  0  0  0  0  0
  -24.7001  -31.0525   22.1022 N   0  0  0  0  0  0
  -23.4215  -28.8125   23.2987 O   0  0  0  0  0  0
  -28.2526  -26.2851   20.2249 O   0  0  0  0  0  0
  -26.5625  -34.8909   22.4664 O   0  0  0  0  0  0
  -23.5476  -32.1400   23.7308 O   0  0  0  0  0  0
  -28.9390  -21.6184   21.8473 C   0  0  0  0  0  0
  -28.6304  -22.9946   21.5859 C   0  0  0  0  0  0
  -28.6335  -23.5021   20.2550 C   0  0  0  0  0  0
  -29.2498  -20.6984   20.8093 C   0  0  0  0  0  0
  -29.0195  -22.5172   19.2815 C   0  0  0  0  0  0
  -28.5924  -18.0863   20.3766 C   0  0  0  0  0  0
  -30.9162  -18.5664   20.8883 C   0  0  0  0  0  0
  -28.7958  -16.5570   20.7867 C   0  0  0  0  0  0
  -31.0973  -17.0833   21.4060 C   0  0  0  0  0  0
  -29.4933  -19.1369   21.0948 C   0  0  0  0  0  0
  -28.2183  -23.8920   22.7374 C   0  0  0  0  0  0
  -29.0495  -22.8538   17.8026 C   0  0  0  0  0  0
  -27.9017  -24.8694   19.8388 C   0  0  0  0  0  0
  -29.3206  -21.1981   19.5467 N   0  0  0  0  0  0
  -30.1878  -16.0170   20.8630 N   0  0  0  0  0  0
  -31.4489  -12.5666   19.1672 H   0  0  0  0  0  0
  -30.3391  -11.5252   20.0012 H   0  0  0  0  0  0
  -29.7954  -11.7110   17.5412 H   0  0  0  0  0  0
  -29.5978  -13.4400   17.7069 H   0  0  0  0  0  0
  -27.9225  -11.2421   18.9679 H   0  0  0  0  0  0
  -27.3644  -12.4259   17.8147 H   0  0  0  0  0  0
  -27.5760  -14.1916   19.3648 H   0  0  0  0  0  0
  -28.7298  -12.2763   21.4730 H   0  0  0  0  0  0
  -28.3949  -13.9660   21.7394 H   0  0  0  0  0  0
  -25.2729   -9.5677   22.4783 H   0  0  0  0  0  0
  -23.9985   -7.4616   22.7475 H   0  0  0  0  0  0
  -21.0826   -8.8752   19.8948 H   0  0  0  0  0  0
  -22.3669  -10.9663   19.6176 H   0  0  0  0  0  0
  -21.2005   -7.6142   23.9713 H   0  0  0  0  0  0
  -21.1480   -6.0518   25.9078 H   0  0  0  0  0  0
  -22.0599   -2.7601   23.2851 H   0  0  0  0  0  0
  -22.4051  -11.9863   22.4819 H   0  0  0  0  0  0
  -21.1059  -13.1233   22.2649 H   0  0  0  0  0  0
  -24.6518  -15.8407   20.5322 H   0  0  0  0  0  0
  -26.2708  -15.6294   20.0976 H   0  0  0  0  0  0
  -26.7218  -32.5412   23.1099 H   0  0  0  0  0  0
  -25.0126  -33.9716   25.0442 H   0  0  0  0  0  0
  -22.7251  -31.3070   21.4065 H   0  0  0  0  0  0
  -23.3764  -35.9597   23.3286 H   0  0  0  0  0  0
  -24.3580  -36.8916   22.2054 H   0  0  0  0  0  0
  -23.7241  -37.6469   23.6675 H   0  0  0  0  0  0
  -26.1296  -31.5257   20.6261 H   0  0  0  0  0  0
  -26.8548  -30.8039   22.0300 H   0  0  0  0  0  0
  -28.1066  -28.8755   21.2521 H   0  0  0  0  0  0
  -25.8956  -25.9824   18.8924 H   0  0  0  0  0  0
  -23.9679  -27.3749   18.9432 H   0  0  0  0  0  0
  -23.7758  -30.6159   19.4107 H   0  0  0  0  0  0
  -22.7657  -29.2711   19.8482 H   0  0  0  0  0  0
  -25.1304  -36.1916   25.0820 H   0  0  0  0  0  0
  -20.9991  -28.3278   24.1372 H   0  0  0  0  0  0
  -20.5688  -26.2308   23.3603 H   0  0  0  0  0  0
  -21.6651  -26.7434   22.1187 H   0  0  0  0  0  0
  -19.6920  -25.6287   21.1239 H   0  0  0  0  0  0
  -19.6693  -27.3178   20.6722 H   0  0  0  0  0  0
  -17.4208  -26.6662   21.4020 H   0  0  0  0  0  0
  -18.0333  -26.0060   22.9012 H   0  0  0  0  0  0
  -19.7947  -30.7264   24.2250 H   0  0  0  0  0  0
  -17.5027  -31.6260   24.5155 H   0  0  0  0  0  0
  -15.5361  -30.2973   23.7665 H   0  0  0  0  0  0
  -15.8677  -28.0804   22.7090 H   0  0  0  0  0  0
  -24.5915  -30.7078   25.7782 H   0  0  0  0  0  0
  -24.8916  -32.2895   26.4880 H   0  0  0  0  0  0
  -25.8041  -30.8912   27.0251 H   0  0  0  0  0  0
  -26.2979  -29.6737   24.1274 H   0  0  0  0  0  0
  -27.4025  -29.7280   25.4807 H   0  0  0  0  0  0
  -27.8871  -30.4265   23.9551 H   0  0  0  0  0  0
  -27.2672  -33.3668   26.2047 H   0  0  0  0  0  0
  -28.3892  -32.6864   25.0367 H   0  0  0  0  0  0
  -28.0700  -31.8511   26.5490 H   0  0  0  0  0  0
  -28.2582  -38.0112   24.7535 H   0  0  0  0  0  0
  -28.1098  -36.2641   24.6267 H   0  0  0  0  0  0
  -27.2293  -37.1412   25.8864 H   0  0  0  0  0  0
  -20.9404  -29.8800   21.6876 H   0  0  0  0  0  0
  -26.0165  -38.2841   24.1431 H   0  0  0  0  0  0
  -28.8932  -21.2521   22.8646 H   0  0  0  0  0  0
  -27.5477  -18.3539   20.5392 H   0  0  0  0  0  0
  -28.7508  -18.1829   19.3018 H   0  0  0  0  0  0
  -31.1831  -18.6262   19.8326 H   0  0  0  0  0  0
  -31.6264  -19.2077   21.4117 H   0  0  0  0  0  0
  -28.2355  -15.9817   20.0647 H   0  0  0  0  0  0
  -28.3252  -16.3840   21.7552 H   0  0  0  0  0  0
  -30.9596  -17.0810   22.4880 H   0  0  0  0  0  0
  -32.1471  -16.8225   21.2673 H   0  0  0  0  0  0
  -29.2808  -19.0275   22.1592 H   0  0  0  0  0  0
  -28.3612  -23.3996   23.6993 H   0  0  0  0  0  0
  -27.1666  -24.1658   22.6547 H   0  0  0  0  0  0
  -28.8115  -24.8067   22.7396 H   0  0  0  0  0  0
  -29.5676  -23.7973   17.6317 H   0  0  0  0  0  0
  -28.0351  -22.9354   17.4114 H   0  0  0  0  0  0
  -29.5668  -22.0868   17.2258 H   0  0  0  0  0  0
  -26.9051  -24.6696   20.2338 H   0  0  0  0  0  0
  -27.7921  -24.8779   18.7564 H   0  0  0  0  0  0
  1 25  1  0  0  0
  1 30  2  0  0  0
  1 85  1  0  0  0
  2  3  1  0  0  0
  2 25  1  0  0  0
  2 86  1  0  0  0
  2 87  1  0  0  0
  3  4  1  0  0  0
  3 88  1  0  0  0
  3 89  1  0  0  0
  4  5  1  0  0  0
  4 90  1  0  0  0
  4 91  1  0  0  0
  5  6  1  0  0  0
  5 26  1  0  0  0
  5 92  1  0  0  0
  6 25  1  0  0  0
  6 93  1  0  0  0
  6 94  1  0  0  0
  7  8  2  0  0  0
  7 26  1  0  0  0
  7 29  1  0  0  0
  8  9  1  0  0  0
  8 22  1  0  0  0
  9 10  1  0  0  0
  9 27  2  0  0  0
 10 11  2  0  0  0
 10 15  1  0  0  0
 11 12  1  0  0  0
 11 95  1  0  0  0
 12 13  2  0  0  0
 12 96  1  0  0  0
 13 14  1  0  0  0
 13 31  1  0  0  0
 14 15  2  0  0  0
 14 97  1  0  0  0
 15 98  1  0  0  0
 16 17  2  0  0  0
 16 21  1  0  0  0
 16 31  1  0  0  0
 17 18  1  0  0  0
 17 99  1  0  0  0
 18 19  2  0  0  0
 18100  1  0  0  0
 19 20  1  0  0  0
 19 24  1  0  0  0
 20 21  2  0  0  0
 20101  1  0  0  0
 21 23  1  0  0  0
 22 28  1  0  0  0
 22 32  2  0  0  0
 26 27  1  0  0  0
 28102  1  0  0  0
 28103  1  0  0  0
 29104  1  0  0  0
 29105  1  0  0  0
 33 34  1  0  0  0
 33 66  1  0  0  0
 33 70  2  0  0  0
 34 36  1  0  0  0
 34 59  1  0  0  0
 34106  1  0  0  0
 35 44  2  0  0  0
 35 45  1  0  0  0
 35 68  1  0  0  0
 36 56  1  0  0  0
 36107  1  0  0  0
 37 39  1  0  0  0
 37 47  1  0  0  0
 37 66  1  0  0  0
 37108  1  0  0  0
 38 43  2  0  0  0
 38 46  1  0  0  0
 38 47  1  0  0  0
 39 64  1  0  0  0
 39 67  2  0  0  0
 40 52  1  0  0  0
 40 53  2  0  0  0
 40 58  1  0  0  0
 41109  1  0  0  0
 41110  1  0  0  0
 41111  1  0  0  0
 41 48  1  0  0  0
 42 43  1  0  0  0
 42 66  1  0  0  0
 42112  1  0  0  0
 42113  1  0  0  0
 43 44  1  0  0  0
 44114  1  0  0  0
 45 46  2  0  0  0
 45115  1  0  0  0
 46116  1  0  0  0
 47117  1  0  0  0
 47118  1  0  0  0
 48 56  1  0  0  0
 48 65  1  0  0  0
 48119  1  0  0  0
 49 50  1  0  0  0
 49 53  1  0  0  0
 49 64  1  0  0  0
 49120  1  0  0  0
 50 51  1  0  0  0
 50121  1  0  0  0
 50122  1  0  0  0
 51 52  1  0  0  0
 51123  1  0  0  0
 51124  1  0  0  0
 52125  1  0  0  0
 52126  1  0  0  0
 53 54  1  0  0  0
 54 55  2  0  0  0
 54127  1  0  0  0
 55 57  1  0  0  0
 55128  1  0  0  0
 56 69  2  0  0  0
 57 58  2  0  0  0
 57129  1  0  0  0
 58130  1  0  0  0
 59 60  1  0  0  0
 59 61  1  0  0  0
 59 62  1  0  0  0
 60131  1  0  0  0
 60132  1  0  0  0
 60133  1  0  0  0
 61134  1  0  0  0
 61135  1  0  0  0
 61136  1  0  0  0
 62137  1  0  0  0
 62138  1  0  0  0
 62139  1  0  0  0
 63 65  1  0  0  0
 63140  1  0  0  0
 63141  1  0  0  0
 63142  1  0  0  0
 64143  1  0  0  0
 65144  1  0  0  0
 68 83  1  0  0  0
 71 72  2  0  0  0
 71 74  1  0  0  0
 71145  1  0  0  0
 72 73  1  0  0  0
 72 81  1  0  0  0
 73 75  2  0  0  0
 73 83  1  0  0  0
 74 84  2  0  0  0
 74 80  1  0  0  0
 75 82  1  0  0  0
 75 84  1  0  0  0
 76 78  1  0  0  0
 76 80  1  0  0  0
 76146  1  0  0  0
 76147  1  0  0  0
 77 79  1  0  0  0
 77 80  1  0  0  0
 77148  1  0  0  0
 77149  1  0  0  0
 78 85  1  0  0  0
 78150  1  0  0  0
 78151  1  0  0  0
 79 85  1  0  0  0
 79152  1  0  0  0
 79153  1  0  0  0
 80154  1  0  0  0
 81155  1  0  0  0
 81156  1  0  0  0
 81157  1  0  0  0
 82158  1  0  0  0
 82159  1  0  0  0
 82160  1  0  0  0
 83161  1  0  0  0
 83162  1  0  0  0
M  ISO  4   1 100  68 101  83 101  85 100
M  END
> <chiral flag>
0

> <version>
0

> <s_m_source_file>
/data/baiqing/PycharmProjects/Reinvent-master-3.2/result/LINK_invent/BTK/process_docking_weight1_custom_sum_contain_oxygen_bond_distance_aromatic_linkinvent_7_9_3/rearranged_h_0164.sdf

> <i_m_source_file_index>
65

> <r_mmod_Potential_Energy-OPLS-2005>
301.02099609375

> <r_mmod_Stretch_Energy-OPLS-2005>
125.49885559082

> <r_mmod_Bend_Energy-OPLS-2005>
217.823623657227

> <r_mmod_Torsional_Energy-OPLS-2005>
305.302520751953

> <r_mmod_Improper_Torsional_Energy-OPLS-2005>
5.10943555831909

> <r_mmod_Van_der_Waal_Energy-OPLS-2005>
161.810699462891

> <r_mmod_Electrostatic_Energy-OPLS-2005>
-408.667022705078

> <r_mmod_Solvation_Energy-OPLS-2005>
-213.101165771484

> <b_mmod_Minimization_Converged-OPLS-2005>
0

> <r_mmod_RMS_Derivative-OPLS-2005>
0.73774790763855

$$$$
65
                    3D
 Structure written by MMmdl.
164173  0  0  1  0            999 V2000
  -30.6854  -14.6019   20.4875 C   0  0  0  0  0  0
  -30.4127  -12.3701   19.4507 C   0  0  0  0  0  0
  -29.4944  -12.4946   18.2189 C   0  0  0  0  0  0
  -28.0187  -12.3453   18.6339 C   0  0  0  0  0  0
  -27.6447  -13.2249   19.8584 C   0  0  2  0  0  0
  -28.6914  -13.1182   20.9883 C   0  0  0  0  0  0
  -25.2525  -13.8195   20.5713 C   0  0  0  0  0  0
  -24.1801  -13.0444   20.9199 C   0  0  0  0  0  0
  -24.6383  -11.6917   20.8751 C   0  0  0  0  0  0
  -23.9060  -10.4295   21.0409 C   0  0  0  0  0  0
  -24.3614   -9.4211   21.9185 C   0  0  0  0  0  0
  -23.6291   -8.2244   22.0756 C   0  0  0  0  0  0
  -22.4275   -8.0280   21.3544 C   0  0  0  0  0  0
  -21.9909   -9.0253   20.4647 C   0  0  0  0  0  0
  -22.7233  -10.2135   20.3057 C   0  0  0  0  0  0
  -21.6853   -6.0734   22.5278 C   0  0  0  0  0  0
  -21.4013   -6.5638   23.8211 C   0  0  0  0  0  0
  -21.3662   -5.6793   24.9176 C   0  0  0  0  0  0
  -21.6047   -4.3057   24.7228 C   0  0  0  0  0  0
  -21.8820   -3.8146   23.4350 C   0  0  0  0  0  0
  -21.9192   -4.6961   22.3404 C   0  0  0  0  0  0
  -22.7824  -13.5228   21.1861 C   0  0  0  0  0  0
  -22.1660   -4.2144   21.0982 F   0  0  0  0  0  0
  -21.5632   -3.4544   25.7742 F   0  0  0  0  0  0
  -30.0032  -13.4191   20.4049 N   0  0  0  0  0  0
  -26.2952  -12.9390   20.3338 N   0  0  0  0  0  0
  -25.9314  -11.6536   20.5778 N   0  0  0  0  0  0
  -22.0470  -12.8213   22.0419 N   0  0  0  0  0  0
  -25.4248  -15.1917   20.4156 N   0  0  0  0  0  0
  -31.8715  -14.6716   20.1500 O   0  0  0  0  0  0
  -21.6641   -6.8875   21.4239 O   0  0  0  0  0  0
  -22.3505  -14.5534   20.6713 O   0  0  0  0  0  0
  -24.6228  -31.8621   23.2047 C   0  0  0  0  0  0
  -25.9085  -32.4792   23.8370 C   0  0  1  0  0  0
  -27.2191  -27.3457   20.1212 C   0  0  0  0  0  0
  -25.5912  -33.8593   24.2299 N   0  0  0  0  0  0
  -23.4158  -30.4852   21.5463 C   0  0  2  0  0  0
  -24.8632  -28.9433   20.1115 C   0  0  0  0  0  0
  -22.7458  -29.4630   22.4947 C   0  0  0  0  0  0
  -18.0283  -28.1383   22.8500 C   0  0  0  0  0  0
  -24.1489  -36.7302   23.2639 C   0  0  0  0  0  0
  -25.9539  -30.8009   21.3727 C   0  0  0  0  0  0
  -26.0298  -29.4298   20.7168 C   0  0  0  0  0  0
  -27.2155  -28.6415   20.7129 C   0  0  0  0  0  0
  -26.0399  -26.9082   19.4827 C   0  0  0  0  0  0
  -24.8683  -27.6866   19.4852 C   0  0  0  0  0  0
  -23.6295  -29.8196   20.1615 C   0  0  0  0  0  0
  -25.4113  -36.3095   24.0333 C   0  0  1  0  0  0
  -20.5881  -28.3687   23.1297 C   0  0  2  0  0  0
  -20.6772  -26.9413   22.5417 C   0  0  0  0  0  0
  -19.5746  -26.6387   21.5218 C   0  0  0  0  0  0
  -18.1925  -26.7929   22.1632 C   0  0  0  0  0  0
  -19.1535  -28.8852   23.2893 C   0  0  0  0  0  0
  -18.9457  -30.1456   23.8906 C   0  0  0  0  0  0
  -17.6457  -30.6590   24.0567 C   0  0  0  0  0  0
  -25.9046  -34.9460   23.5117 C   0  0  0  0  0  0
  -16.5347  -29.9088   23.6329 C   0  0  0  0  0  0
  -16.7271  -28.6502   23.0358 C   0  0  0  0  0  0
  -26.4480  -31.6591   25.0731 C   0  0  0  0  0  0
  -25.3723  -31.3715   26.1466 C   0  0  0  0  0  0
  -27.0323  -30.3021   24.6162 C   0  0  0  0  0  0
  -27.6055  -32.4315   25.7494 C   0  0  0  0  0  0
  -27.5583  -37.1803   24.8462 C   0  0  0  0  0  0
  -21.4174  -29.3044   22.3692 N   0  0  0  0  0  0
  -26.4294  -37.3786   23.9409 N   0  0  0  0  0  0
  -24.6827  -31.0654   22.0986 N   0  0  0  0  0  0
  -23.4195  -28.8168   23.3015 O   0  0  0  0  0  0
  -28.3201  -26.4911   20.1511 O   0  0  0  0  0  0
  -26.5612  -34.8920   22.4682 O   0  0  0  0  0  0
  -23.5397  -32.1407   23.7388 O   0  0  0  0  0  0
  -28.5401  -22.6134   20.8382 C   0  0  0  0  0  0
  -28.7015  -23.8564   20.1445 C   0  0  0  0  0  0
  -29.3981  -23.7884   18.9073 C   0  0  0  0  0  0
  -29.8997  -22.5287   18.4762 C   0  0  0  0  0  0
  -29.0598  -21.3901   20.3278 C   0  0  0  0  0  0
  -28.8801  -17.9147   19.7395 C   0  0  0  0  0  0
  -29.7619  -18.0069   22.0052 C   0  0  0  0  0  0
  -29.6559  -16.5722   19.5081 C   0  0  0  0  0  0
  -30.5261  -16.6624   21.7724 C   0  0  0  0  0  0
  -29.5888  -18.8681   20.7298 C   0  0  0  0  0  0
  -29.5913  -25.0387   18.0543 C   0  0  0  0  0  0
  -30.6616  -22.3649   17.1722 C   0  0  0  0  0  0
  -28.0775  -25.1648   20.7505 C   0  0  0  0  0  0
  -29.7369  -21.3762   19.1679 N   0  0  0  0  0  0
  -29.9818  -15.7659   20.7189 N   0  0  0  0  0  0
  -28.8678  -20.1490   20.9989 N   0  0  0  0  0  0
  -31.4581  -12.4578   19.1492 H   0  0  0  0  0  0
  -30.3154  -11.3841   19.9074 H   0  0  0  0  0  0
  -29.7519  -11.7377   17.4766 H   0  0  0  0  0  0
  -29.6475  -13.4615   17.7365 H   0  0  0  0  0  0
  -27.8503  -11.2939   18.8696 H   0  0  0  0  0  0
  -27.3645  -12.5745   17.7920 H   0  0  0  0  0  0
  -27.6499  -14.2550   19.5057 H   0  0  0  0  0  0
  -28.6929  -12.1191   21.4262 H   0  0  0  0  0  0
  -28.4534  -13.8099   21.7981 H   0  0  0  0  0  0
  -25.2758   -9.5693   22.4762 H   0  0  0  0  0  0
  -24.0003   -7.4639   22.7480 H   0  0  0  0  0  0
  -21.0841   -8.8771   19.8952 H   0  0  0  0  0  0
  -22.3686  -10.9676   19.6172 H   0  0  0  0  0  0
  -21.2002   -7.6147   23.9709 H   0  0  0  0  0  0
  -21.1486   -6.0529   25.9078 H   0  0  0  0  0  0
  -22.0596   -2.7606   23.2855 H   0  0  0  0  0  0
  -22.4089  -11.9872   22.4798 H   0  0  0  0  0  0
  -21.1090  -13.1234   22.2627 H   0  0  0  0  0  0
  -24.6660  -15.8530   20.5399 H   0  0  0  0  0  0
  -26.2931  -15.6310   20.1376 H   0  0  0  0  0  0
  -26.7151  -32.5478   23.1122 H   0  0  0  0  0  0
  -25.0054  -33.9747   25.0438 H   0  0  0  0  0  0
  -22.7085  -31.3046   21.4037 H   0  0  0  0  0  0
  -23.3757  -35.9627   23.3292 H   0  0  0  0  0  0
  -24.3581  -36.8937   22.2054 H   0  0  0  0  0  0
  -23.7232  -37.6498   23.6666 H   0  0  0  0  0  0
  -26.0800  -31.5643   20.6037 H   0  0  0  0  0  0
  -26.8364  -30.8517   21.9988 H   0  0  0  0  0  0
  -28.1114  -29.0059   21.1961 H   0  0  0  0  0  0
  -26.0184  -25.9450   18.9921 H   0  0  0  0  0  0
  -23.9754  -27.3108   19.0047 H   0  0  0  0  0  0
  -23.7458  -30.5950   19.4038 H   0  0  0  0  0  0
  -22.7508  -29.2458   19.8612 H   0  0  0  0  0  0
  -25.1287  -36.1954   25.0824 H   0  0  0  0  0  0
  -20.9975  -28.3261   24.1417 H   0  0  0  0  0  0
  -20.5683  -26.2292   23.3611 H   0  0  0  0  0  0
  -21.6639  -26.7449   22.1207 H   0  0  0  0  0  0
  -19.6909  -25.6301   21.1239 H   0  0  0  0  0  0
  -19.6678  -27.3202   20.6752 H   0  0  0  0  0  0
  -17.4194  -26.6690   21.4031 H   0  0  0  0  0  0
  -18.0318  -26.0066   22.9023 H   0  0  0  0  0  0
  -19.7930  -30.7272   24.2277 H   0  0  0  0  0  0
  -17.5010  -31.6269   24.5171 H   0  0  0  0  0  0
  -15.5346  -30.2991   23.7648 H   0  0  0  0  0  0
  -15.8674  -28.0818   22.7074 H   0  0  0  0  0  0
  -24.5888  -30.7077   25.7789 H   0  0  0  0  0  0
  -24.8922  -32.2876   26.4915 H   0  0  0  0  0  0
  -25.8055  -30.8869   27.0225 H   0  0  0  0  0  0
  -26.2891  -29.6774   24.1192 H   0  0  0  0  0  0
  -27.4041  -29.7269   25.4651 H   0  0  0  0  0  0
  -27.8749  -30.4320   23.9369 H   0  0  0  0  0  0
  -27.2684  -33.3619   26.2073 H   0  0  0  0  0  0
  -28.3862  -32.6863   25.0316 H   0  0  0  0  0  0
  -28.0723  -31.8434   26.5406 H   0  0  0  0  0  0
  -28.2591  -38.0109   24.7525 H   0  0  0  0  0  0
  -28.1091  -36.2641   24.6271 H   0  0  0  0  0  0
  -27.2300  -37.1435   25.8865 H   0  0  0  0  0  0
  -20.9344  -29.8770   21.6911 H   0  0  0  0  0  0
  -26.0181  -38.2863   24.1421 H   0  0  0  0  0  0
  -27.9980  -22.6106   21.7744 H   0  0  0  0  0  0
  -27.8747  -17.6897   20.0990 H   0  0  0  0  0  0
  -28.7496  -18.4199   18.7816 H   0  0  0  0  0  0
  -30.2932  -18.5837   22.7635 H   0  0  0  0  0  0
  -28.7827  -17.7828   22.4324 H   0  0  0  0  0  0
  -30.5872  -16.8050   18.9874 H   0  0  0  0  0  0
  -29.0827  -15.9549   18.8153 H   0  0  0  0  0  0
  -30.5555  -16.1101   22.7137 H   0  0  0  0  0  0
  -31.5655  -16.8991   21.5350 H   0  0  0  0  0  0
  -30.5774  -19.1142   20.3386 H   0  0  0  0  0  0
  -30.2319  -25.7552   18.5691 H   0  0  0  0  0  0
  -28.6304  -25.5135   17.8550 H   0  0  0  0  0  0
  -30.0426  -24.8442   17.0838 H   0  0  0  0  0  0
  -30.0190  -22.5956   16.3221 H   0  0  0  0  0  0
  -31.0239  -21.3446   17.0419 H   0  0  0  0  0  0
  -31.5281  -23.0254   17.1438 H   0  0  0  0  0  0
  -28.4483  -25.2345   21.7733 H   0  0  0  0  0  0
  -27.0117  -24.9661   20.8664 H   0  0  0  0  0  0
  -28.3497  -20.1895   21.8695 H   0  0  0  0  0  0
  1 25  1  0  0  0
  1 30  2  0  0  0
  1 85  1  0  0  0
  2  3  1  0  0  0
  2 25  1  0  0  0
  2 87  1  0  0  0
  2 88  1  0  0  0
  3  4  1  0  0  0
  3 89  1  0  0  0
  3 90  1  0  0  0
  4  5  1  0  0  0
  4 91  1  0  0  0
  4 92  1  0  0  0
  5  6  1  0  0  0
  5 26  1  0  0  0
  5 93  1  0  0  0
  6 25  1  0  0  0
  6 94  1  0  0  0
  6 95  1  0  0  0
  7  8  2  0  0  0
  7 26  1  0  0  0
  7 29  1  0  0  0
  8  9  1  0  0  0
  8 22  1  0  0  0
  9 10  1  0  0  0
  9 27  2  0  0  0
 10 11  2  0  0  0
 10 15  1  0  0  0
 11 12  1  0  0  0
 11 96  1  0  0  0
 12 13  2  0  0  0
 12 97  1  0  0  0
 13 14  1  0  0  0
 13 31  1  0  0  0
 14 15  2  0  0  0
 14 98  1  0  0  0
 15 99  1  0  0  0
 16 17  2  0  0  0
 16 21  1  0  0  0
 16 31  1  0  0  0
 17 18  1  0  0  0
 17100  1  0  0  0
 18 19  2  0  0  0
 18101  1  0  0  0
 19 20  1  0  0  0
 19 24  1  0  0  0
 20 21  2  0  0  0
 20102  1  0  0  0
 21 23  1  0  0  0
 22 28  1  0  0  0
 22 32  2  0  0  0
 26 27  1  0  0  0
 28103  1  0  0  0
 28104  1  0  0  0
 29105  1  0  0  0
 29106  1  0  0  0
 33 34  1  0  0  0
 33 66  1  0  0  0
 33 70  2  0  0  0
 34 36  1  0  0  0
 34 59  1  0  0  0
 34107  1  0  0  0
 35 44  2  0  0  0
 35 45  1  0  0  0
 35 68  1  0  0  0
 36 56  1  0  0  0
 36108  1  0  0  0
 37 39  1  0  0  0
 37 47  1  0  0  0
 37 66  1  0  0  0
 37109  1  0  0  0
 38 43  2  0  0  0
 38 46  1  0  0  0
 38 47  1  0  0  0
 39 64  1  0  0  0
 39 67  2  0  0  0
 40 52  1  0  0  0
 40 53  2  0  0  0
 40 58  1  0  0  0
 41110  1  0  0  0
 41111  1  0  0  0
 41112  1  0  0  0
 41 48  1  0  0  0
 42 43  1  0  0  0
 42 66  1  0  0  0
 42113  1  0  0  0
 42114  1  0  0  0
 43 44  1  0  0  0
 44115  1  0  0  0
 45 46  2  0  0  0
 45116  1  0  0  0
 46117  1  0  0  0
 47118  1  0  0  0
 47119  1  0  0  0
 48 56  1  0  0  0
 48 65  1  0  0  0
 48120  1  0  0  0
 49 50  1  0  0  0
 49 53  1  0  0  0
 49 64  1  0  0  0
 49121  1  0  0  0
 50 51  1  0  0  0
 50122  1  0  0  0
 50123  1  0  0  0
 51 52  1  0  0  0
 51124  1  0  0  0
 51125  1  0  0  0
 52126  1  0  0  0
 52127  1  0  0  0
 53 54  1  0  0  0
 54 55  2  0  0  0
 54128  1  0  0  0
 55 57  1  0  0  0
 55129  1  0  0  0
 56 69  2  0  0  0
 57 58  2  0  0  0
 57130  1  0  0  0
 58131  1  0  0  0
 59 60  1  0  0  0
 59 61  1  0  0  0
 59 62  1  0  0  0
 60132  1  0  0  0
 60133  1  0  0  0
 60134  1  0  0  0
 61135  1  0  0  0
 61136  1  0  0  0
 61137  1  0  0  0
 62138  1  0  0  0
 62139  1  0  0  0
 62140  1  0  0  0
 63 65  1  0  0  0
 63141  1  0  0  0
 63142  1  0  0  0
 63143  1  0  0  0
 64144  1  0  0  0
 65145  1  0  0  0
 68 83  1  0  0  0
 71 72  2  0  0  0
 71 75  1  0  0  0
 71146  1  0  0  0
 72 73  1  0  0  0
 72 83  1  0  0  0
 73 74  2  0  0  0
 73 81  1  0  0  0
 74 82  1  0  0  0
 74 84  1  0  0  0
 75 84  2  0  0  0
 75 86  1  0  0  0
 76 78  1  0  0  0
 76 80  1  0  0  0
 76147  1  0  0  0
 76148  1  0  0  0
 77 79  1  0  0  0
 77 80  1  0  0  0
 77149  1  0  0  0
 77150  1  0  0  0
 78 85  1  0  0  0
 78151  1  0  0  0
 78152  1  0  0  0
 79 85  1  0  0  0
 79153  1  0  0  0
 79154  1  0  0  0
 80 86  1  0  0  0
 80155  1  0  0  0
 81156  1  0  0  0
 81157  1  0  0  0
 81158  1  0  0  0
 82159  1  0  0  0
 82160  1  0  0  0
 82161  1  0  0  0
 83162  1  0  0  0
 83163  1  0  0  0
 86164  1  0  0  0
M  ISO  4   1 100  68 101  83 101  85 100
M  END
> <chiral flag>
0

> <version>
0

> <s_m_source_file>
/data/baiqing/PycharmProjects/Reinvent-master-3.2/result/LINK_invent/BTK/process_docking_weight1_custom_sum_contain_oxygen_bond_distance_aromatic_linkinvent_7_9_3/rearranged_h_0164.sdf

> <i_m_source_file_index>
66

> <r_mmod_Potential_Energy-OPLS-2005>
34.1516609191895

> <r_mmod_Stretch_Energy-OPLS-2005>
68.3788604736328

> <r_mmod_Bend_Energy-OPLS-2005>
153.395050048828

> <r_mmod_Torsional_Energy-OPLS-2005>
338.637512207031

> <r_mmod_Improper_Torsional_Energy-OPLS-2005>
10.5180530548096

> <r_mmod_Van_der_Waal_Energy-OPLS-2005>
153.445037841797

> <r_mmod_Electrostatic_Energy-OPLS-2005>
-513.779174804688

> <r_mmod_Solvation_Energy-OPLS-2005>
-219.146072387695

> <b_mmod_Minimization_Converged-OPLS-2005>
0

> <r_mmod_RMS_Derivative-OPLS-2005>
0.600454986095428

$$$$
66
                    3D
 Structure written by MMmdl.
176186  0  0  1  0            999 V2000
  -30.7704  -14.5004   20.6858 C   0  0  0  0  0  0
  -30.4136  -12.3636   19.4532 C   0  0  0  0  0  0
  -29.5009  -12.5305   18.2213 C   0  0  0  0  0  0
  -28.0244  -12.3598   18.6172 C   0  0  0  0  0  0
  -27.6514  -13.2167   19.8508 C   0  0  2  0  0  0
  -28.6753  -13.0464   20.9870 C   0  0  0  0  0  0
  -25.2548  -13.8178   20.5628 C   0  0  0  0  0  0
  -24.1823  -13.0444   20.9158 C   0  0  0  0  0  0
  -24.6389  -11.6914   20.8699 C   0  0  0  0  0  0
  -23.9062  -10.4296   21.0392 C   0  0  0  0  0  0
  -24.3618   -9.4217   21.9174 C   0  0  0  0  0  0
  -23.6294   -8.2251   22.0753 C   0  0  0  0  0  0
  -22.4275   -8.0284   21.3545 C   0  0  0  0  0  0
  -21.9906   -9.0254   20.4647 C   0  0  0  0  0  0
  -22.7231  -10.2133   20.3049 C   0  0  0  0  0  0
  -21.6855   -6.0737   22.5280 C   0  0  0  0  0  0
  -21.4016   -6.5640   23.8214 C   0  0  0  0  0  0
  -21.3660   -5.6792   24.9175 C   0  0  0  0  0  0
  -21.6044   -4.3055   24.7225 C   0  0  0  0  0  0
  -21.8819   -3.8147   23.4347 C   0  0  0  0  0  0
  -21.9194   -4.6964   22.3403 C   0  0  0  0  0  0
  -22.7852  -13.5237   21.1853 C   0  0  0  0  0  0
  -22.1662   -4.2150   21.0981 F   0  0  0  0  0  0
  -21.5628   -3.4539   25.7737 F   0  0  0  0  0  0
  -30.0265  -13.3594   20.4800 N   0  0  0  0  0  0
  -26.2954  -12.9358   20.3180 N   0  0  0  0  0  0
  -25.9301  -11.6511   20.5653 N   0  0  0  0  0  0
  -22.0506  -12.8224   22.0416 N   0  0  0  0  0  0
  -25.4283  -15.1900   20.4086 N   0  0  0  0  0  0
  -31.7640  -14.7152   19.9824 O   0  0  0  0  0  0
  -21.6643   -6.8879   21.4242 O   0  0  0  0  0  0
  -22.3528  -14.5546   20.6714 O   0  0  0  0  0  0
  -24.6215  -31.8641   23.2074 C   0  0  0  0  0  0
  -25.9086  -32.4799   23.8380 C   0  0  1  0  0  0
  -27.2187  -27.3588   20.1057 C   0  0  0  0  0  0
  -25.5921  -33.8600   24.2306 N   0  0  0  0  0  0
  -23.4111  -30.4902   21.5505 C   0  0  2  0  0  0
  -24.8534  -28.9511   20.1158 C   0  0  0  0  0  0
  -22.7444  -29.4645   22.4970 C   0  0  0  0  0  0
  -18.0279  -28.1378   22.8486 C   0  0  0  0  0  0
  -24.1489  -36.7301   23.2638 C   0  0  0  0  0  0
  -25.9492  -30.8056   21.3738 C   0  0  0  0  0  0
  -26.0206  -29.4361   20.7178 C   0  0  0  0  0  0
  -27.2050  -28.6501   20.7056 C   0  0  0  0  0  0
  -26.0290  -26.9212   19.4766 C   0  0  0  0  0  0
  -24.8572  -27.6968   19.4899 C   0  0  0  0  0  0
  -23.6219  -29.8283   20.1645 C   0  0  0  0  0  0
  -25.4112  -36.3095   24.0333 C   0  0  1  0  0  0
  -20.5873  -28.3674   23.1299 C   0  0  2  0  0  0
  -20.6771  -26.9405   22.5411 C   0  0  0  0  0  0
  -19.5749  -26.6381   21.5211 C   0  0  0  0  0  0
  -18.1927  -26.7922   22.1620 C   0  0  0  0  0  0
  -19.1529  -28.8843   23.2888 C   0  0  0  0  0  0
  -18.9457  -30.1448   23.8900 C   0  0  0  0  0  0
  -17.6458  -30.6582   24.0564 C   0  0  0  0  0  0
  -25.9046  -34.9463   23.5115 C   0  0  0  0  0  0
  -16.5349  -29.9083   23.6329 C   0  0  0  0  0  0
  -16.7267  -28.6501   23.0347 C   0  0  0  0  0  0
  -26.4487  -31.6595   25.0732 C   0  0  0  0  0  0
  -25.3734  -31.3718   26.1468 C   0  0  0  0  0  0
  -27.0329  -30.3027   24.6157 C   0  0  0  0  0  0
  -27.6055  -32.4325   25.7496 C   0  0  0  0  0  0
  -27.5580  -37.1806   24.8465 C   0  0  0  0  0  0
  -21.4165  -29.3038   22.3707 N   0  0  0  0  0  0
  -26.4293  -37.3784   23.9408 N   0  0  0  0  0  0
  -24.6792  -31.0689   22.1010 N   0  0  0  0  0  0
  -23.4190  -28.8181   23.3028 O   0  0  0  0  0  0
  -28.3751  -26.5770   20.1168 O   0  0  0  0  0  0
  -26.5608  -34.8922   22.4678 O   0  0  0  0  0  0
  -23.5391  -32.1426   23.7430 O   0  0  0  0  0  0
  -29.2094  -18.2865   21.0873 C   0  0  0  0  0  0
  -30.5839  -18.0875   21.3307 C   0  0  0  0  0  0
  -29.4901  -20.7438   20.7600 C   0  0  0  0  0  0
  -28.6678  -19.5723   20.8077 C   0  0  0  0  0  0
  -31.4282  -19.2394   21.2339 C   0  0  0  0  0  0
  -30.8930  -20.5395   20.9528 C   0  0  0  0  0  0
  -31.1349  -15.4903   23.9612 C   0  0  0  0  0  0
  -29.2577  -22.8962   19.2118 C   0  0  0  0  0  0
  -28.9693  -23.1461   21.7546 C   0  0  0  0  0  0
  -31.3322  -16.8693   23.3849 C   0  0  0  0  0  0
  -29.4235  -24.4470   19.3233 C   0  0  0  0  0  0
  -28.2570  -24.5281   21.5642 C   0  0  0  0  0  0
  -30.1091  -14.8885   23.0174 C   0  0  0  0  0  0
  -28.8633  -22.1772   20.5406 C   0  0  2  0  0  0
  -31.1316  -16.7192   21.8622 C   0  0  1  0  0  0
  -28.2837  -25.1113   20.1245 C   0  0  1  0  0  0
  -27.1636  -19.6493   20.5933 C   0  0  0  0  0  0
  -32.9420  -19.1315   21.4612 C   0  0  0  0  0  0
  -31.8756  -21.7136   20.9065 C   0  0  0  0  0  0
  -30.4098  -15.4014   21.6658 N   0  0  0  0  0  0
  -31.4606  -12.4475   19.1568 H   0  0  0  0  0  0
  -30.3134  -11.3574   19.8634 H   0  0  0  0  0  0
  -29.7671  -11.8034   17.4530 H   0  0  0  0  0  0
  -29.6542  -13.5160   17.7788 H   0  0  0  0  0  0
  -27.8553  -11.3040   18.8323 H   0  0  0  0  0  0
  -27.3758  -12.6072   17.7760 H   0  0  0  0  0  0
  -27.6842  -14.2589   19.5321 H   0  0  0  0  0  0
  -28.6561  -12.0275   21.3765 H   0  0  0  0  0  0
  -28.3418  -13.6819   21.8005 H   0  0  0  0  0  0
  -25.2766   -9.5696   22.4740 H   0  0  0  0  0  0
  -24.0006   -7.4645   22.7473 H   0  0  0  0  0  0
  -21.0836   -8.8768   19.8955 H   0  0  0  0  0  0
  -22.3688  -10.9667   19.6154 H   0  0  0  0  0  0
  -21.2009   -7.6148   23.9717 H   0  0  0  0  0  0
  -21.1481   -6.0523   25.9078 H   0  0  0  0  0  0
  -22.0597   -2.7609   23.2847 H   0  0  0  0  0  0
  -22.4126  -11.9878   22.4788 H   0  0  0  0  0  0
  -21.1129  -13.1248   22.2641 H   0  0  0  0  0  0
  -24.6669  -15.8490   20.5279 H   0  0  0  0  0  0
  -26.2863  -15.6266   20.0961 H   0  0  0  0  0  0
  -26.7151  -32.5479   23.1128 H   0  0  0  0  0  0
  -25.0083  -33.9756   25.0459 H   0  0  0  0  0  0
  -22.7029  -31.3097   21.4120 H   0  0  0  0  0  0
  -23.3751  -35.9634   23.3306 H   0  0  0  0  0  0
  -24.3580  -36.8911   22.2051 H   0  0  0  0  0  0
  -23.7243  -37.6507   23.6653 H   0  0  0  0  0  0
  -26.0766  -31.5704   20.6064 H   0  0  0  0  0  0
  -26.8319  -30.8521   22.0000 H   0  0  0  0  0  0
  -28.1045  -29.0216   21.1763 H   0  0  0  0  0  0
  -25.9677  -25.9872   18.9425 H   0  0  0  0  0  0
  -23.9650  -27.3247   19.0053 H   0  0  0  0  0  0
  -23.7393  -30.6062   19.4091 H   0  0  0  0  0  0
  -22.7420  -29.2573   19.8626 H   0  0  0  0  0  0
  -25.1290  -36.1953   25.0826 H   0  0  0  0  0  0
  -20.9964  -28.3240   24.1419 H   0  0  0  0  0  0
  -20.5676  -26.2282   23.3603 H   0  0  0  0  0  0
  -21.6641  -26.7444   22.1202 H   0  0  0  0  0  0
  -19.6916  -25.6295   21.1235 H   0  0  0  0  0  0
  -19.6690  -27.3198   20.6746 H   0  0  0  0  0  0
  -17.4199  -26.6670   21.4021 H   0  0  0  0  0  0
  -18.0327  -26.0059   22.9012 H   0  0  0  0  0  0
  -19.7935  -30.7263   24.2268 H   0  0  0  0  0  0
  -17.5015  -31.6264   24.5164 H   0  0  0  0  0  0
  -15.5351  -30.2989   23.7653 H   0  0  0  0  0  0
  -15.8663  -28.0828   22.7055 H   0  0  0  0  0  0
  -24.5911  -30.7061   25.7801 H   0  0  0  0  0  0
  -24.8921  -32.2880   26.4902 H   0  0  0  0  0  0
  -25.8070  -30.8895   27.0237 H   0  0  0  0  0  0
  -26.2894  -29.6781   24.1190 H   0  0  0  0  0  0
  -27.4056  -29.7273   25.4640 H   0  0  0  0  0  0
  -27.8748  -30.4328   23.9353 H   0  0  0  0  0  0
  -27.2671  -33.3621   26.2083 H   0  0  0  0  0  0
  -28.3857  -32.6891   25.0316 H   0  0  0  0  0  0
  -28.0733  -31.8445   26.5402 H   0  0  0  0  0  0
  -28.2601  -38.0100   24.7509 H   0  0  0  0  0  0
  -28.1073  -36.2631   24.6295 H   0  0  0  0  0  0
  -27.2299  -37.1458   25.8869 H   0  0  0  0  0  0
  -20.9334  -29.8768   21.6930 H   0  0  0  0  0  0
  -26.0179  -38.2862   24.1408 H   0  0  0  0  0  0
  -28.5455  -17.4370   21.1687 H   0  0  0  0  0  0
  -30.8015  -15.5057   24.9998 H   0  0  0  0  0  0
  -32.0680  -14.9263   23.9138 H   0  0  0  0  0  0
  -30.1726  -22.4754   18.7967 H   0  0  0  0  0  0
  -28.4979  -22.6692   18.4628 H   0  0  0  0  0  0
  -28.5621  -22.6594   22.6416 H   0  0  0  0  0  0
  -30.0124  -23.3393   21.9949 H   0  0  0  0  0  0
  -32.2917  -17.3054   23.6618 H   0  0  0  0  0  0
  -30.5576  -17.5183   23.7983 H   0  0  0  0  0  0
  -29.4665  -24.8747   18.3213 H   0  0  0  0  0  0
  -30.3786  -24.6870   19.7918 H   0  0  0  0  0  0
  -28.7150  -25.2408   22.2508 H   0  0  0  0  0  0
  -27.2170  -24.4497   21.8826 H   0  0  0  0  0  0
  -29.1066  -15.2133   23.3003 H   0  0  0  0  0  0
  -30.1483  -13.8014   23.1107 H   0  0  0  0  0  0
  -27.7880  -22.0507   20.4454 H   0  0  0  0  0  0
  -32.1152  -16.5736   21.4227 H   0  0  0  0  0  0
  -27.3846  -24.7526   19.6347 H   0  0  0  0  0  0
  -26.7006  -18.6623   20.6202 H   0  0  0  0  0  0
  -26.9334  -20.0868   19.6214 H   0  0  0  0  0  0
  -26.6929  -20.2503   21.3719 H   0  0  0  0  0  0
  -33.3061  -18.1849   21.8435 H   0  0  0  0  0  0
  -33.2784  -19.8725   22.1860 H   0  0  0  0  0  0
  -33.4710  -19.3088   20.5245 H   0  0  0  0  0  0
  -31.4685  -22.6449   20.5344 H   0  0  0  0  0  0
  -32.7203  -21.4899   20.2556 H   0  0  0  0  0  0
  -32.2589  -21.9203   21.9059 H   0  0  0  0  0  0
  1 25  1  0  0  0
  1 30  2  0  0  0
  1 90  1  0  0  0
  2  3  1  0  0  0
  2 25  1  0  0  0
  2 91  1  0  0  0
  2 92  1  0  0  0
  3  4  1  0  0  0
  3 93  1  0  0  0
  3 94  1  0  0  0
  4  5  1  0  0  0
  4 95  1  0  0  0
  4 96  1  0  0  0
  5  6  1  0  0  0
  5 26  1  0  0  0
  5 97  1  0  0  0
  6 25  1  0  0  0
  6 98  1  0  0  0
  6 99  1  0  0  0
  7  8  2  0  0  0
  7 26  1  0  0  0
  7 29  1  0  0  0
  8  9  1  0  0  0
  8 22  1  0  0  0
  9 10  1  0  0  0
  9 27  2  0  0  0
 10 11  2  0  0  0
 10 15  1  0  0  0
 11 12  1  0  0  0
 11100  1  0  0  0
 12 13  2  0  0  0
 12101  1  0  0  0
 13 14  1  0  0  0
 13 31  1  0  0  0
 14 15  2  0  0  0
 14102  1  0  0  0
 15103  1  0  0  0
 16 17  2  0  0  0
 16 21  1  0  0  0
 16 31  1  0  0  0
 17 18  1  0  0  0
 17104  1  0  0  0
 18 19  2  0  0  0
 18105  1  0  0  0
 19 20  1  0  0  0
 19 24  1  0  0  0
 20 21  2  0  0  0
 20106  1  0  0  0
 21 23  1  0  0  0
 22 28  1  0  0  0
 22 32  2  0  0  0
 26 27  1  0  0  0
 28107  1  0  0  0
 28108  1  0  0  0
 29109  1  0  0  0
 29110  1  0  0  0
 33 34  1  0  0  0
 33 66  1  0  0  0
 33 70  2  0  0  0
 34 36  1  0  0  0
 34 59  1  0  0  0
 34111  1  0  0  0
 35 44  2  0  0  0
 35 45  1  0  0  0
 35 68  1  0  0  0
 36 56  1  0  0  0
 36112  1  0  0  0
 37 39  1  0  0  0
 37 47  1  0  0  0
 37 66  1  0  0  0
 37113  1  0  0  0
 38 43  2  0  0  0
 38 46  1  0  0  0
 38 47  1  0  0  0
 39 64  1  0  0  0
 39 67  2  0  0  0
 40 52  1  0  0  0
 40 53  2  0  0  0
 40 58  1  0  0  0
 41114  1  0  0  0
 41115  1  0  0  0
 41116  1  0  0  0
 41 48  1  0  0  0
 42 43  1  0  0  0
 42 66  1  0  0  0
 42117  1  0  0  0
 42118  1  0  0  0
 43 44  1  0  0  0
 44119  1  0  0  0
 45 46  2  0  0  0
 45120  1  0  0  0
 46121  1  0  0  0
 47122  1  0  0  0
 47123  1  0  0  0
 48 56  1  0  0  0
 48 65  1  0  0  0
 48124  1  0  0  0
 49 50  1  0  0  0
 49 53  1  0  0  0
 49 64  1  0  0  0
 49125  1  0  0  0
 50 51  1  0  0  0
 50126  1  0  0  0
 50127  1  0  0  0
 51 52  1  0  0  0
 51128  1  0  0  0
 51129  1  0  0  0
 52130  1  0  0  0
 52131  1  0  0  0
 53 54  1  0  0  0
 54 55  2  0  0  0
 54132  1  0  0  0
 55 57  1  0  0  0
 55133  1  0  0  0
 56 69  2  0  0  0
 57 58  2  0  0  0
 57134  1  0  0  0
 58135  1  0  0  0
 59 60  1  0  0  0
 59 61  1  0  0  0
 59 62  1  0  0  0
 60136  1  0  0  0
 60137  1  0  0  0
 60138  1  0  0  0
 61139  1  0  0  0
 61140  1  0  0  0
 61141  1  0  0  0
 62142  1  0  0  0
 62143  1  0  0  0
 62144  1  0  0  0
 63 65  1  0  0  0
 63145  1  0  0  0
 63146  1  0  0  0
 63147  1  0  0  0
 64148  1  0  0  0
 65149  1  0  0  0
 68 86  1  0  0  0
 71 72  2  0  0  0
 71 74  1  0  0  0
 71150  1  0  0  0
 72 75  1  0  0  0
 72 85  1  0  0  0
 73 74  2  0  0  0
 73 76  1  0  0  0
 73 84  1  0  0  0
 74 87  1  0  0  0
 75 76  2  0  0  0
 75 88  1  0  0  0
 76 89  1  0  0  0
 77 80  1  0  0  0
 77 83  1  0  0  0
 77151  1  0  0  0
 77152  1  0  0  0
 78 81  1  0  0  0
 78 84  1  0  0  0
 78153  1  0  0  0
 78154  1  0  0  0
 79 82  1  0  0  0
 79 84  1  0  0  0
 79155  1  0  0  0
 79156  1  0  0  0
 80 85  1  0  0  0
 80157  1  0  0  0
 80158  1  0  0  0
 81 86  1  0  0  0
 81159  1  0  0  0
 81160  1  0  0  0
 82 86  1  0  0  0
 82161  1  0  0  0
 82162  1  0  0  0
 83 90  1  0  0  0
 83163  1  0  0  0
 83164  1  0  0  0
 84165  1  0  0  0
 85 90  1  0  0  0
 85166  1  0  0  0
 86167  1  0  0  0
 87168  1  0  0  0
 87169  1  0  0  0
 87170  1  0  0  0
 88171  1  0  0  0
 88172  1  0  0  0
 88173  1  0  0  0
 89174  1  0  0  0
 89175  1  0  0  0
 89176  1  0  0  0
M  ISO  4   1 100  68 101  86 101  90 100
M  END
> <chiral flag>
0

> <version>
0

> <s_m_source_file>
/data/baiqing/PycharmProjects/Reinvent-master-3.2/result/LINK_invent/BTK/process_docking_weight1_custom_sum_contain_oxygen_bond_distance_aromatic_linkinvent_7_9_3/rearranged_h_0164.sdf

> <i_m_source_file_index>
67

> <r_mmod_Potential_Energy-OPLS-2005>
295.280181884766

> <r_mmod_Stretch_Energy-OPLS-2005>
80.3947982788086

> <r_mmod_Bend_Energy-OPLS-2005>
173.513473510742

> <r_mmod_Torsional_Energy-OPLS-2005>
347.883819580078

> <r_mmod_Improper_Torsional_Energy-OPLS-2005>
6.35545206069946

> <r_mmod_Van_der_Waal_Energy-OPLS-2005>
184.317855834961

> <r_mmod_Electrostatic_Energy-OPLS-2005>
-336.986572265625

> <r_mmod_Solvation_Energy-OPLS-2005>
-184.015609741211

> <b_mmod_Minimization_Converged-OPLS-2005>
0

> <r_mmod_RMS_Derivative-OPLS-2005>
0.341910898685455

$$$$
67
                    3D
 Structure written by MMmdl.
167176  0  0  1  0            999 V2000
  -30.6953  -14.7457   20.4847 C   0  0  0  0  0  0
  -30.3945  -12.4528   19.5049 C   0  0  0  0  0  0
  -29.4906  -12.4474   18.2551 C   0  0  0  0  0  0
  -28.0274  -12.2480   18.6770 C   0  0  0  0  0  0
  -27.6175  -13.2056   19.8206 C   0  0  2  0  0  0
  -28.6558  -13.2393   20.9673 C   0  0  0  0  0  0
  -25.2414  -13.8109   20.5654 C   0  0  0  0  0  0
  -24.1724  -13.0411   20.9217 C   0  0  0  0  0  0
  -24.6278  -11.6868   20.8784 C   0  0  0  0  0  0
  -23.8978  -10.4268   21.0439 C   0  0  0  0  0  0
  -24.3556   -9.4180   21.9195 C   0  0  0  0  0  0
  -23.6277   -8.2186   22.0756 C   0  0  0  0  0  0
  -22.4255   -8.0230   21.3526 C   0  0  0  0  0  0
  -21.9862   -9.0201   20.4632 C   0  0  0  0  0  0
  -22.7164  -10.2094   20.3053 C   0  0  0  0  0  0
  -21.6841   -6.0707   22.5289 C   0  0  0  0  0  0
  -21.4014   -6.5624   23.8221 C   0  0  0  0  0  0
  -21.3671   -5.6772   24.9184 C   0  0  0  0  0  0
  -21.6062   -4.3036   24.7230 C   0  0  0  0  0  0
  -21.8815   -3.8123   23.4347 C   0  0  0  0  0  0
  -21.9174   -4.6929   22.3398 C   0  0  0  0  0  0
  -22.7765  -13.5199   21.1929 C   0  0  0  0  0  0
  -22.1649   -4.2105   21.0981 F   0  0  0  0  0  0
  -21.5631   -3.4538   25.7755 F   0  0  0  0  0  0
  -29.9643  -13.5714   20.3868 N   0  0  0  0  0  0
  -26.2775  -12.9255   20.3146 N   0  0  0  0  0  0
  -25.9180  -11.6449   20.5763 N   0  0  0  0  0  0
  -22.0387  -12.8230   22.0491 N   0  0  0  0  0  0
  -25.4152  -15.1848   20.4115 N   0  0  0  0  0  0
  -31.8738  -14.7205   20.1173 O   0  0  0  0  0  0
  -21.6615   -6.8852   21.4248 O   0  0  0  0  0  0
  -22.3452  -14.5519   20.6771 O   0  0  0  0  0  0
  -24.6232  -31.8610   23.2006 C   0  0  0  0  0  0
  -25.9067  -32.4806   23.8338 C   0  0  1  0  0  0
  -27.2492  -27.3411   20.1236 C   0  0  0  0  0  0
  -25.5897  -33.8613   24.2265 N   0  0  0  0  0  0
  -23.4167  -30.4790   21.5458 C   0  0  2  0  0  0
  -24.8695  -28.9341   20.1149 C   0  0  0  0  0  0
  -22.7462  -29.4606   22.4980 C   0  0  0  0  0  0
  -18.0277  -28.1400   22.8484 C   0  0  0  0  0  0
  -24.1497  -36.7337   23.2628 C   0  0  0  0  0  0
  -25.9520  -30.8065   21.3581 C   0  0  0  0  0  0
  -26.0351  -29.4304   20.7095 C   0  0  0  0  0  0
  -27.2261  -28.6483   20.6986 C   0  0  0  0  0  0
  -26.0522  -26.8890   19.5152 C   0  0  0  0  0  0
  -24.8789  -27.6682   19.5087 C   0  0  0  0  0  0
  -23.6303  -29.8045   20.1642 C   0  0  0  0  0  0
  -25.4115  -36.3117   24.0320 C   0  0  1  0  0  0
  -20.5871  -28.3685   23.1333 C   0  0  2  0  0  0
  -20.6781  -26.9422   22.5437 C   0  0  0  0  0  0
  -19.5770  -26.6397   21.5227 C   0  0  0  0  0  0
  -18.1937  -26.7947   22.1619 C   0  0  0  0  0  0
  -19.1523  -28.8862   23.2907 C   0  0  0  0  0  0
  -18.9442  -30.1463   23.8922 C   0  0  0  0  0  0
  -17.6440  -30.6602   24.0573 C   0  0  0  0  0  0
  -25.9037  -34.9473   23.5095 C   0  0  0  0  0  0
  -16.5339  -29.9106   23.6322 C   0  0  0  0  0  0
  -16.7261  -28.6531   23.0326 C   0  0  0  0  0  0
  -26.4450  -31.6618   25.0704 C   0  0  0  0  0  0
  -25.3682  -31.3785   26.1440 C   0  0  0  0  0  0
  -27.0216  -30.3035   24.6098 C   0  0  0  0  0  0
  -27.6035  -32.4322   25.7472 C   0  0  0  0  0  0
  -27.5591  -37.1819   24.8442 C   0  0  0  0  0  0
  -21.4174  -29.3036   22.3738 N   0  0  0  0  0  0
  -26.4300  -37.3803   23.9399 N   0  0  0  0  0  0
  -24.6838  -31.0638   22.0942 N   0  0  0  0  0  0
  -23.4201  -28.8158   23.3059 O   0  0  0  0  0  0
  -28.3916  -26.5257   20.1848 O   0  0  0  0  0  0
  -26.5619  -34.8933   22.4670 O   0  0  0  0  0  0
  -23.5402  -32.1374   23.7362 O   0  0  0  0  0  0
  -31.8287  -23.5177   20.0564 C   0  0  0  0  0  0
  -30.8081  -24.4999   20.0963 C   0  0  0  0  0  0
  -31.4625  -22.1460   19.9658 C   0  0  0  0  0  0
  -29.4527  -24.0779   20.1395 C   0  0  0  0  0  0
  -30.1055  -21.7535   20.1118 C   0  0  0  0  0  0
  -31.0800  -18.4243   20.8143 C   0  0  0  0  0  0
  -28.7734  -18.0205   20.1338 C   0  0  0  0  0  0
  -31.0464  -17.0296   21.5469 C   0  0  0  0  0  0
  -28.8346  -16.5785   20.7961 C   0  0  0  0  0  0
  -29.7089  -19.1497   20.7061 C   0  0  0  0  0  0
  -33.3041  -23.9367   19.9778 C   0  0  0  0  0  0
  -31.1635  -25.9828   19.9649 C   0  0  0  0  0  0
  -32.5342  -21.1468   19.5498 C   0  0  0  0  0  0
  -28.2545  -25.0789   19.9098 C   0  0  0  0  0  0
  -29.1436  -22.7296   20.1997 N   0  0  0  0  0  0
  -30.1829  -15.9705   20.9398 N   0  0  0  0  0  0
  -29.6785  -20.4014   19.8527 N   0  0  0  0  0  0
  -31.4432  -12.5100   19.2157 H   0  0  0  0  0  0
  -30.3001  -11.5073   20.0426 H   0  0  0  0  0  0
  -29.7890  -11.6393   17.5851 H   0  0  0  0  0  0
  -29.5970  -13.3765   17.6943 H   0  0  0  0  0  0
  -27.9245  -11.2148   19.0159 H   0  0  0  0  0  0
  -27.3553  -12.3437   17.8229 H   0  0  0  0  0  0
  -27.5759  -14.1771   19.3375 H   0  0  0  0  0  0
  -28.6938  -12.2740   21.4746 H   0  0  0  0  0  0
  -28.3657  -13.9707   21.7211 H   0  0  0  0  0  0
  -25.2681   -9.5679   22.4784 H   0  0  0  0  0  0
  -23.9987   -7.4579   22.7469 H   0  0  0  0  0  0
  -21.0774   -8.8706   19.8963 H   0  0  0  0  0  0
  -22.3607  -10.9628   19.6172 H   0  0  0  0  0  0
  -21.2026   -7.6133   23.9732 H   0  0  0  0  0  0
  -21.1520   -6.0494   25.9095 H   0  0  0  0  0  0
  -22.0591   -2.7573   23.2843 H   0  0  0  0  0  0
  -22.3971  -11.9880   22.4895 H   0  0  0  0  0  0
  -21.1025  -13.1313   22.2739 H   0  0  0  0  0  0
  -24.6579  -15.8417   20.5641 H   0  0  0  0  0  0
  -26.2674  -15.6285   20.1004 H   0  0  0  0  0  0
  -26.7145  -32.5501   23.1104 H   0  0  0  0  0  0
  -25.0019  -33.9766   25.0395 H   0  0  0  0  0  0
  -22.7062  -31.2969   21.4004 H   0  0  0  0  0  0
  -23.3751  -35.9677   23.3268 H   0  0  0  0  0  0
  -24.3597  -36.8981   22.2046 H   0  0  0  0  0  0
  -23.7249  -37.6535   23.6663 H   0  0  0  0  0  0
  -26.0500  -31.5646   20.5801 H   0  0  0  0  0  0
  -26.8444  -30.8793   21.9676 H   0  0  0  0  0  0
  -28.1230  -29.0348   21.1625 H   0  0  0  0  0  0
  -25.9891  -25.9164   19.0532 H   0  0  0  0  0  0
  -23.9838  -27.2755   19.0455 H   0  0  0  0  0  0
  -23.7324  -30.5747   19.3992 H   0  0  0  0  0  0
  -22.7558  -29.2194   19.8750 H   0  0  0  0  0  0
  -25.1297  -36.1966   25.0815 H   0  0  0  0  0  0
  -20.9940  -28.3251   24.1465 H   0  0  0  0  0  0
  -20.5698  -26.2293   23.3621 H   0  0  0  0  0  0
  -21.6652  -26.7489   22.1221 H   0  0  0  0  0  0
  -19.6937  -25.6308   21.1265 H   0  0  0  0  0  0
  -19.6734  -27.3206   20.6758 H   0  0  0  0  0  0
  -17.4224  -26.6694   21.4004 H   0  0  0  0  0  0
  -18.0329  -26.0095   22.9016 H   0  0  0  0  0  0
  -19.7914  -30.7273   24.2315 H   0  0  0  0  0  0
  -17.4994  -31.6277   24.5172 H   0  0  0  0  0  0
  -15.5339  -30.3005   23.7645 H   0  0  0  0  0  0
  -15.8662  -28.0867   22.7001 H   0  0  0  0  0  0
  -24.5846  -30.7137   25.7786 H   0  0  0  0  0  0
  -24.8874  -32.2965   26.4839 H   0  0  0  0  0  0
  -25.7997  -30.8986   27.0230 H   0  0  0  0  0  0
  -26.2728  -29.6867   24.1105 H   0  0  0  0  0  0
  -27.3884  -29.7227   25.4570 H   0  0  0  0  0  0
  -27.8629  -30.4312   23.9277 H   0  0  0  0  0  0
  -27.2661  -33.3617   26.2069 H   0  0  0  0  0  0
  -28.3840  -32.6882   25.0296 H   0  0  0  0  0  0
  -28.0690  -31.8414   26.5368 H   0  0  0  0  0  0
  -28.2601  -38.0123   24.7505 H   0  0  0  0  0  0
  -28.1090  -36.2660   24.6236 H   0  0  0  0  0  0
  -27.2324  -37.1438   25.8847 H   0  0  0  0  0  0
  -20.9358  -29.8752   21.6940 H   0  0  0  0  0  0
  -26.0181  -38.2883   24.1401 H   0  0  0  0  0  0
  -31.4936  -18.2926   19.8145 H   0  0  0  0  0  0
  -31.7706  -19.0613   21.3655 H   0  0  0  0  0  0
  -27.7377  -18.3626   20.1613 H   0  0  0  0  0  0
  -28.9958  -17.8980   19.0737 H   0  0  0  0  0  0
  -30.6906  -17.2099   22.5622 H   0  0  0  0  0  0
  -32.0669  -16.6685   21.6771 H   0  0  0  0  0  0
  -28.2115  -15.9260   20.2023 H   0  0  0  0  0  0
  -28.3781  -16.6193   21.7868 H   0  0  0  0  0  0
  -29.3692  -19.4171   21.7093 H   0  0  0  0  0  0
  -33.5521  -24.7401   20.6730 H   0  0  0  0  0  0
  -33.5382  -24.2643   18.9629 H   0  0  0  0  0  0
  -33.9983  -23.1414   20.2420 H   0  0  0  0  0  0
  -32.2265  -26.1954   19.8866 H   0  0  0  0  0  0
  -30.7996  -26.5553   20.8182 H   0  0  0  0  0  0
  -30.7225  -26.3748   19.0489 H   0  0  0  0  0  0
  -33.2743  -21.6268   18.9040 H   0  0  0  0  0  0
  -32.1310  -20.3463   18.9344 H   0  0  0  0  0  0
  -33.0394  -20.7267   20.4200 H   0  0  0  0  0  0
  -27.3945  -24.6928   20.4576 H   0  0  0  0  0  0
  -28.0226  -24.9868   18.8481 H   0  0  0  0  0  0
  -29.7942  -20.1779   18.8708 H   0  0  0  0  0  0
  1 25  1  0  0  0
  1 30  2  0  0  0
  1 86  1  0  0  0
  2  3  1  0  0  0
  2 25  1  0  0  0
  2 88  1  0  0  0
  2 89  1  0  0  0
  3  4  1  0  0  0
  3 90  1  0  0  0
  3 91  1  0  0  0
  4  5  1  0  0  0
  4 92  1  0  0  0
  4 93  1  0  0  0
  5  6  1  0  0  0
  5 26  1  0  0  0
  5 94  1  0  0  0
  6 25  1  0  0  0
  6 95  1  0  0  0
  6 96  1  0  0  0
  7  8  2  0  0  0
  7 26  1  0  0  0
  7 29  1  0  0  0
  8  9  1  0  0  0
  8 22  1  0  0  0
  9 10  1  0  0  0
  9 27  2  0  0  0
 10 11  2  0  0  0
 10 15  1  0  0  0
 11 12  1  0  0  0
 11 97  1  0  0  0
 12 13  2  0  0  0
 12 98  1  0  0  0
 13 14  1  0  0  0
 13 31  1  0  0  0
 14 15  2  0  0  0
 14 99  1  0  0  0
 15100  1  0  0  0
 16 17  2  0  0  0
 16 21  1  0  0  0
 16 31  1  0  0  0
 17 18  1  0  0  0
 17101  1  0  0  0
 18 19  2  0  0  0
 18102  1  0  0  0
 19 20  1  0  0  0
 19 24  1  0  0  0
 20 21  2  0  0  0
 20103  1  0  0  0
 21 23  1  0  0  0
 22 28  1  0  0  0
 22 32  2  0  0  0
 26 27  1  0  0  0
 28104  1  0  0  0
 28105  1  0  0  0
 29106  1  0  0  0
 29107  1  0  0  0
 33 34  1  0  0  0
 33 66  1  0  0  0
 33 70  2  0  0  0
 34 36  1  0  0  0
 34 59  1  0  0  0
 34108  1  0  0  0
 35 44  2  0  0  0
 35 45  1  0  0  0
 35 68  1  0  0  0
 36 56  1  0  0  0
 36109  1  0  0  0
 37 39  1  0  0  0
 37 47  1  0  0  0
 37 66  1  0  0  0
 37110  1  0  0  0
 38 43  2  0  0  0
 38 46  1  0  0  0
 38 47  1  0  0  0
 39 64  1  0  0  0
 39 67  2  0  0  0
 40 52  1  0  0  0
 40 53  2  0  0  0
 40 58  1  0  0  0
 41111  1  0  0  0
 41112  1  0  0  0
 41113  1  0  0  0
 41 48  1  0  0  0
 42 43  1  0  0  0
 42 66  1  0  0  0
 42114  1  0  0  0
 42115  1  0  0  0
 43 44  1  0  0  0
 44116  1  0  0  0
 45 46  2  0  0  0
 45117  1  0  0  0
 46118  1  0  0  0
 47119  1  0  0  0
 47120  1  0  0  0
 48 56  1  0  0  0
 48 65  1  0  0  0
 48121  1  0  0  0
 49 50  1  0  0  0
 49 53  1  0  0  0
 49 64  1  0  0  0
 49122  1  0  0  0
 50 51  1  0  0  0
 50123  1  0  0  0
 50124  1  0  0  0
 51 52  1  0  0  0
 51125  1  0  0  0
 51126  1  0  0  0
 52127  1  0  0  0
 52128  1  0  0  0
 53 54  1  0  0  0
 54 55  2  0  0  0
 54129  1  0  0  0
 55 57  1  0  0  0
 55130  1  0  0  0
 56 69  2  0  0  0
 57 58  2  0  0  0
 57131  1  0  0  0
 58132  1  0  0  0
 59 60  1  0  0  0
 59 61  1  0  0  0
 59 62  1  0  0  0
 60133  1  0  0  0
 60134  1  0  0  0
 60135  1  0  0  0
 61136  1  0  0  0
 61137  1  0  0  0
 61138  1  0  0  0
 62139  1  0  0  0
 62140  1  0  0  0
 62141  1  0  0  0
 63 65  1  0  0  0
 63142  1  0  0  0
 63143  1  0  0  0
 63144  1  0  0  0
 64145  1  0  0  0
 65146  1  0  0  0
 68 84  1  0  0  0
 71 72  2  0  0  0
 71 73  1  0  0  0
 71 81  1  0  0  0
 72 74  1  0  0  0
 72 82  1  0  0  0
 73 75  2  0  0  0
 73 83  1  0  0  0
 74 84  1  0  0  0
 74 85  2  0  0  0
 75 85  1  0  0  0
 75 87  1  0  0  0
 76 78  1  0  0  0
 76 80  1  0  0  0
 76147  1  0  0  0
 76148  1  0  0  0
 77 79  1  0  0  0
 77 80  1  0  0  0
 77149  1  0  0  0
 77150  1  0  0  0
 78 86  1  0  0  0
 78151  1  0  0  0
 78152  1  0  0  0
 79 86  1  0  0  0
 79153  1  0  0  0
 79154  1  0  0  0
 80 87  1  0  0  0
 80155  1  0  0  0
 81156  1  0  0  0
 81157  1  0  0  0
 81158  1  0  0  0
 82159  1  0  0  0
 82160  1  0  0  0
 82161  1  0  0  0
 83162  1  0  0  0
 83163  1  0  0  0
 83164  1  0  0  0
 84165  1  0  0  0
 84166  1  0  0  0
 87167  1  0  0  0
M  ISO  4   1 100  68 101  84 101  86 100
M  END
> <chiral flag>
0

> <version>
0

> <s_m_source_file>
/data/baiqing/PycharmProjects/Reinvent-master-3.2/result/LINK_invent/BTK/process_docking_weight1_custom_sum_contain_oxygen_bond_distance_aromatic_linkinvent_7_9_3/rearranged_h_0164.sdf

> <i_m_source_file_index>
68

> <r_mmod_Potential_Energy-OPLS-2005>
177.304885864258

> <r_mmod_Stretch_Energy-OPLS-2005>
100.665374755859

> <r_mmod_Bend_Energy-OPLS-2005>
209.533630371094

> <r_mmod_Torsional_Energy-OPLS-2005>
346.337310791016

> <r_mmod_Improper_Torsional_Energy-OPLS-2005>
8.00712394714355

> <r_mmod_Van_der_Waal_Energy-OPLS-2005>
170.64045715332

> <r_mmod_Electrostatic_Energy-OPLS-2005>
-499.194580078125

> <r_mmod_Solvation_Energy-OPLS-2005>
-232.56315612793

> <b_mmod_Minimization_Converged-OPLS-2005>
0

> <r_mmod_RMS_Derivative-OPLS-2005>
6.18574380874634

$$$$
68
                    3D
 Structure written by MMmdl.
167176  0  0  1  0            999 V2000
  -30.6004  -14.9499   20.3754 C   0  0  0  0  0  0
  -30.4243  -12.5885   19.4900 C   0  0  0  0  0  0
  -29.5154  -12.5279   18.2447 C   0  0  0  0  0  0
  -28.0494  -12.3185   18.6678 C   0  0  0  0  0  0
  -27.6225  -13.2590   19.8274 C   0  0  2  0  0  0
  -28.6689  -13.3256   20.9596 C   0  0  0  0  0  0
  -25.2438  -13.8223   20.5694 C   0  0  0  0  0  0
  -24.1764  -13.0442   20.9242 C   0  0  0  0  0  0
  -24.6386  -11.6931   20.8744 C   0  0  0  0  0  0
  -23.9076  -10.4293   21.0398 C   0  0  0  0  0  0
  -24.3614   -9.4214   21.9174 C   0  0  0  0  0  0
  -23.6309   -8.2234   22.0740 C   0  0  0  0  0  0
  -22.4278   -8.0273   21.3541 C   0  0  0  0  0  0
  -21.9920   -9.0243   20.4632 C   0  0  0  0  0  0
  -22.7249  -10.2131   20.3050 C   0  0  0  0  0  0
  -21.6852   -6.0735   22.5279 C   0  0  0  0  0  0
  -21.4005   -6.5629   23.8219 C   0  0  0  0  0  0
  -21.3665   -5.6775   24.9180 C   0  0  0  0  0  0
  -21.6060   -4.3045   24.7218 C   0  0  0  0  0  0
  -21.8819   -3.8138   23.4335 C   0  0  0  0  0  0
  -21.9188   -4.6955   22.3395 C   0  0  0  0  0  0
  -22.7783  -13.5209   21.1913 C   0  0  0  0  0  0
  -22.1668   -4.2143   21.0973 F   0  0  0  0  0  0
  -21.5640   -3.4525   25.7738 F   0  0  0  0  0  0
  -29.9379  -13.7212   20.3327 N   0  0  0  0  0  0
  -26.2852  -12.9475   20.3195 N   0  0  0  0  0  0
  -25.9319  -11.6593   20.5702 N   0  0  0  0  0  0
  -22.0412  -12.8209   22.0440 N   0  0  0  0  0  0
  -25.4115  -15.1945   20.4125 N   0  0  0  0  0  0
  -31.8145  -14.9059   20.1481 O   0  0  0  0  0  0
  -21.6638   -6.8876   21.4242 O   0  0  0  0  0  0
  -22.3483  -14.5518   20.6749 O   0  0  0  0  0  0
  -24.6439  -31.8421   23.1861 C   0  0  0  0  0  0
  -25.9198  -32.4690   23.8260 C   0  0  1  0  0  0
  -27.2397  -27.1524   20.1330 C   0  0  0  0  0  0
  -25.5931  -33.8491   24.2185 N   0  0  0  0  0  0
  -23.4483  -30.4592   21.5309 C   0  0  2  0  0  0
  -24.9020  -28.8801   20.1151 C   0  0  0  0  0  0
  -22.7572  -29.4525   22.4853 C   0  0  0  0  0  0
  -18.0294  -28.1399   22.8509 C   0  0  0  0  0  0
  -24.1481  -36.7233   23.2644 C   0  0  0  0  0  0
  -26.0050  -30.7243   21.3791 C   0  0  0  0  0  0
  -26.0808  -29.3333   20.7222 C   0  0  0  0  0  0
  -27.2547  -28.4870   20.7078 C   0  0  0  0  0  0
  -26.0281  -26.7887   19.5088 C   0  0  0  0  0  0
  -24.8849  -27.6209   19.4966 C   0  0  0  0  0  0
  -23.6751  -29.7807   20.1535 C   0  0  0  0  0  0
  -25.4111  -36.3017   24.0325 C   0  0  1  0  0  0
  -20.5915  -28.3699   23.1247 C   0  0  2  0  0  0
  -20.6782  -26.9399   22.5415 C   0  0  0  0  0  0
  -19.5752  -26.6384   21.5229 C   0  0  0  0  0  0
  -18.1927  -26.7952   22.1632 C   0  0  0  0  0  0
  -19.1554  -28.8870   23.2875 C   0  0  0  0  0  0
  -18.9478  -30.1472   23.8888 C   0  0  0  0  0  0
  -17.6470  -30.6606   24.0558 C   0  0  0  0  0  0
  -25.9066  -34.9398   23.5069 C   0  0  0  0  0  0
  -16.5361  -29.9100   23.6351 C   0  0  0  0  0  0
  -16.7275  -28.6511   23.0397 C   0  0  0  0  0  0
  -26.4533  -31.6566   25.0700 C   0  0  0  0  0  0
  -25.3727  -31.3781   26.1411 C   0  0  0  0  0  0
  -27.0388  -30.2962   24.6271 C   0  0  0  0  0  0
  -27.6068  -32.4332   25.7490 C   0  0  0  0  0  0
  -27.5583  -37.1753   24.8455 C   0  0  0  0  0  0
  -21.4259  -29.3032   22.3623 N   0  0  0  0  0  0
  -26.4258  -37.3744   23.9438 N   0  0  0  0  0  0
  -24.7180  -31.0291   22.0874 N   0  0  0  0  0  0
  -23.4217  -28.8067   23.2995 O   0  0  0  0  0  0
  -28.3256  -26.2036   20.1003 O   0  0  0  0  0  0
  -26.5638  -34.8911   22.4643 O   0  0  0  0  0  0
  -23.5552  -32.1247   23.7111 O   0  0  0  0  0  0
  -31.0252  -20.6064   21.7611 C   0  0  0  0  0  0
  -29.8493  -22.3251   20.4507 C   0  0  0  0  0  0
  -30.9722  -23.1507   20.8024 C   0  0  0  0  0  0
  -30.0297  -20.8381   20.7672 C   0  0  0  0  0  0
  -31.9359  -22.6984   21.7249 C   0  0  0  0  0  0
  -30.6468  -18.7146   19.6261 C   0  0  0  0  0  0
  -28.9251  -18.5466   21.2120 C   0  0  0  0  0  0
  -30.3294  -17.2277   19.1467 C   0  0  0  0  0  0
  -28.8589  -16.9290   20.9362 C   0  0  0  0  0  0
  -31.2195  -24.5363   20.1838 C   0  0  0  0  0  0
  -33.0921  -23.5666   22.1923 C   0  0  0  0  0  0
  -27.4463  -22.3567   19.4997 C   0  0  0  0  0  0
  -28.1533  -24.7071   20.4941 C   0  0  0  0  0  0
  -28.6667  -23.2404   19.7840 C   0  0  1  0  0  0
  -31.9099  -21.4785   22.2548 N   0  0  0  0  0  0
  -29.5376  -19.5283   20.2325 N   0  0  0  0  0  0
  -29.9429  -16.2107   20.1825 N   0  0  0  0  0  0
  -31.4641  -12.7117   19.1797 H   0  0  0  0  0  0
  -30.3939  -11.6485   20.0437 H   0  0  0  0  0  0
  -29.8374  -11.7240   17.5806 H   0  0  0  0  0  0
  -29.6087  -13.4549   17.6766 H   0  0  0  0  0  0
  -27.9474  -11.2795   18.9840 H   0  0  0  0  0  0
  -27.3849  -12.4429   17.8116 H   0  0  0  0  0  0
  -27.5754  -14.2562   19.3883 H   0  0  0  0  0  0
  -28.7570  -12.3681   21.4762 H   0  0  0  0  0  0
  -28.3661  -14.0547   21.7131 H   0  0  0  0  0  0
  -25.2748   -9.5703   22.4771 H   0  0  0  0  0  0
  -24.0025   -7.4611   22.7436 H   0  0  0  0  0  0
  -21.0867   -8.8755   19.8931 H   0  0  0  0  0  0
  -22.3697  -10.9660   19.6163 H   0  0  0  0  0  0
  -21.1994   -7.6142   23.9732 H   0  0  0  0  0  0
  -21.1497   -6.0498   25.9091 H   0  0  0  0  0  0
  -22.0597   -2.7602   23.2823 H   0  0  0  0  0  0
  -22.4011  -11.9882   22.4877 H   0  0  0  0  0  0
  -21.1015  -13.1244   22.2593 H   0  0  0  0  0  0
  -24.6481  -15.8523   20.5283 H   0  0  0  0  0  0
  -26.2655  -15.6258   20.0837 H   0  0  0  0  0  0
  -26.7270  -32.5320   23.1000 H   0  0  0  0  0  0
  -25.0082  -33.9585   25.0343 H   0  0  0  0  0  0
  -22.7537  -31.2865   21.3727 H   0  0  0  0  0  0
  -23.3765  -35.9534   23.3241 H   0  0  0  0  0  0
  -24.3582  -36.8916   22.2066 H   0  0  0  0  0  0
  -23.7199  -37.6402   23.6714 H   0  0  0  0  0  0
  -26.1553  -31.4841   20.6093 H   0  0  0  0  0  0
  -26.8754  -30.7765   22.0197 H   0  0  0  0  0  0
  -28.1655  -28.8392   21.1727 H   0  0  0  0  0  0
  -25.9582  -25.8264   19.0238 H   0  0  0  0  0  0
  -23.9848  -27.2693   19.0132 H   0  0  0  0  0  0
  -23.8057  -30.5478   19.3897 H   0  0  0  0  0  0
  -22.7931  -29.2140   19.8489 H   0  0  0  0  0  0
  -25.1302  -36.1822   25.0811 H   0  0  0  0  0  0
  -21.0029  -28.3278   24.1359 H   0  0  0  0  0  0
  -20.5687  -26.2297   23.3627 H   0  0  0  0  0  0
  -21.6647  -26.7413   22.1201 H   0  0  0  0  0  0
  -19.6886  -25.6292   21.1266 H   0  0  0  0  0  0
  -19.6702  -27.3201   20.6763 H   0  0  0  0  0  0
  -17.4214  -26.6729   21.4017 H   0  0  0  0  0  0
  -18.0281  -26.0088   22.9014 H   0  0  0  0  0  0
  -19.7942  -30.7303   24.2258 H   0  0  0  0  0  0
  -17.5020  -31.6289   24.5148 H   0  0  0  0  0  0
  -15.5363  -30.3002   23.7680 H   0  0  0  0  0  0
  -15.8673  -28.0817   22.7146 H   0  0  0  0  0  0
  -24.5878  -30.7148   25.7767 H   0  0  0  0  0  0
  -24.8945  -32.2976   26.4793 H   0  0  0  0  0  0
  -25.8014  -30.8995   27.0220 H   0  0  0  0  0  0
  -26.2995  -29.6686   24.1274 H   0  0  0  0  0  0
  -27.4000  -29.7265   25.4844 H   0  0  0  0  0  0
  -27.8909  -30.4209   23.9583 H   0  0  0  0  0  0
  -27.2660  -33.3660   26.1997 H   0  0  0  0  0  0
  -28.3917  -32.6830   25.0343 H   0  0  0  0  0  0
  -28.0676  -31.8481   26.5455 H   0  0  0  0  0  0
  -28.2545  -38.0110   24.7585 H   0  0  0  0  0  0
  -28.1124  -36.2635   24.6165 H   0  0  0  0  0  0
  -27.2310  -37.1269   25.8858 H   0  0  0  0  0  0
  -20.9454  -29.8739   21.6812 H   0  0  0  0  0  0
  -26.0107  -38.2784   24.1530 H   0  0  0  0  0  0
  -31.2194  -19.6147   22.1417 H   0  0  0  0  0  0
  -31.0259  -19.2672   18.7642 H   0  0  0  0  0  0
  -31.5015  -18.6260   20.2964 H   0  0  0  0  0  0
  -29.3793  -18.6674   22.1938 H   0  0  0  0  0  0
  -27.8968  -18.8820   21.3611 H   0  0  0  0  0  0
  -31.1962  -16.8622   18.5938 H   0  0  0  0  0  0
  -29.5297  -17.2628   18.4052 H   0  0  0  0  0  0
  -27.9496  -16.7403   20.3646 H   0  0  0  0  0  0
  -28.6966  -16.4210   21.8875 H   0  0  0  0  0  0
  -30.9425  -25.3373   20.8689 H   0  0  0  0  0  0
  -30.7204  -24.7090   19.2333 H   0  0  0  0  0  0
  -32.2772  -24.6623   19.9463 H   0  0  0  0  0  0
  -32.7638  -24.5869   22.3917 H   0  0  0  0  0  0
  -33.8675  -23.5959   21.4257 H   0  0  0  0  0  0
  -33.5410  -23.1831   23.1100 H   0  0  0  0  0  0
  -27.7218  -21.4930   18.8952 H   0  0  0  0  0  0
  -26.6791  -22.9025   18.9503 H   0  0  0  0  0  0
  -27.0086  -21.9887   20.4281 H   0  0  0  0  0  0
  -28.5478  -24.6688   21.5100 H   0  0  0  0  0  0
  -27.0854  -24.5880   20.6694 H   0  0  0  0  0  0
  -29.0294  -23.4939   18.7876 H   0  0  0  0  0  0
  1 25  1  0  0  0
  1 30  2  0  0  0
  1 87  1  0  0  0
  2  3  1  0  0  0
  2 25  1  0  0  0
  2 88  1  0  0  0
  2 89  1  0  0  0
  3  4  1  0  0  0
  3 90  1  0  0  0
  3 91  1  0  0  0
  4  5  1  0  0  0
  4 92  1  0  0  0
  4 93  1  0  0  0
  5  6  1  0  0  0
  5 26  1  0  0  0
  5 94  1  0  0  0
  6 25  1  0  0  0
  6 95  1  0  0  0
  6 96  1  0  0  0
  7  8  2  0  0  0
  7 26  1  0  0  0
  7 29  1  0  0  0
  8  9  1  0  0  0
  8 22  1  0  0  0
  9 10  1  0  0  0
  9 27  2  0  0  0
 10 11  2  0  0  0
 10 15  1  0  0  0
 11 12  1  0  0  0
 11 97  1  0  0  0
 12 13  2  0  0  0
 12 98  1  0  0  0
 13 14  1  0  0  0
 13 31  1  0  0  0
 14 15  2  0  0  0
 14 99  1  0  0  0
 15100  1  0  0  0
 16 17  2  0  0  0
 16 21  1  0  0  0
 16 31  1  0  0  0
 17 18  1  0  0  0
 17101  1  0  0  0
 18 19  2  0  0  0
 18102  1  0  0  0
 19 20  1  0  0  0
 19 24  1  0  0  0
 20 21  2  0  0  0
 20103  1  0  0  0
 21 23  1  0  0  0
 22 28  1  0  0  0
 22 32  2  0  0  0
 26 27  1  0  0  0
 28104  1  0  0  0
 28105  1  0  0  0
 29106  1  0  0  0
 29107  1  0  0  0
 33 34  1  0  0  0
 33 66  1  0  0  0
 33 70  2  0  0  0
 34 36  1  0  0  0
 34 59  1  0  0  0
 34108  1  0  0  0
 35 44  2  0  0  0
 35 45  1  0  0  0
 35 68  1  0  0  0
 36 56  1  0  0  0
 36109  1  0  0  0
 37 39  1  0  0  0
 37 47  1  0  0  0
 37 66  1  0  0  0
 37110  1  0  0  0
 38 43  2  0  0  0
 38 46  1  0  0  0
 38 47  1  0  0  0
 39 64  1  0  0  0
 39 67  2  0  0  0
 40 52  1  0  0  0
 40 53  2  0  0  0
 40 58  1  0  0  0
 41111  1  0  0  0
 41112  1  0  0  0
 41113  1  0  0  0
 41 48  1  0  0  0
 42 43  1  0  0  0
 42 66  1  0  0  0
 42114  1  0  0  0
 42115  1  0  0  0
 43 44  1  0  0  0
 44116  1  0  0  0
 45 46  2  0  0  0
 45117  1  0  0  0
 46118  1  0  0  0
 47119  1  0  0  0
 47120  1  0  0  0
 48 56  1  0  0  0
 48 65  1  0  0  0
 48121  1  0  0  0
 49 50  1  0  0  0
 49 53  1  0  0  0
 49 64  1  0  0  0
 49122  1  0  0  0
 50 51  1  0  0  0
 50123  1  0  0  0
 50124  1  0  0  0
 51 52  1  0  0  0
 51125  1  0  0  0
 51126  1  0  0  0
 52127  1  0  0  0
 52128  1  0  0  0
 53 54  1  0  0  0
 54 55  2  0  0  0
 54129  1  0  0  0
 55 57  1  0  0  0
 55130  1  0  0  0
 56 69  2  0  0  0
 57 58  2  0  0  0
 57131  1  0  0  0
 58132  1  0  0  0
 59 60  1  0  0  0
 59 61  1  0  0  0
 59 62  1  0  0  0
 60133  1  0  0  0
 60134  1  0  0  0
 60135  1  0  0  0
 61136  1  0  0  0
 61137  1  0  0  0
 61138  1  0  0  0
 62139  1  0  0  0
 62140  1  0  0  0
 62141  1  0  0  0
 63 65  1  0  0  0
 63142  1  0  0  0
 63143  1  0  0  0
 63144  1  0  0  0
 64145  1  0  0  0
 65146  1  0  0  0
 68 83  1  0  0  0
 71 74  2  0  0  0
 71 85  1  0  0  0
 71147  1  0  0  0
 72 73  2  0  0  0
 72 74  1  0  0  0
 72 84  1  0  0  0
 73 75  1  0  0  0
 73 80  1  0  0  0
 74 86  1  0  0  0
 75 81  1  0  0  0
 75 85  2  0  0  0
 76 78  1  0  0  0
 76 86  1  0  0  0
 76148  1  0  0  0
 76149  1  0  0  0
 77 79  1  0  0  0
 77 86  1  0  0  0
 77150  1  0  0  0
 77151  1  0  0  0
 78 87  1  0  0  0
 78152  1  0  0  0
 78153  1  0  0  0
 79 87  1  0  0  0
 79154  1  0  0  0
 79155  1  0  0  0
 80156  1  0  0  0
 80157  1  0  0  0
 80158  1  0  0  0
 81159  1  0  0  0
 81160  1  0  0  0
 81161  1  0  0  0
 82162  1  0  0  0
 82163  1  0  0  0
 82164  1  0  0  0
 82 84  1  0  0  0
 83 84  1  0  0  0
 83165  1  0  0  0
 83166  1  0  0  0
 84167  1  0  0  0
M  ISO  4   1 100  68 101  83 101  87 100
M  END
> <chiral flag>
0

> <version>
0

> <s_m_source_file>
/data/baiqing/PycharmProjects/Reinvent-master-3.2/result/LINK_invent/BTK/process_docking_weight1_custom_sum_contain_oxygen_bond_distance_aromatic_linkinvent_7_9_3/rearranged_h_0164.sdf

> <i_m_source_file_index>
69

> <r_mmod_Potential_Energy-OPLS-2005>
791.307373046875

> <r_mmod_Stretch_Energy-OPLS-2005>
271.374694824219

> <r_mmod_Bend_Energy-OPLS-2005>
354.225921630859

> <r_mmod_Torsional_Energy-OPLS-2005>
427.467956542969

> <r_mmod_Improper_Torsional_Energy-OPLS-2005>
22.4786243438721

> <r_mmod_Van_der_Waal_Energy-OPLS-2005>
160.306625366211

> <r_mmod_Electrostatic_Energy-OPLS-2005>
-399.086029052734

> <r_mmod_Solvation_Energy-OPLS-2005>
-227.575668334961

> <b_mmod_Minimization_Converged-OPLS-2005>
0

> <r_mmod_RMS_Derivative-OPLS-2005>
3.66211986541748

$$$$
69
                    3D
 Structure written by MMmdl.
172181  0  0  1  0            999 V2000
  -30.6932  -14.5601   20.4947 C   0  0  0  0  0  0
  -30.4122  -12.3415   19.4470 C   0  0  0  0  0  0
  -29.4938  -12.4871   18.2164 C   0  0  0  0  0  0
  -28.0170  -12.3447   18.6326 C   0  0  0  0  0  0
  -27.6480  -13.2229   19.8594 C   0  0  2  0  0  0
  -28.6931  -13.0968   20.9896 C   0  0  0  0  0  0
  -25.2539  -13.8200   20.5712 C   0  0  0  0  0  0
  -24.1807  -13.0454   20.9195 C   0  0  0  0  0  0
  -24.6387  -11.6926   20.8740 C   0  0  0  0  0  0
  -23.9067  -10.4298   21.0407 C   0  0  0  0  0  0
  -24.3612   -9.4215   21.9185 C   0  0  0  0  0  0
  -23.6291   -8.2245   22.0751 C   0  0  0  0  0  0
  -22.4279   -8.0281   21.3542 C   0  0  0  0  0  0
  -21.9912   -9.0258   20.4642 C   0  0  0  0  0  0
  -22.7234  -10.2138   20.3057 C   0  0  0  0  0  0
  -21.6856   -6.0738   22.5282 C   0  0  0  0  0  0
  -21.4012   -6.5643   23.8214 C   0  0  0  0  0  0
  -21.3654   -5.6795   24.9175 C   0  0  0  0  0  0
  -21.6045   -4.3061   24.7229 C   0  0  0  0  0  0
  -21.8818   -3.8155   23.4350 C   0  0  0  0  0  0
  -21.9188   -4.6968   22.3406 C   0  0  0  0  0  0
  -22.7833  -13.5234   21.1868 C   0  0  0  0  0  0
  -22.1661   -4.2154   21.0983 F   0  0  0  0  0  0
  -21.5628   -3.4543   25.7742 F   0  0  0  0  0  0
  -30.0103  -13.3822   20.4098 N   0  0  0  0  0  0
  -26.2967  -12.9395   20.3340 N   0  0  0  0  0  0
  -25.9319  -11.6539   20.5775 N   0  0  0  0  0  0
  -22.0486  -12.8204   22.0424 N   0  0  0  0  0  0
  -25.4297  -15.1918   20.4152 N   0  0  0  0  0  0
  -31.8862  -14.6372   20.1835 O   0  0  0  0  0  0
  -21.6639   -6.8880   21.4243 O   0  0  0  0  0  0
  -22.3507  -14.5545   20.6739 O   0  0  0  0  0  0
  -24.6232  -31.8652   23.2112 C   0  0  0  0  0  0
  -25.9101  -32.4803   23.8415 C   0  0  1  0  0  0
  -27.2047  -27.3549   20.0971 C   0  0  0  0  0  0
  -25.5930  -33.8603   24.2332 N   0  0  0  0  0  0
  -23.4129  -30.4967   21.5535 C   0  0  2  0  0  0
  -24.8530  -28.9685   20.1063 C   0  0  0  0  0  0
  -22.7458  -29.4659   22.4953 C   0  0  0  0  0  0
  -18.0288  -28.1379   22.8498 C   0  0  0  0  0  0
  -24.1484  -36.7299   23.2642 C   0  0  0  0  0  0
  -25.9539  -30.8023   21.3829 C   0  0  0  0  0  0
  -26.0225  -29.4373   20.7190 C   0  0  0  0  0  0
  -27.1998  -28.6377   20.7158 C   0  0  0  0  0  0
  -26.0201  -26.9555   19.4288 C   0  0  0  0  0  0
  -24.8517  -27.7302   19.4556 C   0  0  0  0  0  0
  -23.6219  -29.8450   20.1639 C   0  0  0  0  0  0
  -25.4108  -36.3103   24.0340 C   0  0  1  0  0  0
  -20.5886  -28.3677   23.1285 C   0  0  2  0  0  0
  -20.6774  -26.9403   22.5407 C   0  0  0  0  0  0
  -19.5740  -26.6378   21.5215 C   0  0  0  0  0  0
  -18.1918  -26.7922   22.1626 C   0  0  0  0  0  0
  -19.1543  -28.8850   23.2888 C   0  0  0  0  0  0
  -18.9462  -30.1453   23.8904 C   0  0  0  0  0  0
  -17.6462  -30.6584   24.0573 C   0  0  0  0  0  0
  -25.9049  -34.9462   23.5135 C   0  0  0  0  0  0
  -16.5357  -29.9081   23.6341 C   0  0  0  0  0  0
  -16.7279  -28.6498   23.0363 C   0  0  0  0  0  0
  -26.4498  -31.6603   25.0770 C   0  0  0  0  0  0
  -25.3738  -31.3712   26.1504 C   0  0  0  0  0  0
  -27.0356  -30.3036   24.6208 C   0  0  0  0  0  0
  -27.6071  -32.4340   25.7514 C   0  0  0  0  0  0
  -27.5579  -37.1802   24.8469 C   0  0  0  0  0  0
  -21.4178  -29.3049   22.3689 N   0  0  0  0  0  0
  -26.4292  -37.3787   23.9416 N   0  0  0  0  0  0
  -24.6821  -31.0700   22.1055 N   0  0  0  0  0  0
  -23.4203  -28.8186   23.3007 O   0  0  0  0  0  0
  -28.3074  -26.4970   20.1799 O   0  0  0  0  0  0
  -26.5603  -34.8914   22.4689 O   0  0  0  0  0  0
  -23.5408  -32.1452   23.7453 O   0  0  0  0  0  0
  -30.0224  -21.6032   21.6882 C   0  0  0  0  0  0
  -28.4385  -22.5973   20.1633 C   0  0  0  0  0  0
  -28.9736  -21.4234   20.7668 C   0  0  0  0  0  0
  -30.5112  -22.8959   22.0013 C   0  0  0  0  0  0
  -28.8721  -23.9176   20.4854 C   0  0  0  0  0  0
  -29.9435  -24.0610   21.4061 C   0  0  0  0  0  0
  -28.9328  -17.7237   19.3928 C   0  0  0  0  0  0
  -29.3570  -17.9029   21.8033 C   0  0  0  0  0  0
  -29.8674  -16.4875   19.3388 C   0  0  0  0  0  0
  -30.2689  -16.6356   21.7161 C   0  0  0  0  0  0
  -29.3140  -18.7420   20.4939 C   0  0  0  0  0  0
  -31.6411  -22.9994   23.0127 C   0  0  0  0  0  0
  -30.4568  -25.4504   21.7671 C   0  0  0  0  0  0
  -25.9151  -20.7832   20.9895 C   0  0  0  0  0  0
  -28.0628  -25.0860   19.8521 C   0  0  0  0  0  0
  -27.0438  -19.7723   21.2502 C   0  0  0  0  0  0
  -28.3608  -20.0181   20.4702 C   0  0  1  0  0  0
  -29.9561  -15.7124   20.5986 N   0  0  0  0  0  0
  -31.4601  -12.4207   19.1516 H   0  0  0  0  0  0
  -30.3003  -11.3528   19.8941 H   0  0  0  0  0  0
  -29.7433  -11.7343   17.4672 H   0  0  0  0  0  0
  -29.6539  -13.4560   17.7418 H   0  0  0  0  0  0
  -27.8448  -11.2937   18.8679 H   0  0  0  0  0  0
  -27.3623  -12.5774   17.7922 H   0  0  0  0  0  0
  -27.6626  -14.2563   19.5125 H   0  0  0  0  0  0
  -28.6810  -12.0949   21.4206 H   0  0  0  0  0  0
  -28.4637  -13.7867   21.8038 H   0  0  0  0  0  0
  -25.2758   -9.5692   22.4758 H   0  0  0  0  0  0
  -24.0007   -7.4638   22.7466 H   0  0  0  0  0  0
  -21.0847   -8.8767   19.8943 H   0  0  0  0  0  0
  -22.3693  -10.9674   19.6169 H   0  0  0  0  0  0
  -21.2004   -7.6150   23.9717 H   0  0  0  0  0  0
  -21.1480   -6.0526   25.9074 H   0  0  0  0  0  0
  -22.0599   -2.7615   23.2851 H   0  0  0  0  0  0
  -22.4101  -11.9846   22.4773 H   0  0  0  0  0  0
  -21.1118  -13.1227   22.2672 H   0  0  0  0  0  0
  -24.6746  -15.8575   20.5347 H   0  0  0  0  0  0
  -26.3025  -15.6247   20.1416 H   0  0  0  0  0  0
  -26.7160  -32.5478   23.1158 H   0  0  0  0  0  0
  -25.0109  -33.9761   25.0497 H   0  0  0  0  0  0
  -22.7053  -31.3173   21.4203 H   0  0  0  0  0  0
  -23.3751  -35.9623   23.3318 H   0  0  0  0  0  0
  -24.3582  -36.8907   22.2053 H   0  0  0  0  0  0
  -23.7222  -37.6497   23.6657 H   0  0  0  0  0  0
  -26.0901  -31.5685   20.6184 H   0  0  0  0  0  0
  -26.8333  -30.8410   22.0144 H   0  0  0  0  0  0
  -28.0918  -28.9832   21.2203 H   0  0  0  0  0  0
  -25.9524  -26.0307   18.8773 H   0  0  0  0  0  0
  -23.9606  -27.3732   18.9577 H   0  0  0  0  0  0
  -23.7375  -30.6295   19.4150 H   0  0  0  0  0  0
  -22.7404  -29.2774   19.8600 H   0  0  0  0  0  0
  -25.1277  -36.1967   25.0827 H   0  0  0  0  0  0
  -20.9989  -28.3257   24.1402 H   0  0  0  0  0  0
  -20.5682  -26.2296   23.3613 H   0  0  0  0  0  0
  -21.6638  -26.7433   22.1190 H   0  0  0  0  0  0
  -19.6900  -25.6291   21.1240 H   0  0  0  0  0  0
  -19.6669  -27.3202   20.6753 H   0  0  0  0  0  0
  -17.4192  -26.6706   21.4022 H   0  0  0  0  0  0
  -18.0305  -26.0047   22.9007 H   0  0  0  0  0  0
  -19.7940  -30.7271   24.2263 H   0  0  0  0  0  0
  -17.5016  -31.6260   24.5169 H   0  0  0  0  0  0
  -15.5354  -30.2978   23.7650 H   0  0  0  0  0  0
  -15.8686  -28.0813   22.7071 H   0  0  0  0  0  0
  -24.5931  -30.7030   25.7848 H   0  0  0  0  0  0
  -24.8899  -32.2856   26.4943 H   0  0  0  0  0  0
  -25.8072  -30.8901   27.0279 H   0  0  0  0  0  0
  -26.2935  -29.6769   24.1244 H   0  0  0  0  0  0
  -27.4091  -29.7300   25.4701 H   0  0  0  0  0  0
  -27.8786  -30.4357   23.9419 H   0  0  0  0  0  0
  -27.2712  -33.3659   26.2071 H   0  0  0  0  0  0
  -28.3871  -32.6868   25.0319 H   0  0  0  0  0  0
  -28.0748  -31.8478   26.5436 H   0  0  0  0  0  0
  -28.2599  -38.0096   24.7527 H   0  0  0  0  0  0
  -28.1070  -36.2630   24.6286 H   0  0  0  0  0  0
  -27.2303  -37.1443   25.8874 H   0  0  0  0  0  0
  -20.9351  -29.8810   21.6931 H   0  0  0  0  0  0
  -26.0183  -38.2865   24.1417 H   0  0  0  0  0  0
  -30.4473  -20.7381   22.1778 H   0  0  0  0  0  0
  -27.6184  -22.4859   19.4679 H   0  0  0  0  0  0
  -27.9058  -17.3872   19.5389 H   0  0  0  0  0  0
  -28.9516  -18.2144   18.4186 H   0  0  0  0  0  0
  -29.6893  -18.5316   22.6303 H   0  0  0  0  0  0
  -28.3527  -17.5711   22.0697 H   0  0  0  0  0  0
  -30.8671  -16.8156   19.0460 H   0  0  0  0  0  0
  -29.5208  -15.8310   18.5380 H   0  0  0  0  0  0
  -30.1963  -16.0846   22.6551 H   0  0  0  0  0  0
  -31.3106  -16.9520   21.6328 H   0  0  0  0  0  0
  -30.3253  -19.0830   20.2665 H   0  0  0  0  0  0
  -31.8916  -22.0290   23.4406 H   0  0  0  0  0  0
  -31.3591  -23.6544   23.8376 H   0  0  0  0  0  0
  -32.5418  -23.3954   22.5434 H   0  0  0  0  0  0
  -31.3866  -25.4451   22.3312 H   0  0  0  0  0  0
  -29.7134  -25.9805   22.3629 H   0  0  0  0  0  0
  -30.6524  -26.0296   20.8654 H   0  0  0  0  0  0
  -24.9882  -20.4544   21.4603 H   0  0  0  0  0  0
  -25.7173  -20.8941   19.9228 H   0  0  0  0  0  0
  -26.1494  -21.7666   21.3966 H   0  0  0  0  0  0
  -27.0565  -24.8128   20.1697 H   0  0  0  0  0  0
  -28.0985  -24.9755   18.7683 H   0  0  0  0  0  0
  -26.6593  -18.7854   20.9919 H   0  0  0  0  0  0
  -27.2519  -19.7450   22.3201 H   0  0  0  0  0  0
  -28.0649  -20.1151   19.4244 H   0  0  0  0  0  0
  1 25  1  0  0  0
  1 30  2  0  0  0
  1 88  1  0  0  0
  2  3  1  0  0  0
  2 25  1  0  0  0
  2 89  1  0  0  0
  2 90  1  0  0  0
  3  4  1  0  0  0
  3 91  1  0  0  0
  3 92  1  0  0  0
  4  5  1  0  0  0
  4 93  1  0  0  0
  4 94  1  0  0  0
  5  6  1  0  0  0
  5 26  1  0  0  0
  5 95  1  0  0  0
  6 25  1  0  0  0
  6 96  1  0  0  0
  6 97  1  0  0  0
  7  8  2  0  0  0
  7 26  1  0  0  0
  7 29  1  0  0  0
  8  9  1  0  0  0
  8 22  1  0  0  0
  9 10  1  0  0  0
  9 27  2  0  0  0
 10 11  2  0  0  0
 10 15  1  0  0  0
 11 12  1  0  0  0
 11 98  1  0  0  0
 12 13  2  0  0  0
 12 99  1  0  0  0
 13 14  1  0  0  0
 13 31  1  0  0  0
 14 15  2  0  0  0
 14100  1  0  0  0
 15101  1  0  0  0
 16 17  2  0  0  0
 16 21  1  0  0  0
 16 31  1  0  0  0
 17 18  1  0  0  0
 17102  1  0  0  0
 18 19  2  0  0  0
 18103  1  0  0  0
 19 20  1  0  0  0
 19 24  1  0  0  0
 20 21  2  0  0  0
 20104  1  0  0  0
 21 23  1  0  0  0
 22 28  1  0  0  0
 22 32  2  0  0  0
 26 27  1  0  0  0
 28105  1  0  0  0
 28106  1  0  0  0
 29107  1  0  0  0
 29108  1  0  0  0
 33 34  1  0  0  0
 33 66  1  0  0  0
 33 70  2  0  0  0
 34 36  1  0  0  0
 34 59  1  0  0  0
 34109  1  0  0  0
 35 44  2  0  0  0
 35 45  1  0  0  0
 35 68  1  0  0  0
 36 56  1  0  0  0
 36110  1  0  0  0
 37 39  1  0  0  0
 37 47  1  0  0  0
 37 66  1  0  0  0
 37111  1  0  0  0
 38 43  2  0  0  0
 38 46  1  0  0  0
 38 47  1  0  0  0
 39 64  1  0  0  0
 39 67  2  0  0  0
 40 52  1  0  0  0
 40 53  2  0  0  0
 40 58  1  0  0  0
 41112  1  0  0  0
 41113  1  0  0  0
 41114  1  0  0  0
 41 48  1  0  0  0
 42 43  1  0  0  0
 42 66  1  0  0  0
 42115  1  0  0  0
 42116  1  0  0  0
 43 44  1  0  0  0
 44117  1  0  0  0
 45 46  2  0  0  0
 45118  1  0  0  0
 46119  1  0  0  0
 47120  1  0  0  0
 47121  1  0  0  0
 48 56  1  0  0  0
 48 65  1  0  0  0
 48122  1  0  0  0
 49 50  1  0  0  0
 49 53  1  0  0  0
 49 64  1  0  0  0
 49123  1  0  0  0
 50 51  1  0  0  0
 50124  1  0  0  0
 50125  1  0  0  0
 51 52  1  0  0  0
 51126  1  0  0  0
 51127  1  0  0  0
 52128  1  0  0  0
 52129  1  0  0  0
 53 54  1  0  0  0
 54 55  2  0  0  0
 54130  1  0  0  0
 55 57  1  0  0  0
 55131  1  0  0  0
 56 69  2  0  0  0
 57 58  2  0  0  0
 57132  1  0  0  0
 58133  1  0  0  0
 59 60  1  0  0  0
 59 61  1  0  0  0
 59 62  1  0  0  0
 60134  1  0  0  0
 60135  1  0  0  0
 60136  1  0  0  0
 61137  1  0  0  0
 61138  1  0  0  0
 61139  1  0  0  0
 62140  1  0  0  0
 62141  1  0  0  0
 62142  1  0  0  0
 63 65  1  0  0  0
 63143  1  0  0  0
 63144  1  0  0  0
 63145  1  0  0  0
 64146  1  0  0  0
 65147  1  0  0  0
 68 85  1  0  0  0
 71 73  2  0  0  0
 71 74  1  0  0  0
 71148  1  0  0  0
 72 73  1  0  0  0
 72 75  2  0  0  0
 72149  1  0  0  0
 73 87  1  0  0  0
 74 76  2  0  0  0
 74 82  1  0  0  0
 75 76  1  0  0  0
 75 85  1  0  0  0
 76 83  1  0  0  0
 77 79  1  0  0  0
 77150  1  0  0  0
 77151  1  0  0  0
 77 81  1  0  0  0
 78 80  1  0  0  0
 78 81  1  0  0  0
 78152  1  0  0  0
 78153  1  0  0  0
 79 88  1  0  0  0
 79154  1  0  0  0
 79155  1  0  0  0
 80 88  1  0  0  0
 80156  1  0  0  0
 80157  1  0  0  0
 81 87  1  0  0  0
 81158  1  0  0  0
 82159  1  0  0  0
 82160  1  0  0  0
 82161  1  0  0  0
 83162  1  0  0  0
 83163  1  0  0  0
 83164  1  0  0  0
 84 86  1  0  0  0
 84165  1  0  0  0
 84166  1  0  0  0
 84167  1  0  0  0
 85168  1  0  0  0
 85169  1  0  0  0
 86170  1  0  0  0
 86171  1  0  0  0
 86 87  1  0  0  0
 87172  1  0  0  0
M  ISO  4   1 100  68 101  85 101  88 100
M  END
> <chiral flag>
0

> <version>
0

> <s_m_source_file>
/data/baiqing/PycharmProjects/Reinvent-master-3.2/result/LINK_invent/BTK/process_docking_weight1_custom_sum_contain_oxygen_bond_distance_aromatic_linkinvent_7_9_3/rearranged_h_0164.sdf

> <i_m_source_file_index>
70

> <r_mmod_Potential_Energy-OPLS-2005>
308.842834472656

> <r_mmod_Stretch_Energy-OPLS-2005>
64.5267791748047

> <r_mmod_Bend_Energy-OPLS-2005>
147.619003295898

> <r_mmod_Torsional_Energy-OPLS-2005>
342.248107910156

> <r_mmod_Improper_Torsional_Energy-OPLS-2005>
13.624981880188

> <r_mmod_Van_der_Waal_Energy-OPLS-2005>
162.53742980957

> <r_mmod_Electrostatic_Energy-OPLS-2005>
-281.550384521484

> <r_mmod_Solvation_Energy-OPLS-2005>
-180.69548034668

> <b_mmod_Minimization_Converged-OPLS-2005>
0

> <r_mmod_RMS_Derivative-OPLS-2005>
1.47457730770111

$$$$
70
                    3D
 Structure written by MMmdl.
164173  0  0  1  0            999 V2000
  -30.7343  -14.4498   20.6356 C   0  0  0  0  0  0
  -30.4210  -12.3209   19.4140 C   0  0  0  0  0  0
  -29.4918  -12.5153   18.2005 C   0  0  0  0  0  0
  -28.0150  -12.3698   18.6156 C   0  0  0  0  0  0
  -27.6610  -13.2096   19.8717 C   0  0  2  0  0  0
  -28.7004  -12.9910   20.9921 C   0  0  0  0  0  0
  -25.2589  -13.8162   20.5667 C   0  0  0  0  0  0
  -24.1847  -13.0433   20.9167 C   0  0  0  0  0  0
  -24.6404  -11.6902   20.8728 C   0  0  0  0  0  0
  -23.9075  -10.4288   21.0403 C   0  0  0  0  0  0
  -24.3627   -9.4199   21.9179 C   0  0  0  0  0  0
  -23.6295   -8.2241   22.0754 C   0  0  0  0  0  0
  -22.4276   -8.0278   21.3544 C   0  0  0  0  0  0
  -21.9914   -9.0257   20.4646 C   0  0  0  0  0  0
  -22.7251  -10.2129   20.3049 C   0  0  0  0  0  0
  -21.6853   -6.0731   22.5281 C   0  0  0  0  0  0
  -21.4020   -6.5641   23.8212 C   0  0  0  0  0  0
  -21.3656   -5.6791   24.9177 C   0  0  0  0  0  0
  -21.6043   -4.3055   24.7227 C   0  0  0  0  0  0
  -21.8820   -3.8144   23.4353 C   0  0  0  0  0  0
  -21.9196   -4.6961   22.3404 C   0  0  0  0  0  0
  -22.7869  -13.5225   21.1833 C   0  0  0  0  0  0
  -22.1663   -4.2145   21.0982 F   0  0  0  0  0  0
  -21.5624   -3.4539   25.7743 F   0  0  0  0  0  0
  -30.0322  -13.2990   20.4431 N   0  0  0  0  0  0
  -26.3023  -12.9339   20.3336 N   0  0  0  0  0  0
  -25.9329  -11.6495   20.5747 N   0  0  0  0  0  0
  -22.0516  -12.8213   22.0389 N   0  0  0  0  0  0
  -25.4292  -15.1881   20.4078 N   0  0  0  0  0  0
  -31.8203  -14.6656   20.0916 O   0  0  0  0  0  0
  -21.6640   -6.8879   21.4237 O   0  0  0  0  0  0
  -22.3556  -14.5530   20.6684 O   0  0  0  0  0  0
  -24.6163  -31.8680   23.2101 C   0  0  0  0  0  0
  -25.9056  -32.4827   23.8392 C   0  0  1  0  0  0
  -27.2275  -27.4139   20.0937 C   0  0  0  0  0  0
  -25.5901  -33.8622   24.2327 N   0  0  0  0  0  0
  -23.4037  -30.4933   21.5524 C   0  0  2  0  0  0
  -24.8472  -28.9607   20.1125 C   0  0  0  0  0  0
  -22.7416  -29.4664   22.4996 C   0  0  0  0  0  0
  -18.0272  -28.1394   22.8496 C   0  0  0  0  0  0
  -24.1479  -36.7315   23.2636 C   0  0  0  0  0  0
  -25.9346  -30.8285   21.3641 C   0  0  0  0  0  0
  -26.0104  -29.4620   20.7099 C   0  0  0  0  0  0
  -27.2018  -28.6969   20.6952 C   0  0  0  0  0  0
  -26.0445  -26.9432   19.4749 C   0  0  0  0  0  0
  -24.8614  -27.7023   19.4912 C   0  0  0  0  0  0
  -23.6100  -29.8284   20.1658 C   0  0  0  0  0  0
  -25.4104  -36.3114   24.0335 C   0  0  1  0  0  0
  -20.5862  -28.3682   23.1321 C   0  0  2  0  0  0
  -20.6752  -26.9413   22.5422 C   0  0  0  0  0  0
  -19.5736  -26.6406   21.5210 C   0  0  0  0  0  0
  -18.1919  -26.7943   22.1623 C   0  0  0  0  0  0
  -19.1521  -28.8855   23.2903 C   0  0  0  0  0  0
  -18.9446  -30.1458   23.8922 C   0  0  0  0  0  0
  -17.6450  -30.6589   24.0579 C   0  0  0  0  0  0
  -25.9039  -34.9483   23.5132 C   0  0  0  0  0  0
  -16.5342  -29.9100   23.6328 C   0  0  0  0  0  0
  -16.7261  -28.6515   23.0349 C   0  0  0  0  0  0
  -26.4466  -31.6598   25.0720 C   0  0  0  0  0  0
  -25.3728  -31.3702   26.1463 C   0  0  0  0  0  0
  -27.0289  -30.3036   24.6102 C   0  0  0  0  0  0
  -27.6052  -32.4297   25.7482 C   0  0  0  0  0  0
  -27.5576  -37.1813   24.8465 C   0  0  0  0  0  0
  -21.4138  -29.3047   22.3735 N   0  0  0  0  0  0
  -26.4288  -37.3803   23.9415 N   0  0  0  0  0  0
  -24.6704  -31.0774   22.1011 N   0  0  0  0  0  0
  -23.4184  -28.8200   23.3030 O   0  0  0  0  0  0
  -28.3879  -26.6565   20.1339 O   0  0  0  0  0  0
  -26.5599  -34.8934   22.4691 O   0  0  0  0  0  0
  -23.5356  -32.1445   23.7493 O   0  0  0  0  0  0
  -28.9892  -19.8618   21.7588 C   0  0  0  0  0  0
  -31.5823  -18.7855   21.3905 C   0  0  0  0  0  0
  -30.0844  -20.7034   21.4759 C   0  0  0  0  0  0
  -29.2085  -18.4615   21.8942 C   0  0  0  0  0  0
  -30.5187  -17.9146   21.7361 C   0  0  0  0  0  0
  -31.3477  -20.1689   21.2880 C   0  0  0  0  0  0
  -30.1793  -22.2131   21.5212 C   0  0  1  0  0  0
  -31.7041  -22.4192   21.2607 C   0  0  1  0  0  0
  -28.0371  -17.5796   22.2879 C   0  0  0  0  0  0
  -32.4034  -23.1342   22.4217 C   0  0  0  0  0  0
  -30.8821  -16.4646   22.1110 C   0  0  0  0  0  0
  -29.4077  -24.4579   20.6805 C   0  0  0  0  0  0
  -28.2654  -25.2245   19.9675 C   0  0  0  0  0  0
  -30.1738  -15.3528   21.4601 N   0  0  0  0  0  0
  -29.3171  -22.9639   20.5604 N   0  3  0  0  0  0
  -32.3078  -21.1211   21.1041 O   0  0  0  0  0  0
  -31.4650  -12.4220   19.1120 H   0  0  0  0  0  0
  -30.3256  -11.3091   19.8103 H   0  0  0  0  0  0
  -29.7333  -11.7891   17.4228 H   0  0  0  0  0  0
  -29.6581  -13.5011   17.7622 H   0  0  0  0  0  0
  -27.8304  -11.3132   18.8128 H   0  0  0  0  0  0
  -27.3625  -12.6396   17.7846 H   0  0  0  0  0  0
  -27.7067  -14.2584   19.5770 H   0  0  0  0  0  0
  -28.6792  -11.9544   21.3314 H   0  0  0  0  0  0
  -28.4467  -13.5855   21.8700 H   0  0  0  0  0  0
  -25.2776   -9.5667   22.4752 H   0  0  0  0  0  0
  -24.0002   -7.4630   22.7476 H   0  0  0  0  0  0
  -21.0845   -8.8778   19.8959 H   0  0  0  0  0  0
  -22.3717  -10.9665   19.6155 H   0  0  0  0  0  0
  -21.2014   -7.6151   23.9716 H   0  0  0  0  0  0
  -21.1474   -6.0524   25.9078 H   0  0  0  0  0  0
  -22.0603   -2.7606   23.2856 H   0  0  0  0  0  0
  -22.4139  -11.9878   22.4775 H   0  0  0  0  0  0
  -21.1123  -13.1221   22.2578 H   0  0  0  0  0  0
  -24.6589  -15.8393   20.5123 H   0  0  0  0  0  0
  -26.2751  -15.6253   20.0648 H   0  0  0  0  0  0
  -26.7128  -32.5538   23.1159 H   0  0  0  0  0  0
  -25.0039  -33.9777   25.0463 H   0  0  0  0  0  0
  -22.6924  -31.3100   21.4165 H   0  0  0  0  0  0
  -23.3736  -35.9648   23.3308 H   0  0  0  0  0  0
  -24.3562  -36.8920   22.2043 H   0  0  0  0  0  0
  -23.7230  -37.6527   23.6639 H   0  0  0  0  0  0
  -26.0445  -31.5943   20.5948 H   0  0  0  0  0  0
  -26.8232  -30.8855   21.9806 H   0  0  0  0  0  0
  -28.0987  -29.0791   21.1631 H   0  0  0  0  0  0
  -26.0096  -25.9889   18.9694 H   0  0  0  0  0  0
  -23.9700  -27.3153   19.0174 H   0  0  0  0  0  0
  -23.7194  -30.6053   19.4081 H   0  0  0  0  0  0
  -22.7324  -29.2501   19.8711 H   0  0  0  0  0  0
  -25.1275  -36.1977   25.0826 H   0  0  0  0  0  0
  -20.9957  -28.3253   24.1442 H   0  0  0  0  0  0
  -20.5652  -26.2290   23.3612 H   0  0  0  0  0  0
  -21.6625  -26.7456   22.1223 H   0  0  0  0  0  0
  -19.6889  -25.6325   21.1222 H   0  0  0  0  0  0
  -19.6667  -27.3231   20.6751 H   0  0  0  0  0  0
  -17.4185  -26.6705   21.4027 H   0  0  0  0  0  0
  -18.0308  -26.0073   22.9003 H   0  0  0  0  0  0
  -19.7922  -30.7268   24.2299 H   0  0  0  0  0  0
  -17.5005  -31.6269   24.5183 H   0  0  0  0  0  0
  -15.5345  -30.3007   23.7648 H   0  0  0  0  0  0
  -15.8655  -28.0846   22.7057 H   0  0  0  0  0  0
  -24.5938  -30.6999   25.7814 H   0  0  0  0  0  0
  -24.8869  -32.2847   26.4872 H   0  0  0  0  0  0
  -25.8085  -30.8920   27.0246 H   0  0  0  0  0  0
  -26.2842  -29.6809   24.1129 H   0  0  0  0  0  0
  -27.4023  -29.7258   25.4568 H   0  0  0  0  0  0
  -27.8686  -30.4342   23.9272 H   0  0  0  0  0  0
  -27.2695  -33.3603   26.2070 H   0  0  0  0  0  0
  -28.3858  -32.6837   25.0300 H   0  0  0  0  0  0
  -28.0714  -31.8401   26.5387 H   0  0  0  0  0  0
  -28.2611  -38.0097   24.7504 H   0  0  0  0  0  0
  -28.1051  -36.2627   24.6289 H   0  0  0  0  0  0
  -27.2292  -37.1477   25.8869 H   0  0  0  0  0  0
  -20.9301  -29.8762   21.6947 H   0  0  0  0  0  0
  -26.0171  -38.2881   24.1418 H   0  0  0  0  0  0
  -28.0105  -20.2853   21.9389 H   0  0  0  0  0  0
  -32.5917  -18.4104   21.2905 H   0  0  0  0  0  0
  -29.9191  -22.5187   22.5365 H   0  0  0  0  0  0
  -31.8774  -22.9690   20.3351 H   0  0  0  0  0  0
  -27.1470  -18.1706   22.5081 H   0  0  0  0  0  0
  -28.2715  -16.9956   23.1780 H   0  0  0  0  0  0
  -27.7887  -16.8948   21.4773 H   0  0  0  0  0  0
  -32.2909  -22.5753   23.3513 H   0  0  0  0  0  0
  -31.9864  -24.1297   22.5746 H   0  0  0  0  0  0
  -33.4689  -23.2444   22.2240 H   0  0  0  0  0  0
  -30.7009  -16.3646   23.1814 H   0  0  0  0  0  0
  -31.9606  -16.3273   22.0088 H   0  0  0  0  0  0
  -29.3841  -24.7312   21.7362 H   0  0  0  0  0  0
  -30.3659  -24.8053   20.2918 H   0  0  0  0  0  0
  -27.3271  -24.8660   20.3945 H   0  0  0  0  0  0
  -28.2527  -24.9870   18.9023 H   0  0  0  0  0  0
  -29.2708  -15.1087   21.8346 H   0  0  0  0  0  0
  -28.3639  -22.6864   20.7361 H   0  0  0  0  0  0
  -29.5377  -22.6784   19.6176 H   0  0  0  0  0  0
  1 25  1  0  0  0
  1 30  2  0  0  0
  1 84  1  0  0  0
  2  3  1  0  0  0
  2 25  1  0  0  0
  2 87  1  0  0  0
  2 88  1  0  0  0
  3  4  1  0  0  0
  3 89  1  0  0  0
  3 90  1  0  0  0
  4  5  1  0  0  0
  4 91  1  0  0  0
  4 92  1  0  0  0
  5  6  1  0  0  0
  5 26  1  0  0  0
  5 93  1  0  0  0
  6 25  1  0  0  0
  6 94  1  0  0  0
  6 95  1  0  0  0
  7  8  2  0  0  0
  7 26  1  0  0  0
  7 29  1  0  0  0
  8  9  1  0  0  0
  8 22  1  0  0  0
  9 10  1  0  0  0
  9 27  2  0  0  0
 10 11  2  0  0  0
 10 15  1  0  0  0
 11 12  1  0  0  0
 11 96  1  0  0  0
 12 13  2  0  0  0
 12 97  1  0  0  0
 13 14  1  0  0  0
 13 31  1  0  0  0
 14 15  2  0  0  0
 14 98  1  0  0  0
 15 99  1  0  0  0
 16 17  2  0  0  0
 16 21  1  0  0  0
 16 31  1  0  0  0
 17 18  1  0  0  0
 17100  1  0  0  0
 18 19  2  0  0  0
 18101  1  0  0  0
 19 20  1  0  0  0
 19 24  1  0  0  0
 20 21  2  0  0  0
 20102  1  0  0  0
 21 23  1  0  0  0
 22 28  1  0  0  0
 22 32  2  0  0  0
 26 27  1  0  0  0
 28103  1  0  0  0
 28104  1  0  0  0
 29105  1  0  0  0
 29106  1  0  0  0
 33 34  1  0  0  0
 33 66  1  0  0  0
 33 70  2  0  0  0
 34 36  1  0  0  0
 34 59  1  0  0  0
 34107  1  0  0  0
 35 44  2  0  0  0
 35 45  1  0  0  0
 35 68  1  0  0  0
 36 56  1  0  0  0
 36108  1  0  0  0
 37 39  1  0  0  0
 37 47  1  0  0  0
 37 66  1  0  0  0
 37109  1  0  0  0
 38 43  2  0  0  0
 38 46  1  0  0  0
 38 47  1  0  0  0
 39 64  1  0  0  0
 39 67  2  0  0  0
 40 52  1  0  0  0
 40 53  2  0  0  0
 40 58  1  0  0  0
 41110  1  0  0  0
 41111  1  0  0  0
 41112  1  0  0  0
 41 48  1  0  0  0
 42 43  1  0  0  0
 42 66  1  0  0  0
 42113  1  0  0  0
 42114  1  0  0  0
 43 44  1  0  0  0
 44115  1  0  0  0
 45 46  2  0  0  0
 45116  1  0  0  0
 46117  1  0  0  0
 47118  1  0  0  0
 47119  1  0  0  0
 48 56  1  0  0  0
 48 65  1  0  0  0
 48120  1  0  0  0
 49 50  1  0  0  0
 49 53  1  0  0  0
 49 64  1  0  0  0
 49121  1  0  0  0
 50 51  1  0  0  0
 50122  1  0  0  0
 50123  1  0  0  0
 51 52  1  0  0  0
 51124  1  0  0  0
 51125  1  0  0  0
 52126  1  0  0  0
 52127  1  0  0  0
 53 54  1  0  0  0
 54 55  2  0  0  0
 54128  1  0  0  0
 55 57  1  0  0  0
 55129  1  0  0  0
 56 69  2  0  0  0
 57 58  2  0  0  0
 57130  1  0  0  0
 58131  1  0  0  0
 59 60  1  0  0  0
 59 61  1  0  0  0
 59 62  1  0  0  0
 60132  1  0  0  0
 60133  1  0  0  0
 60134  1  0  0  0
 61135  1  0  0  0
 61136  1  0  0  0
 61137  1  0  0  0
 62138  1  0  0  0
 62139  1  0  0  0
 62140  1  0  0  0
 63 65  1  0  0  0
 63141  1  0  0  0
 63142  1  0  0  0
 63143  1  0  0  0
 64144  1  0  0  0
 65145  1  0  0  0
 68 83  1  0  0  0
 71 73  2  0  0  0
 71 74  1  0  0  0
 71146  1  0  0  0
 72 75  1  0  0  0
 72 76  2  0  0  0
 72147  1  0  0  0
 73 76  1  0  0  0
 73 77  1  0  0  0
 74 75  2  0  0  0
 74 79  1  0  0  0
 75 81  1  0  0  0
 76 86  1  0  0  0
 77 78  1  0  0  0
 77 85  1  0  0  0
 77148  1  0  0  0
 78 80  1  0  0  0
 78 86  1  0  0  0
 78149  1  0  0  0
 79150  1  0  0  0
 79151  1  0  0  0
 79152  1  0  0  0
 80153  1  0  0  0
 80154  1  0  0  0
 80155  1  0  0  0
 81 84  1  0  0  0
 81156  1  0  0  0
 81157  1  0  0  0
 82 83  1  0  0  0
 82 85  1  0  0  0
 82158  1  0  0  0
 82159  1  0  0  0
 83160  1  0  0  0
 83161  1  0  0  0
 84162  1  0  0  0
 85163  1  0  0  0
 85164  1  0  0  0
M  CHG  1  85   1
M  ISO  4   1 100  68 101  83 101  84 100
M  END
> <chiral flag>
0

> <version>
0

> <s_m_source_file>
/data/baiqing/PycharmProjects/Reinvent-master-3.2/result/LINK_invent/BTK/process_docking_weight1_custom_sum_contain_oxygen_bond_distance_aromatic_linkinvent_7_9_3/rearranged_h_0164.sdf

> <i_m_source_file_index>
71

> <r_mmod_Potential_Energy-OPLS-2005>
-226.61262512207

> <r_mmod_Stretch_Energy-OPLS-2005>
43.7003936767578

> <r_mmod_Bend_Energy-OPLS-2005>
137.784622192383

> <r_mmod_Torsional_Energy-OPLS-2005>
207.501281738281

> <r_mmod_Improper_Torsional_Energy-OPLS-2005>
4.41197872161865

> <r_mmod_Van_der_Waal_Energy-OPLS-2005>
147.745864868164

> <r_mmod_Electrostatic_Energy-OPLS-2005>
-329.224151611328

> <r_mmod_Solvation_Energy-OPLS-2005>
-451.711151123047

> <b_mmod_Minimization_Converged-OPLS-2005>
0

> <r_mmod_RMS_Derivative-OPLS-2005>
1.47831380367279

$$$$
71
                    3D
 Structure written by MMmdl.
178187  0  0  1  0            999 V2000
  -30.6330  -14.5931   20.4493 C   0  0  0  0  0  0
  -30.4238  -12.3563   19.4334 C   0  0  0  0  0  0
  -29.4932  -12.4816   18.2097 C   0  0  0  0  0  0
  -28.0176  -12.3294   18.6301 C   0  0  0  0  0  0
  -27.6449  -13.2102   19.8527 C   0  0  2  0  0  0
  -28.6919  -13.0742   20.9790 C   0  0  0  0  0  0
  -25.2573  -13.8119   20.5894 C   0  0  0  0  0  0
  -24.1808  -13.0386   20.9242 C   0  0  0  0  0  0
  -24.6363  -11.6862   20.8739 C   0  0  0  0  0  0
  -23.9046  -10.4263   21.0413 C   0  0  0  0  0  0
  -24.3608   -9.4188   21.9204 C   0  0  0  0  0  0
  -23.6291   -8.2219   22.0759 C   0  0  0  0  0  0
  -22.4274   -8.0264   21.3532 C   0  0  0  0  0  0
  -21.9904   -9.0237   20.4637 C   0  0  0  0  0  0
  -22.7227  -10.2113   20.3055 C   0  0  0  0  0  0
  -21.6837   -6.0736   22.5299 C   0  0  0  0  0  0
  -21.4000   -6.5642   23.8223 C   0  0  0  0  0  0
  -21.3657   -5.6797   24.9187 C   0  0  0  0  0  0
  -21.6041   -4.3062   24.7237 C   0  0  0  0  0  0
  -21.8821   -3.8146   23.4349 C   0  0  0  0  0  0
  -21.9193   -4.6966   22.3411 C   0  0  0  0  0  0
  -22.7840  -13.5217   21.1898 C   0  0  0  0  0  0
  -22.1663   -4.2146   21.0985 F   0  0  0  0  0  0
  -21.5629   -3.4547   25.7745 F   0  0  0  0  0  0
  -30.0061  -13.3845   20.3991 N   0  0  0  0  0  0
  -26.2948  -12.9303   20.3320 N   0  0  0  0  0  0
  -25.9272  -11.6464   20.5706 N   0  0  0  0  0  0
  -22.0464  -12.8185   22.0422 N   0  0  0  0  0  0
  -25.4396  -15.1828   20.4685 N   0  0  0  0  0  0
  -31.8206  -14.7272   20.1481 O   0  0  0  0  0  0
  -21.6626   -6.8871   21.4250 O   0  0  0  0  0  0
  -22.3552  -14.5547   20.6775 O   0  0  0  0  0  0
  -24.6160  -31.8615   23.2062 C   0  0  0  0  0  0
  -25.9043  -32.4798   23.8368 C   0  0  1  0  0  0
  -27.2420  -27.4007   20.0903 C   0  0  0  0  0  0
  -25.5914  -33.8605   24.2319 N   0  0  0  0  0  0
  -23.4060  -30.4828   21.5457 C   0  0  2  0  0  0
  -24.8513  -28.9461   20.1081 C   0  0  0  0  0  0
  -22.7406  -29.4598   22.4948 C   0  0  0  0  0  0
  -18.0273  -28.1375   22.8435 C   0  0  0  0  0  0
  -24.1495  -36.7285   23.2649 C   0  0  0  0  0  0
  -25.9364  -30.8176   21.3613 C   0  0  0  0  0  0
  -26.0116  -29.4497   20.7076 C   0  0  0  0  0  0
  -27.1983  -28.6808   20.7016 C   0  0  0  0  0  0
  -26.0620  -26.9168   19.4875 C   0  0  0  0  0  0
  -24.8751  -27.6765   19.5012 C   0  0  0  0  0  0
  -23.6106  -29.8118   20.1611 C   0  0  0  0  0  0
  -25.4119  -36.3092   24.0353 C   0  0  1  0  0  0
  -20.5861  -28.3617   23.1322 C   0  0  2  0  0  0
  -20.6743  -26.9347   22.5427 C   0  0  0  0  0  0
  -19.5758  -26.6352   21.5207 C   0  0  0  0  0  0
  -18.1920  -26.7913   22.1594 C   0  0  0  0  0  0
  -19.1523  -28.8821   23.2881 C   0  0  0  0  0  0
  -18.9461  -30.1424   23.8880 C   0  0  0  0  0  0
  -17.6458  -30.6558   24.0568 C   0  0  0  0  0  0
  -25.9040  -34.9456   23.5133 C   0  0  0  0  0  0
  -16.5331  -29.9054   23.6359 C   0  0  0  0  0  0
  -16.7277  -28.6492   23.0316 C   0  0  0  0  0  0
  -26.4451  -31.6596   25.0716 C   0  0  0  0  0  0
  -25.3715  -31.3675   26.1459 C   0  0  0  0  0  0
  -27.0333  -30.3083   24.6062 C   0  0  0  0  0  0
  -27.6043  -32.4286   25.7460 C   0  0  0  0  0  0
  -27.5584  -37.1782   24.8474 C   0  0  0  0  0  0
  -21.4131  -29.3002   22.3728 N   0  0  0  0  0  0
  -26.4286  -37.3798   23.9442 N   0  0  0  0  0  0
  -24.6723  -31.0683   22.0966 N   0  0  0  0  0  0
  -23.4197  -28.8135   23.2976 O   0  0  0  0  0  0
  -28.4275  -26.6831   20.1340 O   0  0  0  0  0  0
  -26.5622  -34.8913   22.4696 O   0  0  0  0  0  0
  -23.5337  -32.1362   23.7419 O   0  0  0  0  0  0
  -27.8492  -17.2789   18.2963 C   0  0  0  0  0  0
  -28.9248  -18.1284   15.8527 C   0  0  0  0  0  0
  -29.1457  -17.8435   18.2803 C   0  0  0  0  0  0
  -27.0905  -17.1449   17.1104 C   0  0  0  0  0  0
  -29.6847  -18.2662   17.0327 C   0  0  0  0  0  0
  -27.6291  -17.5824   15.8805 C   0  0  0  0  0  0
  -29.4293  -17.9518   21.7034 C   0  0  0  0  0  0
  -29.8816  -18.1158   19.6045 C   0  0  1  0  0  0
  -29.1859  -19.0579   20.6341 C   0  0  2  0  0  0
  -30.2618  -17.0983   20.7308 C   0  0  2  0  0  0
  -25.6905  -16.5633   17.1613 C   0  0  0  0  0  0
  -31.0582  -18.9112   16.9177 C   0  0  0  0  0  0
  -26.8379  -17.4864   14.5831 C   0  0  0  0  0  0
  -30.0331  -20.8939   22.2591 C   0  0  0  0  0  0
  -28.2089  -24.1188   20.1008 C   0  0  0  0  0  0
  -29.1993  -22.9175   19.8906 C   0  0  0  0  0  0
  -28.6240  -25.4556   19.3934 C   0  0  0  0  0  0
  -29.6652  -20.5543   20.7976 C   0  0  2  0  0  0
  -29.8305  -15.6745   20.6442 N   0  0  0  0  0  0
  -28.6710  -21.5634   20.2816 N   0  3  0  0  0  0
  -31.4657  -12.4727   19.1304 H   0  0  0  0  0  0
  -30.3486  -11.3638   19.8805 H   0  0  0  0  0  0
  -29.7487  -11.7278   17.4640 H   0  0  0  0  0  0
  -29.6372  -13.4499   17.7284 H   0  0  0  0  0  0
  -27.8572  -11.2772   18.8729 H   0  0  0  0  0  0
  -27.3586  -12.5496   17.7888 H   0  0  0  0  0  0
  -27.6566  -14.2417   19.4991 H   0  0  0  0  0  0
  -28.6893  -12.0638   21.3893 H   0  0  0  0  0  0
  -28.4530  -13.7363   21.8126 H   0  0  0  0  0  0
  -25.2751   -9.5663   22.4771 H   0  0  0  0  0  0
  -23.9994   -7.4608   22.7459 H   0  0  0  0  0  0
  -21.0843   -8.8746   19.8933 H   0  0  0  0  0  0
  -22.3704  -10.9656   19.6148 H   0  0  0  0  0  0
  -21.1985   -7.6147   23.9724 H   0  0  0  0  0  0
  -21.1475   -6.0529   25.9087 H   0  0  0  0  0  0
  -22.0604   -2.7609   23.2860 H   0  0  0  0  0  0
  -22.4064  -11.9805   22.4745 H   0  0  0  0  0  0
  -21.1080  -13.1208   22.2648 H   0  0  0  0  0  0
  -24.6760  -15.8399   20.5701 H   0  0  0  0  0  0
  -26.2892  -15.6091   20.1313 H   0  0  0  0  0  0
  -26.7084  -32.5494   23.1091 H   0  0  0  0  0  0
  -25.0112  -33.9768   25.0486 H   0  0  0  0  0  0
  -22.6980  -31.3009   21.4005 H   0  0  0  0  0  0
  -23.3792  -35.9585   23.3301 H   0  0  0  0  0  0
  -24.3599  -36.8931   22.2077 H   0  0  0  0  0  0
  -23.7194  -37.6474   23.6641 H   0  0  0  0  0  0
  -26.0594  -31.5781   20.5901 H   0  0  0  0  0  0
  -26.8208  -30.8718   21.9823 H   0  0  0  0  0  0
  -28.0903  -29.0661   21.1728 H   0  0  0  0  0  0
  -26.0359  -25.9459   19.0114 H   0  0  0  0  0  0
  -23.9814  -27.2790   19.0459 H   0  0  0  0  0  0
  -23.7002  -30.5826   19.3955 H   0  0  0  0  0  0
  -22.7359  -29.2224   19.8741 H   0  0  0  0  0  0
  -25.1262  -36.1968   25.0841 H   0  0  0  0  0  0
  -20.9955  -28.3145   24.1457 H   0  0  0  0  0  0
  -20.5688  -26.2170   23.3583 H   0  0  0  0  0  0
  -21.6581  -26.7376   22.1190 H   0  0  0  0  0  0
  -19.6937  -25.6287   21.1200 H   0  0  0  0  0  0
  -19.6758  -27.3180   20.6772 H   0  0  0  0  0  0
  -17.4191  -26.6685   21.3988 H   0  0  0  0  0  0
  -18.0271  -26.0067   22.8988 H   0  0  0  0  0  0
  -19.7952  -30.7226   24.2206 H   0  0  0  0  0  0
  -17.5040  -31.6256   24.5119 H   0  0  0  0  0  0
  -15.5354  -30.2963   23.7713 H   0  0  0  0  0  0
  -15.8648  -28.0842   22.7032 H   0  0  0  0  0  0
  -24.5911  -30.6981   25.7773 H   0  0  0  0  0  0
  -24.8832  -32.2807   26.4874 H   0  0  0  0  0  0
  -25.8053  -30.8864   27.0239 H   0  0  0  0  0  0
  -26.2868  -29.6828   24.1132 H   0  0  0  0  0  0
  -27.4246  -29.7304   25.4453 H   0  0  0  0  0  0
  -27.8615  -30.4523   23.9127 H   0  0  0  0  0  0
  -27.2729  -33.3629   26.1993 H   0  0  0  0  0  0
  -28.3859  -32.6788   25.0267 H   0  0  0  0  0  0
  -28.0688  -31.8432   26.5406 H   0  0  0  0  0  0
  -28.2550  -38.0128   24.7561 H   0  0  0  0  0  0
  -28.1138  -36.2650   24.6214 H   0  0  0  0  0  0
  -27.2317  -37.1337   25.8887 H   0  0  0  0  0  0
  -20.9239  -29.8789   21.7012 H   0  0  0  0  0  0
  -26.0206  -38.2889   24.1458 H   0  0  0  0  0  0
  -27.4154  -16.9851   19.2408 H   0  0  0  0  0  0
  -29.3315  -18.4708   14.9090 H   0  0  0  0  0  0
  -28.5003  -17.4741   22.0144 H   0  0  0  0  0  0
  -30.0046  -18.2496   22.5804 H   0  0  0  0  0  0
  -30.8320  -18.5830   19.3601 H   0  0  0  0  0  0
  -28.1101  -19.0385   20.4513 H   0  0  0  0  0  0
  -31.3213  -17.1956   20.9741 H   0  0  0  0  0  0
  -25.4984  -16.0670   18.1050 H   0  0  0  0  0  0
  -25.5424  -15.8221   16.3747 H   0  0  0  0  0  0
  -24.9431  -17.3483   17.0401 H   0  0  0  0  0  0
  -31.3161  -19.1335   15.8822 H   0  0  0  0  0  0
  -31.8276  -18.2459   17.3082 H   0  0  0  0  0  0
  -31.0887  -19.8490   17.4730 H   0  0  0  0  0  0
  -27.2382  -18.1625   13.8275 H   0  0  0  0  0  0
  -25.7921  -17.7556   14.7253 H   0  0  0  0  0  0
  -26.8797  -16.4722   14.1861 H   0  0  0  0  0  0
  -30.8899  -20.3114   22.5954 H   0  0  0  0  0  0
  -29.2015  -20.6859   22.9344 H   0  0  0  0  0  0
  -30.3156  -21.9395   22.3898 H   0  0  0  0  0  0
  -28.1047  -24.2989   21.1706 H   0  0  0  0  0  0
  -27.2141  -23.8487   19.7414 H   0  0  0  0  0  0
  -30.1187  -23.1267   20.4409 H   0  0  0  0  0  0
  -29.4938  -22.8741   18.8429 H   0  0  0  0  0  0
  -28.1751  -25.5184   18.4010 H   0  0  0  0  0  0
  -29.6984  -25.4283   19.2106 H   0  0  0  0  0  0
  -30.5709  -20.6861   20.2042 H   0  0  0  0  0  0
  -28.8563  -15.4796   20.8069 H   0  0  0  0  0  0
  -28.2272  -21.1838   19.4595 H   0  0  0  0  0  0
  -27.9483  -21.6772   20.9743 H   0  0  0  0  0  0
  1 25  1  0  0  0
  1 30  2  0  0  0
  1 89  1  0  0  0
  2  3  1  0  0  0
  2 25  1  0  0  0
  2 91  1  0  0  0
  2 92  1  0  0  0
  3  4  1  0  0  0
  3 93  1  0  0  0
  3 94  1  0  0  0
  4  5  1  0  0  0
  4 95  1  0  0  0
  4 96  1  0  0  0
  5  6  1  0  0  0
  5 26  1  0  0  0
  5 97  1  0  0  0
  6 25  1  0  0  0
  6 98  1  0  0  0
  6 99  1  0  0  0
  7  8  2  0  0  0
  7 26  1  0  0  0
  7 29  1  0  0  0
  8  9  1  0  0  0
  8 22  1  0  0  0
  9 10  1  0  0  0
  9 27  2  0  0  0
 10 11  2  0  0  0
 10 15  1  0  0  0
 11 12  1  0  0  0
 11100  1  0  0  0
 12 13  2  0  0  0
 12101  1  0  0  0
 13 14  1  0  0  0
 13 31  1  0  0  0
 14 15  2  0  0  0
 14102  1  0  0  0
 15103  1  0  0  0
 16 17  2  0  0  0
 16 21  1  0  0  0
 16 31  1  0  0  0
 17 18  1  0  0  0
 17104  1  0  0  0
 18 19  2  0  0  0
 18105  1  0  0  0
 19 20  1  0  0  0
 19 24  1  0  0  0
 20 21  2  0  0  0
 20106  1  0  0  0
 21 23  1  0  0  0
 22 28  1  0  0  0
 22 32  2  0  0  0
 26 27  1  0  0  0
 28107  1  0  0  0
 28108  1  0  0  0
 29109  1  0  0  0
 29110  1  0  0  0
 33 34  1  0  0  0
 33 66  1  0  0  0
 33 70  2  0  0  0
 34 36  1  0  0  0
 34 59  1  0  0  0
 34111  1  0  0  0
 35 44  2  0  0  0
 35 45  1  0  0  0
 35 68  1  0  0  0
 36 56  1  0  0  0
 36112  1  0  0  0
 37 39  1  0  0  0
 37 47  1  0  0  0
 37 66  1  0  0  0
 37113  1  0  0  0
 38 43  2  0  0  0
 38 46  1  0  0  0
 38 47  1  0  0  0
 39 64  1  0  0  0
 39 67  2  0  0  0
 40 52  1  0  0  0
 40 53  2  0  0  0
 40 58  1  0  0  0
 41114  1  0  0  0
 41115  1  0  0  0
 41116  1  0  0  0
 41 48  1  0  0  0
 42 43  1  0  0  0
 42 66  1  0  0  0
 42117  1  0  0  0
 42118  1  0  0  0
 43 44  1  0  0  0
 44119  1  0  0  0
 45 46  2  0  0  0
 45120  1  0  0  0
 46121  1  0  0  0
 47122  1  0  0  0
 47123  1  0  0  0
 48 56  1  0  0  0
 48 65  1  0  0  0
 48124  1  0  0  0
 49 50  1  0  0  0
 49 53  1  0  0  0
 49 64  1  0  0  0
 49125  1  0  0  0
 50 51  1  0  0  0
 50126  1  0  0  0
 50127  1  0  0  0
 51 52  1  0  0  0
 51128  1  0  0  0
 51129  1  0  0  0
 52130  1  0  0  0
 52131  1  0  0  0
 53 54  1  0  0  0
 54 55  2  0  0  0
 54132  1  0  0  0
 55 57  1  0  0  0
 55133  1  0  0  0
 56 69  2  0  0  0
 57 58  2  0  0  0
 57134  1  0  0  0
 58135  1  0  0  0
 59 60  1  0  0  0
 59 61  1  0  0  0
 59 62  1  0  0  0
 60136  1  0  0  0
 60137  1  0  0  0
 60138  1  0  0  0
 61139  1  0  0  0
 61140  1  0  0  0
 61141  1  0  0  0
 62142  1  0  0  0
 62143  1  0  0  0
 62144  1  0  0  0
 63 65  1  0  0  0
 63145  1  0  0  0
 63146  1  0  0  0
 63147  1  0  0  0
 64148  1  0  0  0
 65149  1  0  0  0
 68 87  1  0  0  0
 71 73  2  0  0  0
 71 74  1  0  0  0
 71150  1  0  0  0
 72 75  2  0  0  0
 72 76  1  0  0  0
 72151  1  0  0  0
 73 75  1  0  0  0
 73 78  1  0  0  0
 74 76  2  0  0  0
 74 81  1  0  0  0
 75 82  1  0  0  0
 76 83  1  0  0  0
 77 80  1  0  0  0
 77152  1  0  0  0
 77153  1  0  0  0
 77 79  1  0  0  0
 78 79  1  0  0  0
 78 80  1  0  0  0
 78154  1  0  0  0
 79 88  1  0  0  0
 79155  1  0  0  0
 80 89  1  0  0  0
 80156  1  0  0  0
 81157  1  0  0  0
 81158  1  0  0  0
 81159  1  0  0  0
 82160  1  0  0  0
 82161  1  0  0  0
 82162  1  0  0  0
 83163  1  0  0  0
 83164  1  0  0  0
 83165  1  0  0  0
 84166  1  0  0  0
 84167  1  0  0  0
 84168  1  0  0  0
 84 88  1  0  0  0
 85 86  1  0  0  0
 85 87  1  0  0  0
 85169  1  0  0  0
 85170  1  0  0  0
 86 90  1  0  0  0
 86171  1  0  0  0
 86172  1  0  0  0
 87173  1  0  0  0
 87174  1  0  0  0
 88 90  1  0  0  0
 88175  1  0  0  0
 89176  1  0  0  0
 90177  1  0  0  0
 90178  1  0  0  0
M  CHG  1  90   1
M  ISO  4   1 100  68 101  87 101  89 100
M  END
> <chiral flag>
0

> <version>
0

> <s_m_source_file>
/data/baiqing/PycharmProjects/Reinvent-master-3.2/result/LINK_invent/BTK/process_docking_weight1_custom_sum_contain_oxygen_bond_distance_aromatic_linkinvent_7_9_3/rearranged_h_0164.sdf

> <i_m_source_file_index>
72

> <r_mmod_Potential_Energy-OPLS-2005>
-126.135765075684

> <r_mmod_Stretch_Energy-OPLS-2005>
55.9099998474121

> <r_mmod_Bend_Energy-OPLS-2005>
144.357696533203

> <r_mmod_Torsional_Energy-OPLS-2005>
271.458862304688

> <r_mmod_Improper_Torsional_Energy-OPLS-2005>
5.11576128005981

> <r_mmod_Van_der_Waal_Energy-OPLS-2005>
137.001770019531

> <r_mmod_Electrostatic_Energy-OPLS-2005>
-313.402557373047

> <r_mmod_Solvation_Energy-OPLS-2005>
-458.238403320312

> <b_mmod_Minimization_Converged-OPLS-2005>
0

> <r_mmod_RMS_Derivative-OPLS-2005>
4.51365041732788

$$$$
72
                    3D
 Structure written by MMmdl.
169178  0  0  1  0            999 V2000
  -30.5410  -15.0007   20.5057 C   0  0  0  0  0  0
  -30.4485  -12.6434   19.5031 C   0  0  0  0  0  0
  -29.5235  -12.5785   18.2631 C   0  0  0  0  0  0
  -28.0577  -12.3522   18.6762 C   0  0  0  0  0  0
  -27.6393  -13.2579   19.8642 C   0  0  2  0  0  0
  -28.6933  -13.2207   20.9950 C   0  0  0  0  0  0
  -25.2309  -13.8174   20.5407 C   0  0  0  0  0  0
  -24.1732  -13.0389   20.9158 C   0  0  0  0  0  0
  -24.6441  -11.6911   20.8808 C   0  0  0  0  0  0
  -23.9136  -10.4272   21.0442 C   0  0  0  0  0  0
  -24.3661   -9.4178   21.9217 C   0  0  0  0  0  0
  -23.6315   -8.2225   22.0773 C   0  0  0  0  0  0
  -22.4298   -8.0277   21.3555 C   0  0  0  0  0  0
  -21.9954   -9.0262   20.4660 C   0  0  0  0  0  0
  -22.7308  -10.2127   20.3079 C   0  0  0  0  0  0
  -21.6854   -6.0736   22.5277 C   0  0  0  0  0  0
  -21.4011   -6.5643   23.8209 C   0  0  0  0  0  0
  -21.3661   -5.6798   24.9173 C   0  0  0  0  0  0
  -21.6044   -4.3061   24.7226 C   0  0  0  0  0  0
  -21.8821   -3.8150   23.4350 C   0  0  0  0  0  0
  -21.9193   -4.6965   22.3400 C   0  0  0  0  0  0
  -22.7751  -13.5150   21.1832 C   0  0  0  0  0  0
  -22.1663   -4.2150   21.0978 F   0  0  0  0  0  0
  -21.5631   -3.4543   25.7739 F   0  0  0  0  0  0
  -29.9532  -13.7201   20.4255 N   0  0  0  0  0  0
  -26.2922  -12.9503   20.3351 N   0  0  0  0  0  0
  -25.9410  -11.6628   20.5908 N   0  0  0  0  0  0
  -22.0444  -12.8140   22.0427 N   0  0  0  0  0  0
  -25.3576  -15.1838   20.3250 N   0  0  0  0  0  0
  -31.6649  -15.0921   19.9953 O   0  0  0  0  0  0
  -21.6645   -6.8883   21.4244 O   0  0  0  0  0  0
  -22.3412  -14.5456   20.6705 O   0  0  0  0  0  0
  -24.6455  -31.8392   23.1826 C   0  0  0  0  0  0
  -25.9209  -32.4667   23.8236 C   0  0  1  0  0  0
  -27.2325  -27.1052   20.1448 C   0  0  0  0  0  0
  -25.5942  -33.8473   24.2157 N   0  0  0  0  0  0
  -23.4513  -30.4550   21.5279 C   0  0  2  0  0  0
  -24.9021  -28.8705   20.1072 C   0  0  0  0  0  0
  -22.7568  -29.4528   22.4839 C   0  0  0  0  0  0
  -18.0332  -28.1366   22.8488 C   0  0  0  0  0  0
  -24.1491  -36.7244   23.2647 C   0  0  0  0  0  0
  -26.0082  -30.7026   21.3840 C   0  0  0  0  0  0
  -26.0786  -29.3101   20.7247 C   0  0  0  0  0  0
  -27.2369  -28.4433   20.7250 C   0  0  0  0  0  0
  -26.0209  -26.7638   19.5061 C   0  0  0  0  0  0
  -24.8880  -27.6118   19.4840 C   0  0  0  0  0  0
  -23.6783  -29.7750   20.1500 C   0  0  0  0  0  0
  -25.4127  -36.3018   24.0314 C   0  0  1  0  0  0
  -20.5937  -28.3710   23.1231 C   0  0  2  0  0  0
  -20.6817  -26.9415   22.5409 C   0  0  0  0  0  0
  -19.5793  -26.6362   21.5219 C   0  0  0  0  0  0
  -18.1973  -26.7904   22.1635 C   0  0  0  0  0  0
  -19.1583  -28.8852   23.2851 C   0  0  0  0  0  0
  -18.9493  -30.1444   23.8874 C   0  0  0  0  0  0
  -17.6487  -30.6560   24.0544 C   0  0  0  0  0  0
  -25.9078  -34.9398   23.5057 C   0  0  0  0  0  0
  -16.5381  -29.9058   23.6313 C   0  0  0  0  0  0
  -16.7312  -28.6463   23.0371 C   0  0  0  0  0  0
  -26.4525  -31.6549   25.0694 C   0  0  0  0  0  0
  -25.3698  -31.3737   26.1376 C   0  0  0  0  0  0
  -27.0411  -30.2949   24.6302 C   0  0  0  0  0  0
  -27.6046  -32.4330   25.7484 C   0  0  0  0  0  0
  -27.5575  -37.1779   24.8468 C   0  0  0  0  0  0
  -21.4260  -29.3055   22.3606 N   0  0  0  0  0  0
  -26.4289  -37.3735   23.9409 N   0  0  0  0  0  0
  -24.7218  -31.0219   22.0863 N   0  0  0  0  0  0
  -23.4189  -28.8087   23.3014 O   0  0  0  0  0  0
  -28.3273  -26.1582   20.2522 O   0  0  0  0  0  0
  -26.5677  -34.8906   22.4641 O   0  0  0  0  0  0
  -23.5567  -32.1277   23.7037 O   0  0  0  0  0  0
  -27.0362  -18.5447   21.2724 C   0  0  0  0  0  0
  -27.9397  -17.4837   21.4452 C   0  0  0  0  0  0
  -27.3959  -19.7804   20.7060 C   0  0  0  0  0  0
  -28.7472  -20.0778   20.3855 C   0  0  0  0  0  0
  -29.6393  -18.8485   20.4169 C   0  0  0  0  0  0
  -29.2325  -17.4654   20.8665 C   0  0  0  0  0  0
  -27.5446  -16.3850   22.4122 C   0  0  0  0  0  0
  -28.7005  -16.0279   23.3629 C   0  0  0  0  0  0
  -30.1000  -16.0758   22.6974 C   0  0  1  0  0  0
  -26.2569  -20.7574   20.4812 C   0  0  0  0  0  0
  -31.0892  -19.0354   20.0196 C   0  0  0  0  0  0
  -31.0563  -15.0323   23.3202 C   0  0  0  0  0  0
  -28.1034  -24.5792   18.2533 C   0  0  0  0  0  0
  -29.0925  -21.6614   19.9304 C   0  0  0  0  0  0
  -28.4241  -23.1596   20.4789 C   0  0  0  0  0  0
  -28.5437  -24.6847   19.7215 C   0  0  2  0  0  0
  -29.9868  -16.1353   21.2146 N   0  0  0  0  0  0
  -31.4770  -12.8159   19.1841 H   0  0  0  0  0  0
  -30.4713  -11.6780   20.0107 H   0  0  0  0  0  0
  -29.8488  -11.7878   17.5857 H   0  0  0  0  0  0
  -29.6033  -13.5108   17.7026 H   0  0  0  0  0  0
  -27.9525  -11.3043   18.9586 H   0  0  0  0  0  0
  -27.3930  -12.5061   17.8246 H   0  0  0  0  0  0
  -27.6179  -14.2778   19.4795 H   0  0  0  0  0  0
  -28.8068  -12.2029   21.3718 H   0  0  0  0  0  0
  -28.4043  -13.7963   21.8637 H   0  0  0  0  0  0
  -25.2804   -9.5633   22.4809 H   0  0  0  0  0  0
  -24.0005   -7.4607   22.7492 H   0  0  0  0  0  0
  -21.0888   -8.8808   19.8963 H   0  0  0  0  0  0
  -22.3792  -10.9675   19.6189 H   0  0  0  0  0  0
  -21.2003   -7.6151   23.9710 H   0  0  0  0  0  0
  -21.1482   -6.0529   25.9072 H   0  0  0  0  0  0
  -22.0600   -2.7612   23.2851 H   0  0  0  0  0  0
  -22.4100  -11.9818   22.4807 H   0  0  0  0  0  0
  -21.1069  -13.1165   22.2678 H   0  0  0  0  0  0
  -24.5658  -15.8117   20.4026 H   0  0  0  0  0  0
  -26.1925  -15.6409   19.9818 H   0  0  0  0  0  0
  -26.7273  -32.5261   23.0955 H   0  0  0  0  0  0
  -25.0039  -33.9572   25.0272 H   0  0  0  0  0  0
  -22.7558  -31.2816   21.3692 H   0  0  0  0  0  0
  -23.3763  -35.9565   23.3292 H   0  0  0  0  0  0
  -24.3575  -36.8895   22.2065 H   0  0  0  0  0  0
  -23.7237  -37.6432   23.6697 H   0  0  0  0  0  0
  -26.1672  -31.4567   20.6117 H   0  0  0  0  0  0
  -26.8764  -30.7536   22.0297 H   0  0  0  0  0  0
  -28.1347  -28.7789   21.2265 H   0  0  0  0  0  0
  -25.9061  -25.7925   19.0570 H   0  0  0  0  0  0
  -23.9860  -27.2656   18.9988 H   0  0  0  0  0  0
  -23.8124  -30.5453   19.3901 H   0  0  0  0  0  0
  -22.7929  -29.2155   19.8444 H   0  0  0  0  0  0
  -25.1317  -36.1842   25.0807 H   0  0  0  0  0  0
  -21.0032  -28.3301   24.1346 H   0  0  0  0  0  0
  -20.5734  -26.2325   23.3629 H   0  0  0  0  0  0
  -21.6676  -26.7429   22.1195 H   0  0  0  0  0  0
  -19.6947  -25.6274   21.1246 H   0  0  0  0  0  0
  -19.6707  -27.3166   20.6744 H   0  0  0  0  0  0
  -17.4243  -26.6642   21.4032 H   0  0  0  0  0  0
  -18.0388  -26.0029   22.9023 H   0  0  0  0  0  0
  -19.7962  -30.7261   24.2254 H   0  0  0  0  0  0
  -17.5034  -31.6242   24.5132 H   0  0  0  0  0  0
  -15.5374  -30.2951   23.7646 H   0  0  0  0  0  0
  -15.8714  -28.0757   22.7120 H   0  0  0  0  0  0
  -24.5884  -30.7082   25.7681 H   0  0  0  0  0  0
  -24.8873  -32.2919   26.4741 H   0  0  0  0  0  0
  -25.7961  -30.8942   27.0195 H   0  0  0  0  0  0
  -26.3046  -29.6647   24.1303 H   0  0  0  0  0  0
  -27.4014  -29.7269   25.4890 H   0  0  0  0  0  0
  -27.8950  -30.4185   23.9636 H   0  0  0  0  0  0
  -27.2629  -33.3650   26.1996 H   0  0  0  0  0  0
  -28.3884  -32.6857   25.0331 H   0  0  0  0  0  0
  -28.0683  -31.8500   26.5450 H   0  0  0  0  0  0
  -28.2589  -38.0081   24.7514 H   0  0  0  0  0  0
  -28.1076  -36.2611   24.6297 H   0  0  0  0  0  0
  -27.2291  -37.1429   25.8871 H   0  0  0  0  0  0
  -20.9471  -29.8754   21.6774 H   0  0  0  0  0  0
  -26.0153  -38.2804   24.1406 H   0  0  0  0  0  0
  -26.0264  -18.4238   21.6400 H   0  0  0  0  0  0
  -27.2668  -15.5178   21.8359 H   0  0  0  0  0  0
  -26.6598  -16.6599   22.9878 H   0  0  0  0  0  0
  -28.7006  -16.7388   24.1912 H   0  0  0  0  0  0
  -28.5018  -15.0573   23.8180 H   0  0  0  0  0  0
  -30.5363  -17.0405   22.9660 H   0  0  0  0  0  0
  -26.1278  -21.4089   21.3445 H   0  0  0  0  0  0
  -25.3166  -20.2238   20.3394 H   0  0  0  0  0  0
  -26.4040  -21.3480   19.5768 H   0  0  0  0  0  0
  -31.5788  -18.0768   19.8480 H   0  0  0  0  0  0
  -31.1696  -19.6209   19.1036 H   0  0  0  0  0  0
  -31.6309  -19.5551   20.8104 H   0  0  0  0  0  0
  -30.7053  -14.0099   23.1753 H   0  0  0  0  0  0
  -31.1372  -15.1880   24.3966 H   0  0  0  0  0  0
  -32.0654  -15.1115   22.9134 H   0  0  0  0  0  0
  -28.7139  -23.8483   17.7213 H   0  0  0  0  0  0
  -28.2169  -25.5308   17.7328 H   0  0  0  0  0  0
  -27.0705  -24.2496   18.1541 H   0  0  0  0  0  0
  -28.9287  -21.6493   18.8529 H   0  0  0  0  0  0
  -30.1732  -21.7672   20.0265 H   0  0  0  0  0  0
  -28.7933  -23.2892   21.4967 H   0  0  0  0  0  0
  -27.3549  -23.0483   20.6099 H   0  0  0  0  0  0
  -29.6290  -24.7510   19.6337 H   0  0  0  0  0  0
  1 25  1  0  0  0
  1 30  2  0  0  0
  1 87  1  0  0  0
  2  3  1  0  0  0
  2 25  1  0  0  0
  2 88  1  0  0  0
  2 89  1  0  0  0
  3  4  1  0  0  0
  3 90  1  0  0  0
  3 91  1  0  0  0
  4  5  1  0  0  0
  4 92  1  0  0  0
  4 93  1  0  0  0
  5  6  1  0  0  0
  5 26  1  0  0  0
  5 94  1  0  0  0
  6 25  1  0  0  0
  6 95  1  0  0  0
  6 96  1  0  0  0
  7  8  2  0  0  0
  7 26  1  0  0  0
  7 29  1  0  0  0
  8  9  1  0  0  0
  8 22  1  0  0  0
  9 10  1  0  0  0
  9 27  2  0  0  0
 10 11  2  0  0  0
 10 15  1  0  0  0
 11 12  1  0  0  0
 11 97  1  0  0  0
 12 13  2  0  0  0
 12 98  1  0  0  0
 13 14  1  0  0  0
 13 31  1  0  0  0
 14 15  2  0  0  0
 14 99  1  0  0  0
 15100  1  0  0  0
 16 17  2  0  0  0
 16 21  1  0  0  0
 16 31  1  0  0  0
 17 18  1  0  0  0
 17101  1  0  0  0
 18 19  2  0  0  0
 18102  1  0  0  0
 19 20  1  0  0  0
 19 24  1  0  0  0
 20 21  2  0  0  0
 20103  1  0  0  0
 21 23  1  0  0  0
 22 28  1  0  0  0
 22 32  2  0  0  0
 26 27  1  0  0  0
 28104  1  0  0  0
 28105  1  0  0  0
 29106  1  0  0  0
 29107  1  0  0  0
 33 34  1  0  0  0
 33 66  1  0  0  0
 33 70  2  0  0  0
 34 36  1  0  0  0
 34 59  1  0  0  0
 34108  1  0  0  0
 35 44  2  0  0  0
 35 45  1  0  0  0
 35 68  1  0  0  0
 36 56  1  0  0  0
 36109  1  0  0  0
 37 39  1  0  0  0
 37 47  1  0  0  0
 37 66  1  0  0  0
 37110  1  0  0  0
 38 43  2  0  0  0
 38 46  1  0  0  0
 38 47  1  0  0  0
 39 64  1  0  0  0
 39 67  2  0  0  0
 40 52  1  0  0  0
 40 53  2  0  0  0
 40 58  1  0  0  0
 41111  1  0  0  0
 41112  1  0  0  0
 41113  1  0  0  0
 41 48  1  0  0  0
 42 43  1  0  0  0
 42 66  1  0  0  0
 42114  1  0  0  0
 42115  1  0  0  0
 43 44  1  0  0  0
 44116  1  0  0  0
 45 46  2  0  0  0
 45117  1  0  0  0
 46118  1  0  0  0
 47119  1  0  0  0
 47120  1  0  0  0
 48 56  1  0  0  0
 48 65  1  0  0  0
 48121  1  0  0  0
 49 50  1  0  0  0
 49 53  1  0  0  0
 49 64  1  0  0  0
 49122  1  0  0  0
 50 51  1  0  0  0
 50123  1  0  0  0
 50124  1  0  0  0
 51 52  1  0  0  0
 51125  1  0  0  0
 51126  1  0  0  0
 52127  1  0  0  0
 52128  1  0  0  0
 53 54  1  0  0  0
 54 55  2  0  0  0
 54129  1  0  0  0
 55 57  1  0  0  0
 55130  1  0  0  0
 56 69  2  0  0  0
 57 58  2  0  0  0
 57131  1  0  0  0
 58132  1  0  0  0
 59 60  1  0  0  0
 59 61  1  0  0  0
 59 62  1  0  0  0
 60133  1  0  0  0
 60134  1  0  0  0
 60135  1  0  0  0
 61136  1  0  0  0
 61137  1  0  0  0
 61138  1  0  0  0
 62139  1  0  0  0
 62140  1  0  0  0
 62141  1  0  0  0
 63 65  1  0  0  0
 63142  1  0  0  0
 63143  1  0  0  0
 63144  1  0  0  0
 64145  1  0  0  0
 65146  1  0  0  0
 68 86  1  0  0  0
 71 72  2  0  0  0
 71 73  1  0  0  0
 71147  1  0  0  0
 72 76  1  0  0  0
 72 77  1  0  0  0
 73 74  2  0  0  0
 73 80  1  0  0  0
 74 75  1  0  0  0
 74 84  1  0  0  0
 75 76  2  0  0  0
 75 81  1  0  0  0
 76 87  1  0  0  0
 77 78  1  0  0  0
 77148  1  0  0  0
 77149  1  0  0  0
 78 79  1  0  0  0
 78150  1  0  0  0
 78151  1  0  0  0
 79 82  1  0  0  0
 79 87  1  0  0  0
 79152  1  0  0  0
 80153  1  0  0  0
 80154  1  0  0  0
 80155  1  0  0  0
 81156  1  0  0  0
 81157  1  0  0  0
 81158  1  0  0  0
 82159  1  0  0  0
 82160  1  0  0  0
 82161  1  0  0  0
 83162  1  0  0  0
 83163  1  0  0  0
 83164  1  0  0  0
 83 86  1  0  0  0
 84 85  1  0  0  0
 84165  1  0  0  0
 84166  1  0  0  0
 85 86  1  0  0  0
 85167  1  0  0  0
 85168  1  0  0  0
 86169  1  0  0  0
M  ISO  4   1 100  68 101  86 101  87 100
M  END
> <chiral flag>
0

> <version>
0

> <s_m_source_file>
/data/baiqing/PycharmProjects/Reinvent-master-3.2/result/LINK_invent/BTK/process_docking_weight1_custom_sum_contain_oxygen_bond_distance_aromatic_linkinvent_7_9_3/rearranged_h_0164.sdf

> <i_m_source_file_index>
73

> <r_mmod_Potential_Energy-OPLS-2005>
988.152465820312

> <r_mmod_Stretch_Energy-OPLS-2005>
356.712646484375

> <r_mmod_Bend_Energy-OPLS-2005>
395.941040039062

> <r_mmod_Torsional_Energy-OPLS-2005>
347.573181152344

> <r_mmod_Improper_Torsional_Energy-OPLS-2005>
7.59892272949219

> <r_mmod_Van_der_Waal_Energy-OPLS-2005>
148.484512329102

> <r_mmod_Electrostatic_Energy-OPLS-2005>
-307.605804443359

> <r_mmod_Solvation_Energy-OPLS-2005>
-174.730758666992

> <b_mmod_Minimization_Converged-OPLS-2005>
0

> <r_mmod_RMS_Derivative-OPLS-2005>
1.57954525947571

$$$$
73
                    3D
 Structure written by MMmdl.
173182  0  0  1  0            999 V2000
  -30.7186  -14.4275   20.5798 C   0  0  0  0  0  0
  -30.4194  -12.2792   19.4198 C   0  0  0  0  0  0
  -29.4905  -12.4979   18.2077 C   0  0  0  0  0  0
  -28.0109  -12.3696   18.6227 C   0  0  0  0  0  0
  -27.6638  -13.2027   19.8854 C   0  0  2  0  0  0
  -28.7055  -12.9694   21.0021 C   0  0  0  0  0  0
  -25.2600  -13.8152   20.5737 C   0  0  0  0  0  0
  -24.1842  -13.0427   20.9191 C   0  0  0  0  0  0
  -24.6400  -11.6902   20.8759 C   0  0  0  0  0  0
  -23.9070  -10.4284   21.0422 C   0  0  0  0  0  0
  -24.3614   -9.4185   21.9185 C   0  0  0  0  0  0
  -23.6282   -8.2228   22.0752 C   0  0  0  0  0  0
  -22.4263   -8.0271   21.3549 C   0  0  0  0  0  0
  -21.9922   -9.0254   20.4646 C   0  0  0  0  0  0
  -22.7254  -10.2128   20.3061 C   0  0  0  0  0  0
  -21.6844   -6.0732   22.5296 C   0  0  0  0  0  0
  -21.4016   -6.5644   23.8228 C   0  0  0  0  0  0
  -21.3654   -5.6798   24.9184 C   0  0  0  0  0  0
  -21.6030   -4.3063   24.7217 C   0  0  0  0  0  0
  -21.8808   -3.8145   23.4343 C   0  0  0  0  0  0
  -21.9203   -4.6960   22.3404 C   0  0  0  0  0  0
  -22.7865  -13.5235   21.1829 C   0  0  0  0  0  0
  -22.1679   -4.2147   21.0986 F   0  0  0  0  0  0
  -21.5599   -3.4550   25.7729 F   0  0  0  0  0  0
  -30.0392  -13.2571   20.4478 N   0  0  0  0  0  0
  -26.3045  -12.9324   20.3457 N   0  0  0  0  0  0
  -25.9342  -11.6483   20.5856 N   0  0  0  0  0  0
  -22.0512  -12.8219   22.0379 N   0  0  0  0  0  0
  -25.4267  -15.1866   20.4153 N   0  0  0  0  0  0
  -31.8424  -14.6152   20.0998 O   0  0  0  0  0  0
  -21.6617   -6.8876   21.4256 O   0  0  0  0  0  0
  -22.3563  -14.5560   20.6684 O   0  0  0  0  0  0
  -24.6117  -31.8703   23.2147 C   0  0  0  0  0  0
  -25.9020  -32.4842   23.8428 C   0  0  1  0  0  0
  -27.2402  -27.4667   20.0650 C   0  0  0  0  0  0
  -25.5883  -33.8639   24.2351 N   0  0  0  0  0  0
  -23.3978  -30.4964   21.5550 C   0  0  2  0  0  0
  -24.8407  -28.9651   20.1170 C   0  0  0  0  0  0
  -22.7391  -29.4669   22.5009 C   0  0  0  0  0  0
  -18.0267  -28.1376   22.8499 C   0  0  0  0  0  0
  -24.1483  -36.7329   23.2635 C   0  0  0  0  0  0
  -25.9244  -30.8414   21.3656 C   0  0  0  0  0  0
  -25.9985  -29.4768   20.7147 C   0  0  0  0  0  0
  -27.1945  -28.7283   20.6978 C   0  0  0  0  0  0
  -26.0577  -26.9608   19.4723 C   0  0  0  0  0  0
  -24.8615  -27.7017   19.5020 C   0  0  0  0  0  0
  -23.6046  -29.8317   20.1673 C   0  0  0  0  0  0
  -25.4097  -36.3125   24.0346 C   0  0  1  0  0  0
  -20.5855  -28.3656   23.1332 C   0  0  2  0  0  0
  -20.6756  -26.9398   22.5417 C   0  0  0  0  0  0
  -19.5730  -26.6386   21.5213 C   0  0  0  0  0  0
  -18.1910  -26.7922   22.1626 C   0  0  0  0  0  0
  -19.1515  -28.8833   23.2914 C   0  0  0  0  0  0
  -18.9441  -30.1441   23.8923 C   0  0  0  0  0  0
  -17.6443  -30.6585   24.0571 C   0  0  0  0  0  0
  -25.9027  -34.9491   23.5147 C   0  0  0  0  0  0
  -16.5338  -29.9094   23.6316 C   0  0  0  0  0  0
  -16.7257  -28.6509   23.0346 C   0  0  0  0  0  0
  -26.4462  -31.6611   25.0741 C   0  0  0  0  0  0
  -25.3746  -31.3702   26.1504 C   0  0  0  0  0  0
  -27.0278  -30.3058   24.6089 C   0  0  0  0  0  0
  -27.6047  -32.4322   25.7494 C   0  0  0  0  0  0
  -27.5588  -37.1803   24.8451 C   0  0  0  0  0  0
  -21.4121  -29.3034   22.3741 N   0  0  0  0  0  0
  -26.4279  -37.3817   23.9431 N   0  0  0  0  0  0
  -24.6630  -31.0829   22.1042 N   0  0  0  0  0  0
  -23.4169  -28.8195   23.3030 O   0  0  0  0  0  0
  -28.4421  -26.7910   20.0546 O   0  0  0  0  0  0
  -26.5588  -34.8932   22.4710 O   0  0  0  0  0  0
  -23.5314  -32.1440   23.7548 O   0  0  0  0  0  0
  -30.0836  -24.1681   20.6160 C   0  0  0  0  0  0
  -29.5340  -17.9421   20.6396 C   0  0  0  0  0  0
  -30.7714  -17.1177   22.7114 C   0  0  0  0  0  0
  -29.1848  -21.3916   22.0401 C   0  0  0  0  0  0
  -29.6523  -16.5438   20.0083 C   0  0  0  0  0  0
  -29.9184  -15.8619   22.3987 C   0  0  0  0  0  0
  -30.5317  -21.9117   21.5458 C   0  0  1  0  0  0
  -30.7204  -18.2012   21.6006 C   0  0  0  0  0  0
  -29.5766  -20.1186   22.8083 C   0  0  2  0  0  0
  -31.2534  -20.6170   21.1487 C   0  0  1  0  0  0
  -29.8419  -20.4198   24.2941 C   0  0  0  0  0  0
  -32.7814  -20.7779   21.1151 C   0  0  0  0  0  0
  -29.9840  -25.0376   19.3595 C   0  0  0  0  0  0
  -28.5907  -25.6693   19.1854 C   0  0  0  0  0  0
  -29.9694  -15.4778   20.9810 N   0  0  0  0  0  0
  -30.4487  -22.8878   20.4586 N   0  0  0  0  0  0
  -30.8054  -19.5966   22.1392 N   0  3  2  0  0  0
  -29.8294  -24.6433   21.7239 O   0  0  0  0  0  0
  -31.4663  -12.3673   19.1229 H   0  0  0  0  0  0
  -30.3112  -11.2652   19.8055 H   0  0  0  0  0  0
  -29.7220  -11.7826   17.4171 H   0  0  0  0  0  0
  -29.6642  -13.4901   17.7900 H   0  0  0  0  0  0
  -27.8115  -11.3147   18.8103 H   0  0  0  0  0  0
  -27.3606  -12.6624   17.7977 H   0  0  0  0  0  0
  -27.7120  -14.2500   19.5938 H   0  0  0  0  0  0
  -28.6674  -11.9353   21.3475 H   0  0  0  0  0  0
  -28.4754  -13.5749   21.8791 H   0  0  0  0  0  0
  -25.2766   -9.5661   22.4748 H   0  0  0  0  0  0
  -23.9954   -7.4625   22.7489 H   0  0  0  0  0  0
  -21.0839   -8.8813   19.8966 H   0  0  0  0  0  0
  -22.3718  -10.9672   19.6161 H   0  0  0  0  0  0
  -21.2023   -7.6162   23.9729 H   0  0  0  0  0  0
  -21.1485   -6.0531   25.9089 H   0  0  0  0  0  0
  -22.0589   -2.7609   23.2843 H   0  0  0  0  0  0
  -22.4143  -11.9879   22.4740 H   0  0  0  0  0  0
  -21.1147  -13.1258   22.2639 H   0  0  0  0  0  0
  -24.6529  -15.8336   20.5084 H   0  0  0  0  0  0
  -26.2805  -15.6337   20.1056 H   0  0  0  0  0  0
  -26.7090  -32.5574   23.1196 H   0  0  0  0  0  0
  -25.0037  -33.9808   25.0495 H   0  0  0  0  0  0
  -22.6849  -31.3127   21.4188 H   0  0  0  0  0  0
  -23.3751  -35.9648   23.3264 H   0  0  0  0  0  0
  -24.3584  -36.8974   22.2054 H   0  0  0  0  0  0
  -23.7209  -37.6516   23.6666 H   0  0  0  0  0  0
  -26.0309  -31.6063   20.5952 H   0  0  0  0  0  0
  -26.8160  -30.8969   21.9783 H   0  0  0  0  0  0
  -28.0912  -29.1220   21.1549 H   0  0  0  0  0  0
  -26.0299  -26.0031   18.9766 H   0  0  0  0  0  0
  -23.9690  -27.3018   19.0395 H   0  0  0  0  0  0
  -23.7164  -30.6092   19.4105 H   0  0  0  0  0  0
  -22.7277  -29.2550   19.8686 H   0  0  0  0  0  0
  -25.1259  -36.2000   25.0834 H   0  0  0  0  0  0
  -20.9949  -28.3222   24.1454 H   0  0  0  0  0  0
  -20.5659  -26.2265   23.3598 H   0  0  0  0  0  0
  -21.6632  -26.7445   22.1218 H   0  0  0  0  0  0
  -19.6895  -25.6305   21.1225 H   0  0  0  0  0  0
  -19.6669  -27.3211   20.6753 H   0  0  0  0  0  0
  -17.4181  -26.6678   21.4031 H   0  0  0  0  0  0
  -18.0309  -26.0065   22.9020 H   0  0  0  0  0  0
  -19.7921  -30.7251   24.2309 H   0  0  0  0  0  0
  -17.5003  -31.6267   24.5172 H   0  0  0  0  0  0
  -15.5340  -30.3007   23.7620 H   0  0  0  0  0  0
  -15.8653  -28.0838   22.7038 H   0  0  0  0  0  0
  -24.5905  -30.7060   25.7855 H   0  0  0  0  0  0
  -24.8954  -32.2852   26.5000 H   0  0  0  0  0  0
  -25.8122  -30.8845   27.0233 H   0  0  0  0  0  0
  -26.2805  -29.6838   24.1147 H   0  0  0  0  0  0
  -27.4059  -29.7279   25.4531 H   0  0  0  0  0  0
  -27.8639  -30.4386   23.9218 H   0  0  0  0  0  0
  -27.2678  -33.3609   26.2110 H   0  0  0  0  0  0
  -28.3832  -32.6899   25.0303 H   0  0  0  0  0  0
  -28.0739  -31.8424   26.5377 H   0  0  0  0  0  0
  -28.2562  -38.0149   24.7580 H   0  0  0  0  0  0
  -28.1129  -36.2685   24.6165 H   0  0  0  0  0  0
  -27.2325  -37.1320   25.8855 H   0  0  0  0  0  0
  -20.9262  -29.8785   21.7003 H   0  0  0  0  0  0
  -26.0172  -38.2882   24.1485 H   0  0  0  0  0  0
  -28.5795  -18.0015   21.1593 H   0  0  0  0  0  0
  -29.4868  -18.6860   19.8449 H   0  0  0  0  0  0
  -31.8119  -16.8236   22.8610 H   0  0  0  0  0  0
  -30.4388  -17.5143   23.6712 H   0  0  0  0  0  0
  -28.5433  -21.1288   21.1970 H   0  0  0  0  0  0
  -28.6459  -22.1154   22.6535 H   0  0  0  0  0  0
  -30.4140  -16.5814   19.2245 H   0  0  0  0  0  0
  -28.7213  -16.2982   19.4999 H   0  0  0  0  0  0
  -30.2271  -15.0367   23.0433 H   0  0  0  0  0  0
  -28.8733  -16.0562   22.6516 H   0  0  0  0  0  0
  -31.0628  -22.3687   22.3846 H   0  0  0  0  0  0
  -31.6209  -18.0525   21.0028 H   0  0  0  0  0  0
  -28.7528  -19.4067   22.7799 H   0  0  0  0  0  0
  -30.9187  -20.3337   20.1504 H   0  0  0  0  0  0
  -30.6016  -21.1897   24.4288 H   0  0  0  0  0  0
  -30.1638  -19.5314   24.8364 H   0  0  0  0  0  0
  -28.9311  -20.7745   24.7792 H   0  0  0  0  0  0
  -33.1794  -21.0881   22.0826 H   0  0  0  0  0  0
  -33.0693  -21.5342   20.3832 H   0  0  0  0  0  0
  -33.2744  -19.8464   20.8326 H   0  0  0  0  0  0
  -30.2035  -24.4232   18.4859 H   0  0  0  0  0  0
  -30.7554  -25.8081   19.3907 H   0  0  0  0  0  0
  -27.8331  -24.9091   19.3785 H   0  0  0  0  0  0
  -28.4716  -26.0011   18.1524 H   0  0  0  0  0  0
  -30.6787  -22.5748   19.5243 H   0  0  0  0  0  0
  -31.5219  -19.5848   22.8492 H   0  0  0  0  0  0
  1 25  1  0  0  0
  1 30  2  0  0  0
  1 85  1  0  0  0
  2  3  1  0  0  0
  2 25  1  0  0  0
  2 89  1  0  0  0
  2 90  1  0  0  0
  3  4  1  0  0  0
  3 91  1  0  0  0
  3 92  1  0  0  0
  4  5  1  0  0  0
  4 93  1  0  0  0
  4 94  1  0  0  0
  5  6  1  0  0  0
  5 26  1  0  0  0
  5 95  1  0  0  0
  6 25  1  0  0  0
  6 96  1  0  0  0
  6 97  1  0  0  0
  7  8  2  0  0  0
  7 26  1  0  0  0
  7 29  1  0  0  0
  8  9  1  0  0  0
  8 22  1  0  0  0
  9 10  1  0  0  0
  9 27  2  0  0  0
 10 11  2  0  0  0
 10 15  1  0  0  0
 11 12  1  0  0  0
 11 98  1  0  0  0
 12 13  2  0  0  0
 12 99  1  0  0  0
 13 14  1  0  0  0
 13 31  1  0  0  0
 14 15  2  0  0  0
 14100  1  0  0  0
 15101  1  0  0  0
 16 17  2  0  0  0
 16 21  1  0  0  0
 16 31  1  0  0  0
 17 18  1  0  0  0
 17102  1  0  0  0
 18 19  2  0  0  0
 18103  1  0  0  0
 19 20  1  0  0  0
 19 24  1  0  0  0
 20 21  2  0  0  0
 20104  1  0  0  0
 21 23  1  0  0  0
 22 28  1  0  0  0
 22 32  2  0  0  0
 26 27  1  0  0  0
 28105  1  0  0  0
 28106  1  0  0  0
 29107  1  0  0  0
 29108  1  0  0  0
 33 34  1  0  0  0
 33 66  1  0  0  0
 33 70  2  0  0  0
 34 36  1  0  0  0
 34 59  1  0  0  0
 34109  1  0  0  0
 35 44  2  0  0  0
 35 45  1  0  0  0
 35 68  1  0  0  0
 36 56  1  0  0  0
 36110  1  0  0  0
 37 39  1  0  0  0
 37 47  1  0  0  0
 37 66  1  0  0  0
 37111  1  0  0  0
 38 43  2  0  0  0
 38 46  1  0  0  0
 38 47  1  0  0  0
 39 64  1  0  0  0
 39 67  2  0  0  0
 40 52  1  0  0  0
 40 53  2  0  0  0
 40 58  1  0  0  0
 41112  1  0  0  0
 41113  1  0  0  0
 41114  1  0  0  0
 41 48  1  0  0  0
 42 43  1  0  0  0
 42 66  1  0  0  0
 42115  1  0  0  0
 42116  1  0  0  0
 43 44  1  0  0  0
 44117  1  0  0  0
 45 46  2  0  0  0
 45118  1  0  0  0
 46119  1  0  0  0
 47120  1  0  0  0
 47121  1  0  0  0
 48 56  1  0  0  0
 48 65  1  0  0  0
 48122  1  0  0  0
 49 50  1  0  0  0
 49 53  1  0  0  0
 49 64  1  0  0  0
 49123  1  0  0  0
 50 51  1  0  0  0
 50124  1  0  0  0
 50125  1  0  0  0
 51 52  1  0  0  0
 51126  1  0  0  0
 51127  1  0  0  0
 52128  1  0  0  0
 52129  1  0  0  0
 53 54  1  0  0  0
 54 55  2  0  0  0
 54130  1  0  0  0
 55 57  1  0  0  0
 55131  1  0  0  0
 56 69  2  0  0  0
 57 58  2  0  0  0
 57132  1  0  0  0
 58133  1  0  0  0
 59 60  1  0  0  0
 59 61  1  0  0  0
 59 62  1  0  0  0
 60134  1  0  0  0
 60135  1  0  0  0
 60136  1  0  0  0
 61137  1  0  0  0
 61138  1  0  0  0
 61139  1  0  0  0
 62140  1  0  0  0
 62141  1  0  0  0
 62142  1  0  0  0
 63 65  1  0  0  0
 63143  1  0  0  0
 63144  1  0  0  0
 63145  1  0  0  0
 64146  1  0  0  0
 65147  1  0  0  0
 68 84  1  0  0  0
 71 83  1  0  0  0
 71 86  1  0  0  0
 71 88  2  0  0  0
 72 75  1  0  0  0
 72148  1  0  0  0
 72149  1  0  0  0
 72 78  1  0  0  0
 73 76  1  0  0  0
 73 78  1  0  0  0
 73150  1  0  0  0
 73151  1  0  0  0
 74 77  1  0  0  0
 74 79  1  0  0  0
 74152  1  0  0  0
 74153  1  0  0  0
 75 85  1  0  0  0
 75154  1  0  0  0
 75155  1  0  0  0
 76 85  1  0  0  0
 76156  1  0  0  0
 76157  1  0  0  0
 77 80  1  0  0  0
 77 86  1  0  0  0
 77158  1  0  0  0
 78159  1  0  0  0
 78 87  1  0  0  0
 79 81  1  0  0  0
 79 87  1  0  0  0
 79160  1  0  0  0
 80 82  1  0  0  0
 80 87  1  0  0  0
 80161  1  0  0  0
 81162  1  0  0  0
 81163  1  0  0  0
 81164  1  0  0  0
 82165  1  0  0  0
 82166  1  0  0  0
 82167  1  0  0  0
 83 84  1  0  0  0
 83168  1  0  0  0
 83169  1  0  0  0
 84170  1  0  0  0
 84171  1  0  0  0
 86172  1  0  0  0
 87173  1  0  0  0
M  CHG  1  87   1
M  ISO  4   1 100  68 101  84 101  85 100
M  END
> <chiral flag>
0

> <version>
0

> <s_m_source_file>
/data/baiqing/PycharmProjects/Reinvent-master-3.2/result/LINK_invent/BTK/process_docking_weight1_custom_sum_contain_oxygen_bond_distance_aromatic_linkinvent_7_9_3/rearranged_h_0164.sdf

> <i_m_source_file_index>
74

> <r_mmod_Potential_Energy-OPLS-2005>
92.7294464111328

> <r_mmod_Stretch_Energy-OPLS-2005>
36.6028137207031

> <r_mmod_Bend_Energy-OPLS-2005>
128.952255249023

> <r_mmod_Torsional_Energy-OPLS-2005>
401.459533691406

> <r_mmod_Improper_Torsional_Energy-OPLS-2005>
9.23348808288574

> <r_mmod_Van_der_Waal_Energy-OPLS-2005>
141.013961791992

> <r_mmod_Electrostatic_Energy-OPLS-2005>
-176.039199829102

> <r_mmod_Solvation_Energy-OPLS-2005>
-458.610382080078

> <b_mmod_Minimization_Converged-OPLS-2005>
0

> <r_mmod_RMS_Derivative-OPLS-2005>
2.73202991485596

$$$$
74
                    3D
 Structure written by MMmdl.
174183  0  0  1  0            999 V2000
  -30.6915  -14.6393   20.4981 C   0  0  0  0  0  0
  -30.3977  -12.3990   19.4617 C   0  0  0  0  0  0
  -29.4865  -12.4801   18.2220 C   0  0  0  0  0  0
  -28.0091  -12.3420   18.6352 C   0  0  0  0  0  0
  -27.6383  -13.2261   19.8554 C   0  0  2  0  0  0
  -28.6855  -13.1249   20.9864 C   0  0  0  0  0  0
  -25.2523  -13.8258   20.5732 C   0  0  0  0  0  0
  -24.1809  -13.0507   20.9231 C   0  0  0  0  0  0
  -24.6369  -11.6965   20.8770 C   0  0  0  0  0  0
  -23.9077  -10.4321   21.0409 C   0  0  0  0  0  0
  -24.3626   -9.4226   21.9189 C   0  0  0  0  0  0
  -23.6280   -8.2277   22.0779 C   0  0  0  0  0  0
  -22.4253   -8.0328   21.3592 C   0  0  0  0  0  0
  -21.9901   -9.0293   20.4689 C   0  0  0  0  0  0
  -22.7238  -10.2160   20.3075 C   0  0  0  0  0  0
  -21.6843   -6.0755   22.5289 C   0  0  0  0  0  0
  -21.4017   -6.5666   23.8224 C   0  0  0  0  0  0
  -21.3656   -5.6824   24.9180 C   0  0  0  0  0  0
  -21.6019   -4.3092   24.7228 C   0  0  0  0  0  0
  -21.8811   -3.8194   23.4343 C   0  0  0  0  0  0
  -21.9183   -4.6995   22.3390 C   0  0  0  0  0  0
  -22.7829  -13.5261   21.1884 C   0  0  0  0  0  0
  -22.1653   -4.2184   21.0970 F   0  0  0  0  0  0
  -21.5606   -3.4575   25.7739 F   0  0  0  0  0  0
  -29.9754  -13.4734   20.3873 N   0  0  0  0  0  0
  -26.2911  -12.9434   20.3349 N   0  0  0  0  0  0
  -25.9277  -11.6573   20.5773 N   0  0  0  0  0  0
  -22.0492  -12.8238   22.0432 N   0  0  0  0  0  0
  -25.4394  -15.1967   20.4127 N   0  0  0  0  0  0
  -31.9017  -14.5848   20.2479 O   0  0  0  0  0  0
  -21.6655   -6.8901   21.4255 O   0  0  0  0  0  0
  -22.3505  -14.5577   20.6749 O   0  0  0  0  0  0
  -24.6171  -31.8651   23.2108 C   0  0  0  0  0  0
  -25.9054  -32.4801   23.8419 C   0  0  1  0  0  0
  -27.2029  -27.3581   20.1275 C   0  0  0  0  0  0
  -25.5892  -33.8608   24.2309 N   0  0  0  0  0  0
  -23.4073  -30.4908   21.5548 C   0  0  2  0  0  0
  -24.8492  -28.9537   20.1082 C   0  0  0  0  0  0
  -22.7438  -29.4615   22.4991 C   0  0  0  0  0  0
  -18.0274  -28.1389   22.8551 C   0  0  0  0  0  0
  -24.1469  -36.7299   23.2643 C   0  0  0  0  0  0
  -25.9437  -30.8053   21.3761 C   0  0  0  0  0  0
  -26.0147  -29.4372   20.7176 C   0  0  0  0  0  0
  -27.1982  -28.6500   20.7225 C   0  0  0  0  0  0
  -26.0311  -26.9252   19.4767 C   0  0  0  0  0  0
  -24.8559  -27.7018   19.4746 C   0  0  0  0  0  0
  -23.6182  -29.8330   20.1663 C   0  0  0  0  0  0
  -25.4087  -36.3075   24.0325 C   0  0  1  0  0  0
  -20.5871  -28.3675   23.1342 C   0  0  2  0  0  0
  -20.6743  -26.9338   22.5588 C   0  0  0  0  0  0
  -19.5740  -26.6275   21.5375 C   0  0  0  0  0  0
  -18.1935  -26.7860   22.1802 C   0  0  0  0  0  0
  -19.1533  -28.8872   23.2911 C   0  0  0  0  0  0
  -18.9465  -30.1521   23.8882 C   0  0  0  0  0  0
  -17.6467  -30.6656   24.0509 C   0  0  0  0  0  0
  -25.9030  -34.9437   23.5103 C   0  0  0  0  0  0
  -16.5354  -29.9124   23.6326 C   0  0  0  0  0  0
  -16.7266  -28.6500   23.0412 C   0  0  0  0  0  0
  -26.4479  -31.6594   25.0765 C   0  0  0  0  0  0
  -25.3765  -31.3731   26.1540 C   0  0  0  0  0  0
  -27.0306  -30.3025   24.6142 C   0  0  0  0  0  0
  -27.6058  -32.4310   25.7539 C   0  0  0  0  0  0
  -27.5555  -37.1784   24.8464 C   0  0  0  0  0  0
  -21.4175  -29.2969   22.3672 N   0  0  0  0  0  0
  -26.4266  -37.3765   23.9405 N   0  0  0  0  0  0
  -24.6745  -31.0700   22.1045 N   0  0  0  0  0  0
  -23.4181  -28.8186   23.3065 O   0  0  0  0  0  0
  -28.3133  -26.5229   20.1727 O   0  0  0  0  0  0
  -26.5628  -34.8897   22.4687 O   0  0  0  0  0  0
  -23.5340  -32.1422   23.7459 O   0  0  0  0  0  0
  -27.9524  -22.1336   19.0079 C   0  0  0  0  0  0
  -28.7948  -22.5797   20.0719 C   0  0  0  0  0  0
  -27.8881  -20.7692   19.0271 C   0  0  0  0  0  0
  -29.1154  -21.4079   20.7825 C   0  0  0  0  0  0
  -28.4083  -17.8812   21.1372 C   0  0  0  0  0  0
  -30.5911  -18.4344   20.1076 C   0  0  0  0  0  0
  -28.9360  -16.3841   21.2741 C   0  0  0  0  0  0
  -30.7865  -16.9609   19.6585 C   0  0  0  0  0  0
  -29.1035  -18.7907   20.0951 C   0  0  0  0  0  0
  -27.2353  -23.0152   18.0022 C   0  0  0  0  0  0
  -27.0780  -19.8779   18.1324 C   0  0  0  0  0  0
  -28.4775  -21.1650   23.1736 C   0  0  0  0  0  0
  -30.7334  -22.1182   22.6913 C   0  0  0  0  0  0
  -28.0903  -25.1542   20.6648 C   0  0  0  0  0  0
  -29.1695  -24.1125   20.1853 C   0  0  1  0  0  0
  -29.6504  -21.1669   22.1762 C   0  0  0  0  0  0
  -28.7473  -20.2747   20.0048 N   0  0  0  0  0  0
  -30.0662  -15.8860   20.4177 N   0  0  0  0  0  0
  -30.3752  -24.3846   20.8659 O   0  0  0  0  0  0
  -31.4417  -12.4756   19.1573 H   0  0  0  0  0  0
  -30.3098  -11.4237   19.9400 H   0  0  0  0  0  0
  -29.7408  -11.6894   17.5174 H   0  0  0  0  0  0
  -29.6504  -13.4223   17.7020 H   0  0  0  0  0  0
  -27.8317  -11.2917   18.8684 H   0  0  0  0  0  0
  -27.3574  -12.5739   17.7909 H   0  0  0  0  0  0
  -27.6440  -14.2524   19.4938 H   0  0  0  0  0  0
  -28.7051  -12.1117   21.3912 H   0  0  0  0  0  0
  -28.4556  -13.7619   21.8400 H   0  0  0  0  0  0
  -25.2735   -9.5745   22.4798 H   0  0  0  0  0  0
  -24.0011   -7.4690   22.7509 H   0  0  0  0  0  0
  -21.0818   -8.8777   19.9015 H   0  0  0  0  0  0
  -22.3629  -10.9708   19.6231 H   0  0  0  0  0  0
  -21.2028   -7.6197   23.9729 H   0  0  0  0  0  0
  -21.1469   -6.0568   25.9071 H   0  0  0  0  0  0
  -22.0581   -2.7653   23.2845 H   0  0  0  0  0  0
  -22.4028  -11.9776   22.4665 H   0  0  0  0  0  0
  -21.1230  -13.1450   22.2820 H   0  0  0  0  0  0
  -24.7092  -15.8892   20.5393 H   0  0  0  0  0  0
  -26.3025  -15.6023   20.0769 H   0  0  0  0  0  0
  -26.7131  -32.5457   23.1194 H   0  0  0  0  0  0
  -25.0005  -33.9806   25.0416 H   0  0  0  0  0  0
  -22.6936  -31.3085   21.4235 H   0  0  0  0  0  0
  -23.3701  -35.9674   23.3320 H   0  0  0  0  0  0
  -24.3559  -36.8900   22.2061 H   0  0  0  0  0  0
  -23.7251  -37.6506   23.6672 H   0  0  0  0  0  0
  -26.0670  -31.5705   20.6095 H   0  0  0  0  0  0
  -26.8288  -30.8587   21.9983 H   0  0  0  0  0  0
  -28.0897  -29.0146   21.2135 H   0  0  0  0  0  0
  -26.0077  -25.9752   18.9670 H   0  0  0  0  0  0
  -23.9679  -27.3295   18.9830 H   0  0  0  0  0  0
  -23.7428  -30.6187   19.4212 H   0  0  0  0  0  0
  -22.7345  -29.2748   19.8558 H   0  0  0  0  0  0
  -25.1252  -36.1937   25.0820 H   0  0  0  0  0  0
  -20.9943  -28.3380   24.1476 H   0  0  0  0  0  0
  -20.5525  -26.2332   23.3859 H   0  0  0  0  0  0
  -21.6642  -26.7268   22.1531 H   0  0  0  0  0  0
  -19.6900  -25.6147   21.1520 H   0  0  0  0  0  0
  -19.6686  -27.3005   20.6848 H   0  0  0  0  0  0
  -17.4135  -26.6449   21.4309 H   0  0  0  0  0  0
  -18.0460  -26.0139   22.9357 H   0  0  0  0  0  0
  -19.7938  -30.7385   24.2202 H   0  0  0  0  0  0
  -17.5009  -31.6373   24.5015 H   0  0  0  0  0  0
  -15.5346  -30.3033   23.7638 H   0  0  0  0  0  0
  -15.8683  -28.0791   22.7187 H   0  0  0  0  0  0
  -24.5934  -30.7069   25.7912 H   0  0  0  0  0  0
  -24.9000  -32.2922   26.4964 H   0  0  0  0  0  0
  -25.8153  -30.8943   27.0301 H   0  0  0  0  0  0
  -26.2884  -29.6830   24.1117 H   0  0  0  0  0  0
  -27.3990  -29.7200   25.4581 H   0  0  0  0  0  0
  -27.8746  -30.4327   23.9374 H   0  0  0  0  0  0
  -27.2672  -33.3586   26.2159 H   0  0  0  0  0  0
  -28.3887  -32.6888   25.0404 H   0  0  0  0  0  0
  -28.0727  -31.8420   26.5438 H   0  0  0  0  0  0
  -28.2558  -38.0079   24.7462 H   0  0  0  0  0  0
  -28.1048  -36.2599   24.6329 H   0  0  0  0  0  0
  -27.2298  -37.1485   25.8875 H   0  0  0  0  0  0
  -20.9351  -29.8575   21.6800 H   0  0  0  0  0  0
  -26.0125  -38.2829   24.1423 H   0  0  0  0  0  0
  -28.4495  -18.3488   22.1188 H   0  0  0  0  0  0
  -27.3442  -17.8514   20.8937 H   0  0  0  0  0  0
  -31.0448  -18.5743   21.0877 H   0  0  0  0  0  0
  -31.1307  -19.0893   19.4205 H   0  0  0  0  0  0
  -28.0704  -15.7406   21.1447 H   0  0  0  0  0  0
  -29.2544  -16.2434   22.3087 H   0  0  0  0  0  0
  -30.4800  -16.8676   18.6156 H   0  0  0  0  0  0
  -31.8662  -16.8121   19.6372 H   0  0  0  0  0  0
  -28.7972  -18.3776   19.1361 H   0  0  0  0  0  0
  -27.8120  -23.8994   17.7406 H   0  0  0  0  0  0
  -26.2786  -23.3399   18.4129 H   0  0  0  0  0  0
  -27.0346  -22.4831   17.0735 H   0  0  0  0  0  0
  -27.6811  -19.4846   17.3161 H   0  0  0  0  0  0
  -26.2443  -20.4256   17.6986 H   0  0  0  0  0  0
  -26.6385  -19.0411   18.6762 H   0  0  0  0  0  0
  -27.7353  -20.4069   22.9212 H   0  0  0  0  0  0
  -27.9680  -22.1270   23.1816 H   0  0  0  0  0  0
  -28.8148  -20.9641   24.1892 H   0  0  0  0  0  0
  -31.5486  -22.2222   21.9774 H   0  0  0  0  0  0
  -31.1564  -21.7696   23.6363 H   0  0  0  0  0  0
  -30.3230  -23.1029   22.8958 H   0  0  0  0  0  0
  -28.0734  -25.1755   21.7555 H   0  0  0  0  0  0
  -27.1139  -24.7825   20.3667 H   0  0  0  0  0  0
  -29.3949  -24.4027   19.1614 H   0  0  0  0  0  0
  -30.0967  -20.1762   22.2122 H   0  0  0  0  0  0
  -31.0807  -23.9731   20.3808 H   0  0  0  0  0  0
  1 25  1  0  0  0
  1 30  2  0  0  0
  1 88  1  0  0  0
  2  3  1  0  0  0
  2 25  1  0  0  0
  2 90  1  0  0  0
  2 91  1  0  0  0
  3  4  1  0  0  0
  3 92  1  0  0  0
  3 93  1  0  0  0
  4  5  1  0  0  0
  4 94  1  0  0  0
  4 95  1  0  0  0
  5  6  1  0  0  0
  5 26  1  0  0  0
  5 96  1  0  0  0
  6 25  1  0  0  0
  6 97  1  0  0  0
  6 98  1  0  0  0
  7  8  2  0  0  0
  7 26  1  0  0  0
  7 29  1  0  0  0
  8  9  1  0  0  0
  8 22  1  0  0  0
  9 10  1  0  0  0
  9 27  2  0  0  0
 10 11  2  0  0  0
 10 15  1  0  0  0
 11 12  1  0  0  0
 11 99  1  0  0  0
 12 13  2  0  0  0
 12100  1  0  0  0
 13 14  1  0  0  0
 13 31  1  0  0  0
 14 15  2  0  0  0
 14101  1  0  0  0
 15102  1  0  0  0
 16 17  2  0  0  0
 16 21  1  0  0  0
 16 31  1  0  0  0
 17 18  1  0  0  0
 17103  1  0  0  0
 18 19  2  0  0  0
 18104  1  0  0  0
 19 20  1  0  0  0
 19 24  1  0  0  0
 20 21  2  0  0  0
 20105  1  0  0  0
 21 23  1  0  0  0
 22 28  1  0  0  0
 22 32  2  0  0  0
 26 27  1  0  0  0
 28106  1  0  0  0
 28107  1  0  0  0
 29108  1  0  0  0
 29109  1  0  0  0
 33 34  1  0  0  0
 33 66  1  0  0  0
 33 70  2  0  0  0
 34 36  1  0  0  0
 34 59  1  0  0  0
 34110  1  0  0  0
 35 44  2  0  0  0
 35 45  1  0  0  0
 35 68  1  0  0  0
 36 56  1  0  0  0
 36111  1  0  0  0
 37 39  1  0  0  0
 37 47  1  0  0  0
 37 66  1  0  0  0
 37112  1  0  0  0
 38 43  2  0  0  0
 38 46  1  0  0  0
 38 47  1  0  0  0
 39 64  1  0  0  0
 39 67  2  0  0  0
 40 52  1  0  0  0
 40 53  2  0  0  0
 40 58  1  0  0  0
 41113  1  0  0  0
 41114  1  0  0  0
 41115  1  0  0  0
 41 48  1  0  0  0
 42 43  1  0  0  0
 42 66  1  0  0  0
 42116  1  0  0  0
 42117  1  0  0  0
 43 44  1  0  0  0
 44118  1  0  0  0
 45 46  2  0  0  0
 45119  1  0  0  0
 46120  1  0  0  0
 47121  1  0  0  0
 47122  1  0  0  0
 48 56  1  0  0  0
 48 65  1  0  0  0
 48123  1  0  0  0
 49 50  1  0  0  0
 49 53  1  0  0  0
 49 64  1  0  0  0
 49124  1  0  0  0
 50 51  1  0  0  0
 50125  1  0  0  0
 50126  1  0  0  0
 51 52  1  0  0  0
 51127  1  0  0  0
 51128  1  0  0  0
 52129  1  0  0  0
 52130  1  0  0  0
 53 54  1  0  0  0
 54 55  2  0  0  0
 54131  1  0  0  0
 55 57  1  0  0  0
 55132  1  0  0  0
 56 69  2  0  0  0
 57 58  2  0  0  0
 57133  1  0  0  0
 58134  1  0  0  0
 59 60  1  0  0  0
 59 61  1  0  0  0
 59 62  1  0  0  0
 60135  1  0  0  0
 60136  1  0  0  0
 60137  1  0  0  0
 61138  1  0  0  0
 61139  1  0  0  0
 61140  1  0  0  0
 62141  1  0  0  0
 62142  1  0  0  0
 62143  1  0  0  0
 63 65  1  0  0  0
 63144  1  0  0  0
 63145  1  0  0  0
 63146  1  0  0  0
 64147  1  0  0  0
 65148  1  0  0  0
 68 84  1  0  0  0
 71 72  1  0  0  0
 71 73  2  0  0  0
 71 80  1  0  0  0
 72 74  2  0  0  0
 72 85  1  0  0  0
 73 81  1  0  0  0
 73 87  1  0  0  0
 74 86  1  0  0  0
 74 87  1  0  0  0
 75 77  1  0  0  0
 75 79  1  0  0  0
 75149  1  0  0  0
 75150  1  0  0  0
 76 78  1  0  0  0
 76 79  1  0  0  0
 76151  1  0  0  0
 76152  1  0  0  0
 77 88  1  0  0  0
 77153  1  0  0  0
 77154  1  0  0  0
 78 88  1  0  0  0
 78155  1  0  0  0
 78156  1  0  0  0
 79 87  1  0  0  0
 79157  1  0  0  0
 80158  1  0  0  0
 80159  1  0  0  0
 80160  1  0  0  0
 81161  1  0  0  0
 81162  1  0  0  0
 81163  1  0  0  0
 82164  1  0  0  0
 82165  1  0  0  0
 82166  1  0  0  0
 82 86  1  0  0  0
 83 86  1  0  0  0
 83167  1  0  0  0
 83168  1  0  0  0
 83169  1  0  0  0
 84 85  1  0  0  0
 84170  1  0  0  0
 84171  1  0  0  0
 85 89  1  0  0  0
 85172  1  0  0  0
 86173  1  0  0  0
 89174  1  0  0  0
M  ISO  4   1 100  68 101  84 101  88 100
M  END
> <chiral flag>
0

> <version>
0

> <s_m_source_file>
/data/baiqing/PycharmProjects/Reinvent-master-3.2/result/LINK_invent/BTK/process_docking_weight1_custom_sum_contain_oxygen_bond_distance_aromatic_linkinvent_7_9_3/rearranged_h_0164.sdf

> <i_m_source_file_index>
75

> <r_mmod_Potential_Energy-OPLS-2005>
362.726104736328

> <r_mmod_Stretch_Energy-OPLS-2005>
88.4123611450195

> <r_mmod_Bend_Energy-OPLS-2005>
197.728698730469

> <r_mmod_Torsional_Energy-OPLS-2005>
404.035888671875

> <r_mmod_Improper_Torsional_Energy-OPLS-2005>
15.1371297836304

> <r_mmod_Van_der_Waal_Energy-OPLS-2005>
141.329772949219

> <r_mmod_Electrostatic_Energy-OPLS-2005>
-323.928863525391

> <r_mmod_Solvation_Energy-OPLS-2005>
-211.689819335938

> <b_mmod_Minimization_Converged-OPLS-2005>
0

> <r_mmod_RMS_Derivative-OPLS-2005>
6.31708288192749

$$$$
75
                    3D
 Structure written by MMmdl.
173183  0  0  1  0            999 V2000
  -30.6912  -14.5369   20.5600 C   0  0  0  0  0  0
  -30.4238  -12.3461   19.4333 C   0  0  0  0  0  0
  -29.5006  -12.4948   18.2087 C   0  0  0  0  0  0
  -28.0257  -12.3119   18.6203 C   0  0  0  0  0  0
  -27.6462  -13.1815   19.8456 C   0  0  2  0  0  0
  -28.6890  -13.0422   20.9789 C   0  0  0  0  0  0
  -25.2548  -13.8078   20.5619 C   0  0  0  0  0  0
  -24.1803  -13.0386   20.9174 C   0  0  0  0  0  0
  -24.6337  -11.6854   20.8731 C   0  0  0  0  0  0
  -23.9015  -10.4252   21.0408 C   0  0  0  0  0  0
  -24.3587   -9.4182   21.9191 C   0  0  0  0  0  0
  -23.6277   -8.2214   22.0759 C   0  0  0  0  0  0
  -22.4256   -8.0258   21.3554 C   0  0  0  0  0  0
  -21.9876   -9.0221   20.4650 C   0  0  0  0  0  0
  -22.7188  -10.2103   20.3050 C   0  0  0  0  0  0
  -21.6847   -6.0729   22.5289 C   0  0  0  0  0  0
  -21.4009   -6.5631   23.8222 C   0  0  0  0  0  0
  -21.3655   -5.6786   24.9183 C   0  0  0  0  0  0
  -21.6038   -4.3050   24.7233 C   0  0  0  0  0  0
  -21.8823   -3.8138   23.4351 C   0  0  0  0  0  0
  -21.9196   -4.6958   22.3403 C   0  0  0  0  0  0
  -22.7838  -13.5222   21.1861 C   0  0  0  0  0  0
  -22.1664   -4.2141   21.0984 F   0  0  0  0  0  0
  -21.5636   -3.4530   25.7747 F   0  0  0  0  0  0
  -30.0116  -13.3596   20.4197 N   0  0  0  0  0  0
  -26.2930  -12.9182   20.3205 N   0  0  0  0  0  0
  -25.9236  -11.6381   20.5693 N   0  0  0  0  0  0
  -22.0468  -12.8235   22.0423 N   0  0  0  0  0  0
  -25.4229  -15.1798   20.3995 N   0  0  0  0  0  0
  -31.8525  -14.6660   20.1566 O   0  0  0  0  0  0
  -21.6626   -6.8862   21.4248 O   0  0  0  0  0  0
  -22.3534  -14.5529   20.6707 O   0  0  0  0  0  0
  -24.6104  -31.8696   23.2089 C   0  0  0  0  0  0
  -25.9018  -32.4827   23.8360 C   0  0  1  0  0  0
  -27.2485  -27.4388   20.1028 C   0  0  0  0  0  0
  -25.5910  -33.8626   24.2318 N   0  0  0  0  0  0
  -23.3974  -30.4908   21.5490 C   0  0  2  0  0  0
  -24.8444  -28.9474   20.1224 C   0  0  0  0  0  0
  -22.7389  -29.4647   22.4983 C   0  0  0  0  0  0
  -18.0301  -28.1342   22.8475 C   0  0  0  0  0  0
  -24.1479  -36.7316   23.2642 C   0  0  0  0  0  0
  -25.9227  -30.8381   21.3567 C   0  0  0  0  0  0
  -26.0008  -29.4683   20.7109 C   0  0  0  0  0  0
  -27.2018  -28.7253   20.6876 C   0  0  0  0  0  0
  -26.0658  -26.9205   19.5278 C   0  0  0  0  0  0
  -24.8715  -27.6708   19.5309 C   0  0  0  0  0  0
  -23.6076  -29.8187   20.1638 C   0  0  0  0  0  0
  -25.4106  -36.3120   24.0344 C   0  0  1  0  0  0
  -20.5878  -28.3622   23.1329 C   0  0  2  0  0  0
  -20.6816  -26.9371   22.5397 C   0  0  0  0  0  0
  -19.5789  -26.6319   21.5205 C   0  0  0  0  0  0
  -18.1950  -26.7898   22.1564 C   0  0  0  0  0  0
  -19.1541  -28.8773   23.2933 C   0  0  0  0  0  0
  -18.9479  -30.1359   23.8982 C   0  0  0  0  0  0
  -17.6483  -30.6524   24.0608 C   0  0  0  0  0  0
  -25.9034  -34.9490   23.5122 C   0  0  0  0  0  0
  -16.5372  -29.9069   23.6314 C   0  0  0  0  0  0
  -16.7299  -28.6491   23.0313 C   0  0  0  0  0  0
  -26.4473  -31.6605   25.0678 C   0  0  0  0  0  0
  -25.3755  -31.3714   26.1438 C   0  0  0  0  0  0
  -27.0306  -30.3051   24.6027 C   0  0  0  0  0  0
  -27.6053  -32.4309   25.7447 C   0  0  0  0  0  0
  -27.5587  -37.1814   24.8467 C   0  0  0  0  0  0
  -21.4113  -29.3038   22.3754 N   0  0  0  0  0  0
  -26.4293  -37.3810   23.9415 N   0  0  0  0  0  0
  -24.6617  -31.0802   22.0970 N   0  0  0  0  0  0
  -23.4188  -28.8184   23.3006 O   0  0  0  0  0  0
  -28.4741  -26.8005   20.0728 O   0  0  0  0  0  0
  -26.5569  -34.8930   22.4665 O   0  0  0  0  0  0
  -23.5304  -32.1440   23.7513 O   0  0  0  0  0  0
  -28.4712  -20.7705   21.4909 C   0  0  0  0  0  0
  -27.6911  -21.1252   24.1495 C   0  0  0  0  0  0
  -27.9021  -22.0255   21.8823 C   0  0  0  0  0  0
  -28.6246  -19.6847   22.4036 C   0  0  0  0  0  0
  -27.4492  -22.1567   23.2250 C   0  0  0  0  0  0
  -28.2720  -19.9062   23.7613 C   0  0  0  0  0  0
  -28.5054  -23.0763   19.5535 C   0  0  0  0  0  0
  -28.4927  -24.4894   18.9541 C   0  0  0  0  0  0
  -28.8036  -17.8237   20.5264 C   0  0  0  0  0  0
  -30.5047  -17.8479   22.2530 C   0  0  0  0  0  0
  -27.9833  -24.6300   21.3521 C   0  0  0  0  0  0
  -28.9319  -16.2782   20.3871 C   0  0  0  0  0  0
  -30.6209  -16.3021   22.2842 C   0  0  0  0  0  0
  -27.6960  -23.1793   20.8598 C   0  0  2  0  0  0
  -29.0522  -18.2559   21.9724 C   0  0  0  0  0  0
  -28.6552  -25.3780   20.1887 C   0  0  1  0  0  0
  -26.6560  -23.3559   23.7283 C   0  0  0  0  0  0
  -28.4352  -18.8422   24.8407 C   0  0  0  0  0  0
  -30.0332  -15.5954   21.1220 N   0  0  0  0  0  0
  -31.4674  -12.4501   19.1339 H   0  0  0  0  0  0
  -30.3422  -11.3442   19.8596 H   0  0  0  0  0  0
  -29.7685  -11.7685   17.4394 H   0  0  0  0  0  0
  -29.6410  -13.4812   17.7641 H   0  0  0  0  0  0
  -27.8720  -11.2569   18.8499 H   0  0  0  0  0  0
  -27.3686  -12.5353   17.7788 H   0  0  0  0  0  0
  -27.6483  -14.1962   19.4635 H   0  0  0  0  0  0
  -28.6900  -12.0245   21.3693 H   0  0  0  0  0  0
  -28.4335  -13.6810   21.8258 H   0  0  0  0  0  0
  -25.2736   -9.5675   22.4762 H   0  0  0  0  0  0
  -24.0002   -7.4599   22.7464 H   0  0  0  0  0  0
  -21.0813   -8.8712   19.8949 H   0  0  0  0  0  0
  -22.3643  -10.9638   19.6149 H   0  0  0  0  0  0
  -21.1989   -7.6137   23.9724 H   0  0  0  0  0  0
  -21.1479   -6.0514   25.9091 H   0  0  0  0  0  0
  -22.0606   -2.7602   23.2848 H   0  0  0  0  0  0
  -22.4056  -11.9878   22.4815 H   0  0  0  0  0  0
  -21.1083  -13.1273   22.2602 H   0  0  0  0  0  0
  -24.6604  -15.8365   20.5198 H   0  0  0  0  0  0
  -26.2772  -15.6202   20.0849 H   0  0  0  0  0  0
  -26.7074  -32.5553   23.1116 H   0  0  0  0  0  0
  -25.0144  -33.9785   25.0516 H   0  0  0  0  0  0
  -22.6871  -31.3089   21.4119 H   0  0  0  0  0  0
  -23.3745  -35.9643   23.3302 H   0  0  0  0  0  0
  -24.3583  -36.8907   22.2054 H   0  0  0  0  0  0
  -23.7203  -37.6519   23.6635 H   0  0  0  0  0  0
  -26.0249  -31.6057   20.5873 H   0  0  0  0  0  0
  -26.8145  -30.8966   21.9695 H   0  0  0  0  0  0
  -28.0988  -29.1429   21.1220 H   0  0  0  0  0  0
  -26.0457  -25.9505   19.0588 H   0  0  0  0  0  0
  -23.9780  -27.2613   19.0810 H   0  0  0  0  0  0
  -23.7269  -30.5969   19.4088 H   0  0  0  0  0  0
  -22.7285  -29.2461   19.8607 H   0  0  0  0  0  0
  -25.1276  -36.2007   25.0840 H   0  0  0  0  0  0
  -20.9999  -28.3148   24.1438 H   0  0  0  0  0  0
  -20.5778  -26.2219   23.3562 H   0  0  0  0  0  0
  -21.6690  -26.7457   22.1167 H   0  0  0  0  0  0
  -19.6932  -25.6205   21.1298 H   0  0  0  0  0  0
  -19.6761  -27.3054   20.6688 H   0  0  0  0  0  0
  -17.4269  -26.6721   21.3906 H   0  0  0  0  0  0
  -18.0262  -26.0006   22.8898 H   0  0  0  0  0  0
  -19.7971  -30.7119   24.2401 H   0  0  0  0  0  0
  -17.5073  -31.6179   24.5268 H   0  0  0  0  0  0
  -15.5386  -30.2994   23.7613 H   0  0  0  0  0  0
  -15.8697  -28.0848   22.6967 H   0  0  0  0  0  0
  -24.5925  -30.7060   25.7778 H   0  0  0  0  0  0
  -24.8970  -32.2890   26.4876 H   0  0  0  0  0  0
  -25.8137  -30.8895   27.0187 H   0  0  0  0  0  0
  -26.2834  -29.6789   24.1132 H   0  0  0  0  0  0
  -27.4154  -29.7299   25.4458 H   0  0  0  0  0  0
  -27.8627  -30.4369   23.9101 H   0  0  0  0  0  0
  -27.2671  -33.3591   26.2051 H   0  0  0  0  0  0
  -28.3866  -32.6871   25.0285 H   0  0  0  0  0  0
  -28.0704  -31.8403   26.5346 H   0  0  0  0  0  0
  -28.2620  -38.0097   24.7517 H   0  0  0  0  0  0
  -28.1065  -36.2637   24.6292 H   0  0  0  0  0  0
  -27.2315  -37.1463   25.8871 H   0  0  0  0  0  0
  -20.9219  -29.8851   21.7088 H   0  0  0  0  0  0
  -26.0190  -38.2888   24.1424 H   0  0  0  0  0  0
  -28.7579  -20.6161   20.4607 H   0  0  0  0  0  0
  -27.3839  -21.2576   25.1781 H   0  0  0  0  0  0
  -29.5377  -22.8109   19.7865 H   0  0  0  0  0  0
  -28.1132  -22.3250   18.8672 H   0  0  0  0  0  0
  -27.5557  -24.6613   18.4334 H   0  0  0  0  0  0
  -29.2981  -24.6440   18.2356 H   0  0  0  0  0  0
  -27.8026  -18.1236   20.2125 H   0  0  0  0  0  0
  -29.4979  -18.3275   19.8509 H   0  0  0  0  0  0
  -31.1696  -18.2613   21.4929 H   0  0  0  0  0  0
  -30.8552  -18.2556   23.1979 H   0  0  0  0  0  0
  -28.6686  -24.6331   22.2006 H   0  0  0  0  0  0
  -27.0673  -25.1304   21.6632 H   0  0  0  0  0  0
  -28.9691  -16.0284   19.3241 H   0  0  0  0  0  0
  -28.0120  -15.8611   20.7877 H   0  0  0  0  0  0
  -30.0900  -15.9371   23.1642 H   0  0  0  0  0  0
  -31.6634  -16.0180   22.4373 H   0  0  0  0  0  0
  -26.6416  -23.1519   20.5794 H   0  0  0  0  0  0
  -28.4071  -17.6057   22.5646 H   0  0  0  0  0  0
  -29.7218  -25.3209   20.4135 H   0  0  0  0  0  0
  -26.0779  -23.1014   24.6165 H   0  0  0  0  0  0
  -25.9371  -23.7007   22.9846 H   0  0  0  0  0  0
  -27.3166  -24.1786   24.0010 H   0  0  0  0  0  0
  -28.3557  -19.2810   25.8359 H   0  0  0  0  0  0
  -29.4061  -18.3548   24.7970 H   0  0  0  0  0  0
  -27.6602  -18.0804   24.7567 H   0  0  0  0  0  0
  1 25  1  0  0  0
  1 30  2  0  0  0
  1 89  1  0  0  0
  2  3  1  0  0  0
  2 25  1  0  0  0
  2 90  1  0  0  0
  2 91  1  0  0  0
  3  4  1  0  0  0
  3 92  1  0  0  0
  3 93  1  0  0  0
  4  5  1  0  0  0
  4 94  1  0  0  0
  4 95  1  0  0  0
  5  6  1  0  0  0
  5 26  1  0  0  0
  5 96  1  0  0  0
  6 25  1  0  0  0
  6 97  1  0  0  0
  6 98  1  0  0  0
  7  8  2  0  0  0
  7 26  1  0  0  0
  7 29  1  0  0  0
  8  9  1  0  0  0
  8 22  1  0  0  0
  9 10  1  0  0  0
  9 27  2  0  0  0
 10 11  2  0  0  0
 10 15  1  0  0  0
 11 12  1  0  0  0
 11 99  1  0  0  0
 12 13  2  0  0  0
 12100  1  0  0  0
 13 14  1  0  0  0
 13 31  1  0  0  0
 14 15  2  0  0  0
 14101  1  0  0  0
 15102  1  0  0  0
 16 17  2  0  0  0
 16 21  1  0  0  0
 16 31  1  0  0  0
 17 18  1  0  0  0
 17103  1  0  0  0
 18 19  2  0  0  0
 18104  1  0  0  0
 19 20  1  0  0  0
 19 24  1  0  0  0
 20 21  2  0  0  0
 20105  1  0  0  0
 21 23  1  0  0  0
 22 28  1  0  0  0
 22 32  2  0  0  0
 26 27  1  0  0  0
 28106  1  0  0  0
 28107  1  0  0  0
 29108  1  0  0  0
 29109  1  0  0  0
 33 34  1  0  0  0
 33 66  1  0  0  0
 33 70  2  0  0  0
 34 36  1  0  0  0
 34 59  1  0  0  0
 34110  1  0  0  0
 35 44  2  0  0  0
 35 45  1  0  0  0
 35 68  1  0  0  0
 36 56  1  0  0  0
 36111  1  0  0  0
 37 39  1  0  0  0
 37 47  1  0  0  0
 37 66  1  0  0  0
 37112  1  0  0  0
 38 43  2  0  0  0
 38 46  1  0  0  0
 38 47  1  0  0  0
 39 64  1  0  0  0
 39 67  2  0  0  0
 40 52  1  0  0  0
 40 53  2  0  0  0
 40 58  1  0  0  0
 41113  1  0  0  0
 41114  1  0  0  0
 41115  1  0  0  0
 41 48  1  0  0  0
 42 43  1  0  0  0
 42 66  1  0  0  0
 42116  1  0  0  0
 42117  1  0  0  0
 43 44  1  0  0  0
 44118  1  0  0  0
 45 46  2  0  0  0
 45119  1  0  0  0
 46120  1  0  0  0
 47121  1  0  0  0
 47122  1  0  0  0
 48 56  1  0  0  0
 48 65  1  0  0  0
 48123  1  0  0  0
 49 50  1  0  0  0
 49 53  1  0  0  0
 49 64  1  0  0  0
 49124  1  0  0  0
 50 51  1  0  0  0
 50125  1  0  0  0
 50126  1  0  0  0
 51 52  1  0  0  0
 51127  1  0  0  0
 51128  1  0  0  0
 52129  1  0  0  0
 52130  1  0  0  0
 53 54  1  0  0  0
 54 55  2  0  0  0
 54131  1  0  0  0
 55 57  1  0  0  0
 55132  1  0  0  0
 56 69  2  0  0  0
 57 58  2  0  0  0
 57133  1  0  0  0
 58134  1  0  0  0
 59 60  1  0  0  0
 59 61  1  0  0  0
 59 62  1  0  0  0
 60135  1  0  0  0
 60136  1  0  0  0
 60137  1  0  0  0
 61138  1  0  0  0
 61139  1  0  0  0
 61140  1  0  0  0
 62141  1  0  0  0
 62142  1  0  0  0
 62143  1  0  0  0
 63 65  1  0  0  0
 63144  1  0  0  0
 63145  1  0  0  0
 63146  1  0  0  0
 64147  1  0  0  0
 65148  1  0  0  0
 68 86  1  0  0  0
 71 73  2  0  0  0
 71 74  1  0  0  0
 71149  1  0  0  0
 72 75  2  0  0  0
 72 76  1  0  0  0
 72150  1  0  0  0
 73 75  1  0  0  0
 73 84  1  0  0  0
 74 76  2  0  0  0
 74 85  1  0  0  0
 75 87  1  0  0  0
 76 88  1  0  0  0
 77 78  1  0  0  0
 77 84  1  0  0  0
 77151  1  0  0  0
 77152  1  0  0  0
 78 86  1  0  0  0
 78153  1  0  0  0
 78154  1  0  0  0
 79 82  1  0  0  0
 79 85  1  0  0  0
 79155  1  0  0  0
 79156  1  0  0  0
 80 83  1  0  0  0
 80 85  1  0  0  0
 80157  1  0  0  0
 80158  1  0  0  0
 81 84  1  0  0  0
 81 86  1  0  0  0
 81159  1  0  0  0
 81160  1  0  0  0
 82 89  1  0  0  0
 82161  1  0  0  0
 82162  1  0  0  0
 83 89  1  0  0  0
 83163  1  0  0  0
 83164  1  0  0  0
 84165  1  0  0  0
 85166  1  0  0  0
 86167  1  0  0  0
 87168  1  0  0  0
 87169  1  0  0  0
 87170  1  0  0  0
 88171  1  0  0  0
 88172  1  0  0  0
 88173  1  0  0  0
M  ISO  4   1 100  68 101  86 101  89 100
M  END
> <chiral flag>
0

> <version>
0

> <s_m_source_file>
/data/baiqing/PycharmProjects/Reinvent-master-3.2/result/LINK_invent/BTK/process_docking_weight1_custom_sum_contain_oxygen_bond_distance_aromatic_linkinvent_7_9_3/rearranged_h_0164.sdf

> <i_m_source_file_index>
76

> <r_mmod_Potential_Energy-OPLS-2005>
299.892181396484

> <r_mmod_Stretch_Energy-OPLS-2005>
51.3222999572754

> <r_mmod_Bend_Energy-OPLS-2005>
186.927932739258

> <r_mmod_Torsional_Energy-OPLS-2005>
378.582580566406

> <r_mmod_Improper_Torsional_Energy-OPLS-2005>
3.04841876029968

> <r_mmod_Van_der_Waal_Energy-OPLS-2005>
159.977310180664

> <r_mmod_Electrostatic_Energy-OPLS-2005>
-312.20263671875

> <r_mmod_Solvation_Energy-OPLS-2005>
-188.383422851562

> <b_mmod_Minimization_Converged-OPLS-2005>
0

> <r_mmod_RMS_Derivative-OPLS-2005>
3.25774550437927

$$$$
76
                    3D
 Structure written by MMmdl.
174184  0  0  1  0            999 V2000
  -31.4823  -15.0457   20.4154 C   0  0  0  0  0  0
  -30.9239  -12.3778   19.6395 C   0  0  0  0  0  0
  -29.5268  -11.6221   18.5281 C   0  0  0  0  0  0
  -27.7086  -12.1737   18.4049 C   0  0  0  0  0  0
  -27.0115  -13.5980   19.5207 C   0  0  2  0  0  0
  -29.5811  -14.4364   21.2546 C   0  0  0  0  0  0
  -24.8353  -13.8876   20.4535 C   0  0  0  0  0  0
  -23.9223  -13.0429   20.9493 C   0  0  0  0  0  0
  -24.4648  -11.7211   20.8802 C   0  0  0  0  0  0
  -23.8269  -10.4292   21.0577 C   0  0  0  0  0  0
  -24.3278   -9.4324   21.9224 C   0  0  0  0  0  0
  -23.6223   -8.2201   22.0733 C   0  0  0  0  0  0
  -22.4200   -8.0087   21.3546 C   0  0  0  0  0  0
  -21.9613   -8.9902   20.4617 C   0  0  0  0  0  0
  -22.6642  -10.1896   20.3080 C   0  0  0  0  0  0
  -21.6841   -6.0634   22.5313 C   0  0  0  0  0  0
  -21.4012   -6.5597   23.8224 C   0  0  0  0  0  0
  -21.3662   -5.6765   24.9190 C   0  0  0  0  0  0
  -21.6044   -4.3027   24.7257 C   0  0  0  0  0  0
  -21.8817   -3.8085   23.4387 C   0  0  0  0  0  0
  -21.9204   -4.6886   22.3438 C   0  0  0  0  0  0
  -22.5546  -13.4818   21.2718 C   0  0  0  0  0  0
  -22.1672   -4.2079   21.1011 F   0  0  0  0  0  0
  -21.5620   -3.4528   25.7774 F   0  0  0  0  0  0
  -30.8831  -13.8032   20.6942 N   0  0  0  0  0  0
  -25.8179  -13.0647   20.0643 N   0  0  0  0  0  0
  -25.6819  -11.7548   20.4065 N   0  0  0  0  0  0
  -21.8870  -12.7558   22.1501 N   0  0  0  0  0  0
  -24.8917  -15.2641   20.2341 N   0  0  0  0  0  0
  -32.5056  -14.8928   19.7992 O   0  0  0  0  0  0
  -21.6643   -6.8668   21.4232 O   0  0  0  0  0  0
  -22.1035  -14.5114   20.7736 O   0  0  0  0  0  0
  -24.6488  -31.8402   23.1824 C   0  0  0  0  0  0
  -25.9232  -32.4677   23.8257 C   0  0  1  0  0  0
  -27.1964  -27.0434   20.2315 C   0  0  0  0  0  0
  -25.5958  -33.8489   24.2176 N   0  0  0  0  0  0
  -23.4585  -30.4552   21.5276 C   0  0  2  0  0  0
  -24.9105  -28.8685   20.1096 C   0  0  0  0  0  0
  -22.7610  -29.4534   22.4836 C   0  0  0  0  0  0
  -18.0324  -28.1408   22.8473 C   0  0  0  0  0  0
  -24.1503  -36.7239   23.2643 C   0  0  0  0  0  0
  -26.0181  -30.6909   21.3931 C   0  0  0  0  0  0
  -26.0874  -29.2922   20.7411 C   0  0  0  0  0  0
  -27.2332  -28.4003   20.7731 C   0  0  0  0  0  0
  -26.0053  -26.7459   19.5317 C   0  0  0  0  0  0
  -24.8912  -27.6153   19.4775 C   0  0  0  0  0  0
  -23.6906  -29.7811   20.1477 C   0  0  0  0  0  0
  -25.4137  -36.3023   24.0316 C   0  0  1  0  0  0
  -20.5939  -28.3745   23.1220 C   0  0  2  0  0  0
  -20.6807  -26.9442   22.5409 C   0  0  0  0  0  0
  -19.5777  -26.6386   21.5222 C   0  0  0  0  0  0
  -18.1958  -26.7946   22.1625 C   0  0  0  0  0  0
  -19.1578  -28.8898   23.2836 C   0  0  0  0  0  0
  -18.9482  -30.1491   23.8867 C   0  0  0  0  0  0
  -17.6471  -30.6596   24.0557 C   0  0  0  0  0  0
  -25.9088  -34.9399   23.5060 C   0  0  0  0  0  0
  -16.5369  -29.9083   23.6331 C   0  0  0  0  0  0
  -16.7305  -28.6504   23.0357 C   0  0  0  0  0  0
  -26.4525  -31.6562   25.0724 C   0  0  0  0  0  0
  -25.3688  -31.3746   26.1400 C   0  0  0  0  0  0
  -27.0383  -30.2947   24.6345 C   0  0  0  0  0  0
  -27.6063  -32.4343   25.7485 C   0  0  0  0  0  0
  -27.5588  -37.1772   24.8468 C   0  0  0  0  0  0
  -21.4297  -29.3047   22.3569 N   0  0  0  0  0  0
  -26.4301  -37.3736   23.9407 N   0  0  0  0  0  0
  -24.7287  -31.0193   22.0886 N   0  0  0  0  0  0
  -23.4219  -28.8098   23.3030 O   0  0  0  0  0  0
  -28.1988  -25.9931   20.3826 O   0  0  0  0  0  0
  -26.5686  -34.8902   22.4650 O   0  0  0  0  0  0
  -23.5589  -32.1320   23.6985 O   0  0  0  0  0  0
  -28.6008  -15.3878   19.2085 C   0  0  0  0  0  0
  -27.6145  -13.3845   21.8096 C   0  0  0  0  0  0
  -27.8703  -15.9759   20.4130 C   0  0  0  0  0  0
  -27.3033  -15.0073   21.6077 C   0  0  0  0  0  0
  -28.5929  -12.5830   20.6544 C   0  0  0  0  0  0
  -29.1355  -13.9558   19.1034 C   0  0  0  0  0  0
  -28.3637  -17.5451   20.3867 C   0  0  0  0  0  0
  -29.0796  -18.2548   21.3354 C   0  0  0  0  0  0
  -29.2513  -17.9660   19.1613 C   0  0  0  0  0  0
  -30.4198  -17.3758   21.6244 C   0  0  0  0  0  0
  -28.5026  -22.3698   22.1417 C   0  0  0  0  0  0
  -28.4426  -21.3382   21.0306 C   0  0  1  0  0  0
  -28.7561  -23.0333   20.8176 C   0  0  1  0  0  0
  -30.7606  -17.3997   19.3171 C   0  0  2  0  0  0
  -26.6599  -15.7076   22.7884 C   0  0  0  0  0  0
  -28.7445  -11.0854   21.0592 C   0  0  0  0  0  0
  -31.4267  -17.0865   17.9640 C   0  0  0  0  0  0
  -29.3767  -19.9358   21.3433 C   0  0  0  0  0  0
  -27.8442  -24.4388   20.4458 C   0  0  0  0  0  0
  -30.9081  -16.4121   20.4738 N   0  0  0  0  0  0
  -29.9738  -14.0314   17.5139 Cl  0  0  0  0  0  0
  -31.3851  -11.5838   20.2264 H   0  0  0  0  0  0
  -31.7416  -12.5793   18.9473 H   0  0  0  0  0  0
  -29.5021  -10.5548   18.7436 H   0  0  0  0  0  0
  -29.9146  -11.5193   17.5132 H   0  0  0  0  0  0
  -27.0916  -11.2787   18.4514 H   0  0  0  0  0  0
  -27.5509  -12.4970   17.3742 H   0  0  0  0  0  0
  -26.6265  -14.2961   18.7644 H   0  0  0  0  0  0
  -29.8090  -13.8499   22.1662 H   0  0  0  0  0  0
  -29.5661  -15.2230   21.9924 H   0  0  0  0  0  0
  -25.2396   -9.6056   22.4776 H   0  0  0  0  0  0
  -24.0082   -7.4610   22.7378 H   0  0  0  0  0  0
  -21.0601   -8.8200   19.8903 H   0  0  0  0  0  0
  -22.2926  -10.9375   19.6223 H   0  0  0  0  0  0
  -21.1989   -7.6109   23.9703 H   0  0  0  0  0  0
  -21.1503   -6.0510   25.9093 H   0  0  0  0  0  0
  -22.0598   -2.7556   23.2889 H   0  0  0  0  0  0
  -22.2948  -11.9264   22.5559 H   0  0  0  0  0  0
  -20.9554  -13.0305   22.4294 H   0  0  0  0  0  0
  -24.1335  -15.8861   20.4865 H   0  0  0  0  0  0
  -25.7320  -15.7440   19.9402 H   0  0  0  0  0  0
  -26.7308  -32.5266   23.0991 H   0  0  0  0  0  0
  -25.0059  -33.9613   25.0291 H   0  0  0  0  0  0
  -22.7623  -31.2815   21.3674 H   0  0  0  0  0  0
  -23.3786  -35.9549   23.3287 H   0  0  0  0  0  0
  -24.3582  -36.8892   22.2059 H   0  0  0  0  0  0
  -23.7236  -37.6418   23.6696 H   0  0  0  0  0  0
  -26.1874  -31.4407   20.6189 H   0  0  0  0  0  0
  -26.8831  -30.7415   22.0428 H   0  0  0  0  0  0
  -28.1260  -28.7156   21.2951 H   0  0  0  0  0  0
  -25.8953  -25.7834   19.0544 H   0  0  0  0  0  0
  -23.9978  -27.2868   18.9637 H   0  0  0  0  0  0
  -23.8306  -30.5540   19.3910 H   0  0  0  0  0  0
  -22.8033  -29.2272   19.8370 H   0  0  0  0  0  0
  -25.1327  -36.1845   25.0806 H   0  0  0  0  0  0
  -21.0038  -28.3349   24.1338 H   0  0  0  0  0  0
  -20.5704  -26.2367   23.3638 H   0  0  0  0  0  0
  -21.6671  -26.7443   22.1199 H   0  0  0  0  0  0
  -19.6935  -25.6284   21.1280 H   0  0  0  0  0  0
  -19.6712  -27.3172   20.6726 H   0  0  0  0  0  0
  -17.4232  -26.6702   21.4023 H   0  0  0  0  0  0
  -18.0342  -26.0099   22.9026 H   0  0  0  0  0  0
  -19.7953  -30.7327   24.2220 H   0  0  0  0  0  0
  -17.5017  -31.6265   24.5176 H   0  0  0  0  0  0
  -15.5367  -30.2966   23.7677 H   0  0  0  0  0  0
  -15.8710  -28.0808   22.7090 H   0  0  0  0  0  0
  -24.5898  -30.7071   25.7696 H   0  0  0  0  0  0
  -24.8836  -32.2912   26.4763 H   0  0  0  0  0  0
  -25.7956  -30.8949   27.0218 H   0  0  0  0  0  0
  -26.2992  -29.6665   24.1359 H   0  0  0  0  0  0
  -27.3964  -29.7265   25.4937 H   0  0  0  0  0  0
  -27.8926  -30.4156   23.9686 H   0  0  0  0  0  0
  -27.2684  -33.3697   26.1954 H   0  0  0  0  0  0
  -28.3899  -32.6822   25.0314 H   0  0  0  0  0  0
  -28.0700  -31.8539   26.5468 H   0  0  0  0  0  0
  -28.2593  -38.0081   24.7525 H   0  0  0  0  0  0
  -28.1102  -36.2611   24.6289 H   0  0  0  0  0  0
  -27.2307  -37.1403   25.8871 H   0  0  0  0  0  0
  -20.9542  -29.8709   21.6681 H   0  0  0  0  0  0
  -26.0171  -38.2809   24.1396 H   0  0  0  0  0  0
  -28.7902  -15.9090   18.2986 H   0  0  0  0  0  0
  -27.2410  -12.8634   22.6802 H   0  0  0  0  0  0
  -29.3267  -19.0477   19.0685 H   0  0  0  0  0  0
  -28.7772  -17.8076   18.1957 H   0  0  0  0  0  0
  -30.3642  -16.9136   22.6074 H   0  0  0  0  0  0
  -31.2338  -18.0820   21.7888 H   0  0  0  0  0  0
  -29.3594  -22.3394   22.8133 H   0  0  0  0  0  0
  -27.5655  -22.5907   22.6504 H   0  0  0  0  0  0
  -27.4492  -21.0614   20.6840 H   0  0  0  0  0  0
  -29.7990  -23.1880   20.5410 H   0  0  0  0  0  0
  -31.3692  -18.2521   19.6231 H   0  0  0  0  0  0
  -26.0496  -15.0120   23.3629 H   0  0  0  0  0  0
  -26.0188  -16.5250   22.4580 H   0  0  0  0  0  0
  -27.4236  -16.1250   23.4455 H   0  0  0  0  0  0
  -28.4359  -10.9650   22.0978 H   0  0  0  0  0  0
  -29.7329  -10.6460   21.0211 H   0  0  0  0  0  0
  -28.0639  -10.4580   20.4857 H   0  0  0  0  0  0
  -32.4483  -16.7286   18.0768 H   0  0  0  0  0  0
  -31.4907  -17.9954   17.3657 H   0  0  0  0  0  0
  -30.8786  -16.3770   17.3612 H   0  0  0  0  0  0
  -30.2769  -20.0718   20.7438 H   0  0  0  0  0  0
  -29.7493  -20.0839   22.3548 H   0  0  0  0  0  0
  -26.9718  -24.3854   21.0969 H   0  0  0  0  0  0
  -27.4496  -24.2234   19.4541 H   0  0  0  0  0  0
  1 25  1  0  0  0
  1 30  2  0  0  0
  1 90  1  0  0  0
  2  3  1  0  0  0
  2 25  1  0  0  0
  2 92  1  0  0  0
  2 93  1  0  0  0
  3  4  1  0  0  0
  3 94  1  0  0  0
  3 95  1  0  0  0
  4  5  1  0  0  0
  4 96  1  0  0  0
  4 97  1  0  0  0
  5  6  1  0  0  0
  5 26  1  0  0  0
  5 98  1  0  0  0
  6 25  1  0  0  0
  6 99  1  0  0  0
  6100  1  0  0  0
  7  8  2  0  0  0
  7 26  1  0  0  0
  7 29  1  0  0  0
  8  9  1  0  0  0
  8 22  1  0  0  0
  9 10  1  0  0  0
  9 27  2  0  0  0
 10 11  2  0  0  0
 10 15  1  0  0  0
 11 12  1  0  0  0
 11101  1  0  0  0
 12 13  2  0  0  0
 12102  1  0  0  0
 13 14  1  0  0  0
 13 31  1  0  0  0
 14 15  2  0  0  0
 14103  1  0  0  0
 15104  1  0  0  0
 16 17  2  0  0  0
 16 21  1  0  0  0
 16 31  1  0  0  0
 17 18  1  0  0  0
 17105  1  0  0  0
 18 19  2  0  0  0
 18106  1  0  0  0
 19 20  1  0  0  0
 19 24  1  0  0  0
 20 21  2  0  0  0
 20107  1  0  0  0
 21 23  1  0  0  0
 22 28  1  0  0  0
 22 32  2  0  0  0
 26 27  1  0  0  0
 28108  1  0  0  0
 28109  1  0  0  0
 29110  1  0  0  0
 29111  1  0  0  0
 33 34  1  0  0  0
 33 66  1  0  0  0
 33 70  2  0  0  0
 34 36  1  0  0  0
 34 59  1  0  0  0
 34112  1  0  0  0
 35 44  2  0  0  0
 35 45  1  0  0  0
 35 68  1  0  0  0
 36 56  1  0  0  0
 36113  1  0  0  0
 37 39  1  0  0  0
 37 47  1  0  0  0
 37 66  1  0  0  0
 37114  1  0  0  0
 38 43  2  0  0  0
 38 46  1  0  0  0
 38 47  1  0  0  0
 39 64  1  0  0  0
 39 67  2  0  0  0
 40 52  1  0  0  0
 40 53  2  0  0  0
 40 58  1  0  0  0
 41115  1  0  0  0
 41116  1  0  0  0
 41117  1  0  0  0
 41 48  1  0  0  0
 42 43  1  0  0  0
 42 66  1  0  0  0
 42118  1  0  0  0
 42119  1  0  0  0
 43 44  1  0  0  0
 44120  1  0  0  0
 45 46  2  0  0  0
 45121  1  0  0  0
 46122  1  0  0  0
 47123  1  0  0  0
 47124  1  0  0  0
 48 56  1  0  0  0
 48 65  1  0  0  0
 48125  1  0  0  0
 49 50  1  0  0  0
 49 53  1  0  0  0
 49 64  1  0  0  0
 49126  1  0  0  0
 50 51  1  0  0  0
 50127  1  0  0  0
 50128  1  0  0  0
 51 52  1  0  0  0
 51129  1  0  0  0
 51130  1  0  0  0
 52131  1  0  0  0
 52132  1  0  0  0
 53 54  1  0  0  0
 54 55  2  0  0  0
 54133  1  0  0  0
 55 57  1  0  0  0
 55134  1  0  0  0
 56 69  2  0  0  0
 57 58  2  0  0  0
 57135  1  0  0  0
 58136  1  0  0  0
 59 60  1  0  0  0
 59 61  1  0  0  0
 59 62  1  0  0  0
 60137  1  0  0  0
 60138  1  0  0  0
 60139  1  0  0  0
 61140  1  0  0  0
 61141  1  0  0  0
 61142  1  0  0  0
 62143  1  0  0  0
 62144  1  0  0  0
 62145  1  0  0  0
 63 65  1  0  0  0
 63146  1  0  0  0
 63147  1  0  0  0
 63148  1  0  0  0
 64149  1  0  0  0
 65150  1  0  0  0
 68 89  1  0  0  0
 71 73  2  0  0  0
 71 76  1  0  0  0
 71151  1  0  0  0
 72 74  2  0  0  0
 72 75  1  0  0  0
 72152  1  0  0  0
 73 74  1  0  0  0
 73 77  1  0  0  0
 74 85  1  0  0  0
 75 76  2  0  0  0
 75 86  1  0  0  0
 76 91  1  0  0  0
 77 78  2  0  0  0
 77 79  1  0  0  0
 78 80  1  0  0  0
 78 88  1  0  0  0
 79 84  1  0  0  0
 79153  1  0  0  0
 79154  1  0  0  0
 80 90  1  0  0  0
 80155  1  0  0  0
 80156  1  0  0  0
 81 82  1  0  0  0
 81 83  1  0  0  0
 81157  1  0  0  0
 81158  1  0  0  0
 82 83  1  0  0  0
 82 88  1  0  0  0
 82159  1  0  0  0
 83 89  1  0  0  0
 83160  1  0  0  0
 84 87  1  0  0  0
 84 90  1  0  0  0
 84161  1  0  0  0
 85162  1  0  0  0
 85163  1  0  0  0
 85164  1  0  0  0
 86165  1  0  0  0
 86166  1  0  0  0
 86167  1  0  0  0
 87168  1  0  0  0
 87169  1  0  0  0
 87170  1  0  0  0
 88171  1  0  0  0
 88172  1  0  0  0
 89173  1  0  0  0
 89174  1  0  0  0
M  ISO  4   1 100  68 101  89 101  90 100
M  END
> <chiral flag>
0

> <version>
0

> <s_m_source_file>
/data/baiqing/PycharmProjects/Reinvent-master-3.2/result/LINK_invent/BTK/process_docking_weight1_custom_sum_contain_oxygen_bond_distance_aromatic_linkinvent_7_9_3/rearranged_h_0164.sdf

> <i_m_source_file_index>
77

> <r_mmod_Potential_Energy-OPLS-2005>
11239.2666015625

> <r_mmod_Stretch_Energy-OPLS-2005>
5958.14453125

> <r_mmod_Bend_Energy-OPLS-2005>
940.412170410156

> <r_mmod_Torsional_Energy-OPLS-2005>
604.883422851562

> <r_mmod_Improper_Torsional_Energy-OPLS-2005>
31.8488178253174

> <r_mmod_Van_der_Waal_Energy-OPLS-2005>
3103.056640625

> <r_mmod_Electrostatic_Energy-OPLS-2005>
-280.203979492188

> <r_mmod_Solvation_Energy-OPLS-2005>
-183.466903686523

> <b_mmod_Minimization_Converged-OPLS-2005>
0

> <r_mmod_RMS_Derivative-OPLS-2005>
5.8825626373291

$$$$
77
                    3D
 Structure written by MMmdl.
164173  0  0  1  0            999 V2000
  -30.7185  -14.4324   20.5426 C   0  0  0  0  0  0
  -30.4154  -12.2750   19.4170 C   0  0  0  0  0  0
  -29.4877  -12.4806   18.2024 C   0  0  0  0  0  0
  -28.0101  -12.3514   18.6232 C   0  0  0  0  0  0
  -27.6603  -13.2016   19.8747 C   0  0  2  0  0  0
  -28.7042  -12.9954   20.9951 C   0  0  0  0  0  0
  -25.2601  -13.8159   20.5700 C   0  0  0  0  0  0
  -24.1846  -13.0441   20.9192 C   0  0  0  0  0  0
  -24.6395  -11.6909   20.8753 C   0  0  0  0  0  0
  -23.9063  -10.4297   21.0415 C   0  0  0  0  0  0
  -24.3614   -9.4211   21.9189 C   0  0  0  0  0  0
  -23.6292   -8.2246   22.0752 C   0  0  0  0  0  0
  -22.4273   -8.0289   21.3550 C   0  0  0  0  0  0
  -21.9914   -9.0267   20.4655 C   0  0  0  0  0  0
  -22.7240  -10.2146   20.3067 C   0  0  0  0  0  0
  -21.6865   -6.0743   22.5281 C   0  0  0  0  0  0
  -21.4018   -6.5641   23.8214 C   0  0  0  0  0  0
  -21.3652   -5.6793   24.9173 C   0  0  0  0  0  0
  -21.6040   -4.3058   24.7226 C   0  0  0  0  0  0
  -21.8821   -3.8154   23.4346 C   0  0  0  0  0  0
  -21.9196   -4.6970   22.3401 C   0  0  0  0  0  0
  -22.7877  -13.5257   21.1846 C   0  0  0  0  0  0
  -22.1666   -4.2153   21.0982 F   0  0  0  0  0  0
  -21.5617   -3.4538   25.7734 F   0  0  0  0  0  0
  -30.0325  -13.2676   20.4277 N   0  0  0  0  0  0
  -26.3027  -12.9316   20.3399 N   0  0  0  0  0  0
  -25.9322  -11.6482   20.5801 N   0  0  0  0  0  0
  -22.0513  -12.8254   22.0397 N   0  0  0  0  0  0
  -25.4349  -15.1871   20.4093 N   0  0  0  0  0  0
  -31.8854  -14.5703   20.1592 O   0  0  0  0  0  0
  -21.6645   -6.8886   21.4243 O   0  0  0  0  0  0
  -22.3563  -14.5563   20.6690 O   0  0  0  0  0  0
  -24.6113  -31.8708   23.2152 C   0  0  0  0  0  0
  -25.9030  -32.4836   23.8417 C   0  0  1  0  0  0
  -27.2207  -27.4503   20.0727 C   0  0  0  0  0  0
  -25.5907  -33.8634   24.2353 N   0  0  0  0  0  0
  -23.3966  -30.4988   21.5555 C   0  0  2  0  0  0
  -24.8365  -28.9731   20.1111 C   0  0  0  0  0  0
  -22.7394  -29.4665   22.4993 C   0  0  0  0  0  0
  -18.0274  -28.1364   22.8495 C   0  0  0  0  0  0
  -24.1485  -36.7327   23.2637 C   0  0  0  0  0  0
  -25.9257  -30.8350   21.3720 C   0  0  0  0  0  0
  -25.9956  -29.4722   20.7169 C   0  0  0  0  0  0
  -27.1839  -28.7105   20.7096 C   0  0  0  0  0  0
  -26.0433  -26.9711   19.4542 C   0  0  0  0  0  0
  -24.8539  -27.7186   19.4825 C   0  0  0  0  0  0
  -23.6016  -29.8409   20.1657 C   0  0  0  0  0  0
  -25.4109  -36.3125   24.0339 C   0  0  1  0  0  0
  -20.5864  -28.3644   23.1328 C   0  0  2  0  0  0
  -20.6773  -26.9391   22.5413 C   0  0  0  0  0  0
  -19.5747  -26.6380   21.5214 C   0  0  0  0  0  0
  -18.1926  -26.7916   22.1627 C   0  0  0  0  0  0
  -19.1524  -28.8822   23.2906 C   0  0  0  0  0  0
  -18.9449  -30.1434   23.8910 C   0  0  0  0  0  0
  -17.6455  -30.6574   24.0565 C   0  0  0  0  0  0
  -25.9026  -34.9486   23.5138 C   0  0  0  0  0  0
  -16.5345  -29.9079   23.6319 C   0  0  0  0  0  0
  -16.7267  -28.6490   23.0344 C   0  0  0  0  0  0
  -26.4477  -31.6610   25.0735 C   0  0  0  0  0  0
  -25.3750  -31.3722   26.1490 C   0  0  0  0  0  0
  -27.0317  -30.3052   24.6116 C   0  0  0  0  0  0
  -27.6053  -32.4334   25.7484 C   0  0  0  0  0  0
  -27.5585  -37.1820   24.8466 C   0  0  0  0  0  0
  -21.4124  -29.3015   22.3732 N   0  0  0  0  0  0
  -26.4304  -37.3802   23.9402 N   0  0  0  0  0  0
  -24.6625  -31.0832   22.1057 N   0  0  0  0  0  0
  -23.4186  -28.8199   23.3011 O   0  0  0  0  0  0
  -28.4055  -26.7465   20.0991 O   0  0  0  0  0  0
  -26.5577  -34.8931   22.4693 O   0  0  0  0  0  0
  -23.5307  -32.1465   23.7567 O   0  0  0  0  0  0
  -28.4817  -22.0050   20.3515 C   0  0  0  0  0  0
  -30.2752  -21.5319   18.3388 C   0  0  0  0  0  0
  -28.6907  -23.0315   19.4036 C   0  0  0  0  0  0
  -29.5812  -22.7563   18.3315 C   0  0  0  0  0  0
  -29.1684  -20.7856   20.2332 C   0  0  0  0  0  0
  -28.9337  -17.6254   19.7957 C   0  0  0  0  0  0
  -29.3621  -17.5383   22.2119 C   0  0  0  0  0  0
  -29.7989  -16.3828   19.5713 C   0  0  0  0  0  0
  -30.1679  -16.2284   22.0494 C   0  0  0  0  0  0
  -29.5103  -18.4244   20.9692 C   0  0  0  0  0  0
  -29.7998  -23.6899   17.1513 C   0  0  0  0  0  0
  -27.8940  -24.3293   19.5621 C   0  0  0  0  0  0
  -28.6222  -25.6517   19.2041 C   0  0  0  0  0  0
  -30.0829  -20.5767   19.2667 N   0  0  0  0  0  0
  -29.9567  -15.5259   20.7665 N   0  0  0  0  0  0
  -28.8877  -19.7382   21.1229 N   0  0  0  0  0  0
  -31.4595  -12.3636   19.1123 H   0  0  0  0  0  0
  -30.3076  -11.2672   19.8209 H   0  0  0  0  0  0
  -29.7178  -11.7497   17.4260 H   0  0  0  0  0  0
  -29.6639  -13.4624   17.7613 H   0  0  0  0  0  0
  -27.8216  -11.2971   18.8301 H   0  0  0  0  0  0
  -27.3567  -12.6180   17.7928 H   0  0  0  0  0  0
  -27.6982  -14.2469   19.5706 H   0  0  0  0  0  0
  -28.6688  -11.9719   21.3702 H   0  0  0  0  0  0
  -28.4886  -13.6374   21.8514 H   0  0  0  0  0  0
  -25.2760   -9.5685   22.4769 H   0  0  0  0  0  0
  -23.9999   -7.4640   22.7477 H   0  0  0  0  0  0
  -21.0841   -8.8806   19.8968 H   0  0  0  0  0  0
  -22.3709  -10.9692   19.6181 H   0  0  0  0  0  0
  -21.2020   -7.6153   23.9718 H   0  0  0  0  0  0
  -21.1462   -6.0524   25.9074 H   0  0  0  0  0  0
  -22.0606   -2.7619   23.2851 H   0  0  0  0  0  0
  -22.4116  -11.9891   22.4752 H   0  0  0  0  0  0
  -21.1135  -13.1294   22.2609 H   0  0  0  0  0  0
  -24.6762  -15.8499   20.5268 H   0  0  0  0  0  0
  -26.3023  -15.6226   20.1224 H   0  0  0  0  0  0
  -26.7095  -32.5537   23.1170 H   0  0  0  0  0  0
  -25.0102  -33.9801   25.0533 H   0  0  0  0  0  0
  -22.6827  -31.3148   21.4251 H   0  0  0  0  0  0
  -23.3738  -35.9665   23.3318 H   0  0  0  0  0  0
  -24.3578  -36.8916   22.2044 H   0  0  0  0  0  0
  -23.7239  -37.6545   23.6631 H   0  0  0  0  0  0
  -26.0442  -31.6017   20.6046 H   0  0  0  0  0  0
  -26.8129  -30.8804   21.9924 H   0  0  0  0  0  0
  -28.0778  -29.0916   21.1847 H   0  0  0  0  0  0
  -26.0027  -26.0295   18.9376 H   0  0  0  0  0  0
  -23.9641  -27.3328   19.0031 H   0  0  0  0  0  0
  -23.7101  -30.6217   19.4118 H   0  0  0  0  0  0
  -22.7238  -29.2645   19.8678 H   0  0  0  0  0  0
  -25.1279  -36.2009   25.0832 H   0  0  0  0  0  0
  -20.9962  -28.3213   24.1448 H   0  0  0  0  0  0
  -20.5702  -26.2248   23.3589 H   0  0  0  0  0  0
  -21.6638  -26.7456   22.1189 H   0  0  0  0  0  0
  -19.6911  -25.6299   21.1213 H   0  0  0  0  0  0
  -19.6691  -27.3213   20.6763 H   0  0  0  0  0  0
  -17.4205  -26.6674   21.4020 H   0  0  0  0  0  0
  -18.0325  -26.0045   22.9008 H   0  0  0  0  0  0
  -19.7925  -30.7243   24.2284 H   0  0  0  0  0  0
  -17.5008  -31.6253   24.5164 H   0  0  0  0  0  0
  -15.5343  -30.2985   23.7625 H   0  0  0  0  0  0
  -15.8670  -28.0812   22.7054 H   0  0  0  0  0  0
  -24.5918  -30.7069   25.7843 H   0  0  0  0  0  0
  -24.8949  -32.2879   26.4942 H   0  0  0  0  0  0
  -25.8109  -30.8896   27.0245 H   0  0  0  0  0  0
  -26.2867  -29.6794   24.1184 H   0  0  0  0  0  0
  -27.4106  -29.7307   25.4580 H   0  0  0  0  0  0
  -27.8693  -30.4378   23.9263 H   0  0  0  0  0  0
  -27.2682  -33.3633   26.2079 H   0  0  0  0  0  0
  -28.3852  -32.6894   25.0300 H   0  0  0  0  0  0
  -28.0736  -31.8446   26.5383 H   0  0  0  0  0  0
  -28.2616  -38.0106   24.7503 H   0  0  0  0  0  0
  -28.1067  -36.2632   24.6311 H   0  0  0  0  0  0
  -27.2293  -37.1499   25.8869 H   0  0  0  0  0  0
  -20.9276  -29.8749   21.6973 H   0  0  0  0  0  0
  -26.0198  -38.2882   24.1402 H   0  0  0  0  0  0
  -27.7676  -22.1478   21.1521 H   0  0  0  0  0  0
  -30.9840  -21.2924   17.5592 H   0  0  0  0  0  0
  -27.8973  -17.3417   19.9859 H   0  0  0  0  0  0
  -28.9239  -18.2148   18.8791 H   0  0  0  0  0  0
  -29.7083  -18.0659   23.1018 H   0  0  0  0  0  0
  -28.3098  -17.3046   22.3862 H   0  0  0  0  0  0
  -30.7818  -16.7123   19.2268 H   0  0  0  0  0  0
  -29.3755  -15.7993   18.7524 H   0  0  0  0  0  0
  -29.9222  -15.5533   22.8717 H   0  0  0  0  0  0
  -31.2299  -16.4609   22.1511 H   0  0  0  0  0  0
  -30.5771  -18.5895   20.8035 H   0  0  0  0  0  0
  -30.2070  -23.1418   16.3003 H   0  0  0  0  0  0
  -30.5112  -24.4799   17.3933 H   0  0  0  0  0  0
  -28.8627  -24.1368   16.8187 H   0  0  0  0  0  0
  -27.5495  -24.3959   20.5943 H   0  0  0  0  0  0
  -26.9986  -24.2024   18.9541 H   0  0  0  0  0  0
  -29.6968  -25.4854   19.2656 H   0  0  0  0  0  0
  -28.4160  -25.9537   18.1761 H   0  0  0  0  0  0
  -28.1976  -19.8730   21.8528 H   0  0  0  0  0  0
  1 25  1  0  0  0
  1 30  2  0  0  0
  1 85  1  0  0  0
  2  3  1  0  0  0
  2 25  1  0  0  0
  2 87  1  0  0  0
  2 88  1  0  0  0
  3  4  1  0  0  0
  3 89  1  0  0  0
  3 90  1  0  0  0
  4  5  1  0  0  0
  4 91  1  0  0  0
  4 92  1  0  0  0
  5  6  1  0  0  0
  5 26  1  0  0  0
  5 93  1  0  0  0
  6 25  1  0  0  0
  6 94  1  0  0  0
  6 95  1  0  0  0
  7  8  2  0  0  0
  7 26  1  0  0  0
  7 29  1  0  0  0
  8  9  1  0  0  0
  8 22  1  0  0  0
  9 10  1  0  0  0
  9 27  2  0  0  0
 10 11  2  0  0  0
 10 15  1  0  0  0
 11 12  1  0  0  0
 11 96  1  0  0  0
 12 13  2  0  0  0
 12 97  1  0  0  0
 13 14  1  0  0  0
 13 31  1  0  0  0
 14 15  2  0  0  0
 14 98  1  0  0  0
 15 99  1  0  0  0
 16 17  2  0  0  0
 16 21  1  0  0  0
 16 31  1  0  0  0
 17 18  1  0  0  0
 17100  1  0  0  0
 18 19  2  0  0  0
 18101  1  0  0  0
 19 20  1  0  0  0
 19 24  1  0  0  0
 20 21  2  0  0  0
 20102  1  0  0  0
 21 23  1  0  0  0
 22 28  1  0  0  0
 22 32  2  0  0  0
 26 27  1  0  0  0
 28103  1  0  0  0
 28104  1  0  0  0
 29105  1  0  0  0
 29106  1  0  0  0
 33 34  1  0  0  0
 33 66  1  0  0  0
 33 70  2  0  0  0
 34 36  1  0  0  0
 34 59  1  0  0  0
 34107  1  0  0  0
 35 44  2  0  0  0
 35 45  1  0  0  0
 35 68  1  0  0  0
 36 56  1  0  0  0
 36108  1  0  0  0
 37 39  1  0  0  0
 37 47  1  0  0  0
 37 66  1  0  0  0
 37109  1  0  0  0
 38 43  2  0  0  0
 38 46  1  0  0  0
 38 47  1  0  0  0
 39 64  1  0  0  0
 39 67  2  0  0  0
 40 52  1  0  0  0
 40 53  2  0  0  0
 40 58  1  0  0  0
 41110  1  0  0  0
 41111  1  0  0  0
 41112  1  0  0  0
 41 48  1  0  0  0
 42 43  1  0  0  0
 42 66  1  0  0  0
 42113  1  0  0  0
 42114  1  0  0  0
 43 44  1  0  0  0
 44115  1  0  0  0
 45 46  2  0  0  0
 45116  1  0  0  0
 46117  1  0  0  0
 47118  1  0  0  0
 47119  1  0  0  0
 48 56  1  0  0  0
 48 65  1  0  0  0
 48120  1  0  0  0
 49 50  1  0  0  0
 49 53  1  0  0  0
 49 64  1  0  0  0
 49121  1  0  0  0
 50 51  1  0  0  0
 50122  1  0  0  0
 50123  1  0  0  0
 51 52  1  0  0  0
 51124  1  0  0  0
 51125  1  0  0  0
 52126  1  0  0  0
 52127  1  0  0  0
 53 54  1  0  0  0
 54 55  2  0  0  0
 54128  1  0  0  0
 55 57  1  0  0  0
 55129  1  0  0  0
 56 69  2  0  0  0
 57 58  2  0  0  0
 57130  1  0  0  0
 58131  1  0  0  0
 59 60  1  0  0  0
 59 61  1  0  0  0
 59 62  1  0  0  0
 60132  1  0  0  0
 60133  1  0  0  0
 60134  1  0  0  0
 61135  1  0  0  0
 61136  1  0  0  0
 61137  1  0  0  0
 62138  1  0  0  0
 62139  1  0  0  0
 62140  1  0  0  0
 63 65  1  0  0  0
 63141  1  0  0  0
 63142  1  0  0  0
 63143  1  0  0  0
 64144  1  0  0  0
 65145  1  0  0  0
 68 83  1  0  0  0
 71 73  2  0  0  0
 71 75  1  0  0  0
 71146  1  0  0  0
 72 74  2  0  0  0
 72 84  1  0  0  0
 72147  1  0  0  0
 73 74  1  0  0  0
 73 82  1  0  0  0
 74 81  1  0  0  0
 75 84  2  0  0  0
 75 86  1  0  0  0
 76 78  1  0  0  0
 76 80  1  0  0  0
 76148  1  0  0  0
 76149  1  0  0  0
 77 79  1  0  0  0
 77 80  1  0  0  0
 77150  1  0  0  0
 77151  1  0  0  0
 78 85  1  0  0  0
 78152  1  0  0  0
 78153  1  0  0  0
 79 85  1  0  0  0
 79154  1  0  0  0
 79155  1  0  0  0
 80 86  1  0  0  0
 80156  1  0  0  0
 81157  1  0  0  0
 81158  1  0  0  0
 81159  1  0  0  0
 82 83  1  0  0  0
 82160  1  0  0  0
 82161  1  0  0  0
 83162  1  0  0  0
 83163  1  0  0  0
 86164  1  0  0  0
M  ISO  4   1 100  68 101  83 101  85 100
M  END
> <chiral flag>
0

> <version>
0

> <s_m_source_file>
/data/baiqing/PycharmProjects/Reinvent-master-3.2/result/LINK_invent/BTK/process_docking_weight1_custom_sum_contain_oxygen_bond_distance_aromatic_linkinvent_7_9_3/rearranged_h_0164.sdf

> <i_m_source_file_index>
78

> <r_mmod_Potential_Energy-OPLS-2005>
-9.49211597442627

> <r_mmod_Stretch_Energy-OPLS-2005>
35.300350189209

> <r_mmod_Bend_Energy-OPLS-2005>
129.060684204102

> <r_mmod_Torsional_Energy-OPLS-2005>
319.112731933594

> <r_mmod_Improper_Torsional_Energy-OPLS-2005>
12.5687704086304

> <r_mmod_Van_der_Waal_Energy-OPLS-2005>
172.124633789062

> <r_mmod_Electrostatic_Energy-OPLS-2005>
-471.115966796875

> <r_mmod_Solvation_Energy-OPLS-2005>
-221.552536010742

> <b_mmod_Minimization_Converged-OPLS-2005>
0

> <r_mmod_RMS_Derivative-OPLS-2005>
1.691441655159

$$$$
78
                    3D
 Structure written by MMmdl.
166175  0  0  1  0            999 V2000
  -30.5813  -14.9374   20.5105 C   0  0  0  0  0  0
  -30.4596  -12.5869   19.5427 C   0  0  0  0  0  0
  -29.5579  -12.5414   18.2866 C   0  0  0  0  0  0
  -28.0819  -12.3285   18.6774 C   0  0  0  0  0  0
  -27.6450  -13.2463   19.8470 C   0  0  2  0  0  0
  -28.6749  -13.2420   20.9915 C   0  0  0  0  0  0
  -25.2519  -13.8224   20.5740 C   0  0  0  0  0  0
  -24.1799  -13.0475   20.9264 C   0  0  0  0  0  0
  -24.6421  -11.6958   20.8801 C   0  0  0  0  0  0
  -23.9090  -10.4347   21.0411 C   0  0  0  0  0  0
  -24.3652   -9.4246   21.9169 C   0  0  0  0  0  0
  -23.6319   -8.2283   22.0750 C   0  0  0  0  0  0
  -22.4311   -8.0275   21.3540 C   0  0  0  0  0  0
  -21.9945   -9.0257   20.4645 C   0  0  0  0  0  0
  -22.7273  -10.2144   20.3056 C   0  0  0  0  0  0
  -21.6865   -6.0753   22.5278 C   0  0  0  0  0  0
  -21.4020   -6.5649   23.8209 C   0  0  0  0  0  0
  -21.3684   -5.6772   24.9165 C   0  0  0  0  0  0
  -21.6061   -4.3046   24.7191 C   0  0  0  0  0  0
  -21.8814   -3.8147   23.4314 C   0  0  0  0  0  0
  -21.9196   -4.6994   22.3388 C   0  0  0  0  0  0
  -22.7799  -13.5249   21.1835 C   0  0  0  0  0  0
  -22.1642   -4.2180   21.0956 F   0  0  0  0  0  0
  -21.5657   -3.4521   25.7704 F   0  0  0  0  0  0
  -29.9671  -13.6797   20.4383 N   0  0  0  0  0  0
  -26.2960  -12.9457   20.3243 N   0  0  0  0  0  0
  -25.9372  -11.6609   20.5763 N   0  0  0  0  0  0
  -22.0380  -12.8312   22.0408 N   0  0  0  0  0  0
  -25.4167  -15.1960   20.4251 N   0  0  0  0  0  0
  -31.7289  -15.0064   20.0540 O   0  0  0  0  0  0
  -21.6650   -6.8899   21.4232 O   0  0  0  0  0  0
  -22.3499  -14.5529   20.6598 O   0  0  0  0  0  0
  -24.6446  -31.8396   23.1793 C   0  0  0  0  0  0
  -25.9207  -32.4649   23.8233 C   0  0  1  0  0  0
  -27.2785  -27.1424   20.1995 C   0  0  0  0  0  0
  -25.5947  -33.8453   24.2146 N   0  0  0  0  0  0
  -23.4628  -30.4489   21.5126 C   0  0  2  0  0  0
  -24.9364  -28.8689   20.1206 C   0  0  0  0  0  0
  -22.7617  -29.4528   22.4735 C   0  0  0  0  0  0
  -18.0332  -28.1420   22.8470 C   0  0  0  0  0  0
  -24.1526  -36.7239   23.2633 C   0  0  0  0  0  0
  -26.0170  -30.7303   21.3805 C   0  0  0  0  0  0
  -26.1082  -29.3380   20.7264 C   0  0  0  0  0  0
  -27.2845  -28.4936   20.7368 C   0  0  0  0  0  0
  -26.0770  -26.7746   19.5542 C   0  0  0  0  0  0
  -24.9328  -27.6019   19.5201 C   0  0  0  0  0  0
  -23.7056  -29.7599   20.1410 C   0  0  0  0  0  0
  -25.4149  -36.2969   24.0287 C   0  0  1  0  0  0
  -20.5969  -28.3748   23.1190 C   0  0  2  0  0  0
  -20.6803  -26.9434   22.5386 C   0  0  0  0  0  0
  -19.5765  -26.6389   21.5209 C   0  0  0  0  0  0
  -18.1959  -26.7956   22.1623 C   0  0  0  0  0  0
  -19.1596  -28.8892   23.2843 C   0  0  0  0  0  0
  -18.9490  -30.1493   23.8859 C   0  0  0  0  0  0
  -17.6476  -30.6595   24.0560 C   0  0  0  0  0  0
  -25.9092  -34.9356   23.5007 C   0  0  0  0  0  0
  -16.5374  -29.9082   23.6343 C   0  0  0  0  0  0
  -16.7310  -28.6524   23.0328 C   0  0  0  0  0  0
  -26.4548  -31.6515   25.0674 C   0  0  0  0  0  0
  -25.3726  -31.3708   26.1356 C   0  0  0  0  0  0
  -27.0421  -30.2868   24.6339 C   0  0  0  0  0  0
  -27.6077  -32.4285   25.7474 C   0  0  0  0  0  0
  -27.5582  -37.1765   24.8446 C   0  0  0  0  0  0
  -21.4294  -29.3060   22.3512 N   0  0  0  0  0  0
  -26.4296  -37.3683   23.9387 N   0  0  0  0  0  0
  -24.7245  -31.0294   22.0787 N   0  0  0  0  0  0
  -23.4229  -28.8096   23.2924 O   0  0  0  0  0  0
  -28.3441  -26.1716   20.3075 O   0  0  0  0  0  0
  -26.5682  -34.8860   22.4596 O   0  0  0  0  0  0
  -23.5547  -32.1219   23.7017 O   0  0  0  0  0  0
  -29.2059  -18.7305   22.2906 C   0  0  0  0  0  0
  -29.4351  -18.9697   20.9222 C   0  0  0  0  0  0
  -29.8981  -19.5355   23.2333 C   0  0  0  0  0  0
  -29.7787  -20.3937   20.6023 C   0  0  0  0  0  0
  -30.8716  -20.4700   22.7424 C   0  0  0  0  0  0
  -30.8966  -20.7887   21.3526 C   0  0  0  0  0  0
  -28.6204  -17.3706   22.6708 C   0  0  0  0  0  0
  -30.0152  -17.5864   20.2401 C   0  0  0  0  0  0
  -29.6393  -16.2668   22.3341 C   0  0  0  0  0  0
  -29.7001  -19.2250   24.7253 C   0  0  0  0  0  0
  -31.8898  -21.1380   23.6520 C   0  0  0  0  0  0
  -31.9573  -21.6785   20.6995 C   0  0  0  0  0  0
  -28.7422  -21.6888   20.4666 C   0  0  0  0  0  0
  -29.1507  -23.3428   20.5377 C   0  0  0  0  0  0
  -28.0918  -24.6307   20.2629 C   0  0  0  0  0  0
  -29.8927  -16.1343   20.8841 N   0  0  0  0  0  0
  -31.5061  -12.7184   19.2550 H   0  0  0  0  0  0
  -30.4316  -11.6332   20.0705 H   0  0  0  0  0  0
  -29.8915  -11.7453   17.6200 H   0  0  0  0  0  0
  -29.6652  -13.4739   17.7258 H   0  0  0  0  0  0
  -27.9737  -11.2836   18.9746 H   0  0  0  0  0  0
  -27.4350  -12.4813   17.8141 H   0  0  0  0  0  0
  -27.6243  -14.2621   19.4482 H   0  0  0  0  0  0
  -28.7731  -12.2514   21.4351 H   0  0  0  0  0  0
  -28.3069  -13.8896   21.7816 H   0  0  0  0  0  0
  -25.2795   -9.5732   22.4744 H   0  0  0  0  0  0
  -24.0054   -7.4677   22.7468 H   0  0  0  0  0  0
  -21.0890   -8.8779   19.8953 H   0  0  0  0  0  0
  -22.3727  -10.9681   19.6159 H   0  0  0  0  0  0
  -21.1980   -7.6136   23.9740 H   0  0  0  0  0  0
  -21.1527   -6.0487   25.9078 H   0  0  0  0  0  0
  -22.0579   -2.7620   23.2787 H   0  0  0  0  0  0
  -22.3991  -12.0090   22.5006 H   0  0  0  0  0  0
  -21.0954  -13.1331   22.2454 H   0  0  0  0  0  0
  -24.6499  -15.8429   20.5738 H   0  0  0  0  0  0
  -26.2579  -15.6497   20.0953 H   0  0  0  0  0  0
  -26.7312  -32.5315   23.1019 H   0  0  0  0  0  0
  -25.0004  -33.9571   25.0218 H   0  0  0  0  0  0
  -22.7660  -31.2688   21.3281 H   0  0  0  0  0  0
  -23.3761  -35.9598   23.3253 H   0  0  0  0  0  0
  -24.3611  -36.8916   22.2054 H   0  0  0  0  0  0
  -23.7331  -37.6434   23.6720 H   0  0  0  0  0  0
  -26.1825  -31.4996   20.6244 H   0  0  0  0  0  0
  -26.8759  -30.7812   22.0380 H   0  0  0  0  0  0
  -28.1851  -28.8578   21.2158 H   0  0  0  0  0  0
  -25.9915  -25.7985   19.1055 H   0  0  0  0  0  0
  -24.0383  -27.2191   19.0538 H   0  0  0  0  0  0
  -23.8475  -30.5148   19.3663 H   0  0  0  0  0  0
  -22.8343  -29.1780   19.8329 H   0  0  0  0  0  0
  -25.1368  -36.1752   25.0775 H   0  0  0  0  0  0
  -21.0121  -28.3342   24.1290 H   0  0  0  0  0  0
  -20.5692  -26.2350   23.3616 H   0  0  0  0  0  0
  -21.6657  -26.7399   22.1172 H   0  0  0  0  0  0
  -19.6902  -25.6290   21.1248 H   0  0  0  0  0  0
  -19.6711  -27.3180   20.6728 H   0  0  0  0  0  0
  -17.4232  -26.6718   21.4027 H   0  0  0  0  0  0
  -18.0343  -26.0114   22.9029 H   0  0  0  0  0  0
  -19.7956  -30.7350   24.2187 H   0  0  0  0  0  0
  -17.5008  -31.6265   24.5182 H   0  0  0  0  0  0
  -15.5363  -30.2949   23.7688 H   0  0  0  0  0  0
  -15.8727  -28.0838   22.7004 H   0  0  0  0  0  0
  -24.5920  -30.7057   25.7628 H   0  0  0  0  0  0
  -24.8927  -32.2899   26.4722 H   0  0  0  0  0  0
  -25.8006  -30.8880   27.0153 H   0  0  0  0  0  0
  -26.3029  -29.6531   24.1413 H   0  0  0  0  0  0
  -27.4002  -29.7256   25.4988 H   0  0  0  0  0  0
  -27.8974  -30.3987   23.9671 H   0  0  0  0  0  0
  -27.2644  -33.3583   26.2032 H   0  0  0  0  0  0
  -28.3924  -32.6847   25.0332 H   0  0  0  0  0  0
  -28.0727  -31.8416   26.5412 H   0  0  0  0  0  0
  -28.2558  -38.0098   24.7500 H   0  0  0  0  0  0
  -28.1133  -36.2622   24.6285 H   0  0  0  0  0  0
  -27.2295  -37.1394   25.8845 H   0  0  0  0  0  0
  -20.9484  -29.8758   21.6689 H   0  0  0  0  0  0
  -26.0143  -38.2739   24.1383 H   0  0  0  0  0  0
  -27.6845  -17.1997   22.1329 H   0  0  0  0  0  0
  -28.3620  -17.3215   23.7271 H   0  0  0  0  0  0
  -31.0842  -17.7543   20.0894 H   0  0  0  0  0  0
  -29.6036  -17.5246   19.2333 H   0  0  0  0  0  0
  -29.3460  -15.3282   22.8043 H   0  0  0  0  0  0
  -30.5821  -16.5260   22.8192 H   0  0  0  0  0  0
  -28.6363  -19.2745   24.9622 H   0  0  0  0  0  0
  -30.2009  -19.8898   25.4177 H   0  0  0  0  0  0
  -30.0186  -18.2111   24.9652 H   0  0  0  0  0  0
  -32.8125  -20.5559   23.6882 H   0  0  0  0  0  0
  -31.5267  -21.2986   24.6632 H   0  0  0  0  0  0
  -32.1400  -22.1294   23.2761 H   0  0  0  0  0  0
  -31.7861  -21.7573   19.6253 H   0  0  0  0  0  0
  -32.9626  -21.2693   20.8153 H   0  0  0  0  0  0
  -31.9485  -22.6939   21.0924 H   0  0  0  0  0  0
  -27.9969  -21.5378   21.2549 H   0  0  0  0  0  0
  -28.1773  -21.5500   19.5451 H   0  0  0  0  0  0
  -29.9606  -23.5045   19.8229 H   0  0  0  0  0  0
  -29.6018  -23.5060   21.5217 H   0  0  0  0  0  0
  -27.2324  -24.4540   20.9117 H   0  0  0  0  0  0
  -27.7414  -24.4379   19.2522 H   0  0  0  0  0  0
  1 25  1  0  0  0
  1 30  2  0  0  0
  1 86  1  0  0  0
  2  3  1  0  0  0
  2 25  1  0  0  0
  2 87  1  0  0  0
  2 88  1  0  0  0
  3  4  1  0  0  0
  3 89  1  0  0  0
  3 90  1  0  0  0
  4  5  1  0  0  0
  4 91  1  0  0  0
  4 92  1  0  0  0
  5  6  1  0  0  0
  5 26  1  0  0  0
  5 93  1  0  0  0
  6 25  1  0  0  0
  6 94  1  0  0  0
  6 95  1  0  0  0
  7  8  2  0  0  0
  7 26  1  0  0  0
  7 29  1  0  0  0
  8  9  1  0  0  0
  8 22  1  0  0  0
  9 10  1  0  0  0
  9 27  2  0  0  0
 10 11  2  0  0  0
 10 15  1  0  0  0
 11 12  1  0  0  0
 11 96  1  0  0  0
 12 13  2  0  0  0
 12 97  1  0  0  0
 13 14  1  0  0  0
 13 31  1  0  0  0
 14 15  2  0  0  0
 14 98  1  0  0  0
 15 99  1  0  0  0
 16 17  2  0  0  0
 16 21  1  0  0  0
 16 31  1  0  0  0
 17 18  1  0  0  0
 17100  1  0  0  0
 18 19  2  0  0  0
 18101  1  0  0  0
 19 20  1  0  0  0
 19 24  1  0  0  0
 20 21  2  0  0  0
 20102  1  0  0  0
 21 23  1  0  0  0
 22 28  1  0  0  0
 22 32  2  0  0  0
 26 27  1  0  0  0
 28103  1  0  0  0
 28104  1  0  0  0
 29105  1  0  0  0
 29106  1  0  0  0
 33 34  1  0  0  0
 33 66  1  0  0  0
 33 70  2  0  0  0
 34 36  1  0  0  0
 34 59  1  0  0  0
 34107  1  0  0  0
 35 44  2  0  0  0
 35 45  1  0  0  0
 35 68  1  0  0  0
 36 56  1  0  0  0
 36108  1  0  0  0
 37 39  1  0  0  0
 37 47  1  0  0  0
 37 66  1  0  0  0
 37109  1  0  0  0
 38 43  2  0  0  0
 38 46  1  0  0  0
 38 47  1  0  0  0
 39 64  1  0  0  0
 39 67  2  0  0  0
 40 52  1  0  0  0
 40 53  2  0  0  0
 40 58  1  0  0  0
 41110  1  0  0  0
 41111  1  0  0  0
 41112  1  0  0  0
 41 48  1  0  0  0
 42 43  1  0  0  0
 42 66  1  0  0  0
 42113  1  0  0  0
 42114  1  0  0  0
 43 44  1  0  0  0
 44115  1  0  0  0
 45 46  2  0  0  0
 45116  1  0  0  0
 46117  1  0  0  0
 47118  1  0  0  0
 47119  1  0  0  0
 48 56  1  0  0  0
 48 65  1  0  0  0
 48120  1  0  0  0
 49 50  1  0  0  0
 49 53  1  0  0  0
 49 64  1  0  0  0
 49121  1  0  0  0
 50 51  1  0  0  0
 50122  1  0  0  0
 50123  1  0  0  0
 51 52  1  0  0  0
 51124  1  0  0  0
 51125  1  0  0  0
 52126  1  0  0  0
 52127  1  0  0  0
 53 54  1  0  0  0
 54 55  2  0  0  0
 54128  1  0  0  0
 55 57  1  0  0  0
 55129  1  0  0  0
 56 69  2  0  0  0
 57 58  2  0  0  0
 57130  1  0  0  0
 58131  1  0  0  0
 59 60  1  0  0  0
 59 61  1  0  0  0
 59 62  1  0  0  0
 60132  1  0  0  0
 60133  1  0  0  0
 60134  1  0  0  0
 61135  1  0  0  0
 61136  1  0  0  0
 61137  1  0  0  0
 62138  1  0  0  0
 62139  1  0  0  0
 62140  1  0  0  0
 63 65  1  0  0  0
 63141  1  0  0  0
 63142  1  0  0  0
 63143  1  0  0  0
 64144  1  0  0  0
 65145  1  0  0  0
 68 85  1  0  0  0
 71 72  1  0  0  0
 71 73  2  0  0  0
 71 77  1  0  0  0
 72 74  2  0  0  0
 72 78  1  0  0  0
 73 75  1  0  0  0
 73 80  1  0  0  0
 74 76  1  0  0  0
 74 83  1  0  0  0
 75 76  2  0  0  0
 75 81  1  0  0  0
 76 82  1  0  0  0
 77 79  1  0  0  0
 77146  1  0  0  0
 77147  1  0  0  0
 78 86  1  0  0  0
 78148  1  0  0  0
 78149  1  0  0  0
 79 86  1  0  0  0
 79150  1  0  0  0
 79151  1  0  0  0
 80152  1  0  0  0
 80153  1  0  0  0
 80154  1  0  0  0
 81155  1  0  0  0
 81156  1  0  0  0
 81157  1  0  0  0
 82158  1  0  0  0
 82159  1  0  0  0
 82160  1  0  0  0
 83 84  1  0  0  0
 83161  1  0  0  0
 83162  1  0  0  0
 84 85  1  0  0  0
 84163  1  0  0  0
 84164  1  0  0  0
 85165  1  0  0  0
 85166  1  0  0  0
M  ISO  4   1 100  68 101  85 101  86 100
M  END
> <chiral flag>
0

> <version>
0

> <s_m_source_file>
/data/baiqing/PycharmProjects/Reinvent-master-3.2/result/LINK_invent/BTK/process_docking_weight1_custom_sum_contain_oxygen_bond_distance_aromatic_linkinvent_7_9_3/rearranged_h_0164.sdf

> <i_m_source_file_index>
79

> <r_mmod_Potential_Energy-OPLS-2005>
916.201477050781

> <r_mmod_Stretch_Energy-OPLS-2005>
294.432342529297

> <r_mmod_Bend_Energy-OPLS-2005>
292.426971435547

> <r_mmod_Torsional_Energy-OPLS-2005>
522.443542480469

> <r_mmod_Improper_Torsional_Energy-OPLS-2005>
40.171573638916

> <r_mmod_Van_der_Waal_Energy-OPLS-2005>
150.91828918457

> <r_mmod_Electrostatic_Energy-OPLS-2005>
-372.742828369141

> <r_mmod_Solvation_Energy-OPLS-2005>
-198.545822143555

> <b_mmod_Minimization_Converged-OPLS-2005>
0

> <r_mmod_RMS_Derivative-OPLS-2005>
7.29365921020508

$$$$
79
                    3D
 Structure written by MMmdl.
179188  0  0  1  0            999 V2000
  -30.7555  -14.4416   20.5259 C   0  0  0  0  0  0
  -30.4011  -12.2768   19.4255 C   0  0  0  0  0  0
  -29.4840  -12.4745   18.2045 C   0  0  0  0  0  0
  -28.0077  -12.3333   18.6230 C   0  0  0  0  0  0
  -27.6468  -13.1886   19.8658 C   0  0  2  0  0  0
  -28.7006  -13.0457   20.9888 C   0  0  0  0  0  0
  -25.2572  -13.8093   20.5734 C   0  0  0  0  0  0
  -24.1796  -13.0393   20.9197 C   0  0  0  0  0  0
  -24.6336  -11.6866   20.8752 C   0  0  0  0  0  0
  -23.9014  -10.4270   21.0408 C   0  0  0  0  0  0
  -24.3589   -9.4206   21.9195 C   0  0  0  0  0  0
  -23.6284   -8.2238   22.0764 C   0  0  0  0  0  0
  -22.4277   -8.0265   21.3543 C   0  0  0  0  0  0
  -21.9885   -9.0233   20.4648 C   0  0  0  0  0  0
  -22.7195  -10.2118   20.3049 C   0  0  0  0  0  0
  -21.6863   -6.0717   22.5271 C   0  0  0  0  0  0
  -21.4018   -6.5635   23.8195 C   0  0  0  0  0  0
  -21.3653   -5.6803   24.9169 C   0  0  0  0  0  0
  -21.6045   -4.3066   24.7243 C   0  0  0  0  0  0
  -21.8816   -3.8141   23.4372 C   0  0  0  0  0  0
  -21.9202   -4.6944   22.3416 C   0  0  0  0  0  0
  -22.7834  -13.5207   21.1869 C   0  0  0  0  0  0
  -22.1673   -4.2122   21.1002 F   0  0  0  0  0  0
  -21.5631   -3.4554   25.7764 F   0  0  0  0  0  0
  -30.0295  -13.2999   20.4096 N   0  0  0  0  0  0
  -26.2949  -12.9203   20.3380 N   0  0  0  0  0  0
  -25.9244  -11.6393   20.5778 N   0  0  0  0  0  0
  -22.0489  -12.8163   22.0423 N   0  0  0  0  0  0
  -25.4354  -15.1810   20.4209 N   0  0  0  0  0  0
  -31.9242  -14.5396   20.1610 O   0  0  0  0  0  0
  -21.6655   -6.8854   21.4233 O   0  0  0  0  0  0
  -22.3515  -14.5527   20.6758 O   0  0  0  0  0  0
  -24.6102  -31.8706   23.2139 C   0  0  0  0  0  0
  -25.9010  -32.4843   23.8422 C   0  0  1  0  0  0
  -27.2330  -27.4743   20.0921 C   0  0  0  0  0  0
  -25.5885  -33.8642   24.2351 N   0  0  0  0  0  0
  -23.3964  -30.4949   21.5533 C   0  0  2  0  0  0
  -24.8432  -28.9679   20.1149 C   0  0  0  0  0  0
  -22.7388  -29.4670   22.5011 C   0  0  0  0  0  0
  -18.0262  -28.1376   22.8492 C   0  0  0  0  0  0
  -24.1488  -36.7326   23.2637 C   0  0  0  0  0  0
  -25.9213  -30.8494   21.3614 C   0  0  0  0  0  0
  -26.0003  -29.4874   20.7087 C   0  0  0  0  0  0
  -27.2010  -28.7477   20.6930 C   0  0  0  0  0  0
  -26.0635  -26.9631   19.4872 C   0  0  0  0  0  0
  -24.8673  -27.7029   19.5012 C   0  0  0  0  0  0
  -23.6023  -29.8287   20.1670 C   0  0  0  0  0  0
  -25.4107  -36.3128   24.0340 C   0  0  1  0  0  0
  -20.5852  -28.3654   23.1329 C   0  0  2  0  0  0
  -20.6757  -26.9395   22.5421 C   0  0  0  0  0  0
  -19.5747  -26.6385   21.5208 C   0  0  0  0  0  0
  -18.1918  -26.7926   22.1612 C   0  0  0  0  0  0
  -19.1511  -28.8828   23.2910 C   0  0  0  0  0  0
  -18.9443  -30.1433   23.8922 C   0  0  0  0  0  0
  -17.6448  -30.6583   24.0564 C   0  0  0  0  0  0
  -25.9026  -34.9488   23.5141 C   0  0  0  0  0  0
  -16.5337  -29.9087   23.6324 C   0  0  0  0  0  0
  -16.7252  -28.6504   23.0345 C   0  0  0  0  0  0
  -26.4455  -31.6610   25.0734 C   0  0  0  0  0  0
  -25.3731  -31.3701   26.1488 C   0  0  0  0  0  0
  -27.0279  -30.3062   24.6080 C   0  0  0  0  0  0
  -27.6060  -32.4310   25.7471 C   0  0  0  0  0  0
  -27.5588  -37.1811   24.8459 C   0  0  0  0  0  0
  -21.4121  -29.3028   22.3744 N   0  0  0  0  0  0
  -26.4298  -37.3804   23.9409 N   0  0  0  0  0  0
  -24.6605  -31.0847   22.1019 N   0  0  0  0  0  0
  -23.4170  -28.8207   23.3040 O   0  0  0  0  0  0
  -28.4037  -26.7603   20.0874 O   0  0  0  0  0  0
  -26.5590  -34.8926   22.4705 O   0  0  0  0  0  0
  -23.5302  -32.1440   23.7559 O   0  0  0  0  0  0
  -30.2597  -20.9717   19.3293 C   0  0  0  0  0  0
  -29.8898  -19.6199   19.0739 C   0  0  0  0  0  0
  -32.1506  -18.8773   19.7202 C   0  0  0  0  0  0
  -30.8430  -18.5733   19.2512 C   0  0  0  0  0  0
  -32.5104  -20.2222   19.9903 C   0  0  0  0  0  0
  -31.5898  -21.2648   19.7308 C   0  0  0  0  0  0
  -29.1193  -23.0459   20.4058 C   0  0  0  0  0  0
  -28.8121  -24.3588   18.3889 C   0  0  0  0  0  0
  -29.2286  -22.1122   19.1812 C   0  0  1  0  0  0
  -29.1915  -24.4832   19.8667 C   0  0  1  0  0  0
  -29.4266  -23.0265   17.9537 C   0  0  1  0  0  0
  -28.4636  -19.3115   18.5962 C   0  0  0  0  0  0
  -33.1754  -17.7556   19.8997 C   0  0  0  0  0  0
  -33.8772  -20.5570   20.5839 C   0  0  0  0  0  0
  -28.8226  -22.4812   16.6522 C   0  0  0  0  0  0
  -32.8566  -23.0594   18.8816 C   0  0  0  0  0  0
  -30.4763  -17.1292   18.8800 C   0  0  0  0  0  0
  -28.3101  -25.4568   20.6556 C   0  0  0  0  0  0
  -29.4872  -16.4181   19.8456 C   0  0  0  0  0  0
  -30.0902  -15.5512   20.8720 N   0  0  0  0  0  0
  -31.9745  -22.5747   19.8912 O   0  0  0  0  0  0
  -31.4502  -12.3327   19.1272 H   0  0  0  0  0  0
  -30.2645  -11.2806   19.8497 H   0  0  0  0  0  0
  -29.7261  -11.7408   17.4346 H   0  0  0  0  0  0
  -29.6532  -13.4572   17.7604 H   0  0  0  0  0  0
  -27.8255  -11.2797   18.8369 H   0  0  0  0  0  0
  -27.3537  -12.5924   17.7903 H   0  0  0  0  0  0
  -27.6415  -14.2146   19.5278 H   0  0  0  0  0  0
  -28.6716  -12.0435   21.4183 H   0  0  0  0  0  0
  -28.4785  -13.7320   21.8069 H   0  0  0  0  0  0
  -25.2725   -9.5699   22.4781 H   0  0  0  0  0  0
  -24.0002   -7.4641   22.7482 H   0  0  0  0  0  0
  -21.0813   -8.8740   19.8957 H   0  0  0  0  0  0
  -22.3646  -10.9670   19.6179 H   0  0  0  0  0  0
  -21.2006   -7.6144   23.9679 H   0  0  0  0  0  0
  -21.1480   -6.0553   25.9060 H   0  0  0  0  0  0
  -22.0599   -2.7599   23.2900 H   0  0  0  0  0  0
  -22.4125  -11.9801   22.4732 H   0  0  0  0  0  0
  -21.1119  -13.1178   22.2699 H   0  0  0  0  0  0
  -24.6850  -15.8454   20.5653 H   0  0  0  0  0  0
  -26.3144  -15.6214   20.1791 H   0  0  0  0  0  0
  -26.7089  -32.5572   23.1200 H   0  0  0  0  0  0
  -25.0042  -33.9817   25.0499 H   0  0  0  0  0  0
  -22.6825  -31.3098   21.4169 H   0  0  0  0  0  0
  -23.3750  -35.9659   23.3300 H   0  0  0  0  0  0
  -24.3586  -36.8939   22.2052 H   0  0  0  0  0  0
  -23.7235  -37.6529   23.6648 H   0  0  0  0  0  0
  -26.0269  -31.6175   20.5939 H   0  0  0  0  0  0
  -26.8112  -30.9037   21.9766 H   0  0  0  0  0  0
  -28.0965  -29.1457   21.1493 H   0  0  0  0  0  0
  -26.0767  -25.9998   18.9987 H   0  0  0  0  0  0
  -23.9800  -27.2990   19.0338 H   0  0  0  0  0  0
  -23.7048  -30.6037   19.4065 H   0  0  0  0  0  0
  -22.7281  -29.2444   19.8748 H   0  0  0  0  0  0
  -25.1282  -36.2006   25.0833 H   0  0  0  0  0  0
  -20.9938  -28.3216   24.1453 H   0  0  0  0  0  0
  -20.5657  -26.2259   23.3601 H   0  0  0  0  0  0
  -21.6629  -26.7445   22.1219 H   0  0  0  0  0  0
  -19.6910  -25.6300   21.1228 H   0  0  0  0  0  0
  -19.6698  -27.3203   20.6746 H   0  0  0  0  0  0
  -17.4192  -26.6675   21.4005 H   0  0  0  0  0  0
  -18.0314  -26.0056   22.9000 H   0  0  0  0  0  0
  -19.7916  -30.7237   24.2315 H   0  0  0  0  0  0
  -17.5001  -31.6270   24.5157 H   0  0  0  0  0  0
  -15.5339  -30.2999   23.7635 H   0  0  0  0  0  0
  -15.8650  -28.0832   22.7055 H   0  0  0  0  0  0
  -24.5907  -30.7044   25.7821 H   0  0  0  0  0  0
  -24.8908  -32.2847   26.4950 H   0  0  0  0  0  0
  -25.8084  -30.8858   27.0238 H   0  0  0  0  0  0
  -26.2810  -29.6828   24.1148 H   0  0  0  0  0  0
  -27.4081  -29.7294   25.4523 H   0  0  0  0  0  0
  -27.8630  -30.4400   23.9200 H   0  0  0  0  0  0
  -27.2719  -33.3604   26.2094 H   0  0  0  0  0  0
  -28.3831  -32.6874   25.0258 H   0  0  0  0  0  0
  -28.0768  -31.8398   26.5336 H   0  0  0  0  0  0
  -28.2607  -38.0108   24.7519 H   0  0  0  0  0  0
  -28.1082  -36.2643   24.6268 H   0  0  0  0  0  0
  -27.2309  -37.1449   25.8862 H   0  0  0  0  0  0
  -20.9268  -29.8752   21.6979 H   0  0  0  0  0  0
  -26.0195  -38.2884   24.1417 H   0  0  0  0  0  0
  -29.8860  -22.8783   21.1608 H   0  0  0  0  0  0
  -28.1698  -22.8626   20.9109 H   0  0  0  0  0  0
  -29.1740  -25.2018   17.7980 H   0  0  0  0  0  0
  -27.7268  -24.3239   18.2841 H   0  0  0  0  0  0
  -28.2260  -21.7053   19.0923 H   0  0  0  0  0  0
  -30.2295  -24.8168   19.9213 H   0  0  0  0  0  0
  -30.4859  -23.2037   17.7895 H   0  0  0  0  0  0
  -27.7468  -19.5468   19.3841 H   0  0  0  0  0  0
  -28.2725  -18.2821   18.3111 H   0  0  0  0  0  0
  -28.2115  -19.9045   17.7171 H   0  0  0  0  0  0
  -33.3906  -17.2802   18.9426 H   0  0  0  0  0  0
  -32.7935  -16.9995   20.5826 H   0  0  0  0  0  0
  -34.1388  -18.0735   20.2878 H   0  0  0  0  0  0
  -34.0973  -19.9209   21.4411 H   0  0  0  0  0  0
  -33.9355  -21.5742   20.9676 H   0  0  0  0  0  0
  -34.6606  -20.4319   19.8366 H   0  0  0  0  0  0
  -27.7518  -22.2991   16.7493 H   0  0  0  0  0  0
  -29.2995  -21.5421   16.3693 H   0  0  0  0  0  0
  -28.9680  -23.1819   15.8299 H   0  0  0  0  0  0
  -32.6195  -24.1025   18.6686 H   0  0  0  0  0  0
  -32.7703  -22.5025   17.9465 H   0  0  0  0  0  0
  -33.8948  -23.0192   19.2062 H   0  0  0  0  0  0
  -31.3481  -16.5117   18.6864 H   0  0  0  0  0  0
  -30.0363  -17.1725   17.8841 H   0  0  0  0  0  0
  -28.6543  -25.5093   21.6891 H   0  0  0  0  0  0
  -27.2906  -25.0699   20.7040 H   0  0  0  0  0  0
  -28.8559  -15.8096   19.2074 H   0  0  0  0  0  0
  -28.8184  -17.1321   20.3263 H   0  0  0  0  0  0
  -30.6363  -16.1162   21.5065 H   0  0  0  0  0  0
  1 25  1  0  0  0
  1 30  2  0  0  0
  1 90  1  0  0  0
  2  3  1  0  0  0
  2 25  1  0  0  0
  2 92  1  0  0  0
  2 93  1  0  0  0
  3  4  1  0  0  0
  3 94  1  0  0  0
  3 95  1  0  0  0
  4  5  1  0  0  0
  4 96  1  0  0  0
  4 97  1  0  0  0
  5  6  1  0  0  0
  5 26  1  0  0  0
  5 98  1  0  0  0
  6 25  1  0  0  0
  6 99  1  0  0  0
  6100  1  0  0  0
  7  8  2  0  0  0
  7 26  1  0  0  0
  7 29  1  0  0  0
  8  9  1  0  0  0
  8 22  1  0  0  0
  9 10  1  0  0  0
  9 27  2  0  0  0
 10 11  2  0  0  0
 10 15  1  0  0  0
 11 12  1  0  0  0
 11101  1  0  0  0
 12 13  2  0  0  0
 12102  1  0  0  0
 13 14  1  0  0  0
 13 31  1  0  0  0
 14 15  2  0  0  0
 14103  1  0  0  0
 15104  1  0  0  0
 16 17  2  0  0  0
 16 21  1  0  0  0
 16 31  1  0  0  0
 17 18  1  0  0  0
 17105  1  0  0  0
 18 19  2  0  0  0
 18106  1  0  0  0
 19 20  1  0  0  0
 19 24  1  0  0  0
 20 21  2  0  0  0
 20107  1  0  0  0
 21 23  1  0  0  0
 22 28  1  0  0  0
 22 32  2  0  0  0
 26 27  1  0  0  0
 28108  1  0  0  0
 28109  1  0  0  0
 29110  1  0  0  0
 29111  1  0  0  0
 33 34  1  0  0  0
 33 66  1  0  0  0
 33 70  2  0  0  0
 34 36  1  0  0  0
 34 59  1  0  0  0
 34112  1  0  0  0
 35 44  2  0  0  0
 35 45  1  0  0  0
 35 68  1  0  0  0
 36 56  1  0  0  0
 36113  1  0  0  0
 37 39  1  0  0  0
 37 47  1  0  0  0
 37 66  1  0  0  0
 37114  1  0  0  0
 38 43  2  0  0  0
 38 46  1  0  0  0
 38 47  1  0  0  0
 39 64  1  0  0  0
 39 67  2  0  0  0
 40 52  1  0  0  0
 40 53  2  0  0  0
 40 58  1  0  0  0
 41115  1  0  0  0
 41116  1  0  0  0
 41117  1  0  0  0
 41 48  1  0  0  0
 42 43  1  0  0  0
 42 66  1  0  0  0
 42118  1  0  0  0
 42119  1  0  0  0
 43 44  1  0  0  0
 44120  1  0  0  0
 45 46  2  0  0  0
 45121  1  0  0  0
 46122  1  0  0  0
 47123  1  0  0  0
 47124  1  0  0  0
 48 56  1  0  0  0
 48 65  1  0  0  0
 48125  1  0  0  0
 49 50  1  0  0  0
 49 53  1  0  0  0
 49 64  1  0  0  0
 49126  1  0  0  0
 50 51  1  0  0  0
 50127  1  0  0  0
 50128  1  0  0  0
 51 52  1  0  0  0
 51129  1  0  0  0
 51130  1  0  0  0
 52131  1  0  0  0
 52132  1  0  0  0
 53 54  1  0  0  0
 54 55  2  0  0  0
 54133  1  0  0  0
 55 57  1  0  0  0
 55134  1  0  0  0
 56 69  2  0  0  0
 57 58  2  0  0  0
 57135  1  0  0  0
 58136  1  0  0  0
 59 60  1  0  0  0
 59 61  1  0  0  0
 59 62  1  0  0  0
 60137  1  0  0  0
 60138  1  0  0  0
 60139  1  0  0  0
 61140  1  0  0  0
 61141  1  0  0  0
 61142  1  0  0  0
 62143  1  0  0  0
 62144  1  0  0  0
 62145  1  0  0  0
 63 65  1  0  0  0
 63146  1  0  0  0
 63147  1  0  0  0
 63148  1  0  0  0
 64149  1  0  0  0
 65150  1  0  0  0
 68 88  1  0  0  0
 71 72  2  0  0  0
 71 76  1  0  0  0
 71 79  1  0  0  0
 72 74  1  0  0  0
 72 82  1  0  0  0
 73 74  2  0  0  0
 73 75  1  0  0  0
 73 83  1  0  0  0
 74 87  1  0  0  0
 75 76  2  0  0  0
 75 84  1  0  0  0
 76 91  1  0  0  0
 77 79  1  0  0  0
 77 80  1  0  0  0
 77151  1  0  0  0
 77152  1  0  0  0
 78 80  1  0  0  0
 78 81  1  0  0  0
 78153  1  0  0  0
 78154  1  0  0  0
 79 81  1  0  0  0
 79155  1  0  0  0
 80 88  1  0  0  0
 80156  1  0  0  0
 81 85  1  0  0  0
 81157  1  0  0  0
 82158  1  0  0  0
 82159  1  0  0  0
 82160  1  0  0  0
 83161  1  0  0  0
 83162  1  0  0  0
 83163  1  0  0  0
 84164  1  0  0  0
 84165  1  0  0  0
 84166  1  0  0  0
 85167  1  0  0  0
 85168  1  0  0  0
 85169  1  0  0  0
 86 91  1  0  0  0
 86170  1  0  0  0
 86171  1  0  0  0
 86172  1  0  0  0
 87 89  1  0  0  0
 87173  1  0  0  0
 87174  1  0  0  0
 88175  1  0  0  0
 88176  1  0  0  0
 89 90  1  0  0  0
 89177  1  0  0  0
 89178  1  0  0  0
 90179  1  0  0  0
M  ISO  4   1 100  68 101  88 101  90 100
M  END
> <chiral flag>
0

> <version>
0

> <s_m_source_file>
/data/baiqing/PycharmProjects/Reinvent-master-3.2/result/LINK_invent/BTK/process_docking_weight1_custom_sum_contain_oxygen_bond_distance_aromatic_linkinvent_7_9_3/rearranged_h_0164.sdf

> <i_m_source_file_index>
80

> <r_mmod_Potential_Energy-OPLS-2005>
127.197265625

> <r_mmod_Stretch_Energy-OPLS-2005>
40.0066261291504

> <r_mmod_Bend_Energy-OPLS-2005>
136.291351318359

> <r_mmod_Torsional_Energy-OPLS-2005>
384.06787109375

> <r_mmod_Improper_Torsional_Energy-OPLS-2005>
9.06563091278076

> <r_mmod_Van_der_Waal_Energy-OPLS-2005>
174.088516235352

> <r_mmod_Electrostatic_Energy-OPLS-2005>
-436.585876464844

> <r_mmod_Solvation_Energy-OPLS-2005>
-197.026824951172

> <b_mmod_Minimization_Converged-OPLS-2005>
0

> <r_mmod_RMS_Derivative-OPLS-2005>
1.93728613853455

$$$$
80
                    3D
 Structure written by MMmdl.
167176  0  0  1  0            999 V2000
  -30.5758  -14.8027   20.4365 C   0  0  0  0  0  0
  -30.4498  -12.4914   19.4693 C   0  0  0  0  0  0
  -29.5207  -12.5073   18.2343 C   0  0  0  0  0  0
  -28.0479  -12.3212   18.6531 C   0  0  0  0  0  0
  -27.6432  -13.2300   19.8440 C   0  0  2  0  0  0
  -28.6914  -13.1807   20.9769 C   0  0  0  0  0  0
  -25.2541  -13.8179   20.5696 C   0  0  0  0  0  0
  -24.1830  -13.0440   20.9231 C   0  0  0  0  0  0
  -24.6408  -11.6920   20.8764 C   0  0  0  0  0  0
  -23.9078  -10.4298   21.0415 C   0  0  0  0  0  0
  -24.3632   -9.4203   21.9180 C   0  0  0  0  0  0
  -23.6307   -8.2235   22.0738 C   0  0  0  0  0  0
  -22.4282   -8.0282   21.3542 C   0  0  0  0  0  0
  -21.9926   -9.0257   20.4645 C   0  0  0  0  0  0
  -22.7258  -10.2132   20.3063 C   0  0  0  0  0  0
  -21.6844   -6.0739   22.5281 C   0  0  0  0  0  0
  -21.4017   -6.5644   23.8219 C   0  0  0  0  0  0
  -21.3664   -5.6786   24.9181 C   0  0  0  0  0  0
  -21.6049   -4.3055   24.7220 C   0  0  0  0  0  0
  -21.8819   -3.8151   23.4342 C   0  0  0  0  0  0
  -21.9194   -4.6973   22.3401 C   0  0  0  0  0  0
  -22.7849  -13.5226   21.1868 C   0  0  0  0  0  0
  -22.1659   -4.2160   21.0978 F   0  0  0  0  0  0
  -21.5626   -3.4532   25.7730 F   0  0  0  0  0  0
  -29.9835  -13.5571   20.3866 N   0  0  0  0  0  0
  -26.2962  -12.9379   20.3261 N   0  0  0  0  0  0
  -25.9342  -11.6526   20.5761 N   0  0  0  0  0  0
  -22.0471  -12.8244   22.0422 N   0  0  0  0  0  0
  -25.4215  -15.1903   20.4077 N   0  0  0  0  0  0
  -31.7789  -14.9148   20.1873 O   0  0  0  0  0  0
  -21.6637   -6.8887   21.4244 O   0  0  0  0  0  0
  -22.3539  -14.5511   20.6686 O   0  0  0  0  0  0
  -24.6377  -31.8528   23.1970 C   0  0  0  0  0  0
  -25.9174  -32.4745   23.8336 C   0  0  1  0  0  0
  -27.2089  -27.2188   20.1135 C   0  0  0  0  0  0
  -25.5947  -33.8550   24.2237 N   0  0  0  0  0  0
  -23.4369  -30.4783   21.5428 C   0  0  2  0  0  0
  -24.8798  -28.9252   20.1122 C   0  0  0  0  0  0
  -22.7549  -29.4594   22.4898 C   0  0  0  0  0  0
  -18.0305  -28.1397   22.8477 C   0  0  0  0  0  0
  -24.1494  -36.7284   23.2637 C   0  0  0  0  0  0
  -25.9901  -30.7511   21.3857 C   0  0  0  0  0  0
  -26.0595  -29.3733   20.7205 C   0  0  0  0  0  0
  -27.2286  -28.5350   20.7056 C   0  0  0  0  0  0
  -25.9964  -26.8588   19.4771 C   0  0  0  0  0  0
  -24.8555  -27.6778   19.4810 C   0  0  0  0  0  0
  -23.6575  -29.8204   20.1582 C   0  0  0  0  0  0
  -25.4117  -36.3066   24.0322 C   0  0  1  0  0  0
  -20.5915  -28.3709   23.1249 C   0  0  2  0  0  0
  -20.6789  -26.9422   22.5396 C   0  0  0  0  0  0
  -19.5756  -26.6385   21.5209 C   0  0  0  0  0  0
  -18.1941  -26.7937   22.1625 C   0  0  0  0  0  0
  -19.1560  -28.8871   23.2857 C   0  0  0  0  0  0
  -18.9477  -30.1466   23.8884 C   0  0  0  0  0  0
  -17.6473  -30.6590   24.0562 C   0  0  0  0  0  0
  -25.9063  -34.9435   23.5078 C   0  0  0  0  0  0
  -16.5363  -29.9085   23.6332 C   0  0  0  0  0  0
  -16.7289  -28.6505   23.0350 C   0  0  0  0  0  0
  -26.4502  -31.6591   25.0756 C   0  0  0  0  0  0
  -25.3695  -31.3781   26.1462 C   0  0  0  0  0  0
  -27.0341  -30.2986   24.6304 C   0  0  0  0  0  0
  -27.6050  -32.4339   25.7531 C   0  0  0  0  0  0
  -27.5583  -37.1798   24.8457 C   0  0  0  0  0  0
  -21.4248  -29.3052   22.3643 N   0  0  0  0  0  0
  -26.4288  -37.3765   23.9410 N   0  0  0  0  0  0
  -24.7082  -31.0458   22.0968 N   0  0  0  0  0  0
  -23.4225  -28.8123   23.3009 O   0  0  0  0  0  0
  -28.2799  -26.2751   20.1520 O   0  0  0  0  0  0
  -26.5640  -34.8917   22.4656 O   0  0  0  0  0  0
  -23.5507  -32.1372   23.7220 O   0  0  0  0  0  0
  -29.9817  -17.9094   17.9562 C   0  0  0  0  0  0
  -30.3521  -18.7304   16.8603 C   0  0  0  0  0  0
  -29.8169  -18.4721   19.2703 C   0  0  0  0  0  0
  -30.4253  -20.1145   17.0578 C   0  0  0  0  0  0
  -29.7142  -19.9604   19.2945 C   0  0  0  0  0  0
  -29.7285  -23.1080   21.3050 C   0  0  0  0  0  0
  -30.2184  -21.6366   21.0655 C   0  0  0  0  0  0
  -28.3154  -22.0365   19.8132 C   0  0  0  0  0  0
  -28.9473  -23.4914   20.0454 C   0  0  1  0  0  0
  -29.7350  -16.4341   17.6556 C   0  0  0  0  0  0
  -30.6792  -18.1467   15.4836 C   0  0  0  0  0  0
  -30.8557  -21.0869   15.9729 C   0  0  0  0  0  0
  -29.9137  -17.4657   20.5361 C   0  0  0  0  0  0
  -27.9454  -24.7908   20.0600 C   0  0  0  0  0  0
  -30.0778  -20.6798   18.2136 N   0  0  0  0  0  0
  -29.2116  -20.9012   20.2823 N   0  0  0  0  0  0
  -29.7378  -15.9176   20.5250 N   0  0  0  0  0  0
  -31.4852  -12.6472   19.1581 H   0  0  0  0  0  0
  -30.4240  -11.5179   19.9637 H   0  0  0  0  0  0
  -29.8142  -11.7248   17.5337 H   0  0  0  0  0  0
  -29.6347  -13.4516   17.6990 H   0  0  0  0  0  0
  -27.9209  -11.2759   18.9369 H   0  0  0  0  0  0
  -27.3872  -12.4888   17.8013 H   0  0  0  0  0  0
  -27.6291  -14.2458   19.4504 H   0  0  0  0  0  0
  -28.7445  -12.1843   21.4184 H   0  0  0  0  0  0
  -28.4208  -13.8619   21.7860 H   0  0  0  0  0  0
  -25.2778   -9.5674   22.4747 H   0  0  0  0  0  0
  -24.0023   -7.4630   22.7451 H   0  0  0  0  0  0
  -21.0852   -8.8798   19.8954 H   0  0  0  0  0  0
  -22.3731  -10.9679   19.6177 H   0  0  0  0  0  0
  -21.1998   -7.6150   23.9734 H   0  0  0  0  0  0
  -21.1487   -6.0509   25.9085 H   0  0  0  0  0  0
  -22.0590   -2.7613   23.2833 H   0  0  0  0  0  0
  -22.4073  -11.9956   22.4909 H   0  0  0  0  0  0
  -21.1071  -13.1260   22.2551 H   0  0  0  0  0  0
  -24.6431  -15.8333   20.5078 H   0  0  0  0  0  0
  -26.2499  -15.6324   20.0329 H   0  0  0  0  0  0
  -26.7254  -32.5368   23.1083 H   0  0  0  0  0  0
  -25.0061  -33.9679   25.0362 H   0  0  0  0  0  0
  -22.7359  -31.3026   21.3976 H   0  0  0  0  0  0
  -23.3759  -35.9614   23.3280 H   0  0  0  0  0  0
  -24.3580  -36.8931   22.2056 H   0  0  0  0  0  0
  -23.7250  -37.6479   23.6674 H   0  0  0  0  0  0
  -26.1437  -31.5162   20.6231 H   0  0  0  0  0  0
  -26.8613  -30.7910   22.0280 H   0  0  0  0  0  0
  -28.1332  -28.8742   21.1904 H   0  0  0  0  0  0
  -25.8725  -25.9195   18.9649 H   0  0  0  0  0  0
  -23.9532  -27.3319   18.9961 H   0  0  0  0  0  0
  -23.7941  -30.6006   19.4086 H   0  0  0  0  0  0
  -22.7731  -29.2637   19.8437 H   0  0  0  0  0  0
  -25.1304  -36.1903   25.0814 H   0  0  0  0  0  0
  -21.0003  -28.3285   24.1371 H   0  0  0  0  0  0
  -20.5685  -26.2326   23.3606 H   0  0  0  0  0  0
  -21.6656  -26.7436   22.1191 H   0  0  0  0  0  0
  -19.6913  -25.6290   21.1251 H   0  0  0  0  0  0
  -19.6693  -27.3187   20.6730 H   0  0  0  0  0  0
  -17.4209  -26.6681   21.4030 H   0  0  0  0  0  0
  -18.0342  -26.0085   22.9025 H   0  0  0  0  0  0
  -19.7949  -30.7287   24.2252 H   0  0  0  0  0  0
  -17.5022  -31.6268   24.5167 H   0  0  0  0  0  0
  -15.5359  -30.2978   23.7662 H   0  0  0  0  0  0
  -15.8694  -28.0818   22.7065 H   0  0  0  0  0  0
  -24.5866  -30.7134   25.7790 H   0  0  0  0  0  0
  -24.8892  -32.2966   26.4844 H   0  0  0  0  0  0
  -25.7983  -30.8986   27.0271 H   0  0  0  0  0  0
  -26.2945  -29.6746   24.1275 H   0  0  0  0  0  0
  -27.3914  -29.7252   25.4869 H   0  0  0  0  0  0
  -27.8877  -30.4221   23.9636 H   0  0  0  0  0  0
  -27.2649  -33.3638   26.2098 H   0  0  0  0  0  0
  -28.3862  -32.6903   25.0364 H   0  0  0  0  0  0
  -28.0717  -31.8478   26.5456 H   0  0  0  0  0  0
  -28.2584  -38.0109   24.7510 H   0  0  0  0  0  0
  -28.1095  -36.2641   24.6266 H   0  0  0  0  0  0
  -27.2304  -37.1430   25.8859 H   0  0  0  0  0  0
  -20.9446  -29.8798   21.6863 H   0  0  0  0  0  0
  -26.0164  -38.2838   24.1411 H   0  0  0  0  0  0
  -30.5522  -23.7949   21.5037 H   0  0  0  0  0  0
  -29.0632  -23.1403   22.1685 H   0  0  0  0  0  0
  -30.3960  -21.1324   22.0155 H   0  0  0  0  0  0
  -31.1677  -21.6445   20.5274 H   0  0  0  0  0  0
  -28.0010  -21.9184   18.7746 H   0  0  0  0  0  0
  -27.3934  -21.9670   20.3922 H   0  0  0  0  0  0
  -29.6710  -23.6538   19.2460 H   0  0  0  0  0  0
  -30.6345  -15.8451   17.8286 H   0  0  0  0  0  0
  -29.4183  -16.2629   16.6285 H   0  0  0  0  0  0
  -28.8982  -16.0449   18.2291 H   0  0  0  0  0  0
  -31.1113  -17.1481   15.5455 H   0  0  0  0  0  0
  -31.4180  -18.7429   14.9479 H   0  0  0  0  0  0
  -29.7772  -18.0924   14.8724 H   0  0  0  0  0  0
  -31.9382  -21.0533   15.8499 H   0  0  0  0  0  0
  -30.5840  -22.1140   16.2251 H   0  0  0  0  0  0
  -30.3916  -20.8520   15.0151 H   0  0  0  0  0  0
  -29.2101  -17.8436   21.2784 H   0  0  0  0  0  0
  -30.8960  -17.6525   20.9720 H   0  0  0  0  0  0
  -27.1818  -24.5944   20.8136 H   0  0  0  0  0  0
  -27.4504  -24.6620   19.0999 H   0  0  0  0  0  0
  -28.7791  -15.6435   20.6756 H   0  0  0  0  0  0
  1 25  1  0  0  0
  1 30  2  0  0  0
  1 87  1  0  0  0
  2  3  1  0  0  0
  2 25  1  0  0  0
  2 88  1  0  0  0
  2 89  1  0  0  0
  3  4  1  0  0  0
  3 90  1  0  0  0
  3 91  1  0  0  0
  4  5  1  0  0  0
  4 92  1  0  0  0
  4 93  1  0  0  0
  5  6  1  0  0  0
  5 26  1  0  0  0
  5 94  1  0  0  0
  6 25  1  0  0  0
  6 95  1  0  0  0
  6 96  1  0  0  0
  7  8  2  0  0  0
  7 26  1  0  0  0
  7 29  1  0  0  0
  8  9  1  0  0  0
  8 22  1  0  0  0
  9 10  1  0  0  0
  9 27  2  0  0  0
 10 11  2  0  0  0
 10 15  1  0  0  0
 11 12  1  0  0  0
 11 97  1  0  0  0
 12 13  2  0  0  0
 12 98  1  0  0  0
 13 14  1  0  0  0
 13 31  1  0  0  0
 14 15  2  0  0  0
 14 99  1  0  0  0
 15100  1  0  0  0
 16 17  2  0  0  0
 16 21  1  0  0  0
 16 31  1  0  0  0
 17 18  1  0  0  0
 17101  1  0  0  0
 18 19  2  0  0  0
 18102  1  0  0  0
 19 20  1  0  0  0
 19 24  1  0  0  0
 20 21  2  0  0  0
 20103  1  0  0  0
 21 23  1  0  0  0
 22 28  1  0  0  0
 22 32  2  0  0  0
 26 27  1  0  0  0
 28104  1  0  0  0
 28105  1  0  0  0
 29106  1  0  0  0
 29107  1  0  0  0
 33 34  1  0  0  0
 33 66  1  0  0  0
 33 70  2  0  0  0
 34 36  1  0  0  0
 34 59  1  0  0  0
 34108  1  0  0  0
 35 44  2  0  0  0
 35 45  1  0  0  0
 35 68  1  0  0  0
 36 56  1  0  0  0
 36109  1  0  0  0
 37 39  1  0  0  0
 37 47  1  0  0  0
 37 66  1  0  0  0
 37110  1  0  0  0
 38 43  2  0  0  0
 38 46  1  0  0  0
 38 47  1  0  0  0
 39 64  1  0  0  0
 39 67  2  0  0  0
 40 52  1  0  0  0
 40 53  2  0  0  0
 40 58  1  0  0  0
 41111  1  0  0  0
 41112  1  0  0  0
 41113  1  0  0  0
 41 48  1  0  0  0
 42 43  1  0  0  0
 42 66  1  0  0  0
 42114  1  0  0  0
 42115  1  0  0  0
 43 44  1  0  0  0
 44116  1  0  0  0
 45 46  2  0  0  0
 45117  1  0  0  0
 46118  1  0  0  0
 47119  1  0  0  0
 47120  1  0  0  0
 48 56  1  0  0  0
 48 65  1  0  0  0
 48121  1  0  0  0
 49 50  1  0  0  0
 49 53  1  0  0  0
 49 64  1  0  0  0
 49122  1  0  0  0
 50 51  1  0  0  0
 50123  1  0  0  0
 50124  1  0  0  0
 51 52  1  0  0  0
 51125  1  0  0  0
 51126  1  0  0  0
 52127  1  0  0  0
 52128  1  0  0  0
 53 54  1  0  0  0
 54 55  2  0  0  0
 54129  1  0  0  0
 55 57  1  0  0  0
 55130  1  0  0  0
 56 69  2  0  0  0
 57 58  2  0  0  0
 57131  1  0  0  0
 58132  1  0  0  0
 59 60  1  0  0  0
 59 61  1  0  0  0
 59 62  1  0  0  0
 60133  1  0  0  0
 60134  1  0  0  0
 60135  1  0  0  0
 61136  1  0  0  0
 61137  1  0  0  0
 61138  1  0  0  0
 62139  1  0  0  0
 62140  1  0  0  0
 62141  1  0  0  0
 63 65  1  0  0  0
 63142  1  0  0  0
 63143  1  0  0  0
 63144  1  0  0  0
 64145  1  0  0  0
 65146  1  0  0  0
 68 84  1  0  0  0
 71 72  2  0  0  0
 71 73  1  0  0  0
 71 80  1  0  0  0
 72 74  1  0  0  0
 72 81  1  0  0  0
 73 75  2  0  0  0
 73 83  1  0  0  0
 74 82  1  0  0  0
 74 85  2  0  0  0
 75 85  1  0  0  0
 75 86  1  0  0  0
 76 77  1  0  0  0
 76 79  1  0  0  0
 76147  1  0  0  0
 76148  1  0  0  0
 77 86  1  0  0  0
 77149  1  0  0  0
 77150  1  0  0  0
 78 79  1  0  0  0
 78 86  1  0  0  0
 78151  1  0  0  0
 78152  1  0  0  0
 79 84  1  0  0  0
 79153  1  0  0  0
 80154  1  0  0  0
 80155  1  0  0  0
 80156  1  0  0  0
 81157  1  0  0  0
 81158  1  0  0  0
 81159  1  0  0  0
 82160  1  0  0  0
 82161  1  0  0  0
 82162  1  0  0  0
 83 87  1  0  0  0
 83163  1  0  0  0
 83164  1  0  0  0
 84165  1  0  0  0
 84166  1  0  0  0
 87167  1  0  0  0
M  ISO  4   1 100  68 101  84 101  87 100
M  END
> <chiral flag>
0

> <version>
0

> <s_m_source_file>
/data/baiqing/PycharmProjects/Reinvent-master-3.2/result/LINK_invent/BTK/process_docking_weight1_custom_sum_contain_oxygen_bond_distance_aromatic_linkinvent_7_9_3/rearranged_h_0164.sdf

> <i_m_source_file_index>
81

> <r_mmod_Potential_Energy-OPLS-2005>
225.239212036133

> <r_mmod_Stretch_Energy-OPLS-2005>
167.519622802734

> <r_mmod_Bend_Energy-OPLS-2005>
274.071075439453

> <r_mmod_Torsional_Energy-OPLS-2005>
301.112030029297

> <r_mmod_Improper_Torsional_Energy-OPLS-2005>
12.4768743515015

> <r_mmod_Van_der_Waal_Energy-OPLS-2005>
161.232131958008

> <r_mmod_Electrostatic_Energy-OPLS-2005>
-558.915161132812

> <r_mmod_Solvation_Energy-OPLS-2005>
-248.328277587891

> <b_mmod_Minimization_Converged-OPLS-2005>
0

> <r_mmod_RMS_Derivative-OPLS-2005>
2.09075117111206

$$$$
81
                    3D
 Structure written by MMmdl.
171180  0  0  1  0            999 V2000
  -30.7149  -14.4196   20.5817 C   0  0  0  0  0  0
  -30.4127  -12.2760   19.4139 C   0  0  0  0  0  0
  -29.4978  -12.5100   18.1969 C   0  0  0  0  0  0
  -28.0146  -12.3584   18.6003 C   0  0  0  0  0  0
  -27.6510  -13.1730   19.8713 C   0  0  2  0  0  0
  -28.6967  -12.9550   20.9903 C   0  0  0  0  0  0
  -25.2520  -13.7955   20.5544 C   0  0  0  0  0  0
  -24.1778  -13.0317   20.9146 C   0  0  0  0  0  0
  -24.6293  -11.6793   20.8743 C   0  0  0  0  0  0
  -23.8944  -10.4227   21.0401 C   0  0  0  0  0  0
  -24.3536   -9.4156   21.9193 C   0  0  0  0  0  0
  -23.6247   -8.2165   22.0748 C   0  0  0  0  0  0
  -22.4237   -8.0209   21.3520 C   0  0  0  0  0  0
  -21.9838   -9.0167   20.4602 C   0  0  0  0  0  0
  -22.7134  -10.2070   20.3021 C   0  0  0  0  0  0
  -21.6821   -6.0675   22.5276 C   0  0  0  0  0  0
  -21.3977   -6.5591   23.8209 C   0  0  0  0  0  0
  -21.3674   -5.6752   24.9177 C   0  0  0  0  0  0
  -21.6068   -4.3019   24.7219 C   0  0  0  0  0  0
  -21.8820   -3.8085   23.4340 C   0  0  0  0  0  0
  -21.9173   -4.6902   22.3401 C   0  0  0  0  0  0
  -22.7835  -13.5205   21.1804 C   0  0  0  0  0  0
  -22.1654   -4.2090   21.0982 F   0  0  0  0  0  0
  -21.5663   -3.4508   25.7733 F   0  0  0  0  0  0
  -30.0292  -13.2545   20.4375 N   0  0  0  0  0  0
  -26.2931  -12.9073   20.3299 N   0  0  0  0  0  0
  -25.9211  -11.6275   20.5745 N   0  0  0  0  0  0
  -22.0392  -12.8306   22.0386 N   0  0  0  0  0  0
  -25.4223  -15.1643   20.3787 N   0  0  0  0  0  0
  -31.8639  -14.5879   20.1542 O   0  0  0  0  0  0
  -21.6587   -6.8827   21.4242 O   0  0  0  0  0  0
  -22.3605  -14.5537   20.6635 O   0  0  0  0  0  0
  -24.6110  -31.8686   23.2081 C   0  0  0  0  0  0
  -25.8986  -32.4839   23.8363 C   0  0  1  0  0  0
  -27.2354  -27.4454   20.0942 C   0  0  0  0  0  0
  -25.5819  -33.8615   24.2276 N   0  0  0  0  0  0
  -23.3973  -30.4940   21.5505 C   0  0  2  0  0  0
  -24.8440  -28.9581   20.1202 C   0  0  0  0  0  0
  -22.7394  -29.4660   22.4992 C   0  0  0  0  0  0
  -18.0261  -28.1402   22.8481 C   0  0  0  0  0  0
  -24.1475  -36.7330   23.2639 C   0  0  0  0  0  0
  -25.9243  -30.8450   21.3531 C   0  0  0  0  0  0
  -26.0052  -29.4788   20.7025 C   0  0  0  0  0  0
  -27.2046  -28.7327   20.6810 C   0  0  0  0  0  0
  -26.0494  -26.9382   19.5110 C   0  0  0  0  0  0
  -24.8599  -27.6863   19.5254 C   0  0  0  0  0  0
  -23.6038  -29.8211   20.1671 C   0  0  0  0  0  0
  -25.4095  -36.3111   24.0333 C   0  0  1  0  0  0
  -20.5854  -28.3659   23.1336 C   0  0  2  0  0  0
  -20.6741  -26.9392   22.5438 C   0  0  0  0  0  0
  -19.5718  -26.6373   21.5227 C   0  0  0  0  0  0
  -18.1898  -26.7937   22.1631 C   0  0  0  0  0  0
  -19.1511  -28.8839   23.2899 C   0  0  0  0  0  0
  -18.9455  -30.1445   23.8913 C   0  0  0  0  0  0
  -17.6466  -30.6606   24.0567 C   0  0  0  0  0  0
  -25.9019  -34.9484   23.5100 C   0  0  0  0  0  0
  -16.5351  -29.9123   23.6332 C   0  0  0  0  0  0
  -16.7248  -28.6543   23.0333 C   0  0  0  0  0  0
  -26.4399  -31.6642   25.0706 C   0  0  0  0  0  0
  -25.3629  -31.3816   26.1449 C   0  0  0  0  0  0
  -27.0238  -30.3079   24.6100 C   0  0  0  0  0  0
  -27.5960  -32.4383   25.7492 C   0  0  0  0  0  0
  -27.5588  -37.1804   24.8433 C   0  0  0  0  0  0
  -21.4134  -29.3011   22.3741 N   0  0  0  0  0  0
  -26.4272  -37.3808   23.9423 N   0  0  0  0  0  0
  -24.6629  -31.0828   22.0972 N   0  0  0  0  0  0
  -23.4201  -28.8180   23.2989 O   0  0  0  0  0  0
  -28.4147  -26.7299   20.1097 O   0  0  0  0  0  0
  -26.5625  -34.8937   22.4706 O   0  0  0  0  0  0
  -23.5298  -32.1417   23.7496 O   0  0  0  0  0  0
  -29.1703  -21.0775   21.9596 C   0  0  0  0  0  0
  -29.1270  -22.4841   21.8442 C   0  0  0  0  0  0
  -29.5641  -23.1207   20.6497 C   0  0  0  0  0  0
  -29.9959  -22.3121   19.5601 C   0  0  0  0  0  0
  -29.6335  -20.2782   20.8945 C   0  0  0  0  0  0
  -30.0296  -20.9004   19.6890 C   0  0  0  0  0  0
  -28.2508  -17.1598   20.6501 C   0  0  0  0  0  0
  -29.5761  -17.2692   22.7527 C   0  0  0  0  0  0
  -29.3739  -16.3043   20.0348 C   0  0  0  0  0  0
  -30.6022  -16.2953   22.1237 C   0  0  0  0  0  0
  -28.8432  -18.1124   21.6919 C   0  0  0  0  0  0
  -28.6279  -23.2857   23.0382 C   0  0  0  0  0  0
  -30.4609  -22.9372   18.2487 C   0  0  0  0  0  0
  -31.7452  -19.6573   18.6660 C   0  0  0  0  0  0
  -29.6154  -24.6555   20.5684 C   0  0  0  0  0  0
  -28.3210  -25.3000   20.0371 C   0  0  0  0  0  0
  -30.0045  -15.4622   21.0637 N   0  0  0  0  0  0
  -29.7927  -18.9148   20.9884 O   0  0  0  0  0  0
  -30.4048  -20.1241   18.6188 O   0  0  0  0  0  0
  -31.4641  -12.3539   19.1327 H   0  0  0  0  0  0
  -30.2881  -11.2599   19.7931 H   0  0  0  0  0  0
  -29.7499  -11.8062   17.4017 H   0  0  0  0  0  0
  -29.6682  -13.5112   17.7938 H   0  0  0  0  0  0
  -27.8259  -11.2998   18.7705 H   0  0  0  0  0  0
  -27.3684  -12.6495   17.7695 H   0  0  0  0  0  0
  -27.6614  -14.2118   19.5758 H   0  0  0  0  0  0
  -28.6695  -11.9151   21.3217 H   0  0  0  0  0  0
  -28.4637  -13.5570   21.8702 H   0  0  0  0  0  0
  -25.2639   -9.5672   22.4795 H   0  0  0  0  0  0
  -23.9937   -7.4559   22.7477 H   0  0  0  0  0  0
  -21.0757   -8.8640   19.8922 H   0  0  0  0  0  0
  -22.3543  -10.9608   19.6119 H   0  0  0  0  0  0
  -21.1934   -7.6098   23.9715 H   0  0  0  0  0  0
  -21.1539   -6.0466   25.9109 H   0  0  0  0  0  0
  -22.0597   -2.7540   23.2831 H   0  0  0  0  0  0
  -22.3876  -11.9937   22.4838 H   0  0  0  0  0  0
  -21.1008  -13.1402   22.2445 H   0  0  0  0  0  0
  -24.6568  -15.8241   20.4457 H   0  0  0  0  0  0
  -26.2784  -15.5816   20.0396 H   0  0  0  0  0  0
  -26.7053  -32.5562   23.1129 H   0  0  0  0  0  0
  -24.9824  -33.9761   25.0308 H   0  0  0  0  0  0
  -22.6822  -31.3092   21.4119 H   0  0  0  0  0  0
  -23.3755  -35.9642   23.3245 H   0  0  0  0  0  0
  -24.3551  -36.9007   22.2059 H   0  0  0  0  0  0
  -23.7189  -37.6496   23.6705 H   0  0  0  0  0  0
  -26.0238  -31.6096   20.5816 H   0  0  0  0  0  0
  -26.8160  -30.9056   21.9655 H   0  0  0  0  0  0
  -28.1039  -29.1391   21.1229 H   0  0  0  0  0  0
  -26.0285  -25.9662   19.0410 H   0  0  0  0  0  0
  -23.9614  -27.2779   19.0848 H   0  0  0  0  0  0
  -23.7100  -30.5918   19.4029 H   0  0  0  0  0  0
  -22.7276  -29.2391   19.8756 H   0  0  0  0  0  0
  -25.1278  -36.1961   25.0825 H   0  0  0  0  0  0
  -20.9939  -28.3215   24.1457 H   0  0  0  0  0  0
  -20.5643  -26.2256   23.3617 H   0  0  0  0  0  0
  -21.6612  -26.7424   22.1226 H   0  0  0  0  0  0
  -19.6865  -25.6277   21.1251 H   0  0  0  0  0  0
  -19.6687  -27.3192   20.6766 H   0  0  0  0  0  0
  -17.4172  -26.6666   21.4034 H   0  0  0  0  0  0
  -18.0302  -26.0109   22.9057 H   0  0  0  0  0  0
  -19.7934  -30.7232   24.2306 H   0  0  0  0  0  0
  -17.5036  -31.6292   24.5169 H   0  0  0  0  0  0
  -15.5351  -30.3044   23.7654 H   0  0  0  0  0  0
  -15.8634  -28.0885   22.7033 H   0  0  0  0  0  0
  -24.5725  -30.7259   25.7768 H   0  0  0  0  0  0
  -24.8915  -32.3029   26.4900 H   0  0  0  0  0  0
  -25.7897  -30.8931   27.0213 H   0  0  0  0  0  0
  -26.2809  -29.6887   24.1062 H   0  0  0  0  0  0
  -27.3897  -29.7274   25.4579 H   0  0  0  0  0  0
  -27.8671  -30.4394   23.9312 H   0  0  0  0  0  0
  -27.2536  -33.3683   26.2052 H   0  0  0  0  0  0
  -28.3788  -32.6962   25.0343 H   0  0  0  0  0  0
  -28.0603  -31.8524   26.5438 H   0  0  0  0  0  0
  -28.2549  -38.0166   24.7598 H   0  0  0  0  0  0
  -28.1147  -36.2707   24.6123 H   0  0  0  0  0  0
  -27.2312  -37.1266   25.8829 H   0  0  0  0  0  0
  -20.9294  -29.8730   21.6962 H   0  0  0  0  0  0
  -26.0162  -38.2865   24.1523 H   0  0  0  0  0  0
  -28.8818  -20.6127   22.8910 H   0  0  0  0  0  0
  -27.5190  -16.5188   21.1391 H   0  0  0  0  0  0
  -27.7180  -17.7138   19.8780 H   0  0  0  0  0  0
  -30.0709  -17.9213   23.4726 H   0  0  0  0  0  0
  -28.8426  -16.6919   23.3206 H   0  0  0  0  0  0
  -30.1351  -16.9421   19.5794 H   0  0  0  0  0  0
  -28.9947  -15.7206   19.1981 H   0  0  0  0  0  0
  -31.0173  -15.6592   22.9091 H   0  0  0  0  0  0
  -31.4388  -16.8631   21.7117 H   0  0  0  0  0  0
  -28.0410  -18.6958   22.1447 H   0  0  0  0  0  0
  -28.1511  -22.6448   23.7800 H   0  0  0  0  0  0
  -27.8888  -24.0258   22.7364 H   0  0  0  0  0  0
  -29.4514  -23.8022   23.5307 H   0  0  0  0  0  0
  -29.8418  -23.7838   17.9581 H   0  0  0  0  0  0
  -30.4258  -22.2266   17.4213 H   0  0  0  0  0  0
  -31.4917  -23.2767   18.3412 H   0  0  0  0  0  0
  -32.0088  -19.2052   17.7076 H   0  0  0  0  0  0
  -31.8860  -18.8972   19.4326 H   0  0  0  0  0  0
  -32.4427  -20.4746   18.8481 H   0  0  0  0  0  0
  -30.4646  -24.9713   19.9618 H   0  0  0  0  0  0
  -29.8304  -25.0626   21.5558 H   0  0  0  0  0  0
  -27.4820  -24.9412   20.6374 H   0  0  0  0  0  0
  -28.1429  -24.9872   19.0086 H   0  0  0  0  0  0
  1 25  1  0  0  0
  1 30  2  0  0  0
  1 87  1  0  0  0
  2  3  1  0  0  0
  2 25  1  0  0  0
  2 90  1  0  0  0
  2 91  1  0  0  0
  3  4  1  0  0  0
  3 92  1  0  0  0
  3 93  1  0  0  0
  4  5  1  0  0  0
  4 94  1  0  0  0
  4 95  1  0  0  0
  5  6  1  0  0  0
  5 26  1  0  0  0
  5 96  1  0  0  0
  6 25  1  0  0  0
  6 97  1  0  0  0
  6 98  1  0  0  0
  7  8  2  0  0  0
  7 26  1  0  0  0
  7 29  1  0  0  0
  8  9  1  0  0  0
  8 22  1  0  0  0
  9 10  1  0  0  0
  9 27  2  0  0  0
 10 11  2  0  0  0
 10 15  1  0  0  0
 11 12  1  0  0  0
 11 99  1  0  0  0
 12 13  2  0  0  0
 12100  1  0  0  0
 13 14  1  0  0  0
 13 31  1  0  0  0
 14 15  2  0  0  0
 14101  1  0  0  0
 15102  1  0  0  0
 16 17  2  0  0  0
 16 21  1  0  0  0
 16 31  1  0  0  0
 17 18  1  0  0  0
 17103  1  0  0  0
 18 19  2  0  0  0
 18104  1  0  0  0
 19 20  1  0  0  0
 19 24  1  0  0  0
 20 21  2  0  0  0
 20105  1  0  0  0
 21 23  1  0  0  0
 22 28  1  0  0  0
 22 32  2  0  0  0
 26 27  1  0  0  0
 28106  1  0  0  0
 28107  1  0  0  0
 29108  1  0  0  0
 29109  1  0  0  0
 33 34  1  0  0  0
 33 66  1  0  0  0
 33 70  2  0  0  0
 34 36  1  0  0  0
 34 59  1  0  0  0
 34110  1  0  0  0
 35 44  2  0  0  0
 35 45  1  0  0  0
 35 68  1  0  0  0
 36 56  1  0  0  0
 36111  1  0  0  0
 37 39  1  0  0  0
 37 47  1  0  0  0
 37 66  1  0  0  0
 37112  1  0  0  0
 38 43  2  0  0  0
 38 46  1  0  0  0
 38 47  1  0  0  0
 39 64  1  0  0  0
 39 67  2  0  0  0
 40 52  1  0  0  0
 40 53  2  0  0  0
 40 58  1  0  0  0
 41113  1  0  0  0
 41114  1  0  0  0
 41115  1  0  0  0
 41 48  1  0  0  0
 42 43  1  0  0  0
 42 66  1  0  0  0
 42116  1  0  0  0
 42117  1  0  0  0
 43 44  1  0  0  0
 44118  1  0  0  0
 45 46  2  0  0  0
 45119  1  0  0  0
 46120  1  0  0  0
 47121  1  0  0  0
 47122  1  0  0  0
 48 56  1  0  0  0
 48 65  1  0  0  0
 48123  1  0  0  0
 49 50  1  0  0  0
 49 53  1  0  0  0
 49 64  1  0  0  0
 49124  1  0  0  0
 50 51  1  0  0  0
 50125  1  0  0  0
 50126  1  0  0  0
 51 52  1  0  0  0
 51127  1  0  0  0
 51128  1  0  0  0
 52129  1  0  0  0
 52130  1  0  0  0
 53 54  1  0  0  0
 54 55  2  0  0  0
 54131  1  0  0  0
 55 57  1  0  0  0
 55132  1  0  0  0
 56 69  2  0  0  0
 57 58  2  0  0  0
 57133  1  0  0  0
 58134  1  0  0  0
 59 60  1  0  0  0
 59 61  1  0  0  0
 59 62  1  0  0  0
 60135  1  0  0  0
 60136  1  0  0  0
 60137  1  0  0  0
 61138  1  0  0  0
 61139  1  0  0  0
 61140  1  0  0  0
 62141  1  0  0  0
 62142  1  0  0  0
 62143  1  0  0  0
 63 65  1  0  0  0
 63144  1  0  0  0
 63145  1  0  0  0
 63146  1  0  0  0
 64147  1  0  0  0
 65148  1  0  0  0
 68 86  1  0  0  0
 71 72  2  0  0  0
 71 75  1  0  0  0
 71149  1  0  0  0
 72 73  1  0  0  0
 72 82  1  0  0  0
 73 74  2  0  0  0
 73 85  1  0  0  0
 74 76  1  0  0  0
 74 83  1  0  0  0
 75 76  2  0  0  0
 75 88  1  0  0  0
 76 89  1  0  0  0
 77 79  1  0  0  0
 77 81  1  0  0  0
 77150  1  0  0  0
 77151  1  0  0  0
 78 80  1  0  0  0
 78 81  1  0  0  0
 78152  1  0  0  0
 78153  1  0  0  0
 79 87  1  0  0  0
 79154  1  0  0  0
 79155  1  0  0  0
 80 87  1  0  0  0
 80156  1  0  0  0
 80157  1  0  0  0
 81 88  1  0  0  0
 81158  1  0  0  0
 82159  1  0  0  0
 82160  1  0  0  0
 82161  1  0  0  0
 83162  1  0  0  0
 83163  1  0  0  0
 83164  1  0  0  0
 84 89  1  0  0  0
 84165  1  0  0  0
 84166  1  0  0  0
 84167  1  0  0  0
 85 86  1  0  0  0
 85168  1  0  0  0
 85169  1  0  0  0
 86170  1  0  0  0
 86171  1  0  0  0
M  ISO  4   1 100  68 101  86 101  87 100
M  END
> <chiral flag>
0

> <version>
0

> <s_m_source_file>
/data/baiqing/PycharmProjects/Reinvent-master-3.2/result/LINK_invent/BTK/process_docking_weight1_custom_sum_contain_oxygen_bond_distance_aromatic_linkinvent_7_9_3/rearranged_h_0164.sdf

> <i_m_source_file_index>
82

> <r_mmod_Potential_Energy-OPLS-2005>
198.382125854492

> <r_mmod_Stretch_Energy-OPLS-2005>
39.0689392089844

> <r_mmod_Bend_Energy-OPLS-2005>
112.339576721191

> <r_mmod_Torsional_Energy-OPLS-2005>
363.792724609375

> <r_mmod_Improper_Torsional_Energy-OPLS-2005>
8.61225414276123

> <r_mmod_Van_der_Waal_Energy-OPLS-2005>
164.759307861328

> <r_mmod_Electrostatic_Energy-OPLS-2005>
-306.824371337891

> <r_mmod_Solvation_Energy-OPLS-2005>
-196.328521728516

> <b_mmod_Minimization_Converged-OPLS-2005>
0

> <r_mmod_RMS_Derivative-OPLS-2005>
4.39112997055054

$$$$
82
                    3D
 Structure written by MMmdl.
170179  0  0  1  0            999 V2000
  -30.6549  -14.7241   20.4111 C   0  0  0  0  0  0
  -30.4412  -12.4266   19.4641 C   0  0  0  0  0  0
  -29.5094  -12.4124   18.2329 C   0  0  0  0  0  0
  -28.0303  -12.2888   18.6548 C   0  0  0  0  0  0
  -27.6395  -13.2096   19.8424 C   0  0  2  0  0  0
  -28.6983  -13.1923   20.9654 C   0  0  0  0  0  0
  -25.2394  -13.8053   20.5587 C   0  0  0  0  0  0
  -24.1730  -13.0331   20.9214 C   0  0  0  0  0  0
  -24.6365  -11.6842   20.8808 C   0  0  0  0  0  0
  -23.9049  -10.4239   21.0436 C   0  0  0  0  0  0
  -24.3598   -9.4157   21.9206 C   0  0  0  0  0  0
  -23.6275   -8.2199   22.0760 C   0  0  0  0  0  0
  -22.4260   -8.0253   21.3540 C   0  0  0  0  0  0
  -21.9899   -9.0227   20.4645 C   0  0  0  0  0  0
  -22.7229  -10.2103   20.3062 C   0  0  0  0  0  0
  -21.6838   -6.0723   22.5278 C   0  0  0  0  0  0
  -21.3999   -6.5625   23.8216 C   0  0  0  0  0  0
  -21.3652   -5.6779   24.9176 C   0  0  0  0  0  0
  -21.6045   -4.3044   24.7227 C   0  0  0  0  0  0
  -21.8820   -3.8136   23.4351 C   0  0  0  0  0  0
  -21.9185   -4.6952   22.3404 C   0  0  0  0  0  0
  -22.7756  -13.5139   21.1863 C   0  0  0  0  0  0
  -22.1653   -4.2133   21.0984 F   0  0  0  0  0  0
  -21.5636   -3.4532   25.7747 F   0  0  0  0  0  0
  -29.9938  -13.5182   20.3531 N   0  0  0  0  0  0
  -26.2914  -12.9300   20.3310 N   0  0  0  0  0  0
  -25.9309  -11.6469   20.5891 N   0  0  0  0  0  0
  -22.0399  -12.8170   22.0444 N   0  0  0  0  0  0
  -25.3761  -15.1738   20.3770 N   0  0  0  0  0  0
  -31.8776  -14.7668   20.2575 O   0  0  0  0  0  0
  -21.6617   -6.8862   21.4241 O   0  0  0  0  0  0
  -22.3458  -14.5450   20.6704 O   0  0  0  0  0  0
  -24.6260  -31.8600   23.2022 C   0  0  0  0  0  0
  -25.9105  -32.4781   23.8350 C   0  0  1  0  0  0
  -27.2295  -27.3121   20.1229 C   0  0  0  0  0  0
  -25.5921  -33.8580   24.2278 N   0  0  0  0  0  0
  -23.4204  -30.4834   21.5456 C   0  0  2  0  0  0
  -24.8693  -28.9402   20.1119 C   0  0  0  0  0  0
  -22.7479  -29.4616   22.4942 C   0  0  0  0  0  0
  -18.0281  -28.1378   22.8491 C   0  0  0  0  0  0
  -24.1490  -36.7294   23.2641 C   0  0  0  0  0  0
  -25.9627  -30.7901   21.3738 C   0  0  0  0  0  0
  -26.0391  -29.4173   20.7162 C   0  0  0  0  0  0
  -27.2221  -28.6174   20.7086 C   0  0  0  0  0  0
  -26.0331  -26.8933   19.4910 C   0  0  0  0  0  0
  -24.8697  -27.6848   19.4885 C   0  0  0  0  0  0
  -23.6357  -29.8190   20.1611 C   0  0  0  0  0  0
  -25.4115  -36.3083   24.0330 C   0  0  1  0  0  0
  -20.5883  -28.3678   23.1292 C   0  0  2  0  0  0
  -20.6769  -26.9401   22.5416 C   0  0  0  0  0  0
  -19.5746  -26.6379   21.5217 C   0  0  0  0  0  0
  -18.1926  -26.7922   22.1626 C   0  0  0  0  0  0
  -19.1535  -28.8847   23.2884 C   0  0  0  0  0  0
  -18.9455  -30.1449   23.8897 C   0  0  0  0  0  0
  -17.6455  -30.6583   24.0558 C   0  0  0  0  0  0
  -25.9050  -34.9454   23.5108 C   0  0  0  0  0  0
  -16.5345  -29.9078   23.6328 C   0  0  0  0  0  0
  -16.7269  -28.6494   23.0355 C   0  0  0  0  0  0
  -26.4490  -31.6585   25.0717 C   0  0  0  0  0  0
  -25.3722  -31.3717   26.1441 C   0  0  0  0  0  0
  -27.0332  -30.3010   24.6165 C   0  0  0  0  0  0
  -27.6052  -32.4318   25.7483 C   0  0  0  0  0  0
  -27.5581  -37.1800   24.8465 C   0  0  0  0  0  0
  -21.4190  -29.3035   22.3690 N   0  0  0  0  0  0
  -26.4294  -37.3778   23.9409 N   0  0  0  0  0  0
  -24.6889  -31.0606   22.0974 N   0  0  0  0  0  0
  -23.4209  -28.8155   23.3014 O   0  0  0  0  0  0
  -28.3471  -26.4558   20.1779 O   0  0  0  0  0  0
  -26.5623  -34.8921   22.4673 O   0  0  0  0  0  0
  -23.5425  -32.1397   23.7346 O   0  0  0  0  0  0
  -28.1012  -16.8086   18.9275 C   0  0  0  0  0  0
  -28.0108  -17.0811   20.4380 C   0  0  0  0  0  0
  -30.5429  -17.2385   18.2143 C   0  0  0  0  0  0
  -30.1428  -18.5309   20.4610 C   0  0  1  0  0  0
  -29.5201  -16.2191   18.7563 C   0  0  1  0  0  0
  -29.4771  -17.0999   20.8684 C   0  0  2  0  0  0
  -30.4701  -18.6061   18.9382 C   0  0  1  0  0  0
  -29.0746  -19.8436   22.4215 C   0  0  0  0  0  0
  -31.9668  -19.7933   17.4838 C   0  0  0  0  0  0
  -29.2739  -23.9281   20.4162 C   0  0  0  0  0  0
  -29.8667  -21.3431   20.5021 C   0  0  0  0  0  0
  -28.0962  -24.9882   20.1905 C   0  0  0  0  0  0
  -29.3379  -19.8746   20.9037 C   0  0  1  0  0  0
  -29.9170  -15.8665   20.1169 N   0  0  0  0  0  0
  -28.8370  -22.4689   20.5702 N   0  3  0  0  0  0
  -31.6970  -19.3197   18.7974 O   0  0  0  0  0  0
  -31.4773  -12.5518   19.1453 H   0  0  0  0  0  0
  -30.4020  -11.4712   19.9897 H   0  0  0  0  0  0
  -29.7729  -11.5714   17.5896 H   0  0  0  0  0  0
  -29.6616  -13.2976   17.6204 H   0  0  0  0  0  0
  -27.8709  -11.2483   18.9393 H   0  0  0  0  0  0
  -27.3746  -12.4696   17.8017 H   0  0  0  0  0  0
  -27.6195  -14.2118   19.4378 H   0  0  0  0  0  0
  -28.7358  -12.2180   21.4541 H   0  0  0  0  0  0
  -28.4473  -13.9217   21.7371 H   0  0  0  0  0  0
  -25.2740   -9.5636   22.4785 H   0  0  0  0  0  0
  -23.9977   -7.4590   22.7478 H   0  0  0  0  0  0
  -21.0828   -8.8756   19.8955 H   0  0  0  0  0  0
  -22.3700  -10.9648   19.6173 H   0  0  0  0  0  0
  -21.1984   -7.6131   23.9722 H   0  0  0  0  0  0
  -21.1475   -6.0500   25.9082 H   0  0  0  0  0  0
  -22.0609   -2.7597   23.2854 H   0  0  0  0  0  0
  -22.4005  -11.9841   22.4856 H   0  0  0  0  0  0
  -21.1027  -13.1226   22.2663 H   0  0  0  0  0  0
  -24.5904  -15.8071   20.4733 H   0  0  0  0  0  0
  -26.2184  -15.6304   20.0526 H   0  0  0  0  0  0
  -26.7173  -32.5455   23.1100 H   0  0  0  0  0  0
  -25.0052  -33.9725   25.0413 H   0  0  0  0  0  0
  -22.7134  -31.3032   21.4030 H   0  0  0  0  0  0
  -23.3755  -35.9625   23.3303 H   0  0  0  0  0  0
  -24.3583  -36.8914   22.2055 H   0  0  0  0  0  0
  -23.7240  -37.6496   23.6661 H   0  0  0  0  0  0
  -26.0941  -31.5538   20.6057 H   0  0  0  0  0  0
  -26.8433  -30.8392   22.0026 H   0  0  0  0  0  0
  -28.1185  -28.9816   21.1914 H   0  0  0  0  0  0
  -25.9578  -25.9403   18.9921 H   0  0  0  0  0  0
  -23.9749  -27.3166   19.0055 H   0  0  0  0  0  0
  -23.7515  -30.5955   19.4041 H   0  0  0  0  0  0
  -22.7563  -29.2464   19.8604 H   0  0  0  0  0  0
  -25.1294  -36.1939   25.0825 H   0  0  0  0  0  0
  -20.9970  -28.3246   24.1413 H   0  0  0  0  0  0
  -20.5669  -26.2282   23.3611 H   0  0  0  0  0  0
  -21.6637  -26.7430   22.1206 H   0  0  0  0  0  0
  -19.6905  -25.6293   21.1239 H   0  0  0  0  0  0
  -19.6686  -27.3197   20.6753 H   0  0  0  0  0  0
  -17.4195  -26.6670   21.4027 H   0  0  0  0  0  0
  -18.0321  -26.0062   22.9021 H   0  0  0  0  0  0
  -19.7931  -30.7264   24.2270 H   0  0  0  0  0  0
  -17.5007  -31.6263   24.5153 H   0  0  0  0  0  0
  -15.5345  -30.2977   23.7654 H   0  0  0  0  0  0
  -15.8666  -28.0811   22.7073 H   0  0  0  0  0  0
  -24.5903  -30.7061   25.7766 H   0  0  0  0  0  0
  -24.8905  -32.2878   26.4867 H   0  0  0  0  0  0
  -25.8047  -30.8892   27.0215 H   0  0  0  0  0  0
  -26.2901  -29.6760   24.1198 H   0  0  0  0  0  0
  -27.4042  -29.7265   25.4662 H   0  0  0  0  0  0
  -27.8766  -30.4299   23.9378 H   0  0  0  0  0  0
  -27.2667  -33.3624   26.2052 H   0  0  0  0  0  0
  -28.3861  -32.6869   25.0307 H   0  0  0  0  0  0
  -28.0719  -31.8446   26.5402 H   0  0  0  0  0  0
  -28.2597  -38.0099   24.7515 H   0  0  0  0  0  0
  -28.1078  -36.2629   24.6288 H   0  0  0  0  0  0
  -27.2298  -37.1445   25.8868 H   0  0  0  0  0  0
  -20.9365  -29.8764   21.6908 H   0  0  0  0  0  0
  -26.0178  -38.2855   24.1408 H   0  0  0  0  0  0
  -27.9667  -17.7195   18.3441 H   0  0  0  0  0  0
  -27.3206  -16.1338   18.5815 H   0  0  0  0  0  0
  -27.5488  -16.2491   20.9630 H   0  0  0  0  0  0
  -27.4194  -17.9579   20.6910 H   0  0  0  0  0  0
  -30.3772  -17.3824   17.1457 H   0  0  0  0  0  0
  -31.5472  -16.8213   18.3070 H   0  0  0  0  0  0
  -31.1003  -18.5457   20.9843 H   0  0  0  0  0  0
  -29.4931  -15.3533   18.1005 H   0  0  0  0  0  0
  -29.5627  -16.9330   21.9430 H   0  0  0  0  0  0
  -29.6774  -19.1825   18.4587 H   0  0  0  0  0  0
  -28.5628  -18.9315   22.7272 H   0  0  0  0  0  0
  -28.4451  -20.6746   22.7395 H   0  0  0  0  0  0
  -30.0071  -19.9026   22.9848 H   0  0  0  0  0  0
  -32.8917  -20.3703   17.4910 H   0  0  0  0  0  0
  -31.1716  -20.4474   17.1245 H   0  0  0  0  0  0
  -32.0963  -18.9772   16.7727 H   0  0  0  0  0  0
  -29.8376  -24.2074   21.3064 H   0  0  0  0  0  0
  -29.9702  -23.9999   19.5803 H   0  0  0  0  0  0
  -30.2428  -21.3360   19.4801 H   0  0  0  0  0  0
  -30.7203  -21.6026   21.1290 H   0  0  0  0  0  0
  -27.3383  -24.8055   20.9544 H   0  0  0  0  0  0
  -27.6454  -24.7137   19.2378 H   0  0  0  0  0  0
  -28.3716  -19.8180   20.4077 H   0  0  0  0  0  0
  -28.1536  -22.2744   19.8542 H   0  0  0  0  0  0
  -28.3562  -22.3903   21.4531 H   0  0  0  0  0  0
  1 25  1  0  0  0
  1 30  2  0  0  0
  1 84  1  0  0  0
  2  3  1  0  0  0
  2 25  1  0  0  0
  2 87  1  0  0  0
  2 88  1  0  0  0
  3  4  1  0  0  0
  3 89  1  0  0  0
  3 90  1  0  0  0
  4  5  1  0  0  0
  4 91  1  0  0  0
  4 92  1  0  0  0
  5  6  1  0  0  0
  5 26  1  0  0  0
  5 93  1  0  0  0
  6 25  1  0  0  0
  6 94  1  0  0  0
  6 95  1  0  0  0
  7  8  2  0  0  0
  7 26  1  0  0  0
  7 29  1  0  0  0
  8  9  1  0  0  0
  8 22  1  0  0  0
  9 10  1  0  0  0
  9 27  2  0  0  0
 10 11  2  0  0  0
 10 15  1  0  0  0
 11 12  1  0  0  0
 11 96  1  0  0  0
 12 13  2  0  0  0
 12 97  1  0  0  0
 13 14  1  0  0  0
 13 31  1  0  0  0
 14 15  2  0  0  0
 14 98  1  0  0  0
 15 99  1  0  0  0
 16 17  2  0  0  0
 16 21  1  0  0  0
 16 31  1  0  0  0
 17 18  1  0  0  0
 17100  1  0  0  0
 18 19  2  0  0  0
 18101  1  0  0  0
 19 20  1  0  0  0
 19 24  1  0  0  0
 20 21  2  0  0  0
 20102  1  0  0  0
 21 23  1  0  0  0
 22 28  1  0  0  0
 22 32  2  0  0  0
 26 27  1  0  0  0
 28103  1  0  0  0
 28104  1  0  0  0
 29105  1  0  0  0
 29106  1  0  0  0
 33 34  1  0  0  0
 33 66  1  0  0  0
 33 70  2  0  0  0
 34 36  1  0  0  0
 34 59  1  0  0  0
 34107  1  0  0  0
 35 44  2  0  0  0
 35 45  1  0  0  0
 35 68  1  0  0  0
 36 56  1  0  0  0
 36108  1  0  0  0
 37 39  1  0  0  0
 37 47  1  0  0  0
 37 66  1  0  0  0
 37109  1  0  0  0
 38 43  2  0  0  0
 38 46  1  0  0  0
 38 47  1  0  0  0
 39 64  1  0  0  0
 39 67  2  0  0  0
 40 52  1  0  0  0
 40 53  2  0  0  0
 40 58  1  0  0  0
 41110  1  0  0  0
 41111  1  0  0  0
 41112  1  0  0  0
 41 48  1  0  0  0
 42 43  1  0  0  0
 42 66  1  0  0  0
 42113  1  0  0  0
 42114  1  0  0  0
 43 44  1  0  0  0
 44115  1  0  0  0
 45 46  2  0  0  0
 45116  1  0  0  0
 46117  1  0  0  0
 47118  1  0  0  0
 47119  1  0  0  0
 48 56  1  0  0  0
 48 65  1  0  0  0
 48120  1  0  0  0
 49 50  1  0  0  0
 49 53  1  0  0  0
 49 64  1  0  0  0
 49121  1  0  0  0
 50 51  1  0  0  0
 50122  1  0  0  0
 50123  1  0  0  0
 51 52  1  0  0  0
 51124  1  0  0  0
 51125  1  0  0  0
 52126  1  0  0  0
 52127  1  0  0  0
 53 54  1  0  0  0
 54 55  2  0  0  0
 54128  1  0  0  0
 55 57  1  0  0  0
 55129  1  0  0  0
 56 69  2  0  0  0
 57 58  2  0  0  0
 57130  1  0  0  0
 58131  1  0  0  0
 59 60  1  0  0  0
 59 61  1  0  0  0
 59 62  1  0  0  0
 60132  1  0  0  0
 60133  1  0  0  0
 60134  1  0  0  0
 61135  1  0  0  0
 61136  1  0  0  0
 61137  1  0  0  0
 62138  1  0  0  0
 62139  1  0  0  0
 62140  1  0  0  0
 63 65  1  0  0  0
 63141  1  0  0  0
 63142  1  0  0  0
 63143  1  0  0  0
 64144  1  0  0  0
 65145  1  0  0  0
 68 82  1  0  0  0
 71 72  1  0  0  0
 71146  1  0  0  0
 71147  1  0  0  0
 71 75  1  0  0  0
 72148  1  0  0  0
 72149  1  0  0  0
 72 76  1  0  0  0
 73 75  1  0  0  0
 73 77  1  0  0  0
 73150  1  0  0  0
 73151  1  0  0  0
 74 76  1  0  0  0
 74 77  1  0  0  0
 74 83  1  0  0  0
 74152  1  0  0  0
 75 84  1  0  0  0
 75153  1  0  0  0
 76 84  1  0  0  0
 76154  1  0  0  0
 77 86  1  0  0  0
 77155  1  0  0  0
 78156  1  0  0  0
 78157  1  0  0  0
 78158  1  0  0  0
 78 83  1  0  0  0
 79 86  1  0  0  0
 79159  1  0  0  0
 79160  1  0  0  0
 79161  1  0  0  0
 80 82  1  0  0  0
 80 85  1  0  0  0
 80162  1  0  0  0
 80163  1  0  0  0
 81 83  1  0  0  0
 81 85  1  0  0  0
 81164  1  0  0  0
 81165  1  0  0  0
 82166  1  0  0  0
 82167  1  0  0  0
 83168  1  0  0  0
 85169  1  0  0  0
 85170  1  0  0  0
M  CHG  1  85   1
M  ISO  4   1 100  68 101  82 101  84 100
M  END
> <chiral flag>
0

> <version>
0

> <s_m_source_file>
/data/baiqing/PycharmProjects/Reinvent-master-3.2/result/LINK_invent/BTK/process_docking_weight1_custom_sum_contain_oxygen_bond_distance_aromatic_linkinvent_7_9_3/rearranged_h_0164.sdf

> <i_m_source_file_index>
83

> <r_mmod_Potential_Energy-OPLS-2005>
422.366851806641

> <r_mmod_Stretch_Energy-OPLS-2005>
108.628570556641

> <r_mmod_Bend_Energy-OPLS-2005>
214.534378051758

> <r_mmod_Torsional_Energy-OPLS-2005>
458.466613769531

> <r_mmod_Improper_Torsional_Energy-OPLS-2005>
16.6141166687012

> <r_mmod_Van_der_Waal_Energy-OPLS-2005>
129.38298034668

> <r_mmod_Electrostatic_Energy-OPLS-2005>
-147.468719482422

> <r_mmod_Solvation_Energy-OPLS-2005>
-435.598999023438

> <b_mmod_Minimization_Converged-OPLS-2005>
0

> <r_mmod_RMS_Derivative-OPLS-2005>
1.16612315177917

$$$$
83
                    3D
 Structure written by MMmdl.
178187  0  0  1  0            999 V2000
  -30.7186  -14.5328   20.4958 C   0  0  0  0  0  0
  -30.4095  -12.3285   19.4407 C   0  0  0  0  0  0
  -29.4992  -12.4969   18.2078 C   0  0  0  0  0  0
  -28.0158  -12.3747   18.6113 C   0  0  0  0  0  0
  -27.6517  -13.2291   19.8577 C   0  0  2  0  0  0
  -28.6992  -13.0871   20.9846 C   0  0  0  0  0  0
  -25.2548  -13.8206   20.5696 C   0  0  0  0  0  0
  -24.1840  -13.0458   20.9201 C   0  0  0  0  0  0
  -24.6425  -11.6925   20.8743 C   0  0  0  0  0  0
  -23.9097  -10.4306   21.0389 C   0  0  0  0  0  0
  -24.3640   -9.4221   21.9170 C   0  0  0  0  0  0
  -23.6306   -8.2264   22.0751 C   0  0  0  0  0  0
  -22.4284   -8.0295   21.3548 C   0  0  0  0  0  0
  -21.9925   -9.0270   20.4649 C   0  0  0  0  0  0
  -22.7264  -10.2141   20.3047 C   0  0  0  0  0  0
  -21.6860   -6.0752   22.5282 C   0  0  0  0  0  0
  -21.4015   -6.5646   23.8218 C   0  0  0  0  0  0
  -21.3654   -5.6794   24.9179 C   0  0  0  0  0  0
  -21.6050   -4.3060   24.7228 C   0  0  0  0  0  0
  -21.8814   -3.8158   23.4344 C   0  0  0  0  0  0
  -21.9195   -4.6982   22.3403 C   0  0  0  0  0  0
  -22.7843  -13.5214   21.1858 C   0  0  0  0  0  0
  -22.1666   -4.2173   21.0979 F   0  0  0  0  0  0
  -21.5631   -3.4529   25.7732 F   0  0  0  0  0  0
  -30.0163  -13.3694   20.4062 N   0  0  0  0  0  0
  -26.2997  -12.9427   20.3319 N   0  0  0  0  0  0
  -25.9356  -11.6565   20.5746 N   0  0  0  0  0  0
  -22.0488  -12.8213   22.0408 N   0  0  0  0  0  0
  -25.4245  -15.1942   20.4125 N   0  0  0  0  0  0
  -31.9123  -14.5783   20.1995 O   0  0  0  0  0  0
  -21.6640   -6.8897   21.4245 O   0  0  0  0  0  0
  -22.3530  -14.5526   20.6703 O   0  0  0  0  0  0
  -24.6158  -31.8709   23.2101 C   0  0  0  0  0  0
  -25.9007  -32.4868   23.8426 C   0  0  1  0  0  0
  -27.2310  -27.4145   20.0691 C   0  0  0  0  0  0
  -25.5863  -33.8667   24.2359 N   0  0  0  0  0  0
  -23.4077  -30.4904   21.5528 C   0  0  2  0  0  0
  -24.8516  -28.9596   20.1085 C   0  0  0  0  0  0
  -22.7414  -29.4638   22.4994 C   0  0  0  0  0  0
  -18.0252  -28.1334   22.8465 C   0  0  0  0  0  0
  -24.1479  -36.7324   23.2639 C   0  0  0  0  0  0
  -25.9416  -30.8191   21.3743 C   0  0  0  0  0  0
  -26.0119  -29.4517   20.7207 C   0  0  0  0  0  0
  -27.1976  -28.6786   20.7134 C   0  0  0  0  0  0
  -26.0556  -26.9544   19.4368 C   0  0  0  0  0  0
  -24.8705  -27.7115   19.4676 C   0  0  0  0  0  0
  -23.6136  -29.8259   20.1663 C   0  0  0  0  0  0
  -25.4097  -36.3149   24.0353 C   0  0  1  0  0  0
  -20.5852  -28.3633   23.1319 C   0  0  2  0  0  0
  -20.6737  -26.9365   22.5425 C   0  0  0  0  0  0
  -19.5732  -26.6353   21.5206 C   0  0  0  0  0  0
  -18.1905  -26.7880   22.1600 C   0  0  0  0  0  0
  -19.1499  -28.8781   23.2892 C   0  0  0  0  0  0
  -18.9445  -30.1377   23.8921 C   0  0  0  0  0  0
  -17.6454  -30.6549   24.0541 C   0  0  0  0  0  0
  -25.9021  -34.9502   23.5163 C   0  0  0  0  0  0
  -16.5331  -29.9065   23.6311 C   0  0  0  0  0  0
  -16.7244  -28.6471   23.0348 C   0  0  0  0  0  0
  -26.4432  -31.6643   25.0759 C   0  0  0  0  0  0
  -25.3628  -31.3755   26.1477 C   0  0  0  0  0  0
  -27.0281  -30.3076   24.6161 C   0  0  0  0  0  0
  -27.6055  -32.4361   25.7481 C   0  0  0  0  0  0
  -27.5590  -37.1809   24.8454 C   0  0  0  0  0  0
  -21.4127  -29.3037   22.3745 N   0  0  0  0  0  0
  -26.4291  -37.3831   23.9411 N   0  0  0  0  0  0
  -24.6745  -31.0762   22.1033 N   0  0  0  0  0  0
  -23.4173  -28.8142   23.3009 O   0  0  0  0  0  0
  -28.3876  -26.6544   20.1131 O   0  0  0  0  0  0
  -26.5594  -34.8947   22.4739 O   0  0  0  0  0  0
  -23.5333  -32.1511   23.7437 O   0  0  0  0  0  0
  -29.1776  -19.6196   23.1195 C   0  0  0  0  0  0
  -28.9865  -20.6373   20.8706 C   0  0  0  0  0  0
  -28.9539  -20.7474   22.3030 C   0  0  0  0  0  0
  -29.6037  -18.3930   22.5953 C   0  0  0  0  0  0
  -29.2364  -19.3034   20.3567 C   0  0  0  0  0  0
  -29.7313  -18.2430   21.1963 C   0  0  0  0  0  0
  -28.5839  -23.3526   20.4132 C   0  0  0  0  0  0
  -28.3357  -21.8964   18.5209 C   0  0  0  0  0  0
  -28.9963  -21.9198   19.9213 C   0  0  2  0  0  0
  -28.1410  -24.2131   19.1972 C   0  0  2  0  0  0
  -28.4463  -23.3319   17.9606 C   0  0  0  0  0  0
  -28.7315  -22.0364   23.0825 C   0  0  0  0  0  0
  -29.9784  -17.2811   23.5702 C   0  0  0  0  0  0
  -28.9397  -18.9529   18.9043 C   0  0  0  0  0  0
  -29.8695  -23.5556   17.3864 C   0  0  0  0  0  0
  -27.4298  -23.5718   16.8231 C   0  0  0  0  0  0
  -31.4095  -17.3843   19.3873 C   0  0  0  0  0  0
  -28.6767  -25.6892   19.0820 C   0  0  0  0  0  0
  -30.6049  -17.0531   20.6712 C   0  0  2  0  0  0
  -30.0197  -15.6826   20.6912 N   0  0  0  0  0  0
  -31.4584  -12.3973   19.1463 H   0  0  0  0  0  0
  -30.2885  -11.3387   19.8823 H   0  0  0  0  0  0
  -29.7479  -11.7528   17.4495 H   0  0  0  0  0  0
  -29.6824  -13.4704   17.7484 H   0  0  0  0  0  0
  -27.8130  -11.3204   18.8066 H   0  0  0  0  0  0
  -27.3772  -12.6537   17.7718 H   0  0  0  0  0  0
  -27.6713  -14.2684   19.5294 H   0  0  0  0  0  0
  -28.6866  -12.0802   21.4022 H   0  0  0  0  0  0
  -28.4725  -13.7610   21.8120 H   0  0  0  0  0  0
  -25.2784   -9.5697   22.4739 H   0  0  0  0  0  0
  -24.0036   -7.4643   22.7442 H   0  0  0  0  0  0
  -21.0878   -8.8782   19.8927 H   0  0  0  0  0  0
  -22.3734  -10.9680   19.6155 H   0  0  0  0  0  0
  -21.2001   -7.6151   23.9735 H   0  0  0  0  0  0
  -21.1481   -6.0517   25.9091 H   0  0  0  0  0  0
  -22.0597   -2.7617   23.2827 H   0  0  0  0  0  0
  -22.4109  -11.9896   22.4856 H   0  0  0  0  0  0
  -21.1079  -13.1206   22.2548 H   0  0  0  0  0  0
  -24.6513  -15.8419   20.5173 H   0  0  0  0  0  0
  -26.2741  -15.6417   20.0925 H   0  0  0  0  0  0
  -26.7077  -32.5548   23.1181 H   0  0  0  0  0  0
  -24.9959  -33.9885   25.0466 H   0  0  0  0  0  0
  -22.6987  -31.3073   21.4129 H   0  0  0  0  0  0
  -23.3777  -35.9625   23.3316 H   0  0  0  0  0  0
  -24.3541  -36.8931   22.2047 H   0  0  0  0  0  0
  -23.7241  -37.6525   23.6638 H   0  0  0  0  0  0
  -26.0561  -31.5805   20.6031 H   0  0  0  0  0  0
  -26.8337  -30.8781   21.9889 H   0  0  0  0  0  0
  -28.0894  -29.0538   21.1962 H   0  0  0  0  0  0
  -26.0304  -26.0178   18.9063 H   0  0  0  0  0  0
  -23.9836  -27.3326   18.9794 H   0  0  0  0  0  0
  -23.7114  -30.6044   19.4101 H   0  0  0  0  0  0
  -22.7434  -29.2354   19.8774 H   0  0  0  0  0  0
  -25.1283  -36.2056   25.0859 H   0  0  0  0  0  0
  -20.9898  -28.3207   24.1459 H   0  0  0  0  0  0
  -20.5599  -26.2250   23.3615 H   0  0  0  0  0  0
  -21.6618  -26.7384   22.1257 H   0  0  0  0  0  0
  -19.6891  -25.6274   21.1229 H   0  0  0  0  0  0
  -19.6678  -27.3164   20.6738 H   0  0  0  0  0  0
  -17.4180  -26.6616   21.3997 H   0  0  0  0  0  0
  -18.0281  -26.0019   22.8986 H   0  0  0  0  0  0
  -19.7931  -30.7142   24.2368 H   0  0  0  0  0  0
  -17.5031  -31.6246   24.5100 H   0  0  0  0  0  0
  -15.5347  -30.2978   23.7611 H   0  0  0  0  0  0
  -15.8640  -28.0787   22.7090 H   0  0  0  0  0  0
  -24.5805  -30.7119   25.7781 H   0  0  0  0  0  0
  -24.8758  -32.2891   26.4901 H   0  0  0  0  0  0
  -25.7909  -30.8917   27.0267 H   0  0  0  0  0  0
  -26.2856  -29.6844   24.1153 H   0  0  0  0  0  0
  -27.3982  -29.7343   25.4678 H   0  0  0  0  0  0
  -27.8725  -30.4431   23.9392 H   0  0  0  0  0  0
  -27.2734  -33.3690   26.2049 H   0  0  0  0  0  0
  -28.3813  -32.6882   25.0230 H   0  0  0  0  0  0
  -28.0744  -31.8459   26.5361 H   0  0  0  0  0  0
  -28.2627  -38.0091   24.7547 H   0  0  0  0  0  0
  -28.1075  -36.2641   24.6242 H   0  0  0  0  0  0
  -27.2273  -37.1430   25.8841 H   0  0  0  0  0  0
  -20.9271  -29.8836   21.7046 H   0  0  0  0  0  0
  -26.0203  -38.2926   24.1414 H   0  0  0  0  0  0
  -29.1317  -19.7224   24.1954 H   0  0  0  0  0  0
  -29.3824  -23.8442   20.9673 H   0  0  0  0  0  0
  -27.7030  -23.3062   21.0454 H   0  0  0  0  0  0
  -27.2887  -21.5960   18.6007 H   0  0  0  0  0  0
  -28.8294  -21.2336   17.8164 H   0  0  0  0  0  0
  -30.0646  -22.0065   19.7220 H   0  0  0  0  0  0
  -27.0554  -24.2570   19.2717 H   0  0  0  0  0  0
  -28.8206  -21.8808   24.1595 H   0  0  0  0  0  0
  -27.7284  -22.4271   22.9254 H   0  0  0  0  0  0
  -29.4856  -22.7808   22.8399 H   0  0  0  0  0  0
  -29.6245  -17.4936   24.5798 H   0  0  0  0  0  0
  -31.0609  -17.1612   23.6301 H   0  0  0  0  0  0
  -29.5373  -16.3299   23.2695 H   0  0  0  0  0  0
  -27.9797  -19.3633   18.5978 H   0  0  0  0  0  0
  -28.8053  -17.8781   18.7765 H   0  0  0  0  0  0
  -29.7305  -19.2839   18.2309 H   0  0  0  0  0  0
  -30.6524  -23.4101   18.1305 H   0  0  0  0  0  0
  -29.9983  -24.5613   16.9864 H   0  0  0  0  0  0
  -30.0782  -22.8697   16.5639 H   0  0  0  0  0  0
  -26.4000  -23.4554   17.1608 H   0  0  0  0  0  0
  -27.5859  -22.8772   15.9958 H   0  0  0  0  0  0
  -27.5202  -24.5792   16.4166 H   0  0  0  0  0  0
  -31.6913  -18.4373   19.3716 H   0  0  0  0  0  0
  -30.8657  -17.1551   18.4728 H   0  0  0  0  0  0
  -32.3526  -16.8424   19.3410 H   0  0  0  0  0  0
  -28.3670  -26.1090   18.1233 H   0  0  0  0  0  0
  -29.7639  -25.6549   19.0319 H   0  0  0  0  0  0
  -31.4093  -17.0011   21.4063 H   0  0  0  0  0  0
  -29.0307  -15.6075   20.8606 H   0  0  0  0  0  0
  1 25  1  0  0  0
  1 30  2  0  0  0
  1 90  1  0  0  0
  2  3  1  0  0  0
  2 25  1  0  0  0
  2 91  1  0  0  0
  2 92  1  0  0  0
  3  4  1  0  0  0
  3 93  1  0  0  0
  3 94  1  0  0  0
  4  5  1  0  0  0
  4 95  1  0  0  0
  4 96  1  0  0  0
  5  6  1  0  0  0
  5 26  1  0  0  0
  5 97  1  0  0  0
  6 25  1  0  0  0
  6 98  1  0  0  0
  6 99  1  0  0  0
  7  8  2  0  0  0
  7 26  1  0  0  0
  7 29  1  0  0  0
  8  9  1  0  0  0
  8 22  1  0  0  0
  9 10  1  0  0  0
  9 27  2  0  0  0
 10 11  2  0  0  0
 10 15  1  0  0  0
 11 12  1  0  0  0
 11100  1  0  0  0
 12 13  2  0  0  0
 12101  1  0  0  0
 13 14  1  0  0  0
 13 31  1  0  0  0
 14 15  2  0  0  0
 14102  1  0  0  0
 15103  1  0  0  0
 16 17  2  0  0  0
 16 21  1  0  0  0
 16 31  1  0  0  0
 17 18  1  0  0  0
 17104  1  0  0  0
 18 19  2  0  0  0
 18105  1  0  0  0
 19 20  1  0  0  0
 19 24  1  0  0  0
 20 21  2  0  0  0
 20106  1  0  0  0
 21 23  1  0  0  0
 22 28  1  0  0  0
 22 32  2  0  0  0
 26 27  1  0  0  0
 28107  1  0  0  0
 28108  1  0  0  0
 29109  1  0  0  0
 29110  1  0  0  0
 33 34  1  0  0  0
 33 66  1  0  0  0
 33 70  2  0  0  0
 34 36  1  0  0  0
 34 59  1  0  0  0
 34111  1  0  0  0
 35 44  2  0  0  0
 35 45  1  0  0  0
 35 68  1  0  0  0
 36 56  1  0  0  0
 36112  1  0  0  0
 37 39  1  0  0  0
 37 47  1  0  0  0
 37 66  1  0  0  0
 37113  1  0  0  0
 38 43  2  0  0  0
 38 46  1  0  0  0
 38 47  1  0  0  0
 39 64  1  0  0  0
 39 67  2  0  0  0
 40 52  1  0  0  0
 40 53  2  0  0  0
 40 58  1  0  0  0
 41114  1  0  0  0
 41115  1  0  0  0
 41116  1  0  0  0
 41 48  1  0  0  0
 42 43  1  0  0  0
 42 66  1  0  0  0
 42117  1  0  0  0
 42118  1  0  0  0
 43 44  1  0  0  0
 44119  1  0  0  0
 45 46  2  0  0  0
 45120  1  0  0  0
 46121  1  0  0  0
 47122  1  0  0  0
 47123  1  0  0  0
 48 56  1  0  0  0
 48 65  1  0  0  0
 48124  1  0  0  0
 49 50  1  0  0  0
 49 53  1  0  0  0
 49 64  1  0  0  0
 49125  1  0  0  0
 50 51  1  0  0  0
 50126  1  0  0  0
 50127  1  0  0  0
 51 52  1  0  0  0
 51128  1  0  0  0
 51129  1  0  0  0
 52130  1  0  0  0
 52131  1  0  0  0
 53 54  1  0  0  0
 54 55  2  0  0  0
 54132  1  0  0  0
 55 57  1  0  0  0
 55133  1  0  0  0
 56 69  2  0  0  0
 57 58  2  0  0  0
 57134  1  0  0  0
 58135  1  0  0  0
 59 60  1  0  0  0
 59 61  1  0  0  0
 59 62  1  0  0  0
 60136  1  0  0  0
 60137  1  0  0  0
 60138  1  0  0  0
 61139  1  0  0  0
 61140  1  0  0  0
 61141  1  0  0  0
 62142  1  0  0  0
 62143  1  0  0  0
 62144  1  0  0  0
 63 65  1  0  0  0
 63145  1  0  0  0
 63146  1  0  0  0
 63147  1  0  0  0
 64148  1  0  0  0
 65149  1  0  0  0
 68 88  1  0  0  0
 71 73  2  0  0  0
 71 74  1  0  0  0
 71150  1  0  0  0
 72 73  1  0  0  0
 72 75  2  0  0  0
 72 79  1  0  0  0
 73 82  1  0  0  0
 74 76  2  0  0  0
 74 83  1  0  0  0
 75 76  1  0  0  0
 75 84  1  0  0  0
 76 89  1  0  0  0
 77 79  1  0  0  0
 77 80  1  0  0  0
 77151  1  0  0  0
 77152  1  0  0  0
 78 79  1  0  0  0
 78 81  1  0  0  0
 78153  1  0  0  0
 78154  1  0  0  0
 79155  1  0  0  0
 80 81  1  0  0  0
 80 88  1  0  0  0
 80156  1  0  0  0
 81 85  1  0  0  0
 81 86  1  0  0  0
 82157  1  0  0  0
 82158  1  0  0  0
 82159  1  0  0  0
 83160  1  0  0  0
 83161  1  0  0  0
 83162  1  0  0  0
 84163  1  0  0  0
 84164  1  0  0  0
 84165  1  0  0  0
 85166  1  0  0  0
 85167  1  0  0  0
 85168  1  0  0  0
 86169  1  0  0  0
 86170  1  0  0  0
 86171  1  0  0  0
 87172  1  0  0  0
 87173  1  0  0  0
 87174  1  0  0  0
 87 89  1  0  0  0
 88175  1  0  0  0
 88176  1  0  0  0
 89 90  1  0  0  0
 89177  1  0  0  0
 90178  1  0  0  0
M  ISO  4   1 100  68 101  88 101  90 100
M  END
> <chiral flag>
0

> <version>
0

> <s_m_source_file>
/data/baiqing/PycharmProjects/Reinvent-master-3.2/result/LINK_invent/BTK/process_docking_weight1_custom_sum_contain_oxygen_bond_distance_aromatic_linkinvent_7_9_3/rearranged_h_0164.sdf

> <i_m_source_file_index>
84

> <r_mmod_Potential_Energy-OPLS-2005>
188.560134887695

> <r_mmod_Stretch_Energy-OPLS-2005>
69.7570266723633

> <r_mmod_Bend_Energy-OPLS-2005>
196.915069580078

> <r_mmod_Torsional_Energy-OPLS-2005>
315.272399902344

> <r_mmod_Improper_Torsional_Energy-OPLS-2005>
7.63556718826294

> <r_mmod_Van_der_Waal_Energy-OPLS-2005>
185.766952514648

> <r_mmod_Electrostatic_Energy-OPLS-2005>
-427.837127685547

> <r_mmod_Solvation_Energy-OPLS-2005>
-186.802551269531

> <b_mmod_Minimization_Converged-OPLS-2005>
0

> <r_mmod_RMS_Derivative-OPLS-2005>
4.17788982391357

$$$$
84
                    3D
 Structure written by MMmdl.
165174  0  0  1  0            999 V2000
  -30.6679  -14.5377   20.5103 C   0  0  0  0  0  0
  -30.4219  -12.3297   19.4440 C   0  0  0  0  0  0
  -29.4992  -12.4895   18.2161 C   0  0  0  0  0  0
  -28.0216  -12.3437   18.6274 C   0  0  0  0  0  0
  -27.6543  -13.2086   19.8623 C   0  0  2  0  0  0
  -28.6956  -13.0396   20.9921 C   0  0  0  0  0  0
  -25.2588  -13.8172   20.5670 C   0  0  0  0  0  0
  -24.1854  -13.0464   20.9241 C   0  0  0  0  0  0
  -24.6385  -11.6925   20.8758 C   0  0  0  0  0  0
  -23.9040  -10.4317   21.0432 C   0  0  0  0  0  0
  -24.3604   -9.4229   21.9188 C   0  0  0  0  0  0
  -23.6305   -8.2243   22.0743 C   0  0  0  0  0  0
  -22.4291   -8.0275   21.3540 C   0  0  0  0  0  0
  -21.9915   -9.0251   20.4642 C   0  0  0  0  0  0
  -22.7223  -10.2140   20.3078 C   0  0  0  0  0  0
  -21.6845   -6.0742   22.5279 C   0  0  0  0  0  0
  -21.4006   -6.5635   23.8215 C   0  0  0  0  0  0
  -21.3666   -5.6792   24.9173 C   0  0  0  0  0  0
  -21.6050   -4.3054   24.7220 C   0  0  0  0  0  0
  -21.8822   -3.8152   23.4340 C   0  0  0  0  0  0
  -21.9184   -4.6975   22.3394 C   0  0  0  0  0  0
  -22.7875  -13.5258   21.1867 C   0  0  0  0  0  0
  -22.1661   -4.2157   21.0980 F   0  0  0  0  0  0
  -21.5626   -3.4540   25.7733 F   0  0  0  0  0  0
  -30.0187  -13.3427   20.4334 N   0  0  0  0  0  0
  -26.2982  -12.9327   20.3268 N   0  0  0  0  0  0
  -25.9304  -11.6500   20.5760 N   0  0  0  0  0  0
  -22.0484  -12.8244   22.0400 N   0  0  0  0  0  0
  -25.4339  -15.1885   20.3992 N   0  0  0  0  0  0
  -31.8288  -14.6830   20.1244 O   0  0  0  0  0  0
  -21.6643   -6.8889   21.4242 O   0  0  0  0  0  0
  -22.3597  -14.5574   20.6697 O   0  0  0  0  0  0
  -24.6190  -31.8667   23.2085 C   0  0  0  0  0  0
  -25.9042  -32.4825   23.8414 C   0  0  1  0  0  0
  -27.2427  -27.3996   20.0730 C   0  0  0  0  0  0
  -25.5875  -33.8620   24.2335 N   0  0  0  0  0  0
  -23.4106  -30.4869   21.5498 C   0  0  2  0  0  0
  -24.8565  -28.9503   20.1135 C   0  0  0  0  0  0
  -22.7432  -29.4653   22.4995 C   0  0  0  0  0  0
  -18.0292  -28.1368   22.8479 C   0  0  0  0  0  0
  -24.1491  -36.7320   23.2643 C   0  0  0  0  0  0
  -25.9444  -30.8186   21.3696 C   0  0  0  0  0  0
  -26.0206  -29.4484   20.7137 C   0  0  0  0  0  0
  -27.2116  -28.6755   20.6925 C   0  0  0  0  0  0
  -26.0516  -26.9380   19.4616 C   0  0  0  0  0  0
  -24.8682  -27.6950   19.4881 C   0  0  0  0  0  0
  -23.6218  -29.8173   20.1669 C   0  0  0  0  0  0
  -25.4108  -36.3117   24.0351 C   0  0  1  0  0  0
  -20.5886  -28.3656   23.1310 C   0  0  2  0  0  0
  -20.6787  -26.9398   22.5430 C   0  0  0  0  0  0
  -19.5774  -26.6371   21.5225 C   0  0  0  0  0  0
  -18.1943  -26.7912   22.1624 C   0  0  0  0  0  0
  -19.1536  -28.8832   23.2891 C   0  0  0  0  0  0
  -18.9451  -30.1435   23.8908 C   0  0  0  0  0  0
  -17.6448  -30.6574   24.0571 C   0  0  0  0  0  0
  -25.9024  -34.9475   23.5148 C   0  0  0  0  0  0
  -16.5352  -29.9079   23.6326 C   0  0  0  0  0  0
  -16.7281  -28.6502   23.0344 C   0  0  0  0  0  0
  -26.4474  -31.6597   25.0725 C   0  0  0  0  0  0
  -25.3735  -31.3693   26.1467 C   0  0  0  0  0  0
  -27.0300  -30.3043   24.6085 C   0  0  0  0  0  0
  -27.6044  -32.4316   25.7488 C   0  0  0  0  0  0
  -27.5583  -37.1818   24.8466 C   0  0  0  0  0  0
  -21.4155  -29.3037   22.3714 N   0  0  0  0  0  0
  -26.4294  -37.3801   23.9413 N   0  0  0  0  0  0
  -24.6768  -31.0710   22.1025 N   0  0  0  0  0  0
  -23.4187  -28.8183   23.3044 O   0  0  0  0  0  0
  -28.4119  -26.6434   20.0853 O   0  0  0  0  0  0
  -26.5579  -34.8925   22.4711 O   0  0  0  0  0  0
  -23.5353  -32.1409   23.7426 O   0  0  0  0  0  0
  -29.8244  -19.5549   20.7396 C   0  0  0  0  0  0
  -27.7649  -20.3163   21.8233 C   0  0  0  0  0  0
  -29.0208  -20.6268   21.2133 C   0  0  0  0  0  0
  -29.4184  -18.2008   20.9000 C   0  0  0  0  0  0
  -27.3690  -18.9442   21.8606 C   0  0  0  0  0  0
  -25.6913  -21.9355   21.7955 C   0  0  0  0  0  0
  -26.7656  -22.8176   22.3794 C   0  0  0  0  0  0
  -26.8589  -21.3124   22.5363 C   0  0  0  0  0  0
  -26.0491  -18.4548   22.4455 C   0  0  0  0  0  0
  -30.3410  -17.0149   20.5329 C   0  0  0  0  0  0
  -29.4684  -24.3266   20.2567 C   0  0  0  0  0  0
  -29.2470  -22.7886   20.0066 C   0  0  0  0  0  0
  -28.3347  -25.2423   19.7092 C   0  0  0  0  0  0
  -28.1993  -17.9716   21.4229 N   0  3  0  0  0  0
  -29.5379  -21.9454   21.1822 N   0  0  0  0  0  0
  -29.9048  -15.6175   20.8090 N   0  0  0  0  0  0
  -31.4678  -12.4251   19.1456 H   0  0  0  0  0  0
  -30.3233  -11.3287   19.8670 H   0  0  0  0  0  0
  -29.7480  -11.7484   17.4551 H   0  0  0  0  0  0
  -29.6595  -13.4647   17.7539 H   0  0  0  0  0  0
  -27.8451  -11.2901   18.8478 H   0  0  0  0  0  0
  -27.3683  -12.5867   17.7896 H   0  0  0  0  0  0
  -27.6811  -14.2473   19.5327 H   0  0  0  0  0  0
  -28.6819  -12.0209   21.3803 H   0  0  0  0  0  0
  -28.4603  -13.6798   21.8409 H   0  0  0  0  0  0
  -25.2757   -9.5672   22.4763 H   0  0  0  0  0  0
  -24.0000   -7.4626   22.7473 H   0  0  0  0  0  0
  -21.0837   -8.8784   19.8956 H   0  0  0  0  0  0
  -22.3706  -10.9677   19.6185 H   0  0  0  0  0  0
  -21.2013   -7.6151   23.9717 H   0  0  0  0  0  0
  -21.1477   -6.0522   25.9071 H   0  0  0  0  0  0
  -22.0600   -2.7616   23.2837 H   0  0  0  0  0  0
  -22.4083  -11.9895   22.4796 H   0  0  0  0  0  0
  -21.1105  -13.1286   22.2596 H   0  0  0  0  0  0
  -24.6021  -15.7691   20.3854 H   0  0  0  0  0  0
  -26.1499  -15.5274   19.7705 H   0  0  0  0  0  0
  -26.7120  -32.5570   23.1194 H   0  0  0  0  0  0
  -25.0046  -33.9811   25.0487 H   0  0  0  0  0  0
  -22.7000  -31.3050   21.4047 H   0  0  0  0  0  0
  -23.3745  -35.9662   23.3315 H   0  0  0  0  0  0
  -24.3577  -36.8913   22.2051 H   0  0  0  0  0  0
  -23.7239  -37.6535   23.6637 H   0  0  0  0  0  0
  -26.0466  -31.5816   20.5950 H   0  0  0  0  0  0
  -26.8388  -30.8833   21.9828 H   0  0  0  0  0  0
  -28.1156  -29.0386   21.1612 H   0  0  0  0  0  0
  -26.0069  -25.9888   18.9524 H   0  0  0  0  0  0
  -23.9727  -27.3076   19.0212 H   0  0  0  0  0  0
  -23.7341  -30.5885   19.4052 H   0  0  0  0  0  0
  -22.7480  -29.2343   19.8706 H   0  0  0  0  0  0
  -25.1283  -36.2007   25.0840 H   0  0  0  0  0  0
  -20.9979  -28.3244   24.1430 H   0  0  0  0  0  0
  -20.5685  -26.2282   23.3619 H   0  0  0  0  0  0
  -21.6651  -26.7439   22.1228 H   0  0  0  0  0  0
  -19.6923  -25.6282   21.1271 H   0  0  0  0  0  0
  -19.6706  -27.3171   20.6747 H   0  0  0  0  0  0
  -17.4218  -26.6670   21.4023 H   0  0  0  0  0  0
  -18.0325  -26.0049   22.9003 H   0  0  0  0  0  0
  -19.7928  -30.7257   24.2281 H   0  0  0  0  0  0
  -17.5011  -31.6254   24.5152 H   0  0  0  0  0  0
  -15.5358  -30.2984   23.7623 H   0  0  0  0  0  0
  -15.8692  -28.0827   22.7049 H   0  0  0  0  0  0
  -24.5908  -30.7042   25.7806 H   0  0  0  0  0  0
  -24.8919  -32.2835   26.4945 H   0  0  0  0  0  0
  -25.8080  -30.8845   27.0216 H   0  0  0  0  0  0
  -26.2838  -29.6812   24.1131 H   0  0  0  0  0  0
  -27.4066  -29.7275   25.4549 H   0  0  0  0  0  0
  -27.8683  -30.4383   23.9238 H   0  0  0  0  0  0
  -27.2667  -33.3607   26.2114 H   0  0  0  0  0  0
  -28.3834  -32.6897   25.0290 H   0  0  0  0  0  0
  -28.0745  -31.8401   26.5369 H   0  0  0  0  0  0
  -28.2620  -38.0101   24.7499 H   0  0  0  0  0  0
  -28.1062  -36.2625   24.6313 H   0  0  0  0  0  0
  -27.2294  -37.1497   25.8870 H   0  0  0  0  0  0
  -20.9304  -29.8767   21.6944 H   0  0  0  0  0  0
  -26.0193  -38.2892   24.1385 H   0  0  0  0  0  0
  -30.7924  -19.7637   20.3127 H   0  0  0  0  0  0
  -25.6634  -21.8650   20.7089 H   0  0  0  0  0  0
  -24.7214  -21.9641   22.2847 H   0  0  0  0  0  0
  -26.4949  -23.4003   23.2596 H   0  0  0  0  0  0
  -27.4014  -23.3403   21.6863 H   0  0  0  0  0  0
  -26.6842  -20.9659   23.5531 H   0  0  0  0  0  0
  -26.2305  -17.8253   23.3161 H   0  0  0  0  0  0
  -25.5063  -17.8648   21.7086 H   0  0  0  0  0  0
  -25.3791  -19.2526   22.7564 H   0  0  0  0  0  0
  -31.2873  -17.1773   21.0508 H   0  0  0  0  0  0
  -30.5645  -17.0973   19.4681 H   0  0  0  0  0  0
  -30.4124  -24.6347   19.8021 H   0  0  0  0  0  0
  -29.5814  -24.5274   21.3262 H   0  0  0  0  0  0
  -29.8563  -22.4634   19.1614 H   0  0  0  0  0  0
  -28.2127  -22.6099   19.7026 H   0  0  0  0  0  0
  -28.2974  -25.1555   18.6210 H   0  0  0  0  0  0
  -27.4052  -24.8301   20.0977 H   0  0  0  0  0  0
  -27.8879  -17.0068   21.5300 H   0  0  0  0  0  0
  -29.2871  -22.4320   22.0332 H   0  0  0  0  0  0
  -28.9512  -15.4354   21.0687 H   0  0  0  0  0  0
  1 25  1  0  0  0
  1 30  2  0  0  0
  1 86  1  0  0  0
  2  3  1  0  0  0
  2 25  1  0  0  0
  2 87  1  0  0  0
  2 88  1  0  0  0
  3  4  1  0  0  0
  3 89  1  0  0  0
  3 90  1  0  0  0
  4  5  1  0  0  0
  4 91  1  0  0  0
  4 92  1  0  0  0
  5  6  1  0  0  0
  5 26  1  0  0  0
  5 93  1  0  0  0
  6 25  1  0  0  0
  6 94  1  0  0  0
  6 95  1  0  0  0
  7  8  2  0  0  0
  7 26  1  0  0  0
  7 29  1  0  0  0
  8  9  1  0  0  0
  8 22  1  0  0  0
  9 10  1  0  0  0
  9 27  2  0  0  0
 10 11  2  0  0  0
 10 15  1  0  0  0
 11 12  1  0  0  0
 11 96  1  0  0  0
 12 13  2  0  0  0
 12 97  1  0  0  0
 13 14  1  0  0  0
 13 31  1  0  0  0
 14 15  2  0  0  0
 14 98  1  0  0  0
 15 99  1  0  0  0
 16 17  2  0  0  0
 16 21  1  0  0  0
 16 31  1  0  0  0
 17 18  1  0  0  0
 17100  1  0  0  0
 18 19  2  0  0  0
 18101  1  0  0  0
 19 20  1  0  0  0
 19 24  1  0  0  0
 20 21  2  0  0  0
 20102  1  0  0  0
 21 23  1  0  0  0
 22 28  1  0  0  0
 22 32  2  0  0  0
 26 27  1  0  0  0
 28103  1  0  0  0
 28104  1  0  0  0
 29105  1  0  0  0
 29106  1  0  0  0
 33 34  1  0  0  0
 33 66  1  0  0  0
 33 70  2  0  0  0
 34 36  1  0  0  0
 34 59  1  0  0  0
 34107  1  0  0  0
 35 44  2  0  0  0
 35 45  1  0  0  0
 35 68  1  0  0  0
 36 56  1  0  0  0
 36108  1  0  0  0
 37 39  1  0  0  0
 37 47  1  0  0  0
 37 66  1  0  0  0
 37109  1  0  0  0
 38 43  2  0  0  0
 38 46  1  0  0  0
 38 47  1  0  0  0
 39 64  1  0  0  0
 39 67  2  0  0  0
 40 52  1  0  0  0
 40 53  2  0  0  0
 40 58  1  0  0  0
 41110  1  0  0  0
 41111  1  0  0  0
 41112  1  0  0  0
 41 48  1  0  0  0
 42 43  1  0  0  0
 42 66  1  0  0  0
 42113  1  0  0  0
 42114  1  0  0  0
 43 44  1  0  0  0
 44115  1  0  0  0
 45 46  2  0  0  0
 45116  1  0  0  0
 46117  1  0  0  0
 47118  1  0  0  0
 47119  1  0  0  0
 48 56  1  0  0  0
 48 65  1  0  0  0
 48120  1  0  0  0
 49 50  1  0  0  0
 49 53  1  0  0  0
 49 64  1  0  0  0
 49121  1  0  0  0
 50 51  1  0  0  0
 50122  1  0  0  0
 50123  1  0  0  0
 51 52  1  0  0  0
 51124  1  0  0  0
 51125  1  0  0  0
 52126  1  0  0  0
 52127  1  0  0  0
 53 54  1  0  0  0
 54 55  2  0  0  0
 54128  1  0  0  0
 55 57  1  0  0  0
 55129  1  0  0  0
 56 69  2  0  0  0
 57 58  2  0  0  0
 57130  1  0  0  0
 58131  1  0  0  0
 59 60  1  0  0  0
 59 61  1  0  0  0
 59 62  1  0  0  0
 60132  1  0  0  0
 60133  1  0  0  0
 60134  1  0  0  0
 61135  1  0  0  0
 61136  1  0  0  0
 61137  1  0  0  0
 62138  1  0  0  0
 62139  1  0  0  0
 62140  1  0  0  0
 63 65  1  0  0  0
 63141  1  0  0  0
 63142  1  0  0  0
 63143  1  0  0  0
 64144  1  0  0  0
 65145  1  0  0  0
 68 83  1  0  0  0
 71 73  2  0  0  0
 71 74  1  0  0  0
 71146  1  0  0  0
 72 73  1  0  0  0
 72 75  2  0  0  0
 72 78  1  0  0  0
 73 85  1  0  0  0
 74 80  1  0  0  0
 74 84  2  0  0  0
 75 79  1  0  0  0
 75 84  1  0  0  0
 76 77  1  0  0  0
 76 78  1  0  0  0
 76147  1  0  0  0
 76148  1  0  0  0
 77 78  1  0  0  0
 77149  1  0  0  0
 77150  1  0  0  0
 78151  1  0  0  0
 79152  1  0  0  0
 79153  1  0  0  0
 79154  1  0  0  0
 80 86  1  0  0  0
 80155  1  0  0  0
 80156  1  0  0  0
 81 82  1  0  0  0
 81 83  1  0  0  0
 81157  1  0  0  0
 81158  1  0  0  0
 82 85  1  0  0  0
 82159  1  0  0  0
 82160  1  0  0  0
 83161  1  0  0  0
 83162  1  0  0  0
 84163  1  0  0  0
 85164  1  0  0  0
 86165  1  0  0  0
M  CHG  1  84   1
M  ISO  4   1 100  68 101  83 101  86 100
M  END
> <chiral flag>
0

> <version>
0

> <s_m_source_file>
/data/baiqing/PycharmProjects/Reinvent-master-3.2/result/LINK_invent/BTK/process_docking_weight1_custom_sum_contain_oxygen_bond_distance_aromatic_linkinvent_7_9_3/rearranged_h_0164.sdf

> <i_m_source_file_index>
85

> <r_mmod_Potential_Energy-OPLS-2005>
-91.8888092041016

> <r_mmod_Stretch_Energy-OPLS-2005>
51.8704795837402

> <r_mmod_Bend_Energy-OPLS-2005>
118.309120178223

> <r_mmod_Torsional_Energy-OPLS-2005>
265.391235351562

> <r_mmod_Improper_Torsional_Energy-OPLS-2005>
14.7432107925415

> <r_mmod_Van_der_Waal_Energy-OPLS-2005>
154.086944580078

> <r_mmod_Electrostatic_Energy-OPLS-2005>
-295.775115966797

> <r_mmod_Solvation_Energy-OPLS-2005>
-422.84765625

> <b_mmod_Minimization_Converged-OPLS-2005>
0

> <r_mmod_RMS_Derivative-OPLS-2005>
4.95734119415283

$$$$
85
                    3D
 Structure written by MMmdl.
171180  0  0  1  0            999 V2000
  -30.6186  -14.7565   20.4259 C   0  0  0  0  0  0
  -30.4026  -12.4543   19.4698 C   0  0  0  0  0  0
  -29.4945  -12.5099   18.2245 C   0  0  0  0  0  0
  -28.0190  -12.3437   18.6332 C   0  0  0  0  0  0
  -27.6273  -13.2419   19.8387 C   0  0  2  0  0  0
  -28.6726  -13.1947   20.9734 C   0  0  0  0  0  0
  -25.2449  -13.8230   20.5686 C   0  0  0  0  0  0
  -24.1763  -13.0432   20.9218 C   0  0  0  0  0  0
  -24.6369  -11.6923   20.8743 C   0  0  0  0  0  0
  -23.9047  -10.4274   21.0384 C   0  0  0  0  0  0
  -24.3596   -9.4202   21.9162 C   0  0  0  0  0  0
  -23.6291   -8.2228   22.0720 C   0  0  0  0  0  0
  -22.4268   -8.0260   21.3522 C   0  0  0  0  0  0
  -21.9900   -9.0224   20.4623 C   0  0  0  0  0  0
  -22.7208  -10.2118   20.3030 C   0  0  0  0  0  0
  -21.6860   -6.0716   22.5268 C   0  0  0  0  0  0
  -21.4026   -6.5616   23.8198 C   0  0  0  0  0  0
  -21.3677   -5.6772   24.9167 C   0  0  0  0  0  0
  -21.6052   -4.3032   24.7222 C   0  0  0  0  0  0
  -21.8820   -3.8127   23.4345 C   0  0  0  0  0  0
  -21.9200   -4.6942   22.3402 C   0  0  0  0  0  0
  -22.7801  -13.5205   21.1901 C   0  0  0  0  0  0
  -22.1658   -4.2125   21.0984 F   0  0  0  0  0  0
  -21.5644   -3.4508   25.7743 F   0  0  0  0  0  0
  -29.9648  -13.5442   20.3743 N   0  0  0  0  0  0
  -26.2852  -12.9432   20.3220 N   0  0  0  0  0  0
  -25.9296  -11.6567   20.5737 N   0  0  0  0  0  0
  -22.0461  -12.8165   22.0468 N   0  0  0  0  0  0
  -25.4198  -15.1938   20.4151 N   0  0  0  0  0  0
  -31.8258  -14.7834   20.1637 O   0  0  0  0  0  0
  -21.6662   -6.8846   21.4209 O   0  0  0  0  0  0
  -22.3461  -14.5502   20.6763 O   0  0  0  0  0  0
  -24.6308  -31.8554   23.1945 C   0  0  0  0  0  0
  -25.9134  -32.4754   23.8290 C   0  0  1  0  0  0
  -27.2287  -27.2653   20.1311 C   0  0  0  0  0  0
  -25.5925  -33.8555   24.2221 N   0  0  0  0  0  0
  -23.4263  -30.4762   21.5416 C   0  0  2  0  0  0
  -24.8728  -28.9136   20.1140 C   0  0  0  0  0  0
  -22.7469  -29.4616   22.4936 C   0  0  0  0  0  0
  -18.0283  -28.1383   22.8489 C   0  0  0  0  0  0
  -24.1484  -36.7269   23.2645 C   0  0  0  0  0  0
  -25.9702  -30.7707   21.3697 C   0  0  0  0  0  0
  -26.0458  -29.3917   20.7127 C   0  0  0  0  0  0
  -27.2305  -28.5882   20.6896 C   0  0  0  0  0  0
  -26.0304  -26.8350   19.5288 C   0  0  0  0  0  0
  -24.8711  -27.6430   19.5103 C   0  0  0  0  0  0
  -23.6416  -29.8044   20.1603 C   0  0  0  0  0  0
  -25.4116  -36.3070   24.0330 C   0  0  1  0  0  0
  -20.5886  -28.3698   23.1285 C   0  0  2  0  0  0
  -20.6789  -26.9419   22.5429 C   0  0  0  0  0  0
  -19.5761  -26.6381   21.5231 C   0  0  0  0  0  0
  -18.1932  -26.7931   22.1624 C   0  0  0  0  0  0
  -19.1544  -28.8853   23.2886 C   0  0  0  0  0  0
  -18.9459  -30.1458   23.8901 C   0  0  0  0  0  0
  -17.6465  -30.6590   24.0563 C   0  0  0  0  0  0
  -25.9064  -34.9447   23.5086 C   0  0  0  0  0  0
  -16.5350  -29.9088   23.6338 C   0  0  0  0  0  0
  -16.7278  -28.6504   23.0355 C   0  0  0  0  0  0
  -26.4498  -31.6580   25.0686 C   0  0  0  0  0  0
  -25.3702  -31.3738   26.1389 C   0  0  0  0  0  0
  -27.0349  -30.2992   24.6184 C   0  0  0  0  0  0
  -27.6037  -32.4328   25.7465 C   0  0  0  0  0  0
  -27.5585  -37.1777   24.8451 C   0  0  0  0  0  0
  -21.4179  -29.3036   22.3644 N   0  0  0  0  0  0
  -26.4278  -37.3785   23.9423 N   0  0  0  0  0  0
  -24.6955  -31.0515   22.0915 N   0  0  0  0  0  0
  -23.4155  -28.8199   23.3069 O   0  0  0  0  0  0
  -28.3626  -26.4271   20.0767 O   0  0  0  0  0  0
  -26.5653  -34.8939   22.4659 O   0  0  0  0  0  0
  -23.5473  -32.1368   23.7251 O   0  0  0  0  0  0
  -30.8149  -20.5233   20.1254 C   0  0  0  0  0  0
  -31.1705  -22.8902   19.3809 C   0  0  0  0  0  0
  -30.2375  -21.8782   19.8185 C   0  0  0  0  0  0
  -32.2570  -20.5027   20.2661 C   0  0  0  0  0  0
  -32.5441  -22.7555   19.6553 C   0  0  0  0  0  0
  -29.4728  -18.4008   21.4450 C   0  0  0  0  0  0
  -29.6687  -18.2776   18.9774 C   0  0  0  0  0  0
  -29.4946  -16.7906   21.5138 C   0  0  0  0  0  0
  -29.9470  -16.7129   19.0243 C   0  0  0  0  0  0
  -30.1755  -19.0261   20.2189 C   0  0  0  0  0  0
  -30.8043  -24.0862   18.4970 C   0  0  0  0  0  0
  -33.1662  -19.2985   20.5391 C   0  0  0  0  0  0
  -33.5878  -23.8329   19.4181 C   0  0  0  0  0  0
  -28.1843  -23.6751   19.6756 C   0  0  0  0  0  0
  -28.3804  -25.0091   20.5915 C   0  0  0  0  0  0
  -33.0013  -21.5999   20.1128 N   0  3  0  0  0  0
  -29.8837  -15.9507   20.3217 N   0  0  0  0  0  0
  -28.8640  -22.3251   19.9772 N   0  0  0  0  0  0
  -31.4497  -12.5409   19.1819 H   0  0  0  0  0  0
  -30.3052  -11.4853   19.9603 H   0  0  0  0  0  0
  -29.7687  -11.7304   17.5135 H   0  0  0  0  0  0
  -29.6336  -13.4603   17.7072 H   0  0  0  0  0  0
  -27.8634  -11.2935   18.8830 H   0  0  0  0  0  0
  -27.3673  -12.5414   17.7815 H   0  0  0  0  0  0
  -27.6086  -14.2630   19.4584 H   0  0  0  0  0  0
  -28.7081  -12.2007   21.4188 H   0  0  0  0  0  0
  -28.4130  -13.8879   21.7750 H   0  0  0  0  0  0
  -25.2728   -9.5693   22.4764 H   0  0  0  0  0  0
  -24.0006   -7.4611   22.7433 H   0  0  0  0  0  0
  -21.0824   -8.8694   19.8945 H   0  0  0  0  0  0
  -22.3601  -10.9640   19.6149 H   0  0  0  0  0  0
  -21.1994   -7.6124   23.9676 H   0  0  0  0  0  0
  -21.1523   -6.0525   25.9067 H   0  0  0  0  0  0
  -22.0597   -2.7580   23.2858 H   0  0  0  0  0  0
  -22.4104  -11.9824   22.4837 H   0  0  0  0  0  0
  -21.1073  -13.1158   22.2667 H   0  0  0  0  0  0
  -24.6612  -15.8591   20.5233 H   0  0  0  0  0  0
  -26.2885  -15.6211   20.1132 H   0  0  0  0  0  0
  -26.7184  -32.5402   23.1019 H   0  0  0  0  0  0
  -25.0009  -33.9667   25.0327 H   0  0  0  0  0  0
  -22.7238  -31.2998   21.3971 H   0  0  0  0  0  0
  -23.3775  -35.9567   23.3256 H   0  0  0  0  0  0
  -24.3588  -36.8939   22.2069 H   0  0  0  0  0  0
  -23.7190  -37.6436   23.6698 H   0  0  0  0  0  0
  -26.1070  -31.5349   20.6039 H   0  0  0  0  0  0
  -26.8464  -30.8160   22.0045 H   0  0  0  0  0  0
  -28.1444  -28.9706   21.1214 H   0  0  0  0  0  0
  -25.9938  -25.8628   19.0600 H   0  0  0  0  0  0
  -23.9751  -27.2712   19.0324 H   0  0  0  0  0  0
  -23.7532  -30.5802   19.4008 H   0  0  0  0  0  0
  -22.7565  -29.2395   19.8654 H   0  0  0  0  0  0
  -25.1296  -36.1905   25.0824 H   0  0  0  0  0  0
  -20.9993  -28.3290   24.1397 H   0  0  0  0  0  0
  -20.5701  -26.2307   23.3632 H   0  0  0  0  0  0
  -21.6658  -26.7455   22.1213 H   0  0  0  0  0  0
  -19.6932  -25.6288   21.1262 H   0  0  0  0  0  0
  -19.6712  -27.3193   20.6761 H   0  0  0  0  0  0
  -17.4216  -26.6686   21.4008 H   0  0  0  0  0  0
  -18.0314  -26.0069   22.9013 H   0  0  0  0  0  0
  -19.7941  -30.7281   24.2262 H   0  0  0  0  0  0
  -17.5018  -31.6281   24.5143 H   0  0  0  0  0  0
  -15.5353  -30.2989   23.7678 H   0  0  0  0  0  0
  -15.8671  -28.0838   22.7063 H   0  0  0  0  0  0
  -24.5874  -30.7107   25.7691 H   0  0  0  0  0  0
  -24.8908  -32.2920   26.4793 H   0  0  0  0  0  0
  -25.8001  -30.8903   27.0169 H   0  0  0  0  0  0
  -26.2947  -29.6724   24.1203 H   0  0  0  0  0  0
  -27.4008  -29.7279   25.4725 H   0  0  0  0  0  0
  -27.8826  -30.4243   23.9442 H   0  0  0  0  0  0
  -27.2623  -33.3624   26.2026 H   0  0  0  0  0  0
  -28.3858  -32.6893   25.0307 H   0  0  0  0  0  0
  -28.0686  -31.8461   26.5393 H   0  0  0  0  0  0
  -28.2563  -38.0121   24.7591 H   0  0  0  0  0  0
  -28.1127  -36.2661   24.6157 H   0  0  0  0  0  0
  -27.2319  -37.1275   25.8856 H   0  0  0  0  0  0
  -20.9351  -29.8689   21.6806 H   0  0  0  0  0  0
  -26.0150  -38.2843   24.1482 H   0  0  0  0  0  0
  -29.9482  -18.7749   22.3524 H   0  0  0  0  0  0
  -28.4455  -18.7641   21.4870 H   0  0  0  0  0  0
  -28.6096  -18.4791   18.8263 H   0  0  0  0  0  0
  -30.1734  -18.6799   18.0976 H   0  0  0  0  0  0
  -30.1110  -16.4877   22.3643 H   0  0  0  0  0  0
  -28.4859  -16.4732   21.7809 H   0  0  0  0  0  0
  -30.9346  -16.5651   18.5830 H   0  0  0  0  0  0
  -29.2596  -16.2187   18.3372 H   0  0  0  0  0  0
  -31.0546  -18.4262   20.3411 H   0  0  0  0  0  0
  -30.0855  -23.7906   17.7363 H   0  0  0  0  0  0
  -31.6515  -24.4265   17.9085 H   0  0  0  0  0  0
  -30.4574  -24.9617   19.0379 H   0  0  0  0  0  0
  -33.1027  -18.5678   19.7298 H   0  0  0  0  0  0
  -32.9147  -18.8122   21.4799 H   0  0  0  0  0  0
  -34.2194  -19.5811   20.6002 H   0  0  0  0  0  0
  -33.2199  -24.8158   19.7151 H   0  0  0  0  0  0
  -33.8576  -23.8601   18.3632 H   0  0  0  0  0  0
  -34.4961  -23.6333   19.9889 H   0  0  0  0  0  0
  -28.2761  -23.9196   18.6217 H   0  0  0  0  0  0
  -27.1154  -23.4575   19.7378 H   0  0  0  0  0  0
  -29.3663  -24.9238   21.0510 H   0  0  0  0  0  0
  -27.6913  -24.9506   21.4351 H   0  0  0  0  0  0
  -34.0081  -21.5153   20.2605 H   0  0  0  0  0  0
  -28.2277  -21.6055   20.2990 H   0  0  0  0  0  0
  1 25  1  0  0  0
  1 30  2  0  0  0
  1 87  1  0  0  0
  2  3  1  0  0  0
  2 25  1  0  0  0
  2 89  1  0  0  0
  2 90  1  0  0  0
  3  4  1  0  0  0
  3 91  1  0  0  0
  3 92  1  0  0  0
  4  5  1  0  0  0
  4 93  1  0  0  0
  4 94  1  0  0  0
  5  6  1  0  0  0
  5 26  1  0  0  0
  5 95  1  0  0  0
  6 25  1  0  0  0
  6 96  1  0  0  0
  6 97  1  0  0  0
  7  8  2  0  0  0
  7 26  1  0  0  0
  7 29  1  0  0  0
  8  9  1  0  0  0
  8 22  1  0  0  0
  9 10  1  0  0  0
  9 27  2  0  0  0
 10 11  2  0  0  0
 10 15  1  0  0  0
 11 12  1  0  0  0
 11 98  1  0  0  0
 12 13  2  0  0  0
 12 99  1  0  0  0
 13 14  1  0  0  0
 13 31  1  0  0  0
 14 15  2  0  0  0
 14100  1  0  0  0
 15101  1  0  0  0
 16 17  2  0  0  0
 16 21  1  0  0  0
 16 31  1  0  0  0
 17 18  1  0  0  0
 17102  1  0  0  0
 18 19  2  0  0  0
 18103  1  0  0  0
 19 20  1  0  0  0
 19 24  1  0  0  0
 20 21  2  0  0  0
 20104  1  0  0  0
 21 23  1  0  0  0
 22 28  1  0  0  0
 22 32  2  0  0  0
 26 27  1  0  0  0
 28105  1  0  0  0
 28106  1  0  0  0
 29107  1  0  0  0
 29108  1  0  0  0
 33 34  1  0  0  0
 33 66  1  0  0  0
 33 70  2  0  0  0
 34 36  1  0  0  0
 34 59  1  0  0  0
 34109  1  0  0  0
 35 44  2  0  0  0
 35 45  1  0  0  0
 35 68  1  0  0  0
 36 56  1  0  0  0
 36110  1  0  0  0
 37 39  1  0  0  0
 37 47  1  0  0  0
 37 66  1  0  0  0
 37111  1  0  0  0
 38 43  2  0  0  0
 38 46  1  0  0  0
 38 47  1  0  0  0
 39 64  1  0  0  0
 39 67  2  0  0  0
 40 52  1  0  0  0
 40 53  2  0  0  0
 40 58  1  0  0  0
 41112  1  0  0  0
 41113  1  0  0  0
 41114  1  0  0  0
 41 48  1  0  0  0
 42 43  1  0  0  0
 42 66  1  0  0  0
 42115  1  0  0  0
 42116  1  0  0  0
 43 44  1  0  0  0
 44117  1  0  0  0
 45 46  2  0  0  0
 45118  1  0  0  0
 46119  1  0  0  0
 47120  1  0  0  0
 47121  1  0  0  0
 48 56  1  0  0  0
 48 65  1  0  0  0
 48122  1  0  0  0
 49 50  1  0  0  0
 49 53  1  0  0  0
 49 64  1  0  0  0
 49123  1  0  0  0
 50 51  1  0  0  0
 50124  1  0  0  0
 50125  1  0  0  0
 51 52  1  0  0  0
 51126  1  0  0  0
 51127  1  0  0  0
 52128  1  0  0  0
 52129  1  0  0  0
 53 54  1  0  0  0
 54 55  2  0  0  0
 54130  1  0  0  0
 55 57  1  0  0  0
 55131  1  0  0  0
 56 69  2  0  0  0
 57 58  2  0  0  0
 57132  1  0  0  0
 58133  1  0  0  0
 59 60  1  0  0  0
 59 61  1  0  0  0
 59 62  1  0  0  0
 60134  1  0  0  0
 60135  1  0  0  0
 60136  1  0  0  0
 61137  1  0  0  0
 61138  1  0  0  0
 61139  1  0  0  0
 62140  1  0  0  0
 62141  1  0  0  0
 62142  1  0  0  0
 63 65  1  0  0  0
 63143  1  0  0  0
 63144  1  0  0  0
 63145  1  0  0  0
 64146  1  0  0  0
 65147  1  0  0  0
 68 85  1  0  0  0
 71 73  1  0  0  0
 71 74  2  0  0  0
 71 80  1  0  0  0
 72 73  2  0  0  0
 72 75  1  0  0  0
 72 81  1  0  0  0
 73 88  1  0  0  0
 74 82  1  0  0  0
 74 86  1  0  0  0
 75 83  1  0  0  0
 75 86  2  0  0  0
 76 78  1  0  0  0
 76 80  1  0  0  0
 76148  1  0  0  0
 76149  1  0  0  0
 77 79  1  0  0  0
 77 80  1  0  0  0
 77150  1  0  0  0
 77151  1  0  0  0
 78 87  1  0  0  0
 78152  1  0  0  0
 78153  1  0  0  0
 79 87  1  0  0  0
 79154  1  0  0  0
 79155  1  0  0  0
 80156  1  0  0  0
 81157  1  0  0  0
 81158  1  0  0  0
 81159  1  0  0  0
 82160  1  0  0  0
 82161  1  0  0  0
 82162  1  0  0  0
 83163  1  0  0  0
 83164  1  0  0  0
 83165  1  0  0  0
 84 85  1  0  0  0
 84 88  1  0  0  0
 84166  1  0  0  0
 84167  1  0  0  0
 85168  1  0  0  0
 85169  1  0  0  0
 86170  1  0  0  0
 88171  1  0  0  0
M  CHG  1  86   1
M  ISO  4   1 100  68 101  85 101  87 100
M  END
> <chiral flag>
0

> <version>
0

> <s_m_source_file>
/data/baiqing/PycharmProjects/Reinvent-master-3.2/result/LINK_invent/BTK/process_docking_weight1_custom_sum_contain_oxygen_bond_distance_aromatic_linkinvent_7_9_3/rearranged_h_0164.sdf

> <i_m_source_file_index>
86

> <r_mmod_Potential_Energy-OPLS-2005>
633.316650390625

> <r_mmod_Stretch_Energy-OPLS-2005>
172.158843994141

> <r_mmod_Bend_Energy-OPLS-2005>
320.203155517578

> <r_mmod_Torsional_Energy-OPLS-2005>
406.577606201172

> <r_mmod_Improper_Torsional_Energy-OPLS-2005>
15.8216867446899

> <r_mmod_Van_der_Waal_Energy-OPLS-2005>
169.594924926758

> <r_mmod_Electrostatic_Energy-OPLS-2005>
-154.241470336914

> <r_mmod_Solvation_Energy-OPLS-2005>
-379.799438476562

> <b_mmod_Minimization_Converged-OPLS-2005>
0

> <r_mmod_RMS_Derivative-OPLS-2005>
4.47170925140381

$$$$
86
                    3D
 Structure written by MMmdl.
159167  0  0  1  0            999 V2000
  -30.5992  -14.7745   20.4537 C   0  0  0  0  0  0
  -30.4341  -12.4724   19.4841 C   0  0  0  0  0  0
  -29.5129  -12.5117   18.2438 C   0  0  0  0  0  0
  -28.0393  -12.3320   18.6551 C   0  0  0  0  0  0
  -27.6416  -13.2345   19.8537 C   0  0  2  0  0  0
  -28.6850  -13.1796   20.9918 C   0  0  0  0  0  0
  -25.2501  -13.8198   20.5702 C   0  0  0  0  0  0
  -24.1798  -13.0439   20.9216 C   0  0  0  0  0  0
  -24.6395  -11.6918   20.8754 C   0  0  0  0  0  0
  -23.9075  -10.4292   21.0408 C   0  0  0  0  0  0
  -24.3623   -9.4204   21.9185 C   0  0  0  0  0  0
  -23.6296   -8.2239   22.0753 C   0  0  0  0  0  0
  -22.4279   -8.0279   21.3541 C   0  0  0  0  0  0
  -21.9916   -9.0256   20.4646 C   0  0  0  0  0  0
  -22.7245  -10.2134   20.3056 C   0  0  0  0  0  0
  -21.6853   -6.0736   22.5277 C   0  0  0  0  0  0
  -21.4016   -6.5642   23.8210 C   0  0  0  0  0  0
  -21.3659   -5.6794   24.9174 C   0  0  0  0  0  0
  -21.6044   -4.3057   24.7225 C   0  0  0  0  0  0
  -21.8818   -3.8148   23.4347 C   0  0  0  0  0  0
  -21.9192   -4.6964   22.3403 C   0  0  0  0  0  0
  -22.7818  -13.5214   21.1873 C   0  0  0  0  0  0
  -22.1660   -4.2149   21.0981 F   0  0  0  0  0  0
  -21.5629   -3.4540   25.7739 F   0  0  0  0  0  0
  -29.9848  -13.5394   20.4120 N   0  0  0  0  0  0
  -26.2935  -12.9413   20.3297 N   0  0  0  0  0  0
  -25.9328  -11.6552   20.5763 N   0  0  0  0  0  0
  -22.0472  -12.8198   22.0431 N   0  0  0  0  0  0
  -25.4183  -15.1923   20.4106 N   0  0  0  0  0  0
  -31.7789  -14.8786   20.1093 O   0  0  0  0  0  0
  -21.6640   -6.8878   21.4238 O   0  0  0  0  0  0
  -22.3497  -14.5517   20.6720 O   0  0  0  0  0  0
  -24.6346  -31.8529   23.1979 C   0  0  0  0  0  0
  -25.9162  -32.4738   23.8325 C   0  0  1  0  0  0
  -27.2135  -27.2220   20.1236 C   0  0  0  0  0  0
  -25.5949  -33.8542   24.2245 N   0  0  0  0  0  0
  -23.4322  -30.4772   21.5423 C   0  0  2  0  0  0
  -24.8780  -28.9235   20.1090 C   0  0  0  0  0  0
  -22.7516  -29.4596   22.4901 C   0  0  0  0  0  0
  -18.0294  -28.1388   22.8480 C   0  0  0  0  0  0
  -24.1492  -36.7274   23.2640 C   0  0  0  0  0  0
  -25.9825  -30.7505   21.3879 C   0  0  0  0  0  0
  -26.0507  -29.3709   20.7282 C   0  0  0  0  0  0
  -27.2151  -28.5302   20.7314 C   0  0  0  0  0  0
  -26.0199  -26.8708   19.4534 C   0  0  0  0  0  0
  -24.8699  -27.6815   19.4624 C   0  0  0  0  0  0
  -23.6521  -29.8154   20.1573 C   0  0  0  0  0  0
  -25.4120  -36.3058   24.0322 C   0  0  1  0  0  0
  -20.5900  -28.3704   23.1256 C   0  0  2  0  0  0
  -20.6785  -26.9416   22.5403 C   0  0  0  0  0  0
  -19.5760  -26.6379   21.5210 C   0  0  0  0  0  0
  -18.1939  -26.7928   22.1621 C   0  0  0  0  0  0
  -19.1549  -28.8863   23.2863 C   0  0  0  0  0  0
  -18.9470  -30.1460   23.8885 C   0  0  0  0  0  0
  -17.6470  -30.6588   24.0559 C   0  0  0  0  0  0
  -25.9065  -34.9429   23.5085 C   0  0  0  0  0  0
  -16.5360  -29.9084   23.6333 C   0  0  0  0  0  0
  -16.7281  -28.6502   23.0352 C   0  0  0  0  0  0
  -26.4514  -31.6575   25.0731 C   0  0  0  0  0  0
  -25.3724  -31.3741   26.1443 C   0  0  0  0  0  0
  -27.0371  -30.2982   24.6258 C   0  0  0  0  0  0
  -27.6054  -32.4330   25.7510 C   0  0  0  0  0  0
  -27.5577  -37.1794   24.8464 C   0  0  0  0  0  0
  -21.4220  -29.3048   22.3641 N   0  0  0  0  0  0
  -26.4290  -37.3760   23.9406 N   0  0  0  0  0  0
  -24.7022  -31.0460   22.0979 N   0  0  0  0  0  0
  -23.4201  -28.8135   23.3010 O   0  0  0  0  0  0
  -28.3053  -26.3097   20.2140 O   0  0  0  0  0  0
  -26.5633  -34.8910   22.4653 O   0  0  0  0  0  0
  -23.5488  -32.1375   23.7250 O   0  0  0  0  0  0
  -27.5115  -19.8738   19.0869 C   0  0  0  0  0  0
  -27.7647  -22.1318   20.0366 C   0  0  0  0  0  0
  -26.3845  -22.2814   19.6746 C   0  0  0  0  0  0
  -28.2732  -20.7351   19.9157 C   0  0  0  0  0  0
  -25.7257  -21.2862   18.9215 C   0  0  0  0  0  0
  -25.5245  -23.4568   20.1422 C   0  0  0  0  0  0
  -24.2901  -21.4401   18.4461 C   0  0  0  0  0  0
  -28.4699  -23.4818   20.5558 C   0  0  0  0  0  0
  -30.1244  -17.3808   20.2759 C   0  0  0  0  0  0
  -28.2986  -24.8779   19.6838 C   0  0  0  0  0  0
  -29.2881  -18.6181   20.9362 C   0  0  0  0  0  0
  -26.3062  -20.1374   18.5711 N   0  0  0  0  0  0
  -29.8254  -15.9141   20.6553 N   0  0  0  0  0  0
  -29.3925  -20.0780   20.5044 O   0  0  0  0  0  0
  -31.4743  -12.6008   19.1807 H   0  0  0  0  0  0
  -30.3858  -11.4976   19.9720 H   0  0  0  0  0  0
  -29.7999  -11.7349   17.5338 H   0  0  0  0  0  0
  -29.6354  -13.4632   17.7235 H   0  0  0  0  0  0
  -27.8981  -11.2836   18.9204 H   0  0  0  0  0  0
  -27.3822  -12.5206   17.8051 H   0  0  0  0  0  0
  -27.6331  -14.2543   19.4684 H   0  0  0  0  0  0
  -28.7251  -12.1846   21.4372 H   0  0  0  0  0  0
  -28.4149  -13.8645   21.7973 H   0  0  0  0  0  0
  -25.2766   -9.5681   22.4761 H   0  0  0  0  0  0
  -24.0004   -7.4632   22.7472 H   0  0  0  0  0  0
  -21.0846   -8.8776   19.8952 H   0  0  0  0  0  0
  -22.3701  -10.9676   19.6167 H   0  0  0  0  0  0
  -21.2009   -7.6149   23.9714 H   0  0  0  0  0  0
  -21.1482   -6.0526   25.9077 H   0  0  0  0  0  0
  -22.0598   -2.7609   23.2848 H   0  0  0  0  0  0
  -22.4099  -11.9864   22.4815 H   0  0  0  0  0  0
  -21.1087  -13.1212   22.2642 H   0  0  0  0  0  0
  -24.6465  -15.8422   20.5143 H   0  0  0  0  0  0
  -26.2571  -15.6295   20.0524 H   0  0  0  0  0  0
  -26.7223  -32.5373   23.1056 H   0  0  0  0  0  0
  -25.0098  -33.9677   25.0391 H   0  0  0  0  0  0
  -22.7307  -31.3013   21.3969 H   0  0  0  0  0  0
  -23.3757  -35.9604   23.3298 H   0  0  0  0  0  0
  -24.3580  -36.8904   22.2054 H   0  0  0  0  0  0
  -23.7247  -37.6472   23.6674 H   0  0  0  0  0  0
  -26.1303  -31.5101   20.6189 H   0  0  0  0  0  0
  -26.8566  -30.7955   22.0256 H   0  0  0  0  0  0
  -28.1071  -28.8646   21.2423 H   0  0  0  0  0  0
  -25.9196  -25.9516   18.9099 H   0  0  0  0  0  0
  -23.9766  -27.3386   18.9587 H   0  0  0  0  0  0
  -23.7812  -30.5940   19.4046 H   0  0  0  0  0  0
  -22.7690  -29.2534   19.8484 H   0  0  0  0  0  0
  -25.1302  -36.1898   25.0815 H   0  0  0  0  0  0
  -20.9987  -28.3284   24.1380 H   0  0  0  0  0  0
  -20.5683  -26.2312   23.3609 H   0  0  0  0  0  0
  -21.6652  -26.7438   22.1198 H   0  0  0  0  0  0
  -19.6922  -25.6286   21.1249 H   0  0  0  0  0  0
  -19.6700  -27.3181   20.6733 H   0  0  0  0  0  0
  -17.4206  -26.6669   21.4024 H   0  0  0  0  0  0
  -18.0342  -26.0073   22.9021 H   0  0  0  0  0  0
  -19.7948  -30.7275   24.2250 H   0  0  0  0  0  0
  -17.5028  -31.6268   24.5159 H   0  0  0  0  0  0
  -15.5361  -30.2982   23.7670 H   0  0  0  0  0  0
  -15.8679  -28.0819   22.7075 H   0  0  0  0  0  0
  -24.5914  -30.7069   25.7777 H   0  0  0  0  0  0
  -24.8900  -32.2912   26.4831 H   0  0  0  0  0  0
  -25.8032  -30.8951   27.0245 H   0  0  0  0  0  0
  -26.2972  -29.6716   24.1263 H   0  0  0  0  0  0
  -27.4006  -29.7260   25.4804 H   0  0  0  0  0  0
  -27.8870  -30.4234   23.9546 H   0  0  0  0  0  0
  -27.2651  -33.3643   26.2051 H   0  0  0  0  0  0
  -28.3885  -32.6868   25.0353 H   0  0  0  0  0  0
  -28.0699  -31.8479   26.5459 H   0  0  0  0  0  0
  -28.2589  -38.0095   24.7509 H   0  0  0  0  0  0
  -28.1077  -36.2623   24.6296 H   0  0  0  0  0  0
  -27.2291  -37.1447   25.8866 H   0  0  0  0  0  0
  -20.9409  -29.8776   21.6847 H   0  0  0  0  0  0
  -26.0163  -38.2832   24.1409 H   0  0  0  0  0  0
  -27.8671  -18.8845   18.8411 H   0  0  0  0  0  0
  -26.0185  -24.1602   20.8078 H   0  0  0  0  0  0
  -24.6716  -23.0789   20.7071 H   0  0  0  0  0  0
  -25.1246  -24.0010   19.2885 H   0  0  0  0  0  0
  -23.6034  -21.4708   19.2916 H   0  0  0  0  0  0
  -23.9873  -20.6100   17.8069 H   0  0  0  0  0  0
  -24.1712  -22.3562   17.8679 H   0  0  0  0  0  0
  -29.5329  -23.2764   20.6808 H   0  0  0  0  0  0
  -28.1034  -23.6582   21.5668 H   0  0  0  0  0  0
  -31.1858  -17.5628   20.4490 H   0  0  0  0  0  0
  -29.9992  -17.4424   19.1945 H   0  0  0  0  0  0
  -27.4944  -24.7301   18.9755 H   0  0  0  0  0  0
  -29.1499  -24.8681   19.0033 H   0  0  0  0  0  0
  -29.5799  -18.6354   21.9867 H   0  0  0  0  0  0
  -28.2398  -18.3237   20.9881 H   0  0  0  0  0  0
  -28.8745  -15.7271   20.9384 H   0  0  0  0  0  0
  1 25  1  0  0  0
  1 30  2  0  0  0
  1 83  1  0  0  0
  2  3  1  0  0  0
  2 25  1  0  0  0
  2 85  1  0  0  0
  2 86  1  0  0  0
  3  4  1  0  0  0
  3 87  1  0  0  0
  3 88  1  0  0  0
  4  5  1  0  0  0
  4 89  1  0  0  0
  4 90  1  0  0  0
  5  6  1  0  0  0
  5 26  1  0  0  0
  5 91  1  0  0  0
  6 25  1  0  0  0
  6 92  1  0  0  0
  6 93  1  0  0  0
  7  8  2  0  0  0
  7 26  1  0  0  0
  7 29  1  0  0  0
  8  9  1  0  0  0
  8 22  1  0  0  0
  9 10  1  0  0  0
  9 27  2  0  0  0
 10 11  2  0  0  0
 10 15  1  0  0  0
 11 12  1  0  0  0
 11 94  1  0  0  0
 12 13  2  0  0  0
 12 95  1  0  0  0
 13 14  1  0  0  0
 13 31  1  0  0  0
 14 15  2  0  0  0
 14 96  1  0  0  0
 15 97  1  0  0  0
 16 17  2  0  0  0
 16 21  1  0  0  0
 16 31  1  0  0  0
 17 18  1  0  0  0
 17 98  1  0  0  0
 18 19  2  0  0  0
 18 99  1  0  0  0
 19 20  1  0  0  0
 19 24  1  0  0  0
 20 21  2  0  0  0
 20100  1  0  0  0
 21 23  1  0  0  0
 22 28  1  0  0  0
 22 32  2  0  0  0
 26 27  1  0  0  0
 28101  1  0  0  0
 28102  1  0  0  0
 29103  1  0  0  0
 29104  1  0  0  0
 33 34  1  0  0  0
 33 66  1  0  0  0
 33 70  2  0  0  0
 34 36  1  0  0  0
 34 59  1  0  0  0
 34105  1  0  0  0
 35 44  2  0  0  0
 35 45  1  0  0  0
 35 68  1  0  0  0
 36 56  1  0  0  0
 36106  1  0  0  0
 37 39  1  0  0  0
 37 47  1  0  0  0
 37 66  1  0  0  0
 37107  1  0  0  0
 38 43  2  0  0  0
 38 46  1  0  0  0
 38 47  1  0  0  0
 39 64  1  0  0  0
 39 67  2  0  0  0
 40 52  1  0  0  0
 40 53  2  0  0  0
 40 58  1  0  0  0
 41108  1  0  0  0
 41109  1  0  0  0
 41110  1  0  0  0
 41 48  1  0  0  0
 42 43  1  0  0  0
 42 66  1  0  0  0
 42111  1  0  0  0
 42112  1  0  0  0
 43 44  1  0  0  0
 44113  1  0  0  0
 45 46  2  0  0  0
 45114  1  0  0  0
 46115  1  0  0  0
 47116  1  0  0  0
 47117  1  0  0  0
 48 56  1  0  0  0
 48 65  1  0  0  0
 48118  1  0  0  0
 49 50  1  0  0  0
 49 53  1  0  0  0
 49 64  1  0  0  0
 49119  1  0  0  0
 50 51  1  0  0  0
 50120  1  0  0  0
 50121  1  0  0  0
 51 52  1  0  0  0
 51122  1  0  0  0
 51123  1  0  0  0
 52124  1  0  0  0
 52125  1  0  0  0
 53 54  1  0  0  0
 54 55  2  0  0  0
 54126  1  0  0  0
 55 57  1  0  0  0
 55127  1  0  0  0
 56 69  2  0  0  0
 57 58  2  0  0  0
 57128  1  0  0  0
 58129  1  0  0  0
 59 60  1  0  0  0
 59 61  1  0  0  0
 59 62  1  0  0  0
 60130  1  0  0  0
 60131  1  0  0  0
 60132  1  0  0  0
 61133  1  0  0  0
 61134  1  0  0  0
 61135  1  0  0  0
 62136  1  0  0  0
 62137  1  0  0  0
 62138  1  0  0  0
 63 65  1  0  0  0
 63139  1  0  0  0
 63140  1  0  0  0
 63141  1  0  0  0
 64142  1  0  0  0
 65143  1  0  0  0
 68 80  1  0  0  0
 71 74  2  0  0  0
 71 82  1  0  0  0
 71144  1  0  0  0
 72 73  2  0  0  0
 72 74  1  0  0  0
 72 78  1  0  0  0
 73 75  1  0  0  0
 73 76  1  0  0  0
 74 84  1  0  0  0
 75 77  1  0  0  0
 75 82  2  0  0  0
 76145  1  0  0  0
 76146  1  0  0  0
 76147  1  0  0  0
 77148  1  0  0  0
 77149  1  0  0  0
 77150  1  0  0  0
 78 80  1  0  0  0
 78151  1  0  0  0
 78152  1  0  0  0
 79 81  1  0  0  0
 79 83  1  0  0  0
 79153  1  0  0  0
 79154  1  0  0  0
 80155  1  0  0  0
 80156  1  0  0  0
 81 84  1  0  0  0
 81157  1  0  0  0
 81158  1  0  0  0
 83159  1  0  0  0
M  ISO  4   1 100  68 101  80 101  83 100
M  END
> <chiral flag>
0

> <version>
0

> <s_m_source_file>
/data/baiqing/PycharmProjects/Reinvent-master-3.2/result/LINK_invent/BTK/process_docking_weight1_custom_sum_contain_oxygen_bond_distance_aromatic_linkinvent_7_9_3/rearranged_h_0164.sdf

> <i_m_source_file_index>
87

> <r_mmod_Potential_Energy-OPLS-2005>
189.186157226562

> <r_mmod_Stretch_Energy-OPLS-2005>
173.627700805664

> <r_mmod_Bend_Energy-OPLS-2005>
231.395202636719

> <r_mmod_Torsional_Energy-OPLS-2005>
251.20133972168

> <r_mmod_Improper_Torsional_Energy-OPLS-2005>
5.88739681243896

> <r_mmod_Van_der_Waal_Energy-OPLS-2005>
160.222396850586

> <r_mmod_Electrostatic_Energy-OPLS-2005>
-505.921081542969

> <r_mmod_Solvation_Energy-OPLS-2005>
-231.163726806641

> <b_mmod_Minimization_Converged-OPLS-2005>
0

> <r_mmod_RMS_Derivative-OPLS-2005>
0.427511602640152

$$$$
87
                    3D
 Structure written by MMmdl.
172182  0  0  1  0            999 V2000
  -30.7216  -14.7068   20.4469 C   0  0  0  0  0  0
  -30.4047  -12.4394   19.4520 C   0  0  0  0  0  0
  -29.4954  -12.4993   18.2115 C   0  0  0  0  0  0
  -28.0292  -12.2980   18.6294 C   0  0  0  0  0  0
  -27.6279  -13.2078   19.8152 C   0  0  2  0  0  0
  -28.6828  -13.2318   20.9485 C   0  0  0  0  0  0
  -25.2503  -13.8099   20.5663 C   0  0  0  0  0  0
  -24.1802  -13.0362   20.9223 C   0  0  0  0  0  0
  -24.6379  -11.6858   20.8757 C   0  0  0  0  0  0
  -23.9048  -10.4251   21.0412 C   0  0  0  0  0  0
  -24.3611   -9.4182   21.9195 C   0  0  0  0  0  0
  -23.6286   -8.2215   22.0753 C   0  0  0  0  0  0
  -22.4266   -8.0263   21.3545 C   0  0  0  0  0  0
  -21.9904   -9.0233   20.4649 C   0  0  0  0  0  0
  -22.7223  -10.2114   20.3054 C   0  0  0  0  0  0
  -21.6853   -6.0736   22.5292 C   0  0  0  0  0  0
  -21.4009   -6.5630   23.8229 C   0  0  0  0  0  0
  -21.3654   -5.6778   24.9192 C   0  0  0  0  0  0
  -21.6037   -4.3039   24.7248 C   0  0  0  0  0  0
  -21.8800   -3.8139   23.4364 C   0  0  0  0  0  0
  -21.9182   -4.6962   22.3424 C   0  0  0  0  0  0
  -22.7826  -13.5198   21.1878 C   0  0  0  0  0  0
  -22.1645   -4.2156   21.1001 F   0  0  0  0  0  0
  -21.5651   -3.4514   25.7755 F   0  0  0  0  0  0
  -29.9876  -13.5417   20.3508 N   0  0  0  0  0  0
  -26.2882  -12.9247   20.3155 N   0  0  0  0  0  0
  -25.9297  -11.6431   20.5730 N   0  0  0  0  0  0
  -22.0456  -12.8184   22.0425 N   0  0  0  0  0  0
  -25.4155  -15.1827   20.4101 N   0  0  0  0  0  0
  -31.9290  -14.6664   20.2040 O   0  0  0  0  0  0
  -21.6622   -6.8872   21.4247 O   0  0  0  0  0  0
  -22.3528  -14.5524   20.6754 O   0  0  0  0  0  0
  -24.6260  -31.8599   23.2002 C   0  0  0  0  0  0
  -25.9107  -32.4776   23.8339 C   0  0  1  0  0  0
  -27.2472  -27.3292   20.1380 C   0  0  0  0  0  0
  -25.5913  -33.8567   24.2263 N   0  0  0  0  0  0
  -23.4234  -30.4786   21.5399 C   0  0  2  0  0  0
  -24.8775  -28.9209   20.1248 C   0  0  0  0  0  0
  -22.7476  -29.4626   22.4911 C   0  0  0  0  0  0
  -18.0294  -28.1419   22.8482 C   0  0  0  0  0  0
  -24.1491  -36.7294   23.2643 C   0  0  0  0  0  0
  -25.9611  -30.7924   21.3733 C   0  0  0  0  0  0
  -26.0411  -29.4139   20.7299 C   0  0  0  0  0  0
  -27.2306  -28.6291   20.7266 C   0  0  0  0  0  0
  -26.0644  -26.8735   19.5251 C   0  0  0  0  0  0
  -24.8875  -27.6529   19.5158 C   0  0  0  0  0  0
  -23.6447  -29.8025   20.1597 C   0  0  0  0  0  0
  -25.4117  -36.3071   24.0323 C   0  0  1  0  0  0
  -20.5889  -28.3723   23.1281 C   0  0  2  0  0  0
  -20.6785  -26.9442   22.5416 C   0  0  0  0  0  0
  -19.5754  -26.6398   21.5230 C   0  0  0  0  0  0
  -18.1934  -26.7957   22.1636 C   0  0  0  0  0  0
  -19.1544  -28.8886   23.2879 C   0  0  0  0  0  0
  -18.9462  -30.1485   23.8907 C   0  0  0  0  0  0
  -17.6459  -30.6608   24.0587 C   0  0  0  0  0  0
  -25.9047  -34.9445   23.5096 C   0  0  0  0  0  0
  -16.5354  -29.9115   23.6328 C   0  0  0  0  0  0
  -16.7281  -28.6541   23.0329 C   0  0  0  0  0  0
  -26.4494  -31.6592   25.0714 C   0  0  0  0  0  0
  -25.3719  -31.3742   26.1430 C   0  0  0  0  0  0
  -27.0335  -30.3010   24.6187 C   0  0  0  0  0  0
  -27.6046  -32.4326   25.7484 C   0  0  0  0  0  0
  -27.5578  -37.1806   24.8454 C   0  0  0  0  0  0
  -21.4188  -29.3066   22.3660 N   0  0  0  0  0  0
  -26.4287  -37.3773   23.9400 N   0  0  0  0  0  0
  -24.6885  -31.0597   22.0961 N   0  0  0  0  0  0
  -23.4183  -28.8174   23.3005 O   0  0  0  0  0  0
  -28.3924  -26.5345   20.0356 O   0  0  0  0  0  0
  -26.5621  -34.8920   22.4666 O   0  0  0  0  0  0
  -23.5416  -32.1376   23.7336 O   0  0  0  0  0  0
  -29.1404  -21.4794   20.3348 C   0  0  0  0  0  0
  -29.6335  -20.4555   19.4503 C   0  0  0  0  0  0
  -29.8195  -20.8660   18.0920 C   0  0  0  0  0  0
  -29.4678  -22.1944   17.7166 C   0  0  0  0  0  0
  -28.8329  -22.8106   19.8664 C   0  0  0  0  0  0
  -29.4823  -22.6707   16.2697 C   0  0  0  0  0  0
  -30.3130  -21.7933   15.3391 C   0  0  0  0  0  0
  -29.9765  -20.3224   15.5844 C   0  0  0  0  0  0
  -30.4324  -18.5521   21.2349 C   0  0  0  0  0  0
  -28.7312  -17.9755   19.6364 C   0  0  0  0  0  0
  -30.9464  -17.0545   21.2860 C   0  0  0  0  0  0
  -29.0613  -16.4406   19.7472 C   0  0  0  0  0  0
  -29.9098  -18.9361   19.8444 C   0  0  0  0  0  0
  -30.3620  -19.9016   17.0138 C   0  0  1  0  0  0
  -31.8968  -19.7475   17.0931 C   0  0  0  0  0  0
  -28.0549  -23.9025   20.6824 C   0  0  0  0  0  0
  -28.5992  -25.3863   20.9343 C   0  0  0  0  0  0
  -28.9979  -23.1217   18.5712 N   0  0  0  0  0  0
  -30.1270  -15.9520   20.6698 N   0  0  0  0  0  0
  -31.4489  -12.5053   19.1453 H   0  0  0  0  0  0
  -30.2984  -11.4807   19.9639 H   0  0  0  0  0  0
  -29.7909  -11.7366   17.4887 H   0  0  0  0  0  0
  -29.6108  -13.4623   17.7075 H   0  0  0  0  0  0
  -27.8971  -11.2507   18.8970 H   0  0  0  0  0  0
  -27.3725  -12.4783   17.7779 H   0  0  0  0  0  0
  -27.5675  -14.1841   19.3555 H   0  0  0  0  0  0
  -28.7224  -12.2735   21.4671 H   0  0  0  0  0  0
  -28.4164  -13.9835   21.6923 H   0  0  0  0  0  0
  -25.2744   -9.5645   22.4798 H   0  0  0  0  0  0
  -23.9979   -7.4583   22.7443 H   0  0  0  0  0  0
  -21.0849   -8.8727   19.8959 H   0  0  0  0  0  0
  -22.3654  -10.9661   19.6178 H   0  0  0  0  0  0
  -21.1979   -7.6135   23.9728 H   0  0  0  0  0  0
  -21.1510   -6.0531   25.9097 H   0  0  0  0  0  0
  -22.0595   -2.7607   23.2870 H   0  0  0  0  0  0
  -22.4038  -11.9866   22.4861 H   0  0  0  0  0  0
  -21.1083  -13.1253   22.2606 H   0  0  0  0  0  0
  -24.6414  -15.8308   20.5223 H   0  0  0  0  0  0
  -26.2613  -15.6313   20.0863 H   0  0  0  0  0  0
  -26.7189  -32.5469   23.1102 H   0  0  0  0  0  0
  -25.0053  -33.9721   25.0401 H   0  0  0  0  0  0
  -22.7177  -31.2981   21.3865 H   0  0  0  0  0  0
  -23.3745  -35.9634   23.3300 H   0  0  0  0  0  0
  -24.3588  -36.8923   22.2058 H   0  0  0  0  0  0
  -23.7249  -37.6498   23.6671 H   0  0  0  0  0  0
  -26.0887  -31.5509   20.5998 H   0  0  0  0  0  0
  -26.8427  -30.8494   21.9996 H   0  0  0  0  0  0
  -28.1324  -29.0157   21.1819 H   0  0  0  0  0  0
  -26.0598  -25.9067   19.0435 H   0  0  0  0  0  0
  -23.9991  -27.2661   19.0364 H   0  0  0  0  0  0
  -23.7735  -30.5738   19.3991 H   0  0  0  0  0  0
  -22.7663  -29.2307   19.8533 H   0  0  0  0  0  0
  -25.1302  -36.1925   25.0815 H   0  0  0  0  0  0
  -20.9998  -28.3326   24.1398 H   0  0  0  0  0  0
  -20.5716  -26.2341   23.3632 H   0  0  0  0  0  0
  -21.6652  -26.7484   22.1198 H   0  0  0  0  0  0
  -19.6922  -25.6304   21.1280 H   0  0  0  0  0  0
  -19.6704  -27.3200   20.6757 H   0  0  0  0  0  0
  -17.4207  -26.6706   21.4038 H   0  0  0  0  0  0
  -18.0328  -26.0117   22.9047 H   0  0  0  0  0  0
  -19.7931  -30.7301   24.2280 H   0  0  0  0  0  0
  -17.5011  -31.6286   24.5195 H   0  0  0  0  0  0
  -15.5359  -30.3022   23.7646 H   0  0  0  0  0  0
  -15.8682  -28.0888   22.6999 H   0  0  0  0  0  0
  -24.5859  -30.7148   25.7734 H   0  0  0  0  0  0
  -24.8965  -32.2924   26.4883 H   0  0  0  0  0  0
  -25.8017  -30.8866   27.0186 H   0  0  0  0  0  0
  -26.2922  -29.6756   24.1204 H   0  0  0  0  0  0
  -27.4006  -29.7270   25.4704 H   0  0  0  0  0  0
  -27.8795  -30.4267   23.9429 H   0  0  0  0  0  0
  -27.2658  -33.3633   26.2038 H   0  0  0  0  0  0
  -28.3871  -32.6877   25.0327 H   0  0  0  0  0  0
  -28.0697  -31.8472   26.5420 H   0  0  0  0  0  0
  -28.2580  -38.0119   24.7504 H   0  0  0  0  0  0
  -28.1089  -36.2645   24.6266 H   0  0  0  0  0  0
  -27.2299  -37.1438   25.8861 H   0  0  0  0  0  0
  -20.9376  -29.8776   21.6856 H   0  0  0  0  0  0
  -26.0164  -38.2846   24.1409 H   0  0  0  0  0  0
  -28.9484  -21.2294   21.3699 H   0  0  0  0  0  0
  -29.8226  -23.7051   16.2027 H   0  0  0  0  0  0
  -28.4495  -22.6647   15.9189 H   0  0  0  0  0  0
  -31.3726  -21.9711   15.5198 H   0  0  0  0  0  0
  -30.1332  -22.0717   14.3030 H   0  0  0  0  0  0
  -30.4711  -19.6902   14.8448 H   0  0  0  0  0  0
  -28.9060  -20.1725   15.4328 H   0  0  0  0  0  0
  -31.2531  -19.2193   21.5068 H   0  0  0  0  0  0
  -29.6482  -18.7108   21.9754 H   0  0  0  0  0  0
  -27.9429  -18.2355   20.3450 H   0  0  0  0  0  0
  -28.2967  -18.1597   18.6553 H   0  0  0  0  0  0
  -31.1374  -16.7912   22.3278 H   0  0  0  0  0  0
  -31.9275  -17.0583   20.8071 H   0  0  0  0  0  0
  -29.2932  -16.0722   18.7443 H   0  0  0  0  0  0
  -28.1363  -15.9828   20.0658 H   0  0  0  0  0  0
  -30.6963  -18.5809   19.1909 H   0  0  0  0  0  0
  -29.9063  -18.9210   17.1521 H   0  0  0  0  0  0
  -32.4004  -20.7066   16.9868 H   0  0  0  0  0  0
  -32.2622  -19.1027   16.2931 H   0  0  0  0  0  0
  -32.2512  -19.3176   18.0271 H   0  0  0  0  0  0
  -27.9288  -23.4616   21.6706 H   0  0  0  0  0  0
  -27.0441  -23.9712   20.2803 H   0  0  0  0  0  0
  -29.6718  -25.3178   21.1141 H   0  0  0  0  0  0
  -28.1883  -25.7038   21.8942 H   0  0  0  0  0  0
  1 25  1  0  0  0
  1 30  2  0  0  0
  1 89  1  0  0  0
  2  3  1  0  0  0
  2 25  1  0  0  0
  2 90  1  0  0  0
  2 91  1  0  0  0
  3  4  1  0  0  0
  3 92  1  0  0  0
  3 93  1  0  0  0
  4  5  1  0  0  0
  4 94  1  0  0  0
  4 95  1  0  0  0
  5  6  1  0  0  0
  5 26  1  0  0  0
  5 96  1  0  0  0
  6 25  1  0  0  0
  6 97  1  0  0  0
  6 98  1  0  0  0
  7  8  2  0  0  0
  7 26  1  0  0  0
  7 29  1  0  0  0
  8  9  1  0  0  0
  8 22  1  0  0  0
  9 10  1  0  0  0
  9 27  2  0  0  0
 10 11  2  0  0  0
 10 15  1  0  0  0
 11 12  1  0  0  0
 11 99  1  0  0  0
 12 13  2  0  0  0
 12100  1  0  0  0
 13 14  1  0  0  0
 13 31  1  0  0  0
 14 15  2  0  0  0
 14101  1  0  0  0
 15102  1  0  0  0
 16 17  2  0  0  0
 16 21  1  0  0  0
 16 31  1  0  0  0
 17 18  1  0  0  0
 17103  1  0  0  0
 18 19  2  0  0  0
 18104  1  0  0  0
 19 20  1  0  0  0
 19 24  1  0  0  0
 20 21  2  0  0  0
 20105  1  0  0  0
 21 23  1  0  0  0
 22 28  1  0  0  0
 22 32  2  0  0  0
 26 27  1  0  0  0
 28106  1  0  0  0
 28107  1  0  0  0
 29108  1  0  0  0
 29109  1  0  0  0
 33 34  1  0  0  0
 33 66  1  0  0  0
 33 70  2  0  0  0
 34 36  1  0  0  0
 34 59  1  0  0  0
 34110  1  0  0  0
 35 44  2  0  0  0
 35 45  1  0  0  0
 35 68  1  0  0  0
 36 56  1  0  0  0
 36111  1  0  0  0
 37 39  1  0  0  0
 37 47  1  0  0  0
 37 66  1  0  0  0
 37112  1  0  0  0
 38 43  2  0  0  0
 38 46  1  0  0  0
 38 47  1  0  0  0
 39 64  1  0  0  0
 39 67  2  0  0  0
 40 52  1  0  0  0
 40 53  2  0  0  0
 40 58  1  0  0  0
 41113  1  0  0  0
 41114  1  0  0  0
 41115  1  0  0  0
 41 48  1  0  0  0
 42 43  1  0  0  0
 42 66  1  0  0  0
 42116  1  0  0  0
 42117  1  0  0  0
 43 44  1  0  0  0
 44118  1  0  0  0
 45 46  2  0  0  0
 45119  1  0  0  0
 46120  1  0  0  0
 47121  1  0  0  0
 47122  1  0  0  0
 48 56  1  0  0  0
 48 65  1  0  0  0
 48123  1  0  0  0
 49 50  1  0  0  0
 49 53  1  0  0  0
 49 64  1  0  0  0
 49124  1  0  0  0
 50 51  1  0  0  0
 50125  1  0  0  0
 50126  1  0  0  0
 51 52  1  0  0  0
 51127  1  0  0  0
 51128  1  0  0  0
 52129  1  0  0  0
 52130  1  0  0  0
 53 54  1  0  0  0
 54 55  2  0  0  0
 54131  1  0  0  0
 55 57  1  0  0  0
 55132  1  0  0  0
 56 69  2  0  0  0
 57 58  2  0  0  0
 57133  1  0  0  0
 58134  1  0  0  0
 59 60  1  0  0  0
 59 61  1  0  0  0
 59 62  1  0  0  0
 60135  1  0  0  0
 60136  1  0  0  0
 60137  1  0  0  0
 61138  1  0  0  0
 61139  1  0  0  0
 61140  1  0  0  0
 62141  1  0  0  0
 62142  1  0  0  0
 62143  1  0  0  0
 63 65  1  0  0  0
 63144  1  0  0  0
 63145  1  0  0  0
 63146  1  0  0  0
 64147  1  0  0  0
 65148  1  0  0  0
 68 87  1  0  0  0
 71 72  2  0  0  0
 71 75  1  0  0  0
 71149  1  0  0  0
 72 73  1  0  0  0
 72 83  1  0  0  0
 73 74  2  0  0  0
 73 84  1  0  0  0
 74 76  1  0  0  0
 74 88  1  0  0  0
 75 86  1  0  0  0
 75 88  2  0  0  0
 76 77  1  0  0  0
 76150  1  0  0  0
 76151  1  0  0  0
 77 78  1  0  0  0
 77152  1  0  0  0
 77153  1  0  0  0
 78 84  1  0  0  0
 78154  1  0  0  0
 78155  1  0  0  0
 79 81  1  0  0  0
 79 83  1  0  0  0
 79156  1  0  0  0
 79157  1  0  0  0
 80 82  1  0  0  0
 80 83  1  0  0  0
 80158  1  0  0  0
 80159  1  0  0  0
 81 89  1  0  0  0
 81160  1  0  0  0
 81161  1  0  0  0
 82 89  1  0  0  0
 82162  1  0  0  0
 82163  1  0  0  0
 83164  1  0  0  0
 84 85  1  0  0  0
 84165  1  0  0  0
 85166  1  0  0  0
 85167  1  0  0  0
 85168  1  0  0  0
 86 87  1  0  0  0
 86169  1  0  0  0
 86170  1  0  0  0
 87171  1  0  0  0
 87172  1  0  0  0
M  ISO  4   1 100  68 101  87 101  89 100
M  END
> <chiral flag>
0

> <version>
0

> <s_m_source_file>
/data/baiqing/PycharmProjects/Reinvent-master-3.2/result/LINK_invent/BTK/process_docking_weight1_custom_sum_contain_oxygen_bond_distance_aromatic_linkinvent_7_9_3/rearranged_h_0164.sdf

> <i_m_source_file_index>
88

> <r_mmod_Potential_Energy-OPLS-2005>
251.512191772461

> <r_mmod_Stretch_Energy-OPLS-2005>
95.9189376831055

> <r_mmod_Bend_Energy-OPLS-2005>
207.134475708008

> <r_mmod_Torsional_Energy-OPLS-2005>
354.928894042969

> <r_mmod_Improper_Torsional_Energy-OPLS-2005>
6.85502433776855

> <r_mmod_Van_der_Waal_Energy-OPLS-2005>
155.116012573242

> <r_mmod_Electrostatic_Energy-OPLS-2005>
-419.893218994141

> <r_mmod_Solvation_Energy-OPLS-2005>
-215.789489746094

> <b_mmod_Minimization_Converged-OPLS-2005>
0

> <r_mmod_RMS_Derivative-OPLS-2005>
4.03208351135254

$$$$
88
                    3D
 Structure written by MMmdl.
169178  0  0  1  0            999 V2000
  -30.7048  -14.5164   20.5207 C   0  0  0  0  0  0
  -30.4168  -12.3250   19.4232 C   0  0  0  0  0  0
  -29.4897  -12.4989   18.2036 C   0  0  0  0  0  0
  -28.0124  -12.3660   18.6217 C   0  0  0  0  0  0
  -27.6568  -13.2158   19.8717 C   0  0  2  0  0  0
  -28.7062  -13.0424   20.9925 C   0  0  0  0  0  0
  -25.2566  -13.8171   20.5712 C   0  0  0  0  0  0
  -24.1823  -13.0435   20.9184 C   0  0  0  0  0  0
  -24.6398  -11.6912   20.8754 C   0  0  0  0  0  0
  -23.9068  -10.4291   21.0425 C   0  0  0  0  0  0
  -24.3619   -9.4201   21.9195 C   0  0  0  0  0  0
  -23.6287   -8.2239   22.0762 C   0  0  0  0  0  0
  -22.4270   -8.0284   21.3560 C   0  0  0  0  0  0
  -21.9910   -9.0253   20.4656 C   0  0  0  0  0  0
  -22.7252  -10.2130   20.3065 C   0  0  0  0  0  0
  -21.6855   -6.0731   22.5290 C   0  0  0  0  0  0
  -21.4019   -6.5641   23.8222 C   0  0  0  0  0  0
  -21.3656   -5.6802   24.9190 C   0  0  0  0  0  0
  -21.6039   -4.3063   24.7248 C   0  0  0  0  0  0
  -21.8815   -3.8149   23.4374 C   0  0  0  0  0  0
  -21.9180   -4.6961   22.3423 C   0  0  0  0  0  0
  -22.7843  -13.5223   21.1850 C   0  0  0  0  0  0
  -22.1647   -4.2147   21.1001 F   0  0  0  0  0  0
  -21.5635   -3.4547   25.7763 F   0  0  0  0  0  0
  -30.0271  -13.3379   20.4197 N   0  0  0  0  0  0
  -26.3011  -12.9358   20.3403 N   0  0  0  0  0  0
  -25.9331  -11.6508   20.5793 N   0  0  0  0  0  0
  -22.0484  -12.8206   22.0392 N   0  0  0  0  0  0
  -25.4265  -15.1895   20.4166 N   0  0  0  0  0  0
  -31.8610  -14.6450   20.1073 O   0  0  0  0  0  0
  -21.6643   -6.8876   21.4250 O   0  0  0  0  0  0
  -22.3506  -14.5525   20.6696 O   0  0  0  0  0  0
  -24.6201  -31.8650   23.2087 C   0  0  0  0  0  0
  -25.9069  -32.4813   23.8399 C   0  0  1  0  0  0
  -27.2240  -27.4136   20.0853 C   0  0  0  0  0  0
  -25.5900  -33.8608   24.2316 N   0  0  0  0  0  0
  -23.4108  -30.4903   21.5507 C   0  0  2  0  0  0
  -24.8607  -28.9675   20.1023 C   0  0  0  0  0  0
  -22.7446  -29.4646   22.4973 C   0  0  0  0  0  0
  -18.0277  -28.1374   22.8498 C   0  0  0  0  0  0
  -24.1480  -36.7312   23.2635 C   0  0  0  0  0  0
  -25.9460  -30.8270   21.3667 C   0  0  0  0  0  0
  -26.0288  -29.4671   20.6976 C   0  0  0  0  0  0
  -27.2255  -28.6990   20.6849 C   0  0  0  0  0  0
  -26.0412  -26.9385   19.4904 C   0  0  0  0  0  0
  -24.8643  -27.7052   19.4895 C   0  0  0  0  0  0
  -23.6194  -29.8305   20.1631 C   0  0  0  0  0  0
  -25.4105  -36.3108   24.0335 C   0  0  1  0  0  0
  -20.5874  -28.3669   23.1303 C   0  0  2  0  0  0
  -20.6764  -26.9397   22.5414 C   0  0  0  0  0  0
  -19.5739  -26.6379   21.5213 C   0  0  0  0  0  0
  -18.1919  -26.7920   22.1625 C   0  0  0  0  0  0
  -19.1527  -28.8837   23.2896 C   0  0  0  0  0  0
  -18.9452  -30.1447   23.8903 C   0  0  0  0  0  0
  -17.6453  -30.6581   24.0561 C   0  0  0  0  0  0
  -25.9041  -34.9472   23.5130 C   0  0  0  0  0  0
  -16.5343  -29.9080   23.6331 C   0  0  0  0  0  0
  -16.7265  -28.6492   23.0360 C   0  0  0  0  0  0
  -26.4476  -31.6603   25.0740 C   0  0  0  0  0  0
  -25.3727  -31.3698   26.1468 C   0  0  0  0  0  0
  -27.0315  -30.3039   24.6140 C   0  0  0  0  0  0
  -27.6035  -32.4323   25.7523 C   0  0  0  0  0  0
  -27.5579  -37.1815   24.8460 C   0  0  0  0  0  0
  -21.4162  -29.3029   22.3711 N   0  0  0  0  0  0
  -26.4292  -37.3790   23.9409 N   0  0  0  0  0  0
  -24.6772  -31.0733   22.1001 N   0  0  0  0  0  0
  -23.4193  -28.8181   23.3028 O   0  0  0  0  0  0
  -28.2255  -26.4746   20.1960 O   0  0  0  0  0  0
  -26.5605  -34.8923   22.4693 O   0  0  0  0  0  0
  -23.5380  -32.1408   23.7463 O   0  0  0  0  0  0
  -28.4119  -23.4550   19.1387 C   0  0  0  0  0  0
  -29.6816  -24.0444   19.3326 C   0  0  0  0  0  0
  -28.2132  -22.0869   19.4304 C   0  0  0  0  0  0
  -30.6782  -23.2075   19.9049 C   0  0  0  0  0  0
  -29.2793  -21.3269   19.9497 C   0  0  0  0  0  0
  -30.6398  -16.6989   21.6827 C   0  0  0  0  0  0
  -29.5924  -16.6270   19.9195 C   0  0  0  0  0  0
  -29.6952  -17.6971   21.0089 C   0  0  0  0  0  0
  -26.8724  -21.4306   19.1517 C   0  0  0  0  0  0
  -32.0723  -23.7201   20.2118 C   0  0  0  0  0  0
  -29.9481  -24.7002   16.3472 C   0  0  0  0  0  0
  -30.1570  -19.1533   20.7112 C   0  0  0  0  0  0
  -29.4322  -25.7144   17.3823 C   0  0  0  0  0  0
  -29.5462  -26.6788   19.7426 C   0  0  0  0  0  0
  -29.9706  -25.4906   18.8157 C   0  0  1  0  0  0
  -30.4812  -21.8943   20.2016 N   0  0  0  0  0  0
  -29.9940  -15.6064   20.9180 N   0  0  0  0  0  0
  -29.0900  -19.9686   20.1943 O   0  0  0  0  0  0
  -31.4606  -12.4140   19.1155 H   0  0  0  0  0  0
  -30.3121  -11.3238   19.8427 H   0  0  0  0  0  0
  -29.7260  -11.7583   17.4376 H   0  0  0  0  0  0
  -29.6561  -13.4763   17.7469 H   0  0  0  0  0  0
  -27.8229  -11.3114   18.8237 H   0  0  0  0  0  0
  -27.3604  -12.6343   17.7906 H   0  0  0  0  0  0
  -27.6844  -14.2583   19.5568 H   0  0  0  0  0  0
  -28.6908  -12.0231   21.3794 H   0  0  0  0  0  0
  -28.4812  -13.6915   21.8398 H   0  0  0  0  0  0
  -25.2762   -9.5676   22.4771 H   0  0  0  0  0  0
  -23.9998   -7.4633   22.7477 H   0  0  0  0  0  0
  -21.0841   -8.8765   19.8960 H   0  0  0  0  0  0
  -22.3704  -10.9663   19.6175 H   0  0  0  0  0  0
  -21.2013   -7.6149   23.9728 H   0  0  0  0  0  0
  -21.1484   -6.0542   25.9093 H   0  0  0  0  0  0
  -22.0590   -2.7607   23.2896 H   0  0  0  0  0  0
  -22.4073  -11.9854   22.4785 H   0  0  0  0  0  0
  -21.1114  -13.1246   22.2628 H   0  0  0  0  0  0
  -24.6647  -15.8483   20.5359 H   0  0  0  0  0  0
  -26.2964  -15.6350   20.1539 H   0  0  0  0  0  0
  -26.7150  -32.5514   23.1175 H   0  0  0  0  0  0
  -25.0041  -33.9770   25.0458 H   0  0  0  0  0  0
  -22.7007  -31.3088   21.4140 H   0  0  0  0  0  0
  -23.3744  -35.9645   23.3302 H   0  0  0  0  0  0
  -24.3575  -36.8928   22.2056 H   0  0  0  0  0  0
  -23.7232  -37.6513   23.6655 H   0  0  0  0  0  0
  -26.0657  -31.5999   20.6066 H   0  0  0  0  0  0
  -26.8297  -30.8719   21.9915 H   0  0  0  0  0  0
  -28.1152  -29.0587   21.1833 H   0  0  0  0  0  0
  -26.0214  -25.9473   19.0608 H   0  0  0  0  0  0
  -23.9661  -27.3094   19.0360 H   0  0  0  0  0  0
  -23.7199  -30.6089   19.4060 H   0  0  0  0  0  0
  -22.7441  -29.2483   19.8694 H   0  0  0  0  0  0
  -25.1287  -36.1978   25.0824 H   0  0  0  0  0  0
  -20.9967  -28.3232   24.1425 H   0  0  0  0  0  0
  -20.5669  -26.2274   23.3607 H   0  0  0  0  0  0
  -21.6634  -26.7432   22.1212 H   0  0  0  0  0  0
  -19.6901  -25.6290   21.1242 H   0  0  0  0  0  0
  -19.6683  -27.3192   20.6752 H   0  0  0  0  0  0
  -17.4197  -26.6688   21.4019 H   0  0  0  0  0  0
  -18.0306  -26.0054   22.9004 H   0  0  0  0  0  0
  -19.7923  -30.7264   24.2277 H   0  0  0  0  0  0
  -17.5000  -31.6270   24.5152 H   0  0  0  0  0  0
  -15.5344  -30.2983   23.7641 H   0  0  0  0  0  0
  -15.8665  -28.0805   22.7084 H   0  0  0  0  0  0
  -24.5913  -30.7037   25.7793 H   0  0  0  0  0  0
  -24.8903  -32.2847   26.4918 H   0  0  0  0  0  0
  -25.8067  -30.8865   27.0230 H   0  0  0  0  0  0
  -26.2882  -29.6815   24.1138 H   0  0  0  0  0  0
  -27.4010  -29.7259   25.4621 H   0  0  0  0  0  0
  -27.8748  -30.4349   23.9355 H   0  0  0  0  0  0
  -27.2635  -33.3609   26.2123 H   0  0  0  0  0  0
  -28.3847  -32.6906   25.0365 H   0  0  0  0  0  0
  -28.0697  -31.8433   26.5432 H   0  0  0  0  0  0
  -28.2595  -38.0114   24.7517 H   0  0  0  0  0  0
  -28.1081  -36.2647   24.6278 H   0  0  0  0  0  0
  -27.2296  -37.1456   25.8861 H   0  0  0  0  0  0
  -20.9328  -29.8754   21.6935 H   0  0  0  0  0  0
  -26.0180  -38.2872   24.1401 H   0  0  0  0  0  0
  -27.6043  -24.0331   18.7137 H   0  0  0  0  0  0
  -30.5050  -16.6394   22.7638 H   0  0  0  0  0  0
  -31.6900  -16.8723   21.4356 H   0  0  0  0  0  0
  -30.3030  -16.7664   19.1018 H   0  0  0  0  0  0
  -28.5798  -16.5132   19.5324 H   0  0  0  0  0  0
  -28.7647  -17.7097   21.5796 H   0  0  0  0  0  0
  -26.1386  -22.1484   18.7838 H   0  0  0  0  0  0
  -26.4764  -20.9713   20.0579 H   0  0  0  0  0  0
  -26.9853  -20.6480   18.4006 H   0  0  0  0  0  0
  -32.0313  -24.7197   20.6424 H   0  0  0  0  0  0
  -32.6714  -23.7580   19.3024 H   0  0  0  0  0  0
  -32.5835  -23.0781   20.9308 H   0  0  0  0  0  0
  -29.5278  -24.9060   15.3628 H   0  0  0  0  0  0
  -29.6808  -23.6766   16.6072 H   0  0  0  0  0  0
  -31.0340  -24.7476   16.2558 H   0  0  0  0  0  0
  -30.9850  -19.1505   20.0015 H   0  0  0  0  0  0
  -30.5298  -19.6079   21.6306 H   0  0  0  0  0  0
  -28.3424  -25.7073   17.3845 H   0  0  0  0  0  0
  -29.7108  -26.7146   17.0482 H   0  0  0  0  0  0
  -29.6589  -27.6408   19.2391 H   0  0  0  0  0  0
  -30.1917  -26.7066   20.6213 H   0  0  0  0  0  0
  -31.0512  -25.5854   18.7098 H   0  0  0  0  0  0
  1 25  1  0  0  0
  1 30  2  0  0  0
  1 87  1  0  0  0
  2  3  1  0  0  0
  2 25  1  0  0  0
  2 89  1  0  0  0
  2 90  1  0  0  0
  3  4  1  0  0  0
  3 91  1  0  0  0
  3 92  1  0  0  0
  4  5  1  0  0  0
  4 93  1  0  0  0
  4 94  1  0  0  0
  5  6  1  0  0  0
  5 26  1  0  0  0
  5 95  1  0  0  0
  6 25  1  0  0  0
  6 96  1  0  0  0
  6 97  1  0  0  0
  7  8  2  0  0  0
  7 26  1  0  0  0
  7 29  1  0  0  0
  8  9  1  0  0  0
  8 22  1  0  0  0
  9 10  1  0  0  0
  9 27  2  0  0  0
 10 11  2  0  0  0
 10 15  1  0  0  0
 11 12  1  0  0  0
 11 98  1  0  0  0
 12 13  2  0  0  0
 12 99  1  0  0  0
 13 14  1  0  0  0
 13 31  1  0  0  0
 14 15  2  0  0  0
 14100  1  0  0  0
 15101  1  0  0  0
 16 17  2  0  0  0
 16 21  1  0  0  0
 16 31  1  0  0  0
 17 18  1  0  0  0
 17102  1  0  0  0
 18 19  2  0  0  0
 18103  1  0  0  0
 19 20  1  0  0  0
 19 24  1  0  0  0
 20 21  2  0  0  0
 20104  1  0  0  0
 21 23  1  0  0  0
 22 28  1  0  0  0
 22 32  2  0  0  0
 26 27  1  0  0  0
 28105  1  0  0  0
 28106  1  0  0  0
 29107  1  0  0  0
 29108  1  0  0  0
 33 34  1  0  0  0
 33 66  1  0  0  0
 33 70  2  0  0  0
 34 36  1  0  0  0
 34 59  1  0  0  0
 34109  1  0  0  0
 35 44  2  0  0  0
 35 45  1  0  0  0
 35 68  1  0  0  0
 36 56  1  0  0  0
 36110  1  0  0  0
 37 39  1  0  0  0
 37 47  1  0  0  0
 37 66  1  0  0  0
 37111  1  0  0  0
 38 43  2  0  0  0
 38 46  1  0  0  0
 38 47  1  0  0  0
 39 64  1  0  0  0
 39 67  2  0  0  0
 40 52  1  0  0  0
 40 53  2  0  0  0
 40 58  1  0  0  0
 41112  1  0  0  0
 41113  1  0  0  0
 41114  1  0  0  0
 41 48  1  0  0  0
 42 43  1  0  0  0
 42 66  1  0  0  0
 42115  1  0  0  0
 42116  1  0  0  0
 43 44  1  0  0  0
 44117  1  0  0  0
 45 46  2  0  0  0
 45118  1  0  0  0
 46119  1  0  0  0
 47120  1  0  0  0
 47121  1  0  0  0
 48 56  1  0  0  0
 48 65  1  0  0  0
 48122  1  0  0  0
 49 50  1  0  0  0
 49 53  1  0  0  0
 49 64  1  0  0  0
 49123  1  0  0  0
 50 51  1  0  0  0
 50124  1  0  0  0
 50125  1  0  0  0
 51 52  1  0  0  0
 51126  1  0  0  0
 51127  1  0  0  0
 52128  1  0  0  0
 52129  1  0  0  0
 53 54  1  0  0  0
 54 55  2  0  0  0
 54130  1  0  0  0
 55 57  1  0  0  0
 55131  1  0  0  0
 56 69  2  0  0  0
 57 58  2  0  0  0
 57132  1  0  0  0
 58133  1  0  0  0
 59 60  1  0  0  0
 59 61  1  0  0  0
 59 62  1  0  0  0
 60134  1  0  0  0
 60135  1  0  0  0
 60136  1  0  0  0
 61137  1  0  0  0
 61138  1  0  0  0
 61139  1  0  0  0
 62140  1  0  0  0
 62141  1  0  0  0
 62142  1  0  0  0
 63 65  1  0  0  0
 63143  1  0  0  0
 63144  1  0  0  0
 63145  1  0  0  0
 64146  1  0  0  0
 65147  1  0  0  0
 68 84  1  0  0  0
 71 72  2  0  0  0
 71 73  1  0  0  0
 71148  1  0  0  0
 72 74  1  0  0  0
 72 85  1  0  0  0
 73 75  2  0  0  0
 73 79  1  0  0  0
 74 80  1  0  0  0
 74 86  2  0  0  0
 75 86  1  0  0  0
 75 88  1  0  0  0
 76 78  1  0  0  0
 76 87  1  0  0  0
 76149  1  0  0  0
 76150  1  0  0  0
 77 78  1  0  0  0
 77 87  1  0  0  0
 77151  1  0  0  0
 77152  1  0  0  0
 78 82  1  0  0  0
 78153  1  0  0  0
 79154  1  0  0  0
 79155  1  0  0  0
 79156  1  0  0  0
 80157  1  0  0  0
 80158  1  0  0  0
 80159  1  0  0  0
 81 83  1  0  0  0
 81160  1  0  0  0
 81161  1  0  0  0
 81162  1  0  0  0
 82 88  1  0  0  0
 82163  1  0  0  0
 82164  1  0  0  0
 83165  1  0  0  0
 83166  1  0  0  0
 83 85  1  0  0  0
 84 85  1  0  0  0
 84167  1  0  0  0
 84168  1  0  0  0
 85169  1  0  0  0
M  ISO  4   1 100  68 101  84 101  87 100
M  END
> <chiral flag>
0

> <version>
0

> <s_m_source_file>
/data/baiqing/PycharmProjects/Reinvent-master-3.2/result/LINK_invent/BTK/process_docking_weight1_custom_sum_contain_oxygen_bond_distance_aromatic_linkinvent_7_9_3/rearranged_h_0164.sdf

> <i_m_source_file_index>
89

> <r_mmod_Potential_Energy-OPLS-2005>
-90.3489303588867

> <r_mmod_Stretch_Energy-OPLS-2005>
48.1184959411621

> <r_mmod_Bend_Energy-OPLS-2005>
137.626174926758

> <r_mmod_Torsional_Energy-OPLS-2005>
275.233001708984

> <r_mmod_Improper_Torsional_Energy-OPLS-2005>
13.0699348449707

> <r_mmod_Van_der_Waal_Energy-OPLS-2005>
143.351013183594

> <r_mmod_Electrostatic_Energy-OPLS-2005>
-530.153991699219

> <r_mmod_Solvation_Energy-OPLS-2005>
-208.843124389648

> <b_mmod_Minimization_Converged-OPLS-2005>
0

> <r_mmod_RMS_Derivative-OPLS-2005>
2.01446342468262

$$$$
89
                    3D
 Structure written by MMmdl.
174183  0  0  1  0            999 V2000
  -30.6938  -14.5708   20.5304 C   0  0  0  0  0  0
  -30.4286  -12.3621   19.4362 C   0  0  0  0  0  0
  -29.4966  -12.4934   18.2145 C   0  0  0  0  0  0
  -28.0226  -12.3332   18.6346 C   0  0  0  0  0  0
  -27.6514  -13.2055   19.8629 C   0  0  2  0  0  0
  -28.7020  -13.0721   20.9876 C   0  0  0  0  0  0
  -25.2574  -13.8134   20.5702 C   0  0  0  0  0  0
  -24.1828  -13.0413   20.9194 C   0  0  0  0  0  0
  -24.6385  -11.6880   20.8754 C   0  0  0  0  0  0
  -23.9050  -10.4275   21.0416 C   0  0  0  0  0  0
  -24.3598   -9.4193   21.9194 C   0  0  0  0  0  0
  -23.6271   -8.2231   22.0757 C   0  0  0  0  0  0
  -22.4258   -8.0273   21.3541 C   0  0  0  0  0  0
  -21.9899   -9.0248   20.4642 C   0  0  0  0  0  0
  -22.7227  -10.2127   20.3057 C   0  0  0  0  0  0
  -21.6844   -6.0731   22.5278 C   0  0  0  0  0  0
  -21.4007   -6.5638   23.8214 C   0  0  0  0  0  0
  -21.3652   -5.6791   24.9177 C   0  0  0  0  0  0
  -21.6038   -4.3051   24.7223 C   0  0  0  0  0  0
  -21.8825   -3.8143   23.4349 C   0  0  0  0  0  0
  -21.9193   -4.6959   22.3404 C   0  0  0  0  0  0
  -22.7856  -13.5230   21.1835 C   0  0  0  0  0  0
  -22.1667   -4.2145   21.0980 F   0  0  0  0  0  0
  -21.5621   -3.4538   25.7738 F   0  0  0  0  0  0
  -30.0185  -13.3871   20.4124 N   0  0  0  0  0  0
  -26.2988  -12.9289   20.3359 N   0  0  0  0  0  0
  -25.9311  -11.6458   20.5783 N   0  0  0  0  0  0
  -22.0497  -12.8231   22.0391 N   0  0  0  0  0  0
  -25.4285  -15.1849   20.4111 N   0  0  0  0  0  0
  -31.8661  -14.6882   20.1625 O   0  0  0  0  0  0
  -21.6621   -6.8873   21.4239 O   0  0  0  0  0  0
  -22.3555  -14.5541   20.6685 O   0  0  0  0  0  0
  -24.6250  -31.8643   23.2122 C   0  0  0  0  0  0
  -25.9126  -32.4797   23.8409 C   0  0  1  0  0  0
  -27.2141  -27.3525   20.0876 C   0  0  0  0  0  0
  -25.5954  -33.8594   24.2320 N   0  0  0  0  0  0
  -23.4136  -30.4969   21.5554 C   0  0  2  0  0  0
  -24.8552  -28.9701   20.1116 C   0  0  0  0  0  0
  -22.7455  -29.4666   22.4966 C   0  0  0  0  0  0
  -18.0276  -28.1380   22.8489 C   0  0  0  0  0  0
  -24.1480  -36.7284   23.2642 C   0  0  0  0  0  0
  -25.9576  -30.8018   21.3843 C   0  0  0  0  0  0
  -26.0283  -29.4368   20.7188 C   0  0  0  0  0  0
  -27.2091  -28.6376   20.7071 C   0  0  0  0  0  0
  -26.0128  -26.9532   19.4419 C   0  0  0  0  0  0
  -24.8474  -27.7294   19.4695 C   0  0  0  0  0  0
  -23.6247  -29.8468   20.1669 C   0  0  0  0  0  0
  -25.4104  -36.3085   24.0336 C   0  0  1  0  0  0
  -20.5871  -28.3689   23.1272 C   0  0  2  0  0  0
  -20.6767  -26.9416   22.5389 C   0  0  0  0  0  0
  -19.5744  -26.6374   21.5199 C   0  0  0  0  0  0
  -18.1918  -26.7926   22.1609 C   0  0  0  0  0  0
  -19.1524  -28.8852   23.2874 C   0  0  0  0  0  0
  -18.9461  -30.1452   23.8892 C   0  0  0  0  0  0
  -17.6471  -30.6596   24.0559 C   0  0  0  0  0  0
  -25.9054  -34.9457   23.5117 C   0  0  0  0  0  0
  -16.5359  -29.9101   23.6332 C   0  0  0  0  0  0
  -16.7266  -28.6506   23.0368 C   0  0  0  0  0  0
  -26.4517  -31.6598   25.0771 C   0  0  0  0  0  0
  -25.3755  -31.3690   26.1489 C   0  0  0  0  0  0
  -27.0395  -30.3038   24.6221 C   0  0  0  0  0  0
  -27.6061  -32.4347   25.7549 C   0  0  0  0  0  0
  -27.5576  -37.1785   24.8468 C   0  0  0  0  0  0
  -21.4175  -29.3056   22.3686 N   0  0  0  0  0  0
  -26.4276  -37.3789   23.9441 N   0  0  0  0  0  0
  -24.6842  -31.0691   22.1071 N   0  0  0  0  0  0
  -23.4190  -28.8176   23.3015 O   0  0  0  0  0  0
  -28.3214  -26.4881   20.1403 O   0  0  0  0  0  0
  -26.5609  -34.8924   22.4673 O   0  0  0  0  0  0
  -23.5425  -32.1438   23.7467 O   0  0  0  0  0  0
  -29.4278  -23.1468   18.9163 C   0  0  0  0  0  0
  -28.9736  -23.8998   20.0217 C   0  0  0  0  0  0
  -29.9991  -21.8553   19.0428 C   0  0  0  0  0  0
  -29.1532  -23.3316   21.3141 C   0  0  0  0  0  0
  -29.7444  -22.0310   21.4649 C   0  0  0  0  0  0
  -30.1484  -21.2622   20.3298 C   0  0  0  0  0  0
  -30.9621  -17.8725   21.7754 C   0  0  0  0  0  0
  -29.7656  -17.8575   19.6150 C   0  0  0  0  0  0
  -30.3521  -16.4771   22.1096 C   0  0  0  0  0  0
  -29.1716  -16.4623   19.9759 C   0  0  0  0  0  0
  -30.0867  -18.7453   20.8410 C   0  0  0  0  0  0
  -28.6813  -24.1001   22.5455 C   0  0  0  0  0  0
  -29.9540  -21.4543   22.8639 C   0  0  0  0  0  0
  -31.4663  -21.9085   16.9655 C   0  0  0  0  0  0
  -29.1732  -20.8260   16.8752 C   0  0  0  0  0  0
  -28.0403  -25.1076   19.7252 C   0  0  0  0  0  0
  -30.3998  -21.1283   17.7511 C   0  0  0  0  0  0
  -29.9831  -15.6713   20.9283 N   0  0  0  0  0  0
  -30.7860  -19.9943   20.4594 N   0  0  0  0  0  0
  -31.4694  -12.4709   19.1253 H   0  0  0  0  0  0
  -30.3519  -11.3676   19.8785 H   0  0  0  0  0  0
  -29.7535  -11.7451   17.4632 H   0  0  0  0  0  0
  -29.6416  -13.4657   17.7407 H   0  0  0  0  0  0
  -27.8605  -11.2805   18.8682 H   0  0  0  0  0  0
  -27.3648  -12.5635   17.7955 H   0  0  0  0  0  0
  -27.6562  -14.2344   19.5147 H   0  0  0  0  0  0
  -28.7040  -12.0591   21.3918 H   0  0  0  0  0  0
  -28.4595  -13.7308   21.8231 H   0  0  0  0  0  0
  -25.2743   -9.5668   22.4775 H   0  0  0  0  0  0
  -23.9975   -7.4624   22.7486 H   0  0  0  0  0  0
  -21.0833   -8.8773   19.8942 H   0  0  0  0  0  0
  -22.3694  -10.9672   19.6169 H   0  0  0  0  0  0
  -21.2003   -7.6146   23.9715 H   0  0  0  0  0  0
  -21.1465   -6.0519   25.9077 H   0  0  0  0  0  0
  -22.0611   -2.7606   23.2851 H   0  0  0  0  0  0
  -22.4098  -11.9888   22.4783 H   0  0  0  0  0  0
  -21.1123  -13.1284   22.2603 H   0  0  0  0  0  0
  -24.6640  -15.8422   20.5198 H   0  0  0  0  0  0
  -26.2875  -15.6227   20.1037 H   0  0  0  0  0  0
  -26.7198  -32.5478   23.1159 H   0  0  0  0  0  0
  -25.0126  -33.9735   25.0483 H   0  0  0  0  0  0
  -22.7046  -31.3168   21.4223 H   0  0  0  0  0  0
  -23.3763  -35.9591   23.3281 H   0  0  0  0  0  0
  -24.3564  -36.8936   22.2060 H   0  0  0  0  0  0
  -23.7208  -37.6463   23.6686 H   0  0  0  0  0  0
  -26.0941  -31.5701   20.6224 H   0  0  0  0  0  0
  -26.8361  -30.8384   22.0169 H   0  0  0  0  0  0
  -28.1051  -28.9882   21.2005 H   0  0  0  0  0  0
  -25.9125  -26.0235   18.9045 H   0  0  0  0  0  0
  -23.9507  -27.3685   18.9850 H   0  0  0  0  0  0
  -23.7457  -30.6310   19.4183 H   0  0  0  0  0  0
  -22.7425  -29.2810   19.8613 H   0  0  0  0  0  0
  -25.1259  -36.1929   25.0821 H   0  0  0  0  0  0
  -20.9940  -28.3272   24.1408 H   0  0  0  0  0  0
  -20.5669  -26.2301   23.3583 H   0  0  0  0  0  0
  -21.6643  -26.7447   22.1195 H   0  0  0  0  0  0
  -19.6907  -25.6280   21.1240 H   0  0  0  0  0  0
  -19.6681  -27.3170   20.6714 H   0  0  0  0  0  0
  -17.4175  -26.6675   21.4022 H   0  0  0  0  0  0
  -18.0329  -26.0061   22.8997 H   0  0  0  0  0  0
  -19.7947  -30.7251   24.2268 H   0  0  0  0  0  0
  -17.5042  -31.6282   24.5159 H   0  0  0  0  0  0
  -15.5364  -30.3014   23.7662 H   0  0  0  0  0  0
  -15.8656  -28.0819   22.7112 H   0  0  0  0  0  0
  -24.5966  -30.7001   25.7811 H   0  0  0  0  0  0
  -24.8904  -32.2835   26.4911 H   0  0  0  0  0  0
  -25.8097  -30.8879   27.0263 H   0  0  0  0  0  0
  -26.2986  -29.6763   24.1256 H   0  0  0  0  0  0
  -27.4133  -29.7314   25.4723 H   0  0  0  0  0  0
  -27.8829  -30.4361   23.9440 H   0  0  0  0  0  0
  -27.2655  -33.3653   26.2097 H   0  0  0  0  0  0
  -28.3882  -32.6894   25.0388 H   0  0  0  0  0  0
  -28.0719  -31.8498   26.5491 H   0  0  0  0  0  0
  -28.2552  -38.0126   24.7581 H   0  0  0  0  0  0
  -28.1104  -36.2655   24.6203 H   0  0  0  0  0  0
  -27.2289  -37.1328   25.8865 H   0  0  0  0  0  0
  -20.9354  -29.8798   21.6913 H   0  0  0  0  0  0
  -26.0147  -38.2844   24.1496 H   0  0  0  0  0  0
  -29.2718  -23.5450   17.9239 H   0  0  0  0  0  0
  -31.9412  -17.7202   21.3182 H   0  0  0  0  0  0
  -31.1478  -18.4086   22.7062 H   0  0  0  0  0  0
  -29.0686  -18.3796   18.9584 H   0  0  0  0  0  0
  -30.6723  -17.6998   19.0275 H   0  0  0  0  0  0
  -29.4522  -16.6138   22.7100 H   0  0  0  0  0  0
  -31.0467  -15.9193   22.7403 H   0  0  0  0  0  0
  -29.0343  -15.9068   19.0473 H   0  0  0  0  0  0
  -28.1780  -16.5913   20.4055 H   0  0  0  0  0  0
  -29.1557  -18.9965   21.3521 H   0  0  0  0  0  0
  -28.0644  -24.9657   22.3114 H   0  0  0  0  0  0
  -29.5415  -24.4644   23.1078 H   0  0  0  0  0  0
  -28.0863  -23.4607   23.1976 H   0  0  0  0  0  0
  -30.1245  -22.2250   23.6140 H   0  0  0  0  0  0
  -30.8285  -20.8062   22.9030 H   0  0  0  0  0  0
  -29.0844  -20.8696   23.1625 H   0  0  0  0  0  0
  -32.3503  -22.0838   17.5791 H   0  0  0  0  0  0
  -31.0997  -22.8768   16.6251 H   0  0  0  0  0  0
  -31.7888  -21.3526   16.0845 H   0  0  0  0  0  0
  -28.4357  -20.2415   17.4260 H   0  0  0  0  0  0
  -29.4528  -20.2497   15.9927 H   0  0  0  0  0  0
  -28.6817  -21.7359   16.5321 H   0  0  0  0  0  0
  -27.1025  -24.7814   20.1781 H   0  0  0  0  0  0
  -27.8729  -25.1266   18.6472 H   0  0  0  0  0  0
  -30.8448  -20.1640   17.9872 H   0  0  0  0  0  0
  -31.4564  -19.8278   19.7170 H   0  0  0  0  0  0
  1 25  1  0  0  0
  1 30  2  0  0  0
  1 88  1  0  0  0
  2  3  1  0  0  0
  2 25  1  0  0  0
  2 90  1  0  0  0
  2 91  1  0  0  0
  3  4  1  0  0  0
  3 92  1  0  0  0
  3 93  1  0  0  0
  4  5  1  0  0  0
  4 94  1  0  0  0
  4 95  1  0  0  0
  5  6  1  0  0  0
  5 26  1  0  0  0
  5 96  1  0  0  0
  6 25  1  0  0  0
  6 97  1  0  0  0
  6 98  1  0  0  0
  7  8  2  0  0  0
  7 26  1  0  0  0
  7 29  1  0  0  0
  8  9  1  0  0  0
  8 22  1  0  0  0
  9 10  1  0  0  0
  9 27  2  0  0  0
 10 11  2  0  0  0
 10 15  1  0  0  0
 11 12  1  0  0  0
 11 99  1  0  0  0
 12 13  2  0  0  0
 12100  1  0  0  0
 13 14  1  0  0  0
 13 31  1  0  0  0
 14 15  2  0  0  0
 14101  1  0  0  0
 15102  1  0  0  0
 16 17  2  0  0  0
 16 21  1  0  0  0
 16 31  1  0  0  0
 17 18  1  0  0  0
 17103  1  0  0  0
 18 19  2  0  0  0
 18104  1  0  0  0
 19 20  1  0  0  0
 19 24  1  0  0  0
 20 21  2  0  0  0
 20105  1  0  0  0
 21 23  1  0  0  0
 22 28  1  0  0  0
 22 32  2  0  0  0
 26 27  1  0  0  0
 28106  1  0  0  0
 28107  1  0  0  0
 29108  1  0  0  0
 29109  1  0  0  0
 33 34  1  0  0  0
 33 66  1  0  0  0
 33 70  2  0  0  0
 34 36  1  0  0  0
 34 59  1  0  0  0
 34110  1  0  0  0
 35 44  2  0  0  0
 35 45  1  0  0  0
 35 68  1  0  0  0
 36 56  1  0  0  0
 36111  1  0  0  0
 37 39  1  0  0  0
 37 47  1  0  0  0
 37 66  1  0  0  0
 37112  1  0  0  0
 38 43  2  0  0  0
 38 46  1  0  0  0
 38 47  1  0  0  0
 39 64  1  0  0  0
 39 67  2  0  0  0
 40 52  1  0  0  0
 40 53  2  0  0  0
 40 58  1  0  0  0
 41113  1  0  0  0
 41114  1  0  0  0
 41115  1  0  0  0
 41 48  1  0  0  0
 42 43  1  0  0  0
 42 66  1  0  0  0
 42116  1  0  0  0
 42117  1  0  0  0
 43 44  1  0  0  0
 44118  1  0  0  0
 45 46  2  0  0  0
 45119  1  0  0  0
 46120  1  0  0  0
 47121  1  0  0  0
 47122  1  0  0  0
 48 56  1  0  0  0
 48 65  1  0  0  0
 48123  1  0  0  0
 49 50  1  0  0  0
 49 53  1  0  0  0
 49 64  1  0  0  0
 49124  1  0  0  0
 50 51  1  0  0  0
 50125  1  0  0  0
 50126  1  0  0  0
 51 52  1  0  0  0
 51127  1  0  0  0
 51128  1  0  0  0
 52129  1  0  0  0
 52130  1  0  0  0
 53 54  1  0  0  0
 54 55  2  0  0  0
 54131  1  0  0  0
 55 57  1  0  0  0
 55132  1  0  0  0
 56 69  2  0  0  0
 57 58  2  0  0  0
 57133  1  0  0  0
 58134  1  0  0  0
 59 60  1  0  0  0
 59 61  1  0  0  0
 59 62  1  0  0  0
 60135  1  0  0  0
 60136  1  0  0  0
 60137  1  0  0  0
 61138  1  0  0  0
 61139  1  0  0  0
 61140  1  0  0  0
 62141  1  0  0  0
 62142  1  0  0  0
 62143  1  0  0  0
 63 65  1  0  0  0
 63144  1  0  0  0
 63145  1  0  0  0
 63146  1  0  0  0
 64147  1  0  0  0
 65148  1  0  0  0
 68 86  1  0  0  0
 71 72  2  0  0  0
 71 73  1  0  0  0
 71149  1  0  0  0
 72 74  1  0  0  0
 72 86  1  0  0  0
 73 76  2  0  0  0
 73 87  1  0  0  0
 74 75  2  0  0  0
 74 82  1  0  0  0
 75 76  1  0  0  0
 75 83  1  0  0  0
 76 89  1  0  0  0
 77 79  1  0  0  0
 77 81  1  0  0  0
 77150  1  0  0  0
 77151  1  0  0  0
 78 80  1  0  0  0
 78 81  1  0  0  0
 78152  1  0  0  0
 78153  1  0  0  0
 79 88  1  0  0  0
 79154  1  0  0  0
 79155  1  0  0  0
 80 88  1  0  0  0
 80156  1  0  0  0
 80157  1  0  0  0
 81 89  1  0  0  0
 81158  1  0  0  0
 82159  1  0  0  0
 82160  1  0  0  0
 82161  1  0  0  0
 83162  1  0  0  0
 83163  1  0  0  0
 83164  1  0  0  0
 84165  1  0  0  0
 84166  1  0  0  0
 84167  1  0  0  0
 84 87  1  0  0  0
 85 87  1  0  0  0
 85168  1  0  0  0
 85169  1  0  0  0
 85170  1  0  0  0
 86171  1  0  0  0
 86172  1  0  0  0
 87173  1  0  0  0
 89174  1  0  0  0
M  ISO  4   1 100  68 101  86 101  88 100
M  END
> <chiral flag>
0

> <version>
0

> <s_m_source_file>
/data/baiqing/PycharmProjects/Reinvent-master-3.2/result/LINK_invent/BTK/process_docking_weight1_custom_sum_contain_oxygen_bond_distance_aromatic_linkinvent_7_9_3/rearranged_h_0164.sdf

> <i_m_source_file_index>
90

> <r_mmod_Potential_Energy-OPLS-2005>
248.134353637695

> <r_mmod_Stretch_Energy-OPLS-2005>
64.0760955810547

> <r_mmod_Bend_Energy-OPLS-2005>
140.210296630859

> <r_mmod_Torsional_Energy-OPLS-2005>
356.457244873047

> <r_mmod_Improper_Torsional_Energy-OPLS-2005>
10.8375959396362

> <r_mmod_Van_der_Waal_Energy-OPLS-2005>
164.641265869141

> <r_mmod_Electrostatic_Energy-OPLS-2005>
-333.994262695312

> <r_mmod_Solvation_Energy-OPLS-2005>
-191.864791870117

> <b_mmod_Minimization_Converged-OPLS-2005>
0

> <r_mmod_RMS_Derivative-OPLS-2005>
1.35381734371185

$$$$
90
                    3D
 Structure written by MMmdl.
191201  0  0  1  0            999 V2000
  -30.5383  -14.8795   20.4856 C   0  0  0  0  0  0
  -30.4628  -12.5631   19.4582 C   0  0  0  0  0  0
  -29.5155  -12.5465   18.2322 C   0  0  0  0  0  0
  -28.0438  -12.3306   18.6473 C   0  0  0  0  0  0
  -27.6487  -13.1995   19.8681 C   0  0  2  0  0  0
  -28.7181  -13.0659   20.9824 C   0  0  0  0  0  0
  -25.2502  -13.7926   20.5721 C   0  0  0  0  0  0
  -24.1772  -13.0256   20.9219 C   0  0  0  0  0  0
  -24.6362  -11.6763   20.8762 C   0  0  0  0  0  0
  -23.9031  -10.4187   21.0420 C   0  0  0  0  0  0
  -24.3575   -9.4117   21.9201 C   0  0  0  0  0  0
  -23.6242   -8.2170   22.0756 C   0  0  0  0  0  0
  -22.4230   -8.0229   21.3537 C   0  0  0  0  0  0
  -21.9867   -9.0206   20.4640 C   0  0  0  0  0  0
  -22.7203  -10.2070   20.3063 C   0  0  0  0  0  0
  -21.6834   -6.0694   22.5274 C   0  0  0  0  0  0
  -21.4004   -6.5610   23.8206 C   0  0  0  0  0  0
  -21.3654   -5.6769   24.9177 C   0  0  0  0  0  0
  -21.6038   -4.3029   24.7227 C   0  0  0  0  0  0
  -21.8827   -3.8113   23.4354 C   0  0  0  0  0  0
  -21.9193   -4.6926   22.3405 C   0  0  0  0  0  0
  -22.7813  -13.5143   21.1865 C   0  0  0  0  0  0
  -22.1672   -4.2114   21.0983 F   0  0  0  0  0  0
  -21.5627   -3.4517   25.7741 F   0  0  0  0  0  0
  -29.9679  -13.5998   20.4119 N   0  0  0  0  0  0
  -26.2979  -12.9152   20.3401 N   0  0  0  0  0  0
  -25.9307  -11.6325   20.5808 N   0  0  0  0  0  0
  -22.0436  -12.8182   22.0438 N   0  0  0  0  0  0
  -25.4044  -15.1566   20.4142 N   0  0  0  0  0  0
  -31.7112  -14.9739   20.0992 O   0  0  0  0  0  0
  -21.6600   -6.8827   21.4234 O   0  0  0  0  0  0
  -22.3523  -14.5456   20.6719 O   0  0  0  0  0  0
  -24.6336  -31.8524   23.1915 C   0  0  0  0  0  0
  -25.9147  -32.4747   23.8288 C   0  0  1  0  0  0
  -27.2522  -27.2393   20.1345 C   0  0  0  0  0  0
  -25.5929  -33.8542   24.2228 N   0  0  0  0  0  0
  -23.4336  -30.4681   21.5360 C   0  0  2  0  0  0
  -24.8879  -28.9009   20.1136 C   0  0  0  0  0  0
  -22.7517  -29.4573   22.4896 C   0  0  0  0  0  0
  -18.0293  -28.1399   22.8487 C   0  0  0  0  0  0
  -24.1486  -36.7263   23.2637 C   0  0  0  0  0  0
  -25.9793  -30.7585   21.3731 C   0  0  0  0  0  0
  -26.0572  -29.3753   20.7192 C   0  0  0  0  0  0
  -27.2357  -28.5582   20.7136 C   0  0  0  0  0  0
  -26.0511  -26.8277   19.5135 C   0  0  0  0  0  0
  -24.8919  -27.6358   19.5009 C   0  0  0  0  0  0
  -23.6565  -29.7905   20.1562 C   0  0  0  0  0  0
  -25.4115  -36.3058   24.0326 C   0  0  1  0  0  0
  -20.5898  -28.3708   23.1270 C   0  0  2  0  0  0
  -20.6774  -26.9421   22.5411 C   0  0  0  0  0  0
  -19.5750  -26.6391   21.5217 C   0  0  0  0  0  0
  -18.1931  -26.7942   22.1625 C   0  0  0  0  0  0
  -19.1543  -28.8871   23.2872 C   0  0  0  0  0  0
  -18.9471  -30.1468   23.8902 C   0  0  0  0  0  0
  -17.6468  -30.6597   24.0566 C   0  0  0  0  0  0
  -25.9068  -34.9437   23.5082 C   0  0  0  0  0  0
  -16.5361  -29.9095   23.6330 C   0  0  0  0  0  0
  -16.7276  -28.6506   23.0361 C   0  0  0  0  0  0
  -26.4508  -31.6580   25.0687 C   0  0  0  0  0  0
  -25.3722  -31.3760   26.1404 C   0  0  0  0  0  0
  -27.0354  -30.2991   24.6186 C   0  0  0  0  0  0
  -27.6053  -32.4324   25.7476 C   0  0  0  0  0  0
  -27.5579  -37.1788   24.8465 C   0  0  0  0  0  0
  -21.4216  -29.3044   22.3653 N   0  0  0  0  0  0
  -26.4283  -37.3764   23.9417 N   0  0  0  0  0  0
  -24.7011  -31.0455   22.0907 N   0  0  0  0  0  0
  -23.4198  -28.8138   23.3028 O   0  0  0  0  0  0
  -28.3951  -26.3931   20.1887 O   0  0  0  0  0  0
  -26.5632  -34.8920   22.4654 O   0  0  0  0  0  0
  -23.5482  -32.1349   23.7198 O   0  0  0  0  0  0
  -25.5540  -17.7326   18.5973 C   0  0  0  0  0  0
  -25.9359  -18.1638   19.8874 C   0  0  0  0  0  0
  -24.2203  -17.7898   18.1633 C   0  0  0  0  0  0
  -24.9432  -18.7440   20.7314 C   0  0  0  0  0  0
  -23.2147  -18.2523   19.0417 C   0  0  0  0  0  0
  -23.5772  -18.7418   20.3245 C   0  0  0  0  0  0
  -30.0646  -22.8931   19.1335 C   0  0  0  0  0  0
  -28.2317  -22.3047   20.6308 C   0  0  0  0  0  0
  -29.8816  -24.4267   19.5031 C   0  0  0  0  0  0
  -28.0286  -23.8617   20.9699 C   0  0  0  0  0  0
  -27.6754  -17.3199   21.6766 C   0  0  0  0  0  0
  -28.4073  -17.5284   19.2498 C   0  0  0  0  0  0
  -28.6114  -16.0812   21.6303 C   0  0  0  0  0  0
  -27.4103  -18.0437   20.3201 C   0  0  1  0  0  0
  -29.6737  -21.8123   20.2089 C   0  0  1  0  0  0
  -28.4343  -24.9091   19.8613 C   0  0  1  0  0  0
  -29.8114  -17.4089   19.8767 C   0  0  1  0  0  0
  -23.9036  -17.3367   16.7473 C   0  0  0  0  0  0
  -25.3224  -19.3910   22.0642 C   0  0  0  0  0  0
  -21.7538  -18.2465   18.5949 C   0  0  0  0  0  0
  -22.4727  -19.2510   21.2530 C   0  0  0  0  0  0
  -31.6816  -18.8908   20.9170 C   0  0  0  0  0  0
  -29.8552  -20.2691   19.6546 C   0  0  0  0  0  0
  -30.2016  -18.8961   20.5152 C   0  0  1  0  0  0
  -29.7614  -16.0685   20.6833 N   0  0  0  0  0  0
  -31.4832  -12.7597   19.1250 H   0  0  0  0  0  0
  -30.5048  -11.5789   19.9280 H   0  0  0  0  0  0
  -29.8235  -11.7730   17.5270 H   0  0  0  0  0  0
  -29.6025  -13.4954   17.7009 H   0  0  0  0  0  0
  -27.9160  -11.2751   18.8918 H   0  0  0  0  0  0
  -27.3785  -12.5322   17.8067 H   0  0  0  0  0  0
  -27.6451  -14.2223   19.4951 H   0  0  0  0  0  0
  -28.8290  -12.0132   21.2467 H   0  0  0  0  0  0
  -28.4510  -13.5129   21.9369 H   0  0  0  0  0  0
  -25.2712   -9.5587   22.4796 H   0  0  0  0  0  0
  -23.9918   -7.4552   22.7480 H   0  0  0  0  0  0
  -21.0792   -8.8739   19.8951 H   0  0  0  0  0  0
  -22.3667  -10.9629   19.6189 H   0  0  0  0  0  0
  -21.1994   -7.6117   23.9710 H   0  0  0  0  0  0
  -21.1476   -6.0491   25.9080 H   0  0  0  0  0  0
  -22.0614   -2.7574   23.2863 H   0  0  0  0  0  0
  -22.4017  -11.9852   22.4851 H   0  0  0  0  0  0
  -21.1074  -13.1281   22.2633 H   0  0  0  0  0  0
  -24.6204  -15.7974   20.4849 H   0  0  0  0  0  0
  -26.2447  -15.6300   20.1115 H   0  0  0  0  0  0
  -26.7217  -32.5410   23.1032 H   0  0  0  0  0  0
  -25.0085  -33.9673   25.0380 H   0  0  0  0  0  0
  -22.7307  -31.2892   21.3813 H   0  0  0  0  0  0
  -23.3761  -35.9582   23.3299 H   0  0  0  0  0  0
  -24.3560  -36.8882   22.2047 H   0  0  0  0  0  0
  -23.7228  -37.6460   23.6663 H   0  0  0  0  0  0
  -26.1146  -31.5165   20.6003 H   0  0  0  0  0  0
  -26.8572  -30.8158   22.0047 H   0  0  0  0  0  0
  -28.1343  -28.9234   21.1910 H   0  0  0  0  0  0
  -25.9835  -25.8583   19.0458 H   0  0  0  0  0  0
  -23.9952  -27.2629   19.0256 H   0  0  0  0  0  0
  -23.7825  -30.5617   19.3957 H   0  0  0  0  0  0
  -22.7761  -29.2222   19.8517 H   0  0  0  0  0  0
  -25.1297  -36.1894   25.0816 H   0  0  0  0  0  0
  -20.9989  -28.3301   24.1395 H   0  0  0  0  0  0
  -20.5676  -26.2323   23.3618 H   0  0  0  0  0  0
  -21.6646  -26.7440   22.1213 H   0  0  0  0  0  0
  -19.6906  -25.6301   21.1246 H   0  0  0  0  0  0
  -19.6688  -27.3204   20.6749 H   0  0  0  0  0  0
  -17.4198  -26.6695   21.4030 H   0  0  0  0  0  0
  -18.0318  -26.0087   22.9022 H   0  0  0  0  0  0
  -19.7950  -30.7277   24.2284 H   0  0  0  0  0  0
  -17.5027  -31.6283   24.5162 H   0  0  0  0  0  0
  -15.5363  -30.3002   23.7658 H   0  0  0  0  0  0
  -15.8670  -28.0824   22.7090 H   0  0  0  0  0  0
  -24.5900  -30.7096   25.7751 H   0  0  0  0  0  0
  -24.8912  -32.2945   26.4778 H   0  0  0  0  0  0
  -25.8030  -30.8983   27.0210 H   0  0  0  0  0  0
  -26.2942  -29.6734   24.1198 H   0  0  0  0  0  0
  -27.4019  -29.7254   25.4709 H   0  0  0  0  0  0
  -27.8822  -30.4251   23.9431 H   0  0  0  0  0  0
  -27.2654  -33.3635   26.2018 H   0  0  0  0  0  0
  -28.3893  -32.6862   25.0331 H   0  0  0  0  0  0
  -28.0682  -31.8465   26.5425 H   0  0  0  0  0  0
  -28.2599  -38.0088   24.7523 H   0  0  0  0  0  0
  -28.1074  -36.2617   24.6278 H   0  0  0  0  0  0
  -27.2293  -37.1422   25.8868 H   0  0  0  0  0  0
  -20.9409  -29.8752   21.6835 H   0  0  0  0  0  0
  -26.0159  -38.2832   24.1435 H   0  0  0  0  0  0
  -26.2832  -17.3395   17.9073 H   0  0  0  0  0  0
  -31.1068  -22.7350   18.8542 H   0  0  0  0  0  0
  -29.4927  -22.6974   18.2244 H   0  0  0  0  0  0
  -27.5357  -22.0460   19.8317 H   0  0  0  0  0  0
  -27.9081  -21.7155   21.4888 H   0  0  0  0  0  0
  -30.2436  -25.0252   18.6668 H   0  0  0  0  0  0
  -30.5447  -24.6600   20.3376 H   0  0  0  0  0  0
  -28.5928  -24.0868   21.8755 H   0  0  0  0  0  0
  -26.9831  -24.0252   21.2341 H   0  0  0  0  0  0
  -28.0762  -18.0256   22.4030 H   0  0  0  0  0  0
  -26.7305  -17.0104   22.1242 H   0  0  0  0  0  0
  -28.4228  -18.1728   18.3721 H   0  0  0  0  0  0
  -28.1000  -16.5495   18.8786 H   0  0  0  0  0  0
  -27.8961  -15.3461   21.3155 H   0  0  0  0  0  0
  -28.9450  -15.8070   22.6323 H   0  0  0  0  0  0
  -27.6460  -19.0900   20.4860 H   0  0  0  0  0  0
  -30.3452  -21.9368   21.0596 H   0  0  0  0  0  0
  -27.8191  -24.7347   18.9797 H   0  0  0  0  0  0
  -30.5071  -17.2286   19.0555 H   0  0  0  0  0  0
  -24.8068  -17.2584   16.1415 H   0  0  0  0  0  0
  -23.2467  -18.0491   16.2483 H   0  0  0  0  0  0
  -23.4201  -16.3599   16.7552 H   0  0  0  0  0  0
  -26.3844  -19.5838   22.1823 H   0  0  0  0  0  0
  -24.9983  -18.7676   22.8980 H   0  0  0  0  0  0
  -24.8575  -20.3722   22.1608 H   0  0  0  0  0  0
  -21.5543  -17.4819   17.8451 H   0  0  0  0  0  0
  -21.4845  -19.2144   18.1714 H   0  0  0  0  0  0
  -21.0711  -18.0331   19.4162 H   0  0  0  0  0  0
  -22.8148  -19.6764   22.1928 H   0  0  0  0  0  0
  -21.8089  -18.4290   21.5216 H   0  0  0  0  0  0
  -21.8800  -20.0201   20.7574 H   0  0  0  0  0  0
  -31.9026  -18.0508   21.5768 H   0  0  0  0  0  0
  -31.9495  -19.8042   21.4492 H   0  0  0  0  0  0
  -32.3327  -18.8085   20.0461 H   0  0  0  0  0  0
  -30.6408  -20.3153   18.8992 H   0  0  0  0  0  0
  -28.9680  -20.1077   19.0504 H   0  0  0  0  0  0
  -29.6791  -19.0188   21.4582 H   0  0  0  0  0  0
  1 25  1  0  0  0
  1 30  2  0  0  0
  1 95  1  0  0  0
  2  3  1  0  0  0
  2 25  1  0  0  0
  2 96  1  0  0  0
  2 97  1  0  0  0
  3  4  1  0  0  0
  3 98  1  0  0  0
  3 99  1  0  0  0
  4  5  1  0  0  0
  4100  1  0  0  0
  4101  1  0  0  0
  5  6  1  0  0  0
  5 26  1  0  0  0
  5102  1  0  0  0
  6 25  1  0  0  0
  6103  1  0  0  0
  6104  1  0  0  0
  7  8  2  0  0  0
  7 26  1  0  0  0
  7 29  1  0  0  0
  8  9  1  0  0  0
  8 22  1  0  0  0
  9 10  1  0  0  0
  9 27  2  0  0  0
 10 11  2  0  0  0
 10 15  1  0  0  0
 11 12  1  0  0  0
 11105  1  0  0  0
 12 13  2  0  0  0
 12106  1  0  0  0
 13 14  1  0  0  0
 13 31  1  0  0  0
 14 15  2  0  0  0
 14107  1  0  0  0
 15108  1  0  0  0
 16 17  2  0  0  0
 16 21  1  0  0  0
 16 31  1  0  0  0
 17 18  1  0  0  0
 17109  1  0  0  0
 18 19  2  0  0  0
 18110  1  0  0  0
 19 20  1  0  0  0
 19 24  1  0  0  0
 20 21  2  0  0  0
 20111  1  0  0  0
 21 23  1  0  0  0
 22 28  1  0  0  0
 22 32  2  0  0  0
 26 27  1  0  0  0
 28112  1  0  0  0
 28113  1  0  0  0
 29114  1  0  0  0
 29115  1  0  0  0
 33 34  1  0  0  0
 33 66  1  0  0  0
 33 70  2  0  0  0
 34 36  1  0  0  0
 34 59  1  0  0  0
 34116  1  0  0  0
 35 44  2  0  0  0
 35 45  1  0  0  0
 35 68  1  0  0  0
 36 56  1  0  0  0
 36117  1  0  0  0
 37 39  1  0  0  0
 37 47  1  0  0  0
 37 66  1  0  0  0
 37118  1  0  0  0
 38 43  2  0  0  0
 38 46  1  0  0  0
 38 47  1  0  0  0
 39 64  1  0  0  0
 39 67  2  0  0  0
 40 52  1  0  0  0
 40 53  2  0  0  0
 40 58  1  0  0  0
 41119  1  0  0  0
 41120  1  0  0  0
 41121  1  0  0  0
 41 48  1  0  0  0
 42 43  1  0  0  0
 42 66  1  0  0  0
 42122  1  0  0  0
 42123  1  0  0  0
 43 44  1  0  0  0
 44124  1  0  0  0
 45 46  2  0  0  0
 45125  1  0  0  0
 46126  1  0  0  0
 47127  1  0  0  0
 47128  1  0  0  0
 48 56  1  0  0  0
 48 65  1  0  0  0
 48129  1  0  0  0
 49 50  1  0  0  0
 49 53  1  0  0  0
 49 64  1  0  0  0
 49130  1  0  0  0
 50 51  1  0  0  0
 50131  1  0  0  0
 50132  1  0  0  0
 51 52  1  0  0  0
 51133  1  0  0  0
 51134  1  0  0  0
 52135  1  0  0  0
 52136  1  0  0  0
 53 54  1  0  0  0
 54 55  2  0  0  0
 54137  1  0  0  0
 55 57  1  0  0  0
 55138  1  0  0  0
 56 69  2  0  0  0
 57 58  2  0  0  0
 57139  1  0  0  0
 58140  1  0  0  0
 59 60  1  0  0  0
 59 61  1  0  0  0
 59 62  1  0  0  0
 60141  1  0  0  0
 60142  1  0  0  0
 60143  1  0  0  0
 61144  1  0  0  0
 61145  1  0  0  0
 61146  1  0  0  0
 62147  1  0  0  0
 62148  1  0  0  0
 62149  1  0  0  0
 63 65  1  0  0  0
 63150  1  0  0  0
 63151  1  0  0  0
 63152  1  0  0  0
 64153  1  0  0  0
 65154  1  0  0  0
 68 86  1  0  0  0
 71 72  2  0  0  0
 71 73  1  0  0  0
 71155  1  0  0  0
 72 74  1  0  0  0
 72 84  1  0  0  0
 73 75  2  0  0  0
 73 88  1  0  0  0
 74 76  2  0  0  0
 74 89  1  0  0  0
 75 76  1  0  0  0
 75 90  1  0  0  0
 76 91  1  0  0  0
 77 79  1  0  0  0
 77 85  1  0  0  0
 77156  1  0  0  0
 77157  1  0  0  0
 78 80  1  0  0  0
 78 85  1  0  0  0
 78158  1  0  0  0
 78159  1  0  0  0
 79 86  1  0  0  0
 79160  1  0  0  0
 79161  1  0  0  0
 80 86  1  0  0  0
 80162  1  0  0  0
 80163  1  0  0  0
 81 83  1  0  0  0
 81 84  1  0  0  0
 81164  1  0  0  0
 81165  1  0  0  0
 82 84  1  0  0  0
 82166  1  0  0  0
 82167  1  0  0  0
 82 87  1  0  0  0
 83 95  1  0  0  0
 83168  1  0  0  0
 83169  1  0  0  0
 84170  1  0  0  0
 85 93  1  0  0  0
 85171  1  0  0  0
 86172  1  0  0  0
 87 94  1  0  0  0
 87 95  1  0  0  0
 87173  1  0  0  0
 88174  1  0  0  0
 88175  1  0  0  0
 88176  1  0  0  0
 89177  1  0  0  0
 89178  1  0  0  0
 89179  1  0  0  0
 90180  1  0  0  0
 90181  1  0  0  0
 90182  1  0  0  0
 91183  1  0  0  0
 91184  1  0  0  0
 91185  1  0  0  0
 92186  1  0  0  0
 92187  1  0  0  0
 92188  1  0  0  0
 92 94  1  0  0  0
 93 94  1  0  0  0
 93189  1  0  0  0
 93190  1  0  0  0
 94191  1  0  0  0
M  ISO  4   1 100  68 101  86 101  95 100
M  END
> <chiral flag>
0

> <version>
0

> <s_m_source_file>
/data/baiqing/PycharmProjects/Reinvent-master-3.2/result/LINK_invent/BTK/process_docking_weight1_custom_sum_contain_oxygen_bond_distance_aromatic_linkinvent_7_9_3/rearranged_h_0164.sdf

> <i_m_source_file_index>
91

> <r_mmod_Potential_Energy-OPLS-2005>
639.907043457031

> <r_mmod_Stretch_Energy-OPLS-2005>
197.51432800293

> <r_mmod_Bend_Energy-OPLS-2005>
284.119506835938

> <r_mmod_Torsional_Energy-OPLS-2005>
380.25341796875

> <r_mmod_Improper_Torsional_Energy-OPLS-2005>
7.72884225845337

> <r_mmod_Van_der_Waal_Energy-OPLS-2005>
178.833435058594

> <r_mmod_Electrostatic_Energy-OPLS-2005>
-353.938659667969

> <r_mmod_Solvation_Energy-OPLS-2005>
-170.52458190918

> <b_mmod_Minimization_Converged-OPLS-2005>
0

> <r_mmod_RMS_Derivative-OPLS-2005>
1.73025846481323

$$$$
91
                    3D
 Structure written by MMmdl.
167176  0  0  1  0            999 V2000
  -30.5054  -14.9821   20.5348 C   0  0  0  0  0  0
  -30.4536  -12.6393   19.4900 C   0  0  0  0  0  0
  -29.5261  -12.5697   18.2496 C   0  0  0  0  0  0
  -28.0559  -12.3362   18.6510 C   0  0  0  0  0  0
  -27.6318  -13.2361   19.8370 C   0  0  2  0  0  0
  -28.6702  -13.1708   20.9666 C   0  0  0  0  0  0
  -25.2491  -13.8178   20.5675 C   0  0  0  0  0  0
  -24.1790  -13.0422   20.9184 C   0  0  0  0  0  0
  -24.6388  -11.6899   20.8713 C   0  0  0  0  0  0
  -23.9069  -10.4284   21.0404 C   0  0  0  0  0  0
  -24.3626   -9.4202   21.9183 C   0  0  0  0  0  0
  -23.6304   -8.2237   22.0751 C   0  0  0  0  0  0
  -22.4281   -8.0277   21.3544 C   0  0  0  0  0  0
  -21.9920   -9.0250   20.4645 C   0  0  0  0  0  0
  -22.7244  -10.2129   20.3055 C   0  0  0  0  0  0
  -21.6853   -6.0740   22.5279 C   0  0  0  0  0  0
  -21.4018   -6.5642   23.8212 C   0  0  0  0  0  0
  -21.3661   -5.6793   24.9173 C   0  0  0  0  0  0
  -21.6047   -4.3056   24.7223 C   0  0  0  0  0  0
  -21.8822   -3.8151   23.4342 C   0  0  0  0  0  0
  -21.9198   -4.6969   22.3403 C   0  0  0  0  0  0
  -22.7821  -13.5209   21.1888 C   0  0  0  0  0  0
  -22.1664   -4.2151   21.0983 F   0  0  0  0  0  0
  -21.5632   -3.4543   25.7739 F   0  0  0  0  0  0
  -29.9373  -13.6961   20.4180 N   0  0  0  0  0  0
  -26.2879  -12.9375   20.3159 N   0  0  0  0  0  0
  -25.9305  -11.6518   20.5650 N   0  0  0  0  0  0
  -22.0491  -12.8182   22.0447 N   0  0  0  0  0  0
  -25.4232  -15.1905   20.4172 N   0  0  0  0  0  0
  -31.6599  -15.1005   20.1039 O   0  0  0  0  0  0
  -21.6642   -6.8880   21.4239 O   0  0  0  0  0  0
  -22.3495  -14.5528   20.6763 O   0  0  0  0  0  0
  -24.6446  -31.8426   23.1848 C   0  0  0  0  0  0
  -25.9207  -32.4690   23.8254 C   0  0  1  0  0  0
  -27.2235  -27.1177   20.1699 C   0  0  0  0  0  0
  -25.5946  -33.8498   24.2173 N   0  0  0  0  0  0
  -23.4498  -30.4580   21.5316 C   0  0  2  0  0  0
  -24.8999  -28.8696   20.1234 C   0  0  0  0  0  0
  -22.7573  -29.4544   22.4868 C   0  0  0  0  0  0
  -18.0303  -28.1398   22.8485 C   0  0  0  0  0  0
  -24.1488  -36.7255   23.2643 C   0  0  0  0  0  0
  -26.0059  -30.7099   21.3860 C   0  0  0  0  0  0
  -26.0781  -29.3141   20.7386 C   0  0  0  0  0  0
  -27.2441  -28.4568   20.7371 C   0  0  0  0  0  0
  -26.0174  -26.7669   19.5314 C   0  0  0  0  0  0
  -24.8818  -27.6087   19.5056 C   0  0  0  0  0  0
  -23.6787  -29.7777   20.1558 C   0  0  0  0  0  0
  -25.4124  -36.3033   24.0315 C   0  0  1  0  0  0
  -20.5918  -28.3734   23.1237 C   0  0  2  0  0  0
  -20.6794  -26.9438   22.5409 C   0  0  0  0  0  0
  -19.5765  -26.6388   21.5220 C   0  0  0  0  0  0
  -18.1945  -26.7939   22.1630 C   0  0  0  0  0  0
  -19.1561  -28.8886   23.2851 C   0  0  0  0  0  0
  -18.9478  -30.1478   23.8878 C   0  0  0  0  0  0
  -17.6475  -30.6599   24.0564 C   0  0  0  0  0  0
  -25.9079  -34.9407   23.5059 C   0  0  0  0  0  0
  -16.5366  -29.9092   23.6333 C   0  0  0  0  0  0
  -16.7289  -28.6507   23.0364 C   0  0  0  0  0  0
  -26.4523  -31.6561   25.0701 C   0  0  0  0  0  0
  -25.3699  -31.3754   26.1390 C   0  0  0  0  0  0
  -27.0397  -30.2956   24.6292 C   0  0  0  0  0  0
  -27.6048  -32.4330   25.7491 C   0  0  0  0  0  0
  -27.5577  -37.1782   24.8463 C   0  0  0  0  0  0
  -21.4263  -29.3051   22.3605 N   0  0  0  0  0  0
  -26.4286  -37.3748   23.9410 N   0  0  0  0  0  0
  -24.7201  -31.0257   22.0896 N   0  0  0  0  0  0
  -23.4198  -28.8112   23.3046 O   0  0  0  0  0  0
  -28.3044  -26.1654   20.0923 O   0  0  0  0  0  0
  -26.5674  -34.8911   22.4644 O   0  0  0  0  0  0
  -23.5558  -32.1318   23.7048 O   0  0  0  0  0  0
  -29.4518  -19.1362   20.3241 C   0  0  0  0  0  0
  -29.8405  -16.9694   23.3501 C   0  0  0  0  0  0
  -30.7059  -17.8502   22.4668 C   0  0  0  0  0  0
  -30.6670  -22.5811   19.9582 C   0  0  0  0  0  0
  -29.4393  -15.8020   22.4403 C   0  0  0  0  0  0
  -30.6614  -20.8933   21.6607 C   0  0  0  0  0  0
  -29.9699  -17.7277   21.1260 C   0  0  2  0  0  0
  -31.1465  -22.3202   21.3714 C   0  0  1  0  0  0
  -29.2906  -21.9308   19.9835 C   0  0  2  0  0  0
  -32.6521  -22.5347   21.5741 C   0  0  0  0  0  0
  -26.8664  -22.9499   19.7249 C   0  0  0  0  0  0
  -28.3816  -24.7979   20.8364 C   0  0  0  0  0  0
  -28.1878  -23.1288   20.4825 C   0  0  2  0  0  0
  -29.6015  -20.5306   20.7059 N   0  0  0  0  0  0
  -29.7527  -16.1234   21.0073 N   0  0  0  0  0  0
  -28.8452  -18.9158   19.2721 O   0  0  0  0  0  0
  -31.4762  -12.8435   19.1695 H   0  0  0  0  0  0
  -30.4996  -11.6704   19.9905 H   0  0  0  0  0  0
  -29.8584  -11.7834   17.5703 H   0  0  0  0  0  0
  -29.6016  -13.5056   17.6930 H   0  0  0  0  0  0
  -27.9480  -11.2863   18.9273 H   0  0  0  0  0  0
  -27.3980  -12.4949   17.7954 H   0  0  0  0  0  0
  -27.6174  -14.2578   19.4566 H   0  0  0  0  0  0
  -28.7893  -12.1421   21.3098 H   0  0  0  0  0  0
  -28.2959  -13.6931   21.8364 H   0  0  0  0  0  0
  -25.2776   -9.5676   22.4748 H   0  0  0  0  0  0
  -24.0022   -7.4623   22.7461 H   0  0  0  0  0  0
  -21.0859   -8.8770   19.8944 H   0  0  0  0  0  0
  -22.3712  -10.9672   19.6161 H   0  0  0  0  0  0
  -21.2004   -7.6148   23.9714 H   0  0  0  0  0  0
  -21.1483   -6.0523   25.9075 H   0  0  0  0  0  0
  -22.0603   -2.7612   23.2839 H   0  0  0  0  0  0
  -22.4129  -11.9827   22.4797 H   0  0  0  0  0  0
  -21.1106  -13.1180   22.2690 H   0  0  0  0  0  0
  -24.6658  -15.8529   20.5434 H   0  0  0  0  0  0
  -26.2867  -15.6274   20.1193 H   0  0  0  0  0  0
  -26.7277  -32.5297   23.0987 H   0  0  0  0  0  0
  -25.0049  -33.9611   25.0291 H   0  0  0  0  0  0
  -22.7537  -31.2838   21.3710 H   0  0  0  0  0  0
  -23.3763  -35.9571   23.3287 H   0  0  0  0  0  0
  -24.3570  -36.8911   22.2061 H   0  0  0  0  0  0
  -23.7230  -37.6439   23.6697 H   0  0  0  0  0  0
  -26.1602  -31.4583   20.6075 H   0  0  0  0  0  0
  -26.8769  -30.7673   22.0275 H   0  0  0  0  0  0
  -28.1536  -28.8046   21.2065 H   0  0  0  0  0  0
  -25.9495  -25.8025   19.0477 H   0  0  0  0  0  0
  -23.9829  -27.2632   19.0132 H   0  0  0  0  0  0
  -23.8209  -30.5469   19.3958 H   0  0  0  0  0  0
  -22.7931  -29.2198   19.8461 H   0  0  0  0  0  0
  -25.1309  -36.1863   25.0806 H   0  0  0  0  0  0
  -21.0003  -28.3330   24.1362 H   0  0  0  0  0  0
  -20.5704  -26.2348   23.3631 H   0  0  0  0  0  0
  -21.6659  -26.7456   22.1199 H   0  0  0  0  0  0
  -19.6933  -25.6294   21.1265 H   0  0  0  0  0  0
  -19.6696  -27.3186   20.6740 H   0  0  0  0  0  0
  -17.4216  -26.6685   21.4031 H   0  0  0  0  0  0
  -18.0343  -26.0083   22.9029 H   0  0  0  0  0  0
  -19.7954  -30.7298   24.2243 H   0  0  0  0  0  0
  -17.5028  -31.6274   24.5174 H   0  0  0  0  0  0
  -15.5367  -30.2993   23.7663 H   0  0  0  0  0  0
  -15.8689  -28.0816   22.7097 H   0  0  0  0  0  0
  -24.5871  -30.7119   25.7696 H   0  0  0  0  0  0
  -24.8899  -32.2940   26.4770 H   0  0  0  0  0  0
  -25.7966  -30.8942   27.0199 H   0  0  0  0  0  0
  -26.3023  -29.6668   24.1291 H   0  0  0  0  0  0
  -27.4003  -29.7263   25.4870 H   0  0  0  0  0  0
  -27.8926  -30.4192   23.9616 H   0  0  0  0  0  0
  -27.2633  -33.3639   26.2027 H   0  0  0  0  0  0
  -28.3875  -32.6881   25.0336 H   0  0  0  0  0  0
  -28.0699  -31.8490   26.5442 H   0  0  0  0  0  0
  -28.2583  -38.0090   24.7521 H   0  0  0  0  0  0
  -28.1086  -36.2622   24.6277 H   0  0  0  0  0  0
  -27.2295  -37.1410   25.8865 H   0  0  0  0  0  0
  -20.9486  -29.8731   21.6750 H   0  0  0  0  0  0
  -26.0155  -38.2815   24.1420 H   0  0  0  0  0  0
  -28.9564  -17.5114   23.6927 H   0  0  0  0  0  0
  -30.3741  -16.6359   24.2412 H   0  0  0  0  0  0
  -31.7219  -17.4627   22.3868 H   0  0  0  0  0  0
  -30.7540  -18.8152   22.9448 H   0  0  0  0  0  0
  -31.3084  -22.0719   19.2356 H   0  0  0  0  0  0
  -30.6505  -23.6388   19.6919 H   0  0  0  0  0  0
  -29.9098  -14.9003   22.8465 H   0  0  0  0  0  0
  -28.3616  -15.6704   22.5418 H   0  0  0  0  0  0
  -30.2913  -20.8396   22.6854 H   0  0  0  0  0  0
  -31.5149  -20.2251   21.5367 H   0  0  0  0  0  0
  -28.9291  -17.8429   21.4436 H   0  0  0  0  0  0
  -30.6185  -22.9956   22.0460 H   0  0  0  0  0  0
  -29.0379  -21.6886   18.9504 H   0  0  0  0  0  0
  -33.2412  -21.8998   20.9115 H   0  0  0  0  0  0
  -32.9443  -22.3090   22.6004 H   0  0  0  0  0  0
  -32.9289  -23.5702   21.3726 H   0  0  0  0  0  0
  -26.5676  -21.9016   19.6936 H   0  0  0  0  0  0
  -26.9519  -23.3070   18.6986 H   0  0  0  0  0  0
  -26.0588  -23.5056   20.2038 H   0  0  0  0  0  0
  -29.3458  -24.8615   21.3394 H   0  0  0  0  0  0
  -27.6762  -24.9617   21.6529 H   0  0  0  0  0  0
  -27.9721  -22.7543   21.4842 H   0  0  0  0  0  0
  1 25  1  0  0  0
  1 30  2  0  0  0
  1 85  1  0  0  0
  2  3  1  0  0  0
  2 25  1  0  0  0
  2 87  1  0  0  0
  2 88  1  0  0  0
  3  4  1  0  0  0
  3 89  1  0  0  0
  3 90  1  0  0  0
  4  5  1  0  0  0
  4 91  1  0  0  0
  4 92  1  0  0  0
  5  6  1  0  0  0
  5 26  1  0  0  0
  5 93  1  0  0  0
  6 25  1  0  0  0
  6 94  1  0  0  0
  6 95  1  0  0  0
  7  8  2  0  0  0
  7 26  1  0  0  0
  7 29  1  0  0  0
  8  9  1  0  0  0
  8 22  1  0  0  0
  9 10  1  0  0  0
  9 27  2  0  0  0
 10 11  2  0  0  0
 10 15  1  0  0  0
 11 12  1  0  0  0
 11 96  1  0  0  0
 12 13  2  0  0  0
 12 97  1  0  0  0
 13 14  1  0  0  0
 13 31  1  0  0  0
 14 15  2  0  0  0
 14 98  1  0  0  0
 15 99  1  0  0  0
 16 17  2  0  0  0
 16 21  1  0  0  0
 16 31  1  0  0  0
 17 18  1  0  0  0
 17100  1  0  0  0
 18 19  2  0  0  0
 18101  1  0  0  0
 19 20  1  0  0  0
 19 24  1  0  0  0
 20 21  2  0  0  0
 20102  1  0  0  0
 21 23  1  0  0  0
 22 28  1  0  0  0
 22 32  2  0  0  0
 26 27  1  0  0  0
 28103  1  0  0  0
 28104  1  0  0  0
 29105  1  0  0  0
 29106  1  0  0  0
 33 34  1  0  0  0
 33 66  1  0  0  0
 33 70  2  0  0  0
 34 36  1  0  0  0
 34 59  1  0  0  0
 34107  1  0  0  0
 35 44  2  0  0  0
 35 45  1  0  0  0
 35 68  1  0  0  0
 36 56  1  0  0  0
 36108  1  0  0  0
 37 39  1  0  0  0
 37 47  1  0  0  0
 37 66  1  0  0  0
 37109  1  0  0  0
 38 43  2  0  0  0
 38 46  1  0  0  0
 38 47  1  0  0  0
 39 64  1  0  0  0
 39 67  2  0  0  0
 40 52  1  0  0  0
 40 53  2  0  0  0
 40 58  1  0  0  0
 41110  1  0  0  0
 41111  1  0  0  0
 41112  1  0  0  0
 41 48  1  0  0  0
 42 43  1  0  0  0
 42 66  1  0  0  0
 42113  1  0  0  0
 42114  1  0  0  0
 43 44  1  0  0  0
 44115  1  0  0  0
 45 46  2  0  0  0
 45116  1  0  0  0
 46117  1  0  0  0
 47118  1  0  0  0
 47119  1  0  0  0
 48 56  1  0  0  0
 48 65  1  0  0  0
 48120  1  0  0  0
 49 50  1  0  0  0
 49 53  1  0  0  0
 49 64  1  0  0  0
 49121  1  0  0  0
 50 51  1  0  0  0
 50122  1  0  0  0
 50123  1  0  0  0
 51 52  1  0  0  0
 51124  1  0  0  0
 51125  1  0  0  0
 52126  1  0  0  0
 52127  1  0  0  0
 53 54  1  0  0  0
 54 55  2  0  0  0
 54128  1  0  0  0
 55 57  1  0  0  0
 55129  1  0  0  0
 56 69  2  0  0  0
 57 58  2  0  0  0
 57130  1  0  0  0
 58131  1  0  0  0
 59 60  1  0  0  0
 59 61  1  0  0  0
 59 62  1  0  0  0
 60132  1  0  0  0
 60133  1  0  0  0
 60134  1  0  0  0
 61135  1  0  0  0
 61136  1  0  0  0
 61137  1  0  0  0
 62138  1  0  0  0
 62139  1  0  0  0
 62140  1  0  0  0
 63 65  1  0  0  0
 63141  1  0  0  0
 63142  1  0  0  0
 63143  1  0  0  0
 64144  1  0  0  0
 65145  1  0  0  0
 68 82  1  0  0  0
 71 84  1  0  0  0
 71 86  2  0  0  0
 71 77  1  0  0  0
 72 73  1  0  0  0
 72 75  1  0  0  0
 72146  1  0  0  0
 72147  1  0  0  0
 73 77  1  0  0  0
 73148  1  0  0  0
 73149  1  0  0  0
 74 78  1  0  0  0
 74150  1  0  0  0
 74151  1  0  0  0
 74 79  1  0  0  0
 75 85  1  0  0  0
 75152  1  0  0  0
 75153  1  0  0  0
 76 78  1  0  0  0
 76 84  1  0  0  0
 76154  1  0  0  0
 76155  1  0  0  0
 77 85  1  0  0  0
 77156  1  0  0  0
 78 80  1  0  0  0
 78157  1  0  0  0
 79 83  1  0  0  0
 79 84  1  0  0  0
 79158  1  0  0  0
 80159  1  0  0  0
 80160  1  0  0  0
 80161  1  0  0  0
 81162  1  0  0  0
 81163  1  0  0  0
 81164  1  0  0  0
 81 83  1  0  0  0
 82 83  1  0  0  0
 82165  1  0  0  0
 82166  1  0  0  0
 83167  1  0  0  0
M  ISO  4   1 100  68 101  82 101  85 100
M  END
> <chiral flag>
0

> <version>
0

> <s_m_source_file>
/data/baiqing/PycharmProjects/Reinvent-master-3.2/result/LINK_invent/BTK/process_docking_weight1_custom_sum_contain_oxygen_bond_distance_aromatic_linkinvent_7_9_3/rearranged_h_0164.sdf

> <i_m_source_file_index>
92

> <r_mmod_Potential_Energy-OPLS-2005>
1171.98181152344

> <r_mmod_Stretch_Energy-OPLS-2005>
351.877960205078

> <r_mmod_Bend_Energy-OPLS-2005>
577.523559570312

> <r_mmod_Torsional_Energy-OPLS-2005>
417.078765869141

> <r_mmod_Improper_Torsional_Energy-OPLS-2005>
10.4745035171509

> <r_mmod_Van_der_Waal_Energy-OPLS-2005>
137.469787597656

> <r_mmod_Electrostatic_Energy-OPLS-2005>
-306.449249267578

> <r_mmod_Solvation_Energy-OPLS-2005>
-215.041442871094

> <b_mmod_Minimization_Converged-OPLS-2005>
0

> <r_mmod_RMS_Derivative-OPLS-2005>
1.06702327728271

$$$$
92
                    3D
 Structure written by MMmdl.
164174  0  0  1  0            999 V2000
  -30.5031  -15.1254   20.4067 C   0  0  0  0  0  0
  -30.4180  -12.7169   19.4922 C   0  0  0  0  0  0
  -29.5119  -12.5678   18.2471 C   0  0  0  0  0  0
  -28.0489  -12.3411   18.6659 C   0  0  0  0  0  0
  -27.6150  -13.2758   19.8251 C   0  0  2  0  0  0
  -28.6543  -13.3986   20.9584 C   0  0  0  0  0  0
  -25.2435  -13.8275   20.5729 C   0  0  0  0  0  0
  -24.1794  -13.0476   20.9213 C   0  0  0  0  0  0
  -24.6438  -11.6960   20.8759 C   0  0  0  0  0  0
  -23.9155  -10.4309   21.0418 C   0  0  0  0  0  0
  -24.3685   -9.4216   21.9196 C   0  0  0  0  0  0
  -23.6335   -8.2260   22.0768 C   0  0  0  0  0  0
  -22.4321   -8.0312   21.3554 C   0  0  0  0  0  0
  -21.9970   -9.0295   20.4655 C   0  0  0  0  0  0
  -22.7318  -10.2160   20.3062 C   0  0  0  0  0  0
  -21.6863   -6.0774   22.5280 C   0  0  0  0  0  0
  -21.4018   -6.5669   23.8222 C   0  0  0  0  0  0
  -21.3656   -5.6816   24.9175 C   0  0  0  0  0  0
  -21.6040   -4.3078   24.7218 C   0  0  0  0  0  0
  -21.8814   -3.8176   23.4334 C   0  0  0  0  0  0
  -21.9192   -4.6995   22.3403 C   0  0  0  0  0  0
  -22.7802  -13.5221   21.1864 C   0  0  0  0  0  0
  -22.1655   -4.2188   21.0976 F   0  0  0  0  0  0
  -21.5621   -3.4554   25.7724 F   0  0  0  0  0  0
  -29.8956  -13.8543   20.3296 N   0  0  0  0  0  0
  -26.2861  -12.9542   20.3235 N   0  0  0  0  0  0
  -25.9377  -11.6643   20.5728 N   0  0  0  0  0  0
  -22.0483  -12.8174   22.0388 N   0  0  0  0  0  0
  -25.4138  -15.2003   20.4137 N   0  0  0  0  0  0
  -31.7181  -15.1005   20.1577 O   0  0  0  0  0  0
  -21.6662   -6.8913   21.4252 O   0  0  0  0  0  0
  -22.3476  -14.5536   20.6720 O   0  0  0  0  0  0
  -24.6566  -31.8312   23.1745 C   0  0  0  0  0  0
  -25.9302  -32.4618   23.8164 C   0  0  1  0  0  0
  -27.2140  -27.0138   20.1719 C   0  0  0  0  0  0
  -25.6023  -33.8423   24.2100 N   0  0  0  0  0  0
  -23.4637  -30.4485   21.5212 C   0  0  2  0  0  0
  -24.9142  -28.8515   20.1053 C   0  0  0  0  0  0
  -22.7619  -29.4512   22.4789 C   0  0  0  0  0  0
  -18.0318  -28.1448   22.8449 C   0  0  0  0  0  0
  -24.1508  -36.7218   23.2638 C   0  0  0  0  0  0
  -26.0251  -30.6700   21.3846 C   0  0  0  0  0  0
  -26.0923  -29.2648   20.7371 C   0  0  0  0  0  0
  -27.2366  -28.3626   20.7535 C   0  0  0  0  0  0
  -26.0139  -26.7409   19.4748 C   0  0  0  0  0  0
  -24.8959  -27.6083   19.4549 C   0  0  0  0  0  0
  -23.6956  -29.7678   20.1442 C   0  0  0  0  0  0
  -25.4127  -36.2968   24.0307 C   0  0  1  0  0  0
  -20.5939  -28.3781   23.1212 C   0  0  2  0  0  0
  -20.6805  -26.9469   22.5422 C   0  0  0  0  0  0
  -19.5794  -26.6415   21.5216 C   0  0  0  0  0  0
  -18.1959  -26.7997   22.1583 C   0  0  0  0  0  0
  -19.1581  -28.8924   23.2835 C   0  0  0  0  0  0
  -18.9495  -30.1508   23.8871 C   0  0  0  0  0  0
  -17.6491  -30.6619   24.0589 C   0  0  0  0  0  0
  -25.9093  -34.9364   23.5002 C   0  0  0  0  0  0
  -16.5383  -29.9116   23.6357 C   0  0  0  0  0  0
  -16.7303  -28.6560   23.0337 C   0  0  0  0  0  0
  -26.4585  -31.6504   25.0632 C   0  0  0  0  0  0
  -25.3743  -31.3745   26.1315 C   0  0  0  0  0  0
  -27.0416  -30.2871   24.6248 C   0  0  0  0  0  0
  -27.6122  -32.4260   25.7404 C   0  0  0  0  0  0
  -27.5561  -37.1769   24.8459 C   0  0  0  0  0  0
  -21.4305  -29.3083   22.3558 N   0  0  0  0  0  0
  -26.4256  -37.3706   23.9419 N   0  0  0  0  0  0
  -24.7359  -31.0078   22.0820 N   0  0  0  0  0  0
  -23.4215  -28.8076   23.3001 O   0  0  0  0  0  0
  -28.2359  -25.9607   20.2981 O   0  0  0  0  0  0
  -26.5661  -34.8900   22.4575 O   0  0  0  0  0  0
  -23.5658  -32.1230   23.6910 O   0  0  0  0  0  0
  -26.2939  -20.2193   19.5880 C   0  0  0  0  0  0
  -26.3147  -19.5659   20.9386 C   0  0  0  0  0  0
  -29.4163  -18.9878   21.5214 C   0  0  0  0  0  0
  -29.1121  -18.8360   19.1893 C   0  0  0  0  0  0
  -27.4335  -21.9778   21.1489 C   0  0  0  0  0  0
  -29.2860  -17.3056   21.5123 C   0  0  0  0  0  0
  -30.0877  -17.5119   19.3481 C   0  0  0  0  0  0
  -28.5967  -22.8815   20.6431 C   0  0  1  0  0  0
  -29.5174  -21.5610   20.1263 C   0  0  1  0  0  0
  -27.4379  -20.5137   20.5592 C   0  0  2  0  0  0
  -28.9036  -19.9844   20.3325 C   0  0  2  0  0  0
  -30.0801  -21.8279   18.7242 C   0  0  0  0  0  0
  -28.1306  -24.4039   19.8878 C   0  0  0  0  0  0
  -29.7895  -16.4154   20.3638 N   0  0  0  0  0  0
  -31.4458  -12.8838   19.1665 H   0  0  0  0  0  0
  -30.4309  -11.7840   20.0579 H   0  0  0  0  0  0
  -29.8469  -11.7406   17.6194 H   0  0  0  0  0  0
  -29.5833  -13.4642   17.6279 H   0  0  0  0  0  0
  -27.9409  -11.2975   18.9615 H   0  0  0  0  0  0
  -27.3885  -12.4792   17.8078 H   0  0  0  0  0  0
  -27.5470  -14.2651   19.3715 H   0  0  0  0  0  0
  -28.7940  -12.4630   21.4985 H   0  0  0  0  0  0
  -28.3263  -14.1437   21.6852 H   0  0  0  0  0  0
  -25.2834   -9.5677   22.4773 H   0  0  0  0  0  0
  -24.0040   -7.4654   22.7492 H   0  0  0  0  0  0
  -21.0904   -8.8839   19.8953 H   0  0  0  0  0  0
  -22.3808  -10.9715   19.6173 H   0  0  0  0  0  0
  -21.2011   -7.6180   23.9729 H   0  0  0  0  0  0
  -21.1471   -6.0547   25.9081 H   0  0  0  0  0  0
  -22.0586   -2.7643   23.2826 H   0  0  0  0  0  0
  -22.4104  -11.9789   22.4687 H   0  0  0  0  0  0
  -21.1114  -13.1184   22.2644 H   0  0  0  0  0  0
  -24.6501  -15.8598   20.5141 H   0  0  0  0  0  0
  -26.2733  -15.6351   20.1013 H   0  0  0  0  0  0
  -26.7361  -32.5190   23.0869 H   0  0  0  0  0  0
  -25.0265  -33.9500   25.0320 H   0  0  0  0  0  0
  -22.7739  -31.2793   21.3569 H   0  0  0  0  0  0
  -23.3765  -35.9556   23.3251 H   0  0  0  0  0  0
  -24.3607  -36.8881   22.2058 H   0  0  0  0  0  0
  -23.7262  -37.6401   23.6709 H   0  0  0  0  0  0
  -26.1777  -31.4064   20.5941 H   0  0  0  0  0  0
  -26.8992  -30.7380   22.0200 H   0  0  0  0  0  0
  -28.1257  -28.6722   21.2838 H   0  0  0  0  0  0
  -25.8924  -25.8015   18.9604 H   0  0  0  0  0  0
  -24.0015  -27.2896   18.9363 H   0  0  0  0  0  0
  -23.8411  -30.5378   19.3853 H   0  0  0  0  0  0
  -22.8074  -29.2163   19.8310 H   0  0  0  0  0  0
  -25.1315  -36.1750   25.0792 H   0  0  0  0  0  0
  -21.0031  -28.3404   24.1335 H   0  0  0  0  0  0
  -20.5687  -26.2403   23.3662 H   0  0  0  0  0  0
  -21.6680  -26.7463   22.1237 H   0  0  0  0  0  0
  -19.6976  -25.6322   21.1262 H   0  0  0  0  0  0
  -19.6769  -27.3223   20.6752 H   0  0  0  0  0  0
  -17.4259  -26.6788   21.3954 H   0  0  0  0  0  0
  -18.0310  -26.0131   22.8953 H   0  0  0  0  0  0
  -19.7973  -30.7345   24.2222 H   0  0  0  0  0  0
  -17.5048  -31.6285   24.5230 H   0  0  0  0  0  0
  -15.5387  -30.3019   23.7713 H   0  0  0  0  0  0
  -15.8703  -28.0895   22.7028 H   0  0  0  0  0  0
  -24.6136  -30.6797   25.7733 H   0  0  0  0  0  0
  -24.8680  -32.2904   26.4375 H   0  0  0  0  0  0
  -25.8055  -30.9299   27.0295 H   0  0  0  0  0  0
  -26.3034  -29.6611   24.1222 H   0  0  0  0  0  0
  -27.3971  -29.7142   25.4821 H   0  0  0  0  0  0
  -27.8969  -30.4050   23.9589 H   0  0  0  0  0  0
  -27.2809  -33.3724   26.1685 H   0  0  0  0  0  0
  -28.4092  -32.6507   25.0304 H   0  0  0  0  0  0
  -28.0600  -31.8528   26.5530 H   0  0  0  0  0  0
  -28.2555  -38.0086   24.7476 H   0  0  0  0  0  0
  -28.1070  -36.2602   24.6286 H   0  0  0  0  0  0
  -27.2298  -37.1408   25.8870 H   0  0  0  0  0  0
  -20.9541  -29.8756   21.6682 H   0  0  0  0  0  0
  -26.0090  -38.2757   24.1438 H   0  0  0  0  0  0
  -25.5300  -20.9805   19.4416 H   0  0  0  0  0  0
  -26.4296  -19.5694   18.7289 H   0  0  0  0  0  0
  -26.5270  -18.5015   20.9755 H   0  0  0  0  0  0
  -25.5777  -19.9148   21.6607 H   0  0  0  0  0  0
  -30.4733  -19.2046   21.6750 H   0  0  0  0  0  0
  -28.9523  -19.3478   22.4398 H   0  0  0  0  0  0
  -28.1446  -18.3945   18.9701 H   0  0  0  0  0  0
  -29.3780  -19.3258   18.2543 H   0  0  0  0  0  0
  -26.4751  -22.4618   20.9644 H   0  0  0  0  0  0
  -27.5055  -21.8990   22.2343 H   0  0  0  0  0  0
  -28.2394  -17.0447   21.6644 H   0  0  0  0  0  0
  -29.7777  -16.9274   22.4106 H   0  0  0  0  0  0
  -31.1116  -17.8411   19.5232 H   0  0  0  0  0  0
  -30.1160  -17.0162   18.3774 H   0  0  0  0  0  0
  -29.1228  -23.2341   21.5318 H   0  0  0  0  0  0
  -30.4034  -21.5851   20.7644 H   0  0  0  0  0  0
  -29.3118  -21.7253   17.9594 H   0  0  0  0  0  0
  -30.8961  -21.1430   18.4919 H   0  0  0  0  0  0
  -30.4903  -22.8366   18.6538 H   0  0  0  0  0  0
  -27.0793  -24.2426   19.6672 H   0  0  0  0  0  0
  -28.5904  -24.3828   18.8990 H   0  0  0  0  0  0
  1 25  1  0  0  0
  1 30  2  0  0  0
  1 84  1  0  0  0
  2  3  1  0  0  0
  2 25  1  0  0  0
  2 85  1  0  0  0
  2 86  1  0  0  0
  3  4  1  0  0  0
  3 87  1  0  0  0
  3 88  1  0  0  0
  4  5  1  0  0  0
  4 89  1  0  0  0
  4 90  1  0  0  0
  5  6  1  0  0  0
  5 26  1  0  0  0
  5 91  1  0  0  0
  6 25  1  0  0  0
  6 92  1  0  0  0
  6 93  1  0  0  0
  7  8  2  0  0  0
  7 26  1  0  0  0
  7 29  1  0  0  0
  8  9  1  0  0  0
  8 22  1  0  0  0
  9 10  1  0  0  0
  9 27  2  0  0  0
 10 11  2  0  0  0
 10 15  1  0  0  0
 11 12  1  0  0  0
 11 94  1  0  0  0
 12 13  2  0  0  0
 12 95  1  0  0  0
 13 14  1  0  0  0
 13 31  1  0  0  0
 14 15  2  0  0  0
 14 96  1  0  0  0
 15 97  1  0  0  0
 16 17  2  0  0  0
 16 21  1  0  0  0
 16 31  1  0  0  0
 17 18  1  0  0  0
 17 98  1  0  0  0
 18 19  2  0  0  0
 18 99  1  0  0  0
 19 20  1  0  0  0
 19 24  1  0  0  0
 20 21  2  0  0  0
 20100  1  0  0  0
 21 23  1  0  0  0
 22 28  1  0  0  0
 22 32  2  0  0  0
 26 27  1  0  0  0
 28101  1  0  0  0
 28102  1  0  0  0
 29103  1  0  0  0
 29104  1  0  0  0
 33 34  1  0  0  0
 33 66  1  0  0  0
 33 70  2  0  0  0
 34 36  1  0  0  0
 34 59  1  0  0  0
 34105  1  0  0  0
 35 44  2  0  0  0
 35 45  1  0  0  0
 35 68  1  0  0  0
 36 56  1  0  0  0
 36106  1  0  0  0
 37 39  1  0  0  0
 37 47  1  0  0  0
 37 66  1  0  0  0
 37107  1  0  0  0
 38 43  2  0  0  0
 38 46  1  0  0  0
 38 47  1  0  0  0
 39 64  1  0  0  0
 39 67  2  0  0  0
 40 52  1  0  0  0
 40 53  2  0  0  0
 40 58  1  0  0  0
 41108  1  0  0  0
 41109  1  0  0  0
 41110  1  0  0  0
 41 48  1  0  0  0
 42 43  1  0  0  0
 42 66  1  0  0  0
 42111  1  0  0  0
 42112  1  0  0  0
 43 44  1  0  0  0
 44113  1  0  0  0
 45 46  2  0  0  0
 45114  1  0  0  0
 46115  1  0  0  0
 47116  1  0  0  0
 47117  1  0  0  0
 48 56  1  0  0  0
 48 65  1  0  0  0
 48118  1  0  0  0
 49 50  1  0  0  0
 49 53  1  0  0  0
 49 64  1  0  0  0
 49119  1  0  0  0
 50 51  1  0  0  0
 50120  1  0  0  0
 50121  1  0  0  0
 51 52  1  0  0  0
 51122  1  0  0  0
 51123  1  0  0  0
 52124  1  0  0  0
 52125  1  0  0  0
 53 54  1  0  0  0
 54 55  2  0  0  0
 54126  1  0  0  0
 55 57  1  0  0  0
 55127  1  0  0  0
 56 69  2  0  0  0
 57 58  2  0  0  0
 57128  1  0  0  0
 58129  1  0  0  0
 59 60  1  0  0  0
 59 61  1  0  0  0
 59 62  1  0  0  0
 60130  1  0  0  0
 60131  1  0  0  0
 60132  1  0  0  0
 61133  1  0  0  0
 61134  1  0  0  0
 61135  1  0  0  0
 62136  1  0  0  0
 62137  1  0  0  0
 62138  1  0  0  0
 63 65  1  0  0  0
 63139  1  0  0  0
 63140  1  0  0  0
 63141  1  0  0  0
 64142  1  0  0  0
 65143  1  0  0  0
 68 83  1  0  0  0
 71 72  1  0  0  0
 71144  1  0  0  0
 71145  1  0  0  0
 71 80  1  0  0  0
 72 80  1  0  0  0
 72146  1  0  0  0
 72147  1  0  0  0
 73 76  1  0  0  0
 73148  1  0  0  0
 73149  1  0  0  0
 73 81  1  0  0  0
 74 77  1  0  0  0
 74 81  1  0  0  0
 74150  1  0  0  0
 74151  1  0  0  0
 75 78  1  0  0  0
 75 80  1  0  0  0
 75152  1  0  0  0
 75153  1  0  0  0
 76 84  1  0  0  0
 76154  1  0  0  0
 76155  1  0  0  0
 77 84  1  0  0  0
 77156  1  0  0  0
 77157  1  0  0  0
 78 79  1  0  0  0
 78 83  1  0  0  0
 78158  1  0  0  0
 79 81  1  0  0  0
 79 82  1  0  0  0
 79159  1  0  0  0
 80 81  1  0  0  0
 82160  1  0  0  0
 82161  1  0  0  0
 82162  1  0  0  0
 83163  1  0  0  0
 83164  1  0  0  0
M  ISO  4   1 100  68 101  83 101  84 100
M  END
> <chiral flag>
0

> <version>
0

> <s_m_source_file>
/data/baiqing/PycharmProjects/Reinvent-master-3.2/result/LINK_invent/BTK/process_docking_weight1_custom_sum_contain_oxygen_bond_distance_aromatic_linkinvent_7_9_3/rearranged_h_0164.sdf

> <i_m_source_file_index>
93

> <r_mmod_Potential_Energy-OPLS-2005>
1355.60400390625

> <r_mmod_Stretch_Energy-OPLS-2005>
408.766723632812

> <r_mmod_Bend_Energy-OPLS-2005>
471.497863769531

> <r_mmod_Torsional_Energy-OPLS-2005>
495.352355957031

> <r_mmod_Improper_Torsional_Energy-OPLS-2005>
14.123122215271

> <r_mmod_Van_der_Waal_Energy-OPLS-2005>
117.933631896973

> <r_mmod_Electrostatic_Energy-OPLS-2005>
-294.905242919922

> <r_mmod_Solvation_Energy-OPLS-2005>
-185.390029907227

> <b_mmod_Minimization_Converged-OPLS-2005>
0

> <r_mmod_RMS_Derivative-OPLS-2005>
3.7488534450531

$$$$
