0
                    3D
 Structure written by MMmdl.
155163  0  0  1  0            999 V2000
  -30.5257  -14.8459   20.5041 C   0  0  0  0  0  0
  -30.4607  -12.5220   19.4902 C   0  0  0  0  0  0
  -29.5283  -12.5163   18.2547 C   0  0  0  0  0  0
  -28.0585  -12.2906   18.6649 C   0  0  0  0  0  0
  -27.6405  -13.1991   19.8467 C   0  0  2  0  0  0
  -28.6837  -13.1519   20.9877 C   0  0  0  0  0  0
  -25.2532  -13.8061   20.5664 C   0  0  0  0  0  0
  -24.1792  -13.0369   20.9173 C   0  0  0  0  0  0
  -24.6342  -11.6833   20.8751 C   0  0  0  0  0  0
  -23.8997  -10.4246   21.0433 C   0  0  0  0  0  0
  -24.3565   -9.4169   21.9202 C   0  0  0  0  0  0
  -23.6264   -8.2189   22.0754 C   0  0  0  0  0  0
  -22.4259   -8.0223   21.3519 C   0  0  0  0  0  0
  -21.9871   -9.0200   20.4644 C   0  0  0  0  0  0
  -22.7175  -10.2091   20.3073 C   0  0  0  0  0  0
  -21.6836   -6.0703   22.5267 C   0  0  0  0  0  0
  -21.4004   -6.5619   23.8198 C   0  0  0  0  0  0
  -21.3667   -5.6780   24.9169 C   0  0  0  0  0  0
  -21.6060   -4.3043   24.7235 C   0  0  0  0  0  0
  -21.8816   -3.8126   23.4355 C   0  0  0  0  0  0
  -21.9188   -4.6934   22.3405 C   0  0  0  0  0  0
  -22.7833  -13.5189   21.1859 C   0  0  0  0  0  0
  -22.1657   -4.2118   21.0987 F   0  0  0  0  0  0
  -21.5647   -3.4531   25.7751 F   0  0  0  0  0  0
  -29.9785  -13.5694   20.4275 N   0  0  0  0  0  0
  -26.2916  -12.9198   20.3239 N   0  0  0  0  0  0
  -25.9259  -11.6377   20.5741 N   0  0  0  0  0  0
  -22.0490  -12.8211   22.0441 N   0  0  0  0  0  0
  -25.4268  -15.1787   20.4125 N   0  0  0  0  0  0
  -31.6921  -14.9887   20.1095 O   0  0  0  0  0  0
  -21.6615   -6.8832   21.4221 O   0  0  0  0  0  0
  -22.3526  -14.5502   20.6710 O   0  0  0  0  0  0
  -24.6386  -31.8493   23.1922 C   0  0  0  0  0  0
  -25.9182  -32.4713   23.8301 C   0  0  1  0  0  0
  -27.2257  -27.2031   20.1303 C   0  0  0  0  0  0
  -25.5946  -33.8517   24.2214 N   0  0  0  0  0  0
  -23.4388  -30.4704   21.5368 C   0  0  2  0  0  0
  -24.8863  -28.9068   20.1097 C   0  0  0  0  0  0
  -22.7547  -29.4576   22.4877 C   0  0  0  0  0  0
  -18.0311  -28.1384   22.8483 C   0  0  0  0  0  0
  -24.1486  -36.7268   23.2640 C   0  0  0  0  0  0
  -25.9908  -30.7409   21.3833 C   0  0  0  0  0  0
  -26.0621  -29.3597   20.7221 C   0  0  0  0  0  0
  -27.2322  -28.5227   20.7178 C   0  0  0  0  0  0
  -26.0230  -26.8364   19.4818 C   0  0  0  0  0  0
  -24.8753  -27.6551   19.4783 C   0  0  0  0  0  0
  -23.6599  -29.8008   20.1552 C   0  0  0  0  0  0
  -25.4114  -36.3046   24.0321 C   0  0  1  0  0  0
  -20.5919  -28.3707   23.1238 C   0  0  2  0  0  0
  -20.6783  -26.9413   22.5396 C   0  0  0  0  0  0
  -19.5760  -26.6377   21.5201 C   0  0  0  0  0  0
  -18.1946  -26.7928   22.1620 C   0  0  0  0  0  0
  -19.1565  -28.8864   23.2859 C   0  0  0  0  0  0
  -18.9480  -30.1462   23.8883 C   0  0  0  0  0  0
  -17.6473  -30.6580   24.0560 C   0  0  0  0  0  0
  -25.9069  -34.9416   23.5077 C   0  0  0  0  0  0
  -16.5368  -29.9070   23.6332 C   0  0  0  0  0  0
  -16.7296  -28.6487   23.0365 C   0  0  0  0  0  0
  -26.4521  -31.6571   25.0727 C   0  0  0  0  0  0
  -25.3722  -31.3737   26.1436 C   0  0  0  0  0  0
  -27.0387  -30.2976   24.6280 C   0  0  0  0  0  0
  -27.6057  -32.4340   25.7509 C   0  0  0  0  0  0
  -27.5588  -37.1775   24.8457 C   0  0  0  0  0  0
  -21.4246  -29.3048   22.3616 N   0  0  0  0  0  0
  -26.4279  -37.3760   23.9425 N   0  0  0  0  0  0
  -24.7089  -31.0404   22.0922 N   0  0  0  0  0  0
  -23.4215  -28.8135   23.3016 O   0  0  0  0  0  0
  -28.3051  -26.2660   20.2012 O   0  0  0  0  0  0
  -26.5655  -34.8908   22.4655 O   0  0  0  0  0  0
  -23.5517  -32.1340   23.7174 O   0  0  0  0  0  0
  -29.4998  -18.6962   21.7606 C   0  0  0  0  0  0
  -29.8236  -17.7228   20.7532 C   0  0  0  0  0  0
  -29.2844  -20.5437   20.2630 C   0  0  0  0  0  0
  -29.6816  -19.5871   19.2515 C   0  0  0  0  0  0
  -28.5541  -19.5738   16.9818 C   0  0  0  0  0  0
  -28.5633  -21.9734   19.9608 C   0  0  0  0  0  0
  -29.7979  -19.9705   17.7857 C   0  0  0  0  0  0
  -29.0437  -23.5013   20.3475 C   0  0  0  0  0  0
  -28.0525  -24.7738   19.9740 C   0  0  0  0  0  0
  -29.6584  -16.1290   21.0564 C   0  0  0  0  0  0
  -29.2334  -20.0378   21.5329 N   0  0  0  0  0  0
  -29.9255  -18.2367   19.4858 N   0  0  0  0  0  0
  -29.6465  -16.0015   22.3848 F   0  0  0  0  0  0
  -28.4016  -15.9623   20.6557 F   0  0  0  0  0  0
  -31.4910  -12.7001   19.1803 H   0  0  0  0  0  0
  -30.4655  -11.5476   19.9810 H   0  0  0  0  0  0
  -29.8452  -11.7487   17.5471 H   0  0  0  0  0  0
  -29.6162  -13.4684   17.7309 H   0  0  0  0  0  0
  -27.9491  -11.2416   18.9456 H   0  0  0  0  0  0
  -27.3961  -12.4512   17.8140 H   0  0  0  0  0  0
  -27.6157  -14.1983   19.4201 H   0  0  0  0  0  0
  -28.7501  -12.1443   21.4035 H   0  0  0  0  0  0
  -28.3820  -13.7894   21.8186 H   0  0  0  0  0  0
  -25.2710   -9.5652   22.4767 H   0  0  0  0  0  0
  -23.9982   -7.4575   22.7465 H   0  0  0  0  0  0
  -21.0799   -8.8707   19.8947 H   0  0  0  0  0  0
  -22.3630  -10.9631   19.6188 H   0  0  0  0  0  0
  -21.1979   -7.6130   23.9694 H   0  0  0  0  0  0
  -21.1514   -6.0517   25.9071 H   0  0  0  0  0  0
  -22.0597   -2.7584   23.2863 H   0  0  0  0  0  0
  -22.4120  -11.9889   22.4869 H   0  0  0  0  0  0
  -21.1112  -13.1251   22.2654 H   0  0  0  0  0  0
  -24.6670  -15.8372   20.5402 H   0  0  0  0  0  0
  -26.2943  -15.6211   20.1372 H   0  0  0  0  0  0
  -26.7254  -32.5331   23.1041 H   0  0  0  0  0  0
  -25.0072  -33.9631   25.0348 H   0  0  0  0  0  0
  -22.7392  -31.2952   21.3849 H   0  0  0  0  0  0
  -23.3763  -35.9583   23.3253 H   0  0  0  0  0  0
  -24.3597  -36.8951   22.2070 H   0  0  0  0  0  0
  -23.7208  -37.6435   23.6708 H   0  0  0  0  0  0
  -26.1465  -31.5013   20.6168 H   0  0  0  0  0  0
  -26.8614  -30.7836   22.0262 H   0  0  0  0  0  0
  -28.1290  -28.8654   21.2142 H   0  0  0  0  0  0
  -25.9325  -25.8824   18.9837 H   0  0  0  0  0  0
  -23.9771  -27.3033   18.9892 H   0  0  0  0  0  0
  -23.7881  -30.5740   19.3963 H   0  0  0  0  0  0
  -22.7757  -29.2375   19.8514 H   0  0  0  0  0  0
  -25.1287  -36.1882   25.0810 H   0  0  0  0  0  0
  -21.0020  -28.3293   24.1357 H   0  0  0  0  0  0
  -20.5657  -26.2328   23.3614 H   0  0  0  0  0  0
  -21.6650  -26.7408   22.1207 H   0  0  0  0  0  0
  -19.6911  -25.6284   21.1245 H   0  0  0  0  0  0
  -19.6684  -27.3174   20.6719 H   0  0  0  0  0  0
  -17.4205  -26.6686   21.4027 H   0  0  0  0  0  0
  -18.0346  -26.0064   22.9012 H   0  0  0  0  0  0
  -19.7954  -30.7287   24.2236 H   0  0  0  0  0  0
  -17.5025  -31.6258   24.5166 H   0  0  0  0  0  0
  -15.5366  -30.2965   23.7648 H   0  0  0  0  0  0
  -15.8707  -28.0788   22.7091 H   0  0  0  0  0  0
  -24.5890  -30.7099   25.7758 H   0  0  0  0  0  0
  -24.8922  -32.2905   26.4865 H   0  0  0  0  0  0
  -25.8022  -30.8905   27.0219 H   0  0  0  0  0  0
  -26.2992  -29.6703   24.1283 H   0  0  0  0  0  0
  -27.4014  -29.7272   25.4845 H   0  0  0  0  0  0
  -27.8900  -30.4232   23.9584 H   0  0  0  0  0  0
  -27.2646  -33.3649   26.2059 H   0  0  0  0  0  0
  -28.3881  -32.6895   25.0347 H   0  0  0  0  0  0
  -28.0719  -31.8490   26.5451 H   0  0  0  0  0  0
  -28.2550  -38.0128   24.7576 H   0  0  0  0  0  0
  -28.1141  -36.2661   24.6181 H   0  0  0  0  0  0
  -27.2330  -37.1298   25.8864 H   0  0  0  0  0  0
  -20.9444  -29.8764   21.6805 H   0  0  0  0  0  0
  -26.0150  -38.2822   24.1463 H   0  0  0  0  0  0
  -29.3379  -18.3783   22.7811 H   0  0  0  0  0  0
  -28.6814  -19.8154   15.9265 H   0  0  0  0  0  0
  -27.6676  -20.0946   17.3430 H   0  0  0  0  0  0
  -28.3668  -18.5021   17.0560 H   0  0  0  0  0  0
  -27.5733  -21.8636   20.4033 H   0  0  0  0  0  0
  -28.3490  -21.9917   18.8936 H   0  0  0  0  0  0
  -30.6679  -19.4625   17.3672 H   0  0  0  0  0  0
  -30.0035  -21.0358   17.6824 H   0  0  0  0  0  0
  -30.0126  -23.6753   19.8800 H   0  0  0  0  0  0
  -29.2303  -23.5285   21.4211 H   0  0  0  0  0  0
  -27.1100  -24.5472   20.4742 H   0  0  0  0  0  0
  -27.8412  -24.6747   18.9095 H   0  0  0  0  0  0
  1 25  1  0  0  0
  1 30  2  0  0  0
  1 80  1  0  0  0
  2  3  1  0  0  0
  2 25  1  0  0  0
  2 85  1  0  0  0
  2 86  1  0  0  0
  3  4  1  0  0  0
  3 87  1  0  0  0
  3 88  1  0  0  0
  4  5  1  0  0  0
  4 89  1  0  0  0
  4 90  1  0  0  0
  5  6  1  0  0  0
  5 26  1  0  0  0
  5 91  1  0  0  0
  6 25  1  0  0  0
  6 92  1  0  0  0
  6 93  1  0  0  0
  7  8  2  0  0  0
  7 26  1  0  0  0
  7 29  1  0  0  0
  8  9  1  0  0  0
  8 22  1  0  0  0
  9 10  1  0  0  0
  9 27  2  0  0  0
 10 11  2  0  0  0
 10 15  1  0  0  0
 11 12  1  0  0  0
 11 94  1  0  0  0
 12 13  2  0  0  0
 12 95  1  0  0  0
 13 14  1  0  0  0
 13 31  1  0  0  0
 14 15  2  0  0  0
 14 96  1  0  0  0
 15 97  1  0  0  0
 16 17  2  0  0  0
 16 21  1  0  0  0
 16 31  1  0  0  0
 17 18  1  0  0  0
 17 98  1  0  0  0
 18 19  2  0  0  0
 18 99  1  0  0  0
 19 20  1  0  0  0
 19 24  1  0  0  0
 20 21  2  0  0  0
 20100  1  0  0  0
 21 23  1  0  0  0
 22 28  1  0  0  0
 22 32  2  0  0  0
 26 27  1  0  0  0
 28101  1  0  0  0
 28102  1  0  0  0
 29103  1  0  0  0
 29104  1  0  0  0
 33 34  1  0  0  0
 33 66  1  0  0  0
 33 70  2  0  0  0
 34 36  1  0  0  0
 34 59  1  0  0  0
 34105  1  0  0  0
 35 44  2  0  0  0
 35 45  1  0  0  0
 35 68  1  0  0  0
 36 56  1  0  0  0
 36106  1  0  0  0
 37 39  1  0  0  0
 37 47  1  0  0  0
 37 66  1  0  0  0
 37107  1  0  0  0
 38 43  2  0  0  0
 38 46  1  0  0  0
 38 47  1  0  0  0
 39 64  1  0  0  0
 39 67  2  0  0  0
 40 52  1  0  0  0
 40 53  2  0  0  0
 40 58  1  0  0  0
 41108  1  0  0  0
 41109  1  0  0  0
 41110  1  0  0  0
 41 48  1  0  0  0
 42 43  1  0  0  0
 42 66  1  0  0  0
 42111  1  0  0  0
 42112  1  0  0  0
 43 44  1  0  0  0
 44113  1  0  0  0
 45 46  2  0  0  0
 45114  1  0  0  0
 46115  1  0  0  0
 47116  1  0  0  0
 47117  1  0  0  0
 48 56  1  0  0  0
 48 65  1  0  0  0
 48118  1  0  0  0
 49 50  1  0  0  0
 49 53  1  0  0  0
 49 64  1  0  0  0
 49119  1  0  0  0
 50 51  1  0  0  0
 50120  1  0  0  0
 50121  1  0  0  0
 51 52  1  0  0  0
 51122  1  0  0  0
 51123  1  0  0  0
 52124  1  0  0  0
 52125  1  0  0  0
 53 54  1  0  0  0
 54 55  2  0  0  0
 54126  1  0  0  0
 55 57  1  0  0  0
 55127  1  0  0  0
 56 69  2  0  0  0
 57 58  2  0  0  0
 57128  1  0  0  0
 58129  1  0  0  0
 59 60  1  0  0  0
 59 61  1  0  0  0
 59 62  1  0  0  0
 60130  1  0  0  0
 60131  1  0  0  0
 60132  1  0  0  0
 61133  1  0  0  0
 61134  1  0  0  0
 61135  1  0  0  0
 62136  1  0  0  0
 62137  1  0  0  0
 62138  1  0  0  0
 63 65  1  0  0  0
 63139  1  0  0  0
 63140  1  0  0  0
 63141  1  0  0  0
 64142  1  0  0  0
 65143  1  0  0  0
 68 79  1  0  0  0
 71 72  2  0  0  0
 71 81  1  0  0  0
 71144  1  0  0  0
 72 80  1  0  0  0
 72 82  1  0  0  0
 73 74  1  0  0  0
 73 76  1  0  0  0
 73 81  2  0  0  0
 74 77  1  0  0  0
 74 82  2  0  0  0
 75 77  1  0  0  0
 75145  1  0  0  0
 75146  1  0  0  0
 75147  1  0  0  0
 76 78  1  0  0  0
 76148  1  0  0  0
 76149  1  0  0  0
 77150  1  0  0  0
 77151  1  0  0  0
 78 79  1  0  0  0
 78152  1  0  0  0
 78153  1  0  0  0
 79154  1  0  0  0
 79155  1  0  0  0
 80 83  1  0  0  0
 80 84  1  0  0  0
M  ISO  4   1 100  68 101  79 101  80 100
M  END
> <chiral flag>
0

> <version>
0

> <s_m_source_file>
/data/baiqing/PycharmProjects/Reinvent-master-3.2/result/LINK_invent/BTK/process_docking_weight1_custom_sum_contain_oxygen_bond_distance_aromatic_linkinvent_7_9_3/rearranged_h_0070.sdf

> <i_m_source_file_index>
1

> <r_mmod_Potential_Energy-OPLS-2005>
504.849090576172

> <r_mmod_Stretch_Energy-OPLS-2005>
186.026245117188

> <r_mmod_Bend_Energy-OPLS-2005>
240.119186401367

> <r_mmod_Torsional_Energy-OPLS-2005>
175.344253540039

> <r_mmod_Improper_Torsional_Energy-OPLS-2005>
6.99360084533691

> <r_mmod_Van_der_Waal_Energy-OPLS-2005>
143.687774658203

> <r_mmod_Electrostatic_Energy-OPLS-2005>
-177.569519042969

> <r_mmod_Solvation_Energy-OPLS-2005>
-199.998092651367

> <b_mmod_Minimization_Converged-OPLS-2005>
0

> <r_mmod_RMS_Derivative-OPLS-2005>
2.04147171974182

$$$$
1
                    3D
 Structure written by MMmdl.
141149  0  0  1  0            999 V2000
  -30.2935  -15.7069   20.3076 C   0  0  0  0  0  0
  -30.4149  -13.1218   19.5630 C   0  0  0  0  0  0
  -29.5568  -12.6743   18.3423 C   0  0  0  0  0  0
  -28.1324  -12.3049   18.7781 C   0  0  0  0  0  0
  -27.5890  -13.3225   19.8049 C   0  0  2  0  0  0
  -28.5906  -13.6980   20.9221 C   0  0  0  0  0  0
  -25.2301  -13.8322   20.5802 C   0  0  0  0  0  0
  -24.1699  -13.0447   20.9269 C   0  0  0  0  0  0
  -24.6418  -11.6962   20.8740 C   0  0  0  0  0  0
  -23.9127  -10.4300   21.0382 C   0  0  0  0  0  0
  -24.3661   -9.4215   21.9170 C   0  0  0  0  0  0
  -23.6320   -8.2256   22.0751 C   0  0  0  0  0  0
  -22.4299   -8.0292   21.3544 C   0  0  0  0  0  0
  -21.9945   -9.0266   20.4642 C   0  0  0  0  0  0
  -22.7289  -10.2137   20.3042 C   0  0  0  0  0  0
  -21.6863   -6.0744   22.5279 C   0  0  0  0  0  0
  -21.4022   -6.5645   23.8213 C   0  0  0  0  0  0
  -21.3662   -5.6795   24.9173 C   0  0  0  0  0  0
  -21.6044   -4.3058   24.7223 C   0  0  0  0  0  0
  -21.8818   -3.8151   23.4343 C   0  0  0  0  0  0
  -21.9196   -4.6970   22.3401 C   0  0  0  0  0  0
  -22.7710  -13.5162   21.1919 C   0  0  0  0  0  0
  -22.1662   -4.2155   21.0978 F   0  0  0  0  0  0
  -21.5627   -3.4540   25.7735 F   0  0  0  0  0  0
  -29.7732  -14.3255   20.2823 N   0  0  0  0  0  0
  -26.2747  -12.9675   20.3201 N   0  0  0  0  0  0
  -25.9366  -11.6729   20.5659 N   0  0  0  0  0  0
  -22.0390  -12.8129   22.0475 N   0  0  0  0  0  0
  -25.3907  -15.2072   20.4327 N   0  0  0  0  0  0
  -31.5265  -15.5786   20.1474 O   0  0  0  0  0  0
  -21.6654   -6.8893   21.4244 O   0  0  0  0  0  0
  -22.3372  -14.5458   20.6762 O   0  0  0  0  0  0
  -24.6894  -31.7929   23.1461 C   0  0  0  0  0  0
  -25.9447  -32.4430   23.8030 C   0  0  1  0  0  0
  -27.2256  -26.6416   20.2232 C   0  0  0  0  0  0
  -25.6001  -33.8259   24.1912 N   0  0  0  0  0  0
  -23.5179  -30.3920   21.5015 C   0  0  2  0  0  0
  -24.9750  -28.7190   20.1200 C   0  0  0  0  0  0
  -22.7790  -29.4279   22.4694 C   0  0  0  0  0  0
  -18.0342  -28.1424   22.8452 C   0  0  0  0  0  0
  -24.1496  -36.7138   23.2654 C   0  0  0  0  0  0
  -26.1009  -30.5060   21.4190 C   0  0  0  0  0  0
  -26.1651  -29.0639   20.7709 C   0  0  0  0  0  0
  -27.2729  -28.0553   20.7862 C   0  0  0  0  0  0
  -26.0018  -26.5199   19.5137 C   0  0  0  0  0  0
  -24.9360  -27.4738   19.4671 C   0  0  0  0  0  0
  -23.7748  -29.6825   20.1396 C   0  0  0  0  0  0
  -25.4149  -36.2874   24.0277 C   0  0  1  0  0  0
  -20.5980  -28.3787   23.1131 C   0  0  2  0  0  0
  -20.6805  -26.9440   22.5404 C   0  0  0  0  0  0
  -19.5782  -26.6369   21.5216 C   0  0  0  0  0  0
  -18.1965  -26.7951   22.1618 C   0  0  0  0  0  0
  -19.1609  -28.8931   23.2770 C   0  0  0  0  0  0
  -18.9514  -30.1513   23.8819 C   0  0  0  0  0  0
  -17.6503  -30.6605   24.0549 C   0  0  0  0  0  0
  -25.9133  -34.9266   23.4936 C   0  0  0  0  0  0
  -16.5392  -29.9086   23.6352 C   0  0  0  0  0  0
  -16.7321  -28.6508   23.0368 C   0  0  0  0  0  0
  -26.4606  -31.6492   25.0678 C   0  0  0  0  0  0
  -25.3656  -31.3826   26.1282 C   0  0  0  0  0  0
  -27.0548  -30.2823   24.6623 C   0  0  0  0  0  0
  -27.6041  -32.4368   25.7502 C   0  0  0  0  0  0
  -27.5562  -37.1725   24.8466 C   0  0  0  0  0  0
  -21.4432  -29.3022   22.3444 N   0  0  0  0  0  0
  -26.4269  -37.3642   23.9407 N   0  0  0  0  0  0
  -24.7936  -30.9316   22.0745 N   0  0  0  0  0  0
  -23.4206  -28.7891   23.3068 O   0  0  0  0  0  0
  -28.1894  -25.4034   20.2965 O   0  0  0  0  0  0
  -26.5783  -34.8856   22.4560 O   0  0  0  0  0  0
  -23.5901  -32.1031   23.6379 O   0  0  0  0  0  0
  -30.0228  -18.8931   20.2400 C   0  0  0  0  0  0
  -29.5699  -17.4524   20.3528 C   0  0  0  0  0  0
  -29.0878  -21.9478   20.3653 C   0  0  0  0  0  0
  -28.0392  -23.6162   20.1941 C   0  0  0  0  0  0
  -28.2107  -17.9141   20.5188 N   0  0  0  0  0  0
  -27.9490  -19.2784   20.5199 N   0  0  0  0  0  0
  -29.0462  -20.1153   20.3152 N   0  0  0  0  0  0
  -31.4134  -13.3667   19.2003 H   0  0  0  0  0  0
  -30.5676  -12.2891   20.2518 H   0  0  0  0  0  0
  -30.0259  -11.8322   17.8317 H   0  0  0  0  0  0
  -29.5149  -13.4892   17.6182 H   0  0  0  0  0  0
  -28.1682  -11.3136   19.2317 H   0  0  0  0  0  0
  -27.4698  -12.2277   17.9152 H   0  0  0  0  0  0
  -27.4398  -14.2313   19.2198 H   0  0  0  0  0  0
  -28.8514  -12.8363   21.5384 H   0  0  0  0  0  0
  -28.1386  -14.4275   21.5956 H   0  0  0  0  0  0
  -25.2801   -9.5691   22.4752 H   0  0  0  0  0  0
  -24.0021   -7.4652   22.7479 H   0  0  0  0  0  0
  -21.0874   -8.8792   19.8950 H   0  0  0  0  0  0
  -22.3745  -10.9675   19.6152 H   0  0  0  0  0  0
  -21.2018   -7.6153   23.9718 H   0  0  0  0  0  0
  -21.1484   -6.0525   25.9076 H   0  0  0  0  0  0
  -22.0594   -2.7613   23.2841 H   0  0  0  0  0  0
  -22.4046  -11.9808   22.4864 H   0  0  0  0  0  0
  -21.0996  -13.1114   22.2684 H   0  0  0  0  0  0
  -24.6277  -15.8594   20.5768 H   0  0  0  0  0  0
  -26.2559  -15.6659   20.1720 H   0  0  0  0  0  0
  -26.7534  -32.4887   23.0743 H   0  0  0  0  0  0
  -25.0048  -33.9287   24.9998 H   0  0  0  0  0  0
  -22.8467  -31.2309   21.3062 H   0  0  0  0  0  0
  -23.3778  -35.9446   23.3260 H   0  0  0  0  0  0
  -24.3562  -36.8861   22.2080 H   0  0  0  0  0  0
  -23.7237  -37.6291   23.6774 H   0  0  0  0  0  0
  -26.3102  -31.2266   20.6274 H   0  0  0  0  0  0
  -26.9495  -30.5759   22.0870 H   0  0  0  0  0  0
  -28.1684  -28.3283   21.3264 H   0  0  0  0  0  0
  -25.8262  -25.5805   19.0088 H   0  0  0  0  0  0
  -24.0391  -27.2002   18.9283 H   0  0  0  0  0  0
  -23.9556  -30.4395   19.3757 H   0  0  0  0  0  0
  -22.8780  -29.1525   19.8143 H   0  0  0  0  0  0
  -25.1362  -36.1626   25.0767 H   0  0  0  0  0  0
  -21.0060  -28.3417   24.1258 H   0  0  0  0  0  0
  -20.5661  -26.2413   23.3672 H   0  0  0  0  0  0
  -21.6666  -26.7373   22.1227 H   0  0  0  0  0  0
  -19.6938  -25.6258   21.1298 H   0  0  0  0  0  0
  -19.6728  -27.3135   20.6712 H   0  0  0  0  0  0
  -17.4235  -26.6693   21.4021 H   0  0  0  0  0  0
  -18.0352  -26.0112   22.9031 H   0  0  0  0  0  0
  -19.7989  -30.7349   24.2155 H   0  0  0  0  0  0
  -17.5053  -31.6277   24.5166 H   0  0  0  0  0  0
  -15.5389  -30.2963   23.7721 H   0  0  0  0  0  0
  -15.8722  -28.0800   22.7129 H   0  0  0  0  0  0
  -24.5869  -30.7147   25.7579 H   0  0  0  0  0  0
  -24.8814  -32.3053   26.4490 H   0  0  0  0  0  0
  -25.7819  -30.9130   27.0203 H   0  0  0  0  0  0
  -26.3277  -29.6417   24.1623 H   0  0  0  0  0  0
  -27.3960  -29.7296   25.5386 H   0  0  0  0  0  0
  -27.9263  -30.3934   24.0169 H   0  0  0  0  0  0
  -27.2572  -33.3747   26.1851 H   0  0  0  0  0  0
  -28.3968  -32.6806   25.0416 H   0  0  0  0  0  0
  -28.0581  -31.8652   26.5606 H   0  0  0  0  0  0
  -28.2543  -38.0054   24.7515 H   0  0  0  0  0  0
  -28.1095  -36.2575   24.6293 H   0  0  0  0  0  0
  -27.2276  -37.1358   25.8867 H   0  0  0  0  0  0
  -20.9751  -29.8667   21.6491 H   0  0  0  0  0  0
  -26.0090  -38.2686   24.1422 H   0  0  0  0  0  0
  -31.0647  -19.1579   20.1088 H   0  0  0  0  0  0
  -29.5545  -22.1127   21.3359 H   0  0  0  0  0  0
  -29.8996  -22.1543   19.6687 H   0  0  0  0  0  0
  -27.2130  -23.4428   20.8835 H   0  0  0  0  0  0
  -27.5761  -23.5033   19.2139 H   0  0  0  0  0  0
  1 25  1  0  0  0
  1 30  2  0  0  0
  1 72  1  0  0  0
  2  3  1  0  0  0
  2 25  1  0  0  0
  2 78  1  0  0  0
  2 79  1  0  0  0
  3  4  1  0  0  0
  3 80  1  0  0  0
  3 81  1  0  0  0
  4  5  1  0  0  0
  4 82  1  0  0  0
  4 83  1  0  0  0
  5  6  1  0  0  0
  5 26  1  0  0  0
  5 84  1  0  0  0
  6 25  1  0  0  0
  6 85  1  0  0  0
  6 86  1  0  0  0
  7  8  2  0  0  0
  7 26  1  0  0  0
  7 29  1  0  0  0
  8  9  1  0  0  0
  8 22  1  0  0  0
  9 10  1  0  0  0
  9 27  2  0  0  0
 10 11  2  0  0  0
 10 15  1  0  0  0
 11 12  1  0  0  0
 11 87  1  0  0  0
 12 13  2  0  0  0
 12 88  1  0  0  0
 13 14  1  0  0  0
 13 31  1  0  0  0
 14 15  2  0  0  0
 14 89  1  0  0  0
 15 90  1  0  0  0
 16 17  2  0  0  0
 16 21  1  0  0  0
 16 31  1  0  0  0
 17 18  1  0  0  0
 17 91  1  0  0  0
 18 19  2  0  0  0
 18 92  1  0  0  0
 19 20  1  0  0  0
 19 24  1  0  0  0
 20 21  2  0  0  0
 20 93  1  0  0  0
 21 23  1  0  0  0
 22 28  1  0  0  0
 22 32  2  0  0  0
 26 27  1  0  0  0
 28 94  1  0  0  0
 28 95  1  0  0  0
 29 96  1  0  0  0
 29 97  1  0  0  0
 33 34  1  0  0  0
 33 66  1  0  0  0
 33 70  2  0  0  0
 34 36  1  0  0  0
 34 59  1  0  0  0
 34 98  1  0  0  0
 35 44  2  0  0  0
 35 45  1  0  0  0
 35 68  1  0  0  0
 36 56  1  0  0  0
 36 99  1  0  0  0
 37 39  1  0  0  0
 37 47  1  0  0  0
 37 66  1  0  0  0
 37100  1  0  0  0
 38 43  2  0  0  0
 38 46  1  0  0  0
 38 47  1  0  0  0
 39 64  1  0  0  0
 39 67  2  0  0  0
 40 52  1  0  0  0
 40 53  2  0  0  0
 40 58  1  0  0  0
 41101  1  0  0  0
 41102  1  0  0  0
 41103  1  0  0  0
 41 48  1  0  0  0
 42 43  1  0  0  0
 42 66  1  0  0  0
 42104  1  0  0  0
 42105  1  0  0  0
 43 44  1  0  0  0
 44106  1  0  0  0
 45 46  2  0  0  0
 45107  1  0  0  0
 46108  1  0  0  0
 47109  1  0  0  0
 47110  1  0  0  0
 48 56  1  0  0  0
 48 65  1  0  0  0
 48111  1  0  0  0
 49 50  1  0  0  0
 49 53  1  0  0  0
 49 64  1  0  0  0
 49112  1  0  0  0
 50 51  1  0  0  0
 50113  1  0  0  0
 50114  1  0  0  0
 51 52  1  0  0  0
 51115  1  0  0  0
 51116  1  0  0  0
 52117  1  0  0  0
 52118  1  0  0  0
 53 54  1  0  0  0
 54 55  2  0  0  0
 54119  1  0  0  0
 55 57  1  0  0  0
 55120  1  0  0  0
 56 69  2  0  0  0
 57 58  2  0  0  0
 57121  1  0  0  0
 58122  1  0  0  0
 59 60  1  0  0  0
 59 61  1  0  0  0
 59 62  1  0  0  0
 60123  1  0  0  0
 60124  1  0  0  0
 60125  1  0  0  0
 61126  1  0  0  0
 61127  1  0  0  0
 61128  1  0  0  0
 62129  1  0  0  0
 62130  1  0  0  0
 62131  1  0  0  0
 63 65  1  0  0  0
 63132  1  0  0  0
 63133  1  0  0  0
 63134  1  0  0  0
 64135  1  0  0  0
 65136  1  0  0  0
 68 74  1  0  0  0
 71 72  2  0  0  0
 71 77  1  0  0  0
 71137  1  0  0  0
 72 75  1  0  0  0
 73 74  1  0  0  0
 73 77  1  0  0  0
 73138  1  0  0  0
 73139  1  0  0  0
 74140  1  0  0  0
 74141  1  0  0  0
 75 76  2  0  0  0
 76 77  1  0  0  0
M  ISO  4   1 100  68 101  72 100  74 101
M  END
> <chiral flag>
0

> <version>
0

> <s_m_source_file>
/data/baiqing/PycharmProjects/Reinvent-master-3.2/result/LINK_invent/BTK/process_docking_weight1_custom_sum_contain_oxygen_bond_distance_aromatic_linkinvent_7_9_3/rearranged_h_0070.sdf

> <i_m_source_file_index>
2

> <r_mmod_Potential_Energy-OPLS-2005>
2765.70288085938

> <r_mmod_Stretch_Energy-OPLS-2005>
1215.27429199219

> <r_mmod_Bend_Energy-OPLS-2005>
704.393920898438

> <r_mmod_Torsional_Energy-OPLS-2005>
209.962814331055

> <r_mmod_Improper_Torsional_Energy-OPLS-2005>
3.1764862537384

> <r_mmod_Van_der_Waal_Energy-OPLS-2005>
108.072616577148

> <r_mmod_Electrostatic_Energy-OPLS-2005>
-272.817199707031

> <r_mmod_Solvation_Energy-OPLS-2005>
-210.527969360352

> <b_mmod_Minimization_Converged-OPLS-2005>
0

> <r_mmod_RMS_Derivative-OPLS-2005>
0.0520106479525566

$$$$
2
                    3D
 Structure written by MMmdl.
169177  0  0  1  0            999 V2000
  -30.8559  -14.3460   20.7534 C   0  0  0  0  0  0
  -30.3996  -12.3139   19.4151 C   0  0  0  0  0  0
  -29.4806  -12.5382   18.2047 C   0  0  0  0  0  0
  -28.0114  -12.3601   18.6164 C   0  0  0  0  0  0
  -27.6586  -13.2118   19.8592 C   0  0  2  0  0  0
  -28.6917  -13.0390   20.9921 C   0  0  0  0  0  0
  -25.2575  -13.8186   20.5666 C   0  0  0  0  0  0
  -24.1829  -13.0453   20.9194 C   0  0  0  0  0  0
  -24.6388  -11.6924   20.8733 C   0  0  0  0  0  0
  -23.9062  -10.4305   21.0409 C   0  0  0  0  0  0
  -24.3622   -9.4220   21.9181 C   0  0  0  0  0  0
  -23.6308   -8.2252   22.0748 C   0  0  0  0  0  0
  -22.4288   -8.0289   21.3541 C   0  0  0  0  0  0
  -21.9923   -9.0263   20.4640 C   0  0  0  0  0  0
  -22.7240  -10.2142   20.3055 C   0  0  0  0  0  0
  -21.6863   -6.0733   22.5278 C   0  0  0  0  0  0
  -21.4014   -6.5629   23.8211 C   0  0  0  0  0  0
  -21.3664   -5.6776   24.9173 C   0  0  0  0  0  0
  -21.6058   -4.3051   24.7227 C   0  0  0  0  0  0
  -21.8813   -3.8140   23.4349 C   0  0  0  0  0  0
  -21.9189   -4.6961   22.3398 C   0  0  0  0  0  0
  -22.7851  -13.5253   21.1866 C   0  0  0  0  0  0
  -22.1659   -4.2141   21.0978 F   0  0  0  0  0  0
  -21.5641   -3.4532   25.7736 F   0  0  0  0  0  0
  -30.0477  -13.2807   20.4727 N   0  0  0  0  0  0
  -26.3004  -12.9355   20.3271 N   0  0  0  0  0  0
  -25.9311  -11.6514   20.5725 N   0  0  0  0  0  0
  -22.0490  -12.8245   22.0428 N   0  0  0  0  0  0
  -25.4310  -15.1904   20.4096 N   0  0  0  0  0  0
  -31.7759  -14.6313   19.9818 O   0  0  0  0  0  0
  -21.6647   -6.8895   21.4244 O   0  0  0  0  0  0
  -22.3517  -14.5536   20.6702 O   0  0  0  0  0  0
  -24.6123  -31.8706   23.2122 C   0  0  0  0  0  0
  -25.9031  -32.4830   23.8397 C   0  0  1  0  0  0
  -27.2313  -27.4500   20.0850 C   0  0  0  0  0  0
  -25.5917  -33.8630   24.2327 N   0  0  0  0  0  0
  -23.3979  -30.4951   21.5532 C   0  0  2  0  0  0
  -24.8417  -28.9643   20.1164 C   0  0  0  0  0  0
  -22.7403  -29.4674   22.5005 C   0  0  0  0  0  0
  -18.0284  -28.1376   22.8495 C   0  0  0  0  0  0
  -24.1488  -36.7309   23.2633 C   0  0  0  0  0  0
  -25.9279  -30.8362   21.3696 C   0  0  0  0  0  0
  -26.0008  -29.4755   20.7100 C   0  0  0  0  0  0
  -27.1976  -28.7267   20.6876 C   0  0  0  0  0  0
  -26.0490  -26.9465   19.4920 C   0  0  0  0  0  0
  -24.8596  -27.6983   19.5071 C   0  0  0  0  0  0
  -23.6043  -29.8302   20.1671 C   0  0  0  0  0  0
  -25.4114  -36.3112   24.0332 C   0  0  1  0  0  0
  -20.5875  -28.3659   23.1336 C   0  0  2  0  0  0
  -20.6781  -26.9402   22.5432 C   0  0  0  0  0  0
  -19.5758  -26.6387   21.5226 C   0  0  0  0  0  0
  -18.1932  -26.7924   22.1629 C   0  0  0  0  0  0
  -19.1532  -28.8835   23.2911 C   0  0  0  0  0  0
  -18.9461  -30.1443   23.8915 C   0  0  0  0  0  0
  -17.6463  -30.6584   24.0562 C   0  0  0  0  0  0
  -25.9043  -34.9480   23.5117 C   0  0  0  0  0  0
  -16.5352  -29.9085   23.6335 C   0  0  0  0  0  0
  -16.7274  -28.6508   23.0347 C   0  0  0  0  0  0
  -26.4447  -31.6599   25.0721 C   0  0  0  0  0  0
  -25.3709  -31.3763   26.1480 C   0  0  0  0  0  0
  -27.0240  -30.3016   24.6122 C   0  0  0  0  0  0
  -27.6042  -32.4307   25.7478 C   0  0  0  0  0  0
  -27.5583  -37.1809   24.8456 C   0  0  0  0  0  0
  -21.4142  -29.3019   22.3738 N   0  0  0  0  0  0
  -26.4301  -37.3792   23.9396 N   0  0  0  0  0  0
  -24.6635  -31.0809   22.1025 N   0  0  0  0  0  0
  -23.4198  -28.8226   23.3036 O   0  0  0  0  0  0
  -28.4241  -26.7577   20.0983 O   0  0  0  0  0  0
  -26.5588  -34.8928   22.4670 O   0  0  0  0  0  0
  -23.5322  -32.1466   23.7522 O   0  0  0  0  0  0
  -29.0114  -19.1875   23.0699 C   0  0  0  0  0  0
  -28.6751  -20.5123   23.1318 C   0  0  0  0  0  0
  -29.2344  -21.0676   21.9477 C   0  0  0  0  0  0
  -27.9322  -21.2400   24.2213 C   0  0  0  0  0  0
  -30.4054  -17.6794   19.8699 C   0  0  0  0  0  0
  -32.2687  -15.5618   22.4774 C   0  0  0  0  0  0
  -30.3869  -14.2327   23.3093 C   0  0  0  0  0  0
  -29.2615  -22.5236   21.5297 C   0  0  0  0  0  0
  -27.8842  -23.0860   21.1131 C   0  0  0  0  0  0
  -27.7970  -24.6267   21.1549 C   0  0  0  0  0  0
  -29.8965  -16.4180   22.0744 C   0  0  0  0  0  0
  -28.4177  -25.3355   19.9344 C   0  0  0  0  0  0
  -30.4073  -17.7514   21.4149 C   0  0  2  0  0  0
  -30.8145  -15.1396   22.1146 C   0  0  0  0  0  0
  -29.8268  -20.1359   21.2103 N   0  0  0  0  0  0
  -29.6931  -18.9606   21.8855 N   0  0  0  0  0  0
  -31.4451  -12.3802   19.1102 H   0  0  0  0  0  0
  -30.2780  -11.2999   19.7983 H   0  0  0  0  0  0
  -29.7319  -11.8388   17.4066 H   0  0  0  0  0  0
  -29.6380  -13.5418   17.8059 H   0  0  0  0  0  0
  -27.8455  -11.3022   18.8268 H   0  0  0  0  0  0
  -27.3503  -12.6131   17.7874 H   0  0  0  0  0  0
  -27.6970  -14.2548   19.5413 H   0  0  0  0  0  0
  -28.6351  -12.0420   21.4292 H   0  0  0  0  0  0
  -28.4066  -13.7468   21.7632 H   0  0  0  0  0  0
  -25.2766   -9.5697   22.4751 H   0  0  0  0  0  0
  -24.0022   -7.4632   22.7444 H   0  0  0  0  0  0
  -21.0861   -8.8778   19.8933 H   0  0  0  0  0  0
  -22.3704  -10.9687   19.6161 H   0  0  0  0  0  0
  -21.2005   -7.6136   23.9720 H   0  0  0  0  0  0
  -21.1500   -6.0504   25.9071 H   0  0  0  0  0  0
  -22.0593   -2.7608   23.2843 H   0  0  0  0  0  0
  -22.4097  -11.9917   22.4844 H   0  0  0  0  0  0
  -21.1089  -13.1241   22.2601 H   0  0  0  0  0  0
  -24.6733  -15.8538   20.5292 H   0  0  0  0  0  0
  -26.2914  -15.6285   20.1036 H   0  0  0  0  0  0
  -26.7102  -32.5521   23.1160 H   0  0  0  0  0  0
  -25.0115  -33.9811   25.0500 H   0  0  0  0  0  0
  -22.6848  -31.3113   21.4161 H   0  0  0  0  0  0
  -23.3752  -35.9636   23.3316 H   0  0  0  0  0  0
  -24.3575  -36.8910   22.2044 H   0  0  0  0  0  0
  -23.7250  -37.6518   23.6635 H   0  0  0  0  0  0
  -26.0515  -31.6072   20.6082 H   0  0  0  0  0  0
  -26.8122  -30.8744   21.9948 H   0  0  0  0  0  0
  -28.0969  -29.1190   21.1429 H   0  0  0  0  0  0
  -26.0234  -25.9802   19.0113 H   0  0  0  0  0  0
  -23.9637  -27.2985   19.0511 H   0  0  0  0  0  0
  -23.7172  -30.6063   19.4096 H   0  0  0  0  0  0
  -22.7270  -29.2546   19.8671 H   0  0  0  0  0  0
  -25.1293  -36.1977   25.0826 H   0  0  0  0  0  0
  -20.9957  -28.3216   24.1455 H   0  0  0  0  0  0
  -20.5713  -26.2255   23.3604 H   0  0  0  0  0  0
  -21.6646  -26.7468   22.1194 H   0  0  0  0  0  0
  -19.6919  -25.6305   21.1234 H   0  0  0  0  0  0
  -19.6697  -27.3217   20.6769 H   0  0  0  0  0  0
  -17.4209  -26.6701   21.4018 H   0  0  0  0  0  0
  -18.0311  -26.0060   22.9014 H   0  0  0  0  0  0
  -19.7936  -30.7258   24.2283 H   0  0  0  0  0  0
  -17.5025  -31.6266   24.5156 H   0  0  0  0  0  0
  -15.5358  -30.2990   23.7657 H   0  0  0  0  0  0
  -15.8676  -28.0836   22.7045 H   0  0  0  0  0  0
  -24.5880  -30.7091   25.7860 H   0  0  0  0  0  0
  -24.8898  -32.2948   26.4851 H   0  0  0  0  0  0
  -25.8059  -30.8989   27.0270 H   0  0  0  0  0  0
  -27.3905  -29.7219   25.4600 H   0  0  0  0  0  0
  -27.8677  -30.4290   23.9337 H   0  0  0  0  0  0
  -26.2786  -29.6833   24.1117 H   0  0  0  0  0  0
  -27.2647  -33.3589   26.2096 H   0  0  0  0  0  0
  -28.3826  -32.6920   25.0308 H   0  0  0  0  0  0
  -28.0729  -31.8411   26.5364 H   0  0  0  0  0  0
  -28.2605  -38.0100   24.7498 H   0  0  0  0  0  0
  -28.1082  -36.2638   24.6289 H   0  0  0  0  0  0
  -27.2302  -37.1468   25.8858 H   0  0  0  0  0  0
  -20.9307  -29.8727   21.6941 H   0  0  0  0  0  0
  -26.0194  -38.2871   24.1379 H   0  0  0  0  0  0
  -28.8302  -18.4102   23.7969 H   0  0  0  0  0  0
  -28.4748  -22.1231   24.5532 H   0  0  0  0  0  0
  -27.7695  -20.6144   25.0994 H   0  0  0  0  0  0
  -26.9517  -21.5796   23.8858 H   0  0  0  0  0  0
  -30.7542  -18.6070   19.4148 H   0  0  0  0  0  0
  -29.4080  -17.4791   19.4832 H   0  0  0  0  0  0
  -31.0720  -16.9070   19.4980 H   0  0  0  0  0  0
  -32.2971  -16.1694   23.3826 H   0  0  0  0  0  0
  -32.7623  -16.1414   21.6972 H   0  0  0  0  0  0
  -32.8977  -14.6886   22.6590 H   0  0  0  0  0  0
  -30.5932  -13.1758   23.1361 H   0  0  0  0  0  0
  -30.9137  -14.4930   24.2293 H   0  0  0  0  0  0
  -29.3314  -14.3318   23.5576 H   0  0  0  0  0  0
  -29.9690  -22.6757   20.7139 H   0  0  0  0  0  0
  -29.6513  -23.1096   22.3635 H   0  0  0  0  0  0
  -27.5971  -22.7099   20.1301 H   0  0  0  0  0  0
  -27.1341  -22.7099   21.8086 H   0  0  0  0  0  0
  -28.2681  -24.9885   22.0698 H   0  0  0  0  0  0
  -26.7455  -24.9110   21.2355 H   0  0  0  0  0  0
  -28.9264  -16.1615   21.6448 H   0  0  0  0  0  0
  -29.6881  -16.6263   23.1202 H   0  0  0  0  0  0
  -27.9412  -25.0293   19.0037 H   0  0  0  0  0  0
  -29.4566  -25.0247   19.8374 H   0  0  0  0  0  0
  -31.4355  -17.9232   21.7315 H   0  0  0  0  0  0
  1 25  1  0  0  0
  1 30  2  0  0  0
  1 84  1  0  0  0
  2  3  1  0  0  0
  2 25  1  0  0  0
  2 87  1  0  0  0
  2 88  1  0  0  0
  3  4  1  0  0  0
  3 89  1  0  0  0
  3 90  1  0  0  0
  4  5  1  0  0  0
  4 91  1  0  0  0
  4 92  1  0  0  0
  5  6  1  0  0  0
  5 26  1  0  0  0
  5 93  1  0  0  0
  6 25  1  0  0  0
  6 94  1  0  0  0
  6 95  1  0  0  0
  7  8  2  0  0  0
  7 26  1  0  0  0
  7 29  1  0  0  0
  8  9  1  0  0  0
  8 22  1  0  0  0
  9 10  1  0  0  0
  9 27  2  0  0  0
 10 11  2  0  0  0
 10 15  1  0  0  0
 11 12  1  0  0  0
 11 96  1  0  0  0
 12 13  2  0  0  0
 12 97  1  0  0  0
 13 14  1  0  0  0
 13 31  1  0  0  0
 14 15  2  0  0  0
 14 98  1  0  0  0
 15 99  1  0  0  0
 16 17  2  0  0  0
 16 21  1  0  0  0
 16 31  1  0  0  0
 17 18  1  0  0  0
 17100  1  0  0  0
 18 19  2  0  0  0
 18101  1  0  0  0
 19 20  1  0  0  0
 19 24  1  0  0  0
 20 21  2  0  0  0
 20102  1  0  0  0
 21 23  1  0  0  0
 22 28  1  0  0  0
 22 32  2  0  0  0
 26 27  1  0  0  0
 28103  1  0  0  0
 28104  1  0  0  0
 29105  1  0  0  0
 29106  1  0  0  0
 33 34  1  0  0  0
 33 66  1  0  0  0
 33 70  2  0  0  0
 34 36  1  0  0  0
 34 59  1  0  0  0
 34107  1  0  0  0
 35 44  2  0  0  0
 35 45  1  0  0  0
 35 68  1  0  0  0
 36 56  1  0  0  0
 36108  1  0  0  0
 37 39  1  0  0  0
 37 47  1  0  0  0
 37 66  1  0  0  0
 37109  1  0  0  0
 38 43  2  0  0  0
 38 46  1  0  0  0
 38 47  1  0  0  0
 39 64  1  0  0  0
 39 67  2  0  0  0
 40 52  1  0  0  0
 40 53  2  0  0  0
 40 58  1  0  0  0
 41110  1  0  0  0
 41111  1  0  0  0
 41112  1  0  0  0
 41 48  1  0  0  0
 42 43  1  0  0  0
 42 66  1  0  0  0
 42113  1  0  0  0
 42114  1  0  0  0
 43 44  1  0  0  0
 44115  1  0  0  0
 45 46  2  0  0  0
 45116  1  0  0  0
 46117  1  0  0  0
 47118  1  0  0  0
 47119  1  0  0  0
 48 56  1  0  0  0
 48 65  1  0  0  0
 48120  1  0  0  0
 49 50  1  0  0  0
 49 53  1  0  0  0
 49 64  1  0  0  0
 49121  1  0  0  0
 50 51  1  0  0  0
 50122  1  0  0  0
 50123  1  0  0  0
 51 52  1  0  0  0
 51124  1  0  0  0
 51125  1  0  0  0
 52126  1  0  0  0
 52127  1  0  0  0
 53 54  1  0  0  0
 54 55  2  0  0  0
 54128  1  0  0  0
 55 57  1  0  0  0
 55129  1  0  0  0
 56 69  2  0  0  0
 57 58  2  0  0  0
 57130  1  0  0  0
 58131  1  0  0  0
 59 60  1  0  0  0
 59 61  1  0  0  0
 59 62  1  0  0  0
 60132  1  0  0  0
 60133  1  0  0  0
 60134  1  0  0  0
 61135  1  0  0  0
 61136  1  0  0  0
 61137  1  0  0  0
 62138  1  0  0  0
 62139  1  0  0  0
 62140  1  0  0  0
 63 65  1  0  0  0
 63141  1  0  0  0
 63142  1  0  0  0
 63143  1  0  0  0
 64144  1  0  0  0
 65145  1  0  0  0
 68 82  1  0  0  0
 71 72  2  0  0  0
 71 86  1  0  0  0
 71146  1  0  0  0
 72 73  1  0  0  0
 72 74  1  0  0  0
 73 78  1  0  0  0
 73 85  2  0  0  0
 74147  1  0  0  0
 74148  1  0  0  0
 74149  1  0  0  0
 75150  1  0  0  0
 75151  1  0  0  0
 75152  1  0  0  0
 75 83  1  0  0  0
 76153  1  0  0  0
 76154  1  0  0  0
 76155  1  0  0  0
 76 84  1  0  0  0
 77 84  1  0  0  0
 77156  1  0  0  0
 77157  1  0  0  0
 77158  1  0  0  0
 78 79  1  0  0  0
 78159  1  0  0  0
 78160  1  0  0  0
 79 80  1  0  0  0
 79161  1  0  0  0
 79162  1  0  0  0
 80 82  1  0  0  0
 80163  1  0  0  0
 80164  1  0  0  0
 81 83  1  0  0  0
 81 84  1  0  0  0
 81165  1  0  0  0
 81166  1  0  0  0
 82167  1  0  0  0
 82168  1  0  0  0
 83 86  1  0  0  0
 83169  1  0  0  0
 85 86  1  0  0  0
M  ISO  4   1 100  68 101  82 101  84 100
M  END
> <chiral flag>
0

> <version>
0

> <s_m_source_file>
/data/baiqing/PycharmProjects/Reinvent-master-3.2/result/LINK_invent/BTK/process_docking_weight1_custom_sum_contain_oxygen_bond_distance_aromatic_linkinvent_7_9_3/rearranged_h_0070.sdf

> <i_m_source_file_index>
3

> <r_mmod_Potential_Energy-OPLS-2005>
15.1533718109131

> <r_mmod_Stretch_Energy-OPLS-2005>
44.2859344482422

> <r_mmod_Bend_Energy-OPLS-2005>
120.498031616211

> <r_mmod_Torsional_Energy-OPLS-2005>
215.342269897461

> <r_mmod_Improper_Torsional_Energy-OPLS-2005>
4.05468463897705

> <r_mmod_Van_der_Waal_Energy-OPLS-2005>
146.906890869141

> <r_mmod_Electrostatic_Energy-OPLS-2005>
-340.892730712891

> <r_mmod_Solvation_Energy-OPLS-2005>
-187.419830322266

> <b_mmod_Minimization_Converged-OPLS-2005>
0

> <r_mmod_RMS_Derivative-OPLS-2005>
2.77257299423218

$$$$
3
                    3D
 Structure written by MMmdl.
177185  0  0  1  0            999 V2000
  -30.7895  -14.3498   20.6613 C   0  0  0  0  0  0
  -30.4083  -12.2772   19.3884 C   0  0  0  0  0  0
  -29.4799  -12.5266   18.1857 C   0  0  0  0  0  0
  -28.0025  -12.3893   18.5991 C   0  0  0  0  0  0
  -27.6641  -13.2069   19.8733 C   0  0  2  0  0  0
  -28.7052  -12.9582   20.9877 C   0  0  0  0  0  0
  -25.2632  -13.8191   20.5690 C   0  0  0  0  0  0
  -24.1859  -13.0471   20.9168 C   0  0  0  0  0  0
  -24.6403  -11.6932   20.8705 C   0  0  0  0  0  0
  -23.9055  -10.4311   21.0374 C   0  0  0  0  0  0
  -24.3622   -9.4242   21.9162 C   0  0  0  0  0  0
  -23.6309   -8.2271   22.0730 C   0  0  0  0  0  0
  -22.4291   -8.0297   21.3536 C   0  0  0  0  0  0
  -21.9916   -9.0260   20.4628 C   0  0  0  0  0  0
  -22.7227  -10.2142   20.3023 C   0  0  0  0  0  0
  -21.6865   -6.0749   22.5282 C   0  0  0  0  0  0
  -21.4018   -6.5640   23.8225 C   0  0  0  0  0  0
  -21.3666   -5.6784   24.9183 C   0  0  0  0  0  0
  -21.6045   -4.3049   24.7228 C   0  0  0  0  0  0
  -21.8817   -3.8151   23.4342 C   0  0  0  0  0  0
  -21.9201   -4.6974   22.3403 C   0  0  0  0  0  0
  -22.7891  -13.5267   21.1825 C   0  0  0  0  0  0
  -22.1670   -4.2164   21.0987 F   0  0  0  0  0  0
  -21.5637   -3.4538   25.7741 F   0  0  0  0  0  0
  -30.0480  -13.2310   20.4459 N   0  0  0  0  0  0
  -26.3044  -12.9350   20.3370 N   0  0  0  0  0  0
  -25.9322  -11.6509   20.5741 N   0  0  0  0  0  0
  -22.0500  -12.8273   22.0370 N   0  0  0  0  0  0
  -25.4398  -15.1915   20.4137 N   0  0  0  0  0  0
  -31.8317  -14.5981   20.0424 O   0  0  0  0  0  0
  -21.6653   -6.8896   21.4242 O   0  0  0  0  0  0
  -22.3571  -14.5570   20.6658 O   0  0  0  0  0  0
  -24.6132  -31.8682   23.2070 C   0  0  0  0  0  0
  -25.9041  -32.4814   23.8368 C   0  0  1  0  0  0
  -27.2538  -27.4705   20.0862 C   0  0  0  0  0  0
  -25.5894  -33.8601   24.2327 N   0  0  0  0  0  0
  -23.4034  -30.4909   21.5429 C   0  0  2  0  0  0
  -24.8575  -28.9553   20.1121 C   0  0  0  0  0  0
  -22.7417  -29.4676   22.4944 C   0  0  0  0  0  0
  -18.0271  -28.1408   22.8481 C   0  0  0  0  0  0
  -24.1488  -36.7328   23.2653 C   0  0  0  0  0  0
  -25.9287  -30.8441   21.3546 C   0  0  0  0  0  0
  -26.0109  -29.4770   20.7114 C   0  0  0  0  0  0
  -27.2118  -28.7364   20.7064 C   0  0  0  0  0  0
  -26.0889  -26.9482   19.4900 C   0  0  0  0  0  0
  -24.8888  -27.6875   19.4999 C   0  0  0  0  0  0
  -23.6157  -29.8192   20.1581 C   0  0  0  0  0  0
  -25.4101  -36.3109   24.0358 C   0  0  1  0  0  0
  -20.5877  -28.3695   23.1289 C   0  0  2  0  0  0
  -20.6763  -26.9427   22.5399 C   0  0  0  0  0  0
  -19.5747  -26.6404   21.5198 C   0  0  0  0  0  0
  -18.1923  -26.7953   22.1615 C   0  0  0  0  0  0
  -19.1528  -28.8865   23.2888 C   0  0  0  0  0  0
  -18.9465  -30.1463   23.8909 C   0  0  0  0  0  0
  -17.6465  -30.6604   24.0574 C   0  0  0  0  0  0
  -25.9034  -34.9467   23.5143 C   0  0  0  0  0  0
  -16.5349  -29.9120   23.6326 C   0  0  0  0  0  0
  -16.7259  -28.6544   23.0328 C   0  0  0  0  0  0
  -26.4474  -31.6578   25.0688 C   0  0  0  0  0  0
  -25.3740  -31.3671   26.1435 C   0  0  0  0  0  0
  -27.0294  -30.3028   24.6028 C   0  0  0  0  0  0
  -27.6063  -32.4269   25.7456 C   0  0  0  0  0  0
  -27.5587  -37.1818   24.8473 C   0  0  0  0  0  0
  -21.4146  -29.3054   22.3689 N   0  0  0  0  0  0
  -26.4290  -37.3791   23.9428 N   0  0  0  0  0  0
  -24.6666  -31.0821   22.0954 N   0  0  0  0  0  0
  -23.4192  -28.8213   23.2985 O   0  0  0  0  0  0
  -28.4087  -26.7323   20.0779 O   0  0  0  0  0  0
  -26.5608  -34.8915   22.4712 O   0  0  0  0  0  0
  -23.5312  -32.1412   23.7486 O   0  0  0  0  0  0
  -30.8236  -17.5874   21.6047 C   0  0  0  0  0  0
  -29.1542  -18.2078   20.3447 C   0  0  0  0  0  0
  -30.0521  -16.5025   21.2621 C   0  0  0  0  0  0
  -33.5037  -21.4254   18.4787 C   0  0  0  0  0  0
  -33.6649  -26.0671   19.3610 C   0  0  0  0  0  0
  -30.9210  -14.9525   22.9724 C   0  0  0  0  0  0
  -34.1631  -23.6103   21.2960 C   0  0  0  0  0  0
  -30.7548  -26.8920   19.4903 C   0  0  0  0  0  0
  -31.2099  -25.4231   19.6249 C   0  0  0  0  0  0
  -31.6267  -20.2589   19.6704 C   0  0  0  0  0  0
  -30.7869  -20.0250   20.9403 C   0  0  0  0  0  0
  -32.1256  -22.7236   20.2026 C   0  0  0  0  0  0
  -29.3003  -27.0495   19.0173 C   0  0  0  0  0  0
  -32.7136  -21.3472   19.8005 C   0  0  2  0  0  0
  -32.6568  -25.2276   20.1764 C   0  0  1  0  0  0
  -28.9686  -16.8947   20.4765 N   0  0  0  0  0  0
  -30.2546  -18.6771   20.9600 N   0  0  0  0  0  0
  -30.3633  -15.1735   21.6364 N   0  0  0  0  0  0
  -33.1488  -23.8096   20.2240 N   0  3  1  0  0  0
  -31.4513  -12.3633   19.0778 H   0  0  0  0  0  0
  -30.2919  -11.2578   19.7607 H   0  0  0  0  0  0
  -29.7113  -11.8332   17.3775 H   0  0  0  0  0  0
  -29.6560  -13.5265   17.7847 H   0  0  0  0  0  0
  -27.7922  -11.3309   18.7620 H   0  0  0  0  0  0
  -27.3539  -12.6943   17.7761 H   0  0  0  0  0  0
  -27.7157  -14.2605   19.5981 H   0  0  0  0  0  0
  -28.6589  -11.9181   21.3124 H   0  0  0  0  0  0
  -28.4694  -13.5557   21.8691 H   0  0  0  0  0  0
  -25.2765   -9.5765   22.4738 H   0  0  0  0  0  0
  -24.0042   -7.4679   22.7434 H   0  0  0  0  0  0
  -21.0853   -8.8746   19.8940 H   0  0  0  0  0  0
  -22.3653  -10.9669   19.6138 H   0  0  0  0  0  0
  -21.1985   -7.6148   23.9738 H   0  0  0  0  0  0
  -21.1501   -6.0510   25.9091 H   0  0  0  0  0  0
  -22.0586   -2.7608   23.2840 H   0  0  0  0  0  0
  -22.4104  -11.9973   22.4824 H   0  0  0  0  0  0
  -21.1098  -13.1278   22.2486 H   0  0  0  0  0  0
  -24.6891  -15.8619   20.5493 H   0  0  0  0  0  0
  -26.3271  -15.6269   20.1808 H   0  0  0  0  0  0
  -26.7121  -32.5536   23.1145 H   0  0  0  0  0  0
  -25.0004  -33.9734   25.0433 H   0  0  0  0  0  0
  -22.6928  -31.3086   21.3990 H   0  0  0  0  0  0
  -23.3730  -35.9688   23.3290 H   0  0  0  0  0  0
  -24.3595  -36.8951   22.2070 H   0  0  0  0  0  0
  -23.7254  -37.6542   23.6651 H   0  0  0  0  0  0
  -26.0295  -31.6017   20.5757 H   0  0  0  0  0  0
  -26.8205  -30.9077   21.9649 H   0  0  0  0  0  0
  -28.1026  -29.1344   21.1729 H   0  0  0  0  0  0
  -26.1142  -25.9761   19.0188 H   0  0  0  0  0  0
  -24.0032  -27.2822   19.0291 H   0  0  0  0  0  0
  -23.7266  -30.5923   19.3979 H   0  0  0  0  0  0
  -22.7426  -29.2359   19.8607 H   0  0  0  0  0  0
  -25.1265  -36.1961   25.0846 H   0  0  0  0  0  0
  -20.9968  -28.3258   24.1412 H   0  0  0  0  0  0
  -20.5653  -26.2303   23.3596 H   0  0  0  0  0  0
  -21.6636  -26.7463   22.1193 H   0  0  0  0  0  0
  -19.6902  -25.6317   21.1227 H   0  0  0  0  0  0
  -19.6684  -27.3221   20.6741 H   0  0  0  0  0  0
  -17.4188  -26.6696   21.4015 H   0  0  0  0  0  0
  -18.0319  -26.0095   22.9019 H   0  0  0  0  0  0
  -19.7930  -30.7279   24.2276 H   0  0  0  0  0  0
  -17.5020  -31.6287   24.5189 H   0  0  0  0  0  0
  -15.5356  -30.3036   23.7655 H   0  0  0  0  0  0
  -15.8651  -28.0891   22.7018 H   0  0  0  0  0  0
  -24.5904  -30.7037   25.7763 H   0  0  0  0  0  0
  -24.8933  -32.2814   26.4906 H   0  0  0  0  0  0
  -25.8081  -30.8812   27.0183 H   0  0  0  0  0  0
  -26.2815  -29.6767   24.1156 H   0  0  0  0  0  0
  -27.4176  -29.7280   25.4448 H   0  0  0  0  0  0
  -27.8590  -30.4349   23.9085 H   0  0  0  0  0  0
  -27.2703  -33.3558   26.2069 H   0  0  0  0  0  0
  -28.3871  -32.6823   25.0277 H   0  0  0  0  0  0
  -28.0728  -31.8351   26.5343 H   0  0  0  0  0  0
  -28.2590  -38.0126   24.7533 H   0  0  0  0  0  0
  -28.1087  -36.2660   24.6253 H   0  0  0  0  0  0
  -27.2324  -37.1441   25.8883 H   0  0  0  0  0  0
  -20.9300  -29.8757   21.6891 H   0  0  0  0  0  0
  -26.0173  -38.2875   24.1421 H   0  0  0  0  0  0
  -31.7355  -17.6598   22.1820 H   0  0  0  0  0  0
  -28.4937  -18.8387   19.7645 H   0  0  0  0  0  0
  -33.8754  -20.4419   18.1862 H   0  0  0  0  0  0
  -34.3750  -22.0763   18.5467 H   0  0  0  0  0  0
  -32.8776  -21.7909   17.6644 H   0  0  0  0  0  0
  -33.5139  -27.1349   19.5164 H   0  0  0  0  0  0
  -33.5593  -25.8708   18.2948 H   0  0  0  0  0  0
  -34.7008  -25.8642   19.6291 H   0  0  0  0  0  0
  -32.0107  -15.0255   22.9611 H   0  0  0  0  0  0
  -30.6545  -13.9599   23.3401 H   0  0  0  0  0  0
  -30.5386  -15.6830   23.6844 H   0  0  0  0  0  0
  -34.7699  -22.7229   21.1162 H   0  0  0  0  0  0
  -33.6938  -23.5064   22.2749 H   0  0  0  0  0  0
  -34.8604  -24.4455   21.3578 H   0  0  0  0  0  0
  -31.3852  -27.3934   18.7555 H   0  0  0  0  0  0
  -30.8982  -27.4256   20.4304 H   0  0  0  0  0  0
  -31.1307  -24.9598   18.6409 H   0  0  0  0  0  0
  -30.4982  -24.9135   20.2775 H   0  0  0  0  0  0
  -30.9612  -20.4815   18.8333 H   0  0  0  0  0  0
  -32.1243  -19.3250   19.4015 H   0  0  0  0  0  0
  -29.9646  -20.7383   20.9971 H   0  0  0  0  0  0
  -31.3918  -20.1608   21.8387 H   0  0  0  0  0  0
  -31.6380  -22.6712   21.1777 H   0  0  0  0  0  0
  -31.3409  -22.9279   19.4767 H   0  0  0  0  0  0
  -29.1026  -26.3824   18.1767 H   0  0  0  0  0  0
  -29.1453  -28.0697   18.6582 H   0  0  0  0  0  0
  -33.4014  -21.0122   20.5775 H   0  0  0  0  0  0
  -32.6466  -25.6039   21.2015 H   0  0  0  0  0  0
  -33.6439  -23.6906   19.3530 H   0  0  0  0  0  0
  1 25  1  0  0  0
  1 30  2  0  0  0
  1 88  1  0  0  0
  2  3  1  0  0  0
  2 25  1  0  0  0
  2 90  1  0  0  0
  2 91  1  0  0  0
  3  4  1  0  0  0
  3 92  1  0  0  0
  3 93  1  0  0  0
  4  5  1  0  0  0
  4 94  1  0  0  0
  4 95  1  0  0  0
  5  6  1  0  0  0
  5 26  1  0  0  0
  5 96  1  0  0  0
  6 25  1  0  0  0
  6 97  1  0  0  0
  6 98  1  0  0  0
  7  8  2  0  0  0
  7 26  1  0  0  0
  7 29  1  0  0  0
  8  9  1  0  0  0
  8 22  1  0  0  0
  9 10  1  0  0  0
  9 27  2  0  0  0
 10 11  2  0  0  0
 10 15  1  0  0  0
 11 12  1  0  0  0
 11 99  1  0  0  0
 12 13  2  0  0  0
 12100  1  0  0  0
 13 14  1  0  0  0
 13 31  1  0  0  0
 14 15  2  0  0  0
 14101  1  0  0  0
 15102  1  0  0  0
 16 17  2  0  0  0
 16 21  1  0  0  0
 16 31  1  0  0  0
 17 18  1  0  0  0
 17103  1  0  0  0
 18 19  2  0  0  0
 18104  1  0  0  0
 19 20  1  0  0  0
 19 24  1  0  0  0
 20 21  2  0  0  0
 20105  1  0  0  0
 21 23  1  0  0  0
 22 28  1  0  0  0
 22 32  2  0  0  0
 26 27  1  0  0  0
 28106  1  0  0  0
 28107  1  0  0  0
 29108  1  0  0  0
 29109  1  0  0  0
 33 34  1  0  0  0
 33 66  1  0  0  0
 33 70  2  0  0  0
 34 36  1  0  0  0
 34 59  1  0  0  0
 34110  1  0  0  0
 35 44  2  0  0  0
 35 45  1  0  0  0
 35 68  1  0  0  0
 36 56  1  0  0  0
 36111  1  0  0  0
 37 39  1  0  0  0
 37 47  1  0  0  0
 37 66  1  0  0  0
 37112  1  0  0  0
 38 43  2  0  0  0
 38 46  1  0  0  0
 38 47  1  0  0  0
 39 64  1  0  0  0
 39 67  2  0  0  0
 40 52  1  0  0  0
 40 53  2  0  0  0
 40 58  1  0  0  0
 41113  1  0  0  0
 41114  1  0  0  0
 41115  1  0  0  0
 41 48  1  0  0  0
 42 43  1  0  0  0
 42 66  1  0  0  0
 42116  1  0  0  0
 42117  1  0  0  0
 43 44  1  0  0  0
 44118  1  0  0  0
 45 46  2  0  0  0
 45119  1  0  0  0
 46120  1  0  0  0
 47121  1  0  0  0
 47122  1  0  0  0
 48 56  1  0  0  0
 48 65  1  0  0  0
 48123  1  0  0  0
 49 50  1  0  0  0
 49 53  1  0  0  0
 49 64  1  0  0  0
 49124  1  0  0  0
 50 51  1  0  0  0
 50125  1  0  0  0
 50126  1  0  0  0
 51 52  1  0  0  0
 51127  1  0  0  0
 51128  1  0  0  0
 52129  1  0  0  0
 52130  1  0  0  0
 53 54  1  0  0  0
 54 55  2  0  0  0
 54131  1  0  0  0
 55 57  1  0  0  0
 55132  1  0  0  0
 56 69  2  0  0  0
 57 58  2  0  0  0
 57133  1  0  0  0
 58134  1  0  0  0
 59 60  1  0  0  0
 59 61  1  0  0  0
 59 62  1  0  0  0
 60135  1  0  0  0
 60136  1  0  0  0
 60137  1  0  0  0
 61138  1  0  0  0
 61139  1  0  0  0
 61140  1  0  0  0
 62141  1  0  0  0
 62142  1  0  0  0
 62143  1  0  0  0
 63 65  1  0  0  0
 63144  1  0  0  0
 63145  1  0  0  0
 63146  1  0  0  0
 64147  1  0  0  0
 65148  1  0  0  0
 68 83  1  0  0  0
 71 73  2  0  0  0
 71 87  1  0  0  0
 71149  1  0  0  0
 72 86  2  0  0  0
 72 87  1  0  0  0
 72150  1  0  0  0
 73 86  1  0  0  0
 73 88  1  0  0  0
 74151  1  0  0  0
 74152  1  0  0  0
 74153  1  0  0  0
 74 84  1  0  0  0
 75154  1  0  0  0
 75155  1  0  0  0
 75156  1  0  0  0
 75 85  1  0  0  0
 76 88  1  0  0  0
 76157  1  0  0  0
 76158  1  0  0  0
 76159  1  0  0  0
 77160  1  0  0  0
 77161  1  0  0  0
 77162  1  0  0  0
 77 89  1  0  0  0
 78 79  1  0  0  0
 78 83  1  0  0  0
 78163  1  0  0  0
 78164  1  0  0  0
 79 85  1  0  0  0
 79165  1  0  0  0
 79166  1  0  0  0
 80 81  1  0  0  0
 80 84  1  0  0  0
 80167  1  0  0  0
 80168  1  0  0  0
 81 87  1  0  0  0
 81169  1  0  0  0
 81170  1  0  0  0
 82 84  1  0  0  0
 82 89  1  0  0  0
 82171  1  0  0  0
 82172  1  0  0  0
 83173  1  0  0  0
 83174  1  0  0  0
 84175  1  0  0  0
 85 89  1  0  0  0
 85176  1  0  0  0
 89177  1  0  0  0
M  CHG  1  89   1
M  ISO  4   1 100  68 101  83 101  88 100
M  END
> <chiral flag>
0

> <version>
0

> <s_m_source_file>
/data/baiqing/PycharmProjects/Reinvent-master-3.2/result/LINK_invent/BTK/process_docking_weight1_custom_sum_contain_oxygen_bond_distance_aromatic_linkinvent_7_9_3/rearranged_h_0070.sdf

> <i_m_source_file_index>
4

> <r_mmod_Potential_Energy-OPLS-2005>
63.6856803894043

> <r_mmod_Stretch_Energy-OPLS-2005>
35.882698059082

> <r_mmod_Bend_Energy-OPLS-2005>
117.541770935059

> <r_mmod_Torsional_Energy-OPLS-2005>
357.906372070312

> <r_mmod_Improper_Torsional_Energy-OPLS-2005>
4.36668872833252

> <r_mmod_Van_der_Waal_Energy-OPLS-2005>
134.513336181641

> <r_mmod_Electrostatic_Energy-OPLS-2005>
-167.414764404297

> <r_mmod_Solvation_Energy-OPLS-2005>
-426.512451171875

> <b_mmod_Minimization_Converged-OPLS-2005>
0

> <r_mmod_RMS_Derivative-OPLS-2005>
3.54384422302246

$$$$
4
                    3D
 Structure written by MMmdl.
158166  0  0  1  0            999 V2000
  -30.5074  -14.9667   20.3929 C   0  0  0  0  0  0
  -30.4681  -12.5918   19.4871 C   0  0  0  0  0  0
  -29.5262  -12.5180   18.2571 C   0  0  0  0  0  0
  -28.0520  -12.3135   18.6716 C   0  0  0  0  0  0
  -27.6349  -13.2098   19.8654 C   0  0  2  0  0  0
  -28.7061  -13.1739   20.9785 C   0  0  0  0  0  0
  -25.2451  -13.8062   20.5690 C   0  0  0  0  0  0
  -24.1760  -13.0348   20.9248 C   0  0  0  0  0  0
  -24.6353  -11.6829   20.8805 C   0  0  0  0  0  0
  -23.9030  -10.4236   21.0438 C   0  0  0  0  0  0
  -24.3591   -9.4158   21.9213 C   0  0  0  0  0  0
  -23.6269   -8.2196   22.0764 C   0  0  0  0  0  0
  -22.4254   -8.0247   21.3544 C   0  0  0  0  0  0
  -21.9888   -9.0220   20.4647 C   0  0  0  0  0  0
  -22.7212  -10.2097   20.3072 C   0  0  0  0  0  0
  -21.6840   -6.0720   22.5284 C   0  0  0  0  0  0
  -21.4007   -6.5633   23.8213 C   0  0  0  0  0  0
  -21.3655   -5.6789   24.9174 C   0  0  0  0  0  0
  -21.6043   -4.3052   24.7227 C   0  0  0  0  0  0
  -21.8821   -3.8141   23.4350 C   0  0  0  0  0  0
  -21.9188   -4.6953   22.3404 C   0  0  0  0  0  0
  -22.7787  -13.5160   21.1878 C   0  0  0  0  0  0
  -22.1659   -4.2140   21.0981 F   0  0  0  0  0  0
  -21.5623   -3.4540   25.7743 F   0  0  0  0  0  0
  -29.9704  -13.6661   20.3950 N   0  0  0  0  0  0
  -26.2912  -12.9229   20.3441 N   0  0  0  0  0  0
  -25.9293  -11.6403   20.5889 N   0  0  0  0  0  0
  -22.0432  -12.8178   22.0445 N   0  0  0  0  0  0
  -25.3973  -15.1782   20.3896 N   0  0  0  0  0  0
  -31.7207  -15.0272   20.1532 O   0  0  0  0  0  0
  -21.6611   -6.8855   21.4243 O   0  0  0  0  0  0
  -22.3492  -14.5472   20.6711 O   0  0  0  0  0  0
  -24.6407  -31.8465   23.1897 C   0  0  0  0  0  0
  -25.9182  -32.4713   23.8285 C   0  0  1  0  0  0
  -27.2335  -27.1716   20.1463 C   0  0  0  0  0  0
  -25.5935  -33.8518   24.2206 N   0  0  0  0  0  0
  -23.4440  -30.4648   21.5339 C   0  0  2  0  0  0
  -24.8968  -28.8950   20.1108 C   0  0  0  0  0  0
  -22.7557  -29.4554   22.4861 C   0  0  0  0  0  0
  -18.0304  -28.1397   22.8478 C   0  0  0  0  0  0
  -24.1487  -36.7260   23.2643 C   0  0  0  0  0  0
  -25.9969  -30.7318   21.3827 C   0  0  0  0  0  0
  -26.0717  -29.3452   20.7260 C   0  0  0  0  0  0
  -27.2401  -28.4994   20.7266 C   0  0  0  0  0  0
  -26.0304  -26.8136   19.4957 C   0  0  0  0  0  0
  -24.8869  -27.6411   19.4815 C   0  0  0  0  0  0
  -23.6704  -29.7922   20.1534 C   0  0  0  0  0  0
  -25.4117  -36.3044   24.0322 C   0  0  1  0  0  0
  -20.5916  -28.3717   23.1235 C   0  0  2  0  0  0
  -20.6779  -26.9422   22.5399 C   0  0  0  0  0  0
  -19.5753  -26.6385   21.5206 C   0  0  0  0  0  0
  -18.1940  -26.7937   22.1626 C   0  0  0  0  0  0
  -19.1560  -28.8878   23.2852 C   0  0  0  0  0  0
  -18.9477  -30.1472   23.8881 C   0  0  0  0  0  0
  -17.6474  -30.6593   24.0564 C   0  0  0  0  0  0
  -25.9065  -34.9416   23.5074 C   0  0  0  0  0  0
  -16.5365  -29.9088   23.6335 C   0  0  0  0  0  0
  -16.7289  -28.6507   23.0356 C   0  0  0  0  0  0
  -26.4519  -31.6573   25.0713 C   0  0  0  0  0  0
  -25.3710  -31.3742   26.1410 C   0  0  0  0  0  0
  -27.0380  -30.2977   24.6262 C   0  0  0  0  0  0
  -27.6061  -32.4326   25.7494 C   0  0  0  0  0  0
  -27.5574  -37.1784   24.8468 C   0  0  0  0  0  0
  -21.4252  -29.3047   22.3612 N   0  0  0  0  0  0
  -26.4284  -37.3751   23.9415 N   0  0  0  0  0  0
  -24.7135  -31.0345   22.0916 N   0  0  0  0  0  0
  -23.4209  -28.8104   23.3007 O   0  0  0  0  0  0
  -28.3078  -26.2181   20.2197 O   0  0  0  0  0  0
  -26.5652  -34.8911   22.4652 O   0  0  0  0  0  0
  -23.5528  -32.1321   23.7129 O   0  0  0  0  0  0
  -29.1952  -19.1183   20.2358 C   0  0  0  0  0  0
  -29.6167  -20.5066   20.3808 C   0  0  0  0  0  0
  -30.0772  -17.9676   20.4842 C   0  0  0  0  0  0
  -31.6666  -19.5900   20.9732 C   0  0  0  0  0  0
  -33.0938  -19.8675   21.3925 C   0  0  0  0  0  0
  -28.8728  -16.3900   19.0019 C   0  0  0  0  0  0
  -28.5888  -16.3077   21.5620 C   0  0  0  0  0  0
  -28.7127  -21.8388   20.0815 C   0  0  0  0  0  0
  -29.1002  -23.4364   20.3825 C   0  0  0  0  0  0
  -28.0678  -24.7040   20.0263 C   0  0  0  0  0  0
  -29.5865  -16.3907   20.3821 C   0  0  0  0  0  0
  -30.9025  -20.6726   20.7470 N   0  0  0  0  0  0
  -31.3265  -18.2933   20.8788 N   0  0  0  0  0  0
  -31.4910  -12.7770   19.1562 H   0  0  0  0  0  0
  -30.5025  -11.6318   20.0037 H   0  0  0  0  0  0
  -29.8384  -11.7067   17.5985 H   0  0  0  0  0  0
  -29.6207  -13.4306   17.6695 H   0  0  0  0  0  0
  -27.9357  -11.2659   18.9514 H   0  0  0  0  0  0
  -27.3900  -12.4744   17.8210 H   0  0  0  0  0  0
  -27.5737  -14.2148   19.4795 H   0  0  0  0  0  0
  -28.8219  -12.1512   21.3407 H   0  0  0  0  0  0
  -28.4249  -13.7211   21.8732 H   0  0  0  0  0  0
  -25.2734   -9.5629   22.4796 H   0  0  0  0  0  0
  -23.9972   -7.4581   22.7482 H   0  0  0  0  0  0
  -21.0826   -8.8741   19.8948 H   0  0  0  0  0  0
  -22.3686  -10.9645   19.6184 H   0  0  0  0  0  0
  -21.2003   -7.6141   23.9717 H   0  0  0  0  0  0
  -21.1477   -6.0515   25.9078 H   0  0  0  0  0  0
  -22.0604   -2.7605   23.2851 H   0  0  0  0  0  0
  -22.4042  -11.9827   22.4819 H   0  0  0  0  0  0
  -21.1064  -13.1224   22.2679 H   0  0  0  0  0  0
  -24.6111  -15.8125   20.4782 H   0  0  0  0  0  0
  -26.2282  -15.6261   20.0292 H   0  0  0  0  0  0
  -26.7252  -32.5341   23.1025 H   0  0  0  0  0  0
  -25.0057  -33.9635   25.0336 H   0  0  0  0  0  0
  -22.7450  -31.2894   21.3788 H   0  0  0  0  0  0
  -23.3755  -35.9584   23.3295 H   0  0  0  0  0  0
  -24.3573  -36.8896   22.2060 H   0  0  0  0  0  0
  -23.7234  -37.6452   23.6680 H   0  0  0  0  0  0
  -26.1443  -31.4861   20.6086 H   0  0  0  0  0  0
  -26.8698  -30.7857   22.0213 H   0  0  0  0  0  0
  -28.1361  -28.8402   21.2264 H   0  0  0  0  0  0
  -25.9410  -25.8546   19.0082 H   0  0  0  0  0  0
  -23.9899  -27.2899   18.9903 H   0  0  0  0  0  0
  -23.8043  -30.5657   19.3959 H   0  0  0  0  0  0
  -22.7868  -29.2302   19.8458 H   0  0  0  0  0  0
  -25.1304  -36.1877   25.0814 H   0  0  0  0  0  0
  -21.0012  -28.3306   24.1353 H   0  0  0  0  0  0
  -20.5653  -26.2338   23.3621 H   0  0  0  0  0  0
  -21.6648  -26.7415   22.1211 H   0  0  0  0  0  0
  -19.6907  -25.6291   21.1251 H   0  0  0  0  0  0
  -19.6688  -27.3183   20.6727 H   0  0  0  0  0  0
  -17.4203  -26.6681   21.4038 H   0  0  0  0  0  0
  -18.0345  -26.0087   22.9032 H   0  0  0  0  0  0
  -19.7951  -30.7294   24.2245 H   0  0  0  0  0  0
  -17.5024  -31.6271   24.5166 H   0  0  0  0  0  0
  -15.5362  -30.2984   23.7661 H   0  0  0  0  0  0
  -15.8692  -28.0817   22.7075 H   0  0  0  0  0  0
  -24.5905  -30.7077   25.7727 H   0  0  0  0  0  0
  -24.8879  -32.2912   26.4790 H   0  0  0  0  0  0
  -25.7996  -30.8950   27.0219 H   0  0  0  0  0  0
  -26.2988  -29.6706   24.1266 H   0  0  0  0  0  0
  -27.4009  -29.7271   25.4821 H   0  0  0  0  0  0
  -27.8890  -30.4236   23.9564 H   0  0  0  0  0  0
  -27.2674  -33.3648   26.2027 H   0  0  0  0  0  0
  -28.3896  -32.6843   25.0333 H   0  0  0  0  0  0
  -28.0703  -31.8475   26.5444 H   0  0  0  0  0  0
  -28.2589  -38.0085   24.7511 H   0  0  0  0  0  0
  -28.1071  -36.2611   24.6300 H   0  0  0  0  0  0
  -27.2290  -37.1441   25.8871 H   0  0  0  0  0  0
  -20.9455  -29.8777   21.6811 H   0  0  0  0  0  0
  -26.0153  -38.2821   24.1416 H   0  0  0  0  0  0
  -28.1727  -18.9311   19.9357 H   0  0  0  0  0  0
  -33.2194  -19.6624   22.4549 H   0  0  0  0  0  0
  -33.3675  -20.9076   21.2131 H   0  0  0  0  0  0
  -33.7908  -19.2411   20.8352 H   0  0  0  0  0  0
  -28.8855  -15.4351   18.4872 H   0  0  0  0  0  0
  -29.3785  -17.0589   18.3048 H   0  0  0  0  0  0
  -27.8391  -16.7277   19.0736 H   0  0  0  0  0  0
  -27.7800  -15.6134   21.3868 H   0  0  0  0  0  0
  -28.0833  -17.2539   21.7519 H   0  0  0  0  0  0
  -29.0968  -16.0391   22.4893 H   0  0  0  0  0  0
  -27.7687  -21.6528   20.5930 H   0  0  0  0  0  0
  -28.4611  -21.7756   19.0234 H   0  0  0  0  0  0
  -30.0411  -23.6343   19.8689 H   0  0  0  0  0  0
  -29.3395  -23.5054   21.4433 H   0  0  0  0  0  0
  -27.1431  -24.4794   20.5592 H   0  0  0  0  0  0
  -27.8205  -24.5855   18.9710 H   0  0  0  0  0  0
  1 25  1  0  0  0
  1 30  2  0  0  0
  1 81  1  0  0  0
  2  3  1  0  0  0
  2 25  1  0  0  0
  2 84  1  0  0  0
  2 85  1  0  0  0
  3  4  1  0  0  0
  3 86  1  0  0  0
  3 87  1  0  0  0
  4  5  1  0  0  0
  4 88  1  0  0  0
  4 89  1  0  0  0
  5  6  1  0  0  0
  5 26  1  0  0  0
  5 90  1  0  0  0
  6 25  1  0  0  0
  6 91  1  0  0  0
  6 92  1  0  0  0
  7  8  2  0  0  0
  7 26  1  0  0  0
  7 29  1  0  0  0
  8  9  1  0  0  0
  8 22  1  0  0  0
  9 10  1  0  0  0
  9 27  2  0  0  0
 10 11  2  0  0  0
 10 15  1  0  0  0
 11 12  1  0  0  0
 11 93  1  0  0  0
 12 13  2  0  0  0
 12 94  1  0  0  0
 13 14  1  0  0  0
 13 31  1  0  0  0
 14 15  2  0  0  0
 14 95  1  0  0  0
 15 96  1  0  0  0
 16 17  2  0  0  0
 16 21  1  0  0  0
 16 31  1  0  0  0
 17 18  1  0  0  0
 17 97  1  0  0  0
 18 19  2  0  0  0
 18 98  1  0  0  0
 19 20  1  0  0  0
 19 24  1  0  0  0
 20 21  2  0  0  0
 20 99  1  0  0  0
 21 23  1  0  0  0
 22 28  1  0  0  0
 22 32  2  0  0  0
 26 27  1  0  0  0
 28100  1  0  0  0
 28101  1  0  0  0
 29102  1  0  0  0
 29103  1  0  0  0
 33 34  1  0  0  0
 33 66  1  0  0  0
 33 70  2  0  0  0
 34 36  1  0  0  0
 34 59  1  0  0  0
 34104  1  0  0  0
 35 44  2  0  0  0
 35 45  1  0  0  0
 35 68  1  0  0  0
 36 56  1  0  0  0
 36105  1  0  0  0
 37 39  1  0  0  0
 37 47  1  0  0  0
 37 66  1  0  0  0
 37106  1  0  0  0
 38 43  2  0  0  0
 38 46  1  0  0  0
 38 47  1  0  0  0
 39 64  1  0  0  0
 39 67  2  0  0  0
 40 52  1  0  0  0
 40 53  2  0  0  0
 40 58  1  0  0  0
 41107  1  0  0  0
 41108  1  0  0  0
 41109  1  0  0  0
 41 48  1  0  0  0
 42 43  1  0  0  0
 42 66  1  0  0  0
 42110  1  0  0  0
 42111  1  0  0  0
 43 44  1  0  0  0
 44112  1  0  0  0
 45 46  2  0  0  0
 45113  1  0  0  0
 46114  1  0  0  0
 47115  1  0  0  0
 47116  1  0  0  0
 48 56  1  0  0  0
 48 65  1  0  0  0
 48117  1  0  0  0
 49 50  1  0  0  0
 49 53  1  0  0  0
 49 64  1  0  0  0
 49118  1  0  0  0
 50 51  1  0  0  0
 50119  1  0  0  0
 50120  1  0  0  0
 51 52  1  0  0  0
 51121  1  0  0  0
 51122  1  0  0  0
 52123  1  0  0  0
 52124  1  0  0  0
 53 54  1  0  0  0
 54 55  2  0  0  0
 54125  1  0  0  0
 55 57  1  0  0  0
 55126  1  0  0  0
 56 69  2  0  0  0
 57 58  2  0  0  0
 57127  1  0  0  0
 58128  1  0  0  0
 59 60  1  0  0  0
 59 61  1  0  0  0
 59 62  1  0  0  0
 60129  1  0  0  0
 60130  1  0  0  0
 60131  1  0  0  0
 61132  1  0  0  0
 61133  1  0  0  0
 61134  1  0  0  0
 62135  1  0  0  0
 62136  1  0  0  0
 62137  1  0  0  0
 63 65  1  0  0  0
 63138  1  0  0  0
 63139  1  0  0  0
 63140  1  0  0  0
 64141  1  0  0  0
 65142  1  0  0  0
 68 80  1  0  0  0
 71 72  2  0  0  0
 71 73  1  0  0  0
 71143  1  0  0  0
 72 78  1  0  0  0
 72 82  1  0  0  0
 73 81  1  0  0  0
 73 83  2  0  0  0
 74 75  1  0  0  0
 74 82  2  0  0  0
 74 83  1  0  0  0
 75144  1  0  0  0
 75145  1  0  0  0
 75146  1  0  0  0
 76147  1  0  0  0
 76148  1  0  0  0
 76149  1  0  0  0
 76 81  1  0  0  0
 77 81  1  0  0  0
 77150  1  0  0  0
 77151  1  0  0  0
 77152  1  0  0  0
 78 79  1  0  0  0
 78153  1  0  0  0
 78154  1  0  0  0
 79 80  1  0  0  0
 79155  1  0  0  0
 79156  1  0  0  0
 80157  1  0  0  0
 80158  1  0  0  0
M  ISO  4   1 100  68 101  80 101  81 100
M  END
> <chiral flag>
0

> <version>
0

> <s_m_source_file>
/data/baiqing/PycharmProjects/Reinvent-master-3.2/result/LINK_invent/BTK/process_docking_weight1_custom_sum_contain_oxygen_bond_distance_aromatic_linkinvent_7_9_3/rearranged_h_0070.sdf

> <i_m_source_file_index>
5

> <r_mmod_Potential_Energy-OPLS-2005>
154.404876708984

> <r_mmod_Stretch_Energy-OPLS-2005>
242.433059692383

> <r_mmod_Bend_Energy-OPLS-2005>
273.782989501953

> <r_mmod_Torsional_Energy-OPLS-2005>
217.349884033203

> <r_mmod_Improper_Torsional_Energy-OPLS-2005>
6.8423056602478

> <r_mmod_Van_der_Waal_Energy-OPLS-2005>
157.258224487305

> <r_mmod_Electrostatic_Energy-OPLS-2005>
-688.1240234375

> <r_mmod_Solvation_Energy-OPLS-2005>
-231.248687744141

> <b_mmod_Minimization_Converged-OPLS-2005>
0

> <r_mmod_RMS_Derivative-OPLS-2005>
1.04321491718292

$$$$
5
                    3D
 Structure written by MMmdl.
173181  0  0  1  0            999 V2000
  -30.6347  -14.7296   20.5533 C   0  0  0  0  0  0
  -30.4401  -12.4691   19.4687 C   0  0  0  0  0  0
  -29.5123  -12.5338   18.2336 C   0  0  0  0  0  0
  -28.0375  -12.3402   18.6386 C   0  0  0  0  0  0
  -27.6460  -13.2099   19.8596 C   0  0  2  0  0  0
  -28.6964  -13.0708   20.9853 C   0  0  0  0  0  0
  -25.2511  -13.8040   20.5757 C   0  0  0  0  0  0
  -24.1781  -13.0314   20.9184 C   0  0  0  0  0  0
  -24.6373  -11.6809   20.8704 C   0  0  0  0  0  0
  -23.9061  -10.4208   21.0385 C   0  0  0  0  0  0
  -24.3597   -9.4149   21.9182 C   0  0  0  0  0  0
  -23.6270   -8.2192   22.0759 C   0  0  0  0  0  0
  -22.4258   -8.0231   21.3539 C   0  0  0  0  0  0
  -21.9891   -9.0198   20.4634 C   0  0  0  0  0  0
  -22.7237  -10.2062   20.3030 C   0  0  0  0  0  0
  -21.6841   -6.0697   22.5279 C   0  0  0  0  0  0
  -21.4009   -6.5619   23.8200 C   0  0  0  0  0  0
  -21.3654   -5.6783   24.9174 C   0  0  0  0  0  0
  -21.6060   -4.3049   24.7230 C   0  0  0  0  0  0
  -21.8833   -3.8129   23.4356 C   0  0  0  0  0  0
  -21.9185   -4.6931   22.3403 C   0  0  0  0  0  0
  -22.7830  -13.5165   21.1873 C   0  0  0  0  0  0
  -22.1645   -4.2129   21.0979 F   0  0  0  0  0  0
  -21.5639   -3.4527   25.7742 F   0  0  0  0  0  0
  -29.9930  -13.5034   20.4411 N   0  0  0  0  0  0
  -26.2940  -12.9246   20.3299 N   0  0  0  0  0  0
  -25.9306  -11.6406   20.5700 N   0  0  0  0  0  0
  -22.0481  -12.8154   22.0422 N   0  0  0  0  0  0
  -25.4147  -15.1750   20.4405 N   0  0  0  0  0  0
  -31.7644  -14.8142   20.0608 O   0  0  0  0  0  0
  -21.6623   -6.8831   21.4231 O   0  0  0  0  0  0
  -22.3540  -14.5497   20.6754 O   0  0  0  0  0  0
  -24.6275  -31.8590   23.2016 C   0  0  0  0  0  0
  -25.9135  -32.4774   23.8333 C   0  0  1  0  0  0
  -27.2341  -27.3041   20.1190 C   0  0  0  0  0  0
  -25.5957  -33.8578   24.2279 N   0  0  0  0  0  0
  -23.4227  -30.4830   21.5418 C   0  0  2  0  0  0
  -24.8739  -28.9367   20.1089 C   0  0  0  0  0  0
  -22.7491  -29.4636   22.4906 C   0  0  0  0  0  0
  -18.0304  -28.1390   22.8494 C   0  0  0  0  0  0
  -24.1483  -36.7289   23.2630 C   0  0  0  0  0  0
  -25.9646  -30.7850   21.3768 C   0  0  0  0  0  0
  -26.0414  -29.4103   20.7209 C   0  0  0  0  0  0
  -27.2215  -28.6049   20.7170 C   0  0  0  0  0  0
  -26.0424  -26.8980   19.4704 C   0  0  0  0  0  0
  -24.8782  -27.6876   19.4732 C   0  0  0  0  0  0
  -23.6405  -29.8166   20.1575 C   0  0  0  0  0  0
  -25.4109  -36.3078   24.0317 C   0  0  1  0  0  0
  -20.5903  -28.3724   23.1261 C   0  0  2  0  0  0
  -20.6784  -26.9437   22.5405 C   0  0  0  0  0  0
  -19.5752  -26.6392   21.5211 C   0  0  0  0  0  0
  -18.1937  -26.7939   22.1625 C   0  0  0  0  0  0
  -19.1552  -28.8869   23.2878 C   0  0  0  0  0  0
  -18.9471  -30.1469   23.8901 C   0  0  0  0  0  0
  -17.6468  -30.6592   24.0573 C   0  0  0  0  0  0
  -25.9045  -34.9447   23.5086 C   0  0  0  0  0  0
  -16.5364  -29.9089   23.6327 C   0  0  0  0  0  0
  -16.7290  -28.6503   23.0353 C   0  0  0  0  0  0
  -26.4508  -31.6589   25.0711 C   0  0  0  0  0  0
  -25.3738  -31.3757   26.1438 C   0  0  0  0  0  0
  -27.0348  -30.3007   24.6179 C   0  0  0  0  0  0
  -27.6055  -32.4330   25.7496 C   0  0  0  0  0  0
  -27.5569  -37.1798   24.8462 C   0  0  0  0  0  0
  -21.4198  -29.3072   22.3651 N   0  0  0  0  0  0
  -26.4286  -37.3770   23.9399 N   0  0  0  0  0  0
  -24.6899  -31.0586   22.0976 N   0  0  0  0  0  0
  -23.4213  -28.8183   23.2993 O   0  0  0  0  0  0
  -28.3434  -26.4342   20.1904 O   0  0  0  0  0  0
  -26.5605  -34.8924   22.4648 O   0  0  0  0  0  0
  -23.5437  -32.1409   23.7339 O   0  0  0  0  0  0
  -27.6525  -19.7827   19.0735 C   0  0  0  0  0  0
  -27.3228  -18.5541   18.5858 C   0  0  0  0  0  0
  -29.1930  -18.3470   19.8279 C   0  0  0  0  0  0
  -25.9925  -19.1238   16.5689 C   0  0  0  0  0  0
  -24.8814  -18.2311   18.6238 C   0  0  0  0  0  0
  -26.3175  -16.7154   17.1908 C   0  0  0  0  0  0
  -28.6248  -16.1127   21.7253 C   0  0  0  0  0  0
  -30.9383  -16.2260   22.5329 C   0  0  0  0  0  0
  -30.3632  -17.5052   20.4262 C   0  0  0  0  0  0
  -28.6819  -22.3392   20.0069 C   0  0  0  0  0  0
  -29.1307  -23.8254   20.4124 C   0  0  0  0  0  0
  -29.4637  -20.9615   20.3656 C   0  0  0  0  0  0
  -28.1229  -24.9830   19.9367 C   0  0  0  0  0  0
  -26.1419  -18.1425   17.7462 C   0  0  0  0  0  0
  -30.0935  -16.1068   21.2386 C   0  0  0  0  0  0
  -28.8251  -19.6900   19.7923 N   0  0  0  0  0  0
  -28.2988  -17.7174   19.0493 N   0  3  0  0  0  0
  -31.4775  -12.5977   19.1566 H   0  0  0  0  0  0
  -30.4076  -11.4771   19.9213 H   0  0  0  0  0  0
  -29.7999  -11.7779   17.5025 H   0  0  0  0  0  0
  -29.6336  -13.5000   17.7398 H   0  0  0  0  0  0
  -27.8944  -11.2850   18.8760 H   0  0  0  0  0  0
  -27.3822  -12.5557   17.7939 H   0  0  0  0  0  0
  -27.6501  -14.2352   19.4978 H   0  0  0  0  0  0
  -28.7531  -12.0286   21.3025 H   0  0  0  0  0  0
  -28.4107  -13.5867   21.8908 H   0  0  0  0  0  0
  -25.2716   -9.5626   22.4777 H   0  0  0  0  0  0
  -23.9945   -7.4619   22.7534 H   0  0  0  0  0  0
  -21.0824   -8.8705   19.8928 H   0  0  0  0  0  0
  -22.3686  -10.9605   19.6136 H   0  0  0  0  0  0
  -21.1996   -7.6134   23.9692 H   0  0  0  0  0  0
  -21.1473   -6.0514   25.9073 H   0  0  0  0  0  0
  -22.0617   -2.7585   23.2866 H   0  0  0  0  0  0
  -22.4077  -11.9810   22.4808 H   0  0  0  0  0  0
  -21.1108  -13.1190   22.2605 H   0  0  0  0  0  0
  -24.6407  -15.8088   20.6003 H   0  0  0  0  0  0
  -26.2883  -15.6437   20.2608 H   0  0  0  0  0  0
  -26.7204  -32.5464   23.1080 H   0  0  0  0  0  0
  -25.0136  -33.9712   25.0448 H   0  0  0  0  0  0
  -22.7167  -31.3032   21.3961 H   0  0  0  0  0  0
  -23.3735  -35.9631   23.3299 H   0  0  0  0  0  0
  -24.3566  -36.8913   22.2040 H   0  0  0  0  0  0
  -23.7246  -37.6493   23.6659 H   0  0  0  0  0  0
  -26.0934  -31.5457   20.6045 H   0  0  0  0  0  0
  -26.8448  -30.8377   22.0064 H   0  0  0  0  0  0
  -28.1132  -28.9600   21.2130 H   0  0  0  0  0  0
  -25.9776  -25.9496   18.9582 H   0  0  0  0  0  0
  -23.9878  -27.3230   18.9807 H   0  0  0  0  0  0
  -23.7634  -30.5908   19.3993 H   0  0  0  0  0  0
  -22.7612  -29.2465   19.8529 H   0  0  0  0  0  0
  -25.1288  -36.1904   25.0807 H   0  0  0  0  0  0
  -21.0010  -28.3303   24.1373 H   0  0  0  0  0  0
  -20.5676  -26.2334   23.3620 H   0  0  0  0  0  0
  -21.6650  -26.7455   22.1197 H   0  0  0  0  0  0
  -19.6910  -25.6300   21.1244 H   0  0  0  0  0  0
  -19.6667  -27.3188   20.6733 H   0  0  0  0  0  0
  -17.4205  -26.6707   21.4027 H   0  0  0  0  0  0
  -18.0339  -26.0065   22.9007 H   0  0  0  0  0  0
  -19.7944  -30.7289   24.2259 H   0  0  0  0  0  0
  -17.5021  -31.6264   24.5183 H   0  0  0  0  0  0
  -15.5362  -30.2995   23.7634 H   0  0  0  0  0  0
  -15.8697  -28.0824   22.7062 H   0  0  0  0  0  0
  -24.5897  -30.7123   25.7775 H   0  0  0  0  0  0
  -24.8953  -32.2945   26.4844 H   0  0  0  0  0  0
  -25.8052  -30.8947   27.0227 H   0  0  0  0  0  0
  -26.2929  -29.6754   24.1196 H   0  0  0  0  0  0
  -27.4028  -29.7262   25.4686 H   0  0  0  0  0  0
  -27.8807  -30.4266   23.9416 H   0  0  0  0  0  0
  -27.2648  -33.3628   26.2064 H   0  0  0  0  0  0
  -28.3878  -32.6899   25.0345 H   0  0  0  0  0  0
  -28.0711  -31.8470   26.5430 H   0  0  0  0  0  0
  -28.2588  -38.0093   24.7503 H   0  0  0  0  0  0
  -28.1062  -36.2621   24.6293 H   0  0  0  0  0  0
  -27.2294  -37.1466   25.8870 H   0  0  0  0  0  0
  -20.9387  -29.8803   21.6863 H   0  0  0  0  0  0
  -26.0156  -38.2836   24.1423 H   0  0  0  0  0  0
  -27.1147  -20.7035   18.9162 H   0  0  0  0  0  0
  -25.8116  -20.1448   16.9103 H   0  0  0  0  0  0
  -25.1513  -18.8497   15.9313 H   0  0  0  0  0  0
  -26.8896  -19.1379   15.9473 H   0  0  0  0  0  0
  -23.9918  -17.9207   18.0772 H   0  0  0  0  0  0
  -24.7127  -19.2503   18.9750 H   0  0  0  0  0  0
  -24.9593  -17.6036   19.5084 H   0  0  0  0  0  0
  -27.2069  -16.6365   16.5649 H   0  0  0  0  0  0
  -25.4616  -16.4273   16.5800 H   0  0  0  0  0  0
  -26.4025  -15.9728   17.9822 H   0  0  0  0  0  0
  -28.3204  -17.1147   22.0301 H   0  0  0  0  0  0
  -28.4691  -15.5133   22.6206 H   0  0  0  0  0  0
  -27.9292  -15.7997   20.9588 H   0  0  0  0  0  0
  -30.6425  -17.0885   23.1311 H   0  0  0  0  0  0
  -32.0018  -16.3379   22.3141 H   0  0  0  0  0  0
  -30.8297  -15.3447   23.1688 H   0  0  0  0  0  0
  -30.8913  -18.2167   21.0615 H   0  0  0  0  0  0
  -31.0417  -17.3255   19.5920 H   0  0  0  0  0  0
  -28.5850  -22.3686   18.9212 H   0  0  0  0  0  0
  -27.6682  -22.2307   20.3953 H   0  0  0  0  0  0
  -30.1234  -24.0249   20.0064 H   0  0  0  0  0  0
  -29.2359  -23.8793   21.4956 H   0  0  0  0  0  0
  -29.5313  -20.8313   21.4462 H   0  0  0  0  0  0
  -30.4839  -21.0015   19.9859 H   0  0  0  0  0  0
  -27.1632  -24.7120   20.3777 H   0  0  0  0  0  0
  -28.0037  -24.8767   18.8575 H   0  0  0  0  0  0
  -28.3541  -16.7373   18.8103 H   0  0  0  0  0  0
  1 25  1  0  0  0
  1 30  2  0  0  0
  1 85  1  0  0  0
  2  3  1  0  0  0
  2 25  1  0  0  0
  2 88  1  0  0  0
  2 89  1  0  0  0
  3  4  1  0  0  0
  3 90  1  0  0  0
  3 91  1  0  0  0
  4  5  1  0  0  0
  4 92  1  0  0  0
  4 93  1  0  0  0
  5  6  1  0  0  0
  5 26  1  0  0  0
  5 94  1  0  0  0
  6 25  1  0  0  0
  6 95  1  0  0  0
  6 96  1  0  0  0
  7  8  2  0  0  0
  7 26  1  0  0  0
  7 29  1  0  0  0
  8  9  1  0  0  0
  8 22  1  0  0  0
  9 10  1  0  0  0
  9 27  2  0  0  0
 10 11  2  0  0  0
 10 15  1  0  0  0
 11 12  1  0  0  0
 11 97  1  0  0  0
 12 13  2  0  0  0
 12 98  1  0  0  0
 13 14  1  0  0  0
 13 31  1  0  0  0
 14 15  2  0  0  0
 14 99  1  0  0  0
 15100  1  0  0  0
 16 17  2  0  0  0
 16 21  1  0  0  0
 16 31  1  0  0  0
 17 18  1  0  0  0
 17101  1  0  0  0
 18 19  2  0  0  0
 18102  1  0  0  0
 19 20  1  0  0  0
 19 24  1  0  0  0
 20 21  2  0  0  0
 20103  1  0  0  0
 21 23  1  0  0  0
 22 28  1  0  0  0
 22 32  2  0  0  0
 26 27  1  0  0  0
 28104  1  0  0  0
 28105  1  0  0  0
 29106  1  0  0  0
 29107  1  0  0  0
 33 34  1  0  0  0
 33 66  1  0  0  0
 33 70  2  0  0  0
 34 36  1  0  0  0
 34 59  1  0  0  0
 34108  1  0  0  0
 35 44  2  0  0  0
 35 45  1  0  0  0
 35 68  1  0  0  0
 36 56  1  0  0  0
 36109  1  0  0  0
 37 39  1  0  0  0
 37 47  1  0  0  0
 37 66  1  0  0  0
 37110  1  0  0  0
 38 43  2  0  0  0
 38 46  1  0  0  0
 38 47  1  0  0  0
 39 64  1  0  0  0
 39 67  2  0  0  0
 40 52  1  0  0  0
 40 53  2  0  0  0
 40 58  1  0  0  0
 41111  1  0  0  0
 41112  1  0  0  0
 41113  1  0  0  0
 41 48  1  0  0  0
 42 43  1  0  0  0
 42 66  1  0  0  0
 42114  1  0  0  0
 42115  1  0  0  0
 43 44  1  0  0  0
 44116  1  0  0  0
 45 46  2  0  0  0
 45117  1  0  0  0
 46118  1  0  0  0
 47119  1  0  0  0
 47120  1  0  0  0
 48 56  1  0  0  0
 48 65  1  0  0  0
 48121  1  0  0  0
 49 50  1  0  0  0
 49 53  1  0  0  0
 49 64  1  0  0  0
 49122  1  0  0  0
 50 51  1  0  0  0
 50123  1  0  0  0
 50124  1  0  0  0
 51 52  1  0  0  0
 51125  1  0  0  0
 51126  1  0  0  0
 52127  1  0  0  0
 52128  1  0  0  0
 53 54  1  0  0  0
 54 55  2  0  0  0
 54129  1  0  0  0
 55 57  1  0  0  0
 55130  1  0  0  0
 56 69  2  0  0  0
 57 58  2  0  0  0
 57131  1  0  0  0
 58132  1  0  0  0
 59 60  1  0  0  0
 59 61  1  0  0  0
 59 62  1  0  0  0
 60133  1  0  0  0
 60134  1  0  0  0
 60135  1  0  0  0
 61136  1  0  0  0
 61137  1  0  0  0
 61138  1  0  0  0
 62139  1  0  0  0
 62140  1  0  0  0
 62141  1  0  0  0
 63 65  1  0  0  0
 63142  1  0  0  0
 63143  1  0  0  0
 63144  1  0  0  0
 64145  1  0  0  0
 65146  1  0  0  0
 68 83  1  0  0  0
 71 72  2  0  0  0
 71 86  1  0  0  0
 71147  1  0  0  0
 72 84  1  0  0  0
 72 87  1  0  0  0
 73 79  1  0  0  0
 73 86  1  0  0  0
 73 87  2  0  0  0
 74148  1  0  0  0
 74149  1  0  0  0
 74150  1  0  0  0
 74 84  1  0  0  0
 75 84  1  0  0  0
 75151  1  0  0  0
 75152  1  0  0  0
 75153  1  0  0  0
 76 84  1  0  0  0
 76154  1  0  0  0
 76155  1  0  0  0
 76156  1  0  0  0
 77157  1  0  0  0
 77158  1  0  0  0
 77159  1  0  0  0
 77 85  1  0  0  0
 78 85  1  0  0  0
 78160  1  0  0  0
 78161  1  0  0  0
 78162  1  0  0  0
 79 85  1  0  0  0
 79163  1  0  0  0
 79164  1  0  0  0
 80 81  1  0  0  0
 80 82  1  0  0  0
 80165  1  0  0  0
 80166  1  0  0  0
 81 83  1  0  0  0
 81167  1  0  0  0
 81168  1  0  0  0
 82 86  1  0  0  0
 82169  1  0  0  0
 82170  1  0  0  0
 83171  1  0  0  0
 83172  1  0  0  0
 87173  1  0  0  0
M  CHG  1  87   1
M  ISO  4   1 100  68 101  83 101  85 100
M  END
> <chiral flag>
0

> <version>
0

> <s_m_source_file>
/data/baiqing/PycharmProjects/Reinvent-master-3.2/result/LINK_invent/BTK/process_docking_weight1_custom_sum_contain_oxygen_bond_distance_aromatic_linkinvent_7_9_3/rearranged_h_0070.sdf

> <i_m_source_file_index>
6

> <r_mmod_Potential_Energy-OPLS-2005>
178.937271118164

> <r_mmod_Stretch_Energy-OPLS-2005>
127.527603149414

> <r_mmod_Bend_Energy-OPLS-2005>
220.469085693359

> <r_mmod_Torsional_Energy-OPLS-2005>
214.545791625977

> <r_mmod_Improper_Torsional_Energy-OPLS-2005>
1.76962673664093

> <r_mmod_Van_der_Waal_Energy-OPLS-2005>
134.473617553711

> <r_mmod_Electrostatic_Energy-OPLS-2005>
-204.63801574707

> <r_mmod_Solvation_Energy-OPLS-2005>
-380.543304443359

> <b_mmod_Minimization_Converged-OPLS-2005>
0

> <r_mmod_RMS_Derivative-OPLS-2005>
2.48219704627991

$$$$
6
                    3D
 Structure written by MMmdl.
165173  0  0  1  0            999 V2000
  -30.7124  -14.4551   20.6149 C   0  0  0  0  0  0
  -30.4252  -12.3164   19.4145 C   0  0  0  0  0  0
  -29.5037  -12.5531   18.2015 C   0  0  0  0  0  0
  -28.0160  -12.4279   18.5959 C   0  0  0  0  0  0
  -27.6670  -13.2119   19.8891 C   0  0  2  0  0  0
  -28.7101  -12.9625   21.0040 C   0  0  0  0  0  0
  -25.2520  -13.8153   20.5558 C   0  0  0  0  0  0
  -24.1815  -13.0421   20.9167 C   0  0  0  0  0  0
  -24.6405  -11.6902   20.8759 C   0  0  0  0  0  0
  -23.9059  -10.4289   21.0441 C   0  0  0  0  0  0
  -24.3601   -9.4202   21.9212 C   0  0  0  0  0  0
  -23.6284   -8.2231   22.0768 C   0  0  0  0  0  0
  -22.4255   -8.0284   21.3549 C   0  0  0  0  0  0
  -21.9903   -9.0266   20.4648 C   0  0  0  0  0  0
  -22.7236  -10.2148   20.3080 C   0  0  0  0  0  0
  -21.6823   -6.0747   22.5273 C   0  0  0  0  0  0
  -21.4022   -6.5656   23.8220 C   0  0  0  0  0  0
  -21.3661   -5.6797   24.9176 C   0  0  0  0  0  0
  -21.6043   -4.3058   24.7207 C   0  0  0  0  0  0
  -21.8825   -3.8150   23.4320 C   0  0  0  0  0  0
  -21.9191   -4.6981   22.3388 C   0  0  0  0  0  0
  -22.7830  -13.5194   21.1839 C   0  0  0  0  0  0
  -22.1638   -4.2177   21.0963 F   0  0  0  0  0  0
  -21.5622   -3.4563   25.7731 F   0  0  0  0  0  0
  -30.0444  -13.2783   20.4621 N   0  0  0  0  0  0
  -26.3026  -12.9346   20.3374 N   0  0  0  0  0  0
  -25.9333  -11.6499   20.5750 N   0  0  0  0  0  0
  -22.0446  -12.8246   22.0433 N   0  0  0  0  0  0
  -25.4105  -15.1866   20.3785 N   0  0  0  0  0  0
  -31.8019  -14.6773   20.0795 O   0  0  0  0  0  0
  -21.6586   -6.8903   21.4244 O   0  0  0  0  0  0
  -22.3518  -14.5477   20.6656 O   0  0  0  0  0  0
  -24.6186  -31.8693   23.2083 C   0  0  0  0  0  0
  -25.9074  -32.4831   23.8389 C   0  0  1  0  0  0
  -27.2189  -27.4079   20.0961 C   0  0  0  0  0  0
  -25.5933  -33.8628   24.2312 N   0  0  0  0  0  0
  -23.4052  -30.4960   21.5508 C   0  0  2  0  0  0
  -24.8465  -28.9604   20.1127 C   0  0  0  0  0  0
  -22.7428  -29.4692   22.4964 C   0  0  0  0  0  0
  -18.0278  -28.1399   22.8513 C   0  0  0  0  0  0
  -24.1475  -36.7281   23.2634 C   0  0  0  0  0  0
  -25.9396  -30.8295   21.3641 C   0  0  0  0  0  0
  -26.0142  -29.4629   20.7063 C   0  0  0  0  0  0
  -27.2048  -28.6953   20.6928 C   0  0  0  0  0  0
  -26.0376  -26.9445   19.4715 C   0  0  0  0  0  0
  -24.8532  -27.7009   19.4962 C   0  0  0  0  0  0
  -23.6120  -29.8323   20.1642 C   0  0  0  0  0  0
  -25.4107  -36.3107   24.0333 C   0  0  1  0  0  0
  -20.5880  -28.3693   23.1305 C   0  0  2  0  0  0
  -20.6765  -26.9428   22.5416 C   0  0  0  0  0  0
  -19.5741  -26.6401   21.5218 C   0  0  0  0  0  0
  -18.1909  -26.7952   22.1623 C   0  0  0  0  0  0
  -19.1533  -28.8853   23.2905 C   0  0  0  0  0  0
  -18.9468  -30.1458   23.8920 C   0  0  0  0  0  0
  -17.6474  -30.6607   24.0577 C   0  0  0  0  0  0
  -25.9061  -34.9477   23.5109 C   0  0  0  0  0  0
  -16.5358  -29.9132   23.6336 C   0  0  0  0  0  0
  -16.7265  -28.6539   23.0364 C   0  0  0  0  0  0
  -26.4492  -31.6632   25.0733 C   0  0  0  0  0  0
  -25.3743  -31.3782   26.1475 C   0  0  0  0  0  0
  -27.0326  -30.3068   24.6144 C   0  0  0  0  0  0
  -27.6052  -32.4358   25.7506 C   0  0  0  0  0  0
  -27.5575  -37.1797   24.8478 C   0  0  0  0  0  0
  -21.4141  -29.3061   22.3703 N   0  0  0  0  0  0
  -26.4280  -37.3800   23.9424 N   0  0  0  0  0  0
  -24.6738  -31.0787   22.0994 N   0  0  0  0  0  0
  -23.4196  -28.8226   23.2988 O   0  0  0  0  0  0
  -28.3450  -26.6000   20.1247 O   0  0  0  0  0  0
  -26.5589  -34.8953   22.4661 O   0  0  0  0  0  0
  -23.5369  -32.1431   23.7482 O   0  0  0  0  0  0
  -28.6176  -20.2675   21.1064 C   0  0  0  0  0  0
  -30.3365  -21.1421   20.1431 C   0  0  0  0  0  0
  -29.4388  -19.2407   20.6746 C   0  0  0  0  0  0
  -28.9361  -17.2681   19.2247 C   0  0  0  0  0  0
  -27.9004  -17.4410   21.4890 C   0  0  0  0  0  0
  -30.4974  -24.5074   20.8812 C   0  0  0  0  0  0
  -29.1350  -24.0018   18.8013 C   0  0  0  0  0  0
  -28.5720  -22.8120   21.0270 C   0  0  0  0  0  0
  -30.3386  -16.8678   21.3077 C   0  0  0  0  0  0
  -28.1163  -25.2932   20.7203 C   0  0  0  0  0  0
  -29.1841  -17.7234   20.6790 C   0  0  0  0  0  0
  -29.1012  -24.1345   20.3409 C   0  0  0  0  0  0
  -30.5469  -19.8270   20.0565 N   0  0  0  0  0  0
  -29.1832  -21.4940   20.7420 N   0  0  0  0  0  0
  -30.0523  -15.4134   21.2924 N   0  0  0  0  0  0
  -31.4735  -12.4107   19.1200 H   0  0  0  0  0  0
  -30.3083  -11.2949   19.7821 H   0  0  0  0  0  0
  -29.7461  -11.8554   17.3980 H   0  0  0  0  0  0
  -29.6898  -13.5526   17.8028 H   0  0  0  0  0  0
  -27.7889  -11.3685   18.7164 H   0  0  0  0  0  0
  -27.3892  -12.7834   17.7768 H   0  0  0  0  0  0
  -27.7131  -14.2697   19.6380 H   0  0  0  0  0  0
  -28.6861  -11.9155   21.3178 H   0  0  0  0  0  0
  -28.4682  -13.5397   21.8983 H   0  0  0  0  0  0
  -25.2758   -9.5683   22.4768 H   0  0  0  0  0  0
  -24.0024   -7.4613   22.7465 H   0  0  0  0  0  0
  -21.0833   -8.8741   19.8944 H   0  0  0  0  0  0
  -22.3671  -10.9677   19.6168 H   0  0  0  0  0  0
  -21.2011   -7.6167   23.9757 H   0  0  0  0  0  0
  -21.1478   -6.0502   25.9091 H   0  0  0  0  0  0
  -22.0609   -2.7621   23.2781 H   0  0  0  0  0  0
  -22.3969  -11.9929   22.4921 H   0  0  0  0  0  0
  -21.1070  -13.1329   22.2579 H   0  0  0  0  0  0
  -24.6328  -15.8315   20.4733 H   0  0  0  0  0  0
  -26.2396  -15.6255   20.0014 H   0  0  0  0  0  0
  -26.7144  -32.5527   23.1151 H   0  0  0  0  0  0
  -25.0181  -33.9800   25.0528 H   0  0  0  0  0  0
  -22.6959  -31.3133   21.4132 H   0  0  0  0  0  0
  -23.3757  -35.9593   23.3316 H   0  0  0  0  0  0
  -24.3575  -36.8879   22.2049 H   0  0  0  0  0  0
  -23.7222  -37.6483   23.6644 H   0  0  0  0  0  0
  -26.0570  -31.6005   20.6014 H   0  0  0  0  0  0
  -26.8237  -30.8756   21.9854 H   0  0  0  0  0  0
  -28.1060  -29.0743   21.1564 H   0  0  0  0  0  0
  -26.0194  -25.9863   18.9714 H   0  0  0  0  0  0
  -23.9545  -27.3115   19.0349 H   0  0  0  0  0  0
  -23.7199  -30.6101   19.4081 H   0  0  0  0  0  0
  -22.7339  -29.2569   19.8629 H   0  0  0  0  0  0
  -25.1289  -36.1942   25.0822 H   0  0  0  0  0  0
  -20.9964  -28.3251   24.1428 H   0  0  0  0  0  0
  -20.5676  -26.2303   23.3606 H   0  0  0  0  0  0
  -21.6633  -26.7471   22.1202 H   0  0  0  0  0  0
  -19.6907  -25.6309   21.1254 H   0  0  0  0  0  0
  -19.6685  -27.3201   20.6740 H   0  0  0  0  0  0
  -17.4190  -26.6714   21.4018 H   0  0  0  0  0  0
  -18.0305  -26.0094   22.9012 H   0  0  0  0  0  0
  -19.7948  -30.7254   24.2302 H   0  0  0  0  0  0
  -17.5050  -31.6293   24.5170 H   0  0  0  0  0  0
  -15.5369  -30.3040   23.7676 H   0  0  0  0  0  0
  -15.8654  -28.0863   22.7087 H   0  0  0  0  0  0
  -24.5905  -30.7141   25.7832 H   0  0  0  0  0  0
  -24.8953  -32.2962   26.4885 H   0  0  0  0  0  0
  -25.8076  -30.8990   27.0259 H   0  0  0  0  0  0
  -26.2891  -29.6840   24.1163 H   0  0  0  0  0  0
  -27.4058  -29.7311   25.4626 H   0  0  0  0  0  0
  -27.8741  -30.4393   23.9335 H   0  0  0  0  0  0
  -27.2667  -33.3669   26.2064 H   0  0  0  0  0  0
  -28.3879  -32.6907   25.0346 H   0  0  0  0  0  0
  -28.0698  -31.8501   26.5449 H   0  0  0  0  0  0
  -28.2600  -38.0082   24.7511 H   0  0  0  0  0  0
  -28.1045  -36.2619   24.6290 H   0  0  0  0  0  0
  -27.2293  -37.1424   25.8878 H   0  0  0  0  0  0
  -20.9287  -29.8792   21.6939 H   0  0  0  0  0  0
  -26.0158  -38.2866   24.1434 H   0  0  0  0  0  0
  -27.6566  -20.2213   21.6069 H   0  0  0  0  0  0
  -31.0380  -21.8500   19.7290 H   0  0  0  0  0  0
  -29.8348  -17.3664   18.6172 H   0  0  0  0  0  0
  -28.1511  -17.8590   18.7528 H   0  0  0  0  0  0
  -28.6308  -16.2256   19.1691 H   0  0  0  0  0  0
  -27.0365  -17.9478   21.0562 H   0  0  0  0  0  0
  -27.9955  -17.7954   22.5167 H   0  0  0  0  0  0
  -27.6557  -16.3813   21.5255 H   0  0  0  0  0  0
  -31.2701  -23.7996   20.5919 H   0  0  0  0  0  0
  -30.4965  -24.5582   21.9710 H   0  0  0  0  0  0
  -30.8093  -25.4855   20.5118 H   0  0  0  0  0  0
  -29.8472  -23.2577   18.4492 H   0  0  0  0  0  0
  -29.4187  -24.9458   18.3344 H   0  0  0  0  0  0
  -28.1567  -23.7292   18.4024 H   0  0  0  0  0  0
  -27.5132  -22.7032   20.7712 H   0  0  0  0  0  0
  -28.5937  -22.9464   22.1123 H   0  0  0  0  0  0
  -30.4998  -17.1640   22.3469 H   0  0  0  0  0  0
  -31.2775  -17.0813   20.7930 H   0  0  0  0  0  0
  -28.1350  -25.4403   21.8013 H   0  0  0  0  0  0
  -27.1104  -24.9308   20.5151 H   0  0  0  0  0  0
  -29.1781  -15.1343   21.7120 H   0  0  0  0  0  0
  1 25  1  0  0  0
  1 30  2  0  0  0
  1 85  1  0  0  0
  2  3  1  0  0  0
  2 25  1  0  0  0
  2 86  1  0  0  0
  2 87  1  0  0  0
  3  4  1  0  0  0
  3 88  1  0  0  0
  3 89  1  0  0  0
  4  5  1  0  0  0
  4 90  1  0  0  0
  4 91  1  0  0  0
  5  6  1  0  0  0
  5 26  1  0  0  0
  5 92  1  0  0  0
  6 25  1  0  0  0
  6 93  1  0  0  0
  6 94  1  0  0  0
  7  8  2  0  0  0
  7 26  1  0  0  0
  7 29  1  0  0  0
  8  9  1  0  0  0
  8 22  1  0  0  0
  9 10  1  0  0  0
  9 27  2  0  0  0
 10 11  2  0  0  0
 10 15  1  0  0  0
 11 12  1  0  0  0
 11 95  1  0  0  0
 12 13  2  0  0  0
 12 96  1  0  0  0
 13 14  1  0  0  0
 13 31  1  0  0  0
 14 15  2  0  0  0
 14 97  1  0  0  0
 15 98  1  0  0  0
 16 17  2  0  0  0
 16 21  1  0  0  0
 16 31  1  0  0  0
 17 18  1  0  0  0
 17 99  1  0  0  0
 18 19  2  0  0  0
 18100  1  0  0  0
 19 20  1  0  0  0
 19 24  1  0  0  0
 20 21  2  0  0  0
 20101  1  0  0  0
 21 23  1  0  0  0
 22 28  1  0  0  0
 22 32  2  0  0  0
 26 27  1  0  0  0
 28102  1  0  0  0
 28103  1  0  0  0
 29104  1  0  0  0
 29105  1  0  0  0
 33 34  1  0  0  0
 33 66  1  0  0  0
 33 70  2  0  0  0
 34 36  1  0  0  0
 34 59  1  0  0  0
 34106  1  0  0  0
 35 44  2  0  0  0
 35 45  1  0  0  0
 35 68  1  0  0  0
 36 56  1  0  0  0
 36107  1  0  0  0
 37 39  1  0  0  0
 37 47  1  0  0  0
 37 66  1  0  0  0
 37108  1  0  0  0
 38 43  2  0  0  0
 38 46  1  0  0  0
 38 47  1  0  0  0
 39 64  1  0  0  0
 39 67  2  0  0  0
 40 52  1  0  0  0
 40 53  2  0  0  0
 40 58  1  0  0  0
 41109  1  0  0  0
 41110  1  0  0  0
 41111  1  0  0  0
 41 48  1  0  0  0
 42 43  1  0  0  0
 42 66  1  0  0  0
 42112  1  0  0  0
 42113  1  0  0  0
 43 44  1  0  0  0
 44114  1  0  0  0
 45 46  2  0  0  0
 45115  1  0  0  0
 46116  1  0  0  0
 47117  1  0  0  0
 47118  1  0  0  0
 48 56  1  0  0  0
 48 65  1  0  0  0
 48119  1  0  0  0
 49 50  1  0  0  0
 49 53  1  0  0  0
 49 64  1  0  0  0
 49120  1  0  0  0
 50 51  1  0  0  0
 50121  1  0  0  0
 50122  1  0  0  0
 51 52  1  0  0  0
 51123  1  0  0  0
 51124  1  0  0  0
 52125  1  0  0  0
 52126  1  0  0  0
 53 54  1  0  0  0
 54 55  2  0  0  0
 54127  1  0  0  0
 55 57  1  0  0  0
 55128  1  0  0  0
 56 69  2  0  0  0
 57 58  2  0  0  0
 57129  1  0  0  0
 58130  1  0  0  0
 59 60  1  0  0  0
 59 61  1  0  0  0
 59 62  1  0  0  0
 60131  1  0  0  0
 60132  1  0  0  0
 60133  1  0  0  0
 61134  1  0  0  0
 61135  1  0  0  0
 61136  1  0  0  0
 62137  1  0  0  0
 62138  1  0  0  0
 62139  1  0  0  0
 63 65  1  0  0  0
 63140  1  0  0  0
 63141  1  0  0  0
 63142  1  0  0  0
 64143  1  0  0  0
 65144  1  0  0  0
 68 80  1  0  0  0
 71 73  2  0  0  0
 71 84  1  0  0  0
 71145  1  0  0  0
 72 83  2  0  0  0
 72 84  1  0  0  0
 72146  1  0  0  0
 73 81  1  0  0  0
 73 83  1  0  0  0
 74147  1  0  0  0
 74148  1  0  0  0
 74149  1  0  0  0
 74 81  1  0  0  0
 75 81  1  0  0  0
 75150  1  0  0  0
 75151  1  0  0  0
 75152  1  0  0  0
 76153  1  0  0  0
 76154  1  0  0  0
 76155  1  0  0  0
 76 82  1  0  0  0
 77 82  1  0  0  0
 77156  1  0  0  0
 77157  1  0  0  0
 77158  1  0  0  0
 78 82  1  0  0  0
 78 84  1  0  0  0
 78159  1  0  0  0
 78160  1  0  0  0
 79 81  1  0  0  0
 79 85  1  0  0  0
 79161  1  0  0  0
 79162  1  0  0  0
 80 82  1  0  0  0
 80163  1  0  0  0
 80164  1  0  0  0
 85165  1  0  0  0
M  ISO  4   1 100  68 101  80 101  85 100
M  END
> <chiral flag>
0

> <version>
0

> <s_m_source_file>
/data/baiqing/PycharmProjects/Reinvent-master-3.2/result/LINK_invent/BTK/process_docking_weight1_custom_sum_contain_oxygen_bond_distance_aromatic_linkinvent_7_9_3/rearranged_h_0070.sdf

> <i_m_source_file_index>
7

> <r_mmod_Potential_Energy-OPLS-2005>
-101.108581542969

> <r_mmod_Stretch_Energy-OPLS-2005>
48.9442863464355

> <r_mmod_Bend_Energy-OPLS-2005>
128.553298950195

> <r_mmod_Torsional_Energy-OPLS-2005>
227.906051635742

> <r_mmod_Improper_Torsional_Energy-OPLS-2005>
3.79323673248291

> <r_mmod_Van_der_Waal_Energy-OPLS-2005>
130.497741699219

> <r_mmod_Electrostatic_Energy-OPLS-2005>
-439.043090820312

> <r_mmod_Solvation_Energy-OPLS-2005>
-216.837173461914

> <b_mmod_Minimization_Converged-OPLS-2005>
0

> <r_mmod_RMS_Derivative-OPLS-2005>
4.6180419921875

$$$$
7
                    3D
 Structure written by MMmdl.
173181  0  0  1  0            999 V2000
  -30.7968  -14.4197   20.7077 C   0  0  0  0  0  0
  -30.4158  -12.3310   19.4196 C   0  0  0  0  0  0
  -29.4926  -12.5314   18.2022 C   0  0  0  0  0  0
  -28.0140  -12.3795   18.6024 C   0  0  0  0  0  0
  -27.6617  -13.2131   19.8581 C   0  0  2  0  0  0
  -28.6990  -13.0065   20.9820 C   0  0  0  0  0  0
  -25.2595  -13.8177   20.5639 C   0  0  0  0  0  0
  -24.1859  -13.0461   20.9155 C   0  0  0  0  0  0
  -24.6418  -11.6918   20.8711 C   0  0  0  0  0  0
  -23.9084  -10.4300   21.0402 C   0  0  0  0  0  0
  -24.3633   -9.4216   21.9198 C   0  0  0  0  0  0
  -23.6314   -8.2252   22.0754 C   0  0  0  0  0  0
  -22.4293   -8.0280   21.3544 C   0  0  0  0  0  0
  -21.9940   -9.0246   20.4636 C   0  0  0  0  0  0
  -22.7257  -10.2133   20.3055 C   0  0  0  0  0  0
  -21.6849   -6.0751   22.5286 C   0  0  0  0  0  0
  -21.4020   -6.5648   23.8212 C   0  0  0  0  0  0
  -21.3662   -5.6779   24.9177 C   0  0  0  0  0  0
  -21.6037   -4.3059   24.7211 C   0  0  0  0  0  0
  -21.8830   -3.8154   23.4333 C   0  0  0  0  0  0
  -21.9205   -4.6985   22.3389 C   0  0  0  0  0  0
  -22.7874  -13.5264   21.1825 C   0  0  0  0  0  0
  -22.1670   -4.2184   21.0962 F   0  0  0  0  0  0
  -21.5630   -3.4523   25.7719 F   0  0  0  0  0  0
  -30.0444  -13.3024   20.4668 N   0  0  0  0  0  0
  -26.3031  -12.9366   20.3245 N   0  0  0  0  0  0
  -25.9332  -11.6523   20.5691 N   0  0  0  0  0  0
  -22.0499  -12.8256   22.0360 N   0  0  0  0  0  0
  -25.4359  -15.1896   20.4011 N   0  0  0  0  0  0
  -31.7785  -14.6528   19.9942 O   0  0  0  0  0  0
  -21.6653   -6.8891   21.4238 O   0  0  0  0  0  0
  -22.3561  -14.5594   20.6695 O   0  0  0  0  0  0
  -24.6168  -31.8689   23.2136 C   0  0  0  0  0  0
  -25.9048  -32.4846   23.8427 C   0  0  1  0  0  0
  -27.2367  -27.4015   20.0815 C   0  0  0  0  0  0
  -25.5899  -33.8653   24.2358 N   0  0  0  0  0  0
  -23.4086  -30.4901   21.5587 C   0  0  2  0  0  0
  -24.8546  -28.9592   20.1182 C   0  0  0  0  0  0
  -22.7432  -29.4645   22.5039 C   0  0  0  0  0  0
  -18.0274  -28.1318   22.8462 C   0  0  0  0  0  0
  -24.1490  -36.7314   23.2636 C   0  0  0  0  0  0
  -25.9410  -30.8222   21.3764 C   0  0  0  0  0  0
  -26.0206  -29.4574   20.7141 C   0  0  0  0  0  0
  -27.2148  -28.6900   20.6841 C   0  0  0  0  0  0
  -26.0366  -26.9273   19.4966 C   0  0  0  0  0  0
  -24.8598  -27.6977   19.5056 C   0  0  0  0  0  0
  -23.6173  -29.8276   20.1752 C   0  0  0  0  0  0
  -25.4123  -36.3129   24.0322 C   0  0  1  0  0  0
  -20.5862  -28.3640   23.1302 C   0  0  2  0  0  0
  -20.6774  -26.9383   22.5417 C   0  0  0  0  0  0
  -19.5771  -26.6362   21.5178 C   0  0  0  0  0  0
  -18.1932  -26.7880   22.1562 C   0  0  0  0  0  0
  -19.1517  -28.8788   23.2879 C   0  0  0  0  0  0
  -18.9448  -30.1385   23.8900 C   0  0  0  0  0  0
  -17.6460  -30.6547   24.0516 C   0  0  0  0  0  0
  -25.9044  -34.9489   23.5143 C   0  0  0  0  0  0
  -16.5350  -29.9031   23.6298 C   0  0  0  0  0  0
  -16.7268  -28.6440   23.0329 C   0  0  0  0  0  0
  -26.4461  -31.6618   25.0744 C   0  0  0  0  0  0
  -25.3664  -31.3649   26.1421 C   0  0  0  0  0  0
  -27.0328  -30.3074   24.6132 C   0  0  0  0  0  0
  -27.6079  -32.4300   25.7463 C   0  0  0  0  0  0
  -27.5597  -37.1811   24.8456 C   0  0  0  0  0  0
  -21.4163  -29.3001   22.3712 N   0  0  0  0  0  0
  -26.4311  -37.3811   23.9388 N   0  0  0  0  0  0
  -24.6741  -31.0721   22.1085 N   0  0  0  0  0  0
  -23.4156  -28.8192   23.3125 O   0  0  0  0  0  0
  -28.4059  -26.6472   20.0770 O   0  0  0  0  0  0
  -26.5628  -34.8922   22.4716 O   0  0  0  0  0  0
  -23.5348  -32.1495   23.7456 O   0  0  0  0  0  0
  -30.1695  -20.4575   20.5737 C   0  0  0  0  0  0
  -29.9670  -19.4639   19.5850 C   0  0  0  0  0  0
  -30.0805  -19.9982   21.9119 C   0  0  0  0  0  0
  -29.6839  -17.8461   21.1973 C   0  0  0  0  0  0
  -29.9710  -19.7600   18.0941 C   0  0  0  0  0  0
  -31.3649  -20.4963   24.0568 C   0  0  0  0  0  0
  -28.1937  -16.4172   22.6207 C   0  0  0  0  0  0
  -30.4171  -14.6122   23.2452 C   0  0  0  0  0  0
  -31.8666  -16.2130   22.1348 C   0  0  0  0  0  0
  -30.4904  -21.9198   20.2137 C   0  0  0  0  0  0
  -30.1814  -20.8849   23.1470 C   0  0  0  0  0  0
  -29.2562  -22.8564   20.1842 C   0  0  0  0  0  0
  -29.5620  -24.3787   20.0491 C   0  0  0  0  0  0
  -28.2816  -25.2272   19.8203 C   0  0  0  0  0  0
  -29.3323  -16.3912   21.5722 C   0  0  2  0  0  0
  -30.5458  -15.4094   21.9066 C   0  0  0  0  0  0
  -29.7290  -18.1740   19.9102 N   0  0  0  0  0  0
  -29.8474  -18.7049   22.1952 N   0  0  0  0  0  0
  -31.4588  -12.4218   19.1105 H   0  0  0  0  0  0
  -30.3166  -11.3189   19.8124 H   0  0  0  0  0  0
  -29.7433  -11.8173   17.4153 H   0  0  0  0  0  0
  -29.6609  -13.5263   17.7825 H   0  0  0  0  0  0
  -27.8153  -11.3231   18.7825 H   0  0  0  0  0  0
  -27.3740  -12.6738   17.7700 H   0  0  0  0  0  0
  -27.7032  -14.2615   19.5579 H   0  0  0  0  0  0
  -28.6612  -11.9821   21.3534 H   0  0  0  0  0  0
  -28.4070  -13.6367   21.8057 H   0  0  0  0  0  0
  -25.2769   -9.5712   22.4786 H   0  0  0  0  0  0
  -24.0033   -7.4654   22.7478 H   0  0  0  0  0  0
  -21.0882   -8.8740   19.8935 H   0  0  0  0  0  0
  -22.3701  -10.9666   19.6162 H   0  0  0  0  0  0
  -21.1998   -7.6157   23.9736 H   0  0  0  0  0  0
  -21.1474   -6.0504   25.9087 H   0  0  0  0  0  0
  -22.0615   -2.7623   23.2804 H   0  0  0  0  0  0
  -22.4115  -11.9913   22.4745 H   0  0  0  0  0  0
  -21.1112  -13.1289   22.2541 H   0  0  0  0  0  0
  -24.6740  -15.8511   20.5000 H   0  0  0  0  0  0
  -26.2855  -15.6142   20.0537 H   0  0  0  0  0  0
  -26.7102  -32.5590   23.1188 H   0  0  0  0  0  0
  -24.9935  -33.9827   25.0408 H   0  0  0  0  0  0
  -22.6982  -31.3069   21.4233 H   0  0  0  0  0  0
  -23.3769  -35.9634   23.3313 H   0  0  0  0  0  0
  -24.3566  -36.8958   22.2051 H   0  0  0  0  0  0
  -23.7229  -37.6496   23.6675 H   0  0  0  0  0  0
  -26.0492  -31.5945   20.6135 H   0  0  0  0  0  0
  -26.8263  -30.8804   21.9955 H   0  0  0  0  0  0
  -28.1204  -29.0705   21.1368 H   0  0  0  0  0  0
  -25.9766  -25.9566   19.0254 H   0  0  0  0  0  0
  -23.9609  -27.3143   19.0410 H   0  0  0  0  0  0
  -23.7236  -30.6044   19.4176 H   0  0  0  0  0  0
  -22.7398  -29.2467   19.8855 H   0  0  0  0  0  0
  -25.1304  -36.2016   25.0815 H   0  0  0  0  0  0
  -20.9912  -28.3240   24.1432 H   0  0  0  0  0  0
  -20.5665  -26.2272   23.3609 H   0  0  0  0  0  0
  -21.6658  -26.7443   22.1234 H   0  0  0  0  0  0
  -19.6964  -25.6269   21.1211 H   0  0  0  0  0  0
  -19.6694  -27.3157   20.6685 H   0  0  0  0  0  0
  -17.4220  -26.6608   21.3943 H   0  0  0  0  0  0
  -18.0305  -25.9984   22.8906 H   0  0  0  0  0  0
  -19.7928  -30.7141   24.2325 H   0  0  0  0  0  0
  -17.5025  -31.6232   24.5101 H   0  0  0  0  0  0
  -15.5340  -30.2917   23.7630 H   0  0  0  0  0  0
  -15.8666  -28.0759   22.7046 H   0  0  0  0  0  0
  -24.5923  -30.6960   25.7631 H   0  0  0  0  0  0
  -24.8701  -32.2741   26.4817 H   0  0  0  0  0  0
  -25.7907  -30.8790   27.0220 H   0  0  0  0  0  0
  -26.2898  -29.6772   24.1228 H   0  0  0  0  0  0
  -27.4149  -29.7367   25.4610 H   0  0  0  0  0  0
  -27.8704  -30.4396   23.9282 H   0  0  0  0  0  0
  -27.2833  -33.3659   26.2019 H   0  0  0  0  0  0
  -28.3858  -32.6780   25.0224 H   0  0  0  0  0  0
  -28.0792  -31.8424   26.5347 H   0  0  0  0  0  0
  -28.2616  -38.0110   24.7555 H   0  0  0  0  0  0
  -28.1114  -36.2654   24.6266 H   0  0  0  0  0  0
  -27.2313  -37.1444   25.8856 H   0  0  0  0  0  0
  -20.9341  -29.8721   21.6903 H   0  0  0  0  0  0
  -26.0227  -38.2897   24.1383 H   0  0  0  0  0  0
  -30.9124  -20.2041   17.7745 H   0  0  0  0  0  0
  -29.1611  -20.4395   17.8330 H   0  0  0  0  0  0
  -29.8324  -18.8486   17.5118 H   0  0  0  0  0  0
  -31.4019  -21.1414   24.9356 H   0  0  0  0  0  0
  -32.3302  -20.5723   23.5505 H   0  0  0  0  0  0
  -31.2514  -19.4661   24.4047 H   0  0  0  0  0  0
  -27.4063  -17.1078   22.3154 H   0  0  0  0  0  0
  -28.5630  -16.7656   23.5861 H   0  0  0  0  0  0
  -27.7186  -15.4528   22.7701 H   0  0  0  0  0  0
  -30.6906  -15.2253   24.1042 H   0  0  0  0  0  0
  -31.0873  -13.7495   23.2627 H   0  0  0  0  0  0
  -29.4263  -14.2402   23.4780 H   0  0  0  0  0  0
  -31.7754  -16.9134   22.9636 H   0  0  0  0  0  0
  -32.1713  -16.7943   21.2631 H   0  0  0  0  0  0
  -32.6997  -15.5484   22.3776 H   0  0  0  0  0  0
  -30.9809  -21.9578   19.2409 H   0  0  0  0  0  0
  -31.2428  -22.3041   20.9023 H   0  0  0  0  0  0
  -29.2547  -20.7658   23.7107 H   0  0  0  0  0  0
  -30.2247  -21.9389   22.8827 H   0  0  0  0  0  0
  -28.6758  -22.7105   21.0974 H   0  0  0  0  0  0
  -28.6058  -22.5449   19.3648 H   0  0  0  0  0  0
  -30.2510  -24.5489   19.2213 H   0  0  0  0  0  0
  -30.0791  -24.7178   20.9476 H   0  0  0  0  0  0
  -27.4955  -24.8243   20.4618 H   0  0  0  0  0  0
  -27.9648  -25.0700   18.7893 H   0  0  0  0  0  0
  -28.8497  -16.0115   20.6700 H   0  0  0  0  0  0
  1 25  1  0  0  0
  1 30  2  0  0  0
  1 86  1  0  0  0
  2  3  1  0  0  0
  2 25  1  0  0  0
  2 89  1  0  0  0
  2 90  1  0  0  0
  3  4  1  0  0  0
  3 91  1  0  0  0
  3 92  1  0  0  0
  4  5  1  0  0  0
  4 93  1  0  0  0
  4 94  1  0  0  0
  5  6  1  0  0  0
  5 26  1  0  0  0
  5 95  1  0  0  0
  6 25  1  0  0  0
  6 96  1  0  0  0
  6 97  1  0  0  0
  7  8  2  0  0  0
  7 26  1  0  0  0
  7 29  1  0  0  0
  8  9  1  0  0  0
  8 22  1  0  0  0
  9 10  1  0  0  0
  9 27  2  0  0  0
 10 11  2  0  0  0
 10 15  1  0  0  0
 11 12  1  0  0  0
 11 98  1  0  0  0
 12 13  2  0  0  0
 12 99  1  0  0  0
 13 14  1  0  0  0
 13 31  1  0  0  0
 14 15  2  0  0  0
 14100  1  0  0  0
 15101  1  0  0  0
 16 17  2  0  0  0
 16 21  1  0  0  0
 16 31  1  0  0  0
 17 18  1  0  0  0
 17102  1  0  0  0
 18 19  2  0  0  0
 18103  1  0  0  0
 19 20  1  0  0  0
 19 24  1  0  0  0
 20 21  2  0  0  0
 20104  1  0  0  0
 21 23  1  0  0  0
 22 28  1  0  0  0
 22 32  2  0  0  0
 26 27  1  0  0  0
 28105  1  0  0  0
 28106  1  0  0  0
 29107  1  0  0  0
 29108  1  0  0  0
 33 34  1  0  0  0
 33 66  1  0  0  0
 33 70  2  0  0  0
 34 36  1  0  0  0
 34 59  1  0  0  0
 34109  1  0  0  0
 35 44  2  0  0  0
 35 45  1  0  0  0
 35 68  1  0  0  0
 36 56  1  0  0  0
 36110  1  0  0  0
 37 39  1  0  0  0
 37 47  1  0  0  0
 37 66  1  0  0  0
 37111  1  0  0  0
 38 43  2  0  0  0
 38 46  1  0  0  0
 38 47  1  0  0  0
 39 64  1  0  0  0
 39 67  2  0  0  0
 40 52  1  0  0  0
 40 53  2  0  0  0
 40 58  1  0  0  0
 41112  1  0  0  0
 41113  1  0  0  0
 41114  1  0  0  0
 41 48  1  0  0  0
 42 43  1  0  0  0
 42 66  1  0  0  0
 42115  1  0  0  0
 42116  1  0  0  0
 43 44  1  0  0  0
 44117  1  0  0  0
 45 46  2  0  0  0
 45118  1  0  0  0
 46119  1  0  0  0
 47120  1  0  0  0
 47121  1  0  0  0
 48 56  1  0  0  0
 48 65  1  0  0  0
 48122  1  0  0  0
 49 50  1  0  0  0
 49 53  1  0  0  0
 49 64  1  0  0  0
 49123  1  0  0  0
 50 51  1  0  0  0
 50124  1  0  0  0
 50125  1  0  0  0
 51 52  1  0  0  0
 51126  1  0  0  0
 51127  1  0  0  0
 52128  1  0  0  0
 52129  1  0  0  0
 53 54  1  0  0  0
 54 55  2  0  0  0
 54130  1  0  0  0
 55 57  1  0  0  0
 55131  1  0  0  0
 56 69  2  0  0  0
 57 58  2  0  0  0
 57132  1  0  0  0
 58133  1  0  0  0
 59 60  1  0  0  0
 59 61  1  0  0  0
 59 62  1  0  0  0
 60134  1  0  0  0
 60135  1  0  0  0
 60136  1  0  0  0
 61137  1  0  0  0
 61138  1  0  0  0
 61139  1  0  0  0
 62140  1  0  0  0
 62141  1  0  0  0
 62142  1  0  0  0
 63 65  1  0  0  0
 63143  1  0  0  0
 63144  1  0  0  0
 63145  1  0  0  0
 64146  1  0  0  0
 65147  1  0  0  0
 68 84  1  0  0  0
 71 72  2  0  0  0
 71 73  1  0  0  0
 71 80  1  0  0  0
 72 75  1  0  0  0
 72 87  1  0  0  0
 73 81  1  0  0  0
 73 88  2  0  0  0
 74 85  1  0  0  0
 74 87  2  0  0  0
 74 88  1  0  0  0
 75148  1  0  0  0
 75149  1  0  0  0
 75150  1  0  0  0
 76 81  1  0  0  0
 76151  1  0  0  0
 76152  1  0  0  0
 76153  1  0  0  0
 77154  1  0  0  0
 77155  1  0  0  0
 77156  1  0  0  0
 77 85  1  0  0  0
 78157  1  0  0  0
 78158  1  0  0  0
 78159  1  0  0  0
 78 86  1  0  0  0
 79 86  1  0  0  0
 79160  1  0  0  0
 79161  1  0  0  0
 79162  1  0  0  0
 80 82  1  0  0  0
 80163  1  0  0  0
 80164  1  0  0  0
 81165  1  0  0  0
 81166  1  0  0  0
 82 83  1  0  0  0
 82167  1  0  0  0
 82168  1  0  0  0
 83 84  1  0  0  0
 83169  1  0  0  0
 83170  1  0  0  0
 84171  1  0  0  0
 84172  1  0  0  0
 85 86  1  0  0  0
 85173  1  0  0  0
M  ISO  4   1 100  68 101  84 101  86 100
M  END
> <chiral flag>
0

> <version>
0

> <s_m_source_file>
/data/baiqing/PycharmProjects/Reinvent-master-3.2/result/LINK_invent/BTK/process_docking_weight1_custom_sum_contain_oxygen_bond_distance_aromatic_linkinvent_7_9_3/rearranged_h_0070.sdf

> <i_m_source_file_index>
8

> <r_mmod_Potential_Energy-OPLS-2005>
-394.378265380859

> <r_mmod_Stretch_Energy-OPLS-2005>
53.4261093139648

> <r_mmod_Bend_Energy-OPLS-2005>
129.897613525391

> <r_mmod_Torsional_Energy-OPLS-2005>
174.895843505859

> <r_mmod_Improper_Torsional_Energy-OPLS-2005>
2.26512742042542

> <r_mmod_Van_der_Waal_Energy-OPLS-2005>
175.859954833984

> <r_mmod_Electrostatic_Energy-OPLS-2005>
-747.018371582031

> <r_mmod_Solvation_Energy-OPLS-2005>
-197.191558837891

> <b_mmod_Minimization_Converged-OPLS-2005>
0

> <r_mmod_RMS_Derivative-OPLS-2005>
5.21538496017456

$$$$
8
                    3D
 Structure written by MMmdl.
172180  0  0  1  0            999 V2000
  -30.7403  -14.5135   20.5461 C   0  0  0  0  0  0
  -30.4016  -12.3200   19.4646 C   0  0  0  0  0  0
  -29.4989  -12.4959   18.2255 C   0  0  0  0  0  0
  -28.0165  -12.3431   18.6140 C   0  0  0  0  0  0
  -27.6434  -13.1994   19.8490 C   0  0  2  0  0  0
  -28.6778  -13.0436   20.9790 C   0  0  0  0  0  0
  -25.2555  -13.8137   20.5655 C   0  0  0  0  0  0
  -24.1819  -13.0424   20.9205 C   0  0  0  0  0  0
  -24.6368  -11.6889   20.8755 C   0  0  0  0  0  0
  -23.9043  -10.4282   21.0426 C   0  0  0  0  0  0
  -24.3604   -9.4197   21.9194 C   0  0  0  0  0  0
  -23.6278   -8.2233   22.0766 C   0  0  0  0  0  0
  -22.4259   -8.0277   21.3562 C   0  0  0  0  0  0
  -21.9892   -9.0251   20.4654 C   0  0  0  0  0  0
  -22.7216  -10.2132   20.3061 C   0  0  0  0  0  0
  -21.6847   -6.0734   22.5296 C   0  0  0  0  0  0
  -21.4002   -6.5647   23.8223 C   0  0  0  0  0  0
  -21.3659   -5.6808   24.9194 C   0  0  0  0  0  0
  -21.6040   -4.3072   24.7246 C   0  0  0  0  0  0
  -21.8809   -3.8153   23.4367 C   0  0  0  0  0  0
  -21.9181   -4.6961   22.3420 C   0  0  0  0  0  0
  -22.7845  -13.5239   21.1867 C   0  0  0  0  0  0
  -22.1651   -4.2151   21.0996 F   0  0  0  0  0  0
  -21.5625   -3.4546   25.7752 F   0  0  0  0  0  0
  -30.0129  -13.3546   20.4483 N   0  0  0  0  0  0
  -26.2923  -12.9266   20.3226 N   0  0  0  0  0  0
  -25.9267  -11.6448   20.5702 N   0  0  0  0  0  0
  -22.0473  -12.8230   22.0412 N   0  0  0  0  0  0
  -25.4309  -15.1845   20.4017 N   0  0  0  0  0  0
  -31.9079  -14.5109   20.1431 O   0  0  0  0  0  0
  -21.6636   -6.8868   21.4255 O   0  0  0  0  0  0
  -22.3548  -14.5561   20.6717 O   0  0  0  0  0  0
  -24.6167  -31.8677   23.2111 C   0  0  0  0  0  0
  -25.9053  -32.4817   23.8411 C   0  0  1  0  0  0
  -27.2228  -27.3998   20.1106 C   0  0  0  0  0  0
  -25.5905  -33.8615   24.2323 N   0  0  0  0  0  0
  -23.4077  -30.4935   21.5497 C   0  0  2  0  0  0
  -24.8523  -28.9608   20.1120 C   0  0  0  0  0  0
  -22.7436  -29.4688   22.4976 C   0  0  0  0  0  0
  -18.0302  -28.1410   22.8518 C   0  0  0  0  0  0
  -24.1483  -36.7316   23.2636 C   0  0  0  0  0  0
  -25.9411  -30.8237   21.3692 C   0  0  0  0  0  0
  -26.0168  -29.4570   20.7132 C   0  0  0  0  0  0
  -27.2063  -28.6871   20.7056 C   0  0  0  0  0  0
  -26.0388  -26.9391   19.4853 C   0  0  0  0  0  0
  -24.8608  -27.7048   19.4900 C   0  0  0  0  0  0
  -23.6176  -29.8306   20.1629 C   0  0  0  0  0  0
  -25.4112  -36.3111   24.0328 C   0  0  1  0  0  0
  -20.5900  -28.3700   23.1318 C   0  0  2  0  0  0
  -20.6771  -26.9390   22.5533 C   0  0  0  0  0  0
  -19.5796  -26.6356   21.5296 C   0  0  0  0  0  0
  -18.1934  -26.7983   22.1589 C   0  0  0  0  0  0
  -19.1555  -28.8868   23.2917 C   0  0  0  0  0  0
  -18.9480  -30.1467   23.8920 C   0  0  0  0  0  0
  -17.6491  -30.6588   24.0610 C   0  0  0  0  0  0
  -25.9035  -34.9478   23.5125 C   0  0  0  0  0  0
  -16.5385  -29.9113   23.6351 C   0  0  0  0  0  0
  -16.7293  -28.6545   23.0349 C   0  0  0  0  0  0
  -26.4479  -31.6596   25.0748 C   0  0  0  0  0  0
  -25.3745  -31.3707   26.1508 C   0  0  0  0  0  0
  -27.0302  -30.3032   24.6137 C   0  0  0  0  0  0
  -27.6058  -32.4321   25.7509 C   0  0  0  0  0  0
  -27.5585  -37.1821   24.8467 C   0  0  0  0  0  0
  -21.4162  -29.3039   22.3660 N   0  0  0  0  0  0
  -26.4302  -37.3800   23.9407 N   0  0  0  0  0  0
  -24.6727  -31.0776   22.0998 N   0  0  0  0  0  0
  -23.4185  -28.8252   23.3057 O   0  0  0  0  0  0
  -28.3618  -26.6111   20.1709 O   0  0  0  0  0  0
  -26.5616  -34.8926   22.4687 O   0  0  0  0  0  0
  -23.5358  -32.1432   23.7497 O   0  0  0  0  0  0
  -27.8851  -16.7174   23.5340 C   0  0  0  0  0  0
  -29.2639  -16.0757   22.0754 C   0  0  0  0  0  0
  -26.7625  -17.4254   24.2249 C   0  0  0  0  0  0
  -29.5721  -16.4719   19.5115 C   0  0  0  0  0  0
  -31.3576  -16.9131   21.1639 C   0  0  0  0  0  0
  -26.9916  -20.5876   19.7599 C   0  0  0  0  0  0
  -29.0732  -22.7671   20.5504 C   0  0  0  0  0  0
  -29.2949  -24.3082   20.6951 C   0  0  0  0  0  0
  -28.0263  -22.1498   21.5218 C   0  0  0  0  0  0
  -28.3710  -19.5150   21.6470 C   0  0  0  0  0  0
  -27.7127  -18.1056   21.4572 C   0  0  0  0  0  0
  -28.1393  -25.1796   20.1361 C   0  0  0  0  0  0
  -30.1687  -15.9639   20.8458 C   0  0  0  0  0  0
  -27.4663  -20.7181   21.2180 C   0  0  2  0  0  0
  -28.5808  -15.7396   24.1139 N   0  0  0  0  0  0
  -29.5093  -15.3586   23.1855 N   0  0  0  0  0  0
  -28.2856  -17.0185   22.2777 N   0  0  0  0  0  0
  -26.3073  -20.6304   22.0273 O   0  0  0  0  0  0
  -31.4505  -12.3695   19.1692 H   0  0  0  0  0  0
  -30.2721  -11.3225   19.8894 H   0  0  0  0  0  0
  -29.7608  -11.7636   17.4606 H   0  0  0  0  0  0
  -29.6654  -13.4801   17.7839 H   0  0  0  0  0  0
  -27.8321  -11.2879   18.8216 H   0  0  0  0  0  0
  -27.3761  -12.6002   17.7705 H   0  0  0  0  0  0
  -27.6564  -14.2282   19.5113 H   0  0  0  0  0  0
  -28.6685  -12.0187   21.3539 H   0  0  0  0  0  0
  -28.3864  -13.6478   21.8267 H   0  0  0  0  0  0
  -25.2744   -9.5676   22.4775 H   0  0  0  0  0  0
  -23.9978   -7.4636   22.7501 H   0  0  0  0  0  0
  -21.0813   -8.8766   19.8980 H   0  0  0  0  0  0
  -22.3668  -10.9675   19.6178 H   0  0  0  0  0  0
  -21.1993   -7.6156   23.9718 H   0  0  0  0  0  0
  -21.1494   -6.0551   25.9097 H   0  0  0  0  0  0
  -22.0580   -2.7612   23.2879 H   0  0  0  0  0  0
  -22.4042  -11.9875   22.4808 H   0  0  0  0  0  0
  -21.1119  -13.1315   22.2637 H   0  0  0  0  0  0
  -24.6541  -15.8307   20.4768 H   0  0  0  0  0  0
  -26.2678  -15.6127   20.0309 H   0  0  0  0  0  0
  -26.7114  -32.5535   23.1165 H   0  0  0  0  0  0
  -25.0042  -33.9776   25.0463 H   0  0  0  0  0  0
  -22.6971  -31.3107   21.4109 H   0  0  0  0  0  0
  -23.3731  -35.9657   23.3314 H   0  0  0  0  0  0
  -24.3569  -36.8931   22.2049 H   0  0  0  0  0  0
  -23.7256  -37.6530   23.6643 H   0  0  0  0  0  0
  -26.0636  -31.5885   20.6009 H   0  0  0  0  0  0
  -26.8233  -30.8729   21.9953 H   0  0  0  0  0  0
  -28.1008  -29.0604   21.1864 H   0  0  0  0  0  0
  -25.9975  -25.9788   18.9958 H   0  0  0  0  0  0
  -23.9675  -27.3189   19.0159 H   0  0  0  0  0  0
  -23.7273  -30.6045   19.4021 H   0  0  0  0  0  0
  -22.7402  -29.2526   19.8682 H   0  0  0  0  0  0
  -25.1289  -36.1978   25.0821 H   0  0  0  0  0  0
  -21.0049  -28.3337   24.1416 H   0  0  0  0  0  0
  -20.5554  -26.2346   23.3770 H   0  0  0  0  0  0
  -21.6679  -26.7332   22.1455 H   0  0  0  0  0  0
  -19.6936  -25.6248   21.1372 H   0  0  0  0  0  0
  -19.6812  -27.3131   20.6808 H   0  0  0  0  0  0
  -17.4272  -26.6853   21.3922 H   0  0  0  0  0  0
  -18.0196  -26.0086   22.8909 H   0  0  0  0  0  0
  -19.7958  -30.7311   24.2256 H   0  0  0  0  0  0
  -17.5051  -31.6267   24.5217 H   0  0  0  0  0  0
  -15.5389  -30.3030   23.7689 H   0  0  0  0  0  0
  -15.8700  -28.0896   22.6990 H   0  0  0  0  0  0
  -24.5899  -30.7074   25.7850 H   0  0  0  0  0  0
  -24.8946  -32.2858   26.4981 H   0  0  0  0  0  0
  -25.8102  -30.8864   27.0257 H   0  0  0  0  0  0
  -26.2838  -29.6823   24.1173 H   0  0  0  0  0  0
  -27.4034  -29.7262   25.4611 H   0  0  0  0  0  0
  -27.8701  -30.4331   23.9310 H   0  0  0  0  0  0
  -27.2655  -33.3597   26.2122 H   0  0  0  0  0  0
  -28.3838  -32.6934   25.0319 H   0  0  0  0  0  0
  -28.0754  -31.8437   26.5403 H   0  0  0  0  0  0
  -28.2622  -38.0103   24.7513 H   0  0  0  0  0  0
  -28.1065  -36.2647   24.6284 H   0  0  0  0  0  0
  -27.2308  -37.1470   25.8871 H   0  0  0  0  0  0
  -20.9336  -29.8679   21.6805 H   0  0  0  0  0  0
  -26.0188  -38.2881   24.1374 H   0  0  0  0  0  0
  -26.6889  -17.1148   25.2668 H   0  0  0  0  0  0
  -25.8156  -17.1891   23.7396 H   0  0  0  0  0  0
  -26.9158  -18.5043   24.1948 H   0  0  0  0  0  0
  -29.5520  -17.5592   19.4634 H   0  0  0  0  0  0
  -28.5642  -16.1089   19.3386 H   0  0  0  0  0  0
  -30.1719  -16.1574   18.6559 H   0  0  0  0  0  0
  -31.0106  -17.9150   21.4160 H   0  0  0  0  0  0
  -32.0426  -17.0194   20.3223 H   0  0  0  0  0  0
  -31.9359  -16.5537   22.0170 H   0  0  0  0  0  0
  -27.8375  -20.5429   19.0727 H   0  0  0  0  0  0
  -26.3720  -21.4334   19.4609 H   0  0  0  0  0  0
  -26.4048  -19.6835   19.5971 H   0  0  0  0  0  0
  -30.0238  -22.2522   20.7019 H   0  0  0  0  0  0
  -28.7987  -22.5685   19.5155 H   0  0  0  0  0  0
  -30.2065  -24.5723   20.1575 H   0  0  0  0  0  0
  -29.4819  -24.5623   21.7391 H   0  0  0  0  0  0
  -27.1807  -22.8378   21.5346 H   0  0  0  0  0  0
  -28.4282  -22.1742   22.5365 H   0  0  0  0  0  0
  -29.3082  -19.5500   21.0925 H   0  0  0  0  0  0
  -28.6520  -19.6404   22.6935 H   0  0  0  0  0  0
  -27.6563  -17.8270   20.4118 H   0  0  0  0  0  0
  -26.6575  -18.1687   21.7220 H   0  0  0  0  0  0
  -27.2450  -24.9401   20.7122 H   0  0  0  0  0  0
  -27.9443  -24.8802   19.1061 H   0  0  0  0  0  0
  -25.7050  -21.3162   21.7603 H   0  0  0  0  0  0
  1 25  1  0  0  0
  1 30  2  0  0  0
  1 83  1  0  0  0
  2  3  1  0  0  0
  2 25  1  0  0  0
  2 89  1  0  0  0
  2 90  1  0  0  0
  3  4  1  0  0  0
  3 91  1  0  0  0
  3 92  1  0  0  0
  4  5  1  0  0  0
  4 93  1  0  0  0
  4 94  1  0  0  0
  5  6  1  0  0  0
  5 26  1  0  0  0
  5 95  1  0  0  0
  6 25  1  0  0  0
  6 96  1  0  0  0
  6 97  1  0  0  0
  7  8  2  0  0  0
  7 26  1  0  0  0
  7 29  1  0  0  0
  8  9  1  0  0  0
  8 22  1  0  0  0
  9 10  1  0  0  0
  9 27  2  0  0  0
 10 11  2  0  0  0
 10 15  1  0  0  0
 11 12  1  0  0  0
 11 98  1  0  0  0
 12 13  2  0  0  0
 12 99  1  0  0  0
 13 14  1  0  0  0
 13 31  1  0  0  0
 14 15  2  0  0  0
 14100  1  0  0  0
 15101  1  0  0  0
 16 17  2  0  0  0
 16 21  1  0  0  0
 16 31  1  0  0  0
 17 18  1  0  0  0
 17102  1  0  0  0
 18 19  2  0  0  0
 18103  1  0  0  0
 19 20  1  0  0  0
 19 24  1  0  0  0
 20 21  2  0  0  0
 20104  1  0  0  0
 21 23  1  0  0  0
 22 28  1  0  0  0
 22 32  2  0  0  0
 26 27  1  0  0  0
 28105  1  0  0  0
 28106  1  0  0  0
 29107  1  0  0  0
 29108  1  0  0  0
 33 34  1  0  0  0
 33 66  1  0  0  0
 33 70  2  0  0  0
 34 36  1  0  0  0
 34 59  1  0  0  0
 34109  1  0  0  0
 35 44  2  0  0  0
 35 45  1  0  0  0
 35 68  1  0  0  0
 36 56  1  0  0  0
 36110  1  0  0  0
 37 39  1  0  0  0
 37 47  1  0  0  0
 37 66  1  0  0  0
 37111  1  0  0  0
 38 43  2  0  0  0
 38 46  1  0  0  0
 38 47  1  0  0  0
 39 64  1  0  0  0
 39 67  2  0  0  0
 40 52  1  0  0  0
 40 53  2  0  0  0
 40 58  1  0  0  0
 41112  1  0  0  0
 41113  1  0  0  0
 41114  1  0  0  0
 41 48  1  0  0  0
 42 43  1  0  0  0
 42 66  1  0  0  0
 42115  1  0  0  0
 42116  1  0  0  0
 43 44  1  0  0  0
 44117  1  0  0  0
 45 46  2  0  0  0
 45118  1  0  0  0
 46119  1  0  0  0
 47120  1  0  0  0
 47121  1  0  0  0
 48 56  1  0  0  0
 48 65  1  0  0  0
 48122  1  0  0  0
 49 50  1  0  0  0
 49 53  1  0  0  0
 49 64  1  0  0  0
 49123  1  0  0  0
 50 51  1  0  0  0
 50124  1  0  0  0
 50125  1  0  0  0
 51 52  1  0  0  0
 51126  1  0  0  0
 51127  1  0  0  0
 52128  1  0  0  0
 52129  1  0  0  0
 53 54  1  0  0  0
 54 55  2  0  0  0
 54130  1  0  0  0
 55 57  1  0  0  0
 55131  1  0  0  0
 56 69  2  0  0  0
 57 58  2  0  0  0
 57132  1  0  0  0
 58133  1  0  0  0
 59 60  1  0  0  0
 59 61  1  0  0  0
 59 62  1  0  0  0
 60134  1  0  0  0
 60135  1  0  0  0
 60136  1  0  0  0
 61137  1  0  0  0
 61138  1  0  0  0
 61139  1  0  0  0
 62140  1  0  0  0
 62141  1  0  0  0
 62142  1  0  0  0
 63 65  1  0  0  0
 63143  1  0  0  0
 63144  1  0  0  0
 63145  1  0  0  0
 64146  1  0  0  0
 65147  1  0  0  0
 68 82  1  0  0  0
 71 73  1  0  0  0
 71 85  2  0  0  0
 71 87  1  0  0  0
 72 83  1  0  0  0
 72 86  2  0  0  0
 72 87  1  0  0  0
 73148  1  0  0  0
 73149  1  0  0  0
 73150  1  0  0  0
 74151  1  0  0  0
 74152  1  0  0  0
 74153  1  0  0  0
 74 83  1  0  0  0
 75 83  1  0  0  0
 75154  1  0  0  0
 75155  1  0  0  0
 75156  1  0  0  0
 76157  1  0  0  0
 76158  1  0  0  0
 76159  1  0  0  0
 76 84  1  0  0  0
 77 78  1  0  0  0
 77 79  1  0  0  0
 77160  1  0  0  0
 77161  1  0  0  0
 78 82  1  0  0  0
 78162  1  0  0  0
 78163  1  0  0  0
 79 84  1  0  0  0
 79164  1  0  0  0
 79165  1  0  0  0
 80 81  1  0  0  0
 80 84  1  0  0  0
 80166  1  0  0  0
 80167  1  0  0  0
 81 87  1  0  0  0
 81168  1  0  0  0
 81169  1  0  0  0
 82170  1  0  0  0
 82171  1  0  0  0
 84 88  1  0  0  0
 85 86  1  0  0  0
 88172  1  0  0  0
M  ISO  4   1 100  68 101  82 101  83 100
M  END
> <chiral flag>
0

> <version>
0

> <s_m_source_file>
/data/baiqing/PycharmProjects/Reinvent-master-3.2/result/LINK_invent/BTK/process_docking_weight1_custom_sum_contain_oxygen_bond_distance_aromatic_linkinvent_7_9_3/rearranged_h_0070.sdf

> <i_m_source_file_index>
9

> <r_mmod_Potential_Energy-OPLS-2005>
50.5949630737305

> <r_mmod_Stretch_Energy-OPLS-2005>
55.3300514221191

> <r_mmod_Bend_Energy-OPLS-2005>
160.515258789062

> <r_mmod_Torsional_Energy-OPLS-2005>
223.0888671875

> <r_mmod_Improper_Torsional_Energy-OPLS-2005>
7.74024152755737

> <r_mmod_Van_der_Waal_Energy-OPLS-2005>
141.834732055664

> <r_mmod_Electrostatic_Energy-OPLS-2005>
-347.808288574219

> <r_mmod_Solvation_Energy-OPLS-2005>
-217.229705810547

> <b_mmod_Minimization_Converged-OPLS-2005>
0

> <r_mmod_RMS_Derivative-OPLS-2005>
2.98331737518311

$$$$
9
                    3D
 Structure written by MMmdl.
169177  0  0  1  0            999 V2000
  -30.5029  -15.0124   20.3779 C   0  0  0  0  0  0
  -30.4409  -12.6249   19.5063 C   0  0  0  0  0  0
  -29.5222  -12.5305   18.2625 C   0  0  0  0  0  0
  -28.0548  -12.3174   18.6741 C   0  0  0  0  0  0
  -27.6279  -13.2499   19.8351 C   0  0  2  0  0  0
  -28.6685  -13.2874   20.9768 C   0  0  0  0  0  0
  -25.2472  -13.8210   20.5696 C   0  0  0  0  0  0
  -24.1772  -13.0463   20.9266 C   0  0  0  0  0  0
  -24.6374  -11.6944   20.8781 C   0  0  0  0  0  0
  -23.9049  -10.4306   21.0421 C   0  0  0  0  0  0
  -24.3621   -9.4225   21.9193 C   0  0  0  0  0  0
  -23.6325   -8.2248   22.0753 C   0  0  0  0  0  0
  -22.4293   -8.0281   21.3553 C   0  0  0  0  0  0
  -21.9921   -9.0244   20.4651 C   0  0  0  0  0  0
  -22.7240  -10.2132   20.3068 C   0  0  0  0  0  0
  -21.6849   -6.0740   22.5296 C   0  0  0  0  0  0
  -21.3990   -6.5643   23.8231 C   0  0  0  0  0  0
  -21.3664   -5.6805   24.9199 C   0  0  0  0  0  0
  -21.6050   -4.3068   24.7245 C   0  0  0  0  0  0
  -21.8818   -3.8155   23.4368 C   0  0  0  0  0  0
  -21.9184   -4.6961   22.3419 C   0  0  0  0  0  0
  -22.7793  -13.5247   21.1915 C   0  0  0  0  0  0
  -22.1664   -4.2136   21.1002 F   0  0  0  0  0  0
  -21.5635   -3.4565   25.7766 F   0  0  0  0  0  0
  -29.9397  -13.7273   20.3829 N   0  0  0  0  0  0
  -26.2860  -12.9436   20.3220 N   0  0  0  0  0  0
  -25.9302  -11.6563   20.5747 N   0  0  0  0  0  0
  -22.0408  -12.8239   22.0451 N   0  0  0  0  0  0
  -25.4244  -15.1946   20.4061 N   0  0  0  0  0  0
  -31.6859  -15.0912   20.0361 O   0  0  0  0  0  0
  -21.6656   -6.8885   21.4258 O   0  0  0  0  0  0
  -22.3481  -14.5554   20.6767 O   0  0  0  0  0  0
  -24.6514  -31.8347   23.1858 C   0  0  0  0  0  0
  -25.9260  -32.4627   23.8254 C   0  0  1  0  0  0
  -27.2067  -27.0795   20.1550 C   0  0  0  0  0  0
  -25.5994  -33.8440   24.2158 N   0  0  0  0  0  0
  -23.4581  -30.4582   21.5295 C   0  0  2  0  0  0
  -24.9020  -28.8722   20.1180 C   0  0  0  0  0  0
  -22.7593  -29.4548   22.4815 C   0  0  0  0  0  0
  -18.0310  -28.1409   22.8462 C   0  0  0  0  0  0
  -24.1487  -36.7189   23.2651 C   0  0  0  0  0  0
  -26.0206  -30.6917   21.3953 C   0  0  0  0  0  0
  -26.0861  -29.2994   20.7343 C   0  0  0  0  0  0
  -27.2404  -28.4199   20.7346 C   0  0  0  0  0  0
  -25.9966  -26.7699   19.4984 C   0  0  0  0  0  0
  -24.8700  -27.6191   19.4922 C   0  0  0  0  0  0
  -23.6873  -29.7845   20.1524 C   0  0  0  0  0  0
  -25.4127  -36.2968   24.0308 C   0  0  1  0  0  0
  -20.5931  -28.3739   23.1213 C   0  0  2  0  0  0
  -20.6789  -26.9427   22.5411 C   0  0  0  0  0  0
  -19.5771  -26.6379   21.5212 C   0  0  0  0  0  0
  -18.1944  -26.7957   22.1592 C   0  0  0  0  0  0
  -19.1569  -28.8887   23.2825 C   0  0  0  0  0  0
  -18.9484  -30.1477   23.8862 C   0  0  0  0  0  0
  -17.6479  -30.6591   24.0554 C   0  0  0  0  0  0
  -25.9075  -34.9360   23.5024 C   0  0  0  0  0  0
  -16.5370  -29.9082   23.6345 C   0  0  0  0  0  0
  -16.7292  -28.6503   23.0367 C   0  0  0  0  0  0
  -26.4582  -31.6532   25.0718 C   0  0  0  0  0  0
  -25.3772  -31.3778   26.1414 C   0  0  0  0  0  0
  -27.0404  -30.2888   24.6393 C   0  0  0  0  0  0
  -27.6135  -32.4306   25.7438 C   0  0  0  0  0  0
  -27.5556  -37.1739   24.8461 C   0  0  0  0  0  0
  -21.4276  -29.3055   22.3553 N   0  0  0  0  0  0
  -26.4270  -37.3701   23.9423 N   0  0  0  0  0  0
  -24.7304  -31.0188   22.0901 N   0  0  0  0  0  0
  -23.4184  -28.8074   23.2987 O   0  0  0  0  0  0
  -28.2321  -26.0493   20.1573 O   0  0  0  0  0  0
  -26.5647  -34.8891   22.4595 O   0  0  0  0  0  0
  -23.5610  -32.1215   23.7051 O   0  0  0  0  0  0
  -28.8098  -21.1385   18.9323 C   0  0  0  0  0  0
  -29.1902  -20.7170   20.1993 C   0  0  0  0  0  0
  -28.5290  -23.0725   20.1473 C   0  0  0  0  0  0
  -29.8586  -24.1663   24.7338 C   0  0  0  0  0  0
  -32.1578  -24.5328   23.7823 C   0  0  0  0  0  0
  -31.5082  -22.2696   24.6315 C   0  0  0  0  0  0
  -27.8875  -24.5668   20.5779 C   0  0  0  0  0  0
  -30.5195  -23.1896   22.4740 C   0  0  0  0  0  0
  -29.3018  -22.2391   22.3272 C   0  0  0  0  0  0
  -29.6744  -17.6897   19.9422 C   0  0  0  0  0  0
  -29.7143  -19.2075   20.7593 C   0  0  1  0  0  0
  -30.9932  -23.5277   23.9070 C   0  0  0  0  0  0
  -31.2010  -19.3379   21.1796 C   0  0  0  0  0  0
  -29.0169  -21.9885   20.9039 N   0  0  0  0  0  0
  -28.4513  -22.4949   18.9373 N   0  3  0  0  0  0
  -29.6999  -16.1915   20.5457 N   0  0  0  0  0  0
  -31.6005  -18.2273   21.7981 F   0  0  0  0  0  0
  -31.9643  -19.5247   20.1019 F   0  0  0  0  0  0
  -31.4207  -20.3404   22.0185 F   0  0  0  0  0  0
  -31.4704  -12.7970   19.1886 H   0  0  0  0  0  0
  -30.4594  -11.6781   20.0487 H   0  0  0  0  0  0
  -29.8527  -11.7156   17.6184 H   0  0  0  0  0  0
  -29.6037  -13.4409   17.6661 H   0  0  0  0  0  0
  -27.9509  -11.2755   18.9815 H   0  0  0  0  0  0
  -27.3903  -12.4474   17.8172 H   0  0  0  0  0  0
  -27.5893  -14.2505   19.4023 H   0  0  0  0  0  0
  -28.7717  -12.3068   21.4432 H   0  0  0  0  0  0
  -28.3532  -13.9713   21.7655 H   0  0  0  0  0  0
  -25.2742   -9.5714   22.4788 H   0  0  0  0  0  0
  -24.0037   -7.4625   22.7464 H   0  0  0  0  0  0
  -21.0844   -8.8763   19.8955 H   0  0  0  0  0  0
  -22.3689  -10.9676   19.6194 H   0  0  0  0  0  0
  -21.1967   -7.6147   23.9739 H   0  0  0  0  0  0
  -21.1489   -6.0530   25.9111 H   0  0  0  0  0  0
  -22.0580   -2.7608   23.2877 H   0  0  0  0  0  0
  -22.3997  -11.9904   22.4849 H   0  0  0  0  0  0
  -21.1015  -13.1261   22.2618 H   0  0  0  0  0  0
  -24.6747  -15.8666   20.5294 H   0  0  0  0  0  0
  -26.2638  -15.6070   20.0211 H   0  0  0  0  0  0
  -26.7314  -32.5201   23.0966 H   0  0  0  0  0  0
  -25.0184  -33.9554   25.0332 H   0  0  0  0  0  0
  -22.7644  -31.2852   21.3674 H   0  0  0  0  0  0
  -23.3778  -35.9485   23.3262 H   0  0  0  0  0  0
  -24.3602  -36.8858   22.2073 H   0  0  0  0  0  0
  -23.7192  -37.6351   23.6727 H   0  0  0  0  0  0
  -26.1969  -31.4469   20.6286 H   0  0  0  0  0  0
  -26.8822  -30.7291   22.0519 H   0  0  0  0  0  0
  -28.1434  -28.7439   21.2317 H   0  0  0  0  0  0
  -25.9001  -25.8233   18.9896 H   0  0  0  0  0  0
  -23.9670  -27.2782   19.0031 H   0  0  0  0  0  0
  -23.8368  -30.5518   19.3910 H   0  0  0  0  0  0
  -22.8023  -29.2308   19.8356 H   0  0  0  0  0  0
  -25.1332  -36.1753   25.0797 H   0  0  0  0  0  0
  -21.0034  -28.3321   24.1333 H   0  0  0  0  0  0
  -20.5646  -26.2357   23.3636 H   0  0  0  0  0  0
  -21.6652  -26.7385   22.1248 H   0  0  0  0  0  0
  -19.6921  -25.6284   21.1263 H   0  0  0  0  0  0
  -19.6740  -27.3165   20.6729 H   0  0  0  0  0  0
  -17.4235  -26.6727   21.3971 H   0  0  0  0  0  0
  -18.0296  -26.0111   22.8980 H   0  0  0  0  0  0
  -19.7962  -30.7300   24.2216 H   0  0  0  0  0  0
  -17.5038  -31.6278   24.5141 H   0  0  0  0  0  0
  -15.5368  -30.2965   23.7725 H   0  0  0  0  0  0
  -15.8695  -28.0812   22.7109 H   0  0  0  0  0  0
  -24.6029  -30.7000   25.7813 H   0  0  0  0  0  0
  -24.8880  -32.2965   26.4656 H   0  0  0  0  0  0
  -25.8084  -30.9134   27.0289 H   0  0  0  0  0  0
  -26.3019  -29.6614   24.1393 H   0  0  0  0  0  0
  -27.3919  -29.7203   25.5015 H   0  0  0  0  0  0
  -27.8995  -30.4041   23.9785 H   0  0  0  0  0  0
  -27.2775  -33.3686   26.1874 H   0  0  0  0  0  0
  -28.3993  -32.6705   25.0259 H   0  0  0  0  0  0
  -28.0766  -31.8506   26.5432 H   0  0  0  0  0  0
  -28.2569  -38.0034   24.7499 H   0  0  0  0  0  0
  -28.1029  -36.2560   24.6269 H   0  0  0  0  0  0
  -27.2290  -37.1369   25.8867 H   0  0  0  0  0  0
  -20.9466  -29.8735   21.6725 H   0  0  0  0  0  0
  -26.0088  -38.2735   24.1498 H   0  0  0  0  0  0
  -28.7529  -20.5725   18.0127 H   0  0  0  0  0  0
  -30.2062  -24.4526   25.7271 H   0  0  0  0  0  0
  -29.0254  -23.4786   24.8840 H   0  0  0  0  0  0
  -29.4616  -25.0641   24.2570 H   0  0  0  0  0  0
  -32.5820  -24.7926   24.7519 H   0  0  0  0  0  0
  -31.8400  -25.4628   23.3067 H   0  0  0  0  0  0
  -32.9692  -24.1258   23.1754 H   0  0  0  0  0  0
  -31.8527  -22.5039   25.6399 H   0  0  0  0  0  0
  -32.3446  -21.8151   24.0991 H   0  0  0  0  0  0
  -30.7310  -21.5131   24.7328 H   0  0  0  0  0  0
  -27.9496  -24.5882   21.6653 H   0  0  0  0  0  0
  -26.8261  -24.4118   20.3949 H   0  0  0  0  0  0
  -30.2976  -24.1317   21.9733 H   0  0  0  0  0  0
  -31.3613  -22.7836   21.9105 H   0  0  0  0  0  0
  -28.4075  -22.6699   22.7738 H   0  0  0  0  0  0
  -29.4505  -21.2851   22.8291 H   0  0  0  0  0  0
  -30.4547  -17.7061   19.1802 H   0  0  0  0  0  0
  -28.7537  -17.7045   19.3591 H   0  0  0  0  0  0
  -29.1314  -19.0475   21.6650 H   0  0  0  0  0  0
  -28.1154  -22.9866   18.1160 H   0  0  0  0  0  0
  -28.8097  -15.9420   20.9514 H   0  0  0  0  0  0
  1 25  1  0  0  0
  1 30  2  0  0  0
  1 86  1  0  0  0
  2  3  1  0  0  0
  2 25  1  0  0  0
  2 90  1  0  0  0
  2 91  1  0  0  0
  3  4  1  0  0  0
  3 92  1  0  0  0
  3 93  1  0  0  0
  4  5  1  0  0  0
  4 94  1  0  0  0
  4 95  1  0  0  0
  5  6  1  0  0  0
  5 26  1  0  0  0
  5 96  1  0  0  0
  6 25  1  0  0  0
  6 97  1  0  0  0
  6 98  1  0  0  0
  7  8  2  0  0  0
  7 26  1  0  0  0
  7 29  1  0  0  0
  8  9  1  0  0  0
  8 22  1  0  0  0
  9 10  1  0  0  0
  9 27  2  0  0  0
 10 11  2  0  0  0
 10 15  1  0  0  0
 11 12  1  0  0  0
 11 99  1  0  0  0
 12 13  2  0  0  0
 12100  1  0  0  0
 13 14  1  0  0  0
 13 31  1  0  0  0
 14 15  2  0  0  0
 14101  1  0  0  0
 15102  1  0  0  0
 16 17  2  0  0  0
 16 21  1  0  0  0
 16 31  1  0  0  0
 17 18  1  0  0  0
 17103  1  0  0  0
 18 19  2  0  0  0
 18104  1  0  0  0
 19 20  1  0  0  0
 19 24  1  0  0  0
 20 21  2  0  0  0
 20105  1  0  0  0
 21 23  1  0  0  0
 22 28  1  0  0  0
 22 32  2  0  0  0
 26 27  1  0  0  0
 28106  1  0  0  0
 28107  1  0  0  0
 29108  1  0  0  0
 29109  1  0  0  0
 33 34  1  0  0  0
 33 66  1  0  0  0
 33 70  2  0  0  0
 34 36  1  0  0  0
 34 59  1  0  0  0
 34110  1  0  0  0
 35 44  2  0  0  0
 35 45  1  0  0  0
 35 68  1  0  0  0
 36 56  1  0  0  0
 36111  1  0  0  0
 37 39  1  0  0  0
 37 47  1  0  0  0
 37 66  1  0  0  0
 37112  1  0  0  0
 38 43  2  0  0  0
 38 46  1  0  0  0
 38 47  1  0  0  0
 39 64  1  0  0  0
 39 67  2  0  0  0
 40 52  1  0  0  0
 40 53  2  0  0  0
 40 58  1  0  0  0
 41113  1  0  0  0
 41114  1  0  0  0
 41115  1  0  0  0
 41 48  1  0  0  0
 42 43  1  0  0  0
 42 66  1  0  0  0
 42116  1  0  0  0
 42117  1  0  0  0
 43 44  1  0  0  0
 44118  1  0  0  0
 45 46  2  0  0  0
 45119  1  0  0  0
 46120  1  0  0  0
 47121  1  0  0  0
 47122  1  0  0  0
 48 56  1  0  0  0
 48 65  1  0  0  0
 48123  1  0  0  0
 49 50  1  0  0  0
 49 53  1  0  0  0
 49 64  1  0  0  0
 49124  1  0  0  0
 50 51  1  0  0  0
 50125  1  0  0  0
 50126  1  0  0  0
 51 52  1  0  0  0
 51127  1  0  0  0
 51128  1  0  0  0
 52129  1  0  0  0
 52130  1  0  0  0
 53 54  1  0  0  0
 54 55  2  0  0  0
 54131  1  0  0  0
 55 57  1  0  0  0
 55132  1  0  0  0
 56 69  2  0  0  0
 57 58  2  0  0  0
 57133  1  0  0  0
 58134  1  0  0  0
 59 60  1  0  0  0
 59 61  1  0  0  0
 59 62  1  0  0  0
 60135  1  0  0  0
 60136  1  0  0  0
 60137  1  0  0  0
 61138  1  0  0  0
 61139  1  0  0  0
 61140  1  0  0  0
 62141  1  0  0  0
 62142  1  0  0  0
 62143  1  0  0  0
 63 65  1  0  0  0
 63144  1  0  0  0
 63145  1  0  0  0
 63146  1  0  0  0
 64147  1  0  0  0
 65148  1  0  0  0
 68 77  1  0  0  0
 71 72  2  0  0  0
 71 85  1  0  0  0
 71149  1  0  0  0
 72 81  1  0  0  0
 72 84  1  0  0  0
 73 77  1  0  0  0
 73 84  1  0  0  0
 73 85  2  0  0  0
 74150  1  0  0  0
 74151  1  0  0  0
 74152  1  0  0  0
 74 82  1  0  0  0
 75 82  1  0  0  0
 75153  1  0  0  0
 75154  1  0  0  0
 75155  1  0  0  0
 76 82  1  0  0  0
 76156  1  0  0  0
 76157  1  0  0  0
 76158  1  0  0  0
 77159  1  0  0  0
 77160  1  0  0  0
 78 79  1  0  0  0
 78 82  1  0  0  0
 78161  1  0  0  0
 78162  1  0  0  0
 79 84  1  0  0  0
 79163  1  0  0  0
 79164  1  0  0  0
 80 86  1  0  0  0
 80165  1  0  0  0
 80166  1  0  0  0
 80 81  1  0  0  0
 81 83  1  0  0  0
 81167  1  0  0  0
 83 87  1  0  0  0
 83 88  1  0  0  0
 83 89  1  0  0  0
 85168  1  0  0  0
 86169  1  0  0  0
M  CHG  1  85   1
M  ISO  4   1 100  68 101  77 101  86 100
M  END
> <chiral flag>
0

> <version>
0

> <s_m_source_file>
/data/baiqing/PycharmProjects/Reinvent-master-3.2/result/LINK_invent/BTK/process_docking_weight1_custom_sum_contain_oxygen_bond_distance_aromatic_linkinvent_7_9_3/rearranged_h_0070.sdf

> <i_m_source_file_index>
10

> <r_mmod_Potential_Energy-OPLS-2005>
625.874816894531

> <r_mmod_Stretch_Energy-OPLS-2005>
343.684173583984

> <r_mmod_Bend_Energy-OPLS-2005>
314.982604980469

> <r_mmod_Torsional_Energy-OPLS-2005>
274.78515625

> <r_mmod_Improper_Torsional_Energy-OPLS-2005>
6.86813354492188

> <r_mmod_Van_der_Waal_Energy-OPLS-2005>
113.185989379883

> <r_mmod_Electrostatic_Energy-OPLS-2005>
-226.499816894531

> <r_mmod_Solvation_Energy-OPLS-2005>
-445.215087890625

> <b_mmod_Minimization_Converged-OPLS-2005>
0

> <r_mmod_RMS_Derivative-OPLS-2005>
4.2794041633606

$$$$
10
                    3D
 Structure written by MMmdl.
159167  0  0  1  0            999 V2000
  -30.7107  -14.4240   20.5841 C   0  0  0  0  0  0
  -30.4165  -12.2708   19.4383 C   0  0  0  0  0  0
  -29.5075  -12.5109   18.2169 C   0  0  0  0  0  0
  -28.0190  -12.3946   18.6018 C   0  0  0  0  0  0
  -27.6675  -13.2070   19.8802 C   0  0  2  0  0  0
  -28.7003  -12.9552   21.0049 C   0  0  0  0  0  0
  -25.2569  -13.8172   20.5609 C   0  0  0  0  0  0
  -24.1833  -13.0438   20.9120 C   0  0  0  0  0  0
  -24.6392  -11.6920   20.8683 C   0  0  0  0  0  0
  -23.9062  -10.4311   21.0339 C   0  0  0  0  0  0
  -24.3620   -9.4241   21.9123 C   0  0  0  0  0  0
  -23.6317   -8.2270   22.0703 C   0  0  0  0  0  0
  -22.4288   -8.0283   21.3515 C   0  0  0  0  0  0
  -21.9898   -9.0240   20.4608 C   0  0  0  0  0  0
  -22.7210  -10.2125   20.3009 C   0  0  0  0  0  0
  -21.6859   -6.0733   22.5255 C   0  0  0  0  0  0
  -21.4032   -6.5628   23.8192 C   0  0  0  0  0  0
  -21.3671   -5.6774   24.9154 C   0  0  0  0  0  0
  -21.6050   -4.3042   24.7200 C   0  0  0  0  0  0
  -21.8815   -3.8132   23.4327 C   0  0  0  0  0  0
  -21.9200   -4.6962   22.3388 C   0  0  0  0  0  0
  -22.7845  -13.5232   21.1783 C   0  0  0  0  0  0
  -22.1639   -4.2168   21.0957 F   0  0  0  0  0  0
  -21.5643   -3.4515   25.7720 F   0  0  0  0  0  0
  -30.0472  -13.2443   20.4745 N   0  0  0  0  0  0
  -26.3041  -12.9346   20.3337 N   0  0  0  0  0  0
  -25.9327  -11.6501   20.5726 N   0  0  0  0  0  0
  -22.0494  -12.8259   22.0371 N   0  0  0  0  0  0
  -25.4280  -15.1881   20.3953 N   0  0  0  0  0  0
  -31.8024  -14.6415   20.0485 O   0  0  0  0  0  0
  -21.6665   -6.8870   21.4222 O   0  0  0  0  0  0
  -22.3515  -14.5515   20.6605 O   0  0  0  0  0  0
  -24.6125  -31.8693   23.2103 C   0  0  0  0  0  0
  -25.9022  -32.4833   23.8410 C   0  0  1  0  0  0
  -27.2470  -27.4557   20.1071 C   0  0  0  0  0  0
  -25.5880  -33.8629   24.2333 N   0  0  0  0  0  0
  -23.4027  -30.4920   21.5475 C   0  0  2  0  0  0
  -24.8561  -28.9589   20.1160 C   0  0  0  0  0  0
  -22.7411  -29.4664   22.4963 C   0  0  0  0  0  0
  -18.0267  -28.1387   22.8492 C   0  0  0  0  0  0
  -24.1484  -36.7313   23.2642 C   0  0  0  0  0  0
  -25.9290  -30.8410   21.3655 C   0  0  0  0  0  0
  -26.0101  -29.4742   20.7203 C   0  0  0  0  0  0
  -27.2089  -28.7287   20.7208 C   0  0  0  0  0  0
  -26.0845  -26.9558   19.4886 C   0  0  0  0  0  0
  -24.8856  -27.6949   19.4998 C   0  0  0  0  0  0
  -23.6155  -29.8224   20.1631 C   0  0  0  0  0  0
  -25.4098  -36.3114   24.0344 C   0  0  1  0  0  0
  -20.5863  -28.3676   23.1311 C   0  0  2  0  0  0
  -20.6752  -26.9407   22.5419 C   0  0  0  0  0  0
  -19.5724  -26.6383   21.5218 C   0  0  0  0  0  0
  -18.1910  -26.7931   22.1640 C   0  0  0  0  0  0
  -19.1518  -28.8838   23.2907 C   0  0  0  0  0  0
  -18.9459  -30.1449   23.8915 C   0  0  0  0  0  0
  -17.6463  -30.6594   24.0565 C   0  0  0  0  0  0
  -25.9023  -34.9478   23.5133 C   0  0  0  0  0  0
  -16.5352  -29.9097   23.6333 C   0  0  0  0  0  0
  -16.7261  -28.6515   23.0353 C   0  0  0  0  0  0
  -26.4470  -31.6607   25.0726 C   0  0  0  0  0  0
  -25.3742  -31.3737   26.1487 C   0  0  0  0  0  0
  -27.0292  -30.3038   24.6105 C   0  0  0  0  0  0
  -27.6055  -32.4324   25.7475 C   0  0  0  0  0  0
  -27.5573  -37.1813   24.8468 C   0  0  0  0  0  0
  -21.4134  -29.3040   22.3715 N   0  0  0  0  0  0
  -26.4289  -37.3788   23.9412 N   0  0  0  0  0  0
  -24.6653  -31.0810   22.1009 N   0  0  0  0  0  0
  -23.4176  -28.8204   23.3016 O   0  0  0  0  0  0
  -28.3848  -26.6869   20.0659 O   0  0  0  0  0  0
  -26.5588  -34.8927   22.4700 O   0  0  0  0  0  0
  -23.5313  -32.1440   23.7507 O   0  0  0  0  0  0
  -30.9659  -20.4029   21.5887 C   0  0  0  0  0  0
  -29.8969  -19.6045   19.8797 C   0  0  0  0  0  0
  -30.5835  -21.4391   20.7597 C   0  0  0  0  0  0
  -32.2806  -17.5692   21.5882 C   0  0  0  0  0  0
  -30.9038  -22.9094   20.8433 C   0  0  0  0  0  0
  -29.7018  -23.8254   21.1694 C   0  0  0  0  0  0
  -30.0811  -25.3256   21.1689 C   0  0  0  0  0  0
  -30.0075  -16.7970   20.6403 C   0  0  0  0  0  0
  -28.8928  -26.2979   21.3415 C   0  0  0  0  0  0
  -30.7629  -17.8477   21.5003 C   0  0  2  0  0  0
  -29.8872  -20.9173   19.6740 N   0  0  0  0  0  0
  -30.5374  -19.2145   20.9998 N   0  0  0  0  0  0
  -30.0095  -15.4197   21.1444 N   0  0  0  0  0  0
  -31.4685  -12.3490   19.1541 H   0  0  0  0  0  0
  -30.2839  -11.2585   19.8236 H   0  0  0  0  0  0
  -29.7496  -11.8047   17.4189 H   0  0  0  0  0  0
  -29.7042  -13.5033   17.8107 H   0  0  0  0  0  0
  -27.7897  -11.3366   18.7468 H   0  0  0  0  0  0
  -27.3974  -12.7218   17.7677 H   0  0  0  0  0  0
  -27.7230  -14.2653   19.6141 H   0  0  0  0  0  0
  -28.6513  -11.9137   21.3290 H   0  0  0  0  0  0
  -28.4581  -13.5397   21.8916 H   0  0  0  0  0  0
  -25.2762   -9.5750   22.4684 H   0  0  0  0  0  0
  -24.0016   -7.4668   22.7418 H   0  0  0  0  0  0
  -21.0809   -8.8741   19.8937 H   0  0  0  0  0  0
  -22.3616  -10.9640   19.6126 H   0  0  0  0  0  0
  -21.2008   -7.6126   23.9693 H   0  0  0  0  0  0
  -21.1499   -6.0501   25.9055 H   0  0  0  0  0  0
  -22.0596   -2.7598   23.2808 H   0  0  0  0  0  0
  -22.4136  -12.0006   22.4905 H   0  0  0  0  0  0
  -21.1073  -13.1240   22.2486 H   0  0  0  0  0  0
  -24.6558  -15.8430   20.4682 H   0  0  0  0  0  0
  -26.2767  -15.6162   20.0491 H   0  0  0  0  0  0
  -26.7103  -32.5571   23.1190 H   0  0  0  0  0  0
  -25.0022  -33.9796   25.0475 H   0  0  0  0  0  0
  -22.6901  -31.3075   21.4062 H   0  0  0  0  0  0
  -23.3734  -35.9661   23.3330 H   0  0  0  0  0  0
  -24.3582  -36.8897   22.2054 H   0  0  0  0  0  0
  -23.7254  -37.6535   23.6634 H   0  0  0  0  0  0
  -26.0389  -31.6077   20.5973 H   0  0  0  0  0  0
  -26.8172  -30.8984   21.9829 H   0  0  0  0  0  0
  -28.0995  -29.1340   21.1800 H   0  0  0  0  0  0
  -26.1122  -25.9884   19.0084 H   0  0  0  0  0  0
  -24.0012  -27.2881   19.0278 H   0  0  0  0  0  0
  -23.7264  -30.5973   19.4042 H   0  0  0  0  0  0
  -22.7423  -29.2400   19.8646 H   0  0  0  0  0  0
  -25.1276  -36.1981   25.0839 H   0  0  0  0  0  0
  -20.9962  -28.3249   24.1429 H   0  0  0  0  0  0
  -20.5657  -26.2284   23.3615 H   0  0  0  0  0  0
  -21.6629  -26.7460   22.1213 H   0  0  0  0  0  0
  -19.6891  -25.6292   21.1246 H   0  0  0  0  0  0
  -19.6656  -27.3196   20.6748 H   0  0  0  0  0  0
  -17.4177  -26.6675   21.4051 H   0  0  0  0  0  0
  -18.0324  -26.0080   22.9047 H   0  0  0  0  0  0
  -19.7934  -30.7259   24.2294 H   0  0  0  0  0  0
  -17.5026  -31.6278   24.5164 H   0  0  0  0  0  0
  -15.5356  -30.3021   23.7638 H   0  0  0  0  0  0
  -15.8656  -28.0846   22.7065 H   0  0  0  0  0  0
  -24.5854  -30.7154   25.7823 H   0  0  0  0  0  0
  -24.9011  -32.2916   26.4981 H   0  0  0  0  0  0
  -25.8083  -30.8848   27.0214 H   0  0  0  0  0  0
  -26.2831  -29.6800   24.1159 H   0  0  0  0  0  0
  -27.4057  -29.7273   25.4566 H   0  0  0  0  0  0
  -27.8677  -30.4338   23.9254 H   0  0  0  0  0  0
  -27.2681  -33.3622   26.2060 H   0  0  0  0  0  0
  -28.3852  -32.6881   25.0290 H   0  0  0  0  0  0
  -28.0733  -31.8443   26.5380 H   0  0  0  0  0  0
  -28.2612  -38.0089   24.7490 H   0  0  0  0  0  0
  -28.1049  -36.2622   24.6318 H   0  0  0  0  0  0
  -27.2298  -37.1502   25.8876 H   0  0  0  0  0  0
  -20.9274  -29.8778   21.6963 H   0  0  0  0  0  0
  -26.0180  -38.2874   24.1396 H   0  0  0  0  0  0
  -31.5310  -20.4073   22.5112 H   0  0  0  0  0  0
  -29.4380  -18.9240   19.1782 H   0  0  0  0  0  0
  -32.5033  -16.5248   21.8037 H   0  0  0  0  0  0
  -32.7443  -18.1528   22.3857 H   0  0  0  0  0  0
  -32.7848  -17.8273   20.6533 H   0  0  0  0  0  0
  -31.3301  -23.2190   19.8888 H   0  0  0  0  0  0
  -31.6944  -23.0654   21.5778 H   0  0  0  0  0  0
  -29.2963  -23.5560   22.1465 H   0  0  0  0  0  0
  -28.9055  -23.6565   20.4441 H   0  0  0  0  0  0
  -30.6246  -25.5701   20.2559 H   0  0  0  0  0  0
  -30.7883  -25.4984   21.9815 H   0  0  0  0  0  0
  -30.3888  -16.8093   19.6166 H   0  0  0  0  0  0
  -28.9568  -17.0847   20.5683 H   0  0  0  0  0  0
  -29.2193  -27.1787   21.8947 H   0  0  0  0  0  0
  -28.1049  -25.8349   21.9389 H   0  0  0  0  0  0
  -30.3455  -17.8039   22.5090 H   0  0  0  0  0  0
  -29.1832  -15.1290   21.6479 H   0  0  0  0  0  0
  1 25  1  0  0  0
  1 30  2  0  0  0
  1 83  1  0  0  0
  2  3  1  0  0  0
  2 25  1  0  0  0
  2 84  1  0  0  0
  2 85  1  0  0  0
  3  4  1  0  0  0
  3 86  1  0  0  0
  3 87  1  0  0  0
  4  5  1  0  0  0
  4 88  1  0  0  0
  4 89  1  0  0  0
  5  6  1  0  0  0
  5 26  1  0  0  0
  5 90  1  0  0  0
  6 25  1  0  0  0
  6 91  1  0  0  0
  6 92  1  0  0  0
  7  8  2  0  0  0
  7 26  1  0  0  0
  7 29  1  0  0  0
  8  9  1  0  0  0
  8 22  1  0  0  0
  9 10  1  0  0  0
  9 27  2  0  0  0
 10 11  2  0  0  0
 10 15  1  0  0  0
 11 12  1  0  0  0
 11 93  1  0  0  0
 12 13  2  0  0  0
 12 94  1  0  0  0
 13 14  1  0  0  0
 13 31  1  0  0  0
 14 15  2  0  0  0
 14 95  1  0  0  0
 15 96  1  0  0  0
 16 17  2  0  0  0
 16 21  1  0  0  0
 16 31  1  0  0  0
 17 18  1  0  0  0
 17 97  1  0  0  0
 18 19  2  0  0  0
 18 98  1  0  0  0
 19 20  1  0  0  0
 19 24  1  0  0  0
 20 21  2  0  0  0
 20 99  1  0  0  0
 21 23  1  0  0  0
 22 28  1  0  0  0
 22 32  2  0  0  0
 26 27  1  0  0  0
 28100  1  0  0  0
 28101  1  0  0  0
 29102  1  0  0  0
 29103  1  0  0  0
 33 34  1  0  0  0
 33 66  1  0  0  0
 33 70  2  0  0  0
 34 36  1  0  0  0
 34 59  1  0  0  0
 34104  1  0  0  0
 35 44  2  0  0  0
 35 45  1  0  0  0
 35 68  1  0  0  0
 36 56  1  0  0  0
 36105  1  0  0  0
 37 39  1  0  0  0
 37 47  1  0  0  0
 37 66  1  0  0  0
 37106  1  0  0  0
 38 43  2  0  0  0
 38 46  1  0  0  0
 38 47  1  0  0  0
 39 64  1  0  0  0
 39 67  2  0  0  0
 40 52  1  0  0  0
 40 53  2  0  0  0
 40 58  1  0  0  0
 41107  1  0  0  0
 41108  1  0  0  0
 41109  1  0  0  0
 41 48  1  0  0  0
 42 43  1  0  0  0
 42 66  1  0  0  0
 42110  1  0  0  0
 42111  1  0  0  0
 43 44  1  0  0  0
 44112  1  0  0  0
 45 46  2  0  0  0
 45113  1  0  0  0
 46114  1  0  0  0
 47115  1  0  0  0
 47116  1  0  0  0
 48 56  1  0  0  0
 48 65  1  0  0  0
 48117  1  0  0  0
 49 50  1  0  0  0
 49 53  1  0  0  0
 49 64  1  0  0  0
 49118  1  0  0  0
 50 51  1  0  0  0
 50119  1  0  0  0
 50120  1  0  0  0
 51 52  1  0  0  0
 51121  1  0  0  0
 51122  1  0  0  0
 52123  1  0  0  0
 52124  1  0  0  0
 53 54  1  0  0  0
 54 55  2  0  0  0
 54125  1  0  0  0
 55 57  1  0  0  0
 55126  1  0  0  0
 56 69  2  0  0  0
 57 58  2  0  0  0
 57127  1  0  0  0
 58128  1  0  0  0
 59 60  1  0  0  0
 59 61  1  0  0  0
 59 62  1  0  0  0
 60129  1  0  0  0
 60130  1  0  0  0
 60131  1  0  0  0
 61132  1  0  0  0
 61133  1  0  0  0
 61134  1  0  0  0
 62135  1  0  0  0
 62136  1  0  0  0
 62137  1  0  0  0
 63 65  1  0  0  0
 63138  1  0  0  0
 63139  1  0  0  0
 63140  1  0  0  0
 64141  1  0  0  0
 65142  1  0  0  0
 68 79  1  0  0  0
 71 73  2  0  0  0
 71 82  1  0  0  0
 71143  1  0  0  0
 72 81  2  0  0  0
 72 82  1  0  0  0
 72144  1  0  0  0
 73 75  1  0  0  0
 73 81  1  0  0  0
 74145  1  0  0  0
 74146  1  0  0  0
 74147  1  0  0  0
 74 80  1  0  0  0
 75 76  1  0  0  0
 75148  1  0  0  0
 75149  1  0  0  0
 76 77  1  0  0  0
 76150  1  0  0  0
 76151  1  0  0  0
 77 79  1  0  0  0
 77152  1  0  0  0
 77153  1  0  0  0
 78 80  1  0  0  0
 78 83  1  0  0  0
 78154  1  0  0  0
 78155  1  0  0  0
 79156  1  0  0  0
 79157  1  0  0  0
 80 82  1  0  0  0
 80158  1  0  0  0
 83159  1  0  0  0
M  ISO  4   1 100  68 101  79 101  83 100
M  END
> <chiral flag>
0

> <version>
0

> <s_m_source_file>
/data/baiqing/PycharmProjects/Reinvent-master-3.2/result/LINK_invent/BTK/process_docking_weight1_custom_sum_contain_oxygen_bond_distance_aromatic_linkinvent_7_9_3/rearranged_h_0070.sdf

> <i_m_source_file_index>
11

> <r_mmod_Potential_Energy-OPLS-2005>
-97.2361221313477

> <r_mmod_Stretch_Energy-OPLS-2005>
34.0606002807617

> <r_mmod_Bend_Energy-OPLS-2005>
98.3356781005859

> <r_mmod_Torsional_Energy-OPLS-2005>
258.457946777344

> <r_mmod_Improper_Torsional_Energy-OPLS-2005>
6.74918127059937

> <r_mmod_Van_der_Waal_Energy-OPLS-2005>
127.582221984863

> <r_mmod_Electrostatic_Energy-OPLS-2005>
-403.437866210938

> <r_mmod_Solvation_Energy-OPLS-2005>
-227.775329589844

> <b_mmod_Minimization_Converged-OPLS-2005>
0

> <r_mmod_RMS_Derivative-OPLS-2005>
4.34542894363403

$$$$
11
                    3D
 Structure written by MMmdl.
162170  0  0  1  0            999 V2000
  -30.5961  -14.7367   20.4703 C   0  0  0  0  0  0
  -30.4374  -12.4584   19.4629 C   0  0  0  0  0  0
  -29.5193  -12.5291   18.2273 C   0  0  0  0  0  0
  -28.0420  -12.3502   18.6349 C   0  0  0  0  0  0
  -27.6474  -13.2242   19.8566 C   0  0  2  0  0  0
  -28.6910  -13.1460   20.9897 C   0  0  0  0  0  0
  -25.2536  -13.8167   20.5647 C   0  0  0  0  0  0
  -24.1838  -13.0438   20.9166 C   0  0  0  0  0  0
  -24.6424  -11.6912   20.8751 C   0  0  0  0  0  0
  -23.9087  -10.4302   21.0414 C   0  0  0  0  0  0
  -24.3626   -9.4212   21.9180 C   0  0  0  0  0  0
  -23.6291   -8.2266   22.0759 C   0  0  0  0  0  0
  -22.4268   -8.0302   21.3549 C   0  0  0  0  0  0
  -21.9907   -9.0276   20.4662 C   0  0  0  0  0  0
  -22.7259  -10.2152   20.3065 C   0  0  0  0  0  0
  -21.6856   -6.0749   22.5299 C   0  0  0  0  0  0
  -21.4038   -6.5655   23.8228 C   0  0  0  0  0  0
  -21.3655   -5.6801   24.9180 C   0  0  0  0  0  0
  -21.6029   -4.3062   24.7243 C   0  0  0  0  0  0
  -21.8816   -3.8163   23.4360 C   0  0  0  0  0  0
  -21.9193   -4.6972   22.3421 C   0  0  0  0  0  0
  -22.7854  -13.5225   21.1837 C   0  0  0  0  0  0
  -22.1625   -4.2161   21.0991 F   0  0  0  0  0  0
  -21.5609   -3.4538   25.7746 F   0  0  0  0  0  0
  -29.9884  -13.5060   20.4046 N   0  0  0  0  0  0
  -26.2976  -12.9368   20.3301 N   0  0  0  0  0  0
  -25.9358  -11.6516   20.5777 N   0  0  0  0  0  0
  -22.0477  -12.8235   22.0397 N   0  0  0  0  0  0
  -25.4140  -15.1904   20.4023 N   0  0  0  0  0  0
  -31.7883  -14.8587   20.1744 O   0  0  0  0  0  0
  -21.6643   -6.8890   21.4259 O   0  0  0  0  0  0
  -22.3574  -14.5549   20.6712 O   0  0  0  0  0  0
  -24.6331  -31.8523   23.1949 C   0  0  0  0  0  0
  -25.9155  -32.4751   23.8316 C   0  0  1  0  0  0
  -27.2274  -27.2607   20.1332 C   0  0  0  0  0  0
  -25.5941  -33.8543   24.2258 N   0  0  0  0  0  0
  -23.4329  -30.4695   21.5390 C   0  0  2  0  0  0
  -24.8841  -28.9111   20.1181 C   0  0  0  0  0  0
  -22.7539  -29.4558   22.4925 C   0  0  0  0  0  0
  -18.0303  -28.1367   22.8508 C   0  0  0  0  0  0
  -24.1487  -36.7293   23.2632 C   0  0  0  0  0  0
  -25.9759  -30.7657   21.3715 C   0  0  0  0  0  0
  -26.0541  -29.3846   20.7234 C   0  0  0  0  0  0
  -27.2343  -28.5738   20.7137 C   0  0  0  0  0  0
  -26.0348  -26.8451   19.5109 C   0  0  0  0  0  0
  -24.8787  -27.6498   19.4999 C   0  0  0  0  0  0
  -23.6571  -29.7990   20.1584 C   0  0  0  0  0  0
  -25.4111  -36.3068   24.0322 C   0  0  1  0  0  0
  -20.5915  -28.3673   23.1311 C   0  0  2  0  0  0
  -20.6822  -26.9431   22.5340 C   0  0  0  0  0  0
  -19.5762  -26.6486   21.5153 C   0  0  0  0  0  0
  -18.1956  -26.7960   22.1583 C   0  0  0  0  0  0
  -19.1555  -28.8829   23.2931 C   0  0  0  0  0  0
  -18.9438  -30.1411   23.8972 C   0  0  0  0  0  0
  -17.6425  -30.6540   24.0586 C   0  0  0  0  0  0
  -25.9048  -34.9439   23.5089 C   0  0  0  0  0  0
  -16.5339  -29.9047   23.6300 C   0  0  0  0  0  0
  -16.7289  -28.6472   23.0328 C   0  0  0  0  0  0
  -26.4530  -31.6563   25.0697 C   0  0  0  0  0  0
  -25.3734  -31.3725   26.1403 C   0  0  0  0  0  0
  -27.0360  -30.2979   24.6143 C   0  0  0  0  0  0
  -27.6074  -32.4312   25.7482 C   0  0  0  0  0  0
  -27.5584  -37.1813   24.8468 C   0  0  0  0  0  0
  -21.4235  -29.3056   22.3742 N   0  0  0  0  0  0
  -26.4298  -37.3765   23.9403 N   0  0  0  0  0  0
  -24.7005  -31.0483   22.0930 N   0  0  0  0  0  0
  -23.4240  -28.8090   23.3028 O   0  0  0  0  0  0
  -28.3297  -26.3863   20.1132 O   0  0  0  0  0  0
  -26.5601  -34.8905   22.4646 O   0  0  0  0  0  0
  -23.5486  -32.1334   23.7256 O   0  0  0  0  0  0
  -28.6105  -21.2328   22.5844 C   0  0  0  0  0  0
  -29.0573  -19.9553   20.7997 C   0  0  0  0  0  0
  -28.7508  -22.2619   20.6064 C   0  0  0  0  0  0
  -28.2921  -21.3347   24.0611 C   0  0  0  0  0  0
  -29.0274  -18.4113   18.7035 C   0  0  0  0  0  0
  -27.7189  -23.4648   18.6224 C   0  0  0  0  0  0
  -30.1080  -23.9924   19.2932 C   0  0  0  0  0  0
  -30.1231  -17.3427   20.7809 C   0  0  0  0  0  0
  -28.1749  -24.9749   20.6185 C   0  0  0  0  0  0
  -29.0578  -18.4469   20.2398 C   0  0  1  0  0  0
  -28.6920  -23.6557   19.8014 C   0  0  0  0  0  0
  -28.8524  -20.0178   22.1098 N   0  0  0  0  0  0
  -28.5508  -22.3725   21.9098 N   0  0  0  0  0  0
  -29.0257  -21.0640   19.9944 N   0  0  0  0  0  0
  -29.7917  -15.8461   20.6669 N   0  0  0  0  0  0
  -31.4760  -12.5971   19.1598 H   0  0  0  0  0  0
  -30.3788  -11.4719   19.9232 H   0  0  0  0  0  0
  -29.8161  -11.7705   17.5015 H   0  0  0  0  0  0
  -29.6507  -13.4944   17.7346 H   0  0  0  0  0  0
  -27.8835  -11.2945   18.8562 H   0  0  0  0  0  0
  -27.3961  -12.5815   17.7883 H   0  0  0  0  0  0
  -27.6457  -14.2531   19.4970 H   0  0  0  0  0  0
  -28.7402  -12.1489   21.4296 H   0  0  0  0  0  0
  -28.4258  -13.8198   21.8062 H   0  0  0  0  0  0
  -25.2756   -9.5714   22.4760 H   0  0  0  0  0  0
  -24.0025   -7.4671   22.7460 H   0  0  0  0  0  0
  -21.0856   -8.8828   19.8944 H   0  0  0  0  0  0
  -22.3729  -10.9708   19.6200 H   0  0  0  0  0  0
  -21.2048   -7.6161   23.9748 H   0  0  0  0  0  0
  -21.1458   -6.0515   25.9085 H   0  0  0  0  0  0
  -22.0602   -2.7635   23.2876 H   0  0  0  0  0  0
  -22.4058  -11.9903   22.4807 H   0  0  0  0  0  0
  -21.1105  -13.1323   22.2582 H   0  0  0  0  0  0
  -24.6275  -15.8203   20.5165 H   0  0  0  0  0  0
  -26.2409  -15.6529   20.0519 H   0  0  0  0  0  0
  -26.7225  -32.5417   23.1065 H   0  0  0  0  0  0
  -25.0196  -33.9669   25.0481 H   0  0  0  0  0  0
  -22.7285  -31.2895   21.3898 H   0  0  0  0  0  0
  -23.3740  -35.9636   23.3296 H   0  0  0  0  0  0
  -24.3596  -36.8912   22.2048 H   0  0  0  0  0  0
  -23.7234  -37.6494   23.6653 H   0  0  0  0  0  0
  -26.0999  -31.5181   20.5915 H   0  0  0  0  0  0
  -26.8591  -30.8333   21.9950 H   0  0  0  0  0  0
  -28.1385  -28.9350   21.1846 H   0  0  0  0  0  0
  -25.9956  -25.8780   19.0293 H   0  0  0  0  0  0
  -23.9835  -27.2830   19.0185 H   0  0  0  0  0  0
  -23.7950  -30.5705   19.3989 H   0  0  0  0  0  0
  -22.7783  -29.2320   19.8482 H   0  0  0  0  0  0
  -25.1292  -36.1936   25.0818 H   0  0  0  0  0  0
  -21.0004  -28.3177   24.1431 H   0  0  0  0  0  0
  -20.5814  -26.2242   23.3465 H   0  0  0  0  0  0
  -21.6672  -26.7525   22.1064 H   0  0  0  0  0  0
  -19.6899  -25.6466   21.1034 H   0  0  0  0  0  0
  -19.6685  -27.3438   20.6793 H   0  0  0  0  0  0
  -17.4247  -26.6818   21.3949 H   0  0  0  0  0  0
  -18.0247  -26.0001   22.8855 H   0  0  0  0  0  0
  -19.7878  -30.7206   24.2438 H   0  0  0  0  0  0
  -17.4947  -31.6214   24.5203 H   0  0  0  0  0  0
  -15.5328  -30.2944   23.7563 H   0  0  0  0  0  0
  -15.8698  -28.0789   22.6994 H   0  0  0  0  0  0
  -24.5917  -30.7075   25.7708 H   0  0  0  0  0  0
  -24.8915  -32.2908   26.4771 H   0  0  0  0  0  0
  -25.8012  -30.8923   27.0209 H   0  0  0  0  0  0
  -26.2914  -29.6747   24.1161 H   0  0  0  0  0  0
  -27.4069  -29.7215   25.4630 H   0  0  0  0  0  0
  -27.8791  -30.4267   23.9346 H   0  0  0  0  0  0
  -27.2668  -33.3621   26.2032 H   0  0  0  0  0  0
  -28.3896  -32.6862   25.0319 H   0  0  0  0  0  0
  -28.0736  -31.8457   26.5425 H   0  0  0  0  0  0
  -28.2594  -38.0119   24.7513 H   0  0  0  0  0  0
  -28.1094  -36.2647   24.6301 H   0  0  0  0  0  0
  -27.2320  -37.1469   25.8880 H   0  0  0  0  0  0
  -20.9422  -29.8758   21.6928 H   0  0  0  0  0  0
  -26.0184  -38.2846   24.1386 H   0  0  0  0  0  0
  -28.6786  -20.4819   24.6194 H   0  0  0  0  0  0
  -27.2104  -21.3627   24.1954 H   0  0  0  0  0  0
  -28.7153  -22.2414   24.4971 H   0  0  0  0  0  0
  -29.9399  -18.8347   18.2836 H   0  0  0  0  0  0
  -28.1888  -18.9879   18.3134 H   0  0  0  0  0  0
  -28.9249  -17.3912   18.3333 H   0  0  0  0  0  0
  -28.0370  -22.6501   17.9730 H   0  0  0  0  0  0
  -27.6444  -24.3639   18.0130 H   0  0  0  0  0  0
  -26.7183  -23.2185   18.9835 H   0  0  0  0  0  0
  -30.5313  -23.1782   18.7049 H   0  0  0  0  0  0
  -30.7832  -24.1866   20.1287 H   0  0  0  0  0  0
  -30.1018  -24.8843   18.6647 H   0  0  0  0  0  0
  -30.2674  -17.5269   21.8469 H   0  0  0  0  0  0
  -31.0951  -17.5336   20.3234 H   0  0  0  0  0  0
  -28.7432  -24.9975   21.5487 H   0  0  0  0  0  0
  -27.1462  -24.8028   20.9419 H   0  0  0  0  0  0
  -28.0856  -18.0759   20.5659 H   0  0  0  0  0  0
  -28.8236  -15.6177   20.8321 H   0  0  0  0  0  0
  1 25  1  0  0  0
  1 30  2  0  0  0
  1 85  1  0  0  0
  2  3  1  0  0  0
  2 25  1  0  0  0
  2 86  1  0  0  0
  2 87  1  0  0  0
  3  4  1  0  0  0
  3 88  1  0  0  0
  3 89  1  0  0  0
  4  5  1  0  0  0
  4 90  1  0  0  0
  4 91  1  0  0  0
  5  6  1  0  0  0
  5 26  1  0  0  0
  5 92  1  0  0  0
  6 25  1  0  0  0
  6 93  1  0  0  0
  6 94  1  0  0  0
  7  8  2  0  0  0
  7 26  1  0  0  0
  7 29  1  0  0  0
  8  9  1  0  0  0
  8 22  1  0  0  0
  9 10  1  0  0  0
  9 27  2  0  0  0
 10 11  2  0  0  0
 10 15  1  0  0  0
 11 12  1  0  0  0
 11 95  1  0  0  0
 12 13  2  0  0  0
 12 96  1  0  0  0
 13 14  1  0  0  0
 13 31  1  0  0  0
 14 15  2  0  0  0
 14 97  1  0  0  0
 15 98  1  0  0  0
 16 17  2  0  0  0
 16 21  1  0  0  0
 16 31  1  0  0  0
 17 18  1  0  0  0
 17 99  1  0  0  0
 18 19  2  0  0  0
 18100  1  0  0  0
 19 20  1  0  0  0
 19 24  1  0  0  0
 20 21  2  0  0  0
 20101  1  0  0  0
 21 23  1  0  0  0
 22 28  1  0  0  0
 22 32  2  0  0  0
 26 27  1  0  0  0
 28102  1  0  0  0
 28103  1  0  0  0
 29104  1  0  0  0
 29105  1  0  0  0
 33 34  1  0  0  0
 33 66  1  0  0  0
 33 70  2  0  0  0
 34 36  1  0  0  0
 34 59  1  0  0  0
 34106  1  0  0  0
 35 44  2  0  0  0
 35 45  1  0  0  0
 35 68  1  0  0  0
 36 56  1  0  0  0
 36107  1  0  0  0
 37 39  1  0  0  0
 37 47  1  0  0  0
 37 66  1  0  0  0
 37108  1  0  0  0
 38 43  2  0  0  0
 38 46  1  0  0  0
 38 47  1  0  0  0
 39 64  1  0  0  0
 39 67  2  0  0  0
 40 52  1  0  0  0
 40 53  2  0  0  0
 40 58  1  0  0  0
 41109  1  0  0  0
 41110  1  0  0  0
 41111  1  0  0  0
 41 48  1  0  0  0
 42 43  1  0  0  0
 42 66  1  0  0  0
 42112  1  0  0  0
 42113  1  0  0  0
 43 44  1  0  0  0
 44114  1  0  0  0
 45 46  2  0  0  0
 45115  1  0  0  0
 46116  1  0  0  0
 47117  1  0  0  0
 47118  1  0  0  0
 48 56  1  0  0  0
 48 65  1  0  0  0
 48119  1  0  0  0
 49 50  1  0  0  0
 49 53  1  0  0  0
 49 64  1  0  0  0
 49120  1  0  0  0
 50 51  1  0  0  0
 50121  1  0  0  0
 50122  1  0  0  0
 51 52  1  0  0  0
 51123  1  0  0  0
 51124  1  0  0  0
 52125  1  0  0  0
 52126  1  0  0  0
 53 54  1  0  0  0
 54 55  2  0  0  0
 54127  1  0  0  0
 55 57  1  0  0  0
 55128  1  0  0  0
 56 69  2  0  0  0
 57 58  2  0  0  0
 57129  1  0  0  0
 58130  1  0  0  0
 59 60  1  0  0  0
 59 61  1  0  0  0
 59 62  1  0  0  0
 60131  1  0  0  0
 60132  1  0  0  0
 60133  1  0  0  0
 61134  1  0  0  0
 61135  1  0  0  0
 61136  1  0  0  0
 62137  1  0  0  0
 62138  1  0  0  0
 62139  1  0  0  0
 63 65  1  0  0  0
 63140  1  0  0  0
 63141  1  0  0  0
 63142  1  0  0  0
 64143  1  0  0  0
 65144  1  0  0  0
 68 79  1  0  0  0
 71 74  1  0  0  0
 71 82  2  0  0  0
 71 83  1  0  0  0
 72 80  1  0  0  0
 72 82  1  0  0  0
 72 84  2  0  0  0
 73 81  1  0  0  0
 73 83  2  0  0  0
 73 84  1  0  0  0
 74145  1  0  0  0
 74146  1  0  0  0
 74147  1  0  0  0
 75148  1  0  0  0
 75149  1  0  0  0
 75150  1  0  0  0
 75 80  1  0  0  0
 76151  1  0  0  0
 76152  1  0  0  0
 76153  1  0  0  0
 76 81  1  0  0  0
 77 81  1  0  0  0
 77154  1  0  0  0
 77155  1  0  0  0
 77156  1  0  0  0
 78 80  1  0  0  0
 78 85  1  0  0  0
 78157  1  0  0  0
 78158  1  0  0  0
 79 81  1  0  0  0
 79159  1  0  0  0
 79160  1  0  0  0
 80161  1  0  0  0
 85162  1  0  0  0
M  ISO  4   1 100  68 101  79 101  85 100
M  END
> <chiral flag>
0

> <version>
0

> <s_m_source_file>
/data/baiqing/PycharmProjects/Reinvent-master-3.2/result/LINK_invent/BTK/process_docking_weight1_custom_sum_contain_oxygen_bond_distance_aromatic_linkinvent_7_9_3/rearranged_h_0070.sdf

> <i_m_source_file_index>
12

> <r_mmod_Potential_Energy-OPLS-2005>
-467.431976318359

> <r_mmod_Stretch_Energy-OPLS-2005>
129.093063354492

> <r_mmod_Bend_Energy-OPLS-2005>
173.962860107422

> <r_mmod_Torsional_Energy-OPLS-2005>
227.682434082031

> <r_mmod_Improper_Torsional_Energy-OPLS-2005>
6.24411153793335

> <r_mmod_Van_der_Waal_Energy-OPLS-2005>
150.004699707031

> <r_mmod_Electrostatic_Energy-OPLS-2005>
-1009.82110595703

> <r_mmod_Solvation_Energy-OPLS-2005>
-225.996826171875

> <b_mmod_Minimization_Converged-OPLS-2005>
0

> <r_mmod_RMS_Derivative-OPLS-2005>
4.07068586349487

$$$$
12
                    3D
 Structure written by MMmdl.
173181  0  0  1  0            999 V2000
  -30.7209  -14.8400   20.4141 C   0  0  0  0  0  0
  -30.3816  -12.5003   19.5304 C   0  0  0  0  0  0
  -29.4992  -12.4823   18.2682 C   0  0  0  0  0  0
  -28.0313  -12.3131   18.6818 C   0  0  0  0  0  0
  -27.6215  -13.2662   19.8370 C   0  0  2  0  0  0
  -28.6625  -13.3563   20.9773 C   0  0  0  0  0  0
  -25.2420  -13.8315   20.5754 C   0  0  0  0  0  0
  -24.1741  -13.0484   20.9231 C   0  0  0  0  0  0
  -24.6387  -11.6997   20.8767 C   0  0  0  0  0  0
  -23.9095  -10.4326   21.0421 C   0  0  0  0  0  0
  -24.3627   -9.4238   21.9212 C   0  0  0  0  0  0
  -23.6297   -8.2267   22.0782 C   0  0  0  0  0  0
  -22.4288   -8.0296   21.3559 C   0  0  0  0  0  0
  -21.9919   -9.0280   20.4680 C   0  0  0  0  0  0
  -22.7245  -10.2172   20.3093 C   0  0  0  0  0  0
  -21.6864   -6.0732   22.5281 C   0  0  0  0  0  0
  -21.4009   -6.5643   23.8205 C   0  0  0  0  0  0
  -21.3663   -5.6810   24.9171 C   0  0  0  0  0  0
  -21.6025   -4.3062   24.7228 C   0  0  0  0  0  0
  -21.8813   -3.8150   23.4354 C   0  0  0  0  0  0
  -21.9195   -4.6956   22.3404 C   0  0  0  0  0  0
  -22.7768  -13.5257   21.1861 C   0  0  0  0  0  0
  -22.1670   -4.2130   21.0974 F   0  0  0  0  0  0
  -21.5623   -3.4567   25.7751 F   0  0  0  0  0  0
  -29.9604  -13.6699   20.3748 N   0  0  0  0  0  0
  -26.2837  -12.9577   20.3318 N   0  0  0  0  0  0
  -25.9326  -11.6689   20.5804 N   0  0  0  0  0  0
  -22.0453  -12.8215   22.0432 N   0  0  0  0  0  0
  -25.4103  -15.2034   20.4148 N   0  0  0  0  0  0
  -31.8875  -14.6404   20.0719 O   0  0  0  0  0  0
  -21.6660   -6.8889   21.4249 O   0  0  0  0  0  0
  -22.3437  -14.5566   20.6744 O   0  0  0  0  0  0
  -24.6344  -31.8522   23.1935 C   0  0  0  0  0  0
  -25.9134  -32.4750   23.8327 C   0  0  1  0  0  0
  -27.1853  -27.1805   20.1389 C   0  0  0  0  0  0
  -25.5906  -33.8563   24.2237 N   0  0  0  0  0  0
  -23.4364  -30.4689   21.5420 C   0  0  2  0  0  0
  -24.8759  -28.9089   20.1085 C   0  0  0  0  0  0
  -22.7566  -29.4550   22.4953 C   0  0  0  0  0  0
  -18.0273  -28.1377   22.8463 C   0  0  0  0  0  0
  -24.1472  -36.7271   23.2635 C   0  0  0  0  0  0
  -25.9857  -30.7363   21.3882 C   0  0  0  0  0  0
  -26.0487  -29.3539   20.7262 C   0  0  0  0  0  0
  -27.2052  -28.5011   20.7272 C   0  0  0  0  0  0
  -25.9920  -26.8292   19.4703 C   0  0  0  0  0  0
  -24.8542  -27.6619   19.4664 C   0  0  0  0  0  0
  -23.6562  -29.8076   20.1572 C   0  0  0  0  0  0
  -25.4115  -36.3087   24.0328 C   0  0  1  0  0  0
  -20.5879  -28.3682   23.1277 C   0  0  2  0  0  0
  -20.6759  -26.9406   22.5406 C   0  0  0  0  0  0
  -19.5741  -26.6373   21.5203 C   0  0  0  0  0  0
  -18.1928  -26.7911   22.1615 C   0  0  0  0  0  0
  -19.1531  -28.8861   23.2844 C   0  0  0  0  0  0
  -18.9441  -30.1453   23.8883 C   0  0  0  0  0  0
  -17.6441  -30.6588   24.0544 C   0  0  0  0  0  0
  -25.9056  -34.9445   23.5091 C   0  0  0  0  0  0
  -16.5332  -29.9077   23.6319 C   0  0  0  0  0  0
  -16.7256  -28.6476   23.0366 C   0  0  0  0  0  0
  -26.4484  -31.6597   25.0753 C   0  0  0  0  0  0
  -25.3666  -31.3744   26.1448 C   0  0  0  0  0  0
  -27.0320  -30.3002   24.6259 C   0  0  0  0  0  0
  -27.6048  -32.4346   25.7501 C   0  0  0  0  0  0
  -27.5596  -37.1792   24.8482 C   0  0  0  0  0  0
  -21.4272  -29.3017   22.3713 N   0  0  0  0  0  0
  -26.4303  -37.3786   23.9421 N   0  0  0  0  0  0
  -24.7054  -31.0400   22.0957 N   0  0  0  0  0  0
  -23.4250  -28.8124   23.3101 O   0  0  0  0  0  0
  -28.2726  -26.2609   20.2354 O   0  0  0  0  0  0
  -26.5647  -34.8911   22.4673 O   0  0  0  0  0  0
  -23.5466  -32.1415   23.7146 O   0  0  0  0  0  0
  -29.8516  -21.1981   21.0824 C   0  0  0  0  0  0
  -28.6873  -21.9572   20.7274 C   0  0  0  0  0  0
  -27.7091  -21.0290   20.2217 C   0  0  0  0  0  0
  -29.0278  -19.0395   20.5553 C   0  0  0  0  0  0
  -25.8113  -20.7906   18.4977 C   0  0  0  0  0  0
  -27.3239  -22.7477   23.3195 C   0  0  0  0  0  0
  -29.9213  -25.3924   22.5283 C   0  0  0  0  0  0
  -31.5706  -17.1956   19.9620 C   0  0  0  0  0  0
  -30.8077  -16.5978   22.2736 C   0  0  0  0  0  0
  -26.3097  -21.4595   19.7920 C   0  0  0  0  0  0
  -29.1136  -17.3922   20.5029 C   0  0  0  0  0  0
  -27.3116  -23.6898   22.0951 C   0  0  0  0  0  0
  -29.8115  -23.9962   21.8822 C   0  0  0  0  0  0
  -28.2255  -24.7464   19.9614 C   0  0  0  0  0  0
  -28.5095  -23.5724   21.1054 C   0  0  0  0  0  0
  -30.4514  -16.4546   20.7777 C   0  0  0  0  0  0
  -29.9971  -19.8281   21.0345 N   0  0  0  0  0  0
  -27.8942  -19.6543   20.1631 N   0  0  0  0  0  0
  -31.4332  -12.5003   19.2334 H   0  0  0  0  0  0
  -30.2605  -11.5709   20.0905 H   0  0  0  0  0  0
  -29.7974  -11.6644   17.6115 H   0  0  0  0  0  0
  -29.6309  -13.4051   17.7017 H   0  0  0  0  0  0
  -27.9072  -11.2739   18.9931 H   0  0  0  0  0  0
  -27.3754  -12.4517   17.8224 H   0  0  0  0  0  0
  -27.5793  -14.2556   19.3823 H   0  0  0  0  0  0
  -28.7139  -12.4298   21.5522 H   0  0  0  0  0  0
  -28.3857  -14.1456   21.6760 H   0  0  0  0  0  0
  -25.2764   -9.5719   22.4783 H   0  0  0  0  0  0
  -24.0009   -7.4671   22.7510 H   0  0  0  0  0  0
  -21.0836   -8.8771   19.9014 H   0  0  0  0  0  0
  -22.3661  -10.9697   19.6193 H   0  0  0  0  0  0
  -21.2015   -7.6152   23.9685 H   0  0  0  0  0  0
  -21.1493   -6.0560   25.9066 H   0  0  0  0  0  0
  -22.0593   -2.7617   23.2862 H   0  0  0  0  0  0
  -22.4055  -11.9850   22.4769 H   0  0  0  0  0  0
  -21.1100  -13.1268   22.2698 H   0  0  0  0  0  0
  -24.6496  -15.8614   20.5409 H   0  0  0  0  0  0
  -26.2571  -15.6467   20.0838 H   0  0  0  0  0  0
  -26.7200  -32.5371   23.1061 H   0  0  0  0  0  0
  -25.0073  -33.9697   25.0399 H   0  0  0  0  0  0
  -22.7315  -31.2903   21.3969 H   0  0  0  0  0  0
  -23.3763  -35.9575   23.3316 H   0  0  0  0  0  0
  -24.3558  -36.8884   22.2045 H   0  0  0  0  0  0
  -23.7164  -37.6443   23.6660 H   0  0  0  0  0  0
  -26.1309  -31.4956   20.6182 H   0  0  0  0  0  0
  -26.8581  -30.7824   22.0276 H   0  0  0  0  0  0
  -28.1004  -28.8314   21.2336 H   0  0  0  0  0  0
  -25.8947  -25.8888   18.9531 H   0  0  0  0  0  0
  -23.9548  -27.3332   18.9618 H   0  0  0  0  0  0
  -23.7905  -30.5847   19.4038 H   0  0  0  0  0  0
  -22.7753  -29.2459   19.8471 H   0  0  0  0  0  0
  -25.1274  -36.1958   25.0820 H   0  0  0  0  0  0
  -20.9860  -28.3191   24.1434 H   0  0  0  0  0  0
  -20.5615  -26.2301   23.3606 H   0  0  0  0  0  0
  -21.6643  -26.7431   22.1235 H   0  0  0  0  0  0
  -19.6923  -25.6276   21.1261 H   0  0  0  0  0  0
  -19.6673  -27.3157   20.6705 H   0  0  0  0  0  0
  -17.4198  -26.6621   21.4019 H   0  0  0  0  0  0
  -18.0340  -26.0066   22.9015 H   0  0  0  0  0  0
  -19.7920  -30.7252   24.2281 H   0  0  0  0  0  0
  -17.4996  -31.6256   24.5139 H   0  0  0  0  0  0
  -15.5339  -30.2971   23.7645 H   0  0  0  0  0  0
  -15.8652  -28.0768   22.7139 H   0  0  0  0  0  0
  -24.5871  -30.7083   25.7740 H   0  0  0  0  0  0
  -24.8817  -32.2901   26.4830 H   0  0  0  0  0  0
  -25.7938  -30.8938   27.0257 H   0  0  0  0  0  0
  -26.2910  -29.6777   24.1234 H   0  0  0  0  0  0
  -27.3940  -29.7246   25.4785 H   0  0  0  0  0  0
  -27.8824  -30.4286   23.9567 H   0  0  0  0  0  0
  -27.2686  -33.3672   26.2039 H   0  0  0  0  0  0
  -28.3840  -32.6858   25.0297 H   0  0  0  0  0  0
  -28.0746  -31.8508   26.5422 H   0  0  0  0  0  0
  -28.2609  -38.0093   24.7541 H   0  0  0  0  0  0
  -28.1094  -36.2619   24.6298 H   0  0  0  0  0  0
  -27.2335  -37.1440   25.8893 H   0  0  0  0  0  0
  -20.9528  -29.8754   21.6885 H   0  0  0  0  0  0
  -26.0197  -38.2873   24.1399 H   0  0  0  0  0  0
  -30.7264  -21.6773   21.4872 H   0  0  0  0  0  0
  -25.7497  -19.7036   18.5871 H   0  0  0  0  0  0
  -26.4702  -21.0233   17.6612 H   0  0  0  0  0  0
  -24.8149  -21.1453   18.2304 H   0  0  0  0  0  0
  -28.1950  -22.9141   23.9534 H   0  0  0  0  0  0
  -27.3025  -21.6948   23.0393 H   0  0  0  0  0  0
  -26.4517  -22.9213   23.9515 H   0  0  0  0  0  0
  -29.0773  -25.6341   23.1701 H   0  0  0  0  0  0
  -30.0316  -26.1789   21.7858 H   0  0  0  0  0  0
  -30.8114  -25.4453   23.1578 H   0  0  0  0  0  0
  -31.5638  -18.2728   20.0486 H   0  0  0  0  0  0
  -31.4774  -16.9856   18.8947 H   0  0  0  0  0  0
  -32.5808  -16.9174   20.2669 H   0  0  0  0  0  0
  -30.9865  -17.6408   22.5407 H   0  0  0  0  0  0
  -31.7127  -16.0472   22.5303 H   0  0  0  0  0  0
  -30.0072  -16.2210   22.9122 H   0  0  0  0  0  0
  -26.2940  -22.5277   19.6157 H   0  0  0  0  0  0
  -25.6142  -21.2723   20.6120 H   0  0  0  0  0  0
  -28.3471  -17.0488   21.1953 H   0  0  0  0  0  0
  -28.7430  -17.1174   19.5145 H   0  0  0  0  0  0
  -27.2187  -24.7151   22.4468 H   0  0  0  0  0  0
  -26.3798  -23.5204   21.5598 H   0  0  0  0  0  0
  -29.9741  -23.3056   22.7084 H   0  0  0  0  0  0
  -30.6787  -23.8844   21.2318 H   0  0  0  0  0  0
  -27.3063  -24.4901   19.4488 H   0  0  0  0  0  0
  -28.9777  -24.6124   19.1846 H   0  0  0  0  0  0
  1 25  1  0  0  0
  1 30  2  0  0  0
  1 86  1  0  0  0
  2  3  1  0  0  0
  2 25  1  0  0  0
  2 89  1  0  0  0
  2 90  1  0  0  0
  3  4  1  0  0  0
  3 91  1  0  0  0
  3 92  1  0  0  0
  4  5  1  0  0  0
  4 93  1  0  0  0
  4 94  1  0  0  0
  5  6  1  0  0  0
  5 26  1  0  0  0
  5 95  1  0  0  0
  6 25  1  0  0  0
  6 96  1  0  0  0
  6 97  1  0  0  0
  7  8  2  0  0  0
  7 26  1  0  0  0
  7 29  1  0  0  0
  8  9  1  0  0  0
  8 22  1  0  0  0
  9 10  1  0  0  0
  9 27  2  0  0  0
 10 11  2  0  0  0
 10 15  1  0  0  0
 11 12  1  0  0  0
 11 98  1  0  0  0
 12 13  2  0  0  0
 12 99  1  0  0  0
 13 14  1  0  0  0
 13 31  1  0  0  0
 14 15  2  0  0  0
 14100  1  0  0  0
 15101  1  0  0  0
 16 17  2  0  0  0
 16 21  1  0  0  0
 16 31  1  0  0  0
 17 18  1  0  0  0
 17102  1  0  0  0
 18 19  2  0  0  0
 18103  1  0  0  0
 19 20  1  0  0  0
 19 24  1  0  0  0
 20 21  2  0  0  0
 20104  1  0  0  0
 21 23  1  0  0  0
 22 28  1  0  0  0
 22 32  2  0  0  0
 26 27  1  0  0  0
 28105  1  0  0  0
 28106  1  0  0  0
 29107  1  0  0  0
 29108  1  0  0  0
 33 34  1  0  0  0
 33 66  1  0  0  0
 33 70  2  0  0  0
 34 36  1  0  0  0
 34 59  1  0  0  0
 34109  1  0  0  0
 35 44  2  0  0  0
 35 45  1  0  0  0
 35 68  1  0  0  0
 36 56  1  0  0  0
 36110  1  0  0  0
 37 39  1  0  0  0
 37 47  1  0  0  0
 37 66  1  0  0  0
 37111  1  0  0  0
 38 43  2  0  0  0
 38 46  1  0  0  0
 38 47  1  0  0  0
 39 64  1  0  0  0
 39 67  2  0  0  0
 40 52  1  0  0  0
 40 53  2  0  0  0
 40 58  1  0  0  0
 41112  1  0  0  0
 41113  1  0  0  0
 41114  1  0  0  0
 41 48  1  0  0  0
 42 43  1  0  0  0
 42 66  1  0  0  0
 42115  1  0  0  0
 42116  1  0  0  0
 43 44  1  0  0  0
 44117  1  0  0  0
 45 46  2  0  0  0
 45118  1  0  0  0
 46119  1  0  0  0
 47120  1  0  0  0
 47121  1  0  0  0
 48 56  1  0  0  0
 48 65  1  0  0  0
 48122  1  0  0  0
 49 50  1  0  0  0
 49 53  1  0  0  0
 49 64  1  0  0  0
 49123  1  0  0  0
 50 51  1  0  0  0
 50124  1  0  0  0
 50125  1  0  0  0
 51 52  1  0  0  0
 51126  1  0  0  0
 51127  1  0  0  0
 52128  1  0  0  0
 52129  1  0  0  0
 53 54  1  0  0  0
 54 55  2  0  0  0
 54130  1  0  0  0
 55 57  1  0  0  0
 55131  1  0  0  0
 56 69  2  0  0  0
 57 58  2  0  0  0
 57132  1  0  0  0
 58133  1  0  0  0
 59 60  1  0  0  0
 59 61  1  0  0  0
 59 62  1  0  0  0
 60134  1  0  0  0
 60135  1  0  0  0
 60136  1  0  0  0
 61137  1  0  0  0
 61138  1  0  0  0
 61139  1  0  0  0
 62140  1  0  0  0
 62141  1  0  0  0
 62142  1  0  0  0
 63 65  1  0  0  0
 63143  1  0  0  0
 63144  1  0  0  0
 63145  1  0  0  0
 64146  1  0  0  0
 65147  1  0  0  0
 68 84  1  0  0  0
 71 72  2  0  0  0
 71 87  1  0  0  0
 71148  1  0  0  0
 72 73  1  0  0  0
 72 85  1  0  0  0
 73 80  1  0  0  0
 73 88  2  0  0  0
 74 81  1  0  0  0
 74 87  2  0  0  0
 74 88  1  0  0  0
 75 80  1  0  0  0
 75149  1  0  0  0
 75150  1  0  0  0
 75151  1  0  0  0
 76 82  1  0  0  0
 76152  1  0  0  0
 76153  1  0  0  0
 76154  1  0  0  0
 77 83  1  0  0  0
 77155  1  0  0  0
 77156  1  0  0  0
 77157  1  0  0  0
 78158  1  0  0  0
 78159  1  0  0  0
 78160  1  0  0  0
 78 86  1  0  0  0
 79 86  1  0  0  0
 79161  1  0  0  0
 79162  1  0  0  0
 79163  1  0  0  0
 80164  1  0  0  0
 80165  1  0  0  0
 81 86  1  0  0  0
 81166  1  0  0  0
 81167  1  0  0  0
 82168  1  0  0  0
 82169  1  0  0  0
 82 85  1  0  0  0
 83 85  1  0  0  0
 83170  1  0  0  0
 83171  1  0  0  0
 84 85  1  0  0  0
 84172  1  0  0  0
 84173  1  0  0  0
M  ISO  4   1 100  68 101  84 101  86 100
M  END
> <chiral flag>
0

> <version>
0

> <s_m_source_file>
/data/baiqing/PycharmProjects/Reinvent-master-3.2/result/LINK_invent/BTK/process_docking_weight1_custom_sum_contain_oxygen_bond_distance_aromatic_linkinvent_7_9_3/rearranged_h_0070.sdf

> <i_m_source_file_index>
13

> <r_mmod_Potential_Energy-OPLS-2005>
191.598648071289

> <r_mmod_Stretch_Energy-OPLS-2005>
229.367614746094

> <r_mmod_Bend_Energy-OPLS-2005>
348.474945068359

> <r_mmod_Torsional_Energy-OPLS-2005>
218.833160400391

> <r_mmod_Improper_Torsional_Energy-OPLS-2005>
2.93399453163147

> <r_mmod_Van_der_Waal_Energy-OPLS-2005>
173.992858886719

> <r_mmod_Electrostatic_Energy-OPLS-2005>
-735.0390625

> <r_mmod_Solvation_Energy-OPLS-2005>
-192.940612792969

> <b_mmod_Minimization_Converged-OPLS-2005>
0

> <r_mmod_RMS_Derivative-OPLS-2005>
4.94947147369385

$$$$
13
                    3D
 Structure written by MMmdl.
161169  0  0  1  0            999 V2000
  -30.7462  -14.4143   20.5377 C   0  0  0  0  0  0
  -30.4005  -12.2629   19.4244 C   0  0  0  0  0  0
  -29.4863  -12.4896   18.2051 C   0  0  0  0  0  0
  -28.0066  -12.3685   18.6157 C   0  0  0  0  0  0
  -27.6583  -13.2082   19.8754 C   0  0  2  0  0  0
  -28.7013  -13.0072   20.9987 C   0  0  0  0  0  0
  -25.2570  -13.8169   20.5692 C   0  0  0  0  0  0
  -24.1822  -13.0441   20.9175 C   0  0  0  0  0  0
  -24.6381  -11.6911   20.8740 C   0  0  0  0  0  0
  -23.9054  -10.4295   21.0407 C   0  0  0  0  0  0
  -24.3608   -9.4210   21.9186 C   0  0  0  0  0  0
  -23.6286   -8.2243   22.0757 C   0  0  0  0  0  0
  -22.4270   -8.0278   21.3544 C   0  0  0  0  0  0
  -21.9902   -9.0253   20.4647 C   0  0  0  0  0  0
  -22.7227  -10.2134   20.3056 C   0  0  0  0  0  0
  -21.6852   -6.0735   22.5280 C   0  0  0  0  0  0
  -21.4014   -6.5640   23.8213 C   0  0  0  0  0  0
  -21.3660   -5.6793   24.9175 C   0  0  0  0  0  0
  -21.6042   -4.3055   24.7226 C   0  0  0  0  0  0
  -21.8819   -3.8147   23.4347 C   0  0  0  0  0  0
  -21.9192   -4.6962   22.3402 C   0  0  0  0  0  0
  -22.7845  -13.5238   21.1836 C   0  0  0  0  0  0
  -22.1659   -4.2147   21.0979 F   0  0  0  0  0  0
  -21.5629   -3.4539   25.7740 F   0  0  0  0  0  0
  -30.0342  -13.2648   20.4353 N   0  0  0  0  0  0
  -26.3008  -12.9342   20.3393 N   0  0  0  0  0  0
  -25.9309  -11.6501   20.5785 N   0  0  0  0  0  0
  -22.0487  -12.8232   22.0395 N   0  0  0  0  0  0
  -25.4288  -15.1887   20.4111 N   0  0  0  0  0  0
  -31.8995  -14.5212   20.1149 O   0  0  0  0  0  0
  -21.6636   -6.8875   21.4240 O   0  0  0  0  0  0
  -22.3531  -14.5545   20.6686 O   0  0  0  0  0  0
  -24.6102  -31.8714   23.2137 C   0  0  0  0  0  0
  -25.9019  -32.4839   23.8412 C   0  0  1  0  0  0
  -27.2334  -27.4774   20.0921 C   0  0  0  0  0  0
  -25.5892  -33.8635   24.2348 N   0  0  0  0  0  0
  -23.3955  -30.4938   21.5527 C   0  0  2  0  0  0
  -24.8431  -28.9639   20.1142 C   0  0  0  0  0  0
  -22.7388  -29.4664   22.5011 C   0  0  0  0  0  0
  -18.0264  -28.1365   22.8492 C   0  0  0  0  0  0
  -24.1488  -36.7322   23.2636 C   0  0  0  0  0  0
  -25.9185  -30.8492   21.3607 C   0  0  0  0  0  0
  -25.9981  -29.4846   20.7136 C   0  0  0  0  0  0
  -27.1973  -28.7444   20.7077 C   0  0  0  0  0  0
  -26.0729  -26.9637   19.4802 C   0  0  0  0  0  0
  -24.8727  -27.6995   19.4970 C   0  0  0  0  0  0
  -23.6026  -29.8251   20.1660 C   0  0  0  0  0  0
  -25.4105  -36.3122   24.0339 C   0  0  1  0  0  0
  -20.5850  -28.3648   23.1330 C   0  0  2  0  0  0
  -20.6758  -26.9391   22.5417 C   0  0  0  0  0  0
  -19.5740  -26.6379   21.5208 C   0  0  0  0  0  0
  -18.1916  -26.7916   22.1616 C   0  0  0  0  0  0
  -19.1511  -28.8823   23.2911 C   0  0  0  0  0  0
  -18.9446  -30.1431   23.8916 C   0  0  0  0  0  0
  -17.6453  -30.6580   24.0559 C   0  0  0  0  0  0
  -25.9025  -34.9486   23.5140 C   0  0  0  0  0  0
  -16.5343  -29.9083   23.6318 C   0  0  0  0  0  0
  -16.7255  -28.6495   23.0345 C   0  0  0  0  0  0
  -26.4466  -31.6601   25.0718 C   0  0  0  0  0  0
  -25.3750  -31.3681   26.1481 C   0  0  0  0  0  0
  -27.0296  -30.3057   24.6045 C   0  0  0  0  0  0
  -27.6054  -32.4308   25.7476 C   0  0  0  0  0  0
  -27.5584  -37.1813   24.8464 C   0  0  0  0  0  0
  -21.4121  -29.3023   22.3750 N   0  0  0  0  0  0
  -26.4297  -37.3801   23.9408 N   0  0  0  0  0  0
  -24.6592  -31.0847   22.1018 N   0  0  0  0  0  0
  -23.4182  -28.8211   23.3036 O   0  0  0  0  0  0
  -28.3895  -26.7444   20.0784 O   0  0  0  0  0  0
  -26.5583  -34.8930   22.4699 O   0  0  0  0  0  0
  -23.5310  -32.1451   23.7561 O   0  0  0  0  0  0
  -28.2252  -19.0672   22.4016 C   0  0  0  0  0  0
  -30.8678  -19.0463   21.8380 C   0  0  0  0  0  0
  -29.0563  -20.1822   22.6749 C   0  0  0  0  0  0
  -30.0310  -17.9556   21.5029 C   0  0  0  0  0  0
  -28.9736  -17.0959   18.5623 C   0  0  0  0  0  0
  -28.4983  -21.5215   23.1150 C   0  0  0  0  0  0
  -30.4052  -17.2158   19.1116 C   0  0  0  0  0  0
  -28.2312  -22.4132   21.8913 C   0  0  0  0  0  0
  -28.5771  -25.9668   21.2588 C   0  0  0  0  0  0
  -27.8517  -24.6167   21.1372 C   0  0  0  0  0  0
  -30.5810  -16.8546   20.6114 C   0  0  2  0  0  0
  -30.3872  -20.1615   22.4269 N   0  0  0  0  0  0
  -28.7094  -17.9426   21.8150 N   0  0  0  0  0  0
  -30.0658  -15.5101   20.9006 N   0  0  0  0  0  0
  -28.1605  -23.7863   22.2523 O   0  0  0  0  0  0
  -31.4491  -12.3185   19.1263 H   0  0  0  0  0  0
  -30.2615  -11.2581   19.8263 H   0  0  0  0  0  0
  -29.7160  -11.7661   17.4218 H   0  0  0  0  0  0
  -29.6730  -13.4759   17.7763 H   0  0  0  0  0  0
  -27.8031  -11.3140   18.8046 H   0  0  0  0  0  0
  -27.3618  -12.6566   17.7847 H   0  0  0  0  0  0
  -27.6954  -14.2535   19.5757 H   0  0  0  0  0  0
  -28.6590  -11.9856   21.3796 H   0  0  0  0  0  0
  -28.4860  -13.6528   21.8514 H   0  0  0  0  0  0
  -25.2755   -9.5688   22.4758 H   0  0  0  0  0  0
  -23.9997   -7.4637   22.7478 H   0  0  0  0  0  0
  -21.0835   -8.8767   19.8953 H   0  0  0  0  0  0
  -22.3685  -10.9671   19.6164 H   0  0  0  0  0  0
  -21.2008   -7.6151   23.9714 H   0  0  0  0  0  0
  -21.1482   -6.0526   25.9077 H   0  0  0  0  0  0
  -22.0598   -2.7609   23.2848 H   0  0  0  0  0  0
  -22.4101  -11.9893   22.4785 H   0  0  0  0  0  0
  -21.1106  -13.1262   22.2602 H   0  0  0  0  0  0
  -24.6664  -15.8459   20.5319 H   0  0  0  0  0  0
  -26.2909  -15.6338   20.1227 H   0  0  0  0  0  0
  -26.7096  -32.5571   23.1188 H   0  0  0  0  0  0
  -25.0072  -33.9800   25.0515 H   0  0  0  0  0  0
  -22.6815  -31.3084   21.4162 H   0  0  0  0  0  0
  -23.3743  -35.9665   23.3311 H   0  0  0  0  0  0
  -24.3583  -36.8921   22.2050 H   0  0  0  0  0  0
  -23.7246  -37.6533   23.6641 H   0  0  0  0  0  0
  -26.0211  -31.6145   20.5899 H   0  0  0  0  0  0
  -26.8095  -30.9073   21.9735 H   0  0  0  0  0  0
  -28.0915  -29.1403   21.1698 H   0  0  0  0  0  0
  -26.0975  -25.9970   18.9968 H   0  0  0  0  0  0
  -23.9857  -27.2947   19.0287 H   0  0  0  0  0  0
  -23.7061  -30.6001   19.4057 H   0  0  0  0  0  0
  -22.7279  -29.2416   19.8734 H   0  0  0  0  0  0
  -25.1281  -36.1992   25.0831 H   0  0  0  0  0  0
  -20.9936  -28.3210   24.1452 H   0  0  0  0  0  0
  -20.5658  -26.2255   23.3598 H   0  0  0  0  0  0
  -21.6633  -26.7443   22.1213 H   0  0  0  0  0  0
  -19.6905  -25.6294   21.1226 H   0  0  0  0  0  0
  -19.6681  -27.3196   20.6746 H   0  0  0  0  0  0
  -17.4186  -26.6662   21.4015 H   0  0  0  0  0  0
  -18.0318  -26.0047   22.9001 H   0  0  0  0  0  0
  -19.7926  -30.7233   24.2299 H   0  0  0  0  0  0
  -17.5011  -31.6262   24.5160 H   0  0  0  0  0  0
  -15.5342  -30.2995   23.7633 H   0  0  0  0  0  0
  -15.8653  -28.0825   22.7054 H   0  0  0  0  0  0
  -24.5928  -30.7018   25.7821 H   0  0  0  0  0  0
  -24.8936  -32.2829   26.4949 H   0  0  0  0  0  0
  -25.8126  -30.8844   27.0223 H   0  0  0  0  0  0
  -26.2823  -29.6810   24.1140 H   0  0  0  0  0  0
  -27.4138  -29.7290   25.4467 H   0  0  0  0  0  0
  -27.8622  -30.4393   23.9134 H   0  0  0  0  0  0
  -27.2683  -33.3593   26.2094 H   0  0  0  0  0  0
  -28.3847  -32.6884   25.0289 H   0  0  0  0  0  0
  -28.0743  -31.8400   26.5357 H   0  0  0  0  0  0
  -28.2608  -38.0108   24.7519 H   0  0  0  0  0  0
  -28.1072  -36.2637   24.6283 H   0  0  0  0  0  0
  -27.2300  -37.1460   25.8868 H   0  0  0  0  0  0
  -20.9275  -29.8756   21.6989 H   0  0  0  0  0  0
  -26.0189  -38.2879   24.1409 H   0  0  0  0  0  0
  -27.1621  -19.1026   22.5914 H   0  0  0  0  0  0
  -31.9130  -19.0568   21.5644 H   0  0  0  0  0  0
  -28.9346  -17.4140   17.5207 H   0  0  0  0  0  0
  -28.2729  -17.7188   19.1184 H   0  0  0  0  0  0
  -28.6155  -16.0693   18.5969 H   0  0  0  0  0  0
  -29.2235  -22.0007   23.7738 H   0  0  0  0  0  0
  -27.5882  -21.3830   23.6993 H   0  0  0  0  0  0
  -30.7726  -18.2287   18.9409 H   0  0  0  0  0  0
  -31.0494  -16.5749   18.5085 H   0  0  0  0  0  0
  -27.3209  -22.0903   21.3827 H   0  0  0  0  0  0
  -29.0520  -22.3029   21.1789 H   0  0  0  0  0  0
  -29.6475  -25.7945   21.3745 H   0  0  0  0  0  0
  -28.2525  -26.5015   22.1537 H   0  0  0  0  0  0
  -28.1564  -24.1549   20.1958 H   0  0  0  0  0  0
  -26.7705  -24.7486   21.0877 H   0  0  0  0  0  0
  -31.6537  -16.8559   20.8191 H   0  0  0  0  0  0
  -29.1127  -15.4318   21.2208 H   0  0  0  0  0  0
  1 25  1  0  0  0
  1 30  2  0  0  0
  1 84  1  0  0  0
  2  3  1  0  0  0
  2 25  1  0  0  0
  2 86  1  0  0  0
  2 87  1  0  0  0
  3  4  1  0  0  0
  3 88  1  0  0  0
  3 89  1  0  0  0
  4  5  1  0  0  0
  4 90  1  0  0  0
  4 91  1  0  0  0
  5  6  1  0  0  0
  5 26  1  0  0  0
  5 92  1  0  0  0
  6 25  1  0  0  0
  6 93  1  0  0  0
  6 94  1  0  0  0
  7  8  2  0  0  0
  7 26  1  0  0  0
  7 29  1  0  0  0
  8  9  1  0  0  0
  8 22  1  0  0  0
  9 10  1  0  0  0
  9 27  2  0  0  0
 10 11  2  0  0  0
 10 15  1  0  0  0
 11 12  1  0  0  0
 11 95  1  0  0  0
 12 13  2  0  0  0
 12 96  1  0  0  0
 13 14  1  0  0  0
 13 31  1  0  0  0
 14 15  2  0  0  0
 14 97  1  0  0  0
 15 98  1  0  0  0
 16 17  2  0  0  0
 16 21  1  0  0  0
 16 31  1  0  0  0
 17 18  1  0  0  0
 17 99  1  0  0  0
 18 19  2  0  0  0
 18100  1  0  0  0
 19 20  1  0  0  0
 19 24  1  0  0  0
 20 21  2  0  0  0
 20101  1  0  0  0
 21 23  1  0  0  0
 22 28  1  0  0  0
 22 32  2  0  0  0
 26 27  1  0  0  0
 28102  1  0  0  0
 28103  1  0  0  0
 29104  1  0  0  0
 29105  1  0  0  0
 33 34  1  0  0  0
 33 66  1  0  0  0
 33 70  2  0  0  0
 34 36  1  0  0  0
 34 59  1  0  0  0
 34106  1  0  0  0
 35 44  2  0  0  0
 35 45  1  0  0  0
 35 68  1  0  0  0
 36 56  1  0  0  0
 36107  1  0  0  0
 37 39  1  0  0  0
 37 47  1  0  0  0
 37 66  1  0  0  0
 37108  1  0  0  0
 38 43  2  0  0  0
 38 46  1  0  0  0
 38 47  1  0  0  0
 39 64  1  0  0  0
 39 67  2  0  0  0
 40 52  1  0  0  0
 40 53  2  0  0  0
 40 58  1  0  0  0
 41109  1  0  0  0
 41110  1  0  0  0
 41111  1  0  0  0
 41 48  1  0  0  0
 42 43  1  0  0  0
 42 66  1  0  0  0
 42112  1  0  0  0
 42113  1  0  0  0
 43 44  1  0  0  0
 44114  1  0  0  0
 45 46  2  0  0  0
 45115  1  0  0  0
 46116  1  0  0  0
 47117  1  0  0  0
 47118  1  0  0  0
 48 56  1  0  0  0
 48 65  1  0  0  0
 48119  1  0  0  0
 49 50  1  0  0  0
 49 53  1  0  0  0
 49 64  1  0  0  0
 49120  1  0  0  0
 50 51  1  0  0  0
 50121  1  0  0  0
 50122  1  0  0  0
 51 52  1  0  0  0
 51123  1  0  0  0
 51124  1  0  0  0
 52125  1  0  0  0
 52126  1  0  0  0
 53 54  1  0  0  0
 54 55  2  0  0  0
 54127  1  0  0  0
 55 57  1  0  0  0
 55128  1  0  0  0
 56 69  2  0  0  0
 57 58  2  0  0  0
 57129  1  0  0  0
 58130  1  0  0  0
 59 60  1  0  0  0
 59 61  1  0  0  0
 59 62  1  0  0  0
 60131  1  0  0  0
 60132  1  0  0  0
 60133  1  0  0  0
 61134  1  0  0  0
 61135  1  0  0  0
 61136  1  0  0  0
 62137  1  0  0  0
 62138  1  0  0  0
 62139  1  0  0  0
 63 65  1  0  0  0
 63140  1  0  0  0
 63141  1  0  0  0
 63142  1  0  0  0
 64143  1  0  0  0
 65144  1  0  0  0
 68 79  1  0  0  0
 71 73  2  0  0  0
 71 83  1  0  0  0
 71145  1  0  0  0
 72 74  1  0  0  0
 72 82  2  0  0  0
 72146  1  0  0  0
 73 76  1  0  0  0
 73 82  1  0  0  0
 74 81  1  0  0  0
 74 83  2  0  0  0
 75 77  1  0  0  0
 75147  1  0  0  0
 75148  1  0  0  0
 75149  1  0  0  0
 76 78  1  0  0  0
 76150  1  0  0  0
 76151  1  0  0  0
 77152  1  0  0  0
 77153  1  0  0  0
 77 81  1  0  0  0
 78 85  1  0  0  0
 78154  1  0  0  0
 78155  1  0  0  0
 79 80  1  0  0  0
 79156  1  0  0  0
 79157  1  0  0  0
 80 85  1  0  0  0
 80158  1  0  0  0
 80159  1  0  0  0
 81 84  1  0  0  0
 81160  1  0  0  0
 84161  1  0  0  0
M  ISO  4   1 100  68 101  79 101  84 100
M  END
> <chiral flag>
0

> <version>
0

> <s_m_source_file>
/data/baiqing/PycharmProjects/Reinvent-master-3.2/result/LINK_invent/BTK/process_docking_weight1_custom_sum_contain_oxygen_bond_distance_aromatic_linkinvent_7_9_3/rearranged_h_0070.sdf

> <i_m_source_file_index>
14

> <r_mmod_Potential_Energy-OPLS-2005>
-28.0857257843018

> <r_mmod_Stretch_Energy-OPLS-2005>
33.0857429504395

> <r_mmod_Bend_Energy-OPLS-2005>
89.8453826904297

> <r_mmod_Torsional_Energy-OPLS-2005>
228.525665283203

> <r_mmod_Improper_Torsional_Energy-OPLS-2005>
6.76007604598999

> <r_mmod_Van_der_Waal_Energy-OPLS-2005>
158.43717956543

> <r_mmod_Electrostatic_Energy-OPLS-2005>
-347.796783447266

> <r_mmod_Solvation_Energy-OPLS-2005>
-210.053039550781

> <b_mmod_Minimization_Converged-OPLS-2005>
0

> <r_mmod_RMS_Derivative-OPLS-2005>
0.84041965007782

$$$$
14
                    3D
 Structure written by MMmdl.
165173  0  0  1  0            999 V2000
  -30.6445  -14.6370   20.5217 C   0  0  0  0  0  0
  -30.4330  -12.3954   19.4668 C   0  0  0  0  0  0
  -29.5130  -12.5168   18.2333 C   0  0  0  0  0  0
  -28.0344  -12.3561   18.6356 C   0  0  0  0  0  0
  -27.6529  -13.2226   19.8661 C   0  0  2  0  0  0
  -28.6939  -13.0947   21.0025 C   0  0  0  0  0  0
  -25.2507  -13.8146   20.5599 C   0  0  0  0  0  0
  -24.1807  -13.0410   20.9168 C   0  0  0  0  0  0
  -24.6394  -11.6899   20.8719 C   0  0  0  0  0  0
  -23.9063  -10.4281   21.0370 C   0  0  0  0  0  0
  -24.3619   -9.4205   21.9147 C   0  0  0  0  0  0
  -23.6301   -8.2245   22.0742 C   0  0  0  0  0  0
  -22.4281   -8.0273   21.3542 C   0  0  0  0  0  0
  -21.9913   -9.0236   20.4638 C   0  0  0  0  0  0
  -22.7236  -10.2120   20.3031 C   0  0  0  0  0  0
  -21.6863   -6.0723   22.5265 C   0  0  0  0  0  0
  -21.4022   -6.5621   23.8197 C   0  0  0  0  0  0
  -21.3659   -5.6774   24.9158 C   0  0  0  0  0  0
  -21.6048   -4.3034   24.7205 C   0  0  0  0  0  0
  -21.8829   -3.8129   23.4320 C   0  0  0  0  0  0
  -21.9201   -4.6948   22.3385 C   0  0  0  0  0  0
  -22.7831  -13.5209   21.1818 C   0  0  0  0  0  0
  -22.1665   -4.2125   21.0965 F   0  0  0  0  0  0
  -21.5633   -3.4527   25.7714 F   0  0  0  0  0  0
  -30.0135  -13.4232   20.4427 N   0  0  0  0  0  0
  -26.2980  -12.9362   20.3327 N   0  0  0  0  0  0
  -25.9341  -11.6505   20.5774 N   0  0  0  0  0  0
  -22.0492  -12.8230   22.0403 N   0  0  0  0  0  0
  -25.4078  -15.1855   20.3803 N   0  0  0  0  0  0
  -31.7961  -14.7887   20.1052 O   0  0  0  0  0  0
  -21.6642   -6.8882   21.4238 O   0  0  0  0  0  0
  -22.3503  -14.5488   20.6621 O   0  0  0  0  0  0
  -24.6257  -31.8568   23.2020 C   0  0  0  0  0  0
  -25.9094  -32.4762   23.8354 C   0  0  1  0  0  0
  -27.2330  -27.3225   20.1169 C   0  0  0  0  0  0
  -25.5907  -33.8566   24.2279 N   0  0  0  0  0  0
  -23.4211  -30.4812   21.5406 C   0  0  2  0  0  0
  -24.8677  -28.9348   20.1093 C   0  0  0  0  0  0
  -22.7493  -29.4610   22.4899 C   0  0  0  0  0  0
  -18.0289  -28.1403   22.8470 C   0  0  0  0  0  0
  -24.1484  -36.7288   23.2648 C   0  0  0  0  0  0
  -25.9600  -30.7888   21.3738 C   0  0  0  0  0  0
  -26.0324  -29.4140   20.7222 C   0  0  0  0  0  0
  -27.2109  -28.6137   20.7279 C   0  0  0  0  0  0
  -26.0498  -26.9062   19.4596 C   0  0  0  0  0  0
  -24.8783  -27.6846   19.4747 C   0  0  0  0  0  0
  -23.6362  -29.8143   20.1559 C   0  0  0  0  0  0
  -25.4101  -36.3074   24.0350 C   0  0  1  0  0  0
  -20.5895  -28.3701   23.1254 C   0  0  2  0  0  0
  -20.6778  -26.9417   22.5399 C   0  0  0  0  0  0
  -19.5743  -26.6389   21.5210 C   0  0  0  0  0  0
  -18.1926  -26.7932   22.1624 C   0  0  0  0  0  0
  -19.1548  -28.8860   23.2854 C   0  0  0  0  0  0
  -18.9477  -30.1465   23.8876 C   0  0  0  0  0  0
  -17.6482  -30.6587   24.0575 C   0  0  0  0  0  0
  -25.9043  -34.9440   23.5109 C   0  0  0  0  0  0
  -16.5368  -29.9106   23.6325 C   0  0  0  0  0  0
  -16.7279  -28.6534   23.0324 C   0  0  0  0  0  0
  -26.4505  -31.6570   25.0707 C   0  0  0  0  0  0
  -25.3768  -31.3699   26.1457 C   0  0  0  0  0  0
  -27.0373  -30.3005   24.6153 C   0  0  0  0  0  0
  -27.6058  -32.4326   25.7449 C   0  0  0  0  0  0
  -27.5573  -37.1789   24.8472 C   0  0  0  0  0  0
  -21.4198  -29.3052   22.3647 N   0  0  0  0  0  0
  -26.4273  -37.3767   23.9434 N   0  0  0  0  0  0
  -24.6867  -31.0610   22.0956 N   0  0  0  0  0  0
  -23.4215  -28.8138   23.2964 O   0  0  0  0  0  0
  -28.3754  -26.5088   20.1968 O   0  0  0  0  0  0
  -26.5605  -34.8910   22.4679 O   0  0  0  0  0  0
  -23.5417  -32.1357   23.7364 O   0  0  0  0  0  0
  -28.2253  -21.6368   19.8859 C   0  0  0  0  0  0
  -29.0701  -22.4993   20.6548 C   0  0  0  0  0  0
  -29.2285  -19.7604   20.8494 C   0  0  0  0  0  0
  -25.7291  -22.0838   19.6086 C   0  0  0  0  0  0
  -29.1361  -24.9923   18.4897 C   0  0  0  0  0  0
  -27.6924  -17.7206   20.7965 C   0  0  0  0  0  0
  -29.1020  -18.1014   22.7781 C   0  0  0  0  0  0
  -27.1114  -22.0741   18.9452 C   0  0  0  0  0  0
  -28.9500  -24.0617   20.8853 C   0  0  0  0  0  0
  -30.1579  -17.1883   20.6400 C   0  0  0  0  0  0
  -28.3662  -25.0756   19.8176 C   0  0  1  0  0  0
  -29.0923  -18.2175   21.2351 C   0  0  0  0  0  0
  -28.3336  -20.2826   19.9935 N   0  0  0  0  0  0
  -30.0297  -21.8854   21.4115 N   0  0  0  0  0  0
  -30.1218  -20.5363   21.5026 N   0  0  0  0  0  0
  -29.8845  -15.7161   20.8815 N   0  0  0  0  0  0
  -31.4766  -12.5116   19.1693 H   0  0  0  0  0  0
  -30.3605  -11.4004   19.9071 H   0  0  0  0  0  0
  -29.7858  -11.7744   17.4829 H   0  0  0  0  0  0
  -29.6591  -13.4925   17.7670 H   0  0  0  0  0  0
  -27.8705  -11.3029   18.8599 H   0  0  0  0  0  0
  -27.3859  -12.5914   17.7897 H   0  0  0  0  0  0
  -27.6686  -14.2582   19.5255 H   0  0  0  0  0  0
  -28.7032  -12.0852   21.4122 H   0  0  0  0  0  0
  -28.4392  -13.7510   21.8352 H   0  0  0  0  0  0
  -25.2769   -9.5677   22.4711 H   0  0  0  0  0  0
  -23.9997   -7.4643   22.7479 H   0  0  0  0  0  0
  -21.0840   -8.8749   19.8960 H   0  0  0  0  0  0
  -22.3684  -10.9642   19.6126 H   0  0  0  0  0  0
  -21.2021   -7.6125   23.9698 H   0  0  0  0  0  0
  -21.1479   -6.0495   25.9064 H   0  0  0  0  0  0
  -22.0617   -2.7589   23.2816 H   0  0  0  0  0  0
  -22.4103  -11.9911   22.4833 H   0  0  0  0  0  0
  -21.1097  -13.1250   22.2574 H   0  0  0  0  0  0
  -24.6207  -15.8222   20.4379 H   0  0  0  0  0  0
  -26.2282  -15.6099   19.9707 H   0  0  0  0  0  0
  -26.7151  -32.5437   23.1098 H   0  0  0  0  0  0
  -25.0102  -33.9716   25.0455 H   0  0  0  0  0  0
  -22.7143  -31.3010   21.3968 H   0  0  0  0  0  0
  -23.3746  -35.9621   23.3293 H   0  0  0  0  0  0
  -24.3595  -36.8918   22.2068 H   0  0  0  0  0  0
  -23.7229  -37.6489   23.6665 H   0  0  0  0  0  0
  -26.0903  -31.5471   20.6001 H   0  0  0  0  0  0
  -26.8425  -30.8407   22.0006 H   0  0  0  0  0  0
  -28.0990  -28.9709   21.2319 H   0  0  0  0  0  0
  -25.9862  -25.9764   18.9188 H   0  0  0  0  0  0
  -23.9921  -27.3115   18.9787 H   0  0  0  0  0  0
  -23.7598  -30.5902   19.3989 H   0  0  0  0  0  0
  -22.7578  -29.2426   19.8490 H   0  0  0  0  0  0
  -25.1281  -36.1928   25.0843 H   0  0  0  0  0  0
  -20.9990  -28.3288   24.1373 H   0  0  0  0  0  0
  -20.5687  -26.2322   23.3616 H   0  0  0  0  0  0
  -21.6647  -26.7456   22.1188 H   0  0  0  0  0  0
  -19.6913  -25.6311   21.1209 H   0  0  0  0  0  0
  -19.6661  -27.3229   20.6763 H   0  0  0  0  0  0
  -17.4199  -26.6665   21.4024 H   0  0  0  0  0  0
  -18.0331  -26.0089   22.9034 H   0  0  0  0  0  0
  -19.7970  -30.7275   24.2217 H   0  0  0  0  0  0
  -17.5052  -31.6251   24.5207 H   0  0  0  0  0  0
  -15.5371  -30.3016   23.7647 H   0  0  0  0  0  0
  -15.8681  -28.0868   22.7013 H   0  0  0  0  0  0
  -24.5905  -30.7086   25.7799 H   0  0  0  0  0  0
  -24.9008  -32.2868   26.4941 H   0  0  0  0  0  0
  -25.8117  -30.8829   27.0196 H   0  0  0  0  0  0
  -26.2948  -29.6696   24.1240 H   0  0  0  0  0  0
  -27.4172  -29.7307   25.4648 H   0  0  0  0  0  0
  -27.8770  -30.4321   23.9321 H   0  0  0  0  0  0
  -27.2657  -33.3627   26.2022 H   0  0  0  0  0  0
  -28.3839  -32.6888   25.0241 H   0  0  0  0  0  0
  -28.0753  -31.8458   26.5357 H   0  0  0  0  0  0
  -28.2583  -38.0091   24.7531 H   0  0  0  0  0  0
  -28.1063  -36.2623   24.6265 H   0  0  0  0  0  0
  -27.2303  -37.1419   25.8875 H   0  0  0  0  0  0
  -20.9372  -29.8795   21.6880 H   0  0  0  0  0  0
  -26.0152  -38.2836   24.1454 H   0  0  0  0  0  0
  -24.9676  -22.4017   18.8967 H   0  0  0  0  0  0
  -25.6994  -22.7596   20.4637 H   0  0  0  0  0  0
  -25.4578  -21.0871   19.9568 H   0  0  0  0  0  0
  -29.2851  -23.9647   18.1604 H   0  0  0  0  0  0
  -30.1259  -25.4372   18.5891 H   0  0  0  0  0  0
  -28.6127  -25.5184   17.6915 H   0  0  0  0  0  0
  -26.9007  -18.3733   21.1652 H   0  0  0  0  0  0
  -27.4690  -16.7261   21.1734 H   0  0  0  0  0  0
  -27.6107  -17.6954   19.7094 H   0  0  0  0  0  0
  -28.3229  -18.7163   23.2303 H   0  0  0  0  0  0
  -30.0548  -18.4302   23.1929 H   0  0  0  0  0  0
  -28.9456  -17.0784   23.1167 H   0  0  0  0  0  0
  -27.0892  -21.3743   18.1082 H   0  0  0  0  0  0
  -27.3162  -23.0232   18.4695 H   0  0  0  0  0  0
  -29.9448  -24.4202   21.1562 H   0  0  0  0  0  0
  -28.3570  -24.1751   21.7935 H   0  0  0  0  0  0
  -31.1503  -17.4374   21.0157 H   0  0  0  0  0  0
  -30.2046  -17.3395   19.5611 H   0  0  0  0  0  0
  -27.3495  -24.7314   19.6862 H   0  0  0  0  0  0
  -28.9607  -15.4971   21.2205 H   0  0  0  0  0  0
  1 25  1  0  0  0
  1 30  2  0  0  0
  1 86  1  0  0  0
  2  3  1  0  0  0
  2 25  1  0  0  0
  2 87  1  0  0  0
  2 88  1  0  0  0
  3  4  1  0  0  0
  3 89  1  0  0  0
  3 90  1  0  0  0
  4  5  1  0  0  0
  4 91  1  0  0  0
  4 92  1  0  0  0
  5  6  1  0  0  0
  5 26  1  0  0  0
  5 93  1  0  0  0
  6 25  1  0  0  0
  6 94  1  0  0  0
  6 95  1  0  0  0
  7  8  2  0  0  0
  7 26  1  0  0  0
  7 29  1  0  0  0
  8  9  1  0  0  0
  8 22  1  0  0  0
  9 10  1  0  0  0
  9 27  2  0  0  0
 10 11  2  0  0  0
 10 15  1  0  0  0
 11 12  1  0  0  0
 11 96  1  0  0  0
 12 13  2  0  0  0
 12 97  1  0  0  0
 13 14  1  0  0  0
 13 31  1  0  0  0
 14 15  2  0  0  0
 14 98  1  0  0  0
 15 99  1  0  0  0
 16 17  2  0  0  0
 16 21  1  0  0  0
 16 31  1  0  0  0
 17 18  1  0  0  0
 17100  1  0  0  0
 18 19  2  0  0  0
 18101  1  0  0  0
 19 20  1  0  0  0
 19 24  1  0  0  0
 20 21  2  0  0  0
 20102  1  0  0  0
 21 23  1  0  0  0
 22 28  1  0  0  0
 22 32  2  0  0  0
 26 27  1  0  0  0
 28103  1  0  0  0
 28104  1  0  0  0
 29105  1  0  0  0
 29106  1  0  0  0
 33 34  1  0  0  0
 33 66  1  0  0  0
 33 70  2  0  0  0
 34 36  1  0  0  0
 34 59  1  0  0  0
 34107  1  0  0  0
 35 44  2  0  0  0
 35 45  1  0  0  0
 35 68  1  0  0  0
 36 56  1  0  0  0
 36108  1  0  0  0
 37 39  1  0  0  0
 37 47  1  0  0  0
 37 66  1  0  0  0
 37109  1  0  0  0
 38 43  2  0  0  0
 38 46  1  0  0  0
 38 47  1  0  0  0
 39 64  1  0  0  0
 39 67  2  0  0  0
 40 52  1  0  0  0
 40 53  2  0  0  0
 40 58  1  0  0  0
 41110  1  0  0  0
 41111  1  0  0  0
 41112  1  0  0  0
 41 48  1  0  0  0
 42 43  1  0  0  0
 42 66  1  0  0  0
 42113  1  0  0  0
 42114  1  0  0  0
 43 44  1  0  0  0
 44115  1  0  0  0
 45 46  2  0  0  0
 45116  1  0  0  0
 46117  1  0  0  0
 47118  1  0  0  0
 47119  1  0  0  0
 48 56  1  0  0  0
 48 65  1  0  0  0
 48120  1  0  0  0
 49 50  1  0  0  0
 49 53  1  0  0  0
 49 64  1  0  0  0
 49121  1  0  0  0
 50 51  1  0  0  0
 50122  1  0  0  0
 50123  1  0  0  0
 51 52  1  0  0  0
 51124  1  0  0  0
 51125  1  0  0  0
 52126  1  0  0  0
 52127  1  0  0  0
 53 54  1  0  0  0
 54 55  2  0  0  0
 54128  1  0  0  0
 55 57  1  0  0  0
 55129  1  0  0  0
 56 69  2  0  0  0
 57 58  2  0  0  0
 57130  1  0  0  0
 58131  1  0  0  0
 59 60  1  0  0  0
 59 61  1  0  0  0
 59 62  1  0  0  0
 60132  1  0  0  0
 60133  1  0  0  0
 60134  1  0  0  0
 61135  1  0  0  0
 61136  1  0  0  0
 61137  1  0  0  0
 62138  1  0  0  0
 62139  1  0  0  0
 62140  1  0  0  0
 63 65  1  0  0  0
 63141  1  0  0  0
 63142  1  0  0  0
 63143  1  0  0  0
 64144  1  0  0  0
 65145  1  0  0  0
 68 81  1  0  0  0
 71 72  2  0  0  0
 71 78  1  0  0  0
 71 83  1  0  0  0
 72 79  1  0  0  0
 72 84  1  0  0  0
 73 82  1  0  0  0
 73 83  2  0  0  0
 73 85  1  0  0  0
 74 78  1  0  0  0
 74146  1  0  0  0
 74147  1  0  0  0
 74148  1  0  0  0
 75149  1  0  0  0
 75150  1  0  0  0
 75151  1  0  0  0
 75 81  1  0  0  0
 76152  1  0  0  0
 76153  1  0  0  0
 76154  1  0  0  0
 76 82  1  0  0  0
 77 82  1  0  0  0
 77155  1  0  0  0
 77156  1  0  0  0
 77157  1  0  0  0
 78158  1  0  0  0
 78159  1  0  0  0
 79 81  1  0  0  0
 79160  1  0  0  0
 79161  1  0  0  0
 80 82  1  0  0  0
 80 86  1  0  0  0
 80162  1  0  0  0
 80163  1  0  0  0
 81164  1  0  0  0
 84 85  2  0  0  0
 86165  1  0  0  0
M  ISO  4   1 100  68 101  81 101  86 100
M  END
> <chiral flag>
0

> <version>
0

> <s_m_source_file>
/data/baiqing/PycharmProjects/Reinvent-master-3.2/result/LINK_invent/BTK/process_docking_weight1_custom_sum_contain_oxygen_bond_distance_aromatic_linkinvent_7_9_3/rearranged_h_0070.sdf

> <i_m_source_file_index>
15

> <r_mmod_Potential_Energy-OPLS-2005>
26.5951766967773

> <r_mmod_Stretch_Energy-OPLS-2005>
89.4825134277344

> <r_mmod_Bend_Energy-OPLS-2005>
169.738525390625

> <r_mmod_Torsional_Energy-OPLS-2005>
204.499755859375

> <r_mmod_Improper_Torsional_Energy-OPLS-2005>
6.54988050460815

> <r_mmod_Van_der_Waal_Energy-OPLS-2005>
158.383590698242

> <r_mmod_Electrostatic_Energy-OPLS-2005>
-423.551940917969

> <r_mmod_Solvation_Energy-OPLS-2005>
-225.397125244141

> <b_mmod_Minimization_Converged-OPLS-2005>
0

> <r_mmod_RMS_Derivative-OPLS-2005>
3.10952067375183

$$$$
15
                    3D
 Structure written by MMmdl.
166174  0  0  1  0            999 V2000
  -30.7763  -14.3904   20.6576 C   0  0  0  0  0  0
  -30.4112  -12.2931   19.4095 C   0  0  0  0  0  0
  -29.4850  -12.5180   18.2005 C   0  0  0  0  0  0
  -28.0087  -12.3772   18.6154 C   0  0  0  0  0  0
  -27.6634  -13.2065   19.8799 C   0  0  2  0  0  0
  -28.7046  -12.9755   20.9993 C   0  0  0  0  0  0
  -25.2586  -13.8156   20.5682 C   0  0  0  0  0  0
  -24.1832  -13.0440   20.9171 C   0  0  0  0  0  0
  -24.6389  -11.6905   20.8744 C   0  0  0  0  0  0
  -23.9047  -10.4293   21.0410 C   0  0  0  0  0  0
  -24.3606   -9.4208   21.9180 C   0  0  0  0  0  0
  -23.6291   -8.2240   22.0749 C   0  0  0  0  0  0
  -22.4271   -8.0274   21.3542 C   0  0  0  0  0  0
  -21.9903   -9.0250   20.4650 C   0  0  0  0  0  0
  -22.7221  -10.2133   20.3058 C   0  0  0  0  0  0
  -21.6849   -6.0726   22.5273 C   0  0  0  0  0  0
  -21.4013   -6.5637   23.8208 C   0  0  0  0  0  0
  -21.3667   -5.6792   24.9171 C   0  0  0  0  0  0
  -21.6046   -4.3054   24.7220 C   0  0  0  0  0  0
  -21.8820   -3.8138   23.4342 C   0  0  0  0  0  0
  -21.9191   -4.6954   22.3399 C   0  0  0  0  0  0
  -22.7854  -13.5239   21.1837 C   0  0  0  0  0  0
  -22.1652   -4.2136   21.0977 F   0  0  0  0  0  0
  -21.5644   -3.4541   25.7736 F   0  0  0  0  0  0
  -30.0438  -13.2604   20.4554 N   0  0  0  0  0  0
  -26.3029  -12.9326   20.3395 N   0  0  0  0  0  0
  -25.9317  -11.6485   20.5791 N   0  0  0  0  0  0
  -22.0500  -12.8240   22.0409 N   0  0  0  0  0  0
  -25.4301  -15.1866   20.4060 N   0  0  0  0  0  0
  -31.8245  -14.6254   20.0479 O   0  0  0  0  0  0
  -21.6638   -6.8870   21.4236 O   0  0  0  0  0  0
  -22.3538  -14.5544   20.6690 O   0  0  0  0  0  0
  -24.6104  -31.8700   23.2139 C   0  0  0  0  0  0
  -25.9018  -32.4835   23.8415 C   0  0  1  0  0  0
  -27.2358  -27.4654   20.0795 C   0  0  0  0  0  0
  -25.5891  -33.8637   24.2345 N   0  0  0  0  0  0
  -23.3973  -30.4945   21.5527 C   0  0  2  0  0  0
  -24.8434  -28.9639   20.1156 C   0  0  0  0  0  0
  -22.7388  -29.4666   22.5001 C   0  0  0  0  0  0
  -18.0268  -28.1375   22.8491 C   0  0  0  0  0  0
  -24.1483  -36.7327   23.2638 C   0  0  0  0  0  0
  -25.9238  -30.8408   21.3659 C   0  0  0  0  0  0
  -26.0002  -29.4761   20.7160 C   0  0  0  0  0  0
  -27.1961  -28.7276   20.7089 C   0  0  0  0  0  0
  -26.0570  -26.9499   19.4962 C   0  0  0  0  0  0
  -24.8639  -27.6955   19.5097 C   0  0  0  0  0  0
  -23.6051  -29.8292   20.1655 C   0  0  0  0  0  0
  -25.4102  -36.3126   24.0342 C   0  0  1  0  0  0
  -20.5852  -28.3655   23.1332 C   0  0  2  0  0  0
  -20.6751  -26.9389   22.5440 C   0  0  0  0  0  0
  -19.5745  -26.6381   21.5220 C   0  0  0  0  0  0
  -18.1915  -26.7929   22.1609 C   0  0  0  0  0  0
  -19.1512  -28.8830   23.2911 C   0  0  0  0  0  0
  -18.9445  -30.1433   23.8925 C   0  0  0  0  0  0
  -17.6447  -30.6580   24.0568 C   0  0  0  0  0  0
  -25.9027  -34.9490   23.5142 C   0  0  0  0  0  0
  -16.5341  -29.9087   23.6323 C   0  0  0  0  0  0
  -16.7254  -28.6508   23.0340 C   0  0  0  0  0  0
  -26.4463  -31.6611   25.0734 C   0  0  0  0  0  0
  -25.3744  -31.3736   26.1501 C   0  0  0  0  0  0
  -27.0271  -30.3046   24.6106 C   0  0  0  0  0  0
  -27.6057  -32.4327   25.7471 C   0  0  0  0  0  0
  -27.5587  -37.1806   24.8455 C   0  0  0  0  0  0
  -21.4120  -29.3024   22.3740 N   0  0  0  0  0  0
  -26.4291  -37.3804   23.9412 N   0  0  0  0  0  0
  -24.6618  -31.0825   22.1028 N   0  0  0  0  0  0
  -23.4181  -28.8211   23.3028 O   0  0  0  0  0  0
  -28.4075  -26.7487   20.0766 O   0  0  0  0  0  0
  -26.5589  -34.8933   22.4700 O   0  0  0  0  0  0
  -23.5306  -32.1449   23.7551 O   0  0  0  0  0  0
  -29.3502  -19.6859   21.0870 C   0  0  0  0  0  0
  -27.5366  -18.2759   20.0223 C   0  0  0  0  0  0
  -31.3396  -15.5099   22.7214 C   0  0  0  0  0  0
  -29.5597  -23.8634   19.4002 C   0  0  0  0  0  0
  -30.7310  -22.8602   19.3586 C   0  0  0  0  0  0
  -30.0028  -25.2821   18.9882 C   0  0  0  0  0  0
  -29.9119  -17.3067   20.3283 C   0  0  0  0  0  0
  -30.3285  -21.3679   19.4362 C   0  0  0  0  0  0
  -29.4290  -16.3087   21.4157 C   0  0  0  0  0  0
  -28.8427  -26.2720   18.8073 C   0  0  0  0  0  0
  -29.0431  -18.5718   20.1157 C   0  0  2  0  0  0
  -29.1461  -19.6385   22.4021 N   0  0  0  0  0  0
  -29.5987  -20.8591   22.8576 N   0  0  0  0  0  0
  -30.0460  -21.5904   21.8799 N   0  0  0  0  0  0
  -29.8827  -20.8719   20.7367 N   0  0  0  0  0  0
  -30.3772  -15.2037   21.6603 N   0  0  0  0  0  0
  -31.4574  -12.3759   19.1067 H   0  0  0  0  0  0
  -30.2976  -11.2770   19.7930 H   0  0  0  0  0  0
  -29.7217  -11.8065   17.4081 H   0  0  0  0  0  0
  -29.6560  -13.5109   17.7828 H   0  0  0  0  0  0
  -27.8134  -11.3201   18.7997 H   0  0  0  0  0  0
  -27.3581  -12.6648   17.7884 H   0  0  0  0  0  0
  -27.7111  -14.2557   19.5896 H   0  0  0  0  0  0
  -28.6698  -11.9408   21.3432 H   0  0  0  0  0  0
  -28.4622  -13.5762   21.8765 H   0  0  0  0  0  0
  -25.2749   -9.5689   22.4758 H   0  0  0  0  0  0
  -24.0001   -7.4629   22.7468 H   0  0  0  0  0  0
  -21.0827   -8.8764   19.8966 H   0  0  0  0  0  0
  -22.3665  -10.9674   19.6178 H   0  0  0  0  0  0
  -21.2001   -7.6146   23.9700 H   0  0  0  0  0  0
  -21.1498   -6.0528   25.9076 H   0  0  0  0  0  0
  -22.0597   -2.7602   23.2837 H   0  0  0  0  0  0
  -22.4112  -11.9895   22.4793 H   0  0  0  0  0  0
  -21.1132  -13.1287   22.2643 H   0  0  0  0  0  0
  -24.6660  -15.8436   20.5155 H   0  0  0  0  0  0
  -26.2850  -15.6229   20.0889 H   0  0  0  0  0  0
  -26.7091  -32.5555   23.1183 H   0  0  0  0  0  0
  -25.0042  -33.9811   25.0491 H   0  0  0  0  0  0
  -22.6847  -31.3106   21.4163 H   0  0  0  0  0  0
  -23.3745  -35.9659   23.3306 H   0  0  0  0  0  0
  -24.3585  -36.8934   22.2052 H   0  0  0  0  0  0
  -23.7235  -37.6534   23.6647 H   0  0  0  0  0  0
  -26.0348  -31.6071   20.5976 H   0  0  0  0  0  0
  -26.8127  -30.8943   21.9827 H   0  0  0  0  0  0
  -28.0905  -29.1194   21.1736 H   0  0  0  0  0  0
  -26.0455  -25.9687   19.0441 H   0  0  0  0  0  0
  -23.9709  -27.2895   19.0556 H   0  0  0  0  0  0
  -23.7135  -30.6065   19.4077 H   0  0  0  0  0  0
  -22.7293  -29.2492   19.8686 H   0  0  0  0  0  0
  -25.1278  -36.1994   25.0834 H   0  0  0  0  0  0
  -20.9943  -28.3218   24.1453 H   0  0  0  0  0  0
  -20.5623  -26.2264   23.3628 H   0  0  0  0  0  0
  -21.6625  -26.7418   22.1251 H   0  0  0  0  0  0
  -19.6903  -25.6298   21.1234 H   0  0  0  0  0  0
  -19.6703  -27.3198   20.6760 H   0  0  0  0  0  0
  -17.4199  -26.6702   21.3991 H   0  0  0  0  0  0
  -18.0287  -26.0057   22.8983 H   0  0  0  0  0  0
  -19.7920  -30.7237   24.2306 H   0  0  0  0  0  0
  -17.5007  -31.6260   24.5169 H   0  0  0  0  0  0
  -15.5340  -30.2997   23.7635 H   0  0  0  0  0  0
  -15.8656  -28.0836   22.7037 H   0  0  0  0  0  0
  -24.5944  -30.7031   25.7880 H   0  0  0  0  0  0
  -24.8896  -32.2890   26.4903 H   0  0  0  0  0  0
  -25.8119  -30.8977   27.0285 H   0  0  0  0  0  0
  -26.2799  -29.6825   24.1163 H   0  0  0  0  0  0
  -27.4031  -29.7275   25.4564 H   0  0  0  0  0  0
  -27.8646  -30.4354   23.9249 H   0  0  0  0  0  0
  -27.2688  -33.3603   26.2110 H   0  0  0  0  0  0
  -28.3819  -32.6929   25.0264 H   0  0  0  0  0  0
  -28.0782  -31.8420   26.5328 H   0  0  0  0  0  0
  -28.2613  -38.0096   24.7506 H   0  0  0  0  0  0
  -28.1076  -36.2636   24.6261 H   0  0  0  0  0  0
  -27.2326  -37.1437   25.8864 H   0  0  0  0  0  0
  -20.9271  -29.8761   21.6983 H   0  0  0  0  0  0
  -26.0191  -38.2880   24.1432 H   0  0  0  0  0  0
  -26.9852  -19.1654   19.7170 H   0  0  0  0  0  0
  -27.1289  -17.9561   20.9816 H   0  0  0  0  0  0
  -27.3308  -17.4958   19.2897 H   0  0  0  0  0  0
  -30.8301  -15.7304   23.6596 H   0  0  0  0  0  0
  -31.9535  -16.3694   22.4490 H   0  0  0  0  0  0
  -32.0133  -14.6719   22.9108 H   0  0  0  0  0  0
  -29.1099  -23.8852   20.3937 H   0  0  0  0  0  0
  -28.7769  -23.5268   18.7189 H   0  0  0  0  0  0
  -31.4645  -23.1020   20.1288 H   0  0  0  0  0  0
  -31.2556  -22.9931   18.4111 H   0  0  0  0  0  0
  -30.5288  -25.2169   18.0353 H   0  0  0  0  0  0
  -30.7236  -25.6812   19.7028 H   0  0  0  0  0  0
  -29.9466  -16.7770   19.3757 H   0  0  0  0  0  0
  -30.9397  -17.6169   20.5253 H   0  0  0  0  0  0
  -31.1825  -20.7571   19.1418 H   0  0  0  0  0  0
  -29.5440  -21.1694   18.7054 H   0  0  0  0  0  0
  -28.4652  -15.8882   21.1306 H   0  0  0  0  0  0
  -29.2420  -16.8442   22.3474 H   0  0  0  0  0  0
  -28.0530  -25.7989   18.2241 H   0  0  0  0  0  0
  -29.1855  -27.1311   18.2286 H   0  0  0  0  0  0
  -29.3249  -18.9354   19.1280 H   0  0  0  0  0  0
  1 25  1  0  0  0
  1 30  2  0  0  0
  1 86  1  0  0  0
  2  3  1  0  0  0
  2 25  1  0  0  0
  2 87  1  0  0  0
  2 88  1  0  0  0
  3  4  1  0  0  0
  3 89  1  0  0  0
  3 90  1  0  0  0
  4  5  1  0  0  0
  4 91  1  0  0  0
  4 92  1  0  0  0
  5  6  1  0  0  0
  5 26  1  0  0  0
  5 93  1  0  0  0
  6 25  1  0  0  0
  6 94  1  0  0  0
  6 95  1  0  0  0
  7  8  2  0  0  0
  7 26  1  0  0  0
  7 29  1  0  0  0
  8  9  1  0  0  0
  8 22  1  0  0  0
  9 10  1  0  0  0
  9 27  2  0  0  0
 10 11  2  0  0  0
 10 15  1  0  0  0
 11 12  1  0  0  0
 11 96  1  0  0  0
 12 13  2  0  0  0
 12 97  1  0  0  0
 13 14  1  0  0  0
 13 31  1  0  0  0
 14 15  2  0  0  0
 14 98  1  0  0  0
 15 99  1  0  0  0
 16 17  2  0  0  0
 16 21  1  0  0  0
 16 31  1  0  0  0
 17 18  1  0  0  0
 17100  1  0  0  0
 18 19  2  0  0  0
 18101  1  0  0  0
 19 20  1  0  0  0
 19 24  1  0  0  0
 20 21  2  0  0  0
 20102  1  0  0  0
 21 23  1  0  0  0
 22 28  1  0  0  0
 22 32  2  0  0  0
 26 27  1  0  0  0
 28103  1  0  0  0
 28104  1  0  0  0
 29105  1  0  0  0
 29106  1  0  0  0
 33 34  1  0  0  0
 33 66  1  0  0  0
 33 70  2  0  0  0
 34 36  1  0  0  0
 34 59  1  0  0  0
 34107  1  0  0  0
 35 44  2  0  0  0
 35 45  1  0  0  0
 35 68  1  0  0  0
 36 56  1  0  0  0
 36108  1  0  0  0
 37 39  1  0  0  0
 37 47  1  0  0  0
 37 66  1  0  0  0
 37109  1  0  0  0
 38 43  2  0  0  0
 38 46  1  0  0  0
 38 47  1  0  0  0
 39 64  1  0  0  0
 39 67  2  0  0  0
 40 52  1  0  0  0
 40 53  2  0  0  0
 40 58  1  0  0  0
 41110  1  0  0  0
 41111  1  0  0  0
 41112  1  0  0  0
 41 48  1  0  0  0
 42 43  1  0  0  0
 42 66  1  0  0  0
 42113  1  0  0  0
 42114  1  0  0  0
 43 44  1  0  0  0
 44115  1  0  0  0
 45 46  2  0  0  0
 45116  1  0  0  0
 46117  1  0  0  0
 47118  1  0  0  0
 47119  1  0  0  0
 48 56  1  0  0  0
 48 65  1  0  0  0
 48120  1  0  0  0
 49 50  1  0  0  0
 49 53  1  0  0  0
 49 64  1  0  0  0
 49121  1  0  0  0
 50 51  1  0  0  0
 50122  1  0  0  0
 50123  1  0  0  0
 51 52  1  0  0  0
 51124  1  0  0  0
 51125  1  0  0  0
 52126  1  0  0  0
 52127  1  0  0  0
 53 54  1  0  0  0
 54 55  2  0  0  0
 54128  1  0  0  0
 55 57  1  0  0  0
 55129  1  0  0  0
 56 69  2  0  0  0
 57 58  2  0  0  0
 57130  1  0  0  0
 58131  1  0  0  0
 59 60  1  0  0  0
 59 61  1  0  0  0
 59 62  1  0  0  0
 60132  1  0  0  0
 60133  1  0  0  0
 60134  1  0  0  0
 61135  1  0  0  0
 61136  1  0  0  0
 61137  1  0  0  0
 62138  1  0  0  0
 62139  1  0  0  0
 62140  1  0  0  0
 63 65  1  0  0  0
 63141  1  0  0  0
 63142  1  0  0  0
 63143  1  0  0  0
 64144  1  0  0  0
 65145  1  0  0  0
 68 80  1  0  0  0
 71 81  1  0  0  0
 71 82  2  0  0  0
 71 85  1  0  0  0
 72146  1  0  0  0
 72147  1  0  0  0
 72148  1  0  0  0
 72 81  1  0  0  0
 73 86  1  0  0  0
 73149  1  0  0  0
 73150  1  0  0  0
 73151  1  0  0  0
 74 75  1  0  0  0
 74 76  1  0  0  0
 74152  1  0  0  0
 74153  1  0  0  0
 75 78  1  0  0  0
 75154  1  0  0  0
 75155  1  0  0  0
 76 80  1  0  0  0
 76156  1  0  0  0
 76157  1  0  0  0
 77 79  1  0  0  0
 77 81  1  0  0  0
 77158  1  0  0  0
 77159  1  0  0  0
 78 85  1  0  0  0
 78160  1  0  0  0
 78161  1  0  0  0
 79 86  1  0  0  0
 79162  1  0  0  0
 79163  1  0  0  0
 80164  1  0  0  0
 80165  1  0  0  0
 81166  1  0  0  0
 82 83  1  0  0  0
 83 84  2  0  0  0
 84 85  1  0  0  0
M  ISO  4   1 100  68 101  80 101  86 100
M  END
> <chiral flag>
0

> <version>
0

> <s_m_source_file>
/data/baiqing/PycharmProjects/Reinvent-master-3.2/result/LINK_invent/BTK/process_docking_weight1_custom_sum_contain_oxygen_bond_distance_aromatic_linkinvent_7_9_3/rearranged_h_0070.sdf

> <i_m_source_file_index>
16

> <r_mmod_Potential_Energy-OPLS-2005>
108.377838134766

> <r_mmod_Stretch_Energy-OPLS-2005>
34.4798965454102

> <r_mmod_Bend_Energy-OPLS-2005>
112.363250732422

> <r_mmod_Torsional_Energy-OPLS-2005>
300.001342773438

> <r_mmod_Improper_Torsional_Energy-OPLS-2005>
5.36153221130371

> <r_mmod_Van_der_Waal_Energy-OPLS-2005>
123.895515441895

> <r_mmod_Electrostatic_Energy-OPLS-2005>
-254.723541259766

> <r_mmod_Solvation_Energy-OPLS-2005>
-220.871978759766

> <b_mmod_Minimization_Converged-OPLS-2005>
0

> <r_mmod_RMS_Derivative-OPLS-2005>
1.32216823101044

$$$$
16
                    3D
 Structure written by MMmdl.
166174  0  0  1  0            999 V2000
  -30.7477  -14.3982   20.6390 C   0  0  0  0  0  0
  -30.4135  -12.2879   19.4055 C   0  0  0  0  0  0
  -29.4853  -12.5133   18.1967 C   0  0  0  0  0  0
  -28.0091  -12.3713   18.6127 C   0  0  0  0  0  0
  -27.6634  -13.2039   19.8758 C   0  0  2  0  0  0
  -28.7012  -12.9618   20.9938 C   0  0  0  0  0  0
  -25.2596  -13.8159   20.5671 C   0  0  0  0  0  0
  -24.1845  -13.0447   20.9167 C   0  0  0  0  0  0
  -24.6390  -11.6908   20.8725 C   0  0  0  0  0  0
  -23.9059  -10.4296   21.0404 C   0  0  0  0  0  0
  -24.3613   -9.4211   21.9183 C   0  0  0  0  0  0
  -23.6289   -8.2250   22.0759 C   0  0  0  0  0  0
  -22.4276   -8.0282   21.3548 C   0  0  0  0  0  0
  -21.9907   -9.0254   20.4650 C   0  0  0  0  0  0
  -22.7233  -10.2134   20.3052 C   0  0  0  0  0  0
  -21.6850   -6.0738   22.5284 C   0  0  0  0  0  0
  -21.4013   -6.5645   23.8216 C   0  0  0  0  0  0
  -21.3657   -5.6797   24.9179 C   0  0  0  0  0  0
  -21.6046   -4.3059   24.7229 C   0  0  0  0  0  0
  -21.8817   -3.8152   23.4348 C   0  0  0  0  0  0
  -21.9191   -4.6968   22.3406 C   0  0  0  0  0  0
  -22.7866  -13.5243   21.1830 C   0  0  0  0  0  0
  -22.1659   -4.2152   21.0982 F   0  0  0  0  0  0
  -21.5629   -3.4540   25.7741 F   0  0  0  0  0  0
  -30.0403  -13.2534   20.4507 N   0  0  0  0  0  0
  -26.3033  -12.9327   20.3364 N   0  0  0  0  0  0
  -25.9312  -11.6487   20.5748 N   0  0  0  0  0  0
  -22.0508  -12.8243   22.0386 N   0  0  0  0  0  0
  -25.4331  -15.1882   20.4091 N   0  0  0  0  0  0
  -31.8168  -14.6335   20.0686 O   0  0  0  0  0  0
  -21.6638   -6.8881   21.4246 O   0  0  0  0  0  0
  -22.3556  -14.5556   20.6684 O   0  0  0  0  0  0
  -24.6119  -31.8711   23.2109 C   0  0  0  0  0  0
  -25.9027  -32.4835   23.8401 C   0  0  1  0  0  0
  -27.2353  -27.4502   20.0926 C   0  0  0  0  0  0
  -25.5876  -33.8630   24.2337 N   0  0  0  0  0  0
  -23.3991  -30.4939   21.5513 C   0  0  2  0  0  0
  -24.8449  -28.9580   20.1182 C   0  0  0  0  0  0
  -22.7406  -29.4674   22.5005 C   0  0  0  0  0  0
  -18.0283  -28.1361   22.8505 C   0  0  0  0  0  0
  -24.1494  -36.7316   23.2636 C   0  0  0  0  0  0
  -25.9268  -30.8391   21.3649 C   0  0  0  0  0  0
  -26.0038  -29.4760   20.7091 C   0  0  0  0  0  0
  -27.2016  -28.7299   20.6888 C   0  0  0  0  0  0
  -26.0572  -26.9391   19.5022 C   0  0  0  0  0  0
  -24.8656  -27.6885   19.5132 C   0  0  0  0  0  0
  -23.6066  -29.8228   20.1671 C   0  0  0  0  0  0
  -25.4114  -36.3122   24.0343 C   0  0  1  0  0  0
  -20.5870  -28.3654   23.1329 C   0  0  2  0  0  0
  -20.6781  -26.9397   22.5411 C   0  0  0  0  0  0
  -19.5753  -26.6382   21.5209 C   0  0  0  0  0  0
  -18.1932  -26.7908   22.1628 C   0  0  0  0  0  0
  -19.1529  -28.8824   23.2916 C   0  0  0  0  0  0
  -18.9455  -30.1428   23.8929 C   0  0  0  0  0  0
  -17.6459  -30.6580   24.0558 C   0  0  0  0  0  0
  -25.9031  -34.9483   23.5143 C   0  0  0  0  0  0
  -16.5351  -29.9076   23.6317 C   0  0  0  0  0  0
  -16.7271  -28.6481   23.0360 C   0  0  0  0  0  0
  -26.4451  -31.6603   25.0723 C   0  0  0  0  0  0
  -25.3695  -31.3703   26.1452 C   0  0  0  0  0  0
  -27.0280  -30.3047   24.6088 C   0  0  0  0  0  0
  -27.6046  -32.4303   25.7469 C   0  0  0  0  0  0
  -27.5593  -37.1817   24.8465 C   0  0  0  0  0  0
  -21.4139  -29.3027   22.3738 N   0  0  0  0  0  0
  -26.4315  -37.3797   23.9402 N   0  0  0  0  0  0
  -24.6636  -31.0830   22.0997 N   0  0  0  0  0  0
  -23.4196  -28.8227   23.3045 O   0  0  0  0  0  0
  -28.4253  -26.7563   20.0906 O   0  0  0  0  0  0
  -26.5610  -34.8934   22.4716 O   0  0  0  0  0  0
  -23.5320  -32.1455   23.7522 O   0  0  0  0  0  0
  -27.5925  -21.7105   22.7212 C   0  0  0  0  0  0
  -27.6019  -20.3207   22.5001 C   0  0  0  0  0  0
  -28.5897  -22.4794   22.0903 C   0  0  0  0  0  0
  -28.6060  -19.7927   21.6621 C   0  0  0  0  0  0
  -28.8746  -17.8916   20.0179 C   0  0  0  0  0  0
  -30.7356  -18.6492   23.1859 C   0  0  0  0  0  0
  -29.0654  -16.8721   23.6206 C   0  0  0  0  0  0
  -28.7602  -23.9518   22.4342 C   0  0  0  0  0  0
  -27.8694  -24.9368   21.6522 C   0  0  0  0  0  0
  -30.8003  -16.5852   21.8087 C   0  0  0  0  0  0
  -28.3913  -25.3328   20.2533 C   0  0  0  0  0  0
  -28.7691  -18.2703   21.5106 C   0  0  1  0  0  0
  -29.8305  -17.6010   22.4904 C   0  0  0  0  0  0
  -29.4926  -21.9273   21.2410 N   0  0  0  0  0  0
  -29.5050  -20.6022   21.0362 N   0  0  0  0  0  0
  -30.1959  -15.2948   21.4669 N   0  0  0  0  0  0
  -31.4590  -12.3773   19.1046 H   0  0  0  0  0  0
  -30.3033  -11.2710   19.7856 H   0  0  0  0  0  0
  -29.7196  -11.8016   17.4042 H   0  0  0  0  0  0
  -29.6565  -13.5062   17.7779 H   0  0  0  0  0  0
  -27.8193  -11.3143   18.8025 H   0  0  0  0  0  0
  -27.3557  -12.6513   17.7857 H   0  0  0  0  0  0
  -27.7168  -14.2550   19.5915 H   0  0  0  0  0  0
  -28.6663  -11.9212   21.3206 H   0  0  0  0  0  0
  -28.4549  -13.5476   21.8799 H   0  0  0  0  0  0
  -25.2758   -9.5695   22.4752 H   0  0  0  0  0  0
  -24.0002   -7.4646   22.7480 H   0  0  0  0  0  0
  -21.0835   -8.8765   19.8952 H   0  0  0  0  0  0
  -22.3686  -10.9671   19.6157 H   0  0  0  0  0  0
  -21.2004   -7.6150   23.9721 H   0  0  0  0  0  0
  -21.1482   -6.0527   25.9083 H   0  0  0  0  0  0
  -22.0598   -2.7612   23.2848 H   0  0  0  0  0  0
  -22.4117  -11.9892   22.4764 H   0  0  0  0  0  0
  -21.1126  -13.1269   22.2591 H   0  0  0  0  0  0
  -24.6666  -15.8434   20.5146 H   0  0  0  0  0  0
  -26.2881  -15.6251   20.0896 H   0  0  0  0  0  0
  -26.7104  -32.5553   23.1168 H   0  0  0  0  0  0
  -25.0003  -33.9784   25.0465 H   0  0  0  0  0  0
  -22.6855  -31.3088   21.4126 H   0  0  0  0  0  0
  -23.3760  -35.9643   23.3306 H   0  0  0  0  0  0
  -24.3585  -36.8909   22.2048 H   0  0  0  0  0  0
  -23.7243  -37.6521   23.6647 H   0  0  0  0  0  0
  -26.0442  -31.6096   20.6021 H   0  0  0  0  0  0
  -26.8120  -30.8871   21.9874 H   0  0  0  0  0  0
  -28.0992  -29.1253   21.1441 H   0  0  0  0  0  0
  -26.0450  -25.9732   19.0201 H   0  0  0  0  0  0
  -23.9738  -27.2851   19.0527 H   0  0  0  0  0  0
  -23.7131  -30.5955   19.4044 H   0  0  0  0  0  0
  -22.7320  -29.2380   19.8755 H   0  0  0  0  0  0
  -25.1290  -36.2007   25.0837 H   0  0  0  0  0  0
  -20.9968  -28.3228   24.1448 H   0  0  0  0  0  0
  -20.5701  -26.2256   23.3593 H   0  0  0  0  0  0
  -21.6651  -26.7460   22.1188 H   0  0  0  0  0  0
  -19.6914  -25.6298   21.1217 H   0  0  0  0  0  0
  -19.6690  -27.3215   20.6755 H   0  0  0  0  0  0
  -17.4202  -26.6672   21.4025 H   0  0  0  0  0  0
  -18.0332  -26.0032   22.9008 H   0  0  0  0  0  0
  -19.7936  -30.7223   24.2324 H   0  0  0  0  0  0
  -17.5022  -31.6267   24.5149 H   0  0  0  0  0  0
  -15.5349  -30.2995   23.7611 H   0  0  0  0  0  0
  -15.8669  -28.0797   22.7078 H   0  0  0  0  0  0
  -24.5873  -30.7062   25.7754 H   0  0  0  0  0  0
  -24.8871  -32.2853   26.4907 H   0  0  0  0  0  0
  -25.8005  -30.8848   27.0213 H   0  0  0  0  0  0
  -26.2835  -29.6825   24.1108 H   0  0  0  0  0  0
  -27.4015  -29.7271   25.4554 H   0  0  0  0  0  0
  -27.8685  -30.4360   23.9263 H   0  0  0  0  0  0
  -27.2695  -33.3601   26.2080 H   0  0  0  0  0  0
  -28.3828  -32.6857   25.0262 H   0  0  0  0  0  0
  -28.0746  -31.8395   26.5340 H   0  0  0  0  0  0
  -28.2619  -38.0112   24.7519 H   0  0  0  0  0  0
  -28.1088  -36.2642   24.6297 H   0  0  0  0  0  0
  -27.2307  -37.1460   25.8868 H   0  0  0  0  0  0
  -20.9313  -29.8714   21.6923 H   0  0  0  0  0  0
  -26.0216  -38.2884   24.1376 H   0  0  0  0  0  0
  -26.8793  -22.1641   23.3944 H   0  0  0  0  0  0
  -26.8944  -19.6771   23.0030 H   0  0  0  0  0  0
  -28.0574  -18.3397   19.4529 H   0  0  0  0  0  0
  -28.8079  -16.8170   19.8615 H   0  0  0  0  0  0
  -29.8060  -18.2446   19.5757 H   0  0  0  0  0  0
  -31.4338  -18.1816   23.8810 H   0  0  0  0  0  0
  -30.1629  -19.3710   23.7698 H   0  0  0  0  0  0
  -31.3352  -19.2045   22.4638 H   0  0  0  0  0  0
  -29.7472  -16.3568   24.2978 H   0  0  0  0  0  0
  -28.3649  -16.1302   23.2370 H   0  0  0  0  0  0
  -28.4850  -17.5734   24.2205 H   0  0  0  0  0  0
  -29.8100  -24.2305   22.3339 H   0  0  0  0  0  0
  -28.5416  -24.0570   23.4973 H   0  0  0  0  0  0
  -27.8256  -25.8431   22.2576 H   0  0  0  0  0  0
  -26.8416  -24.5774   21.5988 H   0  0  0  0  0  0
  -31.6264  -16.3554   22.4843 H   0  0  0  0  0  0
  -31.2694  -17.0374   20.9331 H   0  0  0  0  0  0
  -27.8346  -24.8335   19.4611 H   0  0  0  0  0  0
  -29.4192  -24.9886   20.1365 H   0  0  0  0  0  0
  -27.7927  -17.8705   21.7896 H   0  0  0  0  0  0
  -29.3220  -15.0496   21.9056 H   0  0  0  0  0  0
  1 25  1  0  0  0
  1 30  2  0  0  0
  1 86  1  0  0  0
  2  3  1  0  0  0
  2 25  1  0  0  0
  2 87  1  0  0  0
  2 88  1  0  0  0
  3  4  1  0  0  0
  3 89  1  0  0  0
  3 90  1  0  0  0
  4  5  1  0  0  0
  4 91  1  0  0  0
  4 92  1  0  0  0
  5  6  1  0  0  0
  5 26  1  0  0  0
  5 93  1  0  0  0
  6 25  1  0  0  0
  6 94  1  0  0  0
  6 95  1  0  0  0
  7  8  2  0  0  0
  7 26  1  0  0  0
  7 29  1  0  0  0
  8  9  1  0  0  0
  8 22  1  0  0  0
  9 10  1  0  0  0
  9 27  2  0  0  0
 10 11  2  0  0  0
 10 15  1  0  0  0
 11 12  1  0  0  0
 11 96  1  0  0  0
 12 13  2  0  0  0
 12 97  1  0  0  0
 13 14  1  0  0  0
 13 31  1  0  0  0
 14 15  2  0  0  0
 14 98  1  0  0  0
 15 99  1  0  0  0
 16 17  2  0  0  0
 16 21  1  0  0  0
 16 31  1  0  0  0
 17 18  1  0  0  0
 17100  1  0  0  0
 18 19  2  0  0  0
 18101  1  0  0  0
 19 20  1  0  0  0
 19 24  1  0  0  0
 20 21  2  0  0  0
 20102  1  0  0  0
 21 23  1  0  0  0
 22 28  1  0  0  0
 22 32  2  0  0  0
 26 27  1  0  0  0
 28103  1  0  0  0
 28104  1  0  0  0
 29105  1  0  0  0
 29106  1  0  0  0
 33 34  1  0  0  0
 33 66  1  0  0  0
 33 70  2  0  0  0
 34 36  1  0  0  0
 34 59  1  0  0  0
 34107  1  0  0  0
 35 44  2  0  0  0
 35 45  1  0  0  0
 35 68  1  0  0  0
 36 56  1  0  0  0
 36108  1  0  0  0
 37 39  1  0  0  0
 37 47  1  0  0  0
 37 66  1  0  0  0
 37109  1  0  0  0
 38 43  2  0  0  0
 38 46  1  0  0  0
 38 47  1  0  0  0
 39 64  1  0  0  0
 39 67  2  0  0  0
 40 52  1  0  0  0
 40 53  2  0  0  0
 40 58  1  0  0  0
 41110  1  0  0  0
 41111  1  0  0  0
 41112  1  0  0  0
 41 48  1  0  0  0
 42 43  1  0  0  0
 42 66  1  0  0  0
 42113  1  0  0  0
 42114  1  0  0  0
 43 44  1  0  0  0
 44115  1  0  0  0
 45 46  2  0  0  0
 45116  1  0  0  0
 46117  1  0  0  0
 47118  1  0  0  0
 47119  1  0  0  0
 48 56  1  0  0  0
 48 65  1  0  0  0
 48120  1  0  0  0
 49 50  1  0  0  0
 49 53  1  0  0  0
 49 64  1  0  0  0
 49121  1  0  0  0
 50 51  1  0  0  0
 50122  1  0  0  0
 50123  1  0  0  0
 51 52  1  0  0  0
 51124  1  0  0  0
 51125  1  0  0  0
 52126  1  0  0  0
 52127  1  0  0  0
 53 54  1  0  0  0
 54 55  2  0  0  0
 54128  1  0  0  0
 55 57  1  0  0  0
 55129  1  0  0  0
 56 69  2  0  0  0
 57 58  2  0  0  0
 57130  1  0  0  0
 58131  1  0  0  0
 59 60  1  0  0  0
 59 61  1  0  0  0
 59 62  1  0  0  0
 60132  1  0  0  0
 60133  1  0  0  0
 60134  1  0  0  0
 61135  1  0  0  0
 61136  1  0  0  0
 61137  1  0  0  0
 62138  1  0  0  0
 62139  1  0  0  0
 62140  1  0  0  0
 63 65  1  0  0  0
 63141  1  0  0  0
 63142  1  0  0  0
 63143  1  0  0  0
 64144  1  0  0  0
 65145  1  0  0  0
 68 81  1  0  0  0
 71 72  2  0  0  0
 71 73  1  0  0  0
 71146  1  0  0  0
 72 74  1  0  0  0
 72147  1  0  0  0
 73 78  1  0  0  0
 73 84  2  0  0  0
 74 82  1  0  0  0
 74 85  2  0  0  0
 75148  1  0  0  0
 75149  1  0  0  0
 75150  1  0  0  0
 75 82  1  0  0  0
 76151  1  0  0  0
 76152  1  0  0  0
 76153  1  0  0  0
 76 83  1  0  0  0
 77 83  1  0  0  0
 77154  1  0  0  0
 77155  1  0  0  0
 77156  1  0  0  0
 78 79  1  0  0  0
 78157  1  0  0  0
 78158  1  0  0  0
 79 81  1  0  0  0
 79159  1  0  0  0
 79160  1  0  0  0
 80 83  1  0  0  0
 80 86  1  0  0  0
 80161  1  0  0  0
 80162  1  0  0  0
 81163  1  0  0  0
 81164  1  0  0  0
 82 83  1  0  0  0
 82165  1  0  0  0
 84 85  1  0  0  0
 86166  1  0  0  0
M  ISO  4   1 100  68 101  81 101  86 100
M  END
> <chiral flag>
0

> <version>
0

> <s_m_source_file>
/data/baiqing/PycharmProjects/Reinvent-master-3.2/result/LINK_invent/BTK/process_docking_weight1_custom_sum_contain_oxygen_bond_distance_aromatic_linkinvent_7_9_3/rearranged_h_0070.sdf

> <i_m_source_file_index>
17

> <r_mmod_Potential_Energy-OPLS-2005>
-69.3087615966797

> <r_mmod_Stretch_Energy-OPLS-2005>
41.5707359313965

> <r_mmod_Bend_Energy-OPLS-2005>
114.880752563477

> <r_mmod_Torsional_Energy-OPLS-2005>
215.623046875

> <r_mmod_Improper_Torsional_Energy-OPLS-2005>
2.33156991004944

> <r_mmod_Van_der_Waal_Energy-OPLS-2005>
164.799789428711

> <r_mmod_Electrostatic_Energy-OPLS-2005>
-395.67626953125

> <r_mmod_Solvation_Energy-OPLS-2005>
-221.072357177734

> <b_mmod_Minimization_Converged-OPLS-2005>
0

> <r_mmod_RMS_Derivative-OPLS-2005>
1.29789781570435

$$$$
17
                    3D
 Structure written by MMmdl.
156164  0  0  1  0            999 V2000
  -30.6953  -14.5063   20.5267 C   0  0  0  0  0  0
  -30.4148  -12.3167   19.4404 C   0  0  0  0  0  0
  -29.4931  -12.4974   18.2165 C   0  0  0  0  0  0
  -28.0156  -12.3543   18.6278 C   0  0  0  0  0  0
  -27.6541  -13.2135   19.8695 C   0  0  2  0  0  0
  -28.6955  -13.0402   20.9992 C   0  0  0  0  0  0
  -25.2554  -13.8180   20.5683 C   0  0  0  0  0  0
  -24.1821  -13.0444   20.9188 C   0  0  0  0  0  0
  -24.6384  -11.6913   20.8741 C   0  0  0  0  0  0
  -23.9055  -10.4300   21.0414 C   0  0  0  0  0  0
  -24.3612   -9.4216   21.9190 C   0  0  0  0  0  0
  -23.6290   -8.2249   22.0755 C   0  0  0  0  0  0
  -22.4272   -8.0284   21.3551 C   0  0  0  0  0  0
  -21.9909   -9.0257   20.4651 C   0  0  0  0  0  0
  -22.7230  -10.2141   20.3064 C   0  0  0  0  0  0
  -21.6856   -6.0732   22.5279 C   0  0  0  0  0  0
  -21.4014   -6.5634   23.8213 C   0  0  0  0  0  0
  -21.3664   -5.6785   24.9175 C   0  0  0  0  0  0
  -21.6049   -4.3049   24.7228 C   0  0  0  0  0  0
  -21.8820   -3.8141   23.4349 C   0  0  0  0  0  0
  -21.9198   -4.6958   22.3406 C   0  0  0  0  0  0
  -22.7847  -13.5233   21.1855 C   0  0  0  0  0  0
  -22.1666   -4.2141   21.0985 F   0  0  0  0  0  0
  -21.5633   -3.4538   25.7745 F   0  0  0  0  0  0
  -30.0238  -13.3270   20.4383 N   0  0  0  0  0  0
  -26.2982  -12.9359   20.3345 N   0  0  0  0  0  0
  -25.9308  -11.6513   20.5761 N   0  0  0  0  0  0
  -22.0505  -12.8220   22.0422 N   0  0  0  0  0  0
  -25.4270  -15.1901   20.4079 N   0  0  0  0  0  0
  -31.8521  -14.6388   20.1178 O   0  0  0  0  0  0
  -21.6643   -6.8878   21.4243 O   0  0  0  0  0  0
  -22.3529  -14.5541   20.6707 O   0  0  0  0  0  0
  -24.6150  -31.8672   23.2078 C   0  0  0  0  0  0
  -25.9041  -32.4817   23.8377 C   0  0  1  0  0  0
  -27.2293  -27.4215   20.1087 C   0  0  0  0  0  0
  -25.5891  -33.8612   24.2314 N   0  0  0  0  0  0
  -23.4030  -30.4902   21.5485 C   0  0  2  0  0  0
  -24.8496  -28.9545   20.1124 C   0  0  0  0  0  0
  -22.7418  -29.4653   22.4979 C   0  0  0  0  0  0
  -18.0272  -28.1381   22.8492 C   0  0  0  0  0  0
  -24.1489  -36.7323   23.2635 C   0  0  0  0  0  0
  -25.9319  -30.8320   21.3596 C   0  0  0  0  0  0
  -26.0100  -29.4649   20.7084 C   0  0  0  0  0  0
  -27.2053  -28.7081   20.6972 C   0  0  0  0  0  0
  -26.0553  -26.9307   19.4983 C   0  0  0  0  0  0
  -24.8684  -27.6888   19.5003 C   0  0  0  0  0  0
  -23.6112  -29.8218   20.1628 C   0  0  0  0  0  0
  -25.4110  -36.3110   24.0335 C   0  0  1  0  0  0
  -20.5865  -28.3666   23.1320 C   0  0  2  0  0  0
  -20.6768  -26.9401   22.5419 C   0  0  0  0  0  0
  -19.5746  -26.6388   21.5218 C   0  0  0  0  0  0
  -18.1922  -26.7927   22.1627 C   0  0  0  0  0  0
  -19.1521  -28.8842   23.2900 C   0  0  0  0  0  0
  -18.9450  -30.1447   23.8908 C   0  0  0  0  0  0
  -17.6452  -30.6583   24.0569 C   0  0  0  0  0  0
  -25.9038  -34.9473   23.5127 C   0  0  0  0  0  0
  -16.5343  -29.9087   23.6324 C   0  0  0  0  0  0
  -16.7259  -28.6509   23.0339 C   0  0  0  0  0  0
  -26.4466  -31.6589   25.0700 C   0  0  0  0  0  0
  -25.3730  -31.3685   26.1449 C   0  0  0  0  0  0
  -27.0289  -30.3034   24.6057 C   0  0  0  0  0  0
  -27.6047  -32.4300   25.7462 C   0  0  0  0  0  0
  -27.5580  -37.1815   24.8463 C   0  0  0  0  0  0
  -21.4144  -29.3032   22.3731 N   0  0  0  0  0  0
  -26.4299  -37.3792   23.9404 N   0  0  0  0  0  0
  -24.6684  -31.0771   22.0977 N   0  0  0  0  0  0
  -23.4195  -28.8201   23.3022 O   0  0  0  0  0  0
  -28.3855  -26.6675   20.1251 O   0  0  0  0  0  0
  -26.5603  -34.8926   22.4689 O   0  0  0  0  0  0
  -23.5344  -32.1418   23.7484 O   0  0  0  0  0  0
  -29.5515  -21.8581   19.6103 C   0  0  0  0  0  0
  -27.6028  -22.2092   20.4829 C   0  0  0  0  0  0
  -29.0121  -20.6430   19.9921 C   0  0  0  0  0  0
  -28.8692  -18.8034   18.3131 C   0  0  0  0  0  0
  -29.3892  -18.1329   20.7190 C   0  0  0  0  0  0
  -28.7012  -24.2780   19.5060 C   0  0  0  0  0  0
  -30.4142  -16.9690   20.5153 C   0  0  0  0  0  0
  -28.2604  -25.3012   20.5814 C   0  0  0  0  0  0
  -29.5222  -19.2517   19.6331 C   0  0  2  0  0  0
  -27.7578  -20.8844   20.5564 N   0  0  0  0  0  0
  -28.6216  -22.8603   19.8977 N   0  0  0  0  0  0
  -29.9683  -15.5986   20.8575 N   0  0  0  0  0  0
  -31.4610  -12.4035   19.1403 H   0  0  0  0  0  0
  -30.3081  -11.3148   19.8596 H   0  0  0  0  0  0
  -29.7386  -11.7643   17.4470 H   0  0  0  0  0  0
  -29.6575  -13.4790   17.7688 H   0  0  0  0  0  0
  -27.8320  -11.3000   18.8392 H   0  0  0  0  0  0
  -27.3647  -12.6121   17.7915 H   0  0  0  0  0  0
  -27.6838  -14.2538   19.5451 H   0  0  0  0  0  0
  -28.6726  -12.0215   21.3882 H   0  0  0  0  0  0
  -28.4624  -13.6883   21.8461 H   0  0  0  0  0  0
  -25.2767   -9.5690   22.4753 H   0  0  0  0  0  0
  -24.0009   -7.4636   22.7459 H   0  0  0  0  0  0
  -21.0847   -8.8772   19.8948 H   0  0  0  0  0  0
  -22.3691  -10.9678   19.6165 H   0  0  0  0  0  0
  -21.2000   -7.6141   23.9714 H   0  0  0  0  0  0
  -21.1487   -6.0519   25.9078 H   0  0  0  0  0  0
  -22.0599   -2.7603   23.2854 H   0  0  0  0  0  0
  -22.4118  -11.9860   22.4774 H   0  0  0  0  0  0
  -21.1137  -13.1257   22.2661 H   0  0  0  0  0  0
  -24.6579  -15.8446   20.5037 H   0  0  0  0  0  0
  -26.2759  -15.6264   20.0714 H   0  0  0  0  0  0
  -26.7112  -32.5526   23.1139 H   0  0  0  0  0  0
  -25.0041  -33.9776   25.0459 H   0  0  0  0  0  0
  -22.6910  -31.3066   21.4102 H   0  0  0  0  0  0
  -23.3744  -35.9664   23.3309 H   0  0  0  0  0  0
  -24.3575  -36.8930   22.2045 H   0  0  0  0  0  0
  -23.7260  -37.6537   23.6646 H   0  0  0  0  0  0
  -26.0419  -31.5965   20.5890 H   0  0  0  0  0  0
  -26.8216  -30.8883   21.9742 H   0  0  0  0  0  0
  -28.1012  -29.0984   21.1600 H   0  0  0  0  0  0
  -26.0537  -25.9615   19.0196 H   0  0  0  0  0  0
  -23.9784  -27.2936   19.0296 H   0  0  0  0  0  0
  -23.7176  -30.5966   19.4027 H   0  0  0  0  0  0
  -22.7355  -29.2403   19.8688 H   0  0  0  0  0  0
  -25.1291  -36.1971   25.0830 H   0  0  0  0  0  0
  -20.9949  -28.3231   24.1446 H   0  0  0  0  0  0
  -20.5688  -26.2269   23.3603 H   0  0  0  0  0  0
  -21.6641  -26.7460   22.1205 H   0  0  0  0  0  0
  -19.6910  -25.6305   21.1233 H   0  0  0  0  0  0
  -19.6688  -27.3217   20.6765 H   0  0  0  0  0  0
  -17.4197  -26.6671   21.4021 H   0  0  0  0  0  0
  -18.0320  -26.0065   22.9022 H   0  0  0  0  0  0
  -19.7923  -30.7260   24.2279 H   0  0  0  0  0  0
  -17.5005  -31.6263   24.5174 H   0  0  0  0  0  0
  -15.5343  -30.2993   23.7640 H   0  0  0  0  0  0
  -15.8661  -28.0837   22.7036 H   0  0  0  0  0  0
  -24.5912  -30.7024   25.7781 H   0  0  0  0  0  0
  -24.8911  -32.2833   26.4902 H   0  0  0  0  0  0
  -25.8083  -30.8847   27.0202 H   0  0  0  0  0  0
  -26.2821  -29.6802   24.1122 H   0  0  0  0  0  0
  -27.4080  -29.7255   25.4494 H   0  0  0  0  0  0
  -27.8646  -30.4361   23.9183 H   0  0  0  0  0  0
  -27.2677  -33.3593   26.2066 H   0  0  0  0  0  0
  -28.3842  -32.6869   25.0276 H   0  0  0  0  0  0
  -28.0729  -31.8399   26.5351 H   0  0  0  0  0  0
  -28.2610  -38.0100   24.7508 H   0  0  0  0  0  0
  -28.1065  -36.2633   24.6299 H   0  0  0  0  0  0
  -27.2291  -37.1485   25.8863 H   0  0  0  0  0  0
  -20.9300  -29.8746   21.6952 H   0  0  0  0  0  0
  -26.0186  -38.2873   24.1390 H   0  0  0  0  0  0
  -30.4733  -22.0739   19.0848 H   0  0  0  0  0  0
  -26.7017  -22.7078   20.8125 H   0  0  0  0  0  0
  -29.0534  -19.5292   17.5207 H   0  0  0  0  0  0
  -27.7887  -18.7040   18.4243 H   0  0  0  0  0  0
  -29.2537  -17.8443   17.9691 H   0  0  0  0  0  0
  -29.5692  -18.5691   21.7026 H   0  0  0  0  0  0
  -28.3620  -17.7663   20.7415 H   0  0  0  0  0  0
  -29.7270  -24.4937   19.2090 H   0  0  0  0  0  0
  -28.0896  -24.4078   18.6127 H   0  0  0  0  0  0
  -30.7186  -16.9492   19.4679 H   0  0  0  0  0  0
  -31.3250  -17.1958   21.0718 H   0  0  0  0  0  0
  -28.9030  -25.1916   21.4553 H   0  0  0  0  0  0
  -27.2528  -25.0758   20.9334 H   0  0  0  0  0  0
  -30.5906  -19.3586   19.4371 H   0  0  0  0  0  0
  -29.0194  -15.4597   21.1716 H   0  0  0  0  0  0
  1 25  1  0  0  0
  1 30  2  0  0  0
  1 82  1  0  0  0
  2  3  1  0  0  0
  2 25  1  0  0  0
  2 83  1  0  0  0
  2 84  1  0  0  0
  3  4  1  0  0  0
  3 85  1  0  0  0
  3 86  1  0  0  0
  4  5  1  0  0  0
  4 87  1  0  0  0
  4 88  1  0  0  0
  5  6  1  0  0  0
  5 26  1  0  0  0
  5 89  1  0  0  0
  6 25  1  0  0  0
  6 90  1  0  0  0
  6 91  1  0  0  0
  7  8  2  0  0  0
  7 26  1  0  0  0
  7 29  1  0  0  0
  8  9  1  0  0  0
  8 22  1  0  0  0
  9 10  1  0  0  0
  9 27  2  0  0  0
 10 11  2  0  0  0
 10 15  1  0  0  0
 11 12  1  0  0  0
 11 92  1  0  0  0
 12 13  2  0  0  0
 12 93  1  0  0  0
 13 14  1  0  0  0
 13 31  1  0  0  0
 14 15  2  0  0  0
 14 94  1  0  0  0
 15 95  1  0  0  0
 16 17  2  0  0  0
 16 21  1  0  0  0
 16 31  1  0  0  0
 17 18  1  0  0  0
 17 96  1  0  0  0
 18 19  2  0  0  0
 18 97  1  0  0  0
 19 20  1  0  0  0
 19 24  1  0  0  0
 20 21  2  0  0  0
 20 98  1  0  0  0
 21 23  1  0  0  0
 22 28  1  0  0  0
 22 32  2  0  0  0
 26 27  1  0  0  0
 28 99  1  0  0  0
 28100  1  0  0  0
 29101  1  0  0  0
 29102  1  0  0  0
 33 34  1  0  0  0
 33 66  1  0  0  0
 33 70  2  0  0  0
 34 36  1  0  0  0
 34 59  1  0  0  0
 34103  1  0  0  0
 35 44  2  0  0  0
 35 45  1  0  0  0
 35 68  1  0  0  0
 36 56  1  0  0  0
 36104  1  0  0  0
 37 39  1  0  0  0
 37 47  1  0  0  0
 37 66  1  0  0  0
 37105  1  0  0  0
 38 43  2  0  0  0
 38 46  1  0  0  0
 38 47  1  0  0  0
 39 64  1  0  0  0
 39 67  2  0  0  0
 40 52  1  0  0  0
 40 53  2  0  0  0
 40 58  1  0  0  0
 41106  1  0  0  0
 41107  1  0  0  0
 41108  1  0  0  0
 41 48  1  0  0  0
 42 43  1  0  0  0
 42 66  1  0  0  0
 42109  1  0  0  0
 42110  1  0  0  0
 43 44  1  0  0  0
 44111  1  0  0  0
 45 46  2  0  0  0
 45112  1  0  0  0
 46113  1  0  0  0
 47114  1  0  0  0
 47115  1  0  0  0
 48 56  1  0  0  0
 48 65  1  0  0  0
 48116  1  0  0  0
 49 50  1  0  0  0
 49 53  1  0  0  0
 49 64  1  0  0  0
 49117  1  0  0  0
 50 51  1  0  0  0
 50118  1  0  0  0
 50119  1  0  0  0
 51 52  1  0  0  0
 51120  1  0  0  0
 51121  1  0  0  0
 52122  1  0  0  0
 52123  1  0  0  0
 53 54  1  0  0  0
 54 55  2  0  0  0
 54124  1  0  0  0
 55 57  1  0  0  0
 55125  1  0  0  0
 56 69  2  0  0  0
 57 58  2  0  0  0
 57126  1  0  0  0
 58127  1  0  0  0
 59 60  1  0  0  0
 59 61  1  0  0  0
 59 62  1  0  0  0
 60128  1  0  0  0
 60129  1  0  0  0
 60130  1  0  0  0
 61131  1  0  0  0
 61132  1  0  0  0
 61133  1  0  0  0
 62134  1  0  0  0
 62135  1  0  0  0
 62136  1  0  0  0
 63 65  1  0  0  0
 63137  1  0  0  0
 63138  1  0  0  0
 63139  1  0  0  0
 64140  1  0  0  0
 65141  1  0  0  0
 68 78  1  0  0  0
 71 73  2  0  0  0
 71 81  1  0  0  0
 71142  1  0  0  0
 72 80  2  0  0  0
 72 81  1  0  0  0
 72143  1  0  0  0
 73 79  1  0  0  0
 73 80  1  0  0  0
 74144  1  0  0  0
 74145  1  0  0  0
 74146  1  0  0  0
 74 79  1  0  0  0
 75 77  1  0  0  0
 75 79  1  0  0  0
 75147  1  0  0  0
 75148  1  0  0  0
 76 78  1  0  0  0
 76 81  1  0  0  0
 76149  1  0  0  0
 76150  1  0  0  0
 77 82  1  0  0  0
 77151  1  0  0  0
 77152  1  0  0  0
 78153  1  0  0  0
 78154  1  0  0  0
 79155  1  0  0  0
 82156  1  0  0  0
M  ISO  4   1 100  68 101  78 101  82 100
M  END
> <chiral flag>
0

> <version>
0

> <s_m_source_file>
/data/baiqing/PycharmProjects/Reinvent-master-3.2/result/LINK_invent/BTK/process_docking_weight1_custom_sum_contain_oxygen_bond_distance_aromatic_linkinvent_7_9_3/rearranged_h_0070.sdf

> <i_m_source_file_index>
18

> <r_mmod_Potential_Energy-OPLS-2005>
-86.9594268798828

> <r_mmod_Stretch_Energy-OPLS-2005>
40.158805847168

> <r_mmod_Bend_Energy-OPLS-2005>
107.859580993652

> <r_mmod_Torsional_Energy-OPLS-2005>
233.695434570312

> <r_mmod_Improper_Torsional_Energy-OPLS-2005>
7.75688314437866

> <r_mmod_Van_der_Waal_Energy-OPLS-2005>
125.550582885742

> <r_mmod_Electrostatic_Energy-OPLS-2005>
-398.176849365234

> <r_mmod_Solvation_Energy-OPLS-2005>
-221.818008422852

> <b_mmod_Minimization_Converged-OPLS-2005>
0

> <r_mmod_RMS_Derivative-OPLS-2005>
1.25333559513092

$$$$
18
                    3D
 Structure written by MMmdl.
148156  0  0  1  0            999 V2000
  -30.5190  -15.1289   20.3560 C   0  0  0  0  0  0
  -30.4258  -12.6949   19.5573 C   0  0  0  0  0  0
  -29.5411  -12.5633   18.2926 C   0  0  0  0  0  0
  -28.0733  -12.3250   18.6854 C   0  0  0  0  0  0
  -27.6108  -13.2807   19.8139 C   0  0  2  0  0  0
  -28.6333  -13.4145   20.9593 C   0  0  0  0  0  0
  -25.2366  -13.8262   20.5688 C   0  0  0  0  0  0
  -24.1737  -13.0448   20.9221 C   0  0  0  0  0  0
  -24.6396  -11.6940   20.8714 C   0  0  0  0  0  0
  -23.9096  -10.4295   21.0374 C   0  0  0  0  0  0
  -24.3644   -9.4214   21.9156 C   0  0  0  0  0  0
  -23.6323   -8.2245   22.0743 C   0  0  0  0  0  0
  -22.4301   -8.0277   21.3538 C   0  0  0  0  0  0
  -21.9927   -9.0240   20.4639 C   0  0  0  0  0  0
  -22.7253  -10.2122   20.3039 C   0  0  0  0  0  0
  -21.6864   -6.0728   22.5274 C   0  0  0  0  0  0
  -21.4024   -6.5636   23.8205 C   0  0  0  0  0  0
  -21.3673   -5.6790   24.9173 C   0  0  0  0  0  0
  -21.6048   -4.3050   24.7221 C   0  0  0  0  0  0
  -21.8821   -3.8137   23.4347 C   0  0  0  0  0  0
  -21.9196   -4.6953   22.3401 C   0  0  0  0  0  0
  -22.7747  -13.5172   21.1893 C   0  0  0  0  0  0
  -22.1659   -4.2138   21.0978 F   0  0  0  0  0  0
  -21.5634   -3.4537   25.7737 F   0  0  0  0  0  0
  -29.9120  -13.8487   20.3803 N   0  0  0  0  0  0
  -26.2792  -12.9556   20.3099 N   0  0  0  0  0  0
  -25.9330  -11.6649   20.5636 N   0  0  0  0  0  0
  -22.0432  -12.8149   22.0464 N   0  0  0  0  0  0
  -25.4017  -15.2002   20.4148 N   0  0  0  0  0  0
  -31.7342  -15.0817   20.1017 O   0  0  0  0  0  0
  -21.6665   -6.8875   21.4239 O   0  0  0  0  0  0
  -22.3405  -14.5468   20.6734 O   0  0  0  0  0  0
  -24.6545  -31.8326   23.1790 C   0  0  0  0  0  0
  -25.9259  -32.4639   23.8226 C   0  0  1  0  0  0
  -27.2101  -27.0098   20.1684 C   0  0  0  0  0  0
  -25.5967  -33.8452   24.2128 N   0  0  0  0  0  0
  -23.4624  -30.4463   21.5317 C   0  0  2  0  0  0
  -24.9078  -28.8456   20.1160 C   0  0  0  0  0  0
  -22.7609  -29.4486   22.4880 C   0  0  0  0  0  0
  -18.0303  -28.1402   22.8478 C   0  0  0  0  0  0
  -24.1483  -36.7233   23.2647 C   0  0  0  0  0  0
  -26.0260  -30.6613   21.3956 C   0  0  0  0  0  0
  -26.0918  -29.2602   20.7389 C   0  0  0  0  0  0
  -27.2398  -28.3609   20.7434 C   0  0  0  0  0  0
  -25.9972  -26.7247   19.5022 C   0  0  0  0  0  0
  -24.8789  -27.5937   19.4836 C   0  0  0  0  0  0
  -23.6907  -29.7643   20.1563 C   0  0  0  0  0  0
  -25.4120  -36.3008   24.0312 C   0  0  1  0  0  0
  -20.5921  -28.3737   23.1231 C   0  0  2  0  0  0
  -20.6794  -26.9434   22.5409 C   0  0  0  0  0  0
  -19.5766  -26.6375   21.5225 C   0  0  0  0  0  0
  -18.1942  -26.7933   22.1632 C   0  0  0  0  0  0
  -19.1562  -28.8887   23.2835 C   0  0  0  0  0  0
  -18.9479  -30.1486   23.8850 C   0  0  0  0  0  0
  -17.6477  -30.6593   24.0559 C   0  0  0  0  0  0
  -25.9082  -34.9387   23.5030 C   0  0  0  0  0  0
  -16.5365  -29.9078   23.6356 C   0  0  0  0  0  0
  -16.7288  -28.6501   23.0367 C   0  0  0  0  0  0
  -26.4518  -31.6577   25.0738 C   0  0  0  0  0  0
  -25.3666  -31.3816   26.1425 C   0  0  0  0  0  0
  -27.0404  -30.2953   24.6427 C   0  0  0  0  0  0
  -27.6015  -32.4394   25.7527 C   0  0  0  0  0  0
  -27.5570  -37.1769   24.8456 C   0  0  0  0  0  0
  -21.4292  -29.3035   22.3595 N   0  0  0  0  0  0
  -26.4268  -37.3738   23.9416 N   0  0  0  0  0  0
  -24.7358  -31.0060   22.0896 N   0  0  0  0  0  0
  -23.4193  -28.8051   23.3084 O   0  0  0  0  0  0
  -28.2340  -25.9531   20.2383 O   0  0  0  0  0  0
  -26.5694  -34.8898   22.4625 O   0  0  0  0  0  0
  -23.5642  -32.1275   23.6939 O   0  0  0  0  0  0
  -29.4156  -18.9013   21.5605 C   0  0  0  0  0  0
  -29.1577  -19.6971   20.3726 C   0  0  0  0  0  0
  -29.8289  -16.7565   20.4342 C   0  0  0  0  0  0
  -29.3157  -19.5442   22.9309 C   0  0  0  0  0  0
  -28.4203  -21.2469   20.2661 C   0  0  0  0  0  0
  -28.9315  -22.9215   20.3184 C   0  0  0  0  0  0
  -27.9535  -24.3693   20.1026 C   0  0  0  0  0  0
  -29.7502  -17.5250   21.5732 N   0  0  0  0  0  0
  -29.2806  -18.8663   19.2634 N   0  0  0  0  0  0
  -29.6198  -17.5069   19.2879 N   0  0  0  0  0  0
  -31.4662  -12.8271   19.2579 H   0  0  0  0  0  0
  -30.4086  -11.7681   20.1331 H   0  0  0  0  0  0
  -29.8981  -11.7476   17.6624 H   0  0  0  0  0  0
  -29.6192  -13.4708   17.6927 H   0  0  0  0  0  0
  -27.9871  -11.2911   19.0195 H   0  0  0  0  0  0
  -27.4238  -12.4186   17.8138 H   0  0  0  0  0  0
  -27.5411  -14.2625   19.3446 H   0  0  0  0  0  0
  -28.7419  -12.4729   21.5004 H   0  0  0  0  0  0
  -28.2891  -14.1489   21.6892 H   0  0  0  0  0  0
  -25.2786   -9.5692   22.4732 H   0  0  0  0  0  0
  -24.0034   -7.4637   22.7456 H   0  0  0  0  0  0
  -21.0858   -8.8743   19.8950 H   0  0  0  0  0  0
  -22.3686  -10.9653   19.6154 H   0  0  0  0  0  0
  -21.2024   -7.6146   23.9704 H   0  0  0  0  0  0
  -21.1498   -6.0525   25.9076 H   0  0  0  0  0  0
  -22.0593   -2.7599   23.2846 H   0  0  0  0  0  0
  -22.4089  -11.9859   22.4907 H   0  0  0  0  0  0
  -21.1023  -13.1111   22.2643 H   0  0  0  0  0  0
  -24.6323  -15.8505   20.5319 H   0  0  0  0  0  0
  -26.2477  -15.6449   20.0816 H   0  0  0  0  0  0
  -26.7327  -32.5175   23.0952 H   0  0  0  0  0  0
  -25.0093  -33.9557   25.0267 H   0  0  0  0  0  0
  -22.7717  -31.2766   21.3717 H   0  0  0  0  0  0
  -23.3766  -35.9541   23.3269 H   0  0  0  0  0  0
  -24.3566  -36.8914   22.2068 H   0  0  0  0  0  0
  -23.7210  -37.6398   23.6724 H   0  0  0  0  0  0
  -26.1952  -31.4028   20.6145 H   0  0  0  0  0  0
  -26.8930  -30.7164   22.0416 H   0  0  0  0  0  0
  -28.1353  -28.6726   21.2605 H   0  0  0  0  0  0
  -25.8770  -25.7696   19.0121 H   0  0  0  0  0  0
  -23.9727  -27.2648   18.9921 H   0  0  0  0  0  0
  -23.8328  -30.5356   19.3992 H   0  0  0  0  0  0
  -22.7991  -29.2145   19.8486 H   0  0  0  0  0  0
  -25.1309  -36.1818   25.0802 H   0  0  0  0  0  0
  -21.0002  -28.3331   24.1367 H   0  0  0  0  0  0
  -20.5711  -26.2347   23.3635 H   0  0  0  0  0  0
  -21.6653  -26.7445   22.1192 H   0  0  0  0  0  0
  -19.6927  -25.6276   21.1275 H   0  0  0  0  0  0
  -19.6698  -27.3173   20.6741 H   0  0  0  0  0  0
  -17.4216  -26.6693   21.4024 H   0  0  0  0  0  0
  -18.0329  -26.0078   22.9028 H   0  0  0  0  0  0
  -19.7952  -30.7322   24.2189 H   0  0  0  0  0  0
  -17.5023  -31.6275   24.5166 H   0  0  0  0  0  0
  -15.5362  -30.2966   23.7702 H   0  0  0  0  0  0
  -15.8692  -28.0804   22.7113 H   0  0  0  0  0  0
  -24.5827  -30.7186   25.7752 H   0  0  0  0  0  0
  -24.8881  -32.3018   26.4790 H   0  0  0  0  0  0
  -25.7919  -30.9024   27.0256 H   0  0  0  0  0  0
  -26.3065  -29.6666   24.1380 H   0  0  0  0  0  0
  -27.3896  -29.7283   25.5069 H   0  0  0  0  0  0
  -27.9017  -30.4160   23.9853 H   0  0  0  0  0  0
  -27.2572  -33.3729   26.1997 H   0  0  0  0  0  0
  -28.3867  -32.6917   25.0389 H   0  0  0  0  0  0
  -28.0643  -31.8612   26.5538 H   0  0  0  0  0  0
  -28.2552  -38.0099   24.7550 H   0  0  0  0  0  0
  -28.1102  -36.2636   24.6223 H   0  0  0  0  0  0
  -27.2303  -37.1340   25.8858 H   0  0  0  0  0  0
  -20.9544  -29.8705   21.6711 H   0  0  0  0  0  0
  -26.0126  -38.2790   24.1454 H   0  0  0  0  0  0
  -29.2300  -20.6285   22.8580 H   0  0  0  0  0  0
  -30.2074  -19.3284   23.5194 H   0  0  0  0  0  0
  -28.4467  -19.1710   23.4720 H   0  0  0  0  0  0
  -27.6324  -21.1901   21.0174 H   0  0  0  0  0  0
  -27.8773  -21.1755   19.3237 H   0  0  0  0  0  0
  -29.7372  -23.0098   19.5886 H   0  0  0  0  0  0
  -29.4259  -23.0478   21.2818 H   0  0  0  0  0  0
  -27.0820  -24.2012   20.7338 H   0  0  0  0  0  0
  -27.5726  -24.2631   19.0873 H   0  0  0  0  0  0
  1 25  1  0  0  0
  1 30  2  0  0  0
  1 73  1  0  0  0
  2  3  1  0  0  0
  2 25  1  0  0  0
  2 81  1  0  0  0
  2 82  1  0  0  0
  3  4  1  0  0  0
  3 83  1  0  0  0
  3 84  1  0  0  0
  4  5  1  0  0  0
  4 85  1  0  0  0
  4 86  1  0  0  0
  5  6  1  0  0  0
  5 26  1  0  0  0
  5 87  1  0  0  0
  6 25  1  0  0  0
  6 88  1  0  0  0
  6 89  1  0  0  0
  7  8  2  0  0  0
  7 26  1  0  0  0
  7 29  1  0  0  0
  8  9  1  0  0  0
  8 22  1  0  0  0
  9 10  1  0  0  0
  9 27  2  0  0  0
 10 11  2  0  0  0
 10 15  1  0  0  0
 11 12  1  0  0  0
 11 90  1  0  0  0
 12 13  2  0  0  0
 12 91  1  0  0  0
 13 14  1  0  0  0
 13 31  1  0  0  0
 14 15  2  0  0  0
 14 92  1  0  0  0
 15 93  1  0  0  0
 16 17  2  0  0  0
 16 21  1  0  0  0
 16 31  1  0  0  0
 17 18  1  0  0  0
 17 94  1  0  0  0
 18 19  2  0  0  0
 18 95  1  0  0  0
 19 20  1  0  0  0
 19 24  1  0  0  0
 20 21  2  0  0  0
 20 96  1  0  0  0
 21 23  1  0  0  0
 22 28  1  0  0  0
 22 32  2  0  0  0
 26 27  1  0  0  0
 28 97  1  0  0  0
 28 98  1  0  0  0
 29 99  1  0  0  0
 29100  1  0  0  0
 33 34  1  0  0  0
 33 66  1  0  0  0
 33 70  2  0  0  0
 34 36  1  0  0  0
 34 59  1  0  0  0
 34101  1  0  0  0
 35 44  2  0  0  0
 35 45  1  0  0  0
 35 68  1  0  0  0
 36 56  1  0  0  0
 36102  1  0  0  0
 37 39  1  0  0  0
 37 47  1  0  0  0
 37 66  1  0  0  0
 37103  1  0  0  0
 38 43  2  0  0  0
 38 46  1  0  0  0
 38 47  1  0  0  0
 39 64  1  0  0  0
 39 67  2  0  0  0
 40 52  1  0  0  0
 40 53  2  0  0  0
 40 58  1  0  0  0
 41104  1  0  0  0
 41105  1  0  0  0
 41106  1  0  0  0
 41 48  1  0  0  0
 42 43  1  0  0  0
 42 66  1  0  0  0
 42107  1  0  0  0
 42108  1  0  0  0
 43 44  1  0  0  0
 44109  1  0  0  0
 45 46  2  0  0  0
 45110  1  0  0  0
 46111  1  0  0  0
 47112  1  0  0  0
 47113  1  0  0  0
 48 56  1  0  0  0
 48 65  1  0  0  0
 48114  1  0  0  0
 49 50  1  0  0  0
 49 53  1  0  0  0
 49 64  1  0  0  0
 49115  1  0  0  0
 50 51  1  0  0  0
 50116  1  0  0  0
 50117  1  0  0  0
 51 52  1  0  0  0
 51118  1  0  0  0
 51119  1  0  0  0
 52120  1  0  0  0
 52121  1  0  0  0
 53 54  1  0  0  0
 54 55  2  0  0  0
 54122  1  0  0  0
 55 57  1  0  0  0
 55123  1  0  0  0
 56 69  2  0  0  0
 57 58  2  0  0  0
 57124  1  0  0  0
 58125  1  0  0  0
 59 60  1  0  0  0
 59 61  1  0  0  0
 59 62  1  0  0  0
 60126  1  0  0  0
 60127  1  0  0  0
 60128  1  0  0  0
 61129  1  0  0  0
 61130  1  0  0  0
 61131  1  0  0  0
 62132  1  0  0  0
 62133  1  0  0  0
 62134  1  0  0  0
 63 65  1  0  0  0
 63135  1  0  0  0
 63136  1  0  0  0
 63137  1  0  0  0
 64138  1  0  0  0
 65139  1  0  0  0
 68 77  1  0  0  0
 71 72  2  0  0  0
 71 74  1  0  0  0
 71 78  1  0  0  0
 72 75  1  0  0  0
 72 79  1  0  0  0
 73 78  2  0  0  0
 73 80  1  0  0  0
 74140  1  0  0  0
 74141  1  0  0  0
 74142  1  0  0  0
 75 76  1  0  0  0
 75143  1  0  0  0
 75144  1  0  0  0
 76 77  1  0  0  0
 76145  1  0  0  0
 76146  1  0  0  0
 77147  1  0  0  0
 77148  1  0  0  0
 79 80  2  0  0  0
M  ISO  4   1 100  68 101  73 100  77 101
M  END
> <chiral flag>
0

> <version>
0

> <s_m_source_file>
/data/baiqing/PycharmProjects/Reinvent-master-3.2/result/LINK_invent/BTK/process_docking_weight1_custom_sum_contain_oxygen_bond_distance_aromatic_linkinvent_7_9_3/rearranged_h_0070.sdf

> <i_m_source_file_index>
19

> <r_mmod_Potential_Energy-OPLS-2005>
1085.57250976562

> <r_mmod_Stretch_Energy-OPLS-2005>
453.56396484375

> <r_mmod_Bend_Energy-OPLS-2005>
391.026306152344

> <r_mmod_Torsional_Energy-OPLS-2005>
169.974319458008

> <r_mmod_Improper_Torsional_Energy-OPLS-2005>
7.69754123687744

> <r_mmod_Van_der_Waal_Energy-OPLS-2005>
131.655242919922

> <r_mmod_Electrostatic_Energy-OPLS-2005>
-172.806976318359

> <r_mmod_Solvation_Energy-OPLS-2005>
-225.339340209961

> <b_mmod_Minimization_Converged-OPLS-2005>
0

> <r_mmod_RMS_Derivative-OPLS-2005>
2.54447102546692

$$$$
19
                    3D
 Structure written by MMmdl.
161169  0  0  1  0            999 V2000
  -30.6317  -14.8218   20.5281 C   0  0  0  0  0  0
  -30.4267  -12.5167   19.4831 C   0  0  0  0  0  0
  -29.5104  -12.5560   18.2373 C   0  0  0  0  0  0
  -28.0361  -12.3569   18.6376 C   0  0  0  0  0  0
  -27.6457  -13.2319   19.8565 C   0  0  2  0  0  0
  -28.6901  -13.1264   20.9852 C   0  0  0  0  0  0
  -25.2567  -13.8188   20.5708 C   0  0  0  0  0  0
  -24.1842  -13.0427   20.9187 C   0  0  0  0  0  0
  -24.6433  -11.6915   20.8732 C   0  0  0  0  0  0
  -23.9100  -10.4295   21.0416 C   0  0  0  0  0  0
  -24.3650   -9.4220   21.9199 C   0  0  0  0  0  0
  -23.6330   -8.2252   22.0764 C   0  0  0  0  0  0
  -22.4311   -8.0292   21.3552 C   0  0  0  0  0  0
  -21.9947   -9.0262   20.4655 C   0  0  0  0  0  0
  -22.7272  -10.2141   20.3069 C   0  0  0  0  0  0
  -21.6860   -6.0761   22.5286 C   0  0  0  0  0  0
  -21.4004   -6.5657   23.8220 C   0  0  0  0  0  0
  -21.3676   -5.6806   24.9182 C   0  0  0  0  0  0
  -21.6056   -4.3068   24.7220 C   0  0  0  0  0  0
  -21.8815   -3.8166   23.4337 C   0  0  0  0  0  0
  -21.9194   -4.6990   22.3400 C   0  0  0  0  0  0
  -22.7878  -13.5245   21.1844 C   0  0  0  0  0  0
  -22.1672   -4.2186   21.0975 F   0  0  0  0  0  0
  -21.5641   -3.4545   25.7726 F   0  0  0  0  0  0
  -29.9824  -13.5813   20.4381 N   0  0  0  0  0  0
  -26.2978  -12.9376   20.3306 N   0  0  0  0  0  0
  -25.9365  -11.6514   20.5733 N   0  0  0  0  0  0
  -22.0523  -12.8219   22.0387 N   0  0  0  0  0  0
  -25.4259  -15.1913   20.4214 N   0  0  0  0  0  0
  -31.7352  -14.8614   19.9684 O   0  0  0  0  0  0
  -21.6660   -6.8900   21.4250 O   0  0  0  0  0  0
  -22.3574  -14.5567   20.6728 O   0  0  0  0  0  0
  -24.6413  -31.8480   23.1923 C   0  0  0  0  0  0
  -25.9216  -32.4692   23.8295 C   0  0  1  0  0  0
  -27.2176  -27.1912   20.1352 C   0  0  0  0  0  0
  -25.5993  -33.8499   24.2203 N   0  0  0  0  0  0
  -23.4415  -30.4735   21.5344 C   0  0  2  0  0  0
  -24.8921  -28.9154   20.1013 C   0  0  0  0  0  0
  -22.7563  -29.4569   22.4828 C   0  0  0  0  0  0
  -18.0314  -28.1352   22.8498 C   0  0  0  0  0  0
  -24.1496  -36.7239   23.2644 C   0  0  0  0  0  0
  -25.9978  -30.7388   21.3873 C   0  0  0  0  0  0
  -26.0678  -29.3610   20.7185 C   0  0  0  0  0  0
  -27.2344  -28.5155   20.7160 C   0  0  0  0  0  0
  -26.0145  -26.8367   19.4822 C   0  0  0  0  0  0
  -24.8770  -27.6668   19.4647 C   0  0  0  0  0  0
  -23.6656  -29.8098   20.1503 C   0  0  0  0  0  0
  -25.4134  -36.3017   24.0304 C   0  0  1  0  0  0
  -20.5940  -28.3685   23.1233 C   0  0  2  0  0  0
  -20.6795  -26.9378   22.5403 C   0  0  0  0  0  0
  -19.5752  -26.6349   21.5215 C   0  0  0  0  0  0
  -18.1941  -26.7901   22.1636 C   0  0  0  0  0  0
  -19.1577  -28.8840   23.2867 C   0  0  0  0  0  0
  -18.9479  -30.1444   23.8884 C   0  0  0  0  0  0
  -17.6472  -30.6561   24.0549 C   0  0  0  0  0  0
  -25.9089  -34.9391   23.5047 C   0  0  0  0  0  0
  -16.5369  -29.9041   23.6328 C   0  0  0  0  0  0
  -16.7301  -28.6455   23.0364 C   0  0  0  0  0  0
  -26.4547  -31.6567   25.0741 C   0  0  0  0  0  0
  -25.3737  -31.3744   26.1442 C   0  0  0  0  0  0
  -27.0402  -30.2954   24.6332 C   0  0  0  0  0  0
  -27.6080  -32.4343   25.7519 C   0  0  0  0  0  0
  -27.5560  -37.1771   24.8460 C   0  0  0  0  0  0
  -21.4262  -29.3024   22.3601 N   0  0  0  0  0  0
  -26.4284  -37.3733   23.9398 N   0  0  0  0  0  0
  -24.7121  -31.0406   22.0920 N   0  0  0  0  0  0
  -23.4235  -28.8095   23.2942 O   0  0  0  0  0  0
  -28.2779  -26.2318   20.2196 O   0  0  0  0  0  0
  -26.5643  -34.8875   22.4608 O   0  0  0  0  0  0
  -23.5549  -32.1321   23.7190 O   0  0  0  0  0  0
  -28.2650  -19.5231   21.0445 C   0  0  0  0  0  0
  -29.0182  -20.4378   20.2614 C   0  0  0  0  0  0
  -30.1438  -19.7514   19.7026 C   0  0  0  0  0  0
  -29.6714  -17.6231   20.7020 C   0  0  0  0  0  0
  -32.4041  -20.8463   19.6248 C   0  0  0  0  0  0
  -31.5346  -16.6354   22.0512 C   0  0  0  0  0  0
  -29.3030  -15.8444   22.5544 C   0  0  0  0  0  0
  -28.4461  -21.9233   19.8769 C   0  0  0  0  0  0
  -31.1420  -20.4871   18.8296 C   0  0  0  0  0  0
  -28.9119  -23.4247   20.3879 C   0  0  0  0  0  0
  -28.0037  -24.7438   19.9572 C   0  0  0  0  0  0
  -30.2122  -16.2063   21.3540 C   0  0  0  0  0  0
  -28.5871  -18.2047   21.2544 N   0  0  0  0  0  0
  -30.4483  -18.4159   19.9292 N   0  0  0  0  0  0
  -31.4713  -12.6143   19.1857 H   0  0  0  0  0  0
  -30.3691  -11.5317   19.9477 H   0  0  0  0  0  0
  -29.8094  -11.7925   17.5180 H   0  0  0  0  0  0
  -29.6267  -13.5153   17.7306 H   0  0  0  0  0  0
  -27.8946  -11.3006   18.8728 H   0  0  0  0  0  0
  -27.3800  -12.5728   17.7925 H   0  0  0  0  0  0
  -27.6493  -14.2642   19.5087 H   0  0  0  0  0  0
  -28.7639  -12.0922   21.3264 H   0  0  0  0  0  0
  -28.3524  -13.6565   21.8627 H   0  0  0  0  0  0
  -25.2790   -9.5710   22.4778 H   0  0  0  0  0  0
  -24.0063   -7.4638   22.7472 H   0  0  0  0  0  0
  -21.0894   -8.8776   19.8936 H   0  0  0  0  0  0
  -22.3744  -10.9692   19.6185 H   0  0  0  0  0  0
  -21.1972   -7.6157   23.9732 H   0  0  0  0  0  0
  -21.1521   -6.0534   25.9095 H   0  0  0  0  0  0
  -22.0575   -2.7631   23.2817 H   0  0  0  0  0  0
  -22.4159  -11.9903   22.4777 H   0  0  0  0  0  0
  -21.1145  -13.1248   22.2568 H   0  0  0  0  0  0
  -24.6593  -15.8413   20.5542 H   0  0  0  0  0  0
  -26.2879  -15.6491   20.1501 H   0  0  0  0  0  0
  -26.7289  -32.5300   23.1032 H   0  0  0  0  0  0
  -25.0196  -33.9629   25.0387 H   0  0  0  0  0  0
  -22.7414  -31.2988   21.3827 H   0  0  0  0  0  0
  -23.3756  -35.9569   23.3304 H   0  0  0  0  0  0
  -24.3593  -36.8885   22.2062 H   0  0  0  0  0  0
  -23.7236  -37.6428   23.6689 H   0  0  0  0  0  0
  -26.1664  -31.5030   20.6280 H   0  0  0  0  0  0
  -26.8646  -30.7740   22.0356 H   0  0  0  0  0  0
  -28.1357  -28.8554   21.2071 H   0  0  0  0  0  0
  -25.9100  -25.8788   18.9956 H   0  0  0  0  0  0
  -23.9804  -27.3257   18.9648 H   0  0  0  0  0  0
  -23.7858  -30.5858   19.3921 H   0  0  0  0  0  0
  -22.7852  -29.2424   19.8455 H   0  0  0  0  0  0
  -25.1315  -36.1854   25.0792 H   0  0  0  0  0  0
  -21.0064  -28.3266   24.1339 H   0  0  0  0  0  0
  -20.5690  -26.2274   23.3616 H   0  0  0  0  0  0
  -21.6652  -26.7367   22.1183 H   0  0  0  0  0  0
  -19.6899  -25.6259   21.1230 H   0  0  0  0  0  0
  -19.6687  -27.3184   20.6764 H   0  0  0  0  0  0
  -17.4210  -26.6683   21.4032 H   0  0  0  0  0  0
  -18.0321  -26.0030   22.9017 H   0  0  0  0  0  0
  -19.7952  -30.7271   24.2238 H   0  0  0  0  0  0
  -17.5009  -31.6253   24.5124 H   0  0  0  0  0  0
  -15.5359  -30.2916   23.7647 H   0  0  0  0  0  0
  -15.8712  -28.0753   22.7073 H   0  0  0  0  0  0
  -24.5936  -30.7067   25.7770 H   0  0  0  0  0  0
  -24.8905  -32.2913   26.4826 H   0  0  0  0  0  0
  -25.8046  -30.8955   27.0244 H   0  0  0  0  0  0
  -26.3001  -29.6661   24.1375 H   0  0  0  0  0  0
  -27.4028  -29.7288   25.4923 H   0  0  0  0  0  0
  -27.8913  -30.4164   23.9628 H   0  0  0  0  0  0
  -27.2685  -33.3693   26.1991 H   0  0  0  0  0  0
  -28.3945  -32.6831   25.0377 H   0  0  0  0  0  0
  -28.0675  -31.8528   26.5524 H   0  0  0  0  0  0
  -28.2565  -38.0079   24.7531 H   0  0  0  0  0  0
  -28.1059  -36.2603   24.6273 H   0  0  0  0  0  0
  -27.2268  -37.1419   25.8860 H   0  0  0  0  0  0
  -20.9436  -29.8763   21.6834 H   0  0  0  0  0  0
  -26.0140  -38.2786   24.1438 H   0  0  0  0  0  0
  -27.3466  -19.8501   21.5099 H   0  0  0  0  0  0
  -32.1494  -21.3865   20.5378 H   0  0  0  0  0  0
  -33.0743  -21.4719   19.0370 H   0  0  0  0  0  0
  -32.9477  -19.9462   19.9131 H   0  0  0  0  0  0
  -31.3812  -17.4679   22.7377 H   0  0  0  0  0  0
  -32.2716  -16.9776   21.3226 H   0  0  0  0  0  0
  -31.9931  -15.8222   22.6137 H   0  0  0  0  0  0
  -29.3128  -16.6288   23.3123 H   0  0  0  0  0  0
  -29.6299  -14.9380   23.0640 H   0  0  0  0  0  0
  -28.2630  -15.7354   22.2485 H   0  0  0  0  0  0
  -27.3789  -21.8709   20.1024 H   0  0  0  0  0  0
  -28.4656  -21.9670   18.7878 H   0  0  0  0  0  0
  -30.6862  -21.3859   18.4168 H   0  0  0  0  0  0
  -31.4035  -19.8644   17.9720 H   0  0  0  0  0  0
  -29.9375  -23.5876   20.0563 H   0  0  0  0  0  0
  -28.9661  -23.4135   21.4758 H   0  0  0  0  0  0
  -27.0219  -24.5316   20.3830 H   0  0  0  0  0  0
  -27.8797  -24.6684   18.8767 H   0  0  0  0  0  0
  1 25  1  0  0  0
  1 30  2  0  0  0
  1 82  1  0  0  0
  2  3  1  0  0  0
  2 25  1  0  0  0
  2 85  1  0  0  0
  2 86  1  0  0  0
  3  4  1  0  0  0
  3 87  1  0  0  0
  3 88  1  0  0  0
  4  5  1  0  0  0
  4 89  1  0  0  0
  4 90  1  0  0  0
  5  6  1  0  0  0
  5 26  1  0  0  0
  5 91  1  0  0  0
  6 25  1  0  0  0
  6 92  1  0  0  0
  6 93  1  0  0  0
  7  8  2  0  0  0
  7 26  1  0  0  0
  7 29  1  0  0  0
  8  9  1  0  0  0
  8 22  1  0  0  0
  9 10  1  0  0  0
  9 27  2  0  0  0
 10 11  2  0  0  0
 10 15  1  0  0  0
 11 12  1  0  0  0
 11 94  1  0  0  0
 12 13  2  0  0  0
 12 95  1  0  0  0
 13 14  1  0  0  0
 13 31  1  0  0  0
 14 15  2  0  0  0
 14 96  1  0  0  0
 15 97  1  0  0  0
 16 17  2  0  0  0
 16 21  1  0  0  0
 16 31  1  0  0  0
 17 18  1  0  0  0
 17 98  1  0  0  0
 18 19  2  0  0  0
 18 99  1  0  0  0
 19 20  1  0  0  0
 19 24  1  0  0  0
 20 21  2  0  0  0
 20100  1  0  0  0
 21 23  1  0  0  0
 22 28  1  0  0  0
 22 32  2  0  0  0
 26 27  1  0  0  0
 28101  1  0  0  0
 28102  1  0  0  0
 29103  1  0  0  0
 29104  1  0  0  0
 33 34  1  0  0  0
 33 66  1  0  0  0
 33 70  2  0  0  0
 34 36  1  0  0  0
 34 59  1  0  0  0
 34105  1  0  0  0
 35 44  2  0  0  0
 35 45  1  0  0  0
 35 68  1  0  0  0
 36 56  1  0  0  0
 36106  1  0  0  0
 37 39  1  0  0  0
 37 47  1  0  0  0
 37 66  1  0  0  0
 37107  1  0  0  0
 38 43  2  0  0  0
 38 46  1  0  0  0
 38 47  1  0  0  0
 39 64  1  0  0  0
 39 67  2  0  0  0
 40 52  1  0  0  0
 40 53  2  0  0  0
 40 58  1  0  0  0
 41108  1  0  0  0
 41109  1  0  0  0
 41110  1  0  0  0
 41 48  1  0  0  0
 42 43  1  0  0  0
 42 66  1  0  0  0
 42111  1  0  0  0
 42112  1  0  0  0
 43 44  1  0  0  0
 44113  1  0  0  0
 45 46  2  0  0  0
 45114  1  0  0  0
 46115  1  0  0  0
 47116  1  0  0  0
 47117  1  0  0  0
 48 56  1  0  0  0
 48 65  1  0  0  0
 48118  1  0  0  0
 49 50  1  0  0  0
 49 53  1  0  0  0
 49 64  1  0  0  0
 49119  1  0  0  0
 50 51  1  0  0  0
 50120  1  0  0  0
 50121  1  0  0  0
 51 52  1  0  0  0
 51122  1  0  0  0
 51123  1  0  0  0
 52124  1  0  0  0
 52125  1  0  0  0
 53 54  1  0  0  0
 54 55  2  0  0  0
 54126  1  0  0  0
 55 57  1  0  0  0
 55127  1  0  0  0
 56 69  2  0  0  0
 57 58  2  0  0  0
 57128  1  0  0  0
 58129  1  0  0  0
 59 60  1  0  0  0
 59 61  1  0  0  0
 59 62  1  0  0  0
 60130  1  0  0  0
 60131  1  0  0  0
 60132  1  0  0  0
 61133  1  0  0  0
 61134  1  0  0  0
 61135  1  0  0  0
 62136  1  0  0  0
 62137  1  0  0  0
 62138  1  0  0  0
 63 65  1  0  0  0
 63139  1  0  0  0
 63140  1  0  0  0
 63141  1  0  0  0
 64142  1  0  0  0
 65143  1  0  0  0
 68 81  1  0  0  0
 71 72  2  0  0  0
 71 83  1  0  0  0
 71144  1  0  0  0
 72 73  1  0  0  0
 72 78  1  0  0  0
 73 79  1  0  0  0
 73 84  2  0  0  0
 74 82  1  0  0  0
 74 83  2  0  0  0
 74 84  1  0  0  0
 75 79  1  0  0  0
 75145  1  0  0  0
 75146  1  0  0  0
 75147  1  0  0  0
 76148  1  0  0  0
 76149  1  0  0  0
 76150  1  0  0  0
 76 82  1  0  0  0
 77 82  1  0  0  0
 77151  1  0  0  0
 77152  1  0  0  0
 77153  1  0  0  0
 78 80  1  0  0  0
 78154  1  0  0  0
 78155  1  0  0  0
 79156  1  0  0  0
 79157  1  0  0  0
 80 81  1  0  0  0
 80158  1  0  0  0
 80159  1  0  0  0
 81160  1  0  0  0
 81161  1  0  0  0
M  ISO  4   1 100  68 101  81 101  82 100
M  END
> <chiral flag>
0

> <version>
0

> <s_m_source_file>
/data/baiqing/PycharmProjects/Reinvent-master-3.2/result/LINK_invent/BTK/process_docking_weight1_custom_sum_contain_oxygen_bond_distance_aromatic_linkinvent_7_9_3/rearranged_h_0070.sdf

> <i_m_source_file_index>
20

> <r_mmod_Potential_Energy-OPLS-2005>
124.587562561035

> <r_mmod_Stretch_Energy-OPLS-2005>
206.140640258789

> <r_mmod_Bend_Energy-OPLS-2005>
291.098388671875

> <r_mmod_Torsional_Energy-OPLS-2005>
181.207672119141

> <r_mmod_Improper_Torsional_Energy-OPLS-2005>
7.73998403549194

> <r_mmod_Van_der_Waal_Energy-OPLS-2005>
162.942443847656

> <r_mmod_Electrostatic_Energy-OPLS-2005>
-641.240356445312

> <r_mmod_Solvation_Energy-OPLS-2005>
-203.915954589844

> <b_mmod_Minimization_Converged-OPLS-2005>
0

> <r_mmod_RMS_Derivative-OPLS-2005>
3.08513689041138

$$$$
20
                    3D
 Structure written by MMmdl.
157165  0  0  1  0            999 V2000
  -30.5826  -14.7020   20.6167 C   0  0  0  0  0  0
  -30.4457  -12.4593   19.4560 C   0  0  0  0  0  0
  -29.5164  -12.5882   18.2246 C   0  0  0  0  0  0
  -28.0297  -12.4153   18.6102 C   0  0  0  0  0  0
  -27.6611  -13.2118   19.8882 C   0  0  2  0  0  0
  -28.7066  -12.9751   21.0001 C   0  0  0  0  0  0
  -25.2540  -13.8165   20.5582 C   0  0  0  0  0  0
  -24.1852  -13.0487   20.9152 C   0  0  0  0  0  0
  -24.6423  -11.6947   20.8706 C   0  0  0  0  0  0
  -23.9085  -10.4352   21.0369 C   0  0  0  0  0  0
  -24.3648   -9.4285   21.9165 C   0  0  0  0  0  0
  -23.6355   -8.2327   22.0767 C   0  0  0  0  0  0
  -22.4327   -8.0338   21.3587 C   0  0  0  0  0  0
  -21.9904   -9.0295   20.4684 C   0  0  0  0  0  0
  -22.7210  -10.2181   20.3066 C   0  0  0  0  0  0
  -21.6916   -6.0749   22.5254 C   0  0  0  0  0  0
  -21.4048   -6.5643   23.8180 C   0  0  0  0  0  0
  -21.3641   -5.6766   24.9137 C   0  0  0  0  0  0
  -21.6066   -4.3039   24.7166 C   0  0  0  0  0  0
  -21.8850   -3.8146   23.4279 C   0  0  0  0  0  0
  -21.9232   -4.6980   22.3351 C   0  0  0  0  0  0
  -22.7866  -13.5267   21.1790 C   0  0  0  0  0  0
  -22.1723   -4.2199   21.0915 F   0  0  0  0  0  0
  -21.5624   -3.4489   25.7661 F   0  0  0  0  0  0
  -29.9941  -13.4518   20.4767 N   0  0  0  0  0  0
  -26.3032  -12.9377   20.3401 N   0  0  0  0  0  0
  -25.9360  -11.6541   20.5790 N   0  0  0  0  0  0
  -22.0524  -12.8309   22.0397 N   0  0  0  0  0  0
  -25.4086  -15.1901   20.3787 N   0  0  0  0  0  0
  -31.7009  -14.8442   20.1035 O   0  0  0  0  0  0
  -21.6751   -6.8888   21.4228 O   0  0  0  0  0  0
  -22.3526  -14.5565   20.6573 O   0  0  0  0  0  0
  -24.6217  -31.8599   23.1999 C   0  0  0  0  0  0
  -25.9089  -32.4773   23.8301 C   0  0  1  0  0  0
  -27.2244  -27.2981   20.1422 C   0  0  0  0  0  0
  -25.5934  -33.8565   24.2259 N   0  0  0  0  0  0
  -23.4157  -30.4730   21.5544 C   0  0  2  0  0  0
  -24.8607  -28.9174   20.1247 C   0  0  0  0  0  0
  -22.7435  -29.4572   22.5057 C   0  0  0  0  0  0
  -18.0271  -28.1399   22.8508 C   0  0  0  0  0  0
  -24.1512  -36.7260   23.2627 C   0  0  0  0  0  0
  -25.9515  -30.7847   21.3648 C   0  0  0  0  0  0
  -26.0310  -29.4046   20.7227 C   0  0  0  0  0  0
  -27.2152  -28.6061   20.7215 C   0  0  0  0  0  0
  -26.0339  -26.8630   19.5236 C   0  0  0  0  0  0
  -24.8622  -27.6477   19.5220 C   0  0  0  0  0  0
  -23.6265  -29.7967   20.1735 C   0  0  0  0  0  0
  -25.4133  -36.3055   24.0314 C   0  0  1  0  0  0
  -20.5852  -28.3655   23.1385 C   0  0  2  0  0  0
  -20.6807  -26.9411   22.5464 C   0  0  0  0  0  0
  -19.5768  -26.6401   21.5288 C   0  0  0  0  0  0
  -18.1920  -26.7956   22.1659 C   0  0  0  0  0  0
  -19.1513  -28.8856   23.2937 C   0  0  0  0  0  0
  -18.9427  -30.1470   23.8929 C   0  0  0  0  0  0
  -17.6418  -30.6605   24.0569 C   0  0  0  0  0  0
  -25.9051  -34.9437   23.5085 C   0  0  0  0  0  0
  -16.5314  -29.9085   23.6354 C   0  0  0  0  0  0
  -16.7256  -28.6512   23.0364 C   0  0  0  0  0  0
  -26.4536  -31.6546   25.0621 C   0  0  0  0  0  0
  -25.3801  -31.3619   26.1345 C   0  0  0  0  0  0
  -27.0328  -30.2988   24.5973 C   0  0  0  0  0  0
  -27.6114  -32.4262   25.7379 C   0  0  0  0  0  0
  -27.5598  -37.1763   24.8472 C   0  0  0  0  0  0
  -21.4147  -29.2987   22.3779 N   0  0  0  0  0  0
  -26.4310  -37.3762   23.9403 N   0  0  0  0  0  0
  -24.6844  -31.0545   22.1004 N   0  0  0  0  0  0
  -23.4150  -28.8116   23.3152 O   0  0  0  0  0  0
  -28.3534  -26.4590   20.1215 O   0  0  0  0  0  0
  -26.5608  -34.8927   22.4641 O   0  0  0  0  0  0
  -23.5390  -32.1429   23.7327 O   0  0  0  0  0  0
  -29.5222  -18.6730   20.9961 C   0  0  0  0  0  0
  -30.0562  -17.5102   19.2533 C   0  0  0  0  0  0
  -29.5213  -19.5626   19.9083 C   0  0  0  0  0  0
  -28.5720  -15.8749   22.0100 C   0  0  0  0  0  0
  -30.9083  -16.3167   22.5625 C   0  0  0  0  0  0
  -29.1493  -21.0697   19.5764 C   0  0  0  0  0  0
  -28.9790  -22.3350   20.5642 C   0  0  0  0  0  0
  -28.7180  -23.7861   19.8663 C   0  0  0  0  0  0
  -28.2932  -25.0897   20.7137 C   0  0  0  0  0  0
  -29.9683  -16.0332   21.3670 C   0  0  0  0  0  0
  -29.8707  -18.7614   18.8136 N   0  0  0  0  0  0
  -29.8853  -17.3396   20.5697 N   0  0  0  0  0  0
  -30.4015  -11.4336   19.8350 H   0  0  0  0  0  0
  -31.4842  -12.6047   19.1544 H   0  0  0  0  0  0
  -29.7869  -11.8768   17.4396 H   0  0  0  0  0  0
  -29.6597  -13.5761   17.7907 H   0  0  0  0  0  0
  -27.8307  -11.3520   18.7492 H   0  0  0  0  0  0
  -27.3924  -12.7329   17.7834 H   0  0  0  0  0  0
  -27.6902  -14.2611   19.6052 H   0  0  0  0  0  0
  -28.7638  -11.9042   21.2090 H   0  0  0  0  0  0
  -28.4133  -13.3894   21.9582 H   0  0  0  0  0  0
  -25.2822   -9.5856   22.4685 H   0  0  0  0  0  0
  -24.0150   -7.4732   22.7448 H   0  0  0  0  0  0
  -21.0858   -8.8767   19.8975 H   0  0  0  0  0  0
  -22.3641  -10.9723   19.6173 H   0  0  0  0  0  0
  -21.2055   -7.6145   23.9684 H   0  0  0  0  0  0
  -21.1439   -6.0490   25.9034 H   0  0  0  0  0  0
  -22.0637   -2.7604   23.2740 H   0  0  0  0  0  0
  -22.4164  -11.9974   22.4829 H   0  0  0  0  0  0
  -21.1124  -13.1304   22.2536 H   0  0  0  0  0  0
  -24.6238  -15.8234   20.4822 H   0  0  0  0  0  0
  -26.2400  -15.6424   20.0160 H   0  0  0  0  0  0
  -26.7080  -32.5476   23.0982 H   0  0  0  0  0  0
  -25.0169  -33.9731   25.0470 H   0  0  0  0  0  0
  -22.7087  -31.2934   21.4104 H   0  0  0  0  0  0
  -23.3808  -35.9566   23.3273 H   0  0  0  0  0  0
  -24.3627  -36.8898   22.2048 H   0  0  0  0  0  0
  -23.7241  -37.6443   23.6670 H   0  0  0  0  0  0
  -26.0519  -31.5293   20.5731 H   0  0  0  0  0  0
  -26.8433  -30.8631   21.9733 H   0  0  0  0  0  0
  -28.1112  -28.9707   21.2031 H   0  0  0  0  0  0
  -26.0072  -25.8953   19.0452 H   0  0  0  0  0  0
  -23.9611  -27.2623   19.0626 H   0  0  0  0  0  0
  -23.7234  -30.5666   19.4070 H   0  0  0  0  0  0
  -22.7534  -29.2085   19.8872 H   0  0  0  0  0  0
  -25.1322  -36.1905   25.0806 H   0  0  0  0  0  0
  -20.9929  -28.3221   24.1519 H   0  0  0  0  0  0
  -20.5858  -26.2221   23.3612 H   0  0  0  0  0  0
  -21.6656  -26.7566   22.1161 H   0  0  0  0  0  0
  -19.6951  -25.6334   21.1266 H   0  0  0  0  0  0
  -19.6748  -27.3265   20.6853 H   0  0  0  0  0  0
  -17.4245  -26.6749   21.4008 H   0  0  0  0  0  0
  -18.0269  -26.0099   22.9027 H   0  0  0  0  0  0
  -19.7876  -30.7301   24.2325 H   0  0  0  0  0  0
  -17.4947  -31.6302   24.5125 H   0  0  0  0  0  0
  -15.5314  -30.2970   23.7690 H   0  0  0  0  0  0
  -15.8653  -28.0832   22.7073 H   0  0  0  0  0  0
  -24.6054  -30.6903   25.7651 H   0  0  0  0  0  0
  -24.8916  -32.2731   26.4766 H   0  0  0  0  0  0
  -25.8141  -30.8810   27.0105 H   0  0  0  0  0  0
  -26.2804  -29.6740   24.1137 H   0  0  0  0  0  0
  -27.4222  -29.7228   25.4367 H   0  0  0  0  0  0
  -27.8600  -30.4306   23.9001 H   0  0  0  0  0  0
  -27.2775  -33.3594   26.1913 H   0  0  0  0  0  0
  -28.3919  -32.6739   25.0181 H   0  0  0  0  0  0
  -28.0774  -31.8403   26.5304 H   0  0  0  0  0  0
  -28.2573  -38.0105   24.7556 H   0  0  0  0  0  0
  -28.1123  -36.2610   24.6251 H   0  0  0  0  0  0
  -27.2295  -37.1353   25.8876 H   0  0  0  0  0  0
  -20.9346  -29.8567   21.6858 H   0  0  0  0  0  0
  -26.0179  -38.2822   24.1479 H   0  0  0  0  0  0
  -29.2584  -18.8748   22.0253 H   0  0  0  0  0  0
  -30.2914  -16.6913   18.5899 H   0  0  0  0  0  0
  -28.5952  -15.2952   22.9309 H   0  0  0  0  0  0
  -27.8208  -15.4673   21.3525 H   0  0  0  0  0  0
  -28.1742  -16.8453   22.2989 H   0  0  0  0  0  0
  -30.5782  -17.1975   23.1193 H   0  0  0  0  0  0
  -31.9337  -16.5015   22.2412 H   0  0  0  0  0  0
  -30.9500  -15.4714   23.2537 H   0  0  0  0  0  0
  -28.2202  -21.0209   19.0079 H   0  0  0  0  0  0
  -29.8823  -21.4001   18.8409 H   0  0  0  0  0  0
  -29.8595  -22.4138   21.2019 H   0  0  0  0  0  0
  -28.1514  -22.1171   21.2383 H   0  0  0  0  0  0
  -27.9408  -23.6499   19.1160 H   0  0  0  0  0  0
  -29.6126  -24.0556   19.3033 H   0  0  0  0  0  0
  -28.9687  -25.1418   21.5666 H   0  0  0  0  0  0
  -27.3097  -24.9114   21.1530 H   0  0  0  0  0  0
  1 25  1  0  0  0
  1 30  2  0  0  0
  1 80  1  0  0  0
  2  3  1  0  0  0
  2 25  1  0  0  0
  2 83  1  0  0  0
  2 84  1  0  0  0
  3  4  1  0  0  0
  3 85  1  0  0  0
  3 86  1  0  0  0
  4  5  1  0  0  0
  4 87  1  0  0  0
  4 88  1  0  0  0
  5  6  1  0  0  0
  5 26  1  0  0  0
  5 89  1  0  0  0
  6 25  1  0  0  0
  6 90  1  0  0  0
  6 91  1  0  0  0
  7  8  2  0  0  0
  7 26  1  0  0  0
  7 29  1  0  0  0
  8  9  1  0  0  0
  8 22  1  0  0  0
  9 10  1  0  0  0
  9 27  2  0  0  0
 10 11  2  0  0  0
 10 15  1  0  0  0
 11 12  1  0  0  0
 11 92  1  0  0  0
 12 13  2  0  0  0
 12 93  1  0  0  0
 13 14  1  0  0  0
 13 31  1  0  0  0
 14 15  2  0  0  0
 14 94  1  0  0  0
 15 95  1  0  0  0
 16 17  2  0  0  0
 16 21  1  0  0  0
 16 31  1  0  0  0
 17 18  1  0  0  0
 17 96  1  0  0  0
 18 19  2  0  0  0
 18 97  1  0  0  0
 19 20  1  0  0  0
 19 24  1  0  0  0
 20 21  2  0  0  0
 20 98  1  0  0  0
 21 23  1  0  0  0
 22 28  1  0  0  0
 22 32  2  0  0  0
 26 27  1  0  0  0
 28 99  1  0  0  0
 28100  1  0  0  0
 29101  1  0  0  0
 29102  1  0  0  0
 33 34  1  0  0  0
 33 66  1  0  0  0
 33 70  2  0  0  0
 34 36  1  0  0  0
 34 59  1  0  0  0
 34103  1  0  0  0
 35 44  2  0  0  0
 35 45  1  0  0  0
 35 68  1  0  0  0
 36 56  1  0  0  0
 36104  1  0  0  0
 37 39  1  0  0  0
 37 47  1  0  0  0
 37 66  1  0  0  0
 37105  1  0  0  0
 38 43  2  0  0  0
 38 46  1  0  0  0
 38 47  1  0  0  0
 39 64  1  0  0  0
 39 67  2  0  0  0
 40 52  1  0  0  0
 40 53  2  0  0  0
 40 58  1  0  0  0
 41106  1  0  0  0
 41107  1  0  0  0
 41108  1  0  0  0
 41 48  1  0  0  0
 42 43  1  0  0  0
 42 66  1  0  0  0
 42109  1  0  0  0
 42110  1  0  0  0
 43 44  1  0  0  0
 44111  1  0  0  0
 45 46  2  0  0  0
 45112  1  0  0  0
 46113  1  0  0  0
 47114  1  0  0  0
 47115  1  0  0  0
 48 56  1  0  0  0
 48 65  1  0  0  0
 48116  1  0  0  0
 49 50  1  0  0  0
 49 53  1  0  0  0
 49 64  1  0  0  0
 49117  1  0  0  0
 50 51  1  0  0  0
 50118  1  0  0  0
 50119  1  0  0  0
 51 52  1  0  0  0
 51120  1  0  0  0
 51121  1  0  0  0
 52122  1  0  0  0
 52123  1  0  0  0
 53 54  1  0  0  0
 54 55  2  0  0  0
 54124  1  0  0  0
 55 57  1  0  0  0
 55125  1  0  0  0
 56 69  2  0  0  0
 57 58  2  0  0  0
 57126  1  0  0  0
 58127  1  0  0  0
 59 60  1  0  0  0
 59 61  1  0  0  0
 59 62  1  0  0  0
 60128  1  0  0  0
 60129  1  0  0  0
 60130  1  0  0  0
 61131  1  0  0  0
 61132  1  0  0  0
 61133  1  0  0  0
 62134  1  0  0  0
 62135  1  0  0  0
 62136  1  0  0  0
 63 65  1  0  0  0
 63137  1  0  0  0
 63138  1  0  0  0
 63139  1  0  0  0
 64140  1  0  0  0
 65141  1  0  0  0
 68 79  1  0  0  0
 71 73  2  0  0  0
 71 82  1  0  0  0
 71142  1  0  0  0
 72 81  2  0  0  0
 72 82  1  0  0  0
 72143  1  0  0  0
 73 76  1  0  0  0
 73 81  1  0  0  0
 74144  1  0  0  0
 74145  1  0  0  0
 74146  1  0  0  0
 74 80  1  0  0  0
 75 80  1  0  0  0
 75147  1  0  0  0
 75148  1  0  0  0
 75149  1  0  0  0
 76 77  1  0  0  0
 76150  1  0  0  0
 76151  1  0  0  0
 77 78  1  0  0  0
 77152  1  0  0  0
 77153  1  0  0  0
 78 79  1  0  0  0
 78154  1  0  0  0
 78155  1  0  0  0
 79156  1  0  0  0
 79157  1  0  0  0
 80 82  1  0  0  0
M  ISO  4   1 100  68 101  79 101  80 100
M  END
> <chiral flag>
0

> <version>
0

> <s_m_source_file>
/data/baiqing/PycharmProjects/Reinvent-master-3.2/result/LINK_invent/BTK/process_docking_weight1_custom_sum_contain_oxygen_bond_distance_aromatic_linkinvent_7_9_3/rearranged_h_0070.sdf

> <i_m_source_file_index>
21

> <r_mmod_Potential_Energy-OPLS-2005>
270.649688720703

> <r_mmod_Stretch_Energy-OPLS-2005>
133.569610595703

> <r_mmod_Bend_Energy-OPLS-2005>
225.919570922852

> <r_mmod_Torsional_Energy-OPLS-2005>
237.61669921875

> <r_mmod_Improper_Torsional_Energy-OPLS-2005>
2.56374549865723

> <r_mmod_Van_der_Waal_Energy-OPLS-2005>
128.464645385742

> <r_mmod_Electrostatic_Energy-OPLS-2005>
-313.383209228516

> <r_mmod_Solvation_Energy-OPLS-2005>
-201.787811279297

> <b_mmod_Minimization_Converged-OPLS-2005>
0

> <r_mmod_RMS_Derivative-OPLS-2005>
8.04790115356445

$$$$
21
                    3D
 Structure written by MMmdl.
175183  0  0  1  0            999 V2000
  -30.5688  -14.4736   20.5741 C   0  0  0  0  0  0
  -30.4557  -12.3079   19.3979 C   0  0  0  0  0  0
  -29.5094  -12.5081   18.1925 C   0  0  0  0  0  0
  -28.0268  -12.3641   18.6005 C   0  0  0  0  0  0
  -27.6649  -13.1750   19.8744 C   0  0  2  0  0  0
  -28.7016  -12.8549   20.9732 C   0  0  0  0  0  0
  -25.2520  -13.7896   20.5337 C   0  0  0  0  0  0
  -24.1793  -13.0354   20.9097 C   0  0  0  0  0  0
  -24.6325  -11.6794   20.8776 C   0  0  0  0  0  0
  -23.8945  -10.4218   21.0416 C   0  0  0  0  0  0
  -24.3472   -9.4141   21.9210 C   0  0  0  0  0  0
  -23.6167   -8.2175   22.0758 C   0  0  0  0  0  0
  -22.4182   -8.0183   21.3521 C   0  0  0  0  0  0
  -21.9789   -9.0168   20.4664 C   0  0  0  0  0  0
  -22.7099  -10.2056   20.3080 C   0  0  0  0  0  0
  -21.6806   -6.0645   22.5265 C   0  0  0  0  0  0
  -21.4009   -6.5576   23.8203 C   0  0  0  0  0  0
  -21.3652   -5.6743   24.9175 C   0  0  0  0  0  0
  -21.6041   -4.3006   24.7242 C   0  0  0  0  0  0
  -21.8831   -3.8077   23.4370 C   0  0  0  0  0  0
  -21.9189   -4.6879   22.3409 C   0  0  0  0  0  0
  -22.7816  -13.5177   21.1795 C   0  0  0  0  0  0
  -22.1644   -4.2059   21.0990 F   0  0  0  0  0  0
  -21.5628   -3.4517   25.7762 F   0  0  0  0  0  0
  -30.0316  -13.2304   20.4616 N   0  0  0  0  0  0
  -26.3031  -12.9084   20.3321 N   0  0  0  0  0  0
  -25.9257  -11.6298   20.5843 N   0  0  0  0  0  0
  -22.0431  -12.8259   22.0387 N   0  0  0  0  0  0
  -25.4201  -15.1467   20.3025 N   0  0  0  0  0  0
  -31.6391  -14.8006   20.0485 O   0  0  0  0  0  0
  -21.6575   -6.8770   21.4200 O   0  0  0  0  0  0
  -22.3529  -14.5497   20.6610 O   0  0  0  0  0  0
  -24.6104  -31.8667   23.2135 C   0  0  0  0  0  0
  -25.8994  -32.4835   23.8391 C   0  0  1  0  0  0
  -27.2332  -27.4512   20.0886 C   0  0  0  0  0  0
  -25.5865  -33.8644   24.2334 N   0  0  0  0  0  0
  -23.3952  -30.4916   21.5596 C   0  0  2  0  0  0
  -24.8365  -28.9580   20.1116 C   0  0  0  0  0  0
  -22.7375  -29.4634   22.5056 C   0  0  0  0  0  0
  -18.0247  -28.1435   22.8502 C   0  0  0  0  0  0
  -24.1472  -36.7333   23.2643 C   0  0  0  0  0  0
  -25.9175  -30.8349   21.3620 C   0  0  0  0  0  0
  -25.9925  -29.4711   20.7091 C   0  0  0  0  0  0
  -27.1851  -28.7221   20.6991 C   0  0  0  0  0  0
  -26.0536  -26.9371   19.4978 C   0  0  0  0  0  0
  -24.8628  -27.6881   19.5048 C   0  0  0  0  0  0
  -23.5966  -29.8253   20.1699 C   0  0  0  0  0  0
  -25.4099  -36.3155   24.0359 C   0  0  1  0  0  0
  -20.5823  -28.3665   23.1390 C   0  0  2  0  0  0
  -20.6724  -26.9439   22.5394 C   0  0  0  0  0  0
  -19.5720  -26.6453   21.5175 C   0  0  0  0  0  0
  -18.1910  -26.7993   22.1608 C   0  0  0  0  0  0
  -19.1496  -28.8870   23.2945 C   0  0  0  0  0  0
  -18.9468  -30.1462   23.8960 C   0  0  0  0  0  0
  -17.6472  -30.6680   24.0556 C   0  0  0  0  0  0
  -25.9028  -34.9497   23.5139 C   0  0  0  0  0  0
  -16.5356  -29.9150   23.6353 C   0  0  0  0  0  0
  -16.7245  -28.6555   23.0417 C   0  0  0  0  0  0
  -26.4427  -31.6616   25.0706 C   0  0  0  0  0  0
  -25.3696  -31.3697   26.1460 C   0  0  0  0  0  0
  -27.0249  -30.3068   24.6064 C   0  0  0  0  0  0
  -27.5996  -32.4326   25.7464 C   0  0  0  0  0  0
  -27.5589  -37.1828   24.8475 C   0  0  0  0  0  0
  -21.4108  -29.3078   22.3884 N   0  0  0  0  0  0
  -26.4302  -37.3830   23.9412 N   0  0  0  0  0  0
  -24.6589  -31.0768   22.1037 N   0  0  0  0  0  0
  -23.4139  -28.8100   23.3056 O   0  0  0  0  0  0
  -28.4450  -26.7974   20.1217 O   0  0  0  0  0  0
  -26.5590  -34.8953   22.4718 O   0  0  0  0  0  0
  -23.5306  -32.1448   23.7551 O   0  0  0  0  0  0
  -26.8887  -20.4830   21.4184 C   0  0  0  0  0  0
  -27.8423  -20.9646   20.5657 C   0  0  0  0  0  0
  -28.5800  -19.0234   21.4572 C   0  0  0  0  0  0
  -26.7861  -22.3011   18.7235 C   0  0  0  0  0  0
  -26.9624  -18.8875   24.4277 C   0  0  0  0  0  0
  -26.1313  -17.1593   22.6702 C   0  0  0  0  0  0
  -31.0250  -18.3864   21.3117 C   0  0  0  0  0  0
  -29.6416  -17.4070   23.1263 C   0  0  0  0  0  0
  -29.1133  -24.4812   20.3006 C   0  0  0  0  0  0
  -27.9729  -23.4980   20.6525 C   0  0  0  0  0  0
  -29.3411  -16.6955   20.6773 C   0  0  0  0  0  0
  -28.7052  -25.6226   19.3528 C   0  0  0  0  0  0
  -27.9241  -22.2313   19.7554 C   0  0  1  0  0  0
  -26.5171  -18.6022   22.9892 C   0  0  0  0  0  0
  -29.5987  -17.8788   21.6613 C   0  0  0  0  0  0
  -27.3394  -19.3012   21.9613 N   0  0  0  0  0  0
  -28.8383  -20.0240   20.6025 N   0  3  0  0  0  0
  -29.7311  -15.3544   21.1585 N   0  0  0  0  0  0
  -31.4950  -12.4718   19.1071 H   0  0  0  0  0  0
  -30.4107  -11.2747   19.7456 H   0  0  0  0  0  0
  -29.7482  -11.7946   17.4021 H   0  0  0  0  0  0
  -29.6804  -13.4962   17.7637 H   0  0  0  0  0  0
  -27.8449  -11.3097   18.7936 H   0  0  0  0  0  0
  -27.3714  -12.6310   17.7727 H   0  0  0  0  0  0
  -27.7289  -14.2311   19.6132 H   0  0  0  0  0  0
  -28.6937  -11.7808   21.1635 H   0  0  0  0  0  0
  -28.4533  -13.3131   21.9301 H   0  0  0  0  0  0
  -25.2600   -9.5622   22.4817 H   0  0  0  0  0  0
  -23.9879   -7.4546   22.7451 H   0  0  0  0  0  0
  -21.0752   -8.8640   19.8954 H   0  0  0  0  0  0
  -22.3529  -10.9570   19.6194 H   0  0  0  0  0  0
  -21.1997   -7.6101   23.9677 H   0  0  0  0  0  0
  -21.1471   -6.0491   25.9080 H   0  0  0  0  0  0
  -22.0623   -2.7541   23.2911 H   0  0  0  0  0  0
  -22.3957  -11.9910   22.4835 H   0  0  0  0  0  0
  -21.1064  -13.1364   22.2586 H   0  0  0  0  0  0
  -24.6101  -15.7562   20.2788 H   0  0  0  0  0  0
  -26.2174  -15.5146   19.8023 H   0  0  0  0  0  0
  -26.7027  -32.5544   23.1118 H   0  0  0  0  0  0
  -24.9981  -33.9781   25.0455 H   0  0  0  0  0  0
  -22.6816  -31.3054   21.4310 H   0  0  0  0  0  0
  -23.3746  -35.9654   23.3327 H   0  0  0  0  0  0
  -24.3563  -36.8919   22.2054 H   0  0  0  0  0  0
  -23.7199  -37.6543   23.6624 H   0  0  0  0  0  0
  -26.0259  -31.6019   20.5938 H   0  0  0  0  0  0
  -26.8048  -30.8831   21.9833 H   0  0  0  0  0  0
  -28.0787  -29.1211   21.1577 H   0  0  0  0  0  0
  -26.0198  -25.9602   19.0402 H   0  0  0  0  0  0
  -23.9696  -27.2813   19.0509 H   0  0  0  0  0  0
  -23.7058  -30.6088   19.4194 H   0  0  0  0  0  0
  -22.7153  -29.2536   19.8724 H   0  0  0  0  0  0
  -25.1276  -36.2033   25.0857 H   0  0  0  0  0  0
  -20.9821  -28.3148   24.1546 H   0  0  0  0  0  0
  -20.5586  -26.2250   23.3524 H   0  0  0  0  0  0
  -21.6598  -26.7494   22.1200 H   0  0  0  0  0  0
  -19.6919  -25.6354   21.1276 H   0  0  0  0  0  0
  -19.6746  -27.3229   20.6679 H   0  0  0  0  0  0
  -17.4091  -26.6682   21.4113 H   0  0  0  0  0  0
  -18.0401  -26.0157   22.9052 H   0  0  0  0  0  0
  -19.7958  -30.7247   24.2379 H   0  0  0  0  0  0
  -17.5072  -31.6393   24.5093 H   0  0  0  0  0  0
  -15.5391  -30.3092   23.7729 H   0  0  0  0  0  0
  -15.8592  -28.0916   22.7201 H   0  0  0  0  0  0
  -24.5859  -30.7056   25.7797 H   0  0  0  0  0  0
  -24.8897  -32.2845   26.4955 H   0  0  0  0  0  0
  -25.8070  -30.8832   27.0192 H   0  0  0  0  0  0
  -26.2781  -29.6839   24.1126 H   0  0  0  0  0  0
  -27.4033  -29.7307   25.4522 H   0  0  0  0  0  0
  -27.8617  -30.4417   23.9198 H   0  0  0  0  0  0
  -27.2601  -33.3600   26.2103 H   0  0  0  0  0  0
  -28.3772  -32.6935   25.0264 H   0  0  0  0  0  0
  -28.0689  -31.8401   26.5335 H   0  0  0  0  0  0
  -28.2638  -38.0099   24.7526 H   0  0  0  0  0  0
  -28.1051  -36.2641   24.6298 H   0  0  0  0  0  0
  -27.2300  -37.1487   25.8874 H   0  0  0  0  0  0
  -20.9236  -29.8993   21.7323 H   0  0  0  0  0  0
  -26.0211  -38.2923   24.1396 H   0  0  0  0  0  0
  -25.9400  -20.9166   21.6940 H   0  0  0  0  0  0
  -25.8126  -22.1261   19.1775 H   0  0  0  0  0  0
  -26.9233  -21.5378   17.9603 H   0  0  0  0  0  0
  -26.7377  -23.2702   18.2208 H   0  0  0  0  0  0
  -26.1383  -18.7089   25.1192 H   0  0  0  0  0  0
  -27.2635  -19.9303   24.5330 H   0  0  0  0  0  0
  -27.7867  -18.2652   24.7551 H   0  0  0  0  0  0
  -25.4566  -16.7403   23.4178 H   0  0  0  0  0  0
  -26.9695  -16.4859   22.5687 H   0  0  0  0  0  0
  -25.5951  -17.1596   21.7320 H   0  0  0  0  0  0
  -31.1267  -18.6504   20.2570 H   0  0  0  0  0  0
  -31.7685  -17.6074   21.4867 H   0  0  0  0  0  0
  -31.3209  -19.2618   21.8911 H   0  0  0  0  0  0
  -29.7280  -18.2493   23.8104 H   0  0  0  0  0  0
  -30.5080  -16.7752   23.3101 H   0  0  0  0  0  0
  -28.7931  -16.7996   23.4210 H   0  0  0  0  0  0
  -29.9541  -23.9327   19.8769 H   0  0  0  0  0  0
  -29.5201  -24.9106   21.2173 H   0  0  0  0  0  0
  -27.0115  -24.0155   20.6619 H   0  0  0  0  0  0
  -28.1247  -23.1942   21.6881 H   0  0  0  0  0  0
  -28.2671  -16.6524   20.4899 H   0  0  0  0  0  0
  -29.7854  -16.8777   19.6939 H   0  0  0  0  0  0
  -27.9371  -25.3171   18.6443 H   0  0  0  0  0  0
  -29.5677  -25.8772   18.7378 H   0  0  0  0  0  0
  -28.8590  -22.1686   19.1964 H   0  0  0  0  0  0
  -25.5320  -19.0776   22.9385 H   0  0  0  0  0  0
  -29.7036  -20.0913   20.0791 H   0  0  0  0  0  0
  -28.9989  -14.8999   21.6808 H   0  0  0  0  0  0
  1 25  1  0  0  0
  1 30  2  0  0  0
  1 88  1  0  0  0
  2  3  1  0  0  0
  2 25  1  0  0  0
  2 89  1  0  0  0
  2 90  1  0  0  0
  3  4  1  0  0  0
  3 91  1  0  0  0
  3 92  1  0  0  0
  4  5  1  0  0  0
  4 93  1  0  0  0
  4 94  1  0  0  0
  5  6  1  0  0  0
  5 26  1  0  0  0
  5 95  1  0  0  0
  6 25  1  0  0  0
  6 96  1  0  0  0
  6 97  1  0  0  0
  7  8  2  0  0  0
  7 26  1  0  0  0
  7 29  1  0  0  0
  8  9  1  0  0  0
  8 22  1  0  0  0
  9 10  1  0  0  0
  9 27  2  0  0  0
 10 11  2  0  0  0
 10 15  1  0  0  0
 11 12  1  0  0  0
 11 98  1  0  0  0
 12 13  2  0  0  0
 12 99  1  0  0  0
 13 14  1  0  0  0
 13 31  1  0  0  0
 14 15  2  0  0  0
 14100  1  0  0  0
 15101  1  0  0  0
 16 17  2  0  0  0
 16 21  1  0  0  0
 16 31  1  0  0  0
 17 18  1  0  0  0
 17102  1  0  0  0
 18 19  2  0  0  0
 18103  1  0  0  0
 19 20  1  0  0  0
 19 24  1  0  0  0
 20 21  2  0  0  0
 20104  1  0  0  0
 21 23  1  0  0  0
 22 28  1  0  0  0
 22 32  2  0  0  0
 26 27  1  0  0  0
 28105  1  0  0  0
 28106  1  0  0  0
 29107  1  0  0  0
 29108  1  0  0  0
 33 34  1  0  0  0
 33 66  1  0  0  0
 33 70  2  0  0  0
 34 36  1  0  0  0
 34 59  1  0  0  0
 34109  1  0  0  0
 35 44  2  0  0  0
 35 45  1  0  0  0
 35 68  1  0  0  0
 36 56  1  0  0  0
 36110  1  0  0  0
 37 39  1  0  0  0
 37 47  1  0  0  0
 37 66  1  0  0  0
 37111  1  0  0  0
 38 43  2  0  0  0
 38 46  1  0  0  0
 38 47  1  0  0  0
 39 64  1  0  0  0
 39 67  2  0  0  0
 40 52  1  0  0  0
 40 53  2  0  0  0
 40 58  1  0  0  0
 41112  1  0  0  0
 41113  1  0  0  0
 41114  1  0  0  0
 41 48  1  0  0  0
 42 43  1  0  0  0
 42 66  1  0  0  0
 42115  1  0  0  0
 42116  1  0  0  0
 43 44  1  0  0  0
 44117  1  0  0  0
 45 46  2  0  0  0
 45118  1  0  0  0
 46119  1  0  0  0
 47120  1  0  0  0
 47121  1  0  0  0
 48 56  1  0  0  0
 48 65  1  0  0  0
 48122  1  0  0  0
 49 50  1  0  0  0
 49 53  1  0  0  0
 49 64  1  0  0  0
 49123  1  0  0  0
 50 51  1  0  0  0
 50124  1  0  0  0
 50125  1  0  0  0
 51 52  1  0  0  0
 51126  1  0  0  0
 51127  1  0  0  0
 52128  1  0  0  0
 52129  1  0  0  0
 53 54  1  0  0  0
 54 55  2  0  0  0
 54130  1  0  0  0
 55 57  1  0  0  0
 55131  1  0  0  0
 56 69  2  0  0  0
 57 58  2  0  0  0
 57132  1  0  0  0
 58133  1  0  0  0
 59 60  1  0  0  0
 59 61  1  0  0  0
 59 62  1  0  0  0
 60134  1  0  0  0
 60135  1  0  0  0
 60136  1  0  0  0
 61137  1  0  0  0
 61138  1  0  0  0
 61139  1  0  0  0
 62140  1  0  0  0
 62141  1  0  0  0
 62142  1  0  0  0
 63 65  1  0  0  0
 63143  1  0  0  0
 63144  1  0  0  0
 63145  1  0  0  0
 64146  1  0  0  0
 65147  1  0  0  0
 68 82  1  0  0  0
 71 72  2  0  0  0
 71 86  1  0  0  0
 71148  1  0  0  0
 72 83  1  0  0  0
 72 87  1  0  0  0
 73 85  1  0  0  0
 73 86  1  0  0  0
 73 87  2  0  0  0
 74149  1  0  0  0
 74150  1  0  0  0
 74151  1  0  0  0
 74 83  1  0  0  0
 75152  1  0  0  0
 75153  1  0  0  0
 75154  1  0  0  0
 75 84  1  0  0  0
 76 84  1  0  0  0
 76155  1  0  0  0
 76156  1  0  0  0
 76157  1  0  0  0
 77158  1  0  0  0
 77159  1  0  0  0
 77160  1  0  0  0
 77 85  1  0  0  0
 78 85  1  0  0  0
 78161  1  0  0  0
 78162  1  0  0  0
 78163  1  0  0  0
 79 80  1  0  0  0
 79 82  1  0  0  0
 79164  1  0  0  0
 79165  1  0  0  0
 80 83  1  0  0  0
 80166  1  0  0  0
 80167  1  0  0  0
 81 85  1  0  0  0
 81 88  1  0  0  0
 81168  1  0  0  0
 81169  1  0  0  0
 82170  1  0  0  0
 82171  1  0  0  0
 83172  1  0  0  0
 84 86  1  0  0  0
 84173  1  0  0  0
 87174  1  0  0  0
 88175  1  0  0  0
M  CHG  1  87   1
M  ISO  4   1 100  68 101  82 101  88 100
M  END
> <chiral flag>
0

> <version>
0

> <s_m_source_file>
/data/baiqing/PycharmProjects/Reinvent-master-3.2/result/LINK_invent/BTK/process_docking_weight1_custom_sum_contain_oxygen_bond_distance_aromatic_linkinvent_7_9_3/rearranged_h_0070.sdf

> <i_m_source_file_index>
22

> <r_mmod_Potential_Energy-OPLS-2005>
25.6723594665527

> <r_mmod_Stretch_Energy-OPLS-2005>
42.0588798522949

> <r_mmod_Bend_Energy-OPLS-2005>
156.408264160156

> <r_mmod_Torsional_Energy-OPLS-2005>
319.100982666016

> <r_mmod_Improper_Torsional_Energy-OPLS-2005>
8.67293548583984

> <r_mmod_Van_der_Waal_Energy-OPLS-2005>
140.170471191406

> <r_mmod_Electrostatic_Energy-OPLS-2005>
-265.361602783203

> <r_mmod_Solvation_Energy-OPLS-2005>
-397.82470703125

> <b_mmod_Minimization_Converged-OPLS-2005>
0

> <r_mmod_RMS_Derivative-OPLS-2005>
8.17960357666016

$$$$
22
                    3D
 Structure written by MMmdl.
161169  0  0  1  0            999 V2000
  -30.6264  -14.5965   20.5495 C   0  0  0  0  0  0
  -30.4351  -12.3816   19.4325 C   0  0  0  0  0  0
  -29.4996  -12.5076   18.2100 C   0  0  0  0  0  0
  -28.0217  -12.3470   18.6225 C   0  0  0  0  0  0
  -27.6502  -13.2085   19.8594 C   0  0  2  0  0  0
  -28.6931  -13.0353   20.9844 C   0  0  0  0  0  0
  -25.2553  -13.8155   20.5659 C   0  0  0  0  0  0
  -24.1812  -13.0438   20.9182 C   0  0  0  0  0  0
  -24.6363  -11.6905   20.8726 C   0  0  0  0  0  0
  -23.9040  -10.4292   21.0401 C   0  0  0  0  0  0
  -24.3601   -9.4214   21.9178 C   0  0  0  0  0  0
  -23.6285   -8.2248   22.0752 C   0  0  0  0  0  0
  -22.4270   -8.0277   21.3543 C   0  0  0  0  0  0
  -21.9899   -9.0248   20.4647 C   0  0  0  0  0  0
  -22.7215  -10.2130   20.3052 C   0  0  0  0  0  0
  -21.6854   -6.0736   22.5281 C   0  0  0  0  0  0
  -21.4012   -6.5638   23.8214 C   0  0  0  0  0  0
  -21.3657   -5.6790   24.9175 C   0  0  0  0  0  0
  -21.6047   -4.3054   24.7224 C   0  0  0  0  0  0
  -21.8821   -3.8145   23.4348 C   0  0  0  0  0  0
  -21.9192   -4.6963   22.3404 C   0  0  0  0  0  0
  -22.7839  -13.5245   21.1863 C   0  0  0  0  0  0
  -22.1662   -4.2149   21.0979 F   0  0  0  0  0  0
  -21.5631   -3.4537   25.7739 F   0  0  0  0  0  0
  -30.0064  -13.3850   20.4229 N   0  0  0  0  0  0
  -26.2959  -12.9314   20.3285 N   0  0  0  0  0  0
  -25.9284  -11.6483   20.5730 N   0  0  0  0  0  0
  -22.0484  -12.8228   22.0414 N   0  0  0  0  0  0
  -25.4284  -15.1870   20.4055 N   0  0  0  0  0  0
  -31.7911  -14.7765   20.1796 O   0  0  0  0  0  0
  -21.6636   -6.8874   21.4244 O   0  0  0  0  0  0
  -22.3533  -14.5563   20.6721 O   0  0  0  0  0  0
  -24.6220  -31.8617   23.2058 C   0  0  0  0  0  0
  -25.9080  -32.4801   23.8374 C   0  0  1  0  0  0
  -27.2354  -27.3582   20.1353 C   0  0  0  0  0  0
  -25.5908  -33.8597   24.2302 N   0  0  0  0  0  0
  -23.4165  -30.4819   21.5462 C   0  0  2  0  0  0
  -24.8663  -28.9284   20.1307 C   0  0  0  0  0  0
  -22.7465  -29.4630   22.4975 C   0  0  0  0  0  0
  -18.0286  -28.1391   22.8480 C   0  0  0  0  0  0
  -24.1479  -36.7281   23.2641 C   0  0  0  0  0  0
  -25.9515  -30.8028   21.3730 C   0  0  0  0  0  0
  -26.0284  -29.4244   20.7367 C   0  0  0  0  0  0
  -27.2191  -28.6472   20.7361 C   0  0  0  0  0  0
  -26.0567  -26.8911   19.5245 C   0  0  0  0  0  0
  -24.8767  -27.6615   19.5229 C   0  0  0  0  0  0
  -23.6350  -29.8073   20.1656 C   0  0  0  0  0  0
  -25.4105  -36.3092   24.0342 C   0  0  1  0  0  0
  -20.5885  -28.3676   23.1300 C   0  0  2  0  0  0
  -20.6783  -26.9408   22.5416 C   0  0  0  0  0  0
  -19.5760  -26.6386   21.5218 C   0  0  0  0  0  0
  -18.1928  -26.7939   22.1614 C   0  0  0  0  0  0
  -19.1538  -28.8852   23.2885 C   0  0  0  0  0  0
  -18.9469  -30.1458   23.8895 C   0  0  0  0  0  0
  -17.6467  -30.6592   24.0560 C   0  0  0  0  0  0
  -25.9035  -34.9462   23.5118 C   0  0  0  0  0  0
  -16.5353  -29.9092   23.6327 C   0  0  0  0  0  0
  -16.7273  -28.6509   23.0346 C   0  0  0  0  0  0
  -26.4480  -31.6603   25.0724 C   0  0  0  0  0  0
  -25.3724  -31.3730   26.1456 C   0  0  0  0  0  0
  -27.0328  -30.3043   24.6151 C   0  0  0  0  0  0
  -27.6049  -32.4329   25.7487 C   0  0  0  0  0  0
  -27.5576  -37.1798   24.8474 C   0  0  0  0  0  0
  -21.4182  -29.3033   22.3702 N   0  0  0  0  0  0
  -26.4284  -37.3786   23.9419 N   0  0  0  0  0  0
  -24.6816  -31.0661   22.0997 N   0  0  0  0  0  0
  -23.4195  -28.8189   23.3069 O   0  0  0  0  0  0
  -28.3801  -26.5884   19.9916 O   0  0  0  0  0  0
  -26.5604  -34.8919   22.4686 O   0  0  0  0  0  0
  -23.5380  -32.1386   23.7391 O   0  0  0  0  0  0
  -27.0594  -24.0317   21.8295 C   0  0  0  0  0  0
  -28.2556  -24.2491   21.1387 C   0  0  0  0  0  0
  -26.7033  -22.7098   22.1209 C   0  0  0  0  0  0
  -28.5827  -21.9306   21.0668 C   0  0  0  0  0  0
  -25.8429  -21.8694   24.3390 C   0  0  0  0  0  0
  -24.4889  -21.4792   22.2017 C   0  0  0  0  0  0
  -28.8196  -25.7017   21.0552 C   0  0  0  0  0  0
  -29.5537  -18.2407   20.5844 C   0  0  0  0  0  0
  -30.1831  -17.0236   21.3867 C   0  0  0  0  0  0
  -29.3890  -19.6039   21.3856 C   0  0  0  0  0  0
  -25.4644  -22.4008   22.9484 C   0  0  0  0  0  0
  -29.0003  -23.1702   20.7306 N   0  0  0  0  0  0
  -27.4742  -21.6703   21.7464 N   0  0  0  0  0  0
  -29.8338  -15.6275   20.9645 N   0  0  0  0  0  0
  -29.3288  -20.8611   20.6221 O   0  0  0  0  0  0
  -31.4736  -12.5202   19.1280 H   0  0  0  0  0  0
  -30.3779  -11.3798   19.8615 H   0  0  0  0  0  0
  -29.7613  -11.7622   17.4579 H   0  0  0  0  0  0
  -29.6414  -13.4810   17.7372 H   0  0  0  0  0  0
  -27.8518  -11.2923   18.8417 H   0  0  0  0  0  0
  -27.3682  -12.5917   17.7839 H   0  0  0  0  0  0
  -27.6773  -14.2481   19.5319 H   0  0  0  0  0  0
  -28.7028  -12.0032   21.3396 H   0  0  0  0  0  0
  -28.4384  -13.6429   21.8538 H   0  0  0  0  0  0
  -25.2754   -9.5698   22.4744 H   0  0  0  0  0  0
  -24.0005   -7.4640   22.7461 H   0  0  0  0  0  0
  -21.0841   -8.8759   19.8944 H   0  0  0  0  0  0
  -22.3678  -10.9665   19.6155 H   0  0  0  0  0  0
  -21.1999   -7.6148   23.9720 H   0  0  0  0  0  0
  -21.1478   -6.0518   25.9078 H   0  0  0  0  0  0
  -22.0600   -2.7608   23.2846 H   0  0  0  0  0  0
  -22.4104  -11.9880   22.4783 H   0  0  0  0  0  0
  -21.1107  -13.1247   22.2637 H   0  0  0  0  0  0
  -24.6604  -15.8415   20.5056 H   0  0  0  0  0  0
  -26.2755  -15.6230   20.0645 H   0  0  0  0  0  0
  -26.7146  -32.5476   23.1123 H   0  0  0  0  0  0
  -25.0105  -33.9769   25.0482 H   0  0  0  0  0  0
  -22.7093  -31.3004   21.3973 H   0  0  0  0  0  0
  -23.3755  -35.9599   23.3313 H   0  0  0  0  0  0
  -24.3572  -36.8881   22.2051 H   0  0  0  0  0  0
  -23.7231  -37.6489   23.6649 H   0  0  0  0  0  0
  -26.0756  -31.5579   20.5948 H   0  0  0  0  0  0
  -26.8368  -30.8619   21.9956 H   0  0  0  0  0  0
  -28.1225  -29.0396   21.1828 H   0  0  0  0  0  0
  -26.0545  -25.9231   19.0424 H   0  0  0  0  0  0
  -23.9868  -27.2716   19.0482 H   0  0  0  0  0  0
  -23.7615  -30.5766   19.4033 H   0  0  0  0  0  0
  -22.7579  -29.2332   19.8618 H   0  0  0  0  0  0
  -25.1294  -36.1937   25.0840 H   0  0  0  0  0  0
  -20.9955  -28.3230   24.1430 H   0  0  0  0  0  0
  -20.5700  -26.2277   23.3605 H   0  0  0  0  0  0
  -21.6648  -26.7464   22.1192 H   0  0  0  0  0  0
  -19.6919  -25.6302   21.1235 H   0  0  0  0  0  0
  -19.6702  -27.3205   20.6757 H   0  0  0  0  0  0
  -17.4208  -26.6688   21.4004 H   0  0  0  0  0  0
  -18.0308  -26.0099   22.9025 H   0  0  0  0  0  0
  -19.7950  -30.7268   24.2257 H   0  0  0  0  0  0
  -17.5033  -31.6274   24.5162 H   0  0  0  0  0  0
  -15.5354  -30.2991   23.7681 H   0  0  0  0  0  0
  -15.8672  -28.0834   22.7062 H   0  0  0  0  0  0
  -24.5912  -30.7063   25.7787 H   0  0  0  0  0  0
  -24.8897  -32.2894   26.4861 H   0  0  0  0  0  0
  -25.8052  -30.8925   27.0244 H   0  0  0  0  0  0
  -26.2898  -29.6790   24.1190 H   0  0  0  0  0  0
  -27.4083  -29.7291   25.4625 H   0  0  0  0  0  0
  -27.8729  -30.4365   23.9332 H   0  0  0  0  0  0
  -27.2686  -33.3640   26.2059 H   0  0  0  0  0  0
  -28.3866  -32.6877   25.0317 H   0  0  0  0  0  0
  -28.0720  -31.8462   26.5411 H   0  0  0  0  0  0
  -28.2606  -38.0086   24.7526 H   0  0  0  0  0  0
  -28.1064  -36.2620   24.6292 H   0  0  0  0  0  0
  -27.2296  -37.1440   25.8881 H   0  0  0  0  0  0
  -20.9362  -29.8724   21.6883 H   0  0  0  0  0  0
  -26.0157  -38.2858   24.1434 H   0  0  0  0  0  0
  -26.4719  -24.8671   22.1889 H   0  0  0  0  0  0
  -26.4680  -22.5907   24.8670 H   0  0  0  0  0  0
  -26.4027  -20.9375   24.2658 H   0  0  0  0  0  0
  -24.9581  -21.6861   24.9476 H   0  0  0  0  0  0
  -24.2054  -21.9170   21.2436 H   0  0  0  0  0  0
  -23.5778  -21.3219   22.7780 H   0  0  0  0  0  0
  -24.9335  -20.5035   22.0042 H   0  0  0  0  0  0
  -29.9040  -25.6291   20.9714 H   0  0  0  0  0  0
  -28.6439  -26.1930   22.0136 H   0  0  0  0  0  0
  -28.5748  -17.9546   20.1978 H   0  0  0  0  0  0
  -30.1753  -18.4201   19.7069 H   0  0  0  0  0  0
  -29.8536  -17.1005   22.4238 H   0  0  0  0  0  0
  -31.2682  -17.1357   21.4270 H   0  0  0  0  0  0
  -30.2534  -19.7106   22.0404 H   0  0  0  0  0  0
  -28.5435  -19.4833   22.0624 H   0  0  0  0  0  0
  -24.9371  -23.3425   23.1055 H   0  0  0  0  0  0
  -28.8814  -15.3507   21.1531 H   0  0  0  0  0  0
  1 25  1  0  0  0
  1 30  2  0  0  0
  1 84  1  0  0  0
  2  3  1  0  0  0
  2 25  1  0  0  0
  2 86  1  0  0  0
  2 87  1  0  0  0
  3  4  1  0  0  0
  3 88  1  0  0  0
  3 89  1  0  0  0
  4  5  1  0  0  0
  4 90  1  0  0  0
  4 91  1  0  0  0
  5  6  1  0  0  0
  5 26  1  0  0  0
  5 92  1  0  0  0
  6 25  1  0  0  0
  6 93  1  0  0  0
  6 94  1  0  0  0
  7  8  2  0  0  0
  7 26  1  0  0  0
  7 29  1  0  0  0
  8  9  1  0  0  0
  8 22  1  0  0  0
  9 10  1  0  0  0
  9 27  2  0  0  0
 10 11  2  0  0  0
 10 15  1  0  0  0
 11 12  1  0  0  0
 11 95  1  0  0  0
 12 13  2  0  0  0
 12 96  1  0  0  0
 13 14  1  0  0  0
 13 31  1  0  0  0
 14 15  2  0  0  0
 14 97  1  0  0  0
 15 98  1  0  0  0
 16 17  2  0  0  0
 16 21  1  0  0  0
 16 31  1  0  0  0
 17 18  1  0  0  0
 17 99  1  0  0  0
 18 19  2  0  0  0
 18100  1  0  0  0
 19 20  1  0  0  0
 19 24  1  0  0  0
 20 21  2  0  0  0
 20101  1  0  0  0
 21 23  1  0  0  0
 22 28  1  0  0  0
 22 32  2  0  0  0
 26 27  1  0  0  0
 28102  1  0  0  0
 28103  1  0  0  0
 29104  1  0  0  0
 29105  1  0  0  0
 33 34  1  0  0  0
 33 66  1  0  0  0
 33 70  2  0  0  0
 34 36  1  0  0  0
 34 59  1  0  0  0
 34106  1  0  0  0
 35 44  2  0  0  0
 35 45  1  0  0  0
 35 68  1  0  0  0
 36 56  1  0  0  0
 36107  1  0  0  0
 37 39  1  0  0  0
 37 47  1  0  0  0
 37 66  1  0  0  0
 37108  1  0  0  0
 38 43  2  0  0  0
 38 46  1  0  0  0
 38 47  1  0  0  0
 39 64  1  0  0  0
 39 67  2  0  0  0
 40 52  1  0  0  0
 40 53  2  0  0  0
 40 58  1  0  0  0
 41109  1  0  0  0
 41110  1  0  0  0
 41111  1  0  0  0
 41 48  1  0  0  0
 42 43  1  0  0  0
 42 66  1  0  0  0
 42112  1  0  0  0
 42113  1  0  0  0
 43 44  1  0  0  0
 44114  1  0  0  0
 45 46  2  0  0  0
 45115  1  0  0  0
 46116  1  0  0  0
 47117  1  0  0  0
 47118  1  0  0  0
 48 56  1  0  0  0
 48 65  1  0  0  0
 48119  1  0  0  0
 49 50  1  0  0  0
 49 53  1  0  0  0
 49 64  1  0  0  0
 49120  1  0  0  0
 50 51  1  0  0  0
 50121  1  0  0  0
 50122  1  0  0  0
 51 52  1  0  0  0
 51123  1  0  0  0
 51124  1  0  0  0
 52125  1  0  0  0
 52126  1  0  0  0
 53 54  1  0  0  0
 54 55  2  0  0  0
 54127  1  0  0  0
 55 57  1  0  0  0
 55128  1  0  0  0
 56 69  2  0  0  0
 57 58  2  0  0  0
 57129  1  0  0  0
 58130  1  0  0  0
 59 60  1  0  0  0
 59 61  1  0  0  0
 59 62  1  0  0  0
 60131  1  0  0  0
 60132  1  0  0  0
 60133  1  0  0  0
 61134  1  0  0  0
 61135  1  0  0  0
 61136  1  0  0  0
 62137  1  0  0  0
 62138  1  0  0  0
 62139  1  0  0  0
 63 65  1  0  0  0
 63140  1  0  0  0
 63141  1  0  0  0
 63142  1  0  0  0
 64143  1  0  0  0
 65144  1  0  0  0
 68 77  1  0  0  0
 71 72  2  0  0  0
 71 73  1  0  0  0
 71145  1  0  0  0
 72 77  1  0  0  0
 72 82  1  0  0  0
 73 81  1  0  0  0
 73 83  2  0  0  0
 74 82  2  0  0  0
 74 83  1  0  0  0
 74 85  1  0  0  0
 75146  1  0  0  0
 75147  1  0  0  0
 75148  1  0  0  0
 75 81  1  0  0  0
 76 81  1  0  0  0
 76149  1  0  0  0
 76150  1  0  0  0
 76151  1  0  0  0
 77152  1  0  0  0
 77153  1  0  0  0
 78 79  1  0  0  0
 78 80  1  0  0  0
 78154  1  0  0  0
 78155  1  0  0  0
 79 84  1  0  0  0
 79156  1  0  0  0
 79157  1  0  0  0
 80 85  1  0  0  0
 80158  1  0  0  0
 80159  1  0  0  0
 81160  1  0  0  0
 84161  1  0  0  0
M  ISO  4   1 100  68 101  77 101  84 100
M  END
> <chiral flag>
0

> <version>
0

> <s_m_source_file>
/data/baiqing/PycharmProjects/Reinvent-master-3.2/result/LINK_invent/BTK/process_docking_weight1_custom_sum_contain_oxygen_bond_distance_aromatic_linkinvent_7_9_3/rearranged_h_0070.sdf

> <i_m_source_file_index>
23

> <r_mmod_Potential_Energy-OPLS-2005>
-430.975433349609

> <r_mmod_Stretch_Energy-OPLS-2005>
64.4051132202148

> <r_mmod_Bend_Energy-OPLS-2005>
141.660552978516

> <r_mmod_Torsional_Energy-OPLS-2005>
240.143981933594

> <r_mmod_Improper_Torsional_Energy-OPLS-2005>
5.27181148529053

> <r_mmod_Van_der_Waal_Energy-OPLS-2005>
147.120590209961

> <r_mmod_Electrostatic_Energy-OPLS-2005>
-835.837646484375

> <r_mmod_Solvation_Energy-OPLS-2005>
-226.110275268555

> <b_mmod_Minimization_Converged-OPLS-2005>
0

> <r_mmod_RMS_Derivative-OPLS-2005>
1.94926619529724

$$$$
23
                    3D
 Structure written by MMmdl.
170178  0  0  1  0            999 V2000
  -30.7819  -14.5539   20.3597 C   0  0  0  0  0  0
  -30.4013  -12.3364   19.4168 C   0  0  0  0  0  0
  -29.4619  -12.3948   18.2003 C   0  0  0  0  0  0
  -27.9889  -12.2760   18.6365 C   0  0  0  0  0  0
  -27.6237  -13.1816   19.8405 C   0  0  2  0  0  0
  -28.6997  -13.1617   20.9464 C   0  0  0  0  0  0
  -25.2501  -13.8111   20.5811 C   0  0  0  0  0  0
  -24.1705  -13.0393   20.9175 C   0  0  0  0  0  0
  -24.6265  -11.6882   20.8741 C   0  0  0  0  0  0
  -23.8953  -10.4294   21.0387 C   0  0  0  0  0  0
  -24.3557   -9.4253   21.9172 C   0  0  0  0  0  0
  -23.6253   -8.2286   22.0762 C   0  0  0  0  0  0
  -22.4238   -8.0295   21.3551 C   0  0  0  0  0  0
  -21.9847   -9.0253   20.4663 C   0  0  0  0  0  0
  -22.7145  -10.2137   20.3037 C   0  0  0  0  0  0
  -21.6854   -6.0722   22.5265 C   0  0  0  0  0  0
  -21.4027   -6.5626   23.8199 C   0  0  0  0  0  0
  -21.3622   -5.6775   24.9150 C   0  0  0  0  0  0
  -21.6009   -4.3038   24.7193 C   0  0  0  0  0  0
  -21.8851   -3.8138   23.4323 C   0  0  0  0  0  0
  -21.9223   -4.6951   22.3379 C   0  0  0  0  0  0
  -22.7753  -13.5214   21.1784 C   0  0  0  0  0  0
  -22.1679   -4.2135   21.0956 F   0  0  0  0  0  0
  -21.5614   -3.4518   25.7707 F   0  0  0  0  0  0
  -30.0083  -13.4284   20.3277 N   0  0  0  0  0  0
  -26.2851  -12.9182   20.3430 N   0  0  0  0  0  0
  -25.9182  -11.6390   20.5882 N   0  0  0  0  0  0
  -22.0380  -12.8235   22.0390 N   0  0  0  0  0  0
  -25.4333  -15.1853   20.4453 N   0  0  0  0  0  0
  -32.0024  -14.4073   20.3103 O   0  0  0  0  0  0
  -21.6645   -6.8863   21.4226 O   0  0  0  0  0  0
  -22.3444  -14.5488   20.6610 O   0  0  0  0  0  0
  -24.6286  -31.8776   23.2184 C   0  0  0  0  0  0
  -25.9163  -32.4865   23.8464 C   0  0  1  0  0  0
  -27.2632  -27.4595   20.1101 C   0  0  0  0  0  0
  -25.6014  -33.8654   24.2389 N   0  0  0  0  0  0
  -23.4324  -30.4981   21.5616 C   0  0  2  0  0  0
  -24.8625  -28.9538   20.1265 C   0  0  0  0  0  0
  -22.7701  -29.4892   22.5213 C   0  0  0  0  0  0
  -17.9900  -28.1297   22.8673 C   0  0  0  0  0  0
  -24.1507  -36.7326   23.2637 C   0  0  0  0  0  0
  -25.9406  -30.8465   21.3632 C   0  0  0  0  0  0
  -26.0163  -29.4773   20.7209 C   0  0  0  0  0  0
  -27.2141  -28.7361   20.7089 C   0  0  0  0  0  0
  -26.0871  -26.9406   19.5184 C   0  0  0  0  0  0
  -24.8911  -27.6826   19.5247 C   0  0  0  0  0  0
  -23.6209  -29.8122   20.1782 C   0  0  0  0  0  0
  -25.4122  -36.3097   24.0335 C   0  0  1  0  0  0
  -20.4741  -28.4739   22.7827 C   0  0  2  0  0  0
  -20.6910  -26.9786   22.5314 C   0  0  0  0  0  0
  -19.5591  -26.4768   21.6145 C   0  0  0  0  0  0
  -18.1579  -26.7603   22.2030 C   0  0  0  0  0  0
  -19.1115  -28.9085   23.2512 C   0  0  0  0  0  0
  -18.9310  -30.1541   23.8838 C   0  0  0  0  0  0
  -17.6311  -30.6535   24.0871 C   0  0  0  0  0  0
  -25.9075  -34.9477   23.5132 C   0  0  0  0  0  0
  -16.5148  -29.9051   23.6704 C   0  0  0  0  0  0
  -16.6937  -28.6401   23.0781 C   0  0  0  0  0  0
  -26.4535  -31.6595   25.0761 C   0  0  0  0  0  0
  -25.3804  -31.3721   26.1512 C   0  0  0  0  0  0
  -27.0336  -30.3041   24.6073 C   0  0  0  0  0  0
  -27.6093  -32.4290   25.7566 C   0  0  0  0  0  0
  -27.5574  -37.1816   24.8458 C   0  0  0  0  0  0
  -21.4489  -29.4620   22.4032 N   0  0  0  0  0  0
  -26.4287  -37.3775   23.9408 N   0  0  0  0  0  0
  -24.6861  -31.0888   22.1072 N   0  0  0  0  0  0
  -23.4178  -28.7654   23.2766 O   0  0  0  0  0  0
  -28.4884  -26.8276   20.0882 O   0  0  0  0  0  0
  -26.5575  -34.8897   22.4664 O   0  0  0  0  0  0
  -23.5476  -32.1534   23.7575 O   0  0  0  0  0  0
  -29.5170  -18.1455   21.3339 C   0  0  0  0  0  0
  -28.9196  -17.2837   23.2196 C   0  0  0  0  0  0
  -29.7069  -16.7806   21.2687 C   0  0  0  0  0  0
  -31.5788  -16.8786   19.6879 C   0  0  0  0  0  0
  -29.2858  -22.9658   23.8249 C   0  0  0  0  0  0
  -27.1117  -22.4138   22.6471 C   0  0  0  0  0  0
  -28.8197  -24.8047   21.4080 C   0  0  0  0  0  0
  -29.0675  -23.2811   21.3249 C   0  0  0  0  0  0
  -29.1952  -20.9748   22.2587 C   0  0  0  0  0  0
  -28.6460  -19.7882   23.1039 C   0  0  0  0  0  0
  -28.5924  -25.4083   20.0134 C   0  0  0  0  0  0
  -29.3771  -16.2314   18.8224 C   0  0  0  0  0  0
  -30.3036  -16.0489   20.0703 C   0  0  1  0  0  0
  -28.6528  -22.4081   22.5385 C   0  0  0  0  0  0
  -29.3154  -16.2318   22.4938 N   0  0  0  0  0  0
  -29.0263  -18.4675   22.5936 N   0  0  0  0  0  0
  -29.9467  -15.8413   17.5742 O   0  0  0  0  0  0
  -31.4307  -12.4186   19.0602 H   0  0  0  0  0  0
  -30.3372  -11.3723   19.9220 H   0  0  0  0  0  0
  -29.7052  -11.5826   17.5109 H   0  0  0  0  0  0
  -29.6102  -13.3150   17.6358 H   0  0  0  0  0  0
  -27.8259  -11.2310   18.9042 H   0  0  0  0  0  0
  -27.3209  -12.4878   17.7975 H   0  0  0  0  0  0
  -27.5605  -14.1737   19.4389 H   0  0  0  0  0  0
  -28.7268  -12.1831   21.4292 H   0  0  0  0  0  0
  -28.4603  -13.8773   21.7352 H   0  0  0  0  0  0
  -25.2722   -9.5718   22.4723 H   0  0  0  0  0  0
  -23.9982   -7.4661   22.7464 H   0  0  0  0  0  0
  -21.0809   -8.8745   19.8949 H   0  0  0  0  0  0
  -22.3627  -10.9672   19.6128 H   0  0  0  0  0  0
  -21.2047   -7.6148   23.9667 H   0  0  0  0  0  0
  -21.1369   -6.0516   25.9037 H   0  0  0  0  0  0
  -22.0667   -2.7611   23.2814 H   0  0  0  0  0  0
  -22.4039  -11.9938   22.4829 H   0  0  0  0  0  0
  -21.0983  -13.1261   22.2552 H   0  0  0  0  0  0
  -24.6988  -15.8576   20.6327 H   0  0  0  0  0  0
  -26.3340  -15.6219   20.2961 H   0  0  0  0  0  0
  -26.7247  -32.5547   23.1243 H   0  0  0  0  0  0
  -25.0113  -33.9803   25.0492 H   0  0  0  0  0  0
  -22.7349  -31.3239   21.4083 H   0  0  0  0  0  0
  -23.3709  -35.9706   23.3306 H   0  0  0  0  0  0
  -24.3604  -36.8944   22.2045 H   0  0  0  0  0  0
  -23.7287  -37.6557   23.6653 H   0  0  0  0  0  0
  -26.0397  -31.6032   20.5856 H   0  0  0  0  0  0
  -26.8339  -30.9152   21.9687 H   0  0  0  0  0  0
  -28.1136  -29.1378   21.1577 H   0  0  0  0  0  0
  -26.0674  -25.9826   19.0240 H   0  0  0  0  0  0
  -24.0054  -27.2696   19.0602 H   0  0  0  0  0  0
  -23.7066  -30.5762   19.4032 H   0  0  0  0  0  0
  -22.7444  -29.2177   19.9122 H   0  0  0  0  0  0
  -25.1274  -36.1960   25.0812 H   0  0  0  0  0  0
  -20.1547  -28.6951   21.7628 H   0  0  0  0  0  0
  -20.6873  -26.4446   23.4802 H   0  0  0  0  0  0
  -21.6639  -26.7996   22.0709 H   0  0  0  0  0  0
  -19.6769  -25.4103   21.4293 H   0  0  0  0  0  0
  -19.6393  -26.9373   20.6302 H   0  0  0  0  0  0
  -17.4055  -26.6445   21.4216 H   0  0  0  0  0  0
  -17.9350  -26.0020   22.9577 H   0  0  0  0  0  0
  -19.7877  -30.7467   24.1759 H   0  0  0  0  0  0
  -17.4933  -31.6186   24.5553 H   0  0  0  0  0  0
  -15.5175  -30.2968   23.8262 H   0  0  0  0  0  0
  -15.8273  -28.0725   22.7715 H   0  0  0  0  0  0
  -24.5934  -30.7116   25.7863 H   0  0  0  0  0  0
  -24.9045  -32.2902   26.4988 H   0  0  0  0  0  0
  -25.8167  -30.8850   27.0242 H   0  0  0  0  0  0
  -26.2862  -29.6826   24.1127 H   0  0  0  0  0  0
  -27.4149  -29.7242   25.4489 H   0  0  0  0  0  0
  -27.8681  -30.4366   23.9170 H   0  0  0  0  0  0
  -27.2675  -33.3551   26.2202 H   0  0  0  0  0  0
  -28.3900  -32.6935   25.0423 H   0  0  0  0  0  0
  -28.0761  -31.8359   26.5446 H   0  0  0  0  0  0
  -28.2571  -38.0126   24.7456 H   0  0  0  0  0  0
  -28.1068  -36.2637   24.6312 H   0  0  0  0  0  0
  -27.2287  -37.1495   25.8858 H   0  0  0  0  0  0
  -21.0640  -30.1840   21.8107 H   0  0  0  0  0  0
  -26.0171  -38.2851   24.1378 H   0  0  0  0  0  0
  -29.7162  -18.8957   20.5826 H   0  0  0  0  0  0
  -28.5378  -17.1871   24.2274 H   0  0  0  0  0  0
  -31.3368  -17.8853   19.3486 H   0  0  0  0  0  0
  -32.1426  -16.4320   18.8687 H   0  0  0  0  0  0
  -32.2624  -16.9690   20.5341 H   0  0  0  0  0  0
  -30.3478  -23.1672   23.6824 H   0  0  0  0  0  0
  -29.1950  -22.2720   24.6606 H   0  0  0  0  0  0
  -28.8120  -23.8963   24.1357 H   0  0  0  0  0  0
  -26.7096  -23.4211   22.7580 H   0  0  0  0  0  0
  -26.7669  -21.8499   23.5150 H   0  0  0  0  0  0
  -26.6488  -21.9790   21.7580 H   0  0  0  0  0  0
  -27.9576  -25.0439   22.0222 H   0  0  0  0  0  0
  -29.6766  -25.2744   21.8956 H   0  0  0  0  0  0
  -30.1263  -23.1217   21.1205 H   0  0  0  0  0  0
  -28.5548  -22.9005   20.4417 H   0  0  0  0  0  0
  -28.9831  -20.7722   21.2129 H   0  0  0  0  0  0
  -30.2843  -20.9854   22.3381 H   0  0  0  0  0  0
  -27.5579  -19.8005   23.1223 H   0  0  0  0  0  0
  -28.9771  -19.8688   24.1412 H   0  0  0  0  0  0
  -27.7374  -24.9237   19.5548 H   0  0  0  0  0  0
  -29.4462  -25.1744   19.3772 H   0  0  0  0  0  0
  -28.3841  -15.8428   18.9392 H   0  0  0  0  0  0
  -29.1631  -17.2965   18.7130 H   0  0  0  0  0  0
  -30.8096  -16.2365   17.5119 H   0  0  0  0  0  0
  1 25  1  0  0  0
  1 30  2  0  0  0
  1 83  1  0  0  0
  2  3  1  0  0  0
  2 25  1  0  0  0
  2 88  1  0  0  0
  2 89  1  0  0  0
  3  4  1  0  0  0
  3 90  1  0  0  0
  3 91  1  0  0  0
  4  5  1  0  0  0
  4 92  1  0  0  0
  4 93  1  0  0  0
  5  6  1  0  0  0
  5 26  1  0  0  0
  5 94  1  0  0  0
  6 25  1  0  0  0
  6 95  1  0  0  0
  6 96  1  0  0  0
  7  8  2  0  0  0
  7 26  1  0  0  0
  7 29  1  0  0  0
  8  9  1  0  0  0
  8 22  1  0  0  0
  9 10  1  0  0  0
  9 27  2  0  0  0
 10 11  2  0  0  0
 10 15  1  0  0  0
 11 12  1  0  0  0
 11 97  1  0  0  0
 12 13  2  0  0  0
 12 98  1  0  0  0
 13 14  1  0  0  0
 13 31  1  0  0  0
 14 15  2  0  0  0
 14 99  1  0  0  0
 15100  1  0  0  0
 16 17  2  0  0  0
 16 21  1  0  0  0
 16 31  1  0  0  0
 17 18  1  0  0  0
 17101  1  0  0  0
 18 19  2  0  0  0
 18102  1  0  0  0
 19 20  1  0  0  0
 19 24  1  0  0  0
 20 21  2  0  0  0
 20103  1  0  0  0
 21 23  1  0  0  0
 22 28  1  0  0  0
 22 32  2  0  0  0
 26 27  1  0  0  0
 28104  1  0  0  0
 28105  1  0  0  0
 29106  1  0  0  0
 29107  1  0  0  0
 33 34  1  0  0  0
 33 66  1  0  0  0
 33 70  2  0  0  0
 34 36  1  0  0  0
 34 59  1  0  0  0
 34108  1  0  0  0
 35 44  2  0  0  0
 35 45  1  0  0  0
 35 68  1  0  0  0
 36 56  1  0  0  0
 36109  1  0  0  0
 37 39  1  0  0  0
 37 47  1  0  0  0
 37 66  1  0  0  0
 37110  1  0  0  0
 38 43  2  0  0  0
 38 46  1  0  0  0
 38 47  1  0  0  0
 39 64  1  0  0  0
 39 67  2  0  0  0
 40 52  1  0  0  0
 40 53  2  0  0  0
 40 58  1  0  0  0
 41111  1  0  0  0
 41112  1  0  0  0
 41113  1  0  0  0
 41 48  1  0  0  0
 42 43  1  0  0  0
 42 66  1  0  0  0
 42114  1  0  0  0
 42115  1  0  0  0
 43 44  1  0  0  0
 44116  1  0  0  0
 45 46  2  0  0  0
 45117  1  0  0  0
 46118  1  0  0  0
 47119  1  0  0  0
 47120  1  0  0  0
 48 56  1  0  0  0
 48 65  1  0  0  0
 48121  1  0  0  0
 49 50  1  0  0  0
 49 53  1  0  0  0
 49 64  1  0  0  0
 49122  1  0  0  0
 50 51  1  0  0  0
 50123  1  0  0  0
 50124  1  0  0  0
 51 52  1  0  0  0
 51125  1  0  0  0
 51126  1  0  0  0
 52127  1  0  0  0
 52128  1  0  0  0
 53 54  1  0  0  0
 54 55  2  0  0  0
 54129  1  0  0  0
 55 57  1  0  0  0
 55130  1  0  0  0
 56 69  2  0  0  0
 57 58  2  0  0  0
 57131  1  0  0  0
 58132  1  0  0  0
 59 60  1  0  0  0
 59 61  1  0  0  0
 59 62  1  0  0  0
 60133  1  0  0  0
 60134  1  0  0  0
 60135  1  0  0  0
 61136  1  0  0  0
 61137  1  0  0  0
 61138  1  0  0  0
 62139  1  0  0  0
 62140  1  0  0  0
 62141  1  0  0  0
 63 65  1  0  0  0
 63142  1  0  0  0
 63143  1  0  0  0
 63144  1  0  0  0
 64145  1  0  0  0
 65146  1  0  0  0
 68 81  1  0  0  0
 71 73  2  0  0  0
 71 86  1  0  0  0
 71147  1  0  0  0
 72 85  2  0  0  0
 72 86  1  0  0  0
 72148  1  0  0  0
 73 83  1  0  0  0
 73 85  1  0  0  0
 74149  1  0  0  0
 74150  1  0  0  0
 74151  1  0  0  0
 74 83  1  0  0  0
 75152  1  0  0  0
 75153  1  0  0  0
 75154  1  0  0  0
 75 84  1  0  0  0
 76 84  1  0  0  0
 76155  1  0  0  0
 76156  1  0  0  0
 76157  1  0  0  0
 77 78  1  0  0  0
 77 81  1  0  0  0
 77158  1  0  0  0
 77159  1  0  0  0
 78 84  1  0  0  0
 78160  1  0  0  0
 78161  1  0  0  0
 79 80  1  0  0  0
 79 84  1  0  0  0
 79162  1  0  0  0
 79163  1  0  0  0
 80 86  1  0  0  0
 80164  1  0  0  0
 80165  1  0  0  0
 81166  1  0  0  0
 81167  1  0  0  0
 82 83  1  0  0  0
 82 87  1  0  0  0
 82168  1  0  0  0
 82169  1  0  0  0
 87170  1  0  0  0
M  ISO  4   1 100  68 101  81 101  83 100
M  END
> <chiral flag>
0

> <version>
0

> <s_m_source_file>
/data/baiqing/PycharmProjects/Reinvent-master-3.2/result/LINK_invent/BTK/process_docking_weight1_custom_sum_contain_oxygen_bond_distance_aromatic_linkinvent_7_9_3/rearranged_h_0070.sdf

> <i_m_source_file_index>
24

> <r_mmod_Potential_Energy-OPLS-2005>
425.080230712891

> <r_mmod_Stretch_Energy-OPLS-2005>
43.8379249572754

> <r_mmod_Bend_Energy-OPLS-2005>
273.180999755859

> <r_mmod_Torsional_Energy-OPLS-2005>
248.433441162109

> <r_mmod_Improper_Torsional_Energy-OPLS-2005>
10.5542125701904

> <r_mmod_Van_der_Waal_Energy-OPLS-2005>
163.780609130859

> <r_mmod_Electrostatic_Energy-OPLS-2005>
-183.164627075195

> <r_mmod_Solvation_Energy-OPLS-2005>
-207.495819091797

> <b_mmod_Minimization_Converged-OPLS-2005>
0

> <r_mmod_RMS_Derivative-OPLS-2005>
6.95981788635254

$$$$
24
                    3D
 Structure written by MMmdl.
170178  0  0  1  0            999 V2000
  -30.6870  -14.6286   20.5397 C   0  0  0  0  0  0
  -30.4200  -12.4015   19.4547 C   0  0  0  0  0  0
  -29.4975  -12.5193   18.2215 C   0  0  0  0  0  0
  -28.0180  -12.3600   18.6247 C   0  0  0  0  0  0
  -27.6463  -13.2168   19.8629 C   0  0  2  0  0  0
  -28.6936  -13.0383   20.9813 C   0  0  0  0  0  0
  -25.2493  -13.8169   20.5675 C   0  0  0  0  0  0
  -24.1783  -13.0419   20.9215 C   0  0  0  0  0  0
  -24.6371  -11.6909   20.8768 C   0  0  0  0  0  0
  -23.9042  -10.4289   21.0415 C   0  0  0  0  0  0
  -24.3609   -9.4210   21.9184 C   0  0  0  0  0  0
  -23.6296   -8.2241   22.0746 C   0  0  0  0  0  0
  -22.4274   -8.0279   21.3542 C   0  0  0  0  0  0
  -21.9906   -9.0247   20.4639 C   0  0  0  0  0  0
  -22.7223  -10.2127   20.3053 C   0  0  0  0  0  0
  -21.6852   -6.0741   22.5284 C   0  0  0  0  0  0
  -21.4011   -6.5643   23.8218 C   0  0  0  0  0  0
  -21.3657   -5.6790   24.9178 C   0  0  0  0  0  0
  -21.6043   -4.3056   24.7222 C   0  0  0  0  0  0
  -21.8817   -3.8151   23.4342 C   0  0  0  0  0  0
  -21.9193   -4.6972   22.3400 C   0  0  0  0  0  0
  -22.7801  -13.5221   21.1862 C   0  0  0  0  0  0
  -22.1663   -4.2164   21.0976 F   0  0  0  0  0  0
  -21.5627   -3.4532   25.7729 F   0  0  0  0  0  0
  -30.0017  -13.4336   20.4372 N   0  0  0  0  0  0
  -26.2938  -12.9355   20.3332 N   0  0  0  0  0  0
  -25.9300  -11.6511   20.5792 N   0  0  0  0  0  0
  -22.0442  -12.8224   22.0426 N   0  0  0  0  0  0
  -25.4094  -15.1883   20.4041 N   0  0  0  0  0  0
  -31.8473  -14.6424   20.1192 O   0  0  0  0  0  0
  -21.6640   -6.8878   21.4238 O   0  0  0  0  0  0
  -22.3497  -14.5521   20.6700 O   0  0  0  0  0  0
  -24.6217  -31.8632   23.2039 C   0  0  0  0  0  0
  -25.9067  -32.4814   23.8380 C   0  0  1  0  0  0
  -27.2363  -27.3753   20.1221 C   0  0  0  0  0  0
  -25.5897  -33.8614   24.2313 N   0  0  0  0  0  0
  -23.4154  -30.4831   21.5462 C   0  0  2  0  0  0
  -24.8647  -28.9371   20.1179 C   0  0  0  0  0  0
  -22.7464  -29.4627   22.4957 C   0  0  0  0  0  0
  -18.0284  -28.1390   22.8492 C   0  0  0  0  0  0
  -24.1490  -36.7317   23.2638 C   0  0  0  0  0  0
  -25.9464  -30.8167   21.3574 C   0  0  0  0  0  0
  -26.0280  -29.4420   20.7128 C   0  0  0  0  0  0
  -27.2220  -28.6729   20.7012 C   0  0  0  0  0  0
  -26.0568  -26.8969   19.5169 C   0  0  0  0  0  0
  -24.8770  -27.6685   19.5110 C   0  0  0  0  0  0
  -23.6296  -29.8117   20.1631 C   0  0  0  0  0  0
  -25.4114  -36.3107   24.0329 C   0  0  1  0  0  0
  -20.5883  -28.3679   23.1309 C   0  0  2  0  0  0
  -20.6770  -26.9407   22.5420 C   0  0  0  0  0  0
  -19.5746  -26.6386   21.5223 C   0  0  0  0  0  0
  -18.1927  -26.7934   22.1636 C   0  0  0  0  0  0
  -19.1531  -28.8854   23.2899 C   0  0  0  0  0  0
  -18.9453  -30.1459   23.8906 C   0  0  0  0  0  0
  -17.6453  -30.6584   24.0572 C   0  0  0  0  0  0
  -25.9038  -34.9471   23.5121 C   0  0  0  0  0  0
  -16.5349  -29.9090   23.6317 C   0  0  0  0  0  0
  -16.7273  -28.6516   23.0327 C   0  0  0  0  0  0
  -26.4475  -31.6589   25.0712 C   0  0  0  0  0  0
  -25.3747  -31.3666   26.1459 C   0  0  0  0  0  0
  -27.0279  -30.3038   24.6045 C   0  0  0  0  0  0
  -27.6068  -32.4287   25.7476 C   0  0  0  0  0  0
  -27.5573  -37.1824   24.8473 C   0  0  0  0  0  0
  -21.4180  -29.3040   22.3710 N   0  0  0  0  0  0
  -26.4300  -37.3792   23.9396 N   0  0  0  0  0  0
  -24.6812  -31.0680   22.0962 N   0  0  0  0  0  0
  -23.4205  -28.8168   23.3024 O   0  0  0  0  0  0
  -28.3711  -26.5765   20.1112 O   0  0  0  0  0  0
  -26.5613  -34.8927   22.4691 O   0  0  0  0  0  0
  -23.5388  -32.1384   23.7395 O   0  0  0  0  0  0
  -30.2523  -20.7171   21.2779 C   0  0  0  0  0  0
  -29.0467  -21.3434   20.8975 C   0  0  0  0  0  0
  -28.1528  -20.4817   20.2249 C   0  0  0  0  0  0
  -29.6324  -18.6761   20.3654 C   0  0  0  0  0  0
  -26.8654  -21.3382   18.2251 C   0  0  0  0  0  0
  -31.3489  -17.3963   19.0851 C   0  0  0  0  0  0
  -29.0191  -16.7240   18.8363 C   0  0  0  0  0  0
  -28.8278  -16.0162   21.8558 C   0  0  0  0  0  0
  -31.1952  -16.4987   22.1352 C   0  0  0  0  0  0
  -28.7179  -22.8027   21.3546 C   0  0  0  0  0  0
  -26.8039  -20.9543   19.7099 C   0  0  0  0  0  0
  -28.5749  -23.9791   20.3108 C   0  0  0  0  0  0
  -28.3471  -25.3950   20.9670 C   0  0  0  0  0  0
  -30.0401  -17.2108   19.9046 C   0  0  0  0  0  0
  -30.1557  -16.0614   21.0630 C   0  0  0  0  0  0
  -30.5326  -19.4176   21.0151 N   0  0  0  0  0  0
  -28.4583  -19.1842   19.9690 N   0  0  0  0  0  0
  -31.4625  -12.4924   19.1471 H   0  0  0  0  0  0
  -30.3417  -11.4048   19.8908 H   0  0  0  0  0  0
  -29.7651  -11.7682   17.4779 H   0  0  0  0  0  0
  -29.6455  -13.4871   17.7413 H   0  0  0  0  0  0
  -27.8467  -11.3046   18.8428 H   0  0  0  0  0  0
  -27.3676  -12.6072   17.7845 H   0  0  0  0  0  0
  -27.6646  -14.2539   19.5357 H   0  0  0  0  0  0
  -28.7227  -11.9899   21.2817 H   0  0  0  0  0  0
  -28.4200  -13.5475   21.8972 H   0  0  0  0  0  0
  -25.2749   -9.5705   22.4765 H   0  0  0  0  0  0
  -24.0016   -7.4632   22.7458 H   0  0  0  0  0  0
  -21.0838   -8.8754   19.8949 H   0  0  0  0  0  0
  -22.3672  -10.9667   19.6174 H   0  0  0  0  0  0
  -21.1998   -7.6150   23.9730 H   0  0  0  0  0  0
  -21.1482   -6.0514   25.9082 H   0  0  0  0  0  0
  -22.0597   -2.7613   23.2830 H   0  0  0  0  0  0
  -22.4063  -11.9926   22.4875 H   0  0  0  0  0  0
  -21.1048  -13.1247   22.2578 H   0  0  0  0  0  0
  -24.6328  -15.8308   20.5181 H   0  0  0  0  0  0
  -26.2503  -15.6416   20.0722 H   0  0  0  0  0  0
  -26.7146  -32.5527   23.1162 H   0  0  0  0  0  0
  -25.0055  -33.9788   25.0464 H   0  0  0  0  0  0
  -22.7093  -31.3026   21.4023 H   0  0  0  0  0  0
  -23.3736  -35.9671   23.3340 H   0  0  0  0  0  0
  -24.3564  -36.8896   22.2043 H   0  0  0  0  0  0
  -23.7276  -37.6545   23.6633 H   0  0  0  0  0  0
  -26.0451  -31.5707   20.5746 H   0  0  0  0  0  0
  -26.8396  -30.8909   21.9665 H   0  0  0  0  0  0
  -28.1237  -29.0629   21.1525 H   0  0  0  0  0  0
  -26.0507  -25.9189   19.0548 H   0  0  0  0  0  0
  -23.9833  -27.2781   19.0450 H   0  0  0  0  0  0
  -23.7488  -30.5846   19.4030 H   0  0  0  0  0  0
  -22.7520  -29.2361   19.8629 H   0  0  0  0  0  0
  -25.1295  -36.1983   25.0822 H   0  0  0  0  0  0
  -20.9978  -28.3239   24.1432 H   0  0  0  0  0  0
  -20.5663  -26.2296   23.3621 H   0  0  0  0  0  0
  -21.6642  -26.7443   22.1218 H   0  0  0  0  0  0
  -19.6893  -25.6298   21.1247 H   0  0  0  0  0  0
  -19.6667  -27.3206   20.6760 H   0  0  0  0  0  0
  -17.4196  -26.6685   21.4033 H   0  0  0  0  0  0
  -18.0317  -26.0077   22.9034 H   0  0  0  0  0  0
  -19.7923  -30.7282   24.2272 H   0  0  0  0  0  0
  -17.4998  -31.6258   24.5190 H   0  0  0  0  0  0
  -15.5345  -30.2997   23.7615 H   0  0  0  0  0  0
  -15.8681  -28.0847   22.7007 H   0  0  0  0  0  0
  -24.5971  -30.6954   25.7791 H   0  0  0  0  0  0
  -24.8877  -32.2801   26.4889 H   0  0  0  0  0  0
  -25.8112  -30.8868   27.0234 H   0  0  0  0  0  0
  -26.2790  -29.6839   24.1107 H   0  0  0  0  0  0
  -27.4076  -29.7223   25.4456 H   0  0  0  0  0  0
  -27.8615  -30.4365   23.9146 H   0  0  0  0  0  0
  -27.2721  -33.3606   26.2052 H   0  0  0  0  0  0
  -28.3885  -32.6818   25.0296 H   0  0  0  0  0  0
  -28.0733  -31.8407   26.5396 H   0  0  0  0  0  0
  -28.2623  -38.0085   24.7472 H   0  0  0  0  0  0
  -28.1027  -36.2619   24.6360 H   0  0  0  0  0  0
  -27.2276  -37.1553   25.8871 H   0  0  0  0  0  0
  -20.9353  -29.8796   21.6953 H   0  0  0  0  0  0
  -26.0183  -38.2871   24.1383 H   0  0  0  0  0  0
  -31.0018  -21.2592   21.8337 H   0  0  0  0  0  0
  -25.8994  -21.6994   17.8721 H   0  0  0  0  0  0
  -27.1509  -20.4842   17.6105 H   0  0  0  0  0  0
  -27.5988  -22.1254   18.0543 H   0  0  0  0  0  0
  -31.2301  -18.1861   18.3432 H   0  0  0  0  0  0
  -31.6404  -16.5047   18.5337 H   0  0  0  0  0  0
  -32.1883  -17.6910   19.7126 H   0  0  0  0  0  0
  -28.9889  -17.4023   17.9820 H   0  0  0  0  0  0
  -28.0047  -16.6781   19.2309 H   0  0  0  0  0  0
  -29.2682  -15.7410   18.4422 H   0  0  0  0  0  0
  -28.5334  -17.0103   22.1938 H   0  0  0  0  0  0
  -28.9140  -15.4186   22.7630 H   0  0  0  0  0  0
  -27.9937  -15.6461   21.2699 H   0  0  0  0  0  0
  -30.8712  -17.3794   22.6892 H   0  0  0  0  0  0
  -32.1705  -16.7285   21.7089 H   0  0  0  0  0  0
  -31.3570  -15.7165   22.8780 H   0  0  0  0  0  0
  -29.5026  -23.0966   22.0531 H   0  0  0  0  0  0
  -27.8148  -22.7547   21.9662 H   0  0  0  0  0  0
  -26.4437  -21.7961   20.3000 H   0  0  0  0  0  0
  -26.0715  -20.1592   19.8529 H   0  0  0  0  0  0
  -27.7434  -23.7885   19.6344 H   0  0  0  0  0  0
  -29.4782  -24.0134   19.7012 H   0  0  0  0  0  0
  -29.1469  -25.5454   21.6921 H   0  0  0  0  0  0
  -27.4315  -25.3671   21.5604 H   0  0  0  0  0  0
  1 25  1  0  0  0
  1 30  2  0  0  0
  1 85  1  0  0  0
  2  3  1  0  0  0
  2 25  1  0  0  0
  2 88  1  0  0  0
  2 89  1  0  0  0
  3  4  1  0  0  0
  3 90  1  0  0  0
  3 91  1  0  0  0
  4  5  1  0  0  0
  4 92  1  0  0  0
  4 93  1  0  0  0
  5  6  1  0  0  0
  5 26  1  0  0  0
  5 94  1  0  0  0
  6 25  1  0  0  0
  6 95  1  0  0  0
  6 96  1  0  0  0
  7  8  2  0  0  0
  7 26  1  0  0  0
  7 29  1  0  0  0
  8  9  1  0  0  0
  8 22  1  0  0  0
  9 10  1  0  0  0
  9 27  2  0  0  0
 10 11  2  0  0  0
 10 15  1  0  0  0
 11 12  1  0  0  0
 11 97  1  0  0  0
 12 13  2  0  0  0
 12 98  1  0  0  0
 13 14  1  0  0  0
 13 31  1  0  0  0
 14 15  2  0  0  0
 14 99  1  0  0  0
 15100  1  0  0  0
 16 17  2  0  0  0
 16 21  1  0  0  0
 16 31  1  0  0  0
 17 18  1  0  0  0
 17101  1  0  0  0
 18 19  2  0  0  0
 18102  1  0  0  0
 19 20  1  0  0  0
 19 24  1  0  0  0
 20 21  2  0  0  0
 20103  1  0  0  0
 21 23  1  0  0  0
 22 28  1  0  0  0
 22 32  2  0  0  0
 26 27  1  0  0  0
 28104  1  0  0  0
 28105  1  0  0  0
 29106  1  0  0  0
 29107  1  0  0  0
 33 34  1  0  0  0
 33 66  1  0  0  0
 33 70  2  0  0  0
 34 36  1  0  0  0
 34 59  1  0  0  0
 34108  1  0  0  0
 35 44  2  0  0  0
 35 45  1  0  0  0
 35 68  1  0  0  0
 36 56  1  0  0  0
 36109  1  0  0  0
 37 39  1  0  0  0
 37 47  1  0  0  0
 37 66  1  0  0  0
 37110  1  0  0  0
 38 43  2  0  0  0
 38 46  1  0  0  0
 38 47  1  0  0  0
 39 64  1  0  0  0
 39 67  2  0  0  0
 40 52  1  0  0  0
 40 53  2  0  0  0
 40 58  1  0  0  0
 41111  1  0  0  0
 41112  1  0  0  0
 41113  1  0  0  0
 41 48  1  0  0  0
 42 43  1  0  0  0
 42 66  1  0  0  0
 42114  1  0  0  0
 42115  1  0  0  0
 43 44  1  0  0  0
 44116  1  0  0  0
 45 46  2  0  0  0
 45117  1  0  0  0
 46118  1  0  0  0
 47119  1  0  0  0
 47120  1  0  0  0
 48 56  1  0  0  0
 48 65  1  0  0  0
 48121  1  0  0  0
 49 50  1  0  0  0
 49 53  1  0  0  0
 49 64  1  0  0  0
 49122  1  0  0  0
 50 51  1  0  0  0
 50123  1  0  0  0
 50124  1  0  0  0
 51 52  1  0  0  0
 51125  1  0  0  0
 51126  1  0  0  0
 52127  1  0  0  0
 52128  1  0  0  0
 53 54  1  0  0  0
 54 55  2  0  0  0
 54129  1  0  0  0
 55 57  1  0  0  0
 55130  1  0  0  0
 56 69  2  0  0  0
 57 58  2  0  0  0
 57131  1  0  0  0
 58132  1  0  0  0
 59 60  1  0  0  0
 59 61  1  0  0  0
 59 62  1  0  0  0
 60133  1  0  0  0
 60134  1  0  0  0
 60135  1  0  0  0
 61136  1  0  0  0
 61137  1  0  0  0
 61138  1  0  0  0
 62139  1  0  0  0
 62140  1  0  0  0
 62141  1  0  0  0
 63 65  1  0  0  0
 63142  1  0  0  0
 63143  1  0  0  0
 63144  1  0  0  0
 64145  1  0  0  0
 65146  1  0  0  0
 68 83  1  0  0  0
 71 72  2  0  0  0
 71 86  1  0  0  0
 71147  1  0  0  0
 72 73  1  0  0  0
 72 80  1  0  0  0
 73 81  1  0  0  0
 73 87  2  0  0  0
 74 84  1  0  0  0
 74 86  2  0  0  0
 74 87  1  0  0  0
 75 81  1  0  0  0
 75148  1  0  0  0
 75149  1  0  0  0
 75150  1  0  0  0
 76151  1  0  0  0
 76152  1  0  0  0
 76153  1  0  0  0
 76 84  1  0  0  0
 77 84  1  0  0  0
 77154  1  0  0  0
 77155  1  0  0  0
 77156  1  0  0  0
 78157  1  0  0  0
 78158  1  0  0  0
 78159  1  0  0  0
 78 85  1  0  0  0
 79 85  1  0  0  0
 79160  1  0  0  0
 79161  1  0  0  0
 79162  1  0  0  0
 80 82  1  0  0  0
 80163  1  0  0  0
 80164  1  0  0  0
 81165  1  0  0  0
 81166  1  0  0  0
 82 83  1  0  0  0
 82167  1  0  0  0
 82168  1  0  0  0
 83169  1  0  0  0
 83170  1  0  0  0
 84 85  1  0  0  0
M  ISO  4   1 100  68 101  83 101  85 100
M  END
> <chiral flag>
0

> <version>
0

> <s_m_source_file>
/data/baiqing/PycharmProjects/Reinvent-master-3.2/result/LINK_invent/BTK/process_docking_weight1_custom_sum_contain_oxygen_bond_distance_aromatic_linkinvent_7_9_3/rearranged_h_0070.sdf

> <i_m_source_file_index>
25

> <r_mmod_Potential_Energy-OPLS-2005>
-255.83235168457

> <r_mmod_Stretch_Energy-OPLS-2005>
86.4249877929688

> <r_mmod_Bend_Energy-OPLS-2005>
173.816680908203

> <r_mmod_Torsional_Energy-OPLS-2005>
192.794815063477

> <r_mmod_Improper_Torsional_Energy-OPLS-2005>
3.26644897460938

> <r_mmod_Van_der_Waal_Energy-OPLS-2005>
166.853912353516

> <r_mmod_Electrostatic_Energy-OPLS-2005>
-720.372741699219

> <r_mmod_Solvation_Energy-OPLS-2005>
-192.111953735352

> <b_mmod_Minimization_Converged-OPLS-2005>
0

> <r_mmod_RMS_Derivative-OPLS-2005>
2.08768939971924

$$$$
25
                    3D
 Structure written by MMmdl.
179187  0  0  1  0            999 V2000
  -30.6969  -14.5351   20.4958 C   0  0  0  0  0  0
  -30.4164  -12.3235   19.4365 C   0  0  0  0  0  0
  -29.4972  -12.5035   18.2099 C   0  0  0  0  0  0
  -28.0149  -12.3736   18.6175 C   0  0  0  0  0  0
  -27.6537  -13.2056   19.8788 C   0  0  2  0  0  0
  -28.7076  -13.0346   20.9940 C   0  0  0  0  0  0
  -25.2553  -13.8131   20.5695 C   0  0  0  0  0  0
  -24.1802  -13.0400   20.9190 C   0  0  0  0  0  0
  -24.6378  -11.6886   20.8726 C   0  0  0  0  0  0
  -23.9067  -10.4266   21.0379 C   0  0  0  0  0  0
  -24.3625   -9.4189   21.9160 C   0  0  0  0  0  0
  -23.6298   -8.2225   22.0727 C   0  0  0  0  0  0
  -22.4278   -8.0286   21.3528 C   0  0  0  0  0  0
  -21.9932   -9.0241   20.4615 C   0  0  0  0  0  0
  -22.7251  -10.2117   20.3018 C   0  0  0  0  0  0
  -21.6841   -6.0770   22.5292 C   0  0  0  0  0  0
  -21.4004   -6.5653   23.8241 C   0  0  0  0  0  0
  -21.3637   -5.6791   24.9190 C   0  0  0  0  0  0
  -21.6021   -4.3052   24.7211 C   0  0  0  0  0  0
  -21.8810   -3.8171   23.4328 C   0  0  0  0  0  0
  -21.9189   -4.6995   22.3399 C   0  0  0  0  0  0
  -22.7820  -13.5197   21.1847 C   0  0  0  0  0  0
  -22.1654   -4.2206   21.0960 F   0  0  0  0  0  0
  -21.5643   -3.4523   25.7715 F   0  0  0  0  0  0
  -30.0240  -13.3478   20.4218 N   0  0  0  0  0  0
  -26.2994  -12.9297   20.3435 N   0  0  0  0  0  0
  -25.9318  -11.6465   20.5808 N   0  0  0  0  0  0
  -22.0469  -12.8157   22.0394 N   0  0  0  0  0  0
  -25.4243  -15.1843   20.4066 N   0  0  0  0  0  0
  -31.8700  -14.6059   20.1233 O   0  0  0  0  0  0
  -21.6606   -6.8905   21.4259 O   0  0  0  0  0  0
  -22.3515  -14.5500   20.6721 O   0  0  0  0  0  0
  -24.6188  -31.8653   23.2079 C   0  0  0  0  0  0
  -25.9078  -32.4819   23.8362 C   0  0  1  0  0  0
  -27.2408  -27.4198   20.0665 C   0  0  0  0  0  0
  -25.5907  -33.8610   24.2289 N   0  0  0  0  0  0
  -23.4077  -30.4923   21.5483 C   0  0  2  0  0  0
  -24.8510  -28.9594   20.1022 C   0  0  0  0  0  0
  -22.7418  -29.4680   22.4949 C   0  0  0  0  0  0
  -18.0269  -28.1398   22.8533 C   0  0  0  0  0  0
  -24.1472  -36.7294   23.2652 C   0  0  0  0  0  0
  -25.9395  -30.8223   21.3634 C   0  0  0  0  0  0
  -26.0137  -29.4586   20.7023 C   0  0  0  0  0  0
  -27.2067  -28.6938   20.6885 C   0  0  0  0  0  0
  -26.0501  -26.9384   19.4740 C   0  0  0  0  0  0
  -24.8663  -27.6993   19.4838 C   0  0  0  0  0  0
  -23.6135  -29.8273   20.1609 C   0  0  0  0  0  0
  -25.4122  -36.3114   24.0330 C   0  0  1  0  0  0
  -20.5868  -28.3725   23.1295 C   0  0  2  0  0  0
  -20.6768  -26.9447   22.5429 C   0  0  0  0  0  0
  -19.5735  -26.6402   21.5246 C   0  0  0  0  0  0
  -18.1906  -26.7945   22.1645 C   0  0  0  0  0  0
  -19.1517  -28.8868   23.2911 C   0  0  0  0  0  0
  -18.9449  -30.1470   23.8935 C   0  0  0  0  0  0
  -17.6459  -30.6617   24.0598 C   0  0  0  0  0  0
  -25.9055  -34.9482   23.5116 C   0  0  0  0  0  0
  -16.5352  -29.9140   23.6333 C   0  0  0  0  0  0
  -16.7265  -28.6535   23.0392 C   0  0  0  0  0  0
  -26.4479  -31.6619   25.0709 C   0  0  0  0  0  0
  -25.3726  -31.3682   26.1430 C   0  0  0  0  0  0
  -27.0359  -30.3096   24.6081 C   0  0  0  0  0  0
  -27.5998  -32.4380   25.7501 C   0  0  0  0  0  0
  -27.5576  -37.1815   24.8475 C   0  0  0  0  0  0
  -21.4138  -29.3066   22.3669 N   0  0  0  0  0  0
  -26.4295  -37.3813   23.9413 N   0  0  0  0  0  0
  -24.6746  -31.0737   22.0990 N   0  0  0  0  0  0
  -23.4159  -28.8211   23.3009 O   0  0  0  0  0  0
  -28.3830  -26.6359   20.1573 O   0  0  0  0  0  0
  -26.5614  -34.8949   22.4679 O   0  0  0  0  0  0
  -23.5381  -32.1379   23.7478 O   0  0  0  0  0  0
  -31.1495  -19.3151   19.6998 C   0  0  0  0  0  0
  -29.3415  -20.3829   21.3788 C   0  0  0  0  0  0
  -30.1153  -18.5002   20.2449 C   0  0  0  0  0  0
  -30.3720  -21.2000   20.8311 C   0  0  0  0  0  0
  -30.7598  -16.3977   22.1882 C   0  0  0  0  0  0
  -29.8971  -24.5704   22.9059 C   0  0  0  0  0  0
  -30.7762  -22.3349   23.7061 C   0  0  0  0  0  0
  -30.6794  -16.7413   18.5030 C   0  0  0  0  0  0
  -28.3843  -17.0064   19.2766 C   0  0  0  0  0  0
  -32.0162  -23.1194   21.0310 C   0  0  0  0  0  0
  -29.3660  -26.9094   18.0091 C   0  0  0  0  0  0
  -29.6445  -23.5486   20.0790 C   0  0  0  0  0  0
  -30.0285  -15.8933   20.9260 C   0  0  1  0  0  0
  -30.0084  -23.0668   22.5797 C   0  0  0  0  0  0
  -30.0639  -25.0043   19.6460 C   0  0  2  0  0  0
  -29.8469  -17.0270   19.7860 C   0  0  0  0  0  0
  -30.5105  -22.7358   21.1207 C   0  0  1  0  0  0
  -28.9042  -25.9213   19.0998 C   0  0  1  0  0  0
  -29.2198  -19.0578   21.1024 N   0  0  0  0  0  0
  -31.2602  -20.6432   19.9637 N   0  0  0  0  0  0
  -31.0243  -24.8777   18.7233 F   0  0  0  0  0  0
  -27.9990  -25.0765   18.5431 F   0  0  0  0  0  0
  -31.4663  -12.3943   19.1453 H   0  0  0  0  0  0
  -30.2927  -11.3252   19.8615 H   0  0  0  0  0  0
  -29.7403  -11.7671   17.4435 H   0  0  0  0  0  0
  -29.6694  -13.4809   17.7583 H   0  0  0  0  0  0
  -27.8117  -11.3177   18.7994 H   0  0  0  0  0  0
  -27.3716  -12.6678   17.7869 H   0  0  0  0  0  0
  -27.6694  -14.2433   19.5812 H   0  0  0  0  0  0
  -28.7023  -12.0065   21.3595 H   0  0  0  0  0  0
  -28.4811  -13.6493   21.8648 H   0  0  0  0  0  0
  -25.2746   -9.5680   22.4752 H   0  0  0  0  0  0
  -24.0007   -7.4613   22.7428 H   0  0  0  0  0  0
  -21.0888   -8.8759   19.8880 H   0  0  0  0  0  0
  -22.3723  -10.9671   19.6130 H   0  0  0  0  0  0
  -21.1985   -7.6158   23.9786 H   0  0  0  0  0  0
  -21.1472   -6.0490   25.9105 H   0  0  0  0  0  0
  -22.0615   -2.7644   23.2809 H   0  0  0  0  0  0
  -22.4097  -11.9795   22.4714 H   0  0  0  0  0  0
  -21.1093  -13.1191   22.2646 H   0  0  0  0  0  0
  -24.6496  -15.8356   20.4830 H   0  0  0  0  0  0
  -26.2679  -15.6200   20.0592 H   0  0  0  0  0  0
  -26.7154  -32.5510   23.1117 H   0  0  0  0  0  0
  -25.0108  -33.9742   25.0470 H   0  0  0  0  0  0
  -22.7032  -31.3150   21.4112 H   0  0  0  0  0  0
  -23.3756  -35.9598   23.3331 H   0  0  0  0  0  0
  -24.3554  -36.8908   22.2064 H   0  0  0  0  0  0
  -23.7176  -37.6482   23.6667 H   0  0  0  0  0  0
  -26.0626  -31.5910   20.5989 H   0  0  0  0  0  0
  -26.8257  -30.8677   21.9873 H   0  0  0  0  0  0
  -28.0982  -29.0741   21.1677 H   0  0  0  0  0  0
  -25.9981  -25.9592   19.0272 H   0  0  0  0  0  0
  -23.9737  -27.3047   19.0192 H   0  0  0  0  0  0
  -23.7215  -30.6066   19.4061 H   0  0  0  0  0  0
  -22.7349  -29.2509   19.8653 H   0  0  0  0  0  0
  -25.1303  -36.2004   25.0821 H   0  0  0  0  0  0
  -20.9983  -28.3332   24.1407 H   0  0  0  0  0  0
  -20.5737  -26.2334   23.3635 H   0  0  0  0  0  0
  -21.6633  -26.7511   22.1193 H   0  0  0  0  0  0
  -19.6912  -25.6323   21.1263 H   0  0  0  0  0  0
  -19.6662  -27.3233   20.6800 H   0  0  0  0  0  0
  -17.4183  -26.6744   21.4031 H   0  0  0  0  0  0
  -18.0276  -26.0071   22.9016 H   0  0  0  0  0  0
  -19.7918  -30.7283   24.2312 H   0  0  0  0  0  0
  -17.5015  -31.6291   24.5225 H   0  0  0  0  0  0
  -15.5367  -30.3080   23.7607 H   0  0  0  0  0  0
  -15.8653  -28.0870   22.7125 H   0  0  0  0  0  0
  -24.5943  -30.6991   25.7742 H   0  0  0  0  0  0
  -24.8867  -32.2818   26.4877 H   0  0  0  0  0  0
  -25.8080  -30.8859   27.0192 H   0  0  0  0  0  0
  -26.2920  -29.6837   24.1148 H   0  0  0  0  0  0
  -27.4184  -29.7359   25.4532 H   0  0  0  0  0  0
  -27.8712  -30.4471   23.9203 H   0  0  0  0  0  0
  -27.2576  -33.3701   26.2026 H   0  0  0  0  0  0
  -28.3850  -32.6933   25.0361 H   0  0  0  0  0  0
  -28.0624  -31.8548   26.5480 H   0  0  0  0  0  0
  -28.2609  -38.0103   24.7594 H   0  0  0  0  0  0
  -28.1056  -36.2650   24.6262 H   0  0  0  0  0  0
  -27.2277  -37.1443   25.8866 H   0  0  0  0  0  0
  -20.9290  -29.8793   21.6895 H   0  0  0  0  0  0
  -26.0181  -38.2875   24.1467 H   0  0  0  0  0  0
  -31.8809  -18.9346   19.0015 H   0  0  0  0  0  0
  -28.5778  -20.7761   22.0289 H   0  0  0  0  0  0
  -30.1586  -17.1264   22.7290 H   0  0  0  0  0  0
  -31.7127  -16.8625   21.9371 H   0  0  0  0  0  0
  -30.9615  -15.5844   22.8863 H   0  0  0  0  0  0
  -29.5870  -24.7291   23.9385 H   0  0  0  0  0  0
  -29.1370  -25.0490   22.2884 H   0  0  0  0  0  0
  -30.8373  -25.0999   22.7666 H   0  0  0  0  0  0
  -30.2536  -22.4444   24.6575 H   0  0  0  0  0  0
  -31.7812  -22.7355   23.8442 H   0  0  0  0  0  0
  -30.8713  -21.2635   23.5228 H   0  0  0  0  0  0
  -30.4838  -17.4847   17.7292 H   0  0  0  0  0  0
  -30.4374  -15.7787   18.0539 H   0  0  0  0  0  0
  -31.7520  -16.7436   18.6960 H   0  0  0  0  0  0
  -28.1979  -17.8029   18.5554 H   0  0  0  0  0  0
  -27.6737  -17.1493   20.0911 H   0  0  0  0  0  0
  -28.1345  -16.0839   18.7662 H   0  0  0  0  0  0
  -32.4104  -23.0002   20.0222 H   0  0  0  0  0  0
  -32.6266  -22.4904   21.6797 H   0  0  0  0  0  0
  -32.2156  -24.1488   21.3177 H   0  0  0  0  0  0
  -29.7596  -26.3751   17.1456 H   0  0  0  0  0  0
  -30.1429  -27.5784   18.3765 H   0  0  0  0  0  0
  -28.5441  -27.5249   17.6438 H   0  0  0  0  0  0
  -29.5891  -22.9740   19.1541 H   0  0  0  0  0  0
  -28.6178  -23.5695   20.4461 H   0  0  0  0  0  0
  -29.0292  -15.6579   21.2826 H   0  0  0  0  0  0
  -28.9782  -22.7219   22.6557 H   0  0  0  0  0  0
  -30.5468  -25.5371   20.4625 H   0  0  0  0  0  0
  1 25  1  0  0  0
  1 30  2  0  0  0
  1 83  1  0  0  0
  2  3  1  0  0  0
  2 25  1  0  0  0
  2 93  1  0  0  0
  2 94  1  0  0  0
  3  4  1  0  0  0
  3 95  1  0  0  0
  3 96  1  0  0  0
  4  5  1  0  0  0
  4 97  1  0  0  0
  4 98  1  0  0  0
  5  6  1  0  0  0
  5 26  1  0  0  0
  5 99  1  0  0  0
  6 25  1  0  0  0
  6100  1  0  0  0
  6101  1  0  0  0
  7  8  2  0  0  0
  7 26  1  0  0  0
  7 29  1  0  0  0
  8  9  1  0  0  0
  8 22  1  0  0  0
  9 10  1  0  0  0
  9 27  2  0  0  0
 10 11  2  0  0  0
 10 15  1  0  0  0
 11 12  1  0  0  0
 11102  1  0  0  0
 12 13  2  0  0  0
 12103  1  0  0  0
 13 14  1  0  0  0
 13 31  1  0  0  0
 14 15  2  0  0  0
 14104  1  0  0  0
 15105  1  0  0  0
 16 17  2  0  0  0
 16 21  1  0  0  0
 16 31  1  0  0  0
 17 18  1  0  0  0
 17106  1  0  0  0
 18 19  2  0  0  0
 18107  1  0  0  0
 19 20  1  0  0  0
 19 24  1  0  0  0
 20 21  2  0  0  0
 20108  1  0  0  0
 21 23  1  0  0  0
 22 28  1  0  0  0
 22 32  2  0  0  0
 26 27  1  0  0  0
 28109  1  0  0  0
 28110  1  0  0  0
 29111  1  0  0  0
 29112  1  0  0  0
 33 34  1  0  0  0
 33 66  1  0  0  0
 33 70  2  0  0  0
 34 36  1  0  0  0
 34 59  1  0  0  0
 34113  1  0  0  0
 35 44  2  0  0  0
 35 45  1  0  0  0
 35 68  1  0  0  0
 36 56  1  0  0  0
 36114  1  0  0  0
 37 39  1  0  0  0
 37 47  1  0  0  0
 37 66  1  0  0  0
 37115  1  0  0  0
 38 43  2  0  0  0
 38 46  1  0  0  0
 38 47  1  0  0  0
 39 64  1  0  0  0
 39 67  2  0  0  0
 40 52  1  0  0  0
 40 53  2  0  0  0
 40 58  1  0  0  0
 41116  1  0  0  0
 41117  1  0  0  0
 41118  1  0  0  0
 41 48  1  0  0  0
 42 43  1  0  0  0
 42 66  1  0  0  0
 42119  1  0  0  0
 42120  1  0  0  0
 43 44  1  0  0  0
 44121  1  0  0  0
 45 46  2  0  0  0
 45122  1  0  0  0
 46123  1  0  0  0
 47124  1  0  0  0
 47125  1  0  0  0
 48 56  1  0  0  0
 48 65  1  0  0  0
 48126  1  0  0  0
 49 50  1  0  0  0
 49 53  1  0  0  0
 49 64  1  0  0  0
 49127  1  0  0  0
 50 51  1  0  0  0
 50128  1  0  0  0
 50129  1  0  0  0
 51 52  1  0  0  0
 51130  1  0  0  0
 51131  1  0  0  0
 52132  1  0  0  0
 52133  1  0  0  0
 53 54  1  0  0  0
 54 55  2  0  0  0
 54134  1  0  0  0
 55 57  1  0  0  0
 55135  1  0  0  0
 56 69  2  0  0  0
 57 58  2  0  0  0
 57136  1  0  0  0
 58137  1  0  0  0
 59 60  1  0  0  0
 59 61  1  0  0  0
 59 62  1  0  0  0
 60138  1  0  0  0
 60139  1  0  0  0
 60140  1  0  0  0
 61141  1  0  0  0
 61142  1  0  0  0
 61143  1  0  0  0
 62144  1  0  0  0
 62145  1  0  0  0
 62146  1  0  0  0
 63 65  1  0  0  0
 63147  1  0  0  0
 63148  1  0  0  0
 63149  1  0  0  0
 64150  1  0  0  0
 65151  1  0  0  0
 68 88  1  0  0  0
 71 73  2  0  0  0
 71 90  1  0  0  0
 71152  1  0  0  0
 72 74  1  0  0  0
 72 89  2  0  0  0
 72153  1  0  0  0
 73 86  1  0  0  0
 73 89  1  0  0  0
 74 87  1  0  0  0
 74 90  2  0  0  0
 75154  1  0  0  0
 75155  1  0  0  0
 75156  1  0  0  0
 75 83  1  0  0  0
 76157  1  0  0  0
 76158  1  0  0  0
 76159  1  0  0  0
 76 84  1  0  0  0
 77 84  1  0  0  0
 77160  1  0  0  0
 77161  1  0  0  0
 77162  1  0  0  0
 78163  1  0  0  0
 78164  1  0  0  0
 78165  1  0  0  0
 78 86  1  0  0  0
 79 86  1  0  0  0
 79166  1  0  0  0
 79167  1  0  0  0
 79168  1  0  0  0
 80169  1  0  0  0
 80170  1  0  0  0
 80171  1  0  0  0
 80 87  1  0  0  0
 81172  1  0  0  0
 81173  1  0  0  0
 81174  1  0  0  0
 81 88  1  0  0  0
 82 85  1  0  0  0
 82 87  1  0  0  0
 82175  1  0  0  0
 82176  1  0  0  0
 83 86  1  0  0  0
 83177  1  0  0  0
 84 87  1  0  0  0
 84178  1  0  0  0
 85 88  1  0  0  0
 85 91  1  0  0  0
 85179  1  0  0  0
 88 92  1  0  0  0
M  ISO  4   1 100  68 101  83 100  88 101
M  END
> <chiral flag>
0

> <version>
0

> <s_m_source_file>
/data/baiqing/PycharmProjects/Reinvent-master-3.2/result/LINK_invent/BTK/process_docking_weight1_custom_sum_contain_oxygen_bond_distance_aromatic_linkinvent_7_9_3/rearranged_h_0070.sdf

> <i_m_source_file_index>
26

> <r_mmod_Potential_Energy-OPLS-2005>
189.952056884766

> <r_mmod_Stretch_Energy-OPLS-2005>
73.6952438354492

> <r_mmod_Bend_Energy-OPLS-2005>
148.949417114258

> <r_mmod_Torsional_Energy-OPLS-2005>
193.267425537109

> <r_mmod_Improper_Torsional_Energy-OPLS-2005>
3.65996146202087

> <r_mmod_Van_der_Waal_Energy-OPLS-2005>
191.051895141602

> <r_mmod_Electrostatic_Energy-OPLS-2005>
-270.382385253906

> <r_mmod_Solvation_Energy-OPLS-2005>
-173.740661621094

> <b_mmod_Minimization_Converged-OPLS-2005>
0

> <r_mmod_RMS_Derivative-OPLS-2005>
3.97684860229492

$$$$
26
                    3D
 Structure written by MMmdl.
164172  0  0  1  0            999 V2000
  -30.7703  -14.3775   20.6712 C   0  0  0  0  0  0
  -30.4124  -12.2917   19.4022 C   0  0  0  0  0  0
  -29.4816  -12.5180   18.1970 C   0  0  0  0  0  0
  -28.0058  -12.3747   18.6134 C   0  0  0  0  0  0
  -27.6624  -13.2057   19.8779 C   0  0  2  0  0  0
  -28.7006  -12.9628   20.9947 C   0  0  0  0  0  0
  -25.2582  -13.8170   20.5677 C   0  0  0  0  0  0
  -24.1829  -13.0443   20.9158 C   0  0  0  0  0  0
  -24.6378  -11.6908   20.8716 C   0  0  0  0  0  0
  -23.9042  -10.4290   21.0386 C   0  0  0  0  0  0
  -24.3604   -9.4208   21.9163 C   0  0  0  0  0  0
  -23.6293   -8.2238   22.0740 C   0  0  0  0  0  0
  -22.4271   -8.0265   21.3531 C   0  0  0  0  0  0
  -21.9894   -9.0238   20.4637 C   0  0  0  0  0  0
  -22.7211  -10.2123   20.3036 C   0  0  0  0  0  0
  -21.6855   -6.0710   22.5278 C   0  0  0  0  0  0
  -21.4008   -6.5618   23.8208 C   0  0  0  0  0  0
  -21.3665   -5.6780   24.9181 C   0  0  0  0  0  0
  -21.6051   -4.3043   24.7230 C   0  0  0  0  0  0
  -21.8821   -3.8124   23.4354 C   0  0  0  0  0  0
  -21.9192   -4.6938   22.3410 C   0  0  0  0  0  0
  -22.7857  -13.5243   21.1834 C   0  0  0  0  0  0
  -22.1663   -4.2116   21.0986 F   0  0  0  0  0  0
  -21.5639   -3.4529   25.7742 F   0  0  0  0  0  0
  -30.0422  -13.2507   20.4544 N   0  0  0  0  0  0
  -26.3015  -12.9338   20.3374 N   0  0  0  0  0  0
  -25.9303  -11.6491   20.5753 N   0  0  0  0  0  0
  -22.0508  -12.8244   22.0404 N   0  0  0  0  0  0
  -25.4330  -15.1886   20.4102 N   0  0  0  0  0  0
  -31.8095  -14.6345   20.0565 O   0  0  0  0  0  0
  -21.6649   -6.8856   21.4236 O   0  0  0  0  0  0
  -22.3535  -14.5548   20.6681 O   0  0  0  0  0  0
  -24.6119  -31.8714   23.2133 C   0  0  0  0  0  0
  -25.9024  -32.4845   23.8421 C   0  0  1  0  0  0
  -27.2392  -27.4600   20.0947 C   0  0  0  0  0  0
  -25.5891  -33.8640   24.2355 N   0  0  0  0  0  0
  -23.3991  -30.4948   21.5532 C   0  0  2  0  0  0
  -24.8486  -28.9650   20.1170 C   0  0  0  0  0  0
  -22.7398  -29.4668   22.5001 C   0  0  0  0  0  0
  -18.0268  -28.1372   22.8499 C   0  0  0  0  0  0
  -24.1483  -36.7322   23.2640 C   0  0  0  0  0  0
  -25.9254  -30.8440   21.3643 C   0  0  0  0  0  0
  -26.0056  -29.4777   20.7185 C   0  0  0  0  0  0
  -27.2049  -28.7323   20.7137 C   0  0  0  0  0  0
  -26.0720  -26.9636   19.4830 C   0  0  0  0  0  0
  -24.8747  -27.7027   19.4987 C   0  0  0  0  0  0
  -23.6079  -29.8282   20.1672 C   0  0  0  0  0  0
  -25.4104  -36.3128   24.0346 C   0  0  1  0  0  0
  -20.5859  -28.3654   23.1330 C   0  0  2  0  0  0
  -20.6753  -26.9390   22.5428 C   0  0  0  0  0  0
  -19.5734  -26.6380   21.5220 C   0  0  0  0  0  0
  -18.1911  -26.7923   22.1624 C   0  0  0  0  0  0
  -19.1518  -28.8826   23.2915 C   0  0  0  0  0  0
  -18.9447  -30.1433   23.8924 C   0  0  0  0  0  0
  -17.6448  -30.6580   24.0566 C   0  0  0  0  0  0
  -25.9028  -34.9491   23.5149 C   0  0  0  0  0  0
  -16.5341  -29.9084   23.6319 C   0  0  0  0  0  0
  -16.7256  -28.6500   23.0348 C   0  0  0  0  0  0
  -26.4469  -31.6603   25.0726 C   0  0  0  0  0  0
  -25.3745  -31.3699   26.1483 C   0  0  0  0  0  0
  -27.0290  -30.3049   24.6070 C   0  0  0  0  0  0
  -27.6056  -32.4317   25.7473 C   0  0  0  0  0  0
  -27.5586  -37.1811   24.8464 C   0  0  0  0  0  0
  -21.4130  -29.3027   22.3739 N   0  0  0  0  0  0
  -26.4295  -37.3809   23.9416 N   0  0  0  0  0  0
  -24.6633  -31.0837   22.1025 N   0  0  0  0  0  0
  -23.4183  -28.8210   23.3037 O   0  0  0  0  0  0
  -28.3582  -26.6645   20.0236 O   0  0  0  0  0  0
  -26.5587  -34.8934   22.4708 O   0  0  0  0  0  0
  -23.5313  -32.1457   23.7537 O   0  0  0  0  0  0
  -29.8284  -20.4860   20.4815 C   0  0  0  0  0  0
  -30.9649  -20.2384   21.2982 C   0  0  0  0  0  0
  -31.4515  -19.1135   23.4687 C   0  0  0  0  0  0
  -32.9240  -18.7218   21.4568 C   0  0  0  0  0  0
  -30.5461  -24.7122   20.0562 C   0  0  0  0  0  0
  -29.8410  -25.2607   21.3126 C   0  0  0  0  0  0
  -31.5184  -23.5369   20.3016 C   0  0  0  0  0  0
  -31.0306  -16.3464   22.1671 C   0  0  0  0  0  0
  -29.2625  -26.6783   21.1211 C   0  0  0  0  0  0
  -31.4667  -18.9437   21.9341 C   0  0  0  0  0  0
  -30.5954  -17.6974   21.5270 C   0  0  0  0  0  0
  -29.8184  -21.7346   20.0729 N   0  0  0  0  0  0
  -31.6235  -21.3705   21.4230 N   0  0  0  0  0  0
  -30.9266  -22.2534   20.6647 N   0  0  0  0  0  0
  -30.3160  -15.1804   21.6412 N   0  0  0  0  0  0
  -30.6238  -17.5635   20.1990 F   0  0  0  0  0  0
  -29.3270  -17.8991   21.8911 F   0  0  0  0  0  0
  -31.4558  -12.3860   19.0952 H   0  0  0  0  0  0
  -30.3098  -11.2739   19.7800 H   0  0  0  0  0  0
  -29.7193  -11.8057   17.4049 H   0  0  0  0  0  0
  -29.6502  -13.5124   17.7809 H   0  0  0  0  0  0
  -27.8152  -11.3182   18.8032 H   0  0  0  0  0  0
  -27.3523  -12.6551   17.7858 H   0  0  0  0  0  0
  -27.7169  -14.2582   19.5975 H   0  0  0  0  0  0
  -28.6608  -11.9221   21.3210 H   0  0  0  0  0  0
  -28.4483  -13.5497   21.8777 H   0  0  0  0  0  0
  -25.2750   -9.5699   22.4732 H   0  0  0  0  0  0
  -24.0000   -7.4636   22.7465 H   0  0  0  0  0  0
  -21.0808   -8.8752   19.8963 H   0  0  0  0  0  0
  -22.3653  -10.9654   19.6140 H   0  0  0  0  0  0
  -21.1990   -7.6122   23.9702 H   0  0  0  0  0  0
  -21.1497   -6.0512   25.9087 H   0  0  0  0  0  0
  -22.0594   -2.7578   23.2874 H   0  0  0  0  0  0
  -22.4132  -11.9913   22.4797 H   0  0  0  0  0  0
  -21.1126  -13.1268   22.2610 H   0  0  0  0  0  0
  -24.6751  -15.8530   20.5240 H   0  0  0  0  0  0
  -26.3002  -15.6239   20.1201 H   0  0  0  0  0  0
  -26.7099  -32.5583   23.1195 H   0  0  0  0  0  0
  -25.0048  -33.9810   25.0503 H   0  0  0  0  0  0
  -22.6866  -31.3111   21.4166 H   0  0  0  0  0  0
  -23.3747  -35.9654   23.3317 H   0  0  0  0  0  0
  -24.3580  -36.8914   22.2051 H   0  0  0  0  0  0
  -23.7229  -37.6532   23.6636 H   0  0  0  0  0  0
  -26.0319  -31.6077   20.5924 H   0  0  0  0  0  0
  -26.8157  -30.9029   21.9784 H   0  0  0  0  0  0
  -28.0956  -29.1412   21.1698 H   0  0  0  0  0  0
  -26.0920  -25.9961   19.0010 H   0  0  0  0  0  0
  -23.9877  -27.3015   19.0280 H   0  0  0  0  0  0
  -23.7129  -30.6051   19.4090 H   0  0  0  0  0  0
  -22.7330  -29.2465   19.8712 H   0  0  0  0  0  0
  -25.1275  -36.2007   25.0840 H   0  0  0  0  0  0
  -20.9956  -28.3213   24.1449 H   0  0  0  0  0  0
  -20.5648  -26.2260   23.3614 H   0  0  0  0  0  0
  -21.6625  -26.7427   22.1225 H   0  0  0  0  0  0
  -19.6893  -25.6297   21.1231 H   0  0  0  0  0  0
  -19.6678  -27.3205   20.6762 H   0  0  0  0  0  0
  -17.4189  -26.6688   21.4014 H   0  0  0  0  0  0
  -18.0294  -26.0053   22.9005 H   0  0  0  0  0  0
  -19.7922  -30.7238   24.2312 H   0  0  0  0  0  0
  -17.5005  -31.6261   24.5164 H   0  0  0  0  0  0
  -15.5341  -30.2995   23.7627 H   0  0  0  0  0  0
  -15.8655  -28.0823   22.7052 H   0  0  0  0  0  0
  -24.5913  -30.7052   25.7820 H   0  0  0  0  0  0
  -24.8941  -32.2852   26.4951 H   0  0  0  0  0  0
  -25.8105  -30.8853   27.0228 H   0  0  0  0  0  0
  -26.2815  -29.6815   24.1145 H   0  0  0  0  0  0
  -27.4098  -29.7275   25.4505 H   0  0  0  0  0  0
  -27.8638  -30.4379   23.9183 H   0  0  0  0  0  0
  -27.2682  -33.3600   26.2099 H   0  0  0  0  0  0
  -28.3828  -32.6911   25.0270 H   0  0  0  0  0  0
  -28.0772  -31.8418   26.5344 H   0  0  0  0  0  0
  -28.2613  -38.0098   24.7516 H   0  0  0  0  0  0
  -28.1069  -36.2635   24.6279 H   0  0  0  0  0  0
  -27.2310  -37.1451   25.8867 H   0  0  0  0  0  0
  -20.9282  -29.8758   21.6972 H   0  0  0  0  0  0
  -26.0193  -38.2893   24.1415 H   0  0  0  0  0  0
  -29.0675  -19.7865   20.1604 H   0  0  0  0  0  0
  -32.0264  -19.9866   23.7769 H   0  0  0  0  0  0
  -31.8885  -18.2569   23.9797 H   0  0  0  0  0  0
  -30.4358  -19.2436   23.8419 H   0  0  0  0  0  0
  -33.5584  -19.5779   21.6894 H   0  0  0  0  0  0
  -32.9643  -18.5777   20.3763 H   0  0  0  0  0  0
  -33.4007  -17.8625   21.9238 H   0  0  0  0  0  0
  -31.1296  -25.5201   19.6138 H   0  0  0  0  0  0
  -29.8072  -24.4365   19.3026 H   0  0  0  0  0  0
  -30.5464  -25.2934   22.1437 H   0  0  0  0  0  0
  -29.0502  -24.5727   21.6131 H   0  0  0  0  0  0
  -32.2395  -23.8141   21.0719 H   0  0  0  0  0  0
  -32.1005  -23.3684   19.3947 H   0  0  0  0  0  0
  -30.8557  -16.3703   23.2417 H   0  0  0  0  0  0
  -32.0997  -16.1771   22.0519 H   0  0  0  0  0  0
  -30.0588  -27.3969   20.9235 H   0  0  0  0  0  0
  -28.7704  -26.9813   22.0470 H   0  0  0  0  0  0
  -29.4666  -14.9082   22.1105 H   0  0  0  0  0  0
  1 25  1  0  0  0
  1 30  2  0  0  0
  1 85  1  0  0  0
  2  3  1  0  0  0
  2 25  1  0  0  0
  2 88  1  0  0  0
  2 89  1  0  0  0
  3  4  1  0  0  0
  3 90  1  0  0  0
  3 91  1  0  0  0
  4  5  1  0  0  0
  4 92  1  0  0  0
  4 93  1  0  0  0
  5  6  1  0  0  0
  5 26  1  0  0  0
  5 94  1  0  0  0
  6 25  1  0  0  0
  6 95  1  0  0  0
  6 96  1  0  0  0
  7  8  2  0  0  0
  7 26  1  0  0  0
  7 29  1  0  0  0
  8  9  1  0  0  0
  8 22  1  0  0  0
  9 10  1  0  0  0
  9 27  2  0  0  0
 10 11  2  0  0  0
 10 15  1  0  0  0
 11 12  1  0  0  0
 11 97  1  0  0  0
 12 13  2  0  0  0
 12 98  1  0  0  0
 13 14  1  0  0  0
 13 31  1  0  0  0
 14 15  2  0  0  0
 14 99  1  0  0  0
 15100  1  0  0  0
 16 17  2  0  0  0
 16 21  1  0  0  0
 16 31  1  0  0  0
 17 18  1  0  0  0
 17101  1  0  0  0
 18 19  2  0  0  0
 18102  1  0  0  0
 19 20  1  0  0  0
 19 24  1  0  0  0
 20 21  2  0  0  0
 20103  1  0  0  0
 21 23  1  0  0  0
 22 28  1  0  0  0
 22 32  2  0  0  0
 26 27  1  0  0  0
 28104  1  0  0  0
 28105  1  0  0  0
 29106  1  0  0  0
 29107  1  0  0  0
 33 34  1  0  0  0
 33 66  1  0  0  0
 33 70  2  0  0  0
 34 36  1  0  0  0
 34 59  1  0  0  0
 34108  1  0  0  0
 35 44  2  0  0  0
 35 45  1  0  0  0
 35 68  1  0  0  0
 36 56  1  0  0  0
 36109  1  0  0  0
 37 39  1  0  0  0
 37 47  1  0  0  0
 37 66  1  0  0  0
 37110  1  0  0  0
 38 43  2  0  0  0
 38 46  1  0  0  0
 38 47  1  0  0  0
 39 64  1  0  0  0
 39 67  2  0  0  0
 40 52  1  0  0  0
 40 53  2  0  0  0
 40 58  1  0  0  0
 41111  1  0  0  0
 41112  1  0  0  0
 41113  1  0  0  0
 41 48  1  0  0  0
 42 43  1  0  0  0
 42 66  1  0  0  0
 42114  1  0  0  0
 42115  1  0  0  0
 43 44  1  0  0  0
 44116  1  0  0  0
 45 46  2  0  0  0
 45117  1  0  0  0
 46118  1  0  0  0
 47119  1  0  0  0
 47120  1  0  0  0
 48 56  1  0  0  0
 48 65  1  0  0  0
 48121  1  0  0  0
 49 50  1  0  0  0
 49 53  1  0  0  0
 49 64  1  0  0  0
 49122  1  0  0  0
 50 51  1  0  0  0
 50123  1  0  0  0
 50124  1  0  0  0
 51 52  1  0  0  0
 51125  1  0  0  0
 51126  1  0  0  0
 52127  1  0  0  0
 52128  1  0  0  0
 53 54  1  0  0  0
 54 55  2  0  0  0
 54129  1  0  0  0
 55 57  1  0  0  0
 55130  1  0  0  0
 56 69  2  0  0  0
 57 58  2  0  0  0
 57131  1  0  0  0
 58132  1  0  0  0
 59 60  1  0  0  0
 59 61  1  0  0  0
 59 62  1  0  0  0
 60133  1  0  0  0
 60134  1  0  0  0
 60135  1  0  0  0
 61136  1  0  0  0
 61137  1  0  0  0
 61138  1  0  0  0
 62139  1  0  0  0
 62140  1  0  0  0
 62141  1  0  0  0
 63 65  1  0  0  0
 63142  1  0  0  0
 63143  1  0  0  0
 63144  1  0  0  0
 64145  1  0  0  0
 65146  1  0  0  0
 68 79  1  0  0  0
 71 72  1  0  0  0
 71 82  2  0  0  0
 71147  1  0  0  0
 72 80  1  0  0  0
 72 83  2  0  0  0
 73148  1  0  0  0
 73149  1  0  0  0
 73150  1  0  0  0
 73 80  1  0  0  0
 74 80  1  0  0  0
 74151  1  0  0  0
 74152  1  0  0  0
 74153  1  0  0  0
 75 76  1  0  0  0
 75 77  1  0  0  0
 75154  1  0  0  0
 75155  1  0  0  0
 76 79  1  0  0  0
 76156  1  0  0  0
 76157  1  0  0  0
 77 84  1  0  0  0
 77158  1  0  0  0
 77159  1  0  0  0
 78 81  1  0  0  0
 78 85  1  0  0  0
 78160  1  0  0  0
 78161  1  0  0  0
 79162  1  0  0  0
 79163  1  0  0  0
 80 81  1  0  0  0
 81 86  1  0  0  0
 81 87  1  0  0  0
 82 84  1  0  0  0
 83 84  1  0  0  0
 85164  1  0  0  0
M  ISO  4   1 100  68 101  79 101  85 100
M  END
> <chiral flag>
0

> <version>
0

> <s_m_source_file>
/data/baiqing/PycharmProjects/Reinvent-master-3.2/result/LINK_invent/BTK/process_docking_weight1_custom_sum_contain_oxygen_bond_distance_aromatic_linkinvent_7_9_3/rearranged_h_0070.sdf

> <i_m_source_file_index>
27

> <r_mmod_Potential_Energy-OPLS-2005>
-110.484893798828

> <r_mmod_Stretch_Energy-OPLS-2005>
36.0290374755859

> <r_mmod_Bend_Energy-OPLS-2005>
111.465850830078

> <r_mmod_Torsional_Energy-OPLS-2005>
220.546890258789

> <r_mmod_Improper_Torsional_Energy-OPLS-2005>
3.59815120697021

> <r_mmod_Van_der_Waal_Energy-OPLS-2005>
140.167953491211

> <r_mmod_Electrostatic_Energy-OPLS-2005>
-419.804077148438

> <r_mmod_Solvation_Energy-OPLS-2005>
-209.815017700195

> <b_mmod_Minimization_Converged-OPLS-2005>
0

> <r_mmod_RMS_Derivative-OPLS-2005>
1.58447909355164

$$$$
27
                    3D
 Structure written by MMmdl.
164172  0  0  1  0            999 V2000
  -30.7773  -14.5770   20.5909 C   0  0  0  0  0  0
  -30.4090  -12.3742   19.4796 C   0  0  0  0  0  0
  -29.5029  -12.5087   18.2381 C   0  0  0  0  0  0
  -28.0282  -12.3355   18.6394 C   0  0  0  0  0  0
  -27.6489  -13.2119   19.8590 C   0  0  2  0  0  0
  -28.6944  -13.0990   20.9988 C   0  0  0  0  0  0
  -25.2386  -13.8053   20.5480 C   0  0  0  0  0  0
  -24.1750  -13.0333   20.9171 C   0  0  0  0  0  0
  -24.6383  -11.6841   20.8778 C   0  0  0  0  0  0
  -23.9061  -10.4240   21.0437 C   0  0  0  0  0  0
  -24.3614   -9.4162   21.9210 C   0  0  0  0  0  0
  -23.6285   -8.2203   22.0762 C   0  0  0  0  0  0
  -22.4269   -8.0256   21.3540 C   0  0  0  0  0  0
  -21.9908   -9.0232   20.4645 C   0  0  0  0  0  0
  -22.7243  -10.2104   20.3068 C   0  0  0  0  0  0
  -21.6849   -6.0716   22.5275 C   0  0  0  0  0  0
  -21.4010   -6.5628   23.8206 C   0  0  0  0  0  0
  -21.3655   -5.6789   24.9173 C   0  0  0  0  0  0
  -21.6046   -4.3051   24.7229 C   0  0  0  0  0  0
  -21.8823   -3.8135   23.4355 C   0  0  0  0  0  0
  -21.9195   -4.6943   22.3405 C   0  0  0  0  0  0
  -22.7778  -13.5142   21.1855 C   0  0  0  0  0  0
  -22.1664   -4.2130   21.0982 F   0  0  0  0  0  0
  -21.5634   -3.4540   25.7744 F   0  0  0  0  0  0
  -30.0273  -13.4226   20.4632 N   0  0  0  0  0  0
  -26.2938  -12.9312   20.3291 N   0  0  0  0  0  0
  -25.9328  -11.6471   20.5833 N   0  0  0  0  0  0
  -22.0457  -12.8153   22.0447 N   0  0  0  0  0  0
  -25.3697  -15.1729   20.3528 N   0  0  0  0  0  0
  -31.8549  -14.6103   19.9914 O   0  0  0  0  0  0
  -21.6632   -6.8855   21.4236 O   0  0  0  0  0  0
  -22.3453  -14.5453   20.6717 O   0  0  0  0  0  0
  -24.6220  -31.8644   23.2077 C   0  0  0  0  0  0
  -25.9091  -32.4803   23.8393 C   0  0  1  0  0  0
  -27.2268  -27.3667   20.1134 C   0  0  0  0  0  0
  -25.5920  -33.8603   24.2318 N   0  0  0  0  0  0
  -23.4141  -30.4910   21.5492 C   0  0  2  0  0  0
  -24.8605  -28.9595   20.1114 C   0  0  0  0  0  0
  -22.7463  -29.4654   22.4951 C   0  0  0  0  0  0
  -18.0302  -28.1385   22.8504 C   0  0  0  0  0  0
  -24.1488  -36.7308   23.2637 C   0  0  0  0  0  0
  -25.9517  -30.8122   21.3725 C   0  0  0  0  0  0
  -26.0277  -29.4448   20.7139 C   0  0  0  0  0  0
  -27.2149  -28.6607   20.7063 C   0  0  0  0  0  0
  -26.0354  -26.9308   19.4813 C   0  0  0  0  0  0
  -24.8640  -27.7057   19.4869 C   0  0  0  0  0  0
  -23.6265  -29.8318   20.1624 C   0  0  0  0  0  0
  -25.4109  -36.3098   24.0333 C   0  0  1  0  0  0
  -20.5900  -28.3688   23.1305 C   0  0  2  0  0  0
  -20.6804  -26.9419   22.5419 C   0  0  0  0  0  0
  -19.5776  -26.6383   21.5225 C   0  0  0  0  0  0
  -18.1954  -26.7933   22.1633 C   0  0  0  0  0  0
  -19.1553  -28.8850   23.2901 C   0  0  0  0  0  0
  -18.9473  -30.1456   23.8903 C   0  0  0  0  0  0
  -17.6474  -30.6587   24.0562 C   0  0  0  0  0  0
  -25.9043  -34.9465   23.5120 C   0  0  0  0  0  0
  -16.5368  -29.9080   23.6331 C   0  0  0  0  0  0
  -16.7288  -28.6502   23.0357 C   0  0  0  0  0  0
  -26.4497  -31.6589   25.0734 C   0  0  0  0  0  0
  -25.3753  -31.3694   26.1467 C   0  0  0  0  0  0
  -27.0333  -30.3020   24.6152 C   0  0  0  0  0  0
  -27.6055  -32.4315   25.7505 C   0  0  0  0  0  0
  -27.5581  -37.1809   24.8467 C   0  0  0  0  0  0
  -21.4178  -29.3054   22.3694 N   0  0  0  0  0  0
  -26.4297  -37.3782   23.9405 N   0  0  0  0  0  0
  -24.6814  -31.0710   22.0999 N   0  0  0  0  0  0
  -23.4209  -28.8181   23.2997 O   0  0  0  0  0  0
  -28.3464  -26.5300   20.1807 O   0  0  0  0  0  0
  -26.5608  -34.8922   22.4684 O   0  0  0  0  0  0
  -23.5393  -32.1426   23.7427 O   0  0  0  0  0  0
  -29.2662  -20.5565   22.1751 C   0  0  0  0  0  0
  -29.5181  -19.1611   22.1041 C   0  0  0  0  0  0
  -29.1496  -21.2907   20.9707 C   0  0  0  0  0  0
  -29.6477  -18.5492   20.8313 C   0  0  0  0  0  0
  -29.4745  -16.7114   19.0786 C   0  0  0  0  0  0
  -27.9735  -16.7572   21.0437 C   0  0  0  0  0  0
  -31.7803  -16.6904   21.5819 C   0  0  0  0  0  0
  -30.0023  -15.6072   22.8400 C   0  0  0  0  0  0
  -28.3982  -22.6468   20.9220 C   0  0  0  0  0  0
  -29.1110  -24.0137   20.6106 C   0  0  0  0  0  0
  -28.0434  -25.0976   20.2137 C   0  0  0  0  0  0
  -29.4307  -16.9922   20.6144 C   0  0  0  0  0  0
  -30.4228  -15.9435   21.3768 C   0  0  0  0  0  0
  -29.4052  -20.6815   19.7849 N   0  0  0  0  0  0
  -29.6459  -19.3577   19.7254 N   0  0  0  0  0  0
  -31.4577  -12.4126   19.1811 H   0  0  0  0  0  0
  -30.2881  -11.3862   19.9262 H   0  0  0  0  0  0
  -29.7746  -11.7622   17.4898 H   0  0  0  0  0  0
  -29.6523  -13.4831   17.7701 H   0  0  0  0  0  0
  -27.8709  -11.2829   18.8776 H   0  0  0  0  0  0
  -27.3755  -12.5571   17.7939 H   0  0  0  0  0  0
  -27.6499  -14.2306   19.4825 H   0  0  0  0  0  0
  -28.6981  -12.0852   21.4030 H   0  0  0  0  0  0
  -28.4107  -13.7265   21.8326 H   0  0  0  0  0  0
  -25.2759   -9.5648   22.4786 H   0  0  0  0  0  0
  -23.9989   -7.4594   22.7484 H   0  0  0  0  0  0
  -21.0840   -8.8763   19.8949 H   0  0  0  0  0  0
  -22.3713  -10.9647   19.6178 H   0  0  0  0  0  0
  -21.1997   -7.6138   23.9698 H   0  0  0  0  0  0
  -21.1474   -6.0524   25.9073 H   0  0  0  0  0  0
  -22.0605   -2.7596   23.2864 H   0  0  0  0  0  0
  -22.4097  -11.9823   22.4829 H   0  0  0  0  0  0
  -21.1082  -13.1177   22.2676 H   0  0  0  0  0  0
  -24.5806  -15.8026   20.4450 H   0  0  0  0  0  0
  -26.2063  -15.6284   20.0146 H   0  0  0  0  0  0
  -26.7163  -32.5503   23.1151 H   0  0  0  0  0  0
  -25.0059  -33.9759   25.0456 H   0  0  0  0  0  0
  -22.7061  -31.3104   21.4096 H   0  0  0  0  0  0
  -23.3743  -35.9650   23.3311 H   0  0  0  0  0  0
  -24.3575  -36.8917   22.2050 H   0  0  0  0  0  0
  -23.7260  -37.6521   23.6649 H   0  0  0  0  0  0
  -26.0783  -31.5790   20.6076 H   0  0  0  0  0  0
  -26.8333  -30.8580   21.9998 H   0  0  0  0  0  0
  -28.1088  -29.0267   21.1923 H   0  0  0  0  0  0
  -25.9691  -25.9767   18.9822 H   0  0  0  0  0  0
  -23.9707  -27.3280   19.0086 H   0  0  0  0  0  0
  -23.7432  -30.6108   19.4083 H   0  0  0  0  0  0
  -22.7489  -29.2585   19.8586 H   0  0  0  0  0  0
  -25.1290  -36.1957   25.0829 H   0  0  0  0  0  0
  -21.0014  -28.3274   24.1414 H   0  0  0  0  0  0
  -20.5704  -26.2296   23.3611 H   0  0  0  0  0  0
  -21.6673  -26.7468   22.1205 H   0  0  0  0  0  0
  -19.6942  -25.6293   21.1259 H   0  0  0  0  0  0
  -19.6720  -27.3192   20.6747 H   0  0  0  0  0  0
  -17.4227  -26.6684   21.4029 H   0  0  0  0  0  0
  -18.0348  -26.0069   22.9023 H   0  0  0  0  0  0
  -19.7949  -30.7277   24.2263 H   0  0  0  0  0  0
  -17.5021  -31.6268   24.5162 H   0  0  0  0  0  0
  -15.5372  -30.2988   23.7639 H   0  0  0  0  0  0
  -15.8683  -28.0831   22.7073 H   0  0  0  0  0  0
  -24.5927  -30.7044   25.7795 H   0  0  0  0  0  0
  -24.8941  -32.2843   26.4927 H   0  0  0  0  0  0
  -25.8094  -30.8850   27.0222 H   0  0  0  0  0  0
  -26.2894  -29.6772   24.1190 H   0  0  0  0  0  0
  -27.4061  -29.7259   25.4632 H   0  0  0  0  0  0
  -27.8751  -30.4306   23.9345 H   0  0  0  0  0  0
  -27.2666  -33.3599   26.2111 H   0  0  0  0  0  0
  -28.3857  -32.6907   25.0336 H   0  0  0  0  0  0
  -28.0745  -31.8432   26.5402 H   0  0  0  0  0  0
  -28.2605  -38.0099   24.7496 H   0  0  0  0  0  0
  -28.1071  -36.2626   24.6311 H   0  0  0  0  0  0
  -27.2295  -37.1486   25.8871 H   0  0  0  0  0  0
  -20.9351  -29.8761   21.6898 H   0  0  0  0  0  0
  -26.0183  -38.2862   24.1388 H   0  0  0  0  0  0
  -29.0330  -21.0169   23.1244 H   0  0  0  0  0  0
  -29.4759  -18.5628   23.0013 H   0  0  0  0  0  0
  -28.7609  -17.3242   18.5264 H   0  0  0  0  0  0
  -29.2107  -15.6917   18.8125 H   0  0  0  0  0  0
  -30.4641  -16.9133   18.6671 H   0  0  0  0  0  0
  -27.2717  -17.2900   20.4018 H   0  0  0  0  0  0
  -27.7790  -17.0974   22.0616 H   0  0  0  0  0  0
  -27.7343  -15.7063   21.0265 H   0  0  0  0  0  0
  -31.7074  -17.5336   22.2669 H   0  0  0  0  0  0
  -32.1690  -17.0815   20.6403 H   0  0  0  0  0  0
  -32.5455  -16.0347   22.0008 H   0  0  0  0  0  0
  -30.1836  -16.4409   23.5171 H   0  0  0  0  0  0
  -30.5757  -14.7661   23.2332 H   0  0  0  0  0  0
  -28.9540  -15.3632   22.9755 H   0  0  0  0  0  0
  -27.8590  -22.7559   21.8642 H   0  0  0  0  0  0
  -27.6144  -22.5074   20.1760 H   0  0  0  0  0  0
  -29.8184  -23.8910   19.7907 H   0  0  0  0  0  0
  -29.6834  -24.3301   21.4819 H   0  0  0  0  0  0
  -27.6894  -24.8008   19.2264 H   0  0  0  0  0  0
  -27.2052  -24.9657   20.9009 H   0  0  0  0  0  0
  1 25  1  0  0  0
  1 30  2  0  0  0
  1 83  1  0  0  0
  2  3  1  0  0  0
  2 25  1  0  0  0
  2 86  1  0  0  0
  2 87  1  0  0  0
  3  4  1  0  0  0
  3 88  1  0  0  0
  3 89  1  0  0  0
  4  5  1  0  0  0
  4 90  1  0  0  0
  4 91  1  0  0  0
  5  6  1  0  0  0
  5 26  1  0  0  0
  5 92  1  0  0  0
  6 25  1  0  0  0
  6 93  1  0  0  0
  6 94  1  0  0  0
  7  8  2  0  0  0
  7 26  1  0  0  0
  7 29  1  0  0  0
  8  9  1  0  0  0
  8 22  1  0  0  0
  9 10  1  0  0  0
  9 27  2  0  0  0
 10 11  2  0  0  0
 10 15  1  0  0  0
 11 12  1  0  0  0
 11 95  1  0  0  0
 12 13  2  0  0  0
 12 96  1  0  0  0
 13 14  1  0  0  0
 13 31  1  0  0  0
 14 15  2  0  0  0
 14 97  1  0  0  0
 15 98  1  0  0  0
 16 17  2  0  0  0
 16 21  1  0  0  0
 16 31  1  0  0  0
 17 18  1  0  0  0
 17 99  1  0  0  0
 18 19  2  0  0  0
 18100  1  0  0  0
 19 20  1  0  0  0
 19 24  1  0  0  0
 20 21  2  0  0  0
 20101  1  0  0  0
 21 23  1  0  0  0
 22 28  1  0  0  0
 22 32  2  0  0  0
 26 27  1  0  0  0
 28102  1  0  0  0
 28103  1  0  0  0
 29104  1  0  0  0
 29105  1  0  0  0
 33 34  1  0  0  0
 33 66  1  0  0  0
 33 70  2  0  0  0
 34 36  1  0  0  0
 34 59  1  0  0  0
 34106  1  0  0  0
 35 44  2  0  0  0
 35 45  1  0  0  0
 35 68  1  0  0  0
 36 56  1  0  0  0
 36107  1  0  0  0
 37 39  1  0  0  0
 37 47  1  0  0  0
 37 66  1  0  0  0
 37108  1  0  0  0
 38 43  2  0  0  0
 38 46  1  0  0  0
 38 47  1  0  0  0
 39 64  1  0  0  0
 39 67  2  0  0  0
 40 52  1  0  0  0
 40 53  2  0  0  0
 40 58  1  0  0  0
 41109  1  0  0  0
 41110  1  0  0  0
 41111  1  0  0  0
 41 48  1  0  0  0
 42 43  1  0  0  0
 42 66  1  0  0  0
 42112  1  0  0  0
 42113  1  0  0  0
 43 44  1  0  0  0
 44114  1  0  0  0
 45 46  2  0  0  0
 45115  1  0  0  0
 46116  1  0  0  0
 47117  1  0  0  0
 47118  1  0  0  0
 48 56  1  0  0  0
 48 65  1  0  0  0
 48119  1  0  0  0
 49 50  1  0  0  0
 49 53  1  0  0  0
 49 64  1  0  0  0
 49120  1  0  0  0
 50 51  1  0  0  0
 50121  1  0  0  0
 50122  1  0  0  0
 51 52  1  0  0  0
 51123  1  0  0  0
 51124  1  0  0  0
 52125  1  0  0  0
 52126  1  0  0  0
 53 54  1  0  0  0
 54 55  2  0  0  0
 54127  1  0  0  0
 55 57  1  0  0  0
 55128  1  0  0  0
 56 69  2  0  0  0
 57 58  2  0  0  0
 57129  1  0  0  0
 58130  1  0  0  0
 59 60  1  0  0  0
 59 61  1  0  0  0
 59 62  1  0  0  0
 60131  1  0  0  0
 60132  1  0  0  0
 60133  1  0  0  0
 61134  1  0  0  0
 61135  1  0  0  0
 61136  1  0  0  0
 62137  1  0  0  0
 62138  1  0  0  0
 62139  1  0  0  0
 63 65  1  0  0  0
 63140  1  0  0  0
 63141  1  0  0  0
 63142  1  0  0  0
 64143  1  0  0  0
 65144  1  0  0  0
 68 81  1  0  0  0
 71 72  2  0  0  0
 71 73  1  0  0  0
 71145  1  0  0  0
 72 74  1  0  0  0
 72146  1  0  0  0
 73 79  1  0  0  0
 73 84  2  0  0  0
 74 82  1  0  0  0
 74 85  2  0  0  0
 75147  1  0  0  0
 75148  1  0  0  0
 75149  1  0  0  0
 75 82  1  0  0  0
 76 82  1  0  0  0
 76150  1  0  0  0
 76151  1  0  0  0
 76152  1  0  0  0
 77153  1  0  0  0
 77154  1  0  0  0
 77155  1  0  0  0
 77 83  1  0  0  0
 78 83  1  0  0  0
 78156  1  0  0  0
 78157  1  0  0  0
 78158  1  0  0  0
 79 80  1  0  0  0
 79159  1  0  0  0
 79160  1  0  0  0
 80 81  1  0  0  0
 80161  1  0  0  0
 80162  1  0  0  0
 81163  1  0  0  0
 81164  1  0  0  0
 82 83  1  0  0  0
 84 85  1  0  0  0
M  ISO  4   1 100  68 101  81 101  83 100
M  END
> <chiral flag>
0

> <version>
0

> <s_m_source_file>
/data/baiqing/PycharmProjects/Reinvent-master-3.2/result/LINK_invent/BTK/process_docking_weight1_custom_sum_contain_oxygen_bond_distance_aromatic_linkinvent_7_9_3/rearranged_h_0070.sdf

> <i_m_source_file_index>
28

> <r_mmod_Potential_Energy-OPLS-2005>
208.765411376953

> <r_mmod_Stretch_Energy-OPLS-2005>
89.8561325073242

> <r_mmod_Bend_Energy-OPLS-2005>
181.105880737305

> <r_mmod_Torsional_Energy-OPLS-2005>
208.686630249023

> <r_mmod_Improper_Torsional_Energy-OPLS-2005>
6.90671014785767

> <r_mmod_Van_der_Waal_Energy-OPLS-2005>
195.186294555664

> <r_mmod_Electrostatic_Energy-OPLS-2005>
-303.762023925781

> <r_mmod_Solvation_Energy-OPLS-2005>
-205.193328857422

> <b_mmod_Minimization_Converged-OPLS-2005>
0

> <r_mmod_RMS_Derivative-OPLS-2005>
1.40714049339294

$$$$
28
                    3D
 Structure written by MMmdl.
163171  0  0  1  0            999 V2000
  -30.7529  -14.3688   20.6870 C   0  0  0  0  0  0
  -30.4249  -12.2841   19.3822 C   0  0  0  0  0  0
  -29.4888  -12.5508   18.1877 C   0  0  0  0  0  0
  -28.0077  -12.4201   18.6047 C   0  0  0  0  0  0
  -27.6786  -13.1941   19.9096 C   0  0  2  0  0  0
  -28.7287  -12.8654   20.9989 C   0  0  0  0  0  0
  -25.2660  -13.8150   20.5720 C   0  0  0  0  0  0
  -24.1858  -13.0434   20.9163 C   0  0  0  0  0  0
  -24.6398  -11.6892   20.8731 C   0  0  0  0  0  0
  -23.9052  -10.4274   21.0386 C   0  0  0  0  0  0
  -24.3591   -9.4186   21.9168 C   0  0  0  0  0  0
  -23.6253   -8.2227   22.0781 C   0  0  0  0  0  0
  -22.4242   -8.0278   21.3570 C   0  0  0  0  0  0
  -21.9871   -9.0254   20.4670 C   0  0  0  0  0  0
  -22.7213  -10.2122   20.3059 C   0  0  0  0  0  0
  -21.6847   -6.0709   22.5279 C   0  0  0  0  0  0
  -21.3993   -6.5628   23.8213 C   0  0  0  0  0  0
  -21.3649   -5.6802   24.9182 C   0  0  0  0  0  0
  -21.6040   -4.3062   24.7237 C   0  0  0  0  0  0
  -21.8807   -3.8143   23.4374 C   0  0  0  0  0  0
  -21.9193   -4.6944   22.3417 C   0  0  0  0  0  0
  -22.7871  -13.5246   21.1792 C   0  0  0  0  0  0
  -22.1661   -4.2123   21.0992 F   0  0  0  0  0  0
  -21.5619   -3.4557   25.7761 F   0  0  0  0  0  0
  -30.0512  -13.2212   20.4556 N   0  0  0  0  0  0
  -26.3120  -12.9285   20.3567 N   0  0  0  0  0  0
  -25.9347  -11.6456   20.5832 N   0  0  0  0  0  0
  -22.0552  -12.8237   22.0369 N   0  0  0  0  0  0
  -25.4352  -15.1845   20.4084 N   0  0  0  0  0  0
  -31.8019  -14.6012   20.0750 O   0  0  0  0  0  0
  -21.6632   -6.8864   21.4250 O   0  0  0  0  0  0
  -22.3528  -14.5525   20.6621 O   0  0  0  0  0  0
  -24.6107  -31.8703   23.2103 C   0  0  0  0  0  0
  -25.9011  -32.4841   23.8400 C   0  0  1  0  0  0
  -27.2653  -27.4757   20.1030 C   0  0  0  0  0  0
  -25.5879  -33.8632   24.2335 N   0  0  0  0  0  0
  -23.3984  -30.4904   21.5491 C   0  0  2  0  0  0
  -24.8528  -28.9613   20.1148 C   0  0  0  0  0  0
  -22.7394  -29.4659   22.4997 C   0  0  0  0  0  0
  -18.0270  -28.1378   22.8501 C   0  0  0  0  0  0
  -24.1483  -36.7334   23.2633 C   0  0  0  0  0  0
  -25.9198  -30.8533   21.3530 C   0  0  0  0  0  0
  -26.0063  -29.4880   20.7076 C   0  0  0  0  0  0
  -27.2131  -28.7585   20.7009 C   0  0  0  0  0  0
  -26.0908  -26.9571   19.5177 C   0  0  0  0  0  0
  -24.8882  -27.6906   19.5148 C   0  0  0  0  0  0
  -23.6069  -29.8173   20.1649 C   0  0  0  0  0  0
  -25.4097  -36.3124   24.0340 C   0  0  1  0  0  0
  -20.5859  -28.3653   23.1334 C   0  0  2  0  0  0
  -20.6755  -26.9393   22.5426 C   0  0  0  0  0  0
  -19.5740  -26.6384   21.5218 C   0  0  0  0  0  0
  -18.1918  -26.7926   22.1623 C   0  0  0  0  0  0
  -19.1522  -28.8833   23.2916 C   0  0  0  0  0  0
  -18.9448  -30.1441   23.8926 C   0  0  0  0  0  0
  -17.6453  -30.6584   24.0572 C   0  0  0  0  0  0
  -25.9024  -34.9485   23.5134 C   0  0  0  0  0  0
  -16.5344  -29.9095   23.6323 C   0  0  0  0  0  0
  -16.7258  -28.6511   23.0343 C   0  0  0  0  0  0
  -26.4459  -31.6612   25.0711 C   0  0  0  0  0  0
  -25.3749  -31.3707   26.1479 C   0  0  0  0  0  0
  -27.0275  -30.3061   24.6040 C   0  0  0  0  0  0
  -27.6048  -32.4323   25.7468 C   0  0  0  0  0  0
  -27.5594  -37.1793   24.8443 C   0  0  0  0  0  0
  -21.4125  -29.3025   22.3744 N   0  0  0  0  0  0
  -26.4280  -37.3815   23.9430 N   0  0  0  0  0  0
  -24.6613  -31.0840   22.0976 N   0  0  0  0  0  0
  -23.4177  -28.8211   23.3035 O   0  0  0  0  0  0
  -28.3753  -26.6570   20.0627 O   0  0  0  0  0  0
  -26.5597  -34.8937   22.4701 O   0  0  0  0  0  0
  -23.5312  -32.1422   23.7535 O   0  0  0  0  0  0
  -30.9659  -21.1234   22.1484 C   0  0  0  0  0  0
  -30.6563  -20.0219   20.2797 C   0  0  0  0  0  0
  -31.1013  -21.2356   20.7315 C   0  0  0  0  0  0
  -30.7243  -14.9353   23.1445 C   0  0  0  0  0  0
  -31.6352  -22.3860   19.9066 C   0  0  0  0  0  0
  -31.6375  -23.7486   20.6358 C   0  0  0  0  0  0
  -30.5608  -24.7252   20.1381 C   0  0  0  0  0  0
  -30.5142  -26.0032   20.9930 C   0  0  0  0  0  0
  -30.8070  -16.8602   21.4734 C   0  0  0  0  0  0
  -29.7126  -17.9478   21.4277 C   0  0  0  0  0  0
  -29.6748  -27.1447   20.3929 C   0  0  0  0  0  0
  -30.2821  -15.4134   21.7472 C   0  0  1  0  0  0
  -30.4685  -19.9581   22.5291 N   0  0  0  0  0  0
  -30.2731  -19.2831   21.3785 N   0  0  0  0  0  0
  -28.9506  -15.5004   21.7434 F   0  0  0  0  0  0
  -31.4703  -12.3728   19.0827 H   0  0  0  0  0  0
  -30.3198  -11.2526   19.7241 H   0  0  0  0  0  0
  -29.7128  -11.8680   17.3673 H   0  0  0  0  0  0
  -29.6724  -13.5554   17.8069 H   0  0  0  0  0  0
  -27.7969  -11.3592   18.7412 H   0  0  0  0  0  0
  -27.3575  -12.7584   17.7966 H   0  0  0  0  0  0
  -27.7568  -14.2569   19.6837 H   0  0  0  0  0  0
  -28.7172  -11.7959   21.2212 H   0  0  0  0  0  0
  -28.4953  -13.3221   21.9567 H   0  0  0  0  0  0
  -25.2745   -9.5635   22.4713 H   0  0  0  0  0  0
  -23.9975   -7.4595   22.7480 H   0  0  0  0  0  0
  -21.0821   -8.8759   19.8948 H   0  0  0  0  0  0
  -22.3684  -10.9654   19.6153 H   0  0  0  0  0  0
  -21.2018   -7.6137   23.9718 H   0  0  0  0  0  0
  -21.1463   -6.0538   25.9078 H   0  0  0  0  0  0
  -22.0604   -2.7595   23.2906 H   0  0  0  0  0  0
  -22.4248  -11.9895   22.4720 H   0  0  0  0  0  0
  -21.1168  -13.1252   22.2622 H   0  0  0  0  0  0
  -24.6756  -15.8418   20.5395 H   0  0  0  0  0  0
  -26.3111  -15.6312   20.1635 H   0  0  0  0  0  0
  -26.7094  -32.5586   23.1191 H   0  0  0  0  0  0
  -25.0031  -33.9798   25.0479 H   0  0  0  0  0  0
  -22.6848  -31.3052   21.4083 H   0  0  0  0  0  0
  -23.3743  -35.9668   23.3280 H   0  0  0  0  0  0
  -24.3591  -36.8962   22.2050 H   0  0  0  0  0  0
  -23.7229  -37.6533   23.6652 H   0  0  0  0  0  0
  -26.0149  -31.6168   20.5794 H   0  0  0  0  0  0
  -26.8120  -30.9200   21.9628 H   0  0  0  0  0  0
  -28.0751  -29.2053   21.1691 H   0  0  0  0  0  0
  -26.1130  -25.9774   19.0613 H   0  0  0  0  0  0
  -24.0043  -27.2728   19.0529 H   0  0  0  0  0  0
  -23.7041  -30.5885   19.4004 H   0  0  0  0  0  0
  -22.7356  -29.2269   19.8760 H   0  0  0  0  0  0
  -25.1260  -36.1990   25.0831 H   0  0  0  0  0  0
  -20.9950  -28.3217   24.1454 H   0  0  0  0  0  0
  -20.5650  -26.2263   23.3610 H   0  0  0  0  0  0
  -21.6627  -26.7430   22.1231 H   0  0  0  0  0  0
  -19.6894  -25.6300   21.1240 H   0  0  0  0  0  0
  -19.6683  -27.3202   20.6758 H   0  0  0  0  0  0
  -17.4187  -26.6686   21.4026 H   0  0  0  0  0  0
  -18.0308  -26.0066   22.9014 H   0  0  0  0  0  0
  -19.7921  -30.7250   24.2311 H   0  0  0  0  0  0
  -17.5004  -31.6265   24.5169 H   0  0  0  0  0  0
  -15.5345  -30.3003   23.7621 H   0  0  0  0  0  0
  -15.8660  -28.0834   22.7035 H   0  0  0  0  0  0
  -24.5912  -30.7065   25.7823 H   0  0  0  0  0  0
  -24.8961  -32.2864   26.4952 H   0  0  0  0  0  0
  -25.8127  -30.8861   27.0215 H   0  0  0  0  0  0
  -26.2789  -29.6838   24.1121 H   0  0  0  0  0  0
  -27.4088  -29.7274   25.4465 H   0  0  0  0  0  0
  -27.8606  -30.4387   23.9134 H   0  0  0  0  0  0
  -27.2663  -33.3593   26.2107 H   0  0  0  0  0  0
  -28.3825  -32.6937   25.0280 H   0  0  0  0  0  0
  -28.0760  -31.8418   26.5336 H   0  0  0  0  0  0
  -28.2556  -38.0148   24.7592 H   0  0  0  0  0  0
  -28.1148  -36.2691   24.6127 H   0  0  0  0  0  0
  -27.2342  -37.1275   25.8848 H   0  0  0  0  0  0
  -20.9278  -29.8756   21.6980 H   0  0  0  0  0  0
  -26.0172  -38.2879   24.1498 H   0  0  0  0  0  0
  -31.2079  -21.8423   22.9162 H   0  0  0  0  0  0
  -30.5801  -19.6261   19.2753 H   0  0  0  0  0  0
  -30.4376  -15.6467   23.9197 H   0  0  0  0  0  0
  -31.8080  -14.8231   23.1960 H   0  0  0  0  0  0
  -30.2810  -13.9714   23.3989 H   0  0  0  0  0  0
  -31.0842  -22.4754   18.9685 H   0  0  0  0  0  0
  -32.6565  -22.1640   19.5963 H   0  0  0  0  0  0
  -32.6128  -24.2152   20.4900 H   0  0  0  0  0  0
  -31.5497  -23.6378   21.7146 H   0  0  0  0  0  0
  -29.5845  -24.2404   20.1706 H   0  0  0  0  0  0
  -30.7477  -24.9802   19.0947 H   0  0  0  0  0  0
  -31.5298  -26.3704   21.1462 H   0  0  0  0  0  0
  -30.1369  -25.7552   21.9864 H   0  0  0  0  0  0
  -31.5287  -17.1307   22.2431 H   0  0  0  0  0  0
  -31.3606  -16.9295   20.5362 H   0  0  0  0  0  0
  -29.0713  -17.8848   22.3088 H   0  0  0  0  0  0
  -29.0727  -17.8072   20.5551 H   0  0  0  0  0  0
  -30.1457  -27.5138   19.4813 H   0  0  0  0  0  0
  -29.6864  -27.9585   21.1136 H   0  0  0  0  0  0
  1 25  1  0  0  0
  1 30  2  0  0  0
  1 82  1  0  0  0
  2  3  1  0  0  0
  2 25  1  0  0  0
  2 86  1  0  0  0
  2 87  1  0  0  0
  3  4  1  0  0  0
  3 88  1  0  0  0
  3 89  1  0  0  0
  4  5  1  0  0  0
  4 90  1  0  0  0
  4 91  1  0  0  0
  5  6  1  0  0  0
  5 26  1  0  0  0
  5 92  1  0  0  0
  6 25  1  0  0  0
  6 93  1  0  0  0
  6 94  1  0  0  0
  7  8  2  0  0  0
  7 26  1  0  0  0
  7 29  1  0  0  0
  8  9  1  0  0  0
  8 22  1  0  0  0
  9 10  1  0  0  0
  9 27  2  0  0  0
 10 11  2  0  0  0
 10 15  1  0  0  0
 11 12  1  0  0  0
 11 95  1  0  0  0
 12 13  2  0  0  0
 12 96  1  0  0  0
 13 14  1  0  0  0
 13 31  1  0  0  0
 14 15  2  0  0  0
 14 97  1  0  0  0
 15 98  1  0  0  0
 16 17  2  0  0  0
 16 21  1  0  0  0
 16 31  1  0  0  0
 17 18  1  0  0  0
 17 99  1  0  0  0
 18 19  2  0  0  0
 18100  1  0  0  0
 19 20  1  0  0  0
 19 24  1  0  0  0
 20 21  2  0  0  0
 20101  1  0  0  0
 21 23  1  0  0  0
 22 28  1  0  0  0
 22 32  2  0  0  0
 26 27  1  0  0  0
 28102  1  0  0  0
 28103  1  0  0  0
 29104  1  0  0  0
 29105  1  0  0  0
 33 34  1  0  0  0
 33 66  1  0  0  0
 33 70  2  0  0  0
 34 36  1  0  0  0
 34 59  1  0  0  0
 34106  1  0  0  0
 35 44  2  0  0  0
 35 45  1  0  0  0
 35 68  1  0  0  0
 36 56  1  0  0  0
 36107  1  0  0  0
 37 39  1  0  0  0
 37 47  1  0  0  0
 37 66  1  0  0  0
 37108  1  0  0  0
 38 43  2  0  0  0
 38 46  1  0  0  0
 38 47  1  0  0  0
 39 64  1  0  0  0
 39 67  2  0  0  0
 40 52  1  0  0  0
 40 53  2  0  0  0
 40 58  1  0  0  0
 41109  1  0  0  0
 41110  1  0  0  0
 41111  1  0  0  0
 41 48  1  0  0  0
 42 43  1  0  0  0
 42 66  1  0  0  0
 42112  1  0  0  0
 42113  1  0  0  0
 43 44  1  0  0  0
 44114  1  0  0  0
 45 46  2  0  0  0
 45115  1  0  0  0
 46116  1  0  0  0
 47117  1  0  0  0
 47118  1  0  0  0
 48 56  1  0  0  0
 48 65  1  0  0  0
 48119  1  0  0  0
 49 50  1  0  0  0
 49 53  1  0  0  0
 49 64  1  0  0  0
 49120  1  0  0  0
 50 51  1  0  0  0
 50121  1  0  0  0
 50122  1  0  0  0
 51 52  1  0  0  0
 51123  1  0  0  0
 51124  1  0  0  0
 52125  1  0  0  0
 52126  1  0  0  0
 53 54  1  0  0  0
 54 55  2  0  0  0
 54127  1  0  0  0
 55 57  1  0  0  0
 55128  1  0  0  0
 56 69  2  0  0  0
 57 58  2  0  0  0
 57129  1  0  0  0
 58130  1  0  0  0
 59 60  1  0  0  0
 59 61  1  0  0  0
 59 62  1  0  0  0
 60131  1  0  0  0
 60132  1  0  0  0
 60133  1  0  0  0
 61134  1  0  0  0
 61135  1  0  0  0
 61136  1  0  0  0
 62137  1  0  0  0
 62138  1  0  0  0
 62139  1  0  0  0
 63 65  1  0  0  0
 63140  1  0  0  0
 63141  1  0  0  0
 63142  1  0  0  0
 64143  1  0  0  0
 65144  1  0  0  0
 68 81  1  0  0  0
 71 73  1  0  0  0
 71 83  2  0  0  0
 71145  1  0  0  0
 72 73  2  0  0  0
 72 84  1  0  0  0
 72146  1  0  0  0
 73 75  1  0  0  0
 74147  1  0  0  0
 74148  1  0  0  0
 74149  1  0  0  0
 74 82  1  0  0  0
 75 76  1  0  0  0
 75150  1  0  0  0
 75151  1  0  0  0
 76 77  1  0  0  0
 76152  1  0  0  0
 76153  1  0  0  0
 77 78  1  0  0  0
 77154  1  0  0  0
 77155  1  0  0  0
 78 81  1  0  0  0
 78156  1  0  0  0
 78157  1  0  0  0
 79 80  1  0  0  0
 79 82  1  0  0  0
 79158  1  0  0  0
 79159  1  0  0  0
 80 84  1  0  0  0
 80160  1  0  0  0
 80161  1  0  0  0
 81162  1  0  0  0
 81163  1  0  0  0
 82 85  1  0  0  0
 83 84  1  0  0  0
M  ISO  4   1 100  68 101  81 101  82 100
M  END
> <chiral flag>
0

> <version>
0

> <s_m_source_file>
/data/baiqing/PycharmProjects/Reinvent-master-3.2/result/LINK_invent/BTK/process_docking_weight1_custom_sum_contain_oxygen_bond_distance_aromatic_linkinvent_7_9_3/rearranged_h_0070.sdf

> <i_m_source_file_index>
29

> <r_mmod_Potential_Energy-OPLS-2005>
13.4382362365723

> <r_mmod_Stretch_Energy-OPLS-2005>
35.4973831176758

> <r_mmod_Bend_Energy-OPLS-2005>
109.55558013916

> <r_mmod_Torsional_Energy-OPLS-2005>
207.664306640625

> <r_mmod_Improper_Torsional_Energy-OPLS-2005>
1.60244643688202

> <r_mmod_Van_der_Waal_Energy-OPLS-2005>
146.781845092773

> <r_mmod_Electrostatic_Energy-OPLS-2005>
-301.104400634766

> <r_mmod_Solvation_Energy-OPLS-2005>
-194.813430786133

> <b_mmod_Minimization_Converged-OPLS-2005>
0

> <r_mmod_RMS_Derivative-OPLS-2005>
3.51939225196838

$$$$
29
                    3D
 Structure written by MMmdl.
159167  0  0  1  0            999 V2000
  -30.7090  -14.5620   20.4424 C   0  0  0  0  0  0
  -30.4051  -12.3343   19.4408 C   0  0  0  0  0  0
  -29.4868  -12.4735   18.2103 C   0  0  0  0  0  0
  -28.0137  -12.3245   18.6332 C   0  0  0  0  0  0
  -27.6429  -13.2136   19.8507 C   0  0  2  0  0  0
  -28.6976  -13.1183   20.9780 C   0  0  0  0  0  0
  -25.2522  -13.8151   20.5717 C   0  0  0  0  0  0
  -24.1795  -13.0431   20.9224 C   0  0  0  0  0  0
  -24.6367  -11.6901   20.8783 C   0  0  0  0  0  0
  -23.9055  -10.4276   21.0417 C   0  0  0  0  0  0
  -24.3602   -9.4187   21.9188 C   0  0  0  0  0  0
  -23.6282   -8.2222   22.0756 C   0  0  0  0  0  0
  -22.4251   -8.0259   21.3546 C   0  0  0  0  0  0
  -21.9891   -9.0238   20.4642 C   0  0  0  0  0  0
  -22.7232  -10.2121   20.3061 C   0  0  0  0  0  0
  -21.6848   -6.0724   22.5284 C   0  0  0  0  0  0
  -21.4024   -6.5634   23.8210 C   0  0  0  0  0  0
  -21.3657   -5.6788   24.9174 C   0  0  0  0  0  0
  -21.6038   -4.3048   24.7225 C   0  0  0  0  0  0
  -21.8823   -3.8135   23.4343 C   0  0  0  0  0  0
  -21.9192   -4.6961   22.3397 C   0  0  0  0  0  0
  -22.7833  -13.5225   21.1889 C   0  0  0  0  0  0
  -22.1662   -4.2136   21.0985 F   0  0  0  0  0  0
  -21.5616   -3.4536   25.7740 F   0  0  0  0  0  0
  -30.0099  -13.3926   20.3835 N   0  0  0  0  0  0
  -26.2934  -12.9333   20.3305 N   0  0  0  0  0  0
  -25.9293  -11.6488   20.5808 N   0  0  0  0  0  0
  -22.0480  -12.8196   22.0428 N   0  0  0  0  0  0
  -25.4280  -15.1862   20.4137 N   0  0  0  0  0  0
  -31.9176  -14.5926   20.2198 O   0  0  0  0  0  0
  -21.6626   -6.8862   21.4229 O   0  0  0  0  0  0
  -22.3508  -14.5517   20.6713 O   0  0  0  0  0  0
  -24.6156  -31.8632   23.2088 C   0  0  0  0  0  0
  -25.9028  -32.4815   23.8390 C   0  0  1  0  0  0
  -27.2489  -27.4079   20.1236 C   0  0  0  0  0  0
  -25.5863  -33.8612   24.2325 N   0  0  0  0  0  0
  -23.4108  -30.4844   21.5434 C   0  0  2  0  0  0
  -24.8627  -28.9340   20.1276 C   0  0  0  0  0  0
  -22.7388  -29.4689   22.4960 C   0  0  0  0  0  0
  -18.0276  -28.1373   22.8463 C   0  0  0  0  0  0
  -24.1477  -36.7319   23.2641 C   0  0  0  0  0  0
  -25.9392  -30.8223   21.3676 C   0  0  0  0  0  0
  -26.0219  -29.4484   20.7266 C   0  0  0  0  0  0
  -27.2181  -28.6915   20.7199 C   0  0  0  0  0  0
  -26.0769  -26.9107   19.5203 C   0  0  0  0  0  0
  -24.8848  -27.6639   19.5223 C   0  0  0  0  0  0
  -23.6262  -29.8058   20.1638 C   0  0  0  0  0  0
  -25.4107  -36.3123   24.0330 C   0  0  1  0  0  0
  -20.5829  -28.3708   23.1259 C   0  0  2  0  0  0
  -20.6798  -26.9469   22.5313 C   0  0  0  0  0  0
  -19.5735  -26.6414   21.5152 C   0  0  0  0  0  0
  -18.1925  -26.7925   22.1595 C   0  0  0  0  0  0
  -19.1500  -28.8854   23.2861 C   0  0  0  0  0  0
  -18.9429  -30.1423   23.8951 C   0  0  0  0  0  0
  -17.6412  -30.6569   24.0596 C   0  0  0  0  0  0
  -25.9014  -34.9477   23.5131 C   0  0  0  0  0  0
  -16.5328  -29.9089   23.6273 C   0  0  0  0  0  0
  -16.7255  -28.6484   23.0335 C   0  0  0  0  0  0
  -26.4462  -31.6606   25.0730 C   0  0  0  0  0  0
  -25.3737  -31.3672   26.1485 C   0  0  0  0  0  0
  -27.0297  -30.3059   24.6099 C   0  0  0  0  0  0
  -27.6037  -32.4321   25.7503 C   0  0  0  0  0  0
  -27.5582  -37.1819   24.8469 C   0  0  0  0  0  0
  -21.4112  -29.3094   22.3685 N   0  0  0  0  0  0
  -26.4305  -37.3807   23.9399 N   0  0  0  0  0  0
  -24.6728  -31.0699   22.0999 N   0  0  0  0  0  0
  -23.4091  -28.8205   23.3036 O   0  0  0  0  0  0
  -28.4227  -26.6872   20.0394 O   0  0  0  0  0  0
  -26.5599  -34.8940   22.4705 O   0  0  0  0  0  0
  -23.5314  -32.1355   23.7446 O   0  0  0  0  0  0
  -29.7735  -19.4701   20.9803 C   0  0  0  0  0  0
  -29.5870  -18.3019   20.2633 C   0  0  0  0  0  0
  -28.3764  -18.5818   19.5438 C   0  0  0  0  0  0
  -31.1565  -17.1574   18.7323 C   0  0  0  0  0  0
  -29.1727  -22.9492   20.8431 C   0  0  0  0  0  0
  -28.3365  -24.1595   20.2785 C   0  0  0  0  0  0
  -28.3782  -21.6688   21.2732 C   0  0  0  0  0  0
  -28.6040  -25.5601   20.9221 C   0  0  0  0  0  0
  -30.5348  -17.0845   20.1504 C   0  0  2  0  0  0
  -27.6130  -17.7192   18.5562 C   0  0  0  0  0  0
  -27.9127  -19.8077   19.7914 N   0  0  0  0  0  0
  -28.7538  -20.3666   20.6808 N   0  0  0  0  0  0
  -29.9875  -15.7192   20.4536 N   0  0  0  0  0  0
  -27.9593  -16.4382   18.6558 F   0  0  0  0  0  0
  -26.3051  -17.8051   18.7990 F   0  0  0  0  0  0
  -27.8463  -18.1270   17.3079 F   0  0  0  0  0  0
  -31.4525  -12.4020   19.1435 H   0  0  0  0  0  0
  -30.2895  -11.3530   19.9026 H   0  0  0  0  0  0
  -29.7367  -11.7191   17.4640 H   0  0  0  0  0  0
  -29.6399  -13.4411   17.7316 H   0  0  0  0  0  0
  -27.8547  -11.2750   18.8849 H   0  0  0  0  0  0
  -27.3502  -12.5441   17.7945 H   0  0  0  0  0  0
  -27.6445  -14.2348   19.4795 H   0  0  0  0  0  0
  -28.6899  -12.1260   21.4347 H   0  0  0  0  0  0
  -28.4758  -13.8342   21.7730 H   0  0  0  0  0  0
  -25.2756   -9.5655   22.4761 H   0  0  0  0  0  0
  -23.9987   -7.4609   22.7471 H   0  0  0  0  0  0
  -21.0822   -8.8751   19.8949 H   0  0  0  0  0  0
  -22.3692  -10.9652   19.6154 H   0  0  0  0  0  0
  -21.2030   -7.6149   23.9708 H   0  0  0  0  0  0
  -21.1480   -6.0527   25.9075 H   0  0  0  0  0  0
  -22.0606   -2.7599   23.2859 H   0  0  0  0  0  0
  -22.4109  -11.9854   22.4804 H   0  0  0  0  0  0
  -21.1120  -13.1216   22.2675 H   0  0  0  0  0  0
  -24.6609  -15.8450   20.4985 H   0  0  0  0  0  0
  -26.2635  -15.5998   20.0262 H   0  0  0  0  0  0
  -26.7136  -32.5555   23.1185 H   0  0  0  0  0  0
  -25.0063  -33.9797   25.0506 H   0  0  0  0  0  0
  -22.7025  -31.3014   21.3945 H   0  0  0  0  0  0
  -23.3741  -35.9644   23.3311 H   0  0  0  0  0  0
  -24.3575  -36.8921   22.2052 H   0  0  0  0  0  0
  -23.7219  -37.6522   23.6652 H   0  0  0  0  0  0
  -26.0465  -31.5804   20.5893 H   0  0  0  0  0  0
  -26.8267  -30.8845   21.9853 H   0  0  0  0  0  0
  -28.1188  -29.0872   21.1671 H   0  0  0  0  0  0
  -26.0913  -25.9444   19.0370 H   0  0  0  0  0  0
  -23.9961  -27.2618   19.0537 H   0  0  0  0  0  0
  -23.7475  -30.5742   19.3994 H   0  0  0  0  0  0
  -22.7514  -29.2223   19.8704 H   0  0  0  0  0  0
  -25.1280  -36.1993   25.0817 H   0  0  0  0  0  0
  -20.9866  -28.3296   24.1406 H   0  0  0  0  0  0
  -20.5796  -26.2301   23.3474 H   0  0  0  0  0  0
  -21.6656  -26.7581   22.1036 H   0  0  0  0  0  0
  -19.6904  -25.6325   21.1215 H   0  0  0  0  0  0
  -19.6576  -27.3208   20.6627 H   0  0  0  0  0  0
  -17.4144  -26.6600   21.4045 H   0  0  0  0  0  0
  -18.0369  -26.0101   22.9026 H   0  0  0  0  0  0
  -19.7873  -30.7243   24.2377 H   0  0  0  0  0  0
  -17.4956  -31.6244   24.5198 H   0  0  0  0  0  0
  -15.5308  -30.2993   23.7572 H   0  0  0  0  0  0
  -15.8664  -28.0818   22.7041 H   0  0  0  0  0  0
  -24.5943  -30.6976   25.7835 H   0  0  0  0  0  0
  -24.8899  -32.2800   26.4964 H   0  0  0  0  0  0
  -25.8114  -30.8859   27.0240 H   0  0  0  0  0  0
  -26.2838  -29.6835   24.1152 H   0  0  0  0  0  0
  -27.4067  -29.7282   25.4545 H   0  0  0  0  0  0
  -27.8673  -30.4388   23.9252 H   0  0  0  0  0  0
  -27.2667  -33.3613   26.2114 H   0  0  0  0  0  0
  -28.3851  -32.6878   25.0335 H   0  0  0  0  0  0
  -28.0719  -31.8430   26.5404 H   0  0  0  0  0  0
  -28.2614  -38.0112   24.7525 H   0  0  0  0  0  0
  -28.1064  -36.2636   24.6280 H   0  0  0  0  0  0
  -27.2310  -37.1469   25.8884 H   0  0  0  0  0  0
  -20.9288  -29.8767   21.6856 H   0  0  0  0  0  0
  -26.0185  -38.2877   24.1419 H   0  0  0  0  0  0
  -30.5525  -19.7446   21.6801 H   0  0  0  0  0  0
  -31.9102  -16.3954   18.5395 H   0  0  0  0  0  0
  -30.4019  -17.0581   17.9512 H   0  0  0  0  0  0
  -31.6482  -18.1190   18.5790 H   0  0  0  0  0  0
  -29.7155  -23.2893   21.7250 H   0  0  0  0  0  0
  -29.9555  -22.6865   20.1289 H   0  0  0  0  0  0
  -27.2675  -23.9566   20.3353 H   0  0  0  0  0  0
  -28.5504  -24.2287   19.2115 H   0  0  0  0  0  0
  -27.3121  -21.8210   21.0970 H   0  0  0  0  0  0
  -28.4702  -21.5537   22.3537 H   0  0  0  0  0  0
  -29.6473  -25.6062   21.2407 H   0  0  0  0  0  0
  -28.0145  -25.6912   21.8304 H   0  0  0  0  0  0
  -31.3598  -17.2195   20.8526 H   0  0  0  0  0  0
  -28.9911  -15.6240   20.5656 H   0  0  0  0  0  0
  1 25  1  0  0  0
  1 30  2  0  0  0
  1 83  1  0  0  0
  2  3  1  0  0  0
  2 25  1  0  0  0
  2 87  1  0  0  0
  2 88  1  0  0  0
  3  4  1  0  0  0
  3 89  1  0  0  0
  3 90  1  0  0  0
  4  5  1  0  0  0
  4 91  1  0  0  0
  4 92  1  0  0  0
  5  6  1  0  0  0
  5 26  1  0  0  0
  5 93  1  0  0  0
  6 25  1  0  0  0
  6 94  1  0  0  0
  6 95  1  0  0  0
  7  8  2  0  0  0
  7 26  1  0  0  0
  7 29  1  0  0  0
  8  9  1  0  0  0
  8 22  1  0  0  0
  9 10  1  0  0  0
  9 27  2  0  0  0
 10 11  2  0  0  0
 10 15  1  0  0  0
 11 12  1  0  0  0
 11 96  1  0  0  0
 12 13  2  0  0  0
 12 97  1  0  0  0
 13 14  1  0  0  0
 13 31  1  0  0  0
 14 15  2  0  0  0
 14 98  1  0  0  0
 15 99  1  0  0  0
 16 17  2  0  0  0
 16 21  1  0  0  0
 16 31  1  0  0  0
 17 18  1  0  0  0
 17100  1  0  0  0
 18 19  2  0  0  0
 18101  1  0  0  0
 19 20  1  0  0  0
 19 24  1  0  0  0
 20 21  2  0  0  0
 20102  1  0  0  0
 21 23  1  0  0  0
 22 28  1  0  0  0
 22 32  2  0  0  0
 26 27  1  0  0  0
 28103  1  0  0  0
 28104  1  0  0  0
 29105  1  0  0  0
 29106  1  0  0  0
 33 34  1  0  0  0
 33 66  1  0  0  0
 33 70  2  0  0  0
 34 36  1  0  0  0
 34 59  1  0  0  0
 34107  1  0  0  0
 35 44  2  0  0  0
 35 45  1  0  0  0
 35 68  1  0  0  0
 36 56  1  0  0  0
 36108  1  0  0  0
 37 39  1  0  0  0
 37 47  1  0  0  0
 37 66  1  0  0  0
 37109  1  0  0  0
 38 43  2  0  0  0
 38 46  1  0  0  0
 38 47  1  0  0  0
 39 64  1  0  0  0
 39 67  2  0  0  0
 40 52  1  0  0  0
 40 53  2  0  0  0
 40 58  1  0  0  0
 41110  1  0  0  0
 41111  1  0  0  0
 41112  1  0  0  0
 41 48  1  0  0  0
 42 43  1  0  0  0
 42 66  1  0  0  0
 42113  1  0  0  0
 42114  1  0  0  0
 43 44  1  0  0  0
 44115  1  0  0  0
 45 46  2  0  0  0
 45116  1  0  0  0
 46117  1  0  0  0
 47118  1  0  0  0
 47119  1  0  0  0
 48 56  1  0  0  0
 48 65  1  0  0  0
 48120  1  0  0  0
 49 50  1  0  0  0
 49 53  1  0  0  0
 49 64  1  0  0  0
 49121  1  0  0  0
 50 51  1  0  0  0
 50122  1  0  0  0
 50123  1  0  0  0
 51 52  1  0  0  0
 51124  1  0  0  0
 51125  1  0  0  0
 52126  1  0  0  0
 52127  1  0  0  0
 53 54  1  0  0  0
 54 55  2  0  0  0
 54128  1  0  0  0
 55 57  1  0  0  0
 55129  1  0  0  0
 56 69  2  0  0  0
 57 58  2  0  0  0
 57130  1  0  0  0
 58131  1  0  0  0
 59 60  1  0  0  0
 59 61  1  0  0  0
 59 62  1  0  0  0
 60132  1  0  0  0
 60133  1  0  0  0
 60134  1  0  0  0
 61135  1  0  0  0
 61136  1  0  0  0
 61137  1  0  0  0
 62138  1  0  0  0
 62139  1  0  0  0
 62140  1  0  0  0
 63 65  1  0  0  0
 63141  1  0  0  0
 63142  1  0  0  0
 63143  1  0  0  0
 64144  1  0  0  0
 65145  1  0  0  0
 68 78  1  0  0  0
 71 72  2  0  0  0
 71 82  1  0  0  0
 71146  1  0  0  0
 72 73  1  0  0  0
 72 79  1  0  0  0
 73 80  1  0  0  0
 73 81  2  0  0  0
 74147  1  0  0  0
 74148  1  0  0  0
 74149  1  0  0  0
 74 79  1  0  0  0
 75 76  1  0  0  0
 75 77  1  0  0  0
 75150  1  0  0  0
 75151  1  0  0  0
 76 78  1  0  0  0
 76152  1  0  0  0
 76153  1  0  0  0
 77 82  1  0  0  0
 77154  1  0  0  0
 77155  1  0  0  0
 78156  1  0  0  0
 78157  1  0  0  0
 79 83  1  0  0  0
 79158  1  0  0  0
 80 84  1  0  0  0
 80 85  1  0  0  0
 80 86  1  0  0  0
 81 82  1  0  0  0
 83159  1  0  0  0
M  ISO  4   1 100  68 101  78 101  83 100
M  END
> <chiral flag>
0

> <version>
0

> <s_m_source_file>
/data/baiqing/PycharmProjects/Reinvent-master-3.2/result/LINK_invent/BTK/process_docking_weight1_custom_sum_contain_oxygen_bond_distance_aromatic_linkinvent_7_9_3/rearranged_h_0070.sdf

> <i_m_source_file_index>
30

> <r_mmod_Potential_Energy-OPLS-2005>
115.11060333252

> <r_mmod_Stretch_Energy-OPLS-2005>
49.501392364502

> <r_mmod_Bend_Energy-OPLS-2005>
117.801849365234

> <r_mmod_Torsional_Energy-OPLS-2005>
274.507843017578

> <r_mmod_Improper_Torsional_Energy-OPLS-2005>
8.91595649719238

> <r_mmod_Van_der_Waal_Energy-OPLS-2005>
117.553359985352

> <r_mmod_Electrostatic_Energy-OPLS-2005>
-282.443054199219

> <r_mmod_Solvation_Energy-OPLS-2005>
-202.86491394043

> <b_mmod_Minimization_Converged-OPLS-2005>
0

> <r_mmod_RMS_Derivative-OPLS-2005>
5.38843774795532

$$$$
30
                    3D
 Structure written by MMmdl.
158166  0  0  1  0            999 V2000
  -30.6512  -14.5197   20.5283 C   0  0  0  0  0  0
  -30.4354  -12.3216   19.4313 C   0  0  0  0  0  0
  -29.5054  -12.5015   18.2105 C   0  0  0  0  0  0
  -28.0239  -12.3580   18.6165 C   0  0  0  0  0  0
  -27.6641  -13.1993   19.8706 C   0  0  2  0  0  0
  -28.7055  -12.9895   20.9948 C   0  0  0  0  0  0
  -25.2610  -13.8140   20.5641 C   0  0  0  0  0  0
  -24.1852  -13.0433   20.9157 C   0  0  0  0  0  0
  -24.6388  -11.6894   20.8701 C   0  0  0  0  0  0
  -23.9051  -10.4288   21.0379 C   0  0  0  0  0  0
  -24.3599   -9.4214   21.9164 C   0  0  0  0  0  0
  -23.6270   -8.2260   22.0752 C   0  0  0  0  0  0
  -22.4255   -8.0286   21.3550 C   0  0  0  0  0  0
  -21.9883   -9.0260   20.4658 C   0  0  0  0  0  0
  -22.7214  -10.2131   20.3045 C   0  0  0  0  0  0
  -21.6862   -6.0742   22.5277 C   0  0  0  0  0  0
  -21.4043   -6.5645   23.8212 C   0  0  0  0  0  0
  -21.3645   -5.6790   24.9169 C   0  0  0  0  0  0
  -21.6034   -4.3055   24.7226 C   0  0  0  0  0  0
  -21.8814   -3.8151   23.4350 C   0  0  0  0  0  0
  -21.9196   -4.6969   22.3404 C   0  0  0  0  0  0
  -22.7880  -13.5246   21.1826 C   0  0  0  0  0  0
  -22.1657   -4.2147   21.0981 F   0  0  0  0  0  0
  -21.5607   -3.4531   25.7739 F   0  0  0  0  0  0
  -30.0334  -13.3076   20.4472 N   0  0  0  0  0  0
  -26.3036  -12.9294   20.3306 N   0  0  0  0  0  0
  -25.9314  -11.6466   20.5732 N   0  0  0  0  0  0
  -22.0513  -12.8259   22.0385 N   0  0  0  0  0  0
  -25.4330  -15.1854   20.4050 N   0  0  0  0  0  0
  -31.7885  -14.7212   20.0931 O   0  0  0  0  0  0
  -21.6635   -6.8879   21.4239 O   0  0  0  0  0  0
  -22.3570  -14.5540   20.6649 O   0  0  0  0  0  0
  -24.6189  -31.8650   23.2040 C   0  0  0  0  0  0
  -25.9063  -32.4812   23.8359 C   0  0  1  0  0  0
  -27.2360  -27.3920   20.0904 C   0  0  0  0  0  0
  -25.5896  -33.8609   24.2287 N   0  0  0  0  0  0
  -23.4059  -30.4886   21.5464 C   0  0  2  0  0  0
  -24.8492  -28.9426   20.1156 C   0  0  0  0  0  0
  -22.7425  -29.4665   22.4978 C   0  0  0  0  0  0
  -18.0276  -28.1384   22.8494 C   0  0  0  0  0  0
  -24.1471  -36.7325   23.2632 C   0  0  0  0  0  0
  -25.9380  -30.8185   21.3574 C   0  0  0  0  0  0
  -26.0122  -29.4467   20.7093 C   0  0  0  0  0  0
  -27.2036  -28.6792   20.6894 C   0  0  0  0  0  0
  -26.0417  -26.9036   19.5102 C   0  0  0  0  0  0
  -24.8611  -27.6732   19.5145 C   0  0  0  0  0  0
  -23.6127  -29.8161   20.1629 C   0  0  0  0  0  0
  -25.4097  -36.3109   24.0318 C   0  0  1  0  0  0
  -20.5867  -28.3672   23.1306 C   0  0  2  0  0  0
  -20.6761  -26.9403   22.5413 C   0  0  0  0  0  0
  -19.5741  -26.6388   21.5213 C   0  0  0  0  0  0
  -18.1925  -26.7931   22.1631 C   0  0  0  0  0  0
  -19.1526  -28.8844   23.2898 C   0  0  0  0  0  0
  -18.9460  -30.1452   23.8906 C   0  0  0  0  0  0
  -17.6461  -30.6588   24.0570 C   0  0  0  0  0  0
  -25.9038  -34.9472   23.5109 C   0  0  0  0  0  0
  -16.5348  -29.9091   23.6327 C   0  0  0  0  0  0
  -16.7268  -28.6508   23.0346 C   0  0  0  0  0  0
  -26.4466  -31.6606   25.0698 C   0  0  0  0  0  0
  -25.3720  -31.3727   26.1430 C   0  0  0  0  0  0
  -27.0297  -30.3054   24.6090 C   0  0  0  0  0  0
  -27.6046  -32.4312   25.7477 C   0  0  0  0  0  0
  -27.5577  -37.1787   24.8454 C   0  0  0  0  0  0
  -21.4150  -29.3041   22.3712 N   0  0  0  0  0  0
  -26.4284  -37.3793   23.9414 N   0  0  0  0  0  0
  -24.6739  -31.0726   22.0951 N   0  0  0  0  0  0
  -23.4188  -28.8217   23.3037 O   0  0  0  0  0  0
  -28.4325  -26.6831   20.1020 O   0  0  0  0  0  0
  -26.5616  -34.8932   22.4682 O   0  0  0  0  0  0
  -23.5377  -32.1421   23.7415 O   0  0  0  0  0  0
  -29.9243  -19.5063   23.0038 C   0  0  0  0  0  0
  -29.9163  -17.8771   21.6965 C   0  0  0  0  0  0
  -28.7688  -17.2138   19.4883 C   0  0  0  0  0  0
  -28.9628  -22.7840   20.0386 C   0  0  0  0  0  0
  -29.3446  -21.7232   21.1183 C   0  0  0  0  0  0
  -28.6531  -24.2135   20.5944 C   0  0  0  0  0  0
  -29.4910  -20.2383   20.6278 C   0  0  0  0  0  0
  -28.5706  -25.3549   19.5323 C   0  0  0  0  0  0
  -29.9232  -16.9579   20.4746 C   0  0  2  0  0  0
  -30.1285  -18.4486   23.7887 N   0  0  0  0  0  0
  -30.1162  -17.3794   22.9312 N   0  0  0  0  0  0
  -29.7579  -19.2425   21.6937 N   0  0  0  0  0  0
  -29.8379  -15.5334   20.8858 N   0  0  0  0  0  0
  -31.4791  -12.4394   19.1325 H   0  0  0  0  0  0
  -30.3512  -11.3127   19.8373 H   0  0  0  0  0  0
  -29.7530  -11.7745   17.4361 H   0  0  0  0  0  0
  -29.6667  -13.4841   17.7636 H   0  0  0  0  0  0
  -27.8358  -11.3014   18.8127 H   0  0  0  0  0  0
  -27.3772  -12.6348   17.7818 H   0  0  0  0  0  0
  -27.7028  -14.2440   19.5630 H   0  0  0  0  0  0
  -28.6895  -11.9534   21.3338 H   0  0  0  0  0  0
  -28.4653  -13.5893   21.8745 H   0  0  0  0  0  0
  -25.2744   -9.5692   22.4731 H   0  0  0  0  0  0
  -23.9985   -7.4649   22.7467 H   0  0  0  0  0  0
  -21.0820   -8.8780   19.8969 H   0  0  0  0  0  0
  -22.3669  -10.9667   19.6151 H   0  0  0  0  0  0
  -21.2065   -7.6155   23.9719 H   0  0  0  0  0  0
  -21.1453   -6.0523   25.9067 H   0  0  0  0  0  0
  -22.0602   -2.7614   23.2846 H   0  0  0  0  0  0
  -22.4143  -11.9953   22.4825 H   0  0  0  0  0  0
  -21.1139  -13.1317   22.2589 H   0  0  0  0  0  0
  -24.6636  -15.8369   20.5116 H   0  0  0  0  0  0
  -26.2706  -15.6194   20.0395 H   0  0  0  0  0  0
  -26.7132  -32.5513   23.1116 H   0  0  0  0  0  0
  -24.9981  -33.9755   25.0382 H   0  0  0  0  0  0
  -22.6970  -31.3073   21.4050 H   0  0  0  0  0  0
  -23.3719  -35.9676   23.3300 H   0  0  0  0  0  0
  -24.3567  -36.8945   22.2051 H   0  0  0  0  0  0
  -23.7230  -37.6529   23.6653 H   0  0  0  0  0  0
  -26.0493  -31.5791   20.5832 H   0  0  0  0  0  0
  -26.8278  -30.8788   21.9719 H   0  0  0  0  0  0
  -28.1052  -29.0714   21.1372 H   0  0  0  0  0  0
  -25.9816  -25.9289   19.0537 H   0  0  0  0  0  0
  -23.9636  -27.2765   19.0597 H   0  0  0  0  0  0
  -23.7235  -30.5881   19.4014 H   0  0  0  0  0  0
  -22.7349  -29.2382   19.8677 H   0  0  0  0  0  0
  -25.1265  -36.1968   25.0805 H   0  0  0  0  0  0
  -20.9974  -28.3250   24.1425 H   0  0  0  0  0  0
  -20.5669  -26.2289   23.3610 H   0  0  0  0  0  0
  -21.6634  -26.7443   22.1212 H   0  0  0  0  0  0
  -19.6902  -25.6305   21.1238 H   0  0  0  0  0  0
  -19.6672  -27.3203   20.6750 H   0  0  0  0  0  0
  -17.4187  -26.6673   21.4036 H   0  0  0  0  0  0
  -18.0330  -26.0068   22.9029 H   0  0  0  0  0  0
  -19.7938  -30.7269   24.2274 H   0  0  0  0  0  0
  -17.5016  -31.6271   24.5177 H   0  0  0  0  0  0
  -15.5351  -30.3002   23.7639 H   0  0  0  0  0  0
  -15.8670  -28.0837   22.7047 H   0  0  0  0  0  0
  -24.5899  -30.7070   25.7770 H   0  0  0  0  0  0
  -24.8909  -32.2892   26.4852 H   0  0  0  0  0  0
  -25.8063  -30.8920   27.0205 H   0  0  0  0  0  0
  -26.2867  -29.6835   24.1089 H   0  0  0  0  0  0
  -27.4005  -29.7266   25.4559 H   0  0  0  0  0  0
  -27.8719  -30.4371   23.9291 H   0  0  0  0  0  0
  -27.2673  -33.3605   26.2085 H   0  0  0  0  0  0
  -28.3865  -32.6888   25.0315 H   0  0  0  0  0  0
  -28.0715  -31.8418   26.5378 H   0  0  0  0  0  0
  -28.2592  -38.0085   24.7517 H   0  0  0  0  0  0
  -28.1065  -36.2622   24.6243 H   0  0  0  0  0  0
  -27.2309  -37.1407   25.8858 H   0  0  0  0  0  0
  -20.9321  -29.8752   21.6917 H   0  0  0  0  0  0
  -26.0174  -38.2867   24.1432 H   0  0  0  0  0  0
  -29.8975  -20.5070   23.4118 H   0  0  0  0  0  0
  -28.8829  -18.1625   18.9694 H   0  0  0  0  0  0
  -27.8027  -17.2082   19.9934 H   0  0  0  0  0  0
  -28.7437  -16.4502   18.7097 H   0  0  0  0  0  0
  -28.0929  -22.4309   19.4838 H   0  0  0  0  0  0
  -29.7774  -22.8482   19.3164 H   0  0  0  0  0  0
  -28.5877  -21.7612   21.9029 H   0  0  0  0  0  0
  -30.2836  -22.0328   21.5794 H   0  0  0  0  0  0
  -29.4298  -24.4777   21.3125 H   0  0  0  0  0  0
  -27.7181  -24.1777   21.1556 H   0  0  0  0  0  0
  -30.2861  -20.1622   19.8842 H   0  0  0  0  0  0
  -28.5581  -19.9640   20.1382 H   0  0  0  0  0  0
  -27.8423  -25.1213   18.7598 H   0  0  0  0  0  0
  -29.5225  -25.3683   18.9984 H   0  0  0  0  0  0
  -30.8659  -17.1261   19.9532 H   0  0  0  0  0  0
  -28.9608  -15.2605   21.3010 H   0  0  0  0  0  0
  1 25  1  0  0  0
  1 30  2  0  0  0
  1 83  1  0  0  0
  2  3  1  0  0  0
  2 25  1  0  0  0
  2 84  1  0  0  0
  2 85  1  0  0  0
  3  4  1  0  0  0
  3 86  1  0  0  0
  3 87  1  0  0  0
  4  5  1  0  0  0
  4 88  1  0  0  0
  4 89  1  0  0  0
  5  6  1  0  0  0
  5 26  1  0  0  0
  5 90  1  0  0  0
  6 25  1  0  0  0
  6 91  1  0  0  0
  6 92  1  0  0  0
  7  8  2  0  0  0
  7 26  1  0  0  0
  7 29  1  0  0  0
  8  9  1  0  0  0
  8 22  1  0  0  0
  9 10  1  0  0  0
  9 27  2  0  0  0
 10 11  2  0  0  0
 10 15  1  0  0  0
 11 12  1  0  0  0
 11 93  1  0  0  0
 12 13  2  0  0  0
 12 94  1  0  0  0
 13 14  1  0  0  0
 13 31  1  0  0  0
 14 15  2  0  0  0
 14 95  1  0  0  0
 15 96  1  0  0  0
 16 17  2  0  0  0
 16 21  1  0  0  0
 16 31  1  0  0  0
 17 18  1  0  0  0
 17 97  1  0  0  0
 18 19  2  0  0  0
 18 98  1  0  0  0
 19 20  1  0  0  0
 19 24  1  0  0  0
 20 21  2  0  0  0
 20 99  1  0  0  0
 21 23  1  0  0  0
 22 28  1  0  0  0
 22 32  2  0  0  0
 26 27  1  0  0  0
 28100  1  0  0  0
 28101  1  0  0  0
 29102  1  0  0  0
 29103  1  0  0  0
 33 34  1  0  0  0
 33 66  1  0  0  0
 33 70  2  0  0  0
 34 36  1  0  0  0
 34 59  1  0  0  0
 34104  1  0  0  0
 35 44  2  0  0  0
 35 45  1  0  0  0
 35 68  1  0  0  0
 36 56  1  0  0  0
 36105  1  0  0  0
 37 39  1  0  0  0
 37 47  1  0  0  0
 37 66  1  0  0  0
 37106  1  0  0  0
 38 43  2  0  0  0
 38 46  1  0  0  0
 38 47  1  0  0  0
 39 64  1  0  0  0
 39 67  2  0  0  0
 40 52  1  0  0  0
 40 53  2  0  0  0
 40 58  1  0  0  0
 41107  1  0  0  0
 41108  1  0  0  0
 41109  1  0  0  0
 41 48  1  0  0  0
 42 43  1  0  0  0
 42 66  1  0  0  0
 42110  1  0  0  0
 42111  1  0  0  0
 43 44  1  0  0  0
 44112  1  0  0  0
 45 46  2  0  0  0
 45113  1  0  0  0
 46114  1  0  0  0
 47115  1  0  0  0
 47116  1  0  0  0
 48 56  1  0  0  0
 48 65  1  0  0  0
 48117  1  0  0  0
 49 50  1  0  0  0
 49 53  1  0  0  0
 49 64  1  0  0  0
 49118  1  0  0  0
 50 51  1  0  0  0
 50119  1  0  0  0
 50120  1  0  0  0
 51 52  1  0  0  0
 51121  1  0  0  0
 51122  1  0  0  0
 52123  1  0  0  0
 52124  1  0  0  0
 53 54  1  0  0  0
 54 55  2  0  0  0
 54125  1  0  0  0
 55 57  1  0  0  0
 55126  1  0  0  0
 56 69  2  0  0  0
 57 58  2  0  0  0
 57127  1  0  0  0
 58128  1  0  0  0
 59 60  1  0  0  0
 59 61  1  0  0  0
 59 62  1  0  0  0
 60129  1  0  0  0
 60130  1  0  0  0
 60131  1  0  0  0
 61132  1  0  0  0
 61133  1  0  0  0
 61134  1  0  0  0
 62135  1  0  0  0
 62136  1  0  0  0
 62137  1  0  0  0
 63 65  1  0  0  0
 63138  1  0  0  0
 63139  1  0  0  0
 63140  1  0  0  0
 64141  1  0  0  0
 65142  1  0  0  0
 68 78  1  0  0  0
 71 80  2  0  0  0
 71 82  1  0  0  0
 71143  1  0  0  0
 72 79  1  0  0  0
 72 81  2  0  0  0
 72 82  1  0  0  0
 73144  1  0  0  0
 73145  1  0  0  0
 73146  1  0  0  0
 73 79  1  0  0  0
 74 75  1  0  0  0
 74 76  1  0  0  0
 74147  1  0  0  0
 74148  1  0  0  0
 75 77  1  0  0  0
 75149  1  0  0  0
 75150  1  0  0  0
 76 78  1  0  0  0
 76151  1  0  0  0
 76152  1  0  0  0
 77 82  1  0  0  0
 77153  1  0  0  0
 77154  1  0  0  0
 78155  1  0  0  0
 78156  1  0  0  0
 79 83  1  0  0  0
 79157  1  0  0  0
 80 81  1  0  0  0
 83158  1  0  0  0
M  ISO  4   1 100  68 101  78 101  83 100
M  END
> <chiral flag>
0

> <version>
0

> <s_m_source_file>
/data/baiqing/PycharmProjects/Reinvent-master-3.2/result/LINK_invent/BTK/process_docking_weight1_custom_sum_contain_oxygen_bond_distance_aromatic_linkinvent_7_9_3/rearranged_h_0070.sdf

> <i_m_source_file_index>
31

> <r_mmod_Potential_Energy-OPLS-2005>
-109.776222229004

> <r_mmod_Stretch_Energy-OPLS-2005>
48.925724029541

> <r_mmod_Bend_Energy-OPLS-2005>
127.408058166504

> <r_mmod_Torsional_Energy-OPLS-2005>
210.884063720703

> <r_mmod_Improper_Torsional_Energy-OPLS-2005>
6.65013837814331

> <r_mmod_Van_der_Waal_Energy-OPLS-2005>
128.161804199219

> <r_mmod_Electrostatic_Energy-OPLS-2005>
-410.247436523438

> <r_mmod_Solvation_Energy-OPLS-2005>
-240.682052612305

> <b_mmod_Minimization_Converged-OPLS-2005>
0

> <r_mmod_RMS_Derivative-OPLS-2005>
2.35125207901001

$$$$
31
                    3D
 Structure written by MMmdl.
141149  0  0  1  0            999 V2000
  -30.2587  -15.7615   20.3029 C   0  0  0  0  0  0
  -30.4155  -13.1619   19.5644 C   0  0  0  0  0  0
  -29.5612  -12.6889   18.3482 C   0  0  0  0  0  0
  -28.1401  -12.3077   18.7851 C   0  0  0  0  0  0
  -27.5887  -13.3267   19.8053 C   0  0  2  0  0  0
  -28.5872  -13.7164   20.9210 C   0  0  0  0  0  0
  -25.2301  -13.8329   20.5809 C   0  0  0  0  0  0
  -24.1700  -13.0447   20.9265 C   0  0  0  0  0  0
  -24.6424  -11.6963   20.8733 C   0  0  0  0  0  0
  -23.9134  -10.4300   21.0377 C   0  0  0  0  0  0
  -24.3664   -9.4216   21.9167 C   0  0  0  0  0  0
  -23.6322   -8.2258   22.0749 C   0  0  0  0  0  0
  -22.4301   -8.0294   21.3544 C   0  0  0  0  0  0
  -21.9948   -9.0268   20.4641 C   0  0  0  0  0  0
  -22.7294  -10.2137   20.3038 C   0  0  0  0  0  0
  -21.6864   -6.0745   22.5279 C   0  0  0  0  0  0
  -21.4024   -6.5645   23.8213 C   0  0  0  0  0  0
  -21.3661   -5.6795   24.9173 C   0  0  0  0  0  0
  -21.6043   -4.3057   24.7223 C   0  0  0  0  0  0
  -21.8818   -3.8152   23.4343 C   0  0  0  0  0  0
  -21.9196   -4.6971   22.3401 C   0  0  0  0  0  0
  -22.7711  -13.5159   21.1916 C   0  0  0  0  0  0
  -22.1663   -4.2155   21.0978 F   0  0  0  0  0  0
  -21.5626   -3.4539   25.7735 F   0  0  0  0  0  0
  -29.7612  -14.3642   20.2809 N   0  0  0  0  0  0
  -26.2751  -12.9688   20.3207 N   0  0  0  0  0  0
  -25.9375  -11.6737   20.5652 N   0  0  0  0  0  0
  -22.0391  -12.8126   22.0473 N   0  0  0  0  0  0
  -25.3903  -15.2083   20.4356 N   0  0  0  0  0  0
  -31.4958  -15.6482   20.1421 O   0  0  0  0  0  0
  -21.6655   -6.8895   21.4244 O   0  0  0  0  0  0
  -22.3372  -14.5456   20.6763 O   0  0  0  0  0  0
  -24.6930  -31.7887   23.1428 C   0  0  0  0  0  0
  -25.9466  -32.4409   23.8010 C   0  0  1  0  0  0
  -27.2278  -26.6042   20.2278 C   0  0  0  0  0  0
  -25.6005  -33.8239   24.1889 N   0  0  0  0  0  0
  -23.5233  -30.3861   21.4990 C   0  0  2  0  0  0
  -24.9809  -28.7051   20.1215 C   0  0  0  0  0  0
  -22.7807  -29.4256   22.4682 C   0  0  0  0  0  0
  -18.0345  -28.1427   22.8450 C   0  0  0  0  0  0
  -24.1496  -36.7127   23.2654 C   0  0  0  0  0  0
  -26.1079  -30.4894   21.4216 C   0  0  0  0  0  0
  -26.1717  -29.0430   20.7746 C   0  0  0  0  0  0
  -27.2758  -28.0241   20.7901 C   0  0  0  0  0  0
  -26.0025  -26.4991   19.5153 C   0  0  0  0  0  0
  -24.9411  -27.4603   19.4673 C   0  0  0  0  0  0
  -23.7825  -29.6731   20.1389 C   0  0  0  0  0  0
  -25.4150  -36.2859   24.0273 C   0  0  1  0  0  0
  -20.5986  -28.3791   23.1123 C   0  0  2  0  0  0
  -20.6805  -26.9440   22.5403 C   0  0  0  0  0  0
  -19.5782  -26.6368   21.5216 C   0  0  0  0  0  0
  -18.1966  -26.7952   22.1618 C   0  0  0  0  0  0
  -19.1614  -28.8935   23.2765 C   0  0  0  0  0  0
  -18.9517  -30.1516   23.8815 C   0  0  0  0  0  0
  -17.6505  -30.6606   24.0548 C   0  0  0  0  0  0
  -25.9137  -34.9253   23.4925 C   0  0  0  0  0  0
  -16.5394  -29.9085   23.6354 C   0  0  0  0  0  0
  -16.7324  -28.6509   23.0370 C   0  0  0  0  0  0
  -26.4613  -31.6486   25.0674 C   0  0  0  0  0  0
  -25.3651  -31.3829   26.1267 C   0  0  0  0  0  0
  -27.0568  -30.2816   24.6646 C   0  0  0  0  0  0
  -27.6038  -32.4373   25.7502 C   0  0  0  0  0  0
  -27.5563  -37.1717   24.8464 C   0  0  0  0  0  0
  -21.4445  -29.3020   22.3432 N   0  0  0  0  0  0
  -26.4266  -37.3633   23.9411 N   0  0  0  0  0  0
  -24.7993  -30.9237   22.0734 N   0  0  0  0  0  0
  -23.4206  -28.7874   23.3072 O   0  0  0  0  0  0
  -28.1881  -25.3493   20.2961 O   0  0  0  0  0  0
  -26.5791  -34.8852   22.4552 O   0  0  0  0  0  0
  -23.5929  -32.1006   23.6323 O   0  0  0  0  0  0
  -27.9525  -19.0929   20.4420 C   0  0  0  0  0  0
  -29.5251  -17.4370   20.3512 C   0  0  0  0  0  0
  -29.0865  -21.8345   20.3311 C   0  0  0  0  0  0
  -28.0455  -23.5414   20.2126 C   0  0  0  0  0  0
  -28.1546  -17.7003   20.4597 N   0  0  0  0  0  0
  -30.0354  -18.8284   20.2681 N   0  0  0  0  0  0
  -28.9837  -19.9883   20.3178 N   0  0  0  0  0  0
  -31.4083  -13.4222   19.1968 H   0  0  0  0  0  0
  -30.5862  -12.3371   20.2585 H   0  0  0  0  0  0
  -30.0406  -11.8469   17.8472 H   0  0  0  0  0  0
  -29.5100  -13.4949   17.6148 H   0  0  0  0  0  0
  -28.1843  -11.3197   19.2453 H   0  0  0  0  0  0
  -27.4785  -12.2191   17.9224 H   0  0  0  0  0  0
  -27.4344  -14.2308   19.2142 H   0  0  0  0  0  0
  -28.8602  -12.8588   21.5378 H   0  0  0  0  0  0
  -28.1247  -14.4382   21.5956 H   0  0  0  0  0  0
  -25.2803   -9.5692   22.4751 H   0  0  0  0  0  0
  -24.0022   -7.4654   22.7479 H   0  0  0  0  0  0
  -21.0875   -8.8795   19.8951 H   0  0  0  0  0  0
  -22.3748  -10.9675   19.6148 H   0  0  0  0  0  0
  -21.2021   -7.6154   23.9719 H   0  0  0  0  0  0
  -21.1482   -6.0524   25.9076 H   0  0  0  0  0  0
  -22.0594   -2.7614   23.2841 H   0  0  0  0  0  0
  -22.4045  -11.9805   22.4862 H   0  0  0  0  0  0
  -21.0996  -13.1109   22.2678 H   0  0  0  0  0  0
  -24.6264  -15.8582   20.5852 H   0  0  0  0  0  0
  -26.2588  -15.6730   20.1946 H   0  0  0  0  0  0
  -26.7555  -32.4855   23.0725 H   0  0  0  0  0  0
  -25.0049  -33.9258   24.9973 H   0  0  0  0  0  0
  -22.8541  -31.2258   21.3003 H   0  0  0  0  0  0
  -23.3780  -35.9433   23.3252 H   0  0  0  0  0  0
  -24.3562  -36.8860   22.2082 H   0  0  0  0  0  0
  -23.7235  -37.6276   23.6782 H   0  0  0  0  0  0
  -26.3212  -31.2073   20.6286 H   0  0  0  0  0  0
  -26.9548  -30.5607   22.0914 H   0  0  0  0  0  0
  -28.1710  -28.2940   21.3322 H   0  0  0  0  0  0
  -25.8207  -25.5628   19.0067 H   0  0  0  0  0  0
  -24.0448  -27.1912   18.9252 H   0  0  0  0  0  0
  -23.9666  -30.4283   19.3739 H   0  0  0  0  0  0
  -22.8849  -29.1449   19.8128 H   0  0  0  0  0  0
  -25.1364  -36.1604   25.0763 H   0  0  0  0  0  0
  -21.0065  -28.3423   24.1251 H   0  0  0  0  0  0
  -20.5658  -26.2418   23.3674 H   0  0  0  0  0  0
  -21.6666  -26.7366   22.1228 H   0  0  0  0  0  0
  -19.6935  -25.6257   21.1300 H   0  0  0  0  0  0
  -19.6728  -27.3132   20.6710 H   0  0  0  0  0  0
  -17.4235  -26.6695   21.4023 H   0  0  0  0  0  0
  -18.0352  -26.0115   22.9034 H   0  0  0  0  0  0
  -19.7992  -30.7355   24.2147 H   0  0  0  0  0  0
  -17.5054  -31.6277   24.5167 H   0  0  0  0  0  0
  -15.5390  -30.2960   23.7725 H   0  0  0  0  0  0
  -15.8726  -28.0798   22.7132 H   0  0  0  0  0  0
  -24.5869  -30.7146   25.7559 H   0  0  0  0  0  0
  -24.8803  -32.3057   26.4461 H   0  0  0  0  0  0
  -25.7801  -30.9140   27.0198 H   0  0  0  0  0  0
  -26.3308  -29.6394   24.1651 H   0  0  0  0  0  0
  -27.3973  -29.7306   25.5424 H   0  0  0  0  0  0
  -27.9293  -30.3924   24.0206 H   0  0  0  0  0  0
  -27.2561  -33.3753   26.1845 H   0  0  0  0  0  0
  -28.3970  -32.6812   25.0422 H   0  0  0  0  0  0
  -28.0576  -31.8665   26.5614 H   0  0  0  0  0  0
  -28.2529  -38.0059   24.7529 H   0  0  0  0  0  0
  -28.1109  -36.2581   24.6270 H   0  0  0  0  0  0
  -27.2279  -37.1322   25.8865 H   0  0  0  0  0  0
  -20.9771  -29.8660   21.6471 H   0  0  0  0  0  0
  -26.0081  -38.2674   24.1436 H   0  0  0  0  0  0
  -26.9478  -19.4819   20.5373 H   0  0  0  0  0  0
  -29.6313  -22.0023   21.2595 H   0  0  0  0  0  0
  -29.8463  -22.0084   19.5698 H   0  0  0  0  0  0
  -27.5246  -23.4261   19.2621 H   0  0  0  0  0  0
  -27.2599  -23.3759   20.9497 H   0  0  0  0  0  0
  1 25  1  0  0  0
  1 30  2  0  0  0
  1 72  1  0  0  0
  2  3  1  0  0  0
  2 25  1  0  0  0
  2 78  1  0  0  0
  2 79  1  0  0  0
  3  4  1  0  0  0
  3 80  1  0  0  0
  3 81  1  0  0  0
  4  5  1  0  0  0
  4 82  1  0  0  0
  4 83  1  0  0  0
  5  6  1  0  0  0
  5 26  1  0  0  0
  5 84  1  0  0  0
  6 25  1  0  0  0
  6 85  1  0  0  0
  6 86  1  0  0  0
  7  8  2  0  0  0
  7 26  1  0  0  0
  7 29  1  0  0  0
  8  9  1  0  0  0
  8 22  1  0  0  0
  9 10  1  0  0  0
  9 27  2  0  0  0
 10 11  2  0  0  0
 10 15  1  0  0  0
 11 12  1  0  0  0
 11 87  1  0  0  0
 12 13  2  0  0  0
 12 88  1  0  0  0
 13 14  1  0  0  0
 13 31  1  0  0  0
 14 15  2  0  0  0
 14 89  1  0  0  0
 15 90  1  0  0  0
 16 17  2  0  0  0
 16 21  1  0  0  0
 16 31  1  0  0  0
 17 18  1  0  0  0
 17 91  1  0  0  0
 18 19  2  0  0  0
 18 92  1  0  0  0
 19 20  1  0  0  0
 19 24  1  0  0  0
 20 21  2  0  0  0
 20 93  1  0  0  0
 21 23  1  0  0  0
 22 28  1  0  0  0
 22 32  2  0  0  0
 26 27  1  0  0  0
 28 94  1  0  0  0
 28 95  1  0  0  0
 29 96  1  0  0  0
 29 97  1  0  0  0
 33 34  1  0  0  0
 33 66  1  0  0  0
 33 70  2  0  0  0
 34 36  1  0  0  0
 34 59  1  0  0  0
 34 98  1  0  0  0
 35 44  2  0  0  0
 35 45  1  0  0  0
 35 68  1  0  0  0
 36 56  1  0  0  0
 36 99  1  0  0  0
 37 39  1  0  0  0
 37 47  1  0  0  0
 37 66  1  0  0  0
 37100  1  0  0  0
 38 43  2  0  0  0
 38 46  1  0  0  0
 38 47  1  0  0  0
 39 64  1  0  0  0
 39 67  2  0  0  0
 40 52  1  0  0  0
 40 53  2  0  0  0
 40 58  1  0  0  0
 41101  1  0  0  0
 41102  1  0  0  0
 41103  1  0  0  0
 41 48  1  0  0  0
 42 43  1  0  0  0
 42 66  1  0  0  0
 42104  1  0  0  0
 42105  1  0  0  0
 43 44  1  0  0  0
 44106  1  0  0  0
 45 46  2  0  0  0
 45107  1  0  0  0
 46108  1  0  0  0
 47109  1  0  0  0
 47110  1  0  0  0
 48 56  1  0  0  0
 48 65  1  0  0  0
 48111  1  0  0  0
 49 50  1  0  0  0
 49 53  1  0  0  0
 49 64  1  0  0  0
 49112  1  0  0  0
 50 51  1  0  0  0
 50113  1  0  0  0
 50114  1  0  0  0
 51 52  1  0  0  0
 51115  1  0  0  0
 51116  1  0  0  0
 52117  1  0  0  0
 52118  1  0  0  0
 53 54  1  0  0  0
 54 55  2  0  0  0
 54119  1  0  0  0
 55 57  1  0  0  0
 55120  1  0  0  0
 56 69  2  0  0  0
 57 58  2  0  0  0
 57121  1  0  0  0
 58122  1  0  0  0
 59 60  1  0  0  0
 59 61  1  0  0  0
 59 62  1  0  0  0
 60123  1  0  0  0
 60124  1  0  0  0
 60125  1  0  0  0
 61126  1  0  0  0
 61127  1  0  0  0
 61128  1  0  0  0
 62129  1  0  0  0
 62130  1  0  0  0
 62131  1  0  0  0
 63 65  1  0  0  0
 63132  1  0  0  0
 63133  1  0  0  0
 63134  1  0  0  0
 64135  1  0  0  0
 65136  1  0  0  0
 68 74  1  0  0  0
 71 75  2  0  0  0
 71 77  1  0  0  0
 71137  1  0  0  0
 72 75  1  0  0  0
 72 76  2  0  0  0
 73 74  1  0  0  0
 73 77  1  0  0  0
 73138  1  0  0  0
 73139  1  0  0  0
 74140  1  0  0  0
 74141  1  0  0  0
 76 77  1  0  0  0
M  ISO  4   1 100  68 101  72 100  74 101
M  END
> <chiral flag>
0

> <version>
0

> <s_m_source_file>
/data/baiqing/PycharmProjects/Reinvent-master-3.2/result/LINK_invent/BTK/process_docking_weight1_custom_sum_contain_oxygen_bond_distance_aromatic_linkinvent_7_9_3/rearranged_h_0070.sdf

> <i_m_source_file_index>
32

> <r_mmod_Potential_Energy-OPLS-2005>
3016.99755859375

> <r_mmod_Stretch_Energy-OPLS-2005>
1292.505859375

> <r_mmod_Bend_Energy-OPLS-2005>
715.026306152344

> <r_mmod_Torsional_Energy-OPLS-2005>
214.161773681641

> <r_mmod_Improper_Torsional_Energy-OPLS-2005>
2.81513094902039

> <r_mmod_Van_der_Waal_Energy-OPLS-2005>
106.789054870605

> <r_mmod_Electrostatic_Energy-OPLS-2005>
-188.986968994141

> <r_mmod_Solvation_Energy-OPLS-2005>
-222.811416625977

> <b_mmod_Minimization_Converged-OPLS-2005>
0

> <r_mmod_RMS_Derivative-OPLS-2005>
0.217515051364899

$$$$
32
                    3D
 Structure written by MMmdl.
174182  0  0  1  0            999 V2000
  -30.8172  -15.0760   21.2512 C   0  0  0  0  0  0
  -31.4944  -13.9774   18.7307 C   0  0  0  0  0  0
  -29.8904  -13.4665   16.9119 C   0  0  0  0  0  0
  -27.5556  -13.3430   17.4993 C   0  0  0  0  0  0
  -27.1215  -13.2205   19.9029 C   0  0  2  0  0  0
  -28.8278  -13.2761   21.2751 C   0  0  0  0  0  0
  -24.9189  -13.7290   20.8327 C   0  0  0  0  0  0
  -23.8921  -12.9234   21.0127 C   0  0  0  0  0  0
  -24.4160  -11.6093   20.9127 C   0  0  0  0  0  0
  -23.7816  -10.3516   21.0531 C   0  0  0  0  0  0
  -24.2918   -9.3725   21.9221 C   0  0  0  0  0  0
  -23.5884   -8.1696   22.0702 C   0  0  0  0  0  0
  -22.3866   -7.9699   21.3502 C   0  0  0  0  0  0
  -21.9225   -8.9477   20.4559 C   0  0  0  0  0  0
  -22.6251  -10.1395   20.2990 C   0  0  0  0  0  0
  -21.6655   -6.0482   22.5354 C   0  0  0  0  0  0
  -21.3823   -6.5480   23.8262 C   0  0  0  0  0  0
  -21.3601   -5.6679   24.9262 C   0  0  0  0  0  0
  -21.6055   -4.2967   24.7322 C   0  0  0  0  0  0
  -21.8852   -3.7996   23.4469 C   0  0  0  0  0  0
  -21.9128   -4.6762   22.3499 C   0  0  0  0  0  0
  -22.5256  -13.4264   21.2460 C   0  0  0  0  0  0
  -22.1640   -4.2001   21.1075 F   0  0  0  0  0  0
  -21.5689   -3.4445   25.7851 F   0  0  0  0  0  0
  -30.6361  -13.9070   20.7297 N   0  0  0  0  0  0
  -25.9077  -12.8770   20.3905 N   0  0  0  0  0  0
  -25.6745  -11.5932   20.5718 N   0  0  0  0  0  0
  -21.7965  -12.7479   22.1112 N   0  0  0  0  0  0
  -25.0225  -15.0896   21.0731 N   0  0  0  0  0  0
  -31.9203  -15.5104   20.9709 O   0  0  0  0  0  0
  -21.6287   -6.8353   21.4241 O   0  0  0  0  0  0
  -22.1489  -14.4743   20.7162 O   0  0  0  0  0  0
  -24.7036  -31.7806   23.1344 C   0  0  0  0  0  0
  -25.9526  -32.4382   23.7944 C   0  0  1  0  0  0
  -27.2322  -26.5927   20.0237 C   0  0  0  0  0  0
  -25.6004  -33.8219   24.1830 N   0  0  0  0  0  0
  -23.5220  -30.3885   21.5055 C   0  0  2  0  0  0
  -24.9562  -28.6947   20.1032 C   0  0  0  0  0  0
  -22.7795  -29.4290   22.4723 C   0  0  0  0  0  0
  -18.0356  -28.1455   22.8442 C   0  0  0  0  0  0
  -24.1494  -36.7148   23.2648 C   0  0  0  0  0  0
  -26.1131  -30.4572   21.4045 C   0  0  0  0  0  0
  -26.1693  -29.0159   20.7242 C   0  0  0  0  0  0
  -27.2775  -27.9929   20.6580 C   0  0  0  0  0  0
  -25.9528  -26.4982   19.4054 C   0  0  0  0  0  0
  -24.8860  -27.4551   19.4430 C   0  0  0  0  0  0
  -23.7613  -29.6741   20.1434 C   0  0  0  0  0  0
  -25.4139  -36.2863   24.0265 C   0  0  1  0  0  0
  -20.6008  -28.3837   23.1116 C   0  0  2  0  0  0
  -20.6840  -26.9487   22.5400 C   0  0  0  0  0  0
  -19.5810  -26.6383   21.5230 C   0  0  0  0  0  0
  -18.1992  -26.7974   22.1621 C   0  0  0  0  0  0
  -19.1627  -28.8970   23.2768 C   0  0  0  0  0  0
  -18.9522  -30.1563   23.8809 C   0  0  0  0  0  0
  -17.6507  -30.6639   24.0555 C   0  0  0  0  0  0
  -25.9125  -34.9251   23.4920 C   0  0  0  0  0  0
  -16.5405  -29.9103   23.6366 C   0  0  0  0  0  0
  -16.7328  -28.6533   23.0361 C   0  0  0  0  0  0
  -26.4621  -31.6503   25.0658 C   0  0  0  0  0  0
  -25.3620  -31.3870   26.1233 C   0  0  0  0  0  0
  -27.0547  -30.2835   24.6607 C   0  0  0  0  0  0
  -27.6024  -32.4388   25.7506 C   0  0  0  0  0  0
  -27.5565  -37.1718   24.8446 C   0  0  0  0  0  0
  -21.4450  -29.3058   22.3412 N   0  0  0  0  0  0
  -26.4244  -37.3652   23.9437 N   0  0  0  0  0  0
  -24.8089  -30.9073   22.0684 N   0  0  0  0  0  0
  -23.4164  -28.7901   23.3125 O   0  0  0  0  0  0
  -28.2315  -25.3562   19.9210 O   0  0  0  0  0  0
  -26.5791  -34.8849   22.4563 O   0  0  0  0  0  0
  -23.6032  -32.0968   23.6220 O   0  0  0  0  0  0
  -29.9013  -16.1257   18.8107 C   0  0  0  0  0  0
  -29.2875  -14.5623   18.8670 C   0  0  0  0  0  0
  -28.6827  -14.8456   19.0638 C   0  0  0  0  0  0
  -29.9946  -12.3987   19.1111 C   0  0  0  0  0  0
  -28.2485  -10.2043   19.7829 C   0  0  0  0  0  0
  -28.5106  -10.5515   17.3980 C   0  0  0  0  0  0
  -26.3522  -15.9958   19.0156 C   0  0  0  0  0  0
  -27.5667  -17.5159   19.9283 C   0  0  0  0  0  0
  -29.8965  -18.0960   18.6464 C   0  0  0  0  0  0
  -29.1201  -19.8683   19.3203 C   0  0  0  0  0  0
  -29.1853  -21.8565   19.3187 C   0  0  0  0  0  0
  -28.1686  -15.9006   21.5062 C   0  0  0  0  0  0
  -28.1433  -23.5477   19.6805 C   0  0  0  0  0  0
  -28.1402  -11.3486   18.7094 C   0  0  0  0  0  0
  -27.6791  -15.9659   19.9422 C   0  0  0  0  0  0
  -28.9466  -15.7143   18.0304 N   0  0  0  0  0  0
  -29.1415  -13.1662   19.0258 N   0  0  0  0  0  0
  -29.7255  -15.8090   21.7519 N   0  0  0  0  0  0
  -31.9787  -14.9289   18.5215 H   0  0  0  0  0  0
  -32.3738  -13.3294   18.6568 H   0  0  0  0  0  0
  -30.1915  -12.5518   16.3991 H   0  0  0  0  0  0
  -30.0034  -14.2073   16.1194 H   0  0  0  0  0  0
  -27.0390  -12.5914   16.9041 H   0  0  0  0  0  0
  -27.0628  -14.2196   17.0888 H   0  0  0  0  0  0
  -26.9596  -14.0740   20.3893 H   0  0  0  0  0  0
  -28.9665  -12.2413   21.5800 H   0  0  0  0  0  0
  -28.5916  -13.5224   22.3030 H   0  0  0  0  0  0
  -25.2058   -9.5516   22.4741 H   0  0  0  0  0  0
  -23.9756   -7.4072   22.7311 H   0  0  0  0  0  0
  -21.0219   -8.7772   19.8838 H   0  0  0  0  0  0
  -22.2658  -10.8937   19.6142 H   0  0  0  0  0  0
  -21.1697   -7.5968   23.9729 H   0  0  0  0  0  0
  -21.1440   -6.0423   25.9172 H   0  0  0  0  0  0
  -22.0708   -2.7464   23.3011 H   0  0  0  0  0  0
  -22.1445  -11.9057   22.5448 H   0  0  0  0  0  0
  -20.8661  -13.0609   22.3457 H   0  0  0  0  0  0
  -24.2238  -15.6733   21.2896 H   0  0  0  0  0  0
  -25.8262  -15.6154   20.7470 H   0  0  0  0  0  0
  -26.7599  -32.4789   23.0628 H   0  0  0  0  0  0
  -25.0048  -33.9250   24.9903 H   0  0  0  0  0  0
  -22.8569  -31.2370   21.3155 H   0  0  0  0  0  0
  -23.3788  -35.9450   23.3214 H   0  0  0  0  0  0
  -24.3557  -36.8930   22.2080 H   0  0  0  0  0  0
  -23.7201  -37.6266   23.6806 H   0  0  0  0  0  0
  -26.3193  -31.1793   20.6132 H   0  0  0  0  0  0
  -26.9654  -30.5238   22.0715 H   0  0  0  0  0  0
  -28.1949  -28.2396   21.1720 H   0  0  0  0  0  0
  -25.7274  -25.5833   18.8710 H   0  0  0  0  0  0
  -23.9559  -27.1993   18.9548 H   0  0  0  0  0  0
  -23.9323  -30.4357   19.3780 H   0  0  0  0  0  0
  -22.8474  -29.1575   19.8322 H   0  0  0  0  0  0
  -25.1358  -36.1608   25.0745 H   0  0  0  0  0  0
  -21.0078  -28.3504   24.1255 H   0  0  0  0  0  0
  -20.5759  -26.2463   23.3687 H   0  0  0  0  0  0
  -21.6695  -26.7462   22.1201 H   0  0  0  0  0  0
  -19.6985  -25.6264   21.1337 H   0  0  0  0  0  0
  -19.6769  -27.3133   20.6715 H   0  0  0  0  0  0
  -17.4272  -26.6721   21.4024 H   0  0  0  0  0  0
  -18.0389  -26.0159   22.9049 H   0  0  0  0  0  0
  -19.8012  -30.7417   24.2103 H   0  0  0  0  0  0
  -17.5069  -31.6300   24.5196 H   0  0  0  0  0  0
  -15.5409  -30.2971   23.7765 H   0  0  0  0  0  0
  -15.8732  -28.0830   22.7097 H   0  0  0  0  0  0
  -24.5788  -30.7273   25.7502 H   0  0  0  0  0  0
  -24.8823  -32.3108   26.4458 H   0  0  0  0  0  0
  -25.7721  -30.9110   27.0145 H   0  0  0  0  0  0
  -26.3272  -29.6441   24.1590 H   0  0  0  0  0  0
  -27.3950  -29.7320   25.5378 H   0  0  0  0  0  0
  -27.9256  -30.3986   24.0158 H   0  0  0  0  0  0
  -27.2542  -33.3779   26.1825 H   0  0  0  0  0  0
  -28.3964  -32.6810   25.0433 H   0  0  0  0  0  0
  -28.0529  -31.8671   26.5623 H   0  0  0  0  0  0
  -28.2495  -38.0098   24.7578 H   0  0  0  0  0  0
  -28.1155  -36.2624   24.6179 H   0  0  0  0  0  0
  -27.2296  -37.1226   25.8845 H   0  0  0  0  0  0
  -20.9789  -29.8586   21.6368 H   0  0  0  0  0  0
  -26.0071  -38.2705   24.1471 H   0  0  0  0  0  0
  -30.9897  -12.0467   19.4999 H   0  0  0  0  0  0
  -30.4540  -11.7712   18.2705 H   0  0  0  0  0  0
  -30.0225  -11.6993   20.0389 H   0  0  0  0  0  0
  -27.5137   -9.4234   19.5923 H   0  0  0  0  0  0
  -28.0711  -10.5152   20.8055 H   0  0  0  0  0  0
  -29.2130   -9.6958   19.7479 H   0  0  0  0  0  0
  -27.7920   -9.7486   17.2238 H   0  0  0  0  0  0
  -29.4723  -10.0550   17.4772 H   0  0  0  0  0  0
  -28.5434  -11.1392   16.4828 H   0  0  0  0  0  0
  -26.5906  -16.3261   17.9984 H   0  0  0  0  0  0
  -25.5217  -16.6499   19.2965 H   0  0  0  0  0  0
  -25.8989  -15.0430   18.7899 H   0  0  0  0  0  0
  -27.5118  -17.9400   18.9244 H   0  0  0  0  0  0
  -28.3609  -17.9521   20.4994 H   0  0  0  0  0  0
  -26.6908  -17.8883   20.4912 H   0  0  0  0  0  0
  -29.5396  -18.1912   17.6191 H   0  0  0  0  0  0
  -30.9560  -18.3170   18.5359 H   0  0  0  0  0  0
  -29.1604  -19.7547   20.4060 H   0  0  0  0  0  0
  -28.0825  -19.7960   19.0132 H   0  0  0  0  0  0
  -29.5864  -22.0208   18.3268 H   0  0  0  0  0  0
  -30.0470  -21.9909   19.9705 H   0  0  0  0  0  0
  -27.5976  -15.1685   22.0703 H   0  0  0  0  0  0
  -27.8113  -16.7586   22.0822 H   0  0  0  0  0  0
  -27.6291  -23.2578   20.5993 H   0  0  0  0  0  0
  -27.3594  -23.4728   18.9235 H   0  0  0  0  0  0
  -27.0602  -11.3791   18.5895 H   0  0  0  0  0  0
  -30.0717  -16.6853   22.1136 H   0  0  0  0  0  0
  1 25  1  0  0  0
  1 30  2  0  0  0
  1 88  1  0  0  0
  2  3  1  0  0  0
  2 25  1  0  0  0
  2 89  1  0  0  0
  2 90  1  0  0  0
  3  4  1  0  0  0
  3 91  1  0  0  0
  3 92  1  0  0  0
  4  5  1  0  0  0
  4 93  1  0  0  0
  4 94  1  0  0  0
  5  6  1  0  0  0
  5 26  1  0  0  0
  5 95  1  0  0  0
  6 25  1  0  0  0
  6 96  1  0  0  0
  6 97  1  0  0  0
  7  8  2  0  0  0
  7 26  1  0  0  0
  7 29  1  0  0  0
  8  9  1  0  0  0
  8 22  1  0  0  0
  9 10  1  0  0  0
  9 27  2  0  0  0
 10 11  2  0  0  0
 10 15  1  0  0  0
 11 12  1  0  0  0
 11 98  1  0  0  0
 12 13  2  0  0  0
 12 99  1  0  0  0
 13 14  1  0  0  0
 13 31  1  0  0  0
 14 15  2  0  0  0
 14100  1  0  0  0
 15101  1  0  0  0
 16 17  2  0  0  0
 16 21  1  0  0  0
 16 31  1  0  0  0
 17 18  1  0  0  0
 17102  1  0  0  0
 18 19  2  0  0  0
 18103  1  0  0  0
 19 20  1  0  0  0
 19 24  1  0  0  0
 20 21  2  0  0  0
 20104  1  0  0  0
 21 23  1  0  0  0
 22 28  1  0  0  0
 22 32  2  0  0  0
 26 27  1  0  0  0
 28105  1  0  0  0
 28106  1  0  0  0
 29107  1  0  0  0
 29108  1  0  0  0
 33 34  1  0  0  0
 33 66  1  0  0  0
 33 70  2  0  0  0
 34 36  1  0  0  0
 34 59  1  0  0  0
 34109  1  0  0  0
 35 44  2  0  0  0
 35 45  1  0  0  0
 35 68  1  0  0  0
 36 56  1  0  0  0
 36110  1  0  0  0
 37 39  1  0  0  0
 37 47  1  0  0  0
 37 66  1  0  0  0
 37111  1  0  0  0
 38 43  2  0  0  0
 38 46  1  0  0  0
 38 47  1  0  0  0
 39 64  1  0  0  0
 39 67  2  0  0  0
 40 52  1  0  0  0
 40 53  2  0  0  0
 40 58  1  0  0  0
 41112  1  0  0  0
 41113  1  0  0  0
 41114  1  0  0  0
 41 48  1  0  0  0
 42 43  1  0  0  0
 42 66  1  0  0  0
 42115  1  0  0  0
 42116  1  0  0  0
 43 44  1  0  0  0
 44117  1  0  0  0
 45 46  2  0  0  0
 45118  1  0  0  0
 46119  1  0  0  0
 47120  1  0  0  0
 47121  1  0  0  0
 48 56  1  0  0  0
 48 65  1  0  0  0
 48122  1  0  0  0
 49 50  1  0  0  0
 49 53  1  0  0  0
 49 64  1  0  0  0
 49123  1  0  0  0
 50 51  1  0  0  0
 50124  1  0  0  0
 50125  1  0  0  0
 51 52  1  0  0  0
 51126  1  0  0  0
 51127  1  0  0  0
 52128  1  0  0  0
 52129  1  0  0  0
 53 54  1  0  0  0
 54 55  2  0  0  0
 54130  1  0  0  0
 55 57  1  0  0  0
 55131  1  0  0  0
 56 69  2  0  0  0
 57 58  2  0  0  0
 57132  1  0  0  0
 58133  1  0  0  0
 59 60  1  0  0  0
 59 61  1  0  0  0
 59 62  1  0  0  0
 60134  1  0  0  0
 60135  1  0  0  0
 60136  1  0  0  0
 61137  1  0  0  0
 61138  1  0  0  0
 61139  1  0  0  0
 62140  1  0  0  0
 62141  1  0  0  0
 62142  1  0  0  0
 63 65  1  0  0  0
 63143  1  0  0  0
 63144  1  0  0  0
 63145  1  0  0  0
 64146  1  0  0  0
 65147  1  0  0  0
 68 83  1  0  0  0
 71 72  2  0  0  0
 71 79  1  0  0  0
 71 86  1  0  0  0
 72 74  1  0  0  0
 72 87  1  0  0  0
 73 85  1  0  0  0
 73 86  2  0  0  0
 73 87  1  0  0  0
 74148  1  0  0  0
 74149  1  0  0  0
 74150  1  0  0  0
 75151  1  0  0  0
 75152  1  0  0  0
 75153  1  0  0  0
 75 84  1  0  0  0
 76 84  1  0  0  0
 76154  1  0  0  0
 76155  1  0  0  0
 76156  1  0  0  0
 77157  1  0  0  0
 77158  1  0  0  0
 77159  1  0  0  0
 77 85  1  0  0  0
 78 85  1  0  0  0
 78160  1  0  0  0
 78161  1  0  0  0
 78162  1  0  0  0
 79 80  1  0  0  0
 79163  1  0  0  0
 79164  1  0  0  0
 80 81  1  0  0  0
 80165  1  0  0  0
 80166  1  0  0  0
 81 83  1  0  0  0
 81167  1  0  0  0
 81168  1  0  0  0
 82 85  1  0  0  0
 82 88  1  0  0  0
 82169  1  0  0  0
 82170  1  0  0  0
 83171  1  0  0  0
 83172  1  0  0  0
 84 87  1  0  0  0
 84173  1  0  0  0
 88174  1  0  0  0
M  ISO  4   1 100  68 101  83 101  88 100
M  END
> <chiral flag>
0

> <version>
0

> <s_m_source_file>
/data/baiqing/PycharmProjects/Reinvent-master-3.2/result/LINK_invent/BTK/process_docking_weight1_custom_sum_contain_oxygen_bond_distance_aromatic_linkinvent_7_9_3/rearranged_h_0070.sdf

> <i_m_source_file_index>
33

> <r_mmod_Potential_Energy-OPLS-2005>
17374.83203125

> <r_mmod_Stretch_Energy-OPLS-2005>
8124.43896484375

> <r_mmod_Bend_Energy-OPLS-2005>
3739.80541992188

> <r_mmod_Torsional_Energy-OPLS-2005>
560.692138671875

> <r_mmod_Improper_Torsional_Energy-OPLS-2005>
27.8834495544434

> <r_mmod_Van_der_Waal_Energy-OPLS-2005>
3609.72094726562

> <r_mmod_Electrostatic_Energy-OPLS-2005>
-417.861175537109

> <r_mmod_Solvation_Energy-OPLS-2005>
-208.519897460938

> <b_mmod_Minimization_Converged-OPLS-2005>
0

> <r_mmod_RMS_Derivative-OPLS-2005>
18.2351341247559

$$$$
33
                    3D
 Structure written by MMmdl.
162170  0  0  1  0            999 V2000
  -30.6613  -14.5809   20.5573 C   0  0  0  0  0  0
  -30.4277  -12.3698   19.4386 C   0  0  0  0  0  0
  -29.4967  -12.5241   18.2122 C   0  0  0  0  0  0
  -28.0125  -12.3585   18.6064 C   0  0  0  0  0  0
  -27.6478  -13.1794   19.8692 C   0  0  2  0  0  0
  -28.6986  -12.9506   20.9764 C   0  0  0  0  0  0
  -25.2532  -13.8034   20.5615 C   0  0  0  0  0  0
  -24.1791  -13.0363   20.9159 C   0  0  0  0  0  0
  -24.6318  -11.6817   20.8741 C   0  0  0  0  0  0
  -23.8971  -10.4245   21.0412 C   0  0  0  0  0  0
  -24.3539   -9.4182   21.9201 C   0  0  0  0  0  0
  -23.6244   -8.2209   22.0768 C   0  0  0  0  0  0
  -22.4240   -8.0233   21.3539 C   0  0  0  0  0  0
  -21.9839   -9.0194   20.4651 C   0  0  0  0  0  0
  -22.7134  -10.2087   20.3066 C   0  0  0  0  0  0
  -21.6850   -6.0683   22.5265 C   0  0  0  0  0  0
  -21.4010   -6.5611   23.8187 C   0  0  0  0  0  0
  -21.3679   -5.6784   24.9160 C   0  0  0  0  0  0
  -21.6049   -4.3042   24.7225 C   0  0  0  0  0  0
  -21.8831   -3.8105   23.4364 C   0  0  0  0  0  0
  -21.9202   -4.6914   22.3410 C   0  0  0  0  0  0
  -22.7826  -13.5184   21.1838 C   0  0  0  0  0  0
  -22.1676   -4.2089   21.0990 F   0  0  0  0  0  0
  -21.5638   -3.4544   25.7754 F   0  0  0  0  0  0
  -30.0108  -13.3676   20.4549 N   0  0  0  0  0  0
  -26.2935  -12.9138   20.3319 N   0  0  0  0  0  0
  -25.9233  -11.6335   20.5751 N   0  0  0  0  0  0
  -22.0479  -12.8207   22.0417 N   0  0  0  0  0  0
  -25.4219  -15.1751   20.3925 N   0  0  0  0  0  0
  -31.8065  -14.6532   20.1046 O   0  0  0  0  0  0
  -21.6639   -6.8810   21.4227 O   0  0  0  0  0  0
  -22.3527  -14.5513   20.6692 O   0  0  0  0  0  0
  -24.6146  -31.8680   23.2059 C   0  0  0  0  0  0
  -25.9031  -32.4825   23.8373 C   0  0  1  0  0  0
  -27.2506  -27.4282   20.0891 C   0  0  0  0  0  0
  -25.5877  -33.8624   24.2310 N   0  0  0  0  0  0
  -23.4027  -30.4881   21.5486 C   0  0  2  0  0  0
  -24.8500  -28.9488   20.1207 C   0  0  0  0  0  0
  -22.7401  -29.4647   22.4986 C   0  0  0  0  0  0
  -18.0267  -28.1361   22.8481 C   0  0  0  0  0  0
  -24.1486  -36.7333   23.2635 C   0  0  0  0  0  0
  -25.9295  -30.8324   21.3558 C   0  0  0  0  0  0
  -26.0086  -29.4624   20.7120 C   0  0  0  0  0  0
  -27.2051  -28.7089   20.6931 C   0  0  0  0  0  0
  -26.0631  -26.9290   19.5000 C   0  0  0  0  0  0
  -24.8725  -27.6813   19.5163 C   0  0  0  0  0  0
  -23.6126  -29.8155   20.1657 C   0  0  0  0  0  0
  -25.4108  -36.3125   24.0338 C   0  0  1  0  0  0
  -20.5846  -28.3658   23.1317 C   0  0  2  0  0  0
  -20.6742  -26.9394   22.5422 C   0  0  0  0  0  0
  -19.5734  -26.6375   21.5196 C   0  0  0  0  0  0
  -18.1909  -26.7912   22.1602 C   0  0  0  0  0  0
  -19.1512  -28.8821   23.2893 C   0  0  0  0  0  0
  -18.9445  -30.1420   23.8915 C   0  0  0  0  0  0
  -17.6459  -30.6575   24.0560 C   0  0  0  0  0  0
  -25.9036  -34.9487   23.5125 C   0  0  0  0  0  0
  -16.5346  -29.9082   23.6309 C   0  0  0  0  0  0
  -16.7263  -28.6492   23.0347 C   0  0  0  0  0  0
  -26.4466  -31.6605   25.0698 C   0  0  0  0  0  0
  -25.3730  -31.3716   26.1443 C   0  0  0  0  0  0
  -27.0288  -30.3057   24.6041 C   0  0  0  0  0  0
  -27.6059  -32.4306   25.7456 C   0  0  0  0  0  0
  -27.5602  -37.1800   24.8450 C   0  0  0  0  0  0
  -21.4129  -29.3029   22.3738 N   0  0  0  0  0  0
  -26.4294  -37.3819   23.9420 N   0  0  0  0  0  0
  -24.6675  -31.0775   22.0964 N   0  0  0  0  0  0
  -23.4177  -28.8191   23.3027 O   0  0  0  0  0  0
  -28.4634  -26.7569   20.1011 O   0  0  0  0  0  0
  -26.5620  -34.8948   22.4699 O   0  0  0  0  0  0
  -23.5336  -32.1426   23.7462 O   0  0  0  0  0  0
  -30.0102  -19.5629   21.9930 C   0  0  0  0  0  0
  -30.6218  -18.5706   21.2684 C   0  0  0  0  0  0
  -32.4271  -16.9053   21.6841 C   0  0  0  0  0  0
  -28.8162  -15.8279   21.9760 C   0  0  0  0  0  0
  -29.3794  -16.5478   19.6448 C   0  0  0  0  0  0
  -29.4183  -23.0325   20.3981 C   0  0  0  0  0  0
  -29.0738  -24.4844   20.8286 C   0  0  0  0  0  0
  -29.7892  -22.0932   21.5800 C   0  0  0  0  0  0
  -28.6131  -25.3935   19.6648 C   0  0  0  0  0  0
  -30.9019  -17.1068   21.6513 C   0  0  2  0  0  0
  -29.9746  -15.9776   20.9618 C   0  0  0  0  0  0
  -31.0772  -19.1581   20.0806 N   0  0  0  0  0  0
  -30.7862  -20.4261   20.0678 N   0  0  0  0  0  0
  -30.1342  -20.7094   21.2217 N   0  0  0  0  0  0
  -31.4678  -12.4772   19.1301 H   0  0  0  0  0  0
  -30.3607  -11.3570   19.8394 H   0  0  0  0  0  0
  -29.7610  -11.8000   17.4400 H   0  0  0  0  0  0
  -29.6437  -13.5089   17.7665 H   0  0  0  0  0  0
  -27.8250  -11.2981   18.7829 H   0  0  0  0  0  0
  -27.3690  -12.6426   17.7732 H   0  0  0  0  0  0
  -27.6663  -14.2191   19.5729 H   0  0  0  0  0  0
  -28.7293  -11.8865   21.2152 H   0  0  0  0  0  0
  -28.4227  -13.3866   21.9276 H   0  0  0  0  0  0
  -25.2686   -9.5689   22.4762 H   0  0  0  0  0  0
  -23.9984   -7.4602   22.7480 H   0  0  0  0  0  0
  -21.0779   -8.8661   19.8958 H   0  0  0  0  0  0
  -22.3570  -10.9606   19.6171 H   0  0  0  0  0  0
  -21.2009   -7.6119   23.9660 H   0  0  0  0  0  0
  -21.1501   -6.0530   25.9058 H   0  0  0  0  0  0
  -22.0607   -2.7567   23.2881 H   0  0  0  0  0  0
  -22.4099  -11.9876   22.4811 H   0  0  0  0  0  0
  -21.1096  -13.1235   22.2621 H   0  0  0  0  0  0
  -24.6461  -15.8226   20.4715 H   0  0  0  0  0  0
  -26.2734  -15.6119   20.0647 H   0  0  0  0  0  0
  -26.7099  -32.5549   23.1142 H   0  0  0  0  0  0
  -24.9991  -33.9783   25.0429 H   0  0  0  0  0  0
  -22.6919  -31.3034   21.4045 H   0  0  0  0  0  0
  -23.3765  -35.9641   23.3249 H   0  0  0  0  0  0
  -24.3595  -36.9006   22.2059 H   0  0  0  0  0  0
  -23.7203  -37.6508   23.6686 H   0  0  0  0  0  0
  -26.0273  -31.5907   20.5784 H   0  0  0  0  0  0
  -26.8239  -30.9017   21.9629 H   0  0  0  0  0  0
  -28.1037  -29.1106   21.1409 H   0  0  0  0  0  0
  -26.0125  -25.9709   19.0095 H   0  0  0  0  0  0
  -23.9788  -27.2789   19.0584 H   0  0  0  0  0  0
  -23.7235  -30.5852   19.4013 H   0  0  0  0  0  0
  -22.7384  -29.2323   19.8700 H   0  0  0  0  0  0
  -25.1273  -36.1991   25.0831 H   0  0  0  0  0  0
  -20.9936  -28.3205   24.1435 H   0  0  0  0  0  0
  -20.5596  -26.2267   23.3603 H   0  0  0  0  0  0
  -21.6623  -26.7394   22.1253 H   0  0  0  0  0  0
  -19.6903  -25.6284   21.1221 H   0  0  0  0  0  0
  -19.6689  -27.3185   20.6720 H   0  0  0  0  0  0
  -17.4187  -26.6658   21.4001 H   0  0  0  0  0  0
  -18.0321  -26.0042   22.8986 H   0  0  0  0  0  0
  -19.7927  -30.7206   24.2315 H   0  0  0  0  0  0
  -17.5025  -31.6261   24.5157 H   0  0  0  0  0  0
  -15.5354  -30.3007   23.7617 H   0  0  0  0  0  0
  -15.8655  -28.0827   22.7064 H   0  0  0  0  0  0
  -24.5885  -30.7092   25.7768 H   0  0  0  0  0  0
  -24.8940  -32.2877   26.4908 H   0  0  0  0  0  0
  -25.8067  -30.8858   27.0189 H   0  0  0  0  0  0
  -26.2809  -29.6811   24.1141 H   0  0  0  0  0  0
  -27.4130  -29.7298   25.4469 H   0  0  0  0  0  0
  -27.8610  -30.4395   23.9125 H   0  0  0  0  0  0
  -27.2706  -33.3601   26.2064 H   0  0  0  0  0  0
  -28.3854  -32.6865   25.0270 H   0  0  0  0  0  0
  -28.0737  -31.8399   26.5339 H   0  0  0  0  0  0
  -28.2577  -38.0148   24.7591 H   0  0  0  0  0  0
  -28.1142  -36.2686   24.6146 H   0  0  0  0  0  0
  -27.2338  -37.1296   25.8856 H   0  0  0  0  0  0
  -20.9284  -29.8792   21.7002 H   0  0  0  0  0  0
  -26.0185  -38.2885   24.1477 H   0  0  0  0  0  0
  -29.5550  -19.5634   22.9750 H   0  0  0  0  0  0
  -32.8985  -17.6869   22.2799 H   0  0  0  0  0  0
  -32.8605  -16.9572   20.6857 H   0  0  0  0  0  0
  -32.7004  -15.9564   22.1445 H   0  0  0  0  0  0
  -28.5064  -16.7923   22.3804 H   0  0  0  0  0  0
  -29.1202  -15.2261   22.8328 H   0  0  0  0  0  0
  -27.9122  -15.4187   21.5377 H   0  0  0  0  0  0
  -28.6531  -17.3409   19.8316 H   0  0  0  0  0  0
  -28.8813  -15.8025   19.0340 H   0  0  0  0  0  0
  -30.1583  -16.9570   19.0030 H   0  0  0  0  0  0
  -30.2490  -23.0731   19.6916 H   0  0  0  0  0  0
  -28.5735  -22.6089   19.8540 H   0  0  0  0  0  0
  -29.9485  -24.9312   21.3048 H   0  0  0  0  0  0
  -28.2929  -24.4660   21.5893 H   0  0  0  0  0  0
  -28.9608  -22.0587   22.2889 H   0  0  0  0  0  0
  -30.6401  -22.5107   22.1216 H   0  0  0  0  0  0
  -27.7392  -24.9509   19.1994 H   0  0  0  0  0  0
  -29.3844  -25.3947   18.8931 H   0  0  0  0  0  0
  -30.6875  -17.0569   22.7206 H   0  0  0  0  0  0
  1 25  1  0  0  0
  1 30  2  0  0  0
  1 81  1  0  0  0
  2  3  1  0  0  0
  2 25  1  0  0  0
  2 85  1  0  0  0
  2 86  1  0  0  0
  3  4  1  0  0  0
  3 87  1  0  0  0
  3 88  1  0  0  0
  4  5  1  0  0  0
  4 89  1  0  0  0
  4 90  1  0  0  0
  5  6  1  0  0  0
  5 26  1  0  0  0
  5 91  1  0  0  0
  6 25  1  0  0  0
  6 92  1  0  0  0
  6 93  1  0  0  0
  7  8  2  0  0  0
  7 26  1  0  0  0
  7 29  1  0  0  0
  8  9  1  0  0  0
  8 22  1  0  0  0
  9 10  1  0  0  0
  9 27  2  0  0  0
 10 11  2  0  0  0
 10 15  1  0  0  0
 11 12  1  0  0  0
 11 94  1  0  0  0
 12 13  2  0  0  0
 12 95  1  0  0  0
 13 14  1  0  0  0
 13 31  1  0  0  0
 14 15  2  0  0  0
 14 96  1  0  0  0
 15 97  1  0  0  0
 16 17  2  0  0  0
 16 21  1  0  0  0
 16 31  1  0  0  0
 17 18  1  0  0  0
 17 98  1  0  0  0
 18 19  2  0  0  0
 18 99  1  0  0  0
 19 20  1  0  0  0
 19 24  1  0  0  0
 20 21  2  0  0  0
 20100  1  0  0  0
 21 23  1  0  0  0
 22 28  1  0  0  0
 22 32  2  0  0  0
 26 27  1  0  0  0
 28101  1  0  0  0
 28102  1  0  0  0
 29103  1  0  0  0
 29104  1  0  0  0
 33 34  1  0  0  0
 33 66  1  0  0  0
 33 70  2  0  0  0
 34 36  1  0  0  0
 34 59  1  0  0  0
 34105  1  0  0  0
 35 44  2  0  0  0
 35 45  1  0  0  0
 35 68  1  0  0  0
 36 56  1  0  0  0
 36106  1  0  0  0
 37 39  1  0  0  0
 37 47  1  0  0  0
 37 66  1  0  0  0
 37107  1  0  0  0
 38 43  2  0  0  0
 38 46  1  0  0  0
 38 47  1  0  0  0
 39 64  1  0  0  0
 39 67  2  0  0  0
 40 52  1  0  0  0
 40 53  2  0  0  0
 40 58  1  0  0  0
 41108  1  0  0  0
 41109  1  0  0  0
 41110  1  0  0  0
 41 48  1  0  0  0
 42 43  1  0  0  0
 42 66  1  0  0  0
 42111  1  0  0  0
 42112  1  0  0  0
 43 44  1  0  0  0
 44113  1  0  0  0
 45 46  2  0  0  0
 45114  1  0  0  0
 46115  1  0  0  0
 47116  1  0  0  0
 47117  1  0  0  0
 48 56  1  0  0  0
 48 65  1  0  0  0
 48118  1  0  0  0
 49 50  1  0  0  0
 49 53  1  0  0  0
 49 64  1  0  0  0
 49119  1  0  0  0
 50 51  1  0  0  0
 50120  1  0  0  0
 50121  1  0  0  0
 51 52  1  0  0  0
 51122  1  0  0  0
 51123  1  0  0  0
 52124  1  0  0  0
 52125  1  0  0  0
 53 54  1  0  0  0
 54 55  2  0  0  0
 54126  1  0  0  0
 55 57  1  0  0  0
 55127  1  0  0  0
 56 69  2  0  0  0
 57 58  2  0  0  0
 57128  1  0  0  0
 58129  1  0  0  0
 59 60  1  0  0  0
 59 61  1  0  0  0
 59 62  1  0  0  0
 60130  1  0  0  0
 60131  1  0  0  0
 60132  1  0  0  0
 61133  1  0  0  0
 61134  1  0  0  0
 61135  1  0  0  0
 62136  1  0  0  0
 62137  1  0  0  0
 62138  1  0  0  0
 63 65  1  0  0  0
 63139  1  0  0  0
 63140  1  0  0  0
 63141  1  0  0  0
 64142  1  0  0  0
 65143  1  0  0  0
 68 79  1  0  0  0
 71 72  2  0  0  0
 71 84  1  0  0  0
 71144  1  0  0  0
 72 80  1  0  0  0
 72 82  1  0  0  0
 73145  1  0  0  0
 73146  1  0  0  0
 73147  1  0  0  0
 73 80  1  0  0  0
 74148  1  0  0  0
 74149  1  0  0  0
 74150  1  0  0  0
 74 81  1  0  0  0
 75 81  1  0  0  0
 75151  1  0  0  0
 75152  1  0  0  0
 75153  1  0  0  0
 76 77  1  0  0  0
 76 78  1  0  0  0
 76154  1  0  0  0
 76155  1  0  0  0
 77 79  1  0  0  0
 77156  1  0  0  0
 77157  1  0  0  0
 78 84  1  0  0  0
 78158  1  0  0  0
 78159  1  0  0  0
 79160  1  0  0  0
 79161  1  0  0  0
 80 81  1  0  0  0
 80162  1  0  0  0
 82 83  2  0  0  0
 83 84  1  0  0  0
M  ISO  4   1 100  68 101  79 101  81 100
M  END
> <chiral flag>
0

> <version>
0

> <s_m_source_file>
/data/baiqing/PycharmProjects/Reinvent-master-3.2/result/LINK_invent/BTK/process_docking_weight1_custom_sum_contain_oxygen_bond_distance_aromatic_linkinvent_7_9_3/rearranged_h_0070.sdf

> <i_m_source_file_index>
34

> <r_mmod_Potential_Energy-OPLS-2005>
68.8181381225586

> <r_mmod_Stretch_Energy-OPLS-2005>
60.5250282287598

> <r_mmod_Bend_Energy-OPLS-2005>
161.714874267578

> <r_mmod_Torsional_Energy-OPLS-2005>
184.412414550781

> <r_mmod_Improper_Torsional_Energy-OPLS-2005>
6.44144821166992

> <r_mmod_Van_der_Waal_Energy-OPLS-2005>
154.386367797852

> <r_mmod_Electrostatic_Energy-OPLS-2005>
-318.751678466797

> <r_mmod_Solvation_Energy-OPLS-2005>
-201.248443603516

> <b_mmod_Minimization_Converged-OPLS-2005>
0

> <r_mmod_RMS_Derivative-OPLS-2005>
2.85434603691101

$$$$
34
                    3D
 Structure written by MMmdl.
162170  0  0  1  0            999 V2000
  -30.6314  -14.6412   20.4830 C   0  0  0  0  0  0
  -30.4314  -12.3872   19.4589 C   0  0  0  0  0  0
  -29.5078  -12.4948   18.2253 C   0  0  0  0  0  0
  -28.0307  -12.3377   18.6368 C   0  0  0  0  0  0
  -27.6508  -13.2190   19.8569 C   0  0  2  0  0  0
  -28.6935  -13.0948   20.9900 C   0  0  0  0  0  0
  -25.2567  -13.8181   20.5668 C   0  0  0  0  0  0
  -24.1840  -13.0449   20.9187 C   0  0  0  0  0  0
  -24.6411  -11.6918   20.8747 C   0  0  0  0  0  0
  -23.9091  -10.4295   21.0422 C   0  0  0  0  0  0
  -24.3641   -9.4203   21.9193 C   0  0  0  0  0  0
  -23.6310   -8.2242   22.0762 C   0  0  0  0  0  0
  -22.4290   -8.0291   21.3551 C   0  0  0  0  0  0
  -21.9934   -9.0268   20.4647 C   0  0  0  0  0  0
  -22.7270  -10.2138   20.3059 C   0  0  0  0  0  0
  -21.6852   -6.0754   22.5286 C   0  0  0  0  0  0
  -21.4011   -6.5657   23.8224 C   0  0  0  0  0  0
  -21.3649   -5.6808   24.9178 C   0  0  0  0  0  0
  -21.6038   -4.3069   24.7222 C   0  0  0  0  0  0
  -21.8820   -3.8167   23.4346 C   0  0  0  0  0  0
  -21.9193   -4.6988   22.3403 C   0  0  0  0  0  0
  -22.7858  -13.5236   21.1851 C   0  0  0  0  0  0
  -22.1667   -4.2179   21.0978 F   0  0  0  0  0  0
  -21.5618   -3.4547   25.7733 F   0  0  0  0  0  0
  -30.0087  -13.4231   20.4227 N   0  0  0  0  0  0
  -26.2987  -12.9365   20.3285 N   0  0  0  0  0  0
  -25.9334  -11.6522   20.5748 N   0  0  0  0  0  0
  -22.0507  -12.8213   22.0399 N   0  0  0  0  0  0
  -25.4270  -15.1899   20.4057 N   0  0  0  0  0  0
  -31.7976  -14.7869   20.1083 O   0  0  0  0  0  0
  -21.6636   -6.8897   21.4251 O   0  0  0  0  0  0
  -22.3541  -14.5544   20.6706 O   0  0  0  0  0  0
  -24.6244  -31.8577   23.2013 C   0  0  0  0  0  0
  -25.9106  -32.4751   23.8328 C   0  0  1  0  0  0
  -27.2316  -27.3331   20.1283 C   0  0  0  0  0  0
  -25.5916  -33.8551   24.2233 N   0  0  0  0  0  0
  -23.4171  -30.4803   21.5434 C   0  0  2  0  0  0
  -24.8672  -28.9344   20.1108 C   0  0  0  0  0  0
  -22.7455  -29.4607   22.4943 C   0  0  0  0  0  0
  -18.0266  -28.1402   22.8459 C   0  0  0  0  0  0
  -24.1491  -36.7298   23.2641 C   0  0  0  0  0  0
  -25.9563  -30.7958   21.3684 C   0  0  0  0  0  0
  -26.0314  -29.4211   20.7169 C   0  0  0  0  0  0
  -27.2170  -28.6319   20.7152 C   0  0  0  0  0  0
  -26.0554  -26.8998   19.4799 C   0  0  0  0  0  0
  -24.8782  -27.6765   19.4835 C   0  0  0  0  0  0
  -23.6304  -29.8082   20.1602 C   0  0  0  0  0  0
  -25.4103  -36.3053   24.0328 C   0  0  1  0  0  0
  -20.5859  -28.3682   23.1295 C   0  0  2  0  0  0
  -20.6769  -26.9409   22.5419 C   0  0  0  0  0  0
  -19.5756  -26.6392   21.5212 C   0  0  0  0  0  0
  -18.1922  -26.7940   22.1608 C   0  0  0  0  0  0
  -19.1518  -28.8856   23.2874 C   0  0  0  0  0  0
  -18.9455  -30.1463   23.8884 C   0  0  0  0  0  0
  -17.6464  -30.6603   24.0547 C   0  0  0  0  0  0
  -25.9048  -34.9433   23.5076 C   0  0  0  0  0  0
  -16.5343  -29.9089   23.6352 C   0  0  0  0  0  0
  -16.7258  -28.6523   23.0340 C   0  0  0  0  0  0
  -26.4492  -31.6558   25.0698 C   0  0  0  0  0  0
  -25.3724  -31.3695   26.1431 C   0  0  0  0  0  0
  -27.0315  -30.2978   24.6154 C   0  0  0  0  0  0
  -27.6063  -32.4281   25.7454 C   0  0  0  0  0  0
  -27.5572  -37.1781   24.8459 C   0  0  0  0  0  0
  -21.4174  -29.3025   22.3691 N   0  0  0  0  0  0
  -26.4269  -37.3756   23.9420 N   0  0  0  0  0  0
  -24.6843  -31.0628   22.0941 N   0  0  0  0  0  0
  -23.4189  -28.8153   23.3023 O   0  0  0  0  0  0
  -28.3735  -26.5223   20.1387 O   0  0  0  0  0  0
  -26.5637  -34.8917   22.4656 O   0  0  0  0  0  0
  -23.5421  -32.1347   23.7386 O   0  0  0  0  0  0
  -28.0282  -21.6187   19.3785 C   0  0  0  0  0  0
  -28.9378  -22.4870   20.0395 C   0  0  0  0  0  0
  -29.0465  -19.7486   20.3337 C   0  0  0  0  0  0
  -27.4141  -22.0665   16.9579 C   0  0  0  0  0  0
  -27.0568  -24.6642   21.3462 C   0  0  0  0  0  0
  -28.2699  -18.0718   22.0885 C   0  0  0  0  0  0
  -26.9579  -22.1165   18.4213 C   0  0  0  0  0  0
  -29.0332  -24.0343   19.7348 C   0  0  0  0  0  0
  -30.1394  -17.1951   20.5253 C   0  0  0  0  0  0
  -28.3637  -25.1323   20.6714 C   0  0  1  0  0  0
  -28.9098  -18.1984   20.6973 C   0  0  2  0  0  0
  -28.0958  -20.2674   19.5328 N   0  0  0  0  0  0
  -29.8783  -21.8975   20.8405 N   0  0  0  0  0  0
  -29.9209  -20.5444   21.0019 N   0  0  0  0  0  0
  -29.8433  -15.7254   20.7585 N   0  0  0  0  0  0
  -27.9975  -17.6698   19.8694 F   0  0  0  0  0  0
  -31.4766  -12.4979   19.1642 H   0  0  0  0  0  0
  -30.3537  -11.3976   19.9116 H   0  0  0  0  0  0
  -29.7724  -11.7330   17.4914 H   0  0  0  0  0  0
  -29.6533  -13.4568   17.7313 H   0  0  0  0  0  0
  -27.8703  -11.2859   18.8802 H   0  0  0  0  0  0
  -27.3772  -12.5567   17.7917 H   0  0  0  0  0  0
  -27.6628  -14.2492   19.5029 H   0  0  0  0  0  0
  -28.6998  -12.0828   21.3960 H   0  0  0  0  0  0
  -28.4413  -13.7507   21.8246 H   0  0  0  0  0  0
  -25.2794   -9.5672   22.4767 H   0  0  0  0  0  0
  -24.0023   -7.4628   22.7477 H   0  0  0  0  0  0
  -21.0870   -8.8785   19.8949 H   0  0  0  0  0  0
  -22.3745  -10.9681   19.6161 H   0  0  0  0  0  0
  -21.2007   -7.6168   23.9733 H   0  0  0  0  0  0
  -21.1464   -6.0535   25.9081 H   0  0  0  0  0  0
  -22.0607   -2.7636   23.2831 H   0  0  0  0  0  0
  -22.4140  -11.9869   22.4772 H   0  0  0  0  0  0
  -21.1119  -13.1212   22.2598 H   0  0  0  0  0  0
  -24.6537  -15.8392   20.5007 H   0  0  0  0  0  0
  -26.2647  -15.6289   20.0473 H   0  0  0  0  0  0
  -26.7168  -32.5433   23.1079 H   0  0  0  0  0  0
  -25.0026  -33.9689   25.0346 H   0  0  0  0  0  0
  -22.7115  -31.3009   21.3971 H   0  0  0  0  0  0
  -23.3745  -35.9641   23.3270 H   0  0  0  0  0  0
  -24.3596  -36.8963   22.2066 H   0  0  0  0  0  0
  -23.7269  -37.6497   23.6690 H   0  0  0  0  0  0
  -26.0848  -31.5531   20.5939 H   0  0  0  0  0  0
  -26.8401  -30.8486   21.9917 H   0  0  0  0  0  0
  -28.1132  -29.0020   21.1943 H   0  0  0  0  0  0
  -26.0418  -25.9463   18.9754 H   0  0  0  0  0  0
  -23.9882  -27.3012   18.9992 H   0  0  0  0  0  0
  -23.7386  -30.5802   19.3982 H   0  0  0  0  0  0
  -22.7545  -29.2271   19.8645 H   0  0  0  0  0  0
  -25.1276  -36.1882   25.0821 H   0  0  0  0  0  0
  -20.9929  -28.3270   24.1424 H   0  0  0  0  0  0
  -20.5684  -26.2284   23.3613 H   0  0  0  0  0  0
  -21.6645  -26.7479   22.1193 H   0  0  0  0  0  0
  -19.6934  -25.6304   21.1245 H   0  0  0  0  0  0
  -19.6721  -27.3213   20.6753 H   0  0  0  0  0  0
  -17.4192  -26.6676   21.4002 H   0  0  0  0  0  0
  -18.0329  -26.0090   22.9017 H   0  0  0  0  0  0
  -19.7939  -30.7269   24.2257 H   0  0  0  0  0  0
  -17.5021  -31.6282   24.5156 H   0  0  0  0  0  0
  -15.5343  -30.2976   23.7723 H   0  0  0  0  0  0
  -15.8656  -28.0852   22.7051 H   0  0  0  0  0  0
  -24.5936  -30.7001   25.7771 H   0  0  0  0  0  0
  -24.8873  -32.2845   26.4830 H   0  0  0  0  0  0
  -25.8057  -30.8903   27.0219 H   0  0  0  0  0  0
  -26.2866  -29.6733   24.1218 H   0  0  0  0  0  0
  -27.4036  -29.7250   25.4658 H   0  0  0  0  0  0
  -27.8721  -30.4250   23.9335 H   0  0  0  0  0  0
  -27.2719  -33.3637   26.1950 H   0  0  0  0  0  0
  -28.3907  -32.6743   25.0280 H   0  0  0  0  0  0
  -28.0666  -31.8425   26.5423 H   0  0  0  0  0  0
  -28.2545  -38.0113   24.7528 H   0  0  0  0  0  0
  -28.1094  -36.2645   24.6216 H   0  0  0  0  0  0
  -27.2304  -37.1358   25.8862 H   0  0  0  0  0  0
  -20.9364  -29.8704   21.6849 H   0  0  0  0  0  0
  -26.0141  -38.2826   24.1432 H   0  0  0  0  0  0
  -26.6198  -22.4063   16.2941 H   0  0  0  0  0  0
  -27.6849  -21.0525   16.6623 H   0  0  0  0  0  0
  -28.2814  -22.7051   16.7903 H   0  0  0  0  0  0
  -27.2145  -23.7447   21.9088 H   0  0  0  0  0  0
  -26.2646  -24.4643   20.6282 H   0  0  0  0  0  0
  -26.6921  -25.4070   22.0575 H   0  0  0  0  0  0
  -28.9357  -18.4724   22.8514 H   0  0  0  0  0  0
  -28.0438  -17.0380   22.3432 H   0  0  0  0  0  0
  -27.3361  -18.6354   22.1354 H   0  0  0  0  0  0
  -26.6551  -23.1290   18.6844 H   0  0  0  0  0  0
  -26.0655  -21.5024   18.5440 H   0  0  0  0  0  0
  -28.6696  -24.1989   18.7224 H   0  0  0  0  0  0
  -30.0951  -24.2713   19.6618 H   0  0  0  0  0  0
  -30.9486  -17.4996   21.1892 H   0  0  0  0  0  0
  -30.5273  -17.2976   19.5111 H   0  0  0  0  0  0
  -29.0520  -25.2059   21.5142 H   0  0  0  0  0  0
  -28.8975  -15.5103   21.0330 H   0  0  0  0  0  0
  1 25  1  0  0  0
  1 30  2  0  0  0
  1 85  1  0  0  0
  2  3  1  0  0  0
  2 25  1  0  0  0
  2 87  1  0  0  0
  2 88  1  0  0  0
  3  4  1  0  0  0
  3 89  1  0  0  0
  3 90  1  0  0  0
  4  5  1  0  0  0
  4 91  1  0  0  0
  4 92  1  0  0  0
  5  6  1  0  0  0
  5 26  1  0  0  0
  5 93  1  0  0  0
  6 25  1  0  0  0
  6 94  1  0  0  0
  6 95  1  0  0  0
  7  8  2  0  0  0
  7 26  1  0  0  0
  7 29  1  0  0  0
  8  9  1  0  0  0
  8 22  1  0  0  0
  9 10  1  0  0  0
  9 27  2  0  0  0
 10 11  2  0  0  0
 10 15  1  0  0  0
 11 12  1  0  0  0
 11 96  1  0  0  0
 12 13  2  0  0  0
 12 97  1  0  0  0
 13 14  1  0  0  0
 13 31  1  0  0  0
 14 15  2  0  0  0
 14 98  1  0  0  0
 15 99  1  0  0  0
 16 17  2  0  0  0
 16 21  1  0  0  0
 16 31  1  0  0  0
 17 18  1  0  0  0
 17100  1  0  0  0
 18 19  2  0  0  0
 18101  1  0  0  0
 19 20  1  0  0  0
 19 24  1  0  0  0
 20 21  2  0  0  0
 20102  1  0  0  0
 21 23  1  0  0  0
 22 28  1  0  0  0
 22 32  2  0  0  0
 26 27  1  0  0  0
 28103  1  0  0  0
 28104  1  0  0  0
 29105  1  0  0  0
 29106  1  0  0  0
 33 34  1  0  0  0
 33 66  1  0  0  0
 33 70  2  0  0  0
 34 36  1  0  0  0
 34 59  1  0  0  0
 34107  1  0  0  0
 35 44  2  0  0  0
 35 45  1  0  0  0
 35 68  1  0  0  0
 36 56  1  0  0  0
 36108  1  0  0  0
 37 39  1  0  0  0
 37 47  1  0  0  0
 37 66  1  0  0  0
 37109  1  0  0  0
 38 43  2  0  0  0
 38 46  1  0  0  0
 38 47  1  0  0  0
 39 64  1  0  0  0
 39 67  2  0  0  0
 40 52  1  0  0  0
 40 53  2  0  0  0
 40 58  1  0  0  0
 41110  1  0  0  0
 41111  1  0  0  0
 41112  1  0  0  0
 41 48  1  0  0  0
 42 43  1  0  0  0
 42 66  1  0  0  0
 42113  1  0  0  0
 42114  1  0  0  0
 43 44  1  0  0  0
 44115  1  0  0  0
 45 46  2  0  0  0
 45116  1  0  0  0
 46117  1  0  0  0
 47118  1  0  0  0
 47119  1  0  0  0
 48 56  1  0  0  0
 48 65  1  0  0  0
 48120  1  0  0  0
 49 50  1  0  0  0
 49 53  1  0  0  0
 49 64  1  0  0  0
 49121  1  0  0  0
 50 51  1  0  0  0
 50122  1  0  0  0
 50123  1  0  0  0
 51 52  1  0  0  0
 51124  1  0  0  0
 51125  1  0  0  0
 52126  1  0  0  0
 52127  1  0  0  0
 53 54  1  0  0  0
 54 55  2  0  0  0
 54128  1  0  0  0
 55 57  1  0  0  0
 55129  1  0  0  0
 56 69  2  0  0  0
 57 58  2  0  0  0
 57130  1  0  0  0
 58131  1  0  0  0
 59 60  1  0  0  0
 59 61  1  0  0  0
 59 62  1  0  0  0
 60132  1  0  0  0
 60133  1  0  0  0
 60134  1  0  0  0
 61135  1  0  0  0
 61136  1  0  0  0
 61137  1  0  0  0
 62138  1  0  0  0
 62139  1  0  0  0
 62140  1  0  0  0
 63 65  1  0  0  0
 63141  1  0  0  0
 63142  1  0  0  0
 63143  1  0  0  0
 64144  1  0  0  0
 65145  1  0  0  0
 68 80  1  0  0  0
 71 72  2  0  0  0
 71 77  1  0  0  0
 71 82  1  0  0  0
 72 78  1  0  0  0
 72 83  1  0  0  0
 73 81  1  0  0  0
 73 82  2  0  0  0
 73 84  1  0  0  0
 74 77  1  0  0  0
 74146  1  0  0  0
 74147  1  0  0  0
 74148  1  0  0  0
 75149  1  0  0  0
 75150  1  0  0  0
 75151  1  0  0  0
 75 80  1  0  0  0
 76152  1  0  0  0
 76153  1  0  0  0
 76154  1  0  0  0
 76 81  1  0  0  0
 77155  1  0  0  0
 77156  1  0  0  0
 78 80  1  0  0  0
 78157  1  0  0  0
 78158  1  0  0  0
 79 81  1  0  0  0
 79 85  1  0  0  0
 79159  1  0  0  0
 79160  1  0  0  0
 80161  1  0  0  0
 81 86  1  0  0  0
 83 84  2  0  0  0
 85162  1  0  0  0
M  ISO  4   1 100  68 101  80 101  85 100
M  END
> <chiral flag>
0

> <version>
0

> <s_m_source_file>
/data/baiqing/PycharmProjects/Reinvent-master-3.2/result/LINK_invent/BTK/process_docking_weight1_custom_sum_contain_oxygen_bond_distance_aromatic_linkinvent_7_9_3/rearranged_h_0070.sdf

> <i_m_source_file_index>
35

> <r_mmod_Potential_Energy-OPLS-2005>
44.0384254455566

> <r_mmod_Stretch_Energy-OPLS-2005>
90.8174591064453

> <r_mmod_Bend_Energy-OPLS-2005>
159.864730834961

> <r_mmod_Torsional_Energy-OPLS-2005>
201.828048706055

> <r_mmod_Improper_Torsional_Energy-OPLS-2005>
7.78474903106689

> <r_mmod_Van_der_Waal_Energy-OPLS-2005>
142.546920776367

> <r_mmod_Electrostatic_Energy-OPLS-2005>
-381.541900634766

> <r_mmod_Solvation_Energy-OPLS-2005>
-221.979446411133

> <b_mmod_Minimization_Converged-OPLS-2005>
0

> <r_mmod_RMS_Derivative-OPLS-2005>
2.3345901966095

$$$$
35
                    3D
 Structure written by MMmdl.
166174  0  0  1  0            999 V2000
  -30.6620  -14.5276   20.6368 C   0  0  0  0  0  0
  -30.4363  -12.3657   19.4084 C   0  0  0  0  0  0
  -29.4916  -12.5295   18.1982 C   0  0  0  0  0  0
  -28.0138  -12.3694   18.6133 C   0  0  0  0  0  0
  -27.6606  -13.1963   19.8762 C   0  0  2  0  0  0
  -28.7057  -12.9467   20.9854 C   0  0  0  0  0  0
  -25.2603  -13.8119   20.5698 C   0  0  0  0  0  0
  -24.1837  -13.0415   20.9167 C   0  0  0  0  0  0
  -24.6383  -11.6874   20.8735 C   0  0  0  0  0  0
  -23.9047  -10.4277   21.0415 C   0  0  0  0  0  0
  -24.3604   -9.4189   21.9188 C   0  0  0  0  0  0
  -23.6278   -8.2227   22.0760 C   0  0  0  0  0  0
  -22.4256   -8.0280   21.3550 C   0  0  0  0  0  0
  -21.9894   -9.0251   20.4642 C   0  0  0  0  0  0
  -22.7230  -10.2124   20.3058 C   0  0  0  0  0  0
  -21.6841   -6.0728   22.5276 C   0  0  0  0  0  0
  -21.4009   -6.5642   23.8207 C   0  0  0  0  0  0
  -21.3662   -5.6807   24.9179 C   0  0  0  0  0  0
  -21.6048   -4.3070   24.7235 C   0  0  0  0  0  0
  -21.8822   -3.8150   23.4362 C   0  0  0  0  0  0
  -21.9188   -4.6955   22.3411 C   0  0  0  0  0  0
  -22.7859  -13.5211   21.1858 C   0  0  0  0  0  0
  -22.1657   -4.2133   21.0991 F   0  0  0  0  0  0
  -21.5634   -3.4562   25.7750 F   0  0  0  0  0  0
  -30.0216  -13.3300   20.4460 N   0  0  0  0  0  0
  -26.3023  -12.9267   20.3387 N   0  0  0  0  0  0
  -25.9309  -11.6433   20.5762 N   0  0  0  0  0  0
  -22.0508  -12.8186   22.0405 N   0  0  0  0  0  0
  -25.4372  -15.1836   20.4171 N   0  0  0  0  0  0
  -31.7442  -14.7480   20.0818 O   0  0  0  0  0  0
  -21.6629   -6.8873   21.4239 O   0  0  0  0  0  0
  -22.3534  -14.5524   20.6721 O   0  0  0  0  0  0
  -24.6180  -31.8649   23.2074 C   0  0  0  0  0  0
  -25.9060  -32.4805   23.8372 C   0  0  1  0  0  0
  -27.2359  -27.4016   20.0892 C   0  0  0  0  0  0
  -25.5900  -33.8611   24.2303 N   0  0  0  0  0  0
  -23.4060  -30.4882   21.5496 C   0  0  2  0  0  0
  -24.8505  -28.9473   20.1139 C   0  0  0  0  0  0
  -22.7415  -29.4648   22.4985 C   0  0  0  0  0  0
  -18.0273  -28.1381   22.8501 C   0  0  0  0  0  0
  -24.1487  -36.7315   23.2633 C   0  0  0  0  0  0
  -25.9373  -30.8188   21.3646 C   0  0  0  0  0  0
  -26.0118  -29.4503   20.7111 C   0  0  0  0  0  0
  -27.2023  -28.6829   20.6980 C   0  0  0  0  0  0
  -26.0457  -26.9127   19.5018 C   0  0  0  0  0  0
  -24.8633  -27.6789   19.5091 C   0  0  0  0  0  0
  -23.6150  -29.8202   20.1641 C   0  0  0  0  0  0
  -25.4109  -36.3106   24.0331 C   0  0  1  0  0  0
  -20.5861  -28.3678   23.1321 C   0  0  2  0  0  0
  -20.6763  -26.9410   22.5432 C   0  0  0  0  0  0
  -19.5745  -26.6386   21.5221 C   0  0  0  0  0  0
  -18.1918  -26.7930   22.1621 C   0  0  0  0  0  0
  -19.1522  -28.8844   23.2905 C   0  0  0  0  0  0
  -18.9447  -30.1449   23.8917 C   0  0  0  0  0  0
  -17.6449  -30.6589   24.0573 C   0  0  0  0  0  0
  -25.9040  -34.9473   23.5118 C   0  0  0  0  0  0
  -16.5341  -29.9096   23.6323 C   0  0  0  0  0  0
  -16.7263  -28.6509   23.0355 C   0  0  0  0  0  0
  -26.4471  -31.6597   25.0718 C   0  0  0  0  0  0
  -25.3721  -31.3712   26.1456 C   0  0  0  0  0  0
  -27.0305  -30.3033   24.6121 C   0  0  0  0  0  0
  -27.6049  -32.4316   25.7479 C   0  0  0  0  0  0
  -27.5594  -37.1794   24.8446 C   0  0  0  0  0  0
  -21.4134  -29.3032   22.3716 N   0  0  0  0  0  0
  -26.4283  -37.3804   23.9421 N   0  0  0  0  0  0
  -24.6724  -31.0720   22.0990 N   0  0  0  0  0  0
  -23.4170  -28.8194   23.3047 O   0  0  0  0  0  0
  -28.4198  -26.6777   20.1223 O   0  0  0  0  0  0
  -26.5616  -34.8927   22.4688 O   0  0  0  0  0  0
  -23.5364  -32.1428   23.7445 O   0  0  0  0  0  0
  -30.7300  -21.3488   20.2542 C   0  0  0  0  0  0
  -28.9739  -20.2577   19.5869 C   0  0  0  0  0  0
  -29.4508  -21.5524   19.6474 C   0  0  0  0  0  0
  -29.6614  -24.1633   21.1861 C   0  0  0  0  0  0
  -27.4721  -22.5345   18.4273 C   0  0  0  0  0  0
  -29.7972  -23.2121   17.8724 C   0  0  0  0  0  0
  -30.3220  -15.2588   23.0229 C   0  0  0  0  0  0
  -29.9212  -17.8891   20.0533 C   0  0  0  0  0  0
  -28.6305  -25.5113   19.2912 C   0  0  0  0  0  0
  -28.6632  -24.1106   20.0167 C   0  0  1  0  0  0
  -28.8520  -22.8556   19.0422 C   0  0  0  0  0  0
  -30.0383  -15.6537   21.5563 C   0  0  1  0  0  0
  -30.4702  -17.1628   21.3274 C   0  0  0  0  0  0
  -31.0168  -20.0705   20.4893 N   0  0  0  0  0  0
  -29.9311  -19.3754   20.0775 N   0  0  0  0  0  0
  -28.7128  -15.6802   21.3912 F   0  0  0  0  0  0
  -30.0041  -17.8556   22.3728 F   0  0  0  0  0  0
  -31.8019  -17.2601   21.3441 F   0  0  0  0  0  0
  -31.4722  -12.5067   19.0967 H   0  0  0  0  0  0
  -30.3866  -11.3494   19.8005 H   0  0  0  0  0  0
  -29.7413  -11.8047   17.4215 H   0  0  0  0  0  0
  -29.6407  -13.5154   17.7551 H   0  0  0  0  0  0
  -27.8334  -11.3096   18.8022 H   0  0  0  0  0  0
  -27.3578  -12.6478   17.7869 H   0  0  0  0  0  0
  -27.7077  -14.2454   19.5863 H   0  0  0  0  0  0
  -28.7146  -11.8904   21.2579 H   0  0  0  0  0  0
  -28.4370  -13.4590   21.9065 H   0  0  0  0  0  0
  -25.2745   -9.5652   22.4766 H   0  0  0  0  0  0
  -23.9973   -7.4619   22.7486 H   0  0  0  0  0  0
  -21.0825   -8.8785   19.8943 H   0  0  0  0  0  0
  -22.3703  -10.9675   19.6179 H   0  0  0  0  0  0
  -21.2007   -7.6150   23.9692 H   0  0  0  0  0  0
  -21.1488   -6.0555   25.9076 H   0  0  0  0  0  0
  -22.0602   -2.7604   23.2886 H   0  0  0  0  0  0
  -22.4138  -11.9846   22.4774 H   0  0  0  0  0  0
  -21.1130  -13.1206   22.2628 H   0  0  0  0  0  0
  -24.6910  -15.8518   20.5728 H   0  0  0  0  0  0
  -26.3280  -15.6202   20.2168 H   0  0  0  0  0  0
  -26.7129  -32.5504   23.1130 H   0  0  0  0  0  0
  -25.0024  -33.9771   25.0433 H   0  0  0  0  0  0
  -22.6965  -31.3066   21.4106 H   0  0  0  0  0  0
  -23.3765  -35.9625   23.3256 H   0  0  0  0  0  0
  -24.3588  -36.8989   22.2057 H   0  0  0  0  0  0
  -23.7211  -37.6490   23.6691 H   0  0  0  0  0  0
  -26.0528  -31.5843   20.5951 H   0  0  0  0  0  0
  -26.8242  -30.8723   21.9846 H   0  0  0  0  0  0
  -28.1003  -29.0690   21.1602 H   0  0  0  0  0  0
  -25.9985  -25.9322   19.0526 H   0  0  0  0  0  0
  -23.9656  -27.2804   19.0565 H   0  0  0  0  0  0
  -23.7271  -30.5967   19.4062 H   0  0  0  0  0  0
  -22.7355  -29.2451   19.8673 H   0  0  0  0  0  0
  -25.1275  -36.1964   25.0824 H   0  0  0  0  0  0
  -20.9955  -28.3266   24.1440 H   0  0  0  0  0  0
  -20.5676  -26.2283   23.3621 H   0  0  0  0  0  0
  -21.6639  -26.7455   22.1234 H   0  0  0  0  0  0
  -19.6908  -25.6305   21.1238 H   0  0  0  0  0  0
  -19.6685  -27.3204   20.6760 H   0  0  0  0  0  0
  -17.4197  -26.6716   21.4009 H   0  0  0  0  0  0
  -18.0287  -26.0060   22.8999 H   0  0  0  0  0  0
  -19.7921  -30.7256   24.2306 H   0  0  0  0  0  0
  -17.5007  -31.6271   24.5183 H   0  0  0  0  0  0
  -15.5345  -30.3008   23.7627 H   0  0  0  0  0  0
  -15.8666  -28.0828   22.7061 H   0  0  0  0  0  0
  -24.5907  -30.7046   25.7790 H   0  0  0  0  0  0
  -24.8886  -32.2864   26.4882 H   0  0  0  0  0  0
  -25.8063  -30.8896   27.0228 H   0  0  0  0  0  0
  -26.2858  -29.6785   24.1172 H   0  0  0  0  0  0
  -27.4059  -29.7284   25.4599 H   0  0  0  0  0  0
  -27.8703  -30.4342   23.9290 H   0  0  0  0  0  0
  -27.2680  -33.3617   26.2070 H   0  0  0  0  0  0
  -28.3846  -32.6873   25.0293 H   0  0  0  0  0  0
  -28.0727  -31.8424   26.5377 H   0  0  0  0  0  0
  -28.2561  -38.0145   24.7587 H   0  0  0  0  0  0
  -28.1146  -36.2685   24.6151 H   0  0  0  0  0  0
  -27.2328  -37.1304   25.8847 H   0  0  0  0  0  0
  -20.9293  -29.8759   21.6941 H   0  0  0  0  0  0
  -26.0171  -38.2867   24.1486 H   0  0  0  0  0  0
  -31.4884  -22.0863   20.4738 H   0  0  0  0  0  0
  -28.0525  -19.8782   19.1673 H   0  0  0  0  0  0
  -29.4566  -25.0171   21.8333 H   0  0  0  0  0  0
  -30.6867  -24.2635   20.8319 H   0  0  0  0  0  0
  -29.5913  -23.2768   21.8159 H   0  0  0  0  0  0
  -27.5398  -21.7622   17.6599 H   0  0  0  0  0  0
  -27.0265  -23.4087   17.9522 H   0  0  0  0  0  0
  -26.7681  -22.1859   19.1853 H   0  0  0  0  0  0
  -29.9480  -22.3565   17.2131 H   0  0  0  0  0  0
  -30.7799  -23.5206   18.2310 H   0  0  0  0  0  0
  -29.4061  -24.0109   17.2428 H   0  0  0  0  0  0
  -29.7241  -15.8470   23.7184 H   0  0  0  0  0  0
  -31.3709  -15.4243   23.2694 H   0  0  0  0  0  0
  -30.1039  -14.2112   23.2271 H   0  0  0  0  0  0
  -28.8879  -17.5885   19.8856 H   0  0  0  0  0  0
  -30.4730  -17.5588   19.1731 H   0  0  0  0  0  0
  -27.9651  -25.4938   18.4306 H   0  0  0  0  0  0
  -29.6152  -25.6836   18.8569 H   0  0  0  0  0  0
  -27.6911  -23.9920   20.4979 H   0  0  0  0  0  0
  1 25  1  0  0  0
  1 30  2  0  0  0
  1 82  1  0  0  0
  2  3  1  0  0  0
  2 25  1  0  0  0
  2 89  1  0  0  0
  2 90  1  0  0  0
  3  4  1  0  0  0
  3 91  1  0  0  0
  3 92  1  0  0  0
  4  5  1  0  0  0
  4 93  1  0  0  0
  4 94  1  0  0  0
  5  6  1  0  0  0
  5 26  1  0  0  0
  5 95  1  0  0  0
  6 25  1  0  0  0
  6 96  1  0  0  0
  6 97  1  0  0  0
  7  8  2  0  0  0
  7 26  1  0  0  0
  7 29  1  0  0  0
  8  9  1  0  0  0
  8 22  1  0  0  0
  9 10  1  0  0  0
  9 27  2  0  0  0
 10 11  2  0  0  0
 10 15  1  0  0  0
 11 12  1  0  0  0
 11 98  1  0  0  0
 12 13  2  0  0  0
 12 99  1  0  0  0
 13 14  1  0  0  0
 13 31  1  0  0  0
 14 15  2  0  0  0
 14100  1  0  0  0
 15101  1  0  0  0
 16 17  2  0  0  0
 16 21  1  0  0  0
 16 31  1  0  0  0
 17 18  1  0  0  0
 17102  1  0  0  0
 18 19  2  0  0  0
 18103  1  0  0  0
 19 20  1  0  0  0
 19 24  1  0  0  0
 20 21  2  0  0  0
 20104  1  0  0  0
 21 23  1  0  0  0
 22 28  1  0  0  0
 22 32  2  0  0  0
 26 27  1  0  0  0
 28105  1  0  0  0
 28106  1  0  0  0
 29107  1  0  0  0
 29108  1  0  0  0
 33 34  1  0  0  0
 33 66  1  0  0  0
 33 70  2  0  0  0
 34 36  1  0  0  0
 34 59  1  0  0  0
 34109  1  0  0  0
 35 44  2  0  0  0
 35 45  1  0  0  0
 35 68  1  0  0  0
 36 56  1  0  0  0
 36110  1  0  0  0
 37 39  1  0  0  0
 37 47  1  0  0  0
 37 66  1  0  0  0
 37111  1  0  0  0
 38 43  2  0  0  0
 38 46  1  0  0  0
 38 47  1  0  0  0
 39 64  1  0  0  0
 39 67  2  0  0  0
 40 52  1  0  0  0
 40 53  2  0  0  0
 40 58  1  0  0  0
 41112  1  0  0  0
 41113  1  0  0  0
 41114  1  0  0  0
 41 48  1  0  0  0
 42 43  1  0  0  0
 42 66  1  0  0  0
 42115  1  0  0  0
 42116  1  0  0  0
 43 44  1  0  0  0
 44117  1  0  0  0
 45 46  2  0  0  0
 45118  1  0  0  0
 46119  1  0  0  0
 47120  1  0  0  0
 47121  1  0  0  0
 48 56  1  0  0  0
 48 65  1  0  0  0
 48122  1  0  0  0
 49 50  1  0  0  0
 49 53  1  0  0  0
 49 64  1  0  0  0
 49123  1  0  0  0
 50 51  1  0  0  0
 50124  1  0  0  0
 50125  1  0  0  0
 51 52  1  0  0  0
 51126  1  0  0  0
 51127  1  0  0  0
 52128  1  0  0  0
 52129  1  0  0  0
 53 54  1  0  0  0
 54 55  2  0  0  0
 54130  1  0  0  0
 55 57  1  0  0  0
 55131  1  0  0  0
 56 69  2  0  0  0
 57 58  2  0  0  0
 57132  1  0  0  0
 58133  1  0  0  0
 59 60  1  0  0  0
 59 61  1  0  0  0
 59 62  1  0  0  0
 60134  1  0  0  0
 60135  1  0  0  0
 60136  1  0  0  0
 61137  1  0  0  0
 61138  1  0  0  0
 61139  1  0  0  0
 62140  1  0  0  0
 62141  1  0  0  0
 62142  1  0  0  0
 63 65  1  0  0  0
 63143  1  0  0  0
 63144  1  0  0  0
 63145  1  0  0  0
 64146  1  0  0  0
 65147  1  0  0  0
 68 79  1  0  0  0
 71 73  1  0  0  0
 71 84  2  0  0  0
 71148  1  0  0  0
 72 73  2  0  0  0
 72 85  1  0  0  0
 72149  1  0  0  0
 73 81  1  0  0  0
 74150  1  0  0  0
 74151  1  0  0  0
 74152  1  0  0  0
 74 80  1  0  0  0
 75153  1  0  0  0
 75154  1  0  0  0
 75155  1  0  0  0
 75 81  1  0  0  0
 76 81  1  0  0  0
 76156  1  0  0  0
 76157  1  0  0  0
 76158  1  0  0  0
 77159  1  0  0  0
 77160  1  0  0  0
 77161  1  0  0  0
 77 82  1  0  0  0
 78 83  1  0  0  0
 78 85  1  0  0  0
 78162  1  0  0  0
 78163  1  0  0  0
 79 80  1  0  0  0
 79164  1  0  0  0
 79165  1  0  0  0
 80 81  1  0  0  0
 80166  1  0  0  0
 82 83  1  0  0  0
 82 86  1  0  0  0
 83 87  1  0  0  0
 83 88  1  0  0  0
 84 85  1  0  0  0
M  ISO  4   1 100  68 101  79 101  82 100
M  END
> <chiral flag>
0

> <version>
0

> <s_m_source_file>
/data/baiqing/PycharmProjects/Reinvent-master-3.2/result/LINK_invent/BTK/process_docking_weight1_custom_sum_contain_oxygen_bond_distance_aromatic_linkinvent_7_9_3/rearranged_h_0070.sdf

> <i_m_source_file_index>
36

> <r_mmod_Potential_Energy-OPLS-2005>
95.2515716552734

> <r_mmod_Stretch_Energy-OPLS-2005>
61.4094161987305

> <r_mmod_Bend_Energy-OPLS-2005>
139.280899047852

> <r_mmod_Torsional_Energy-OPLS-2005>
185.608657836914

> <r_mmod_Improper_Torsional_Energy-OPLS-2005>
3.08354139328003

> <r_mmod_Van_der_Waal_Energy-OPLS-2005>
144.413726806641

> <r_mmod_Electrostatic_Energy-OPLS-2005>
-264.953674316406

> <r_mmod_Solvation_Energy-OPLS-2005>
-192.213470458984

> <b_mmod_Minimization_Converged-OPLS-2005>
0

> <r_mmod_RMS_Derivative-OPLS-2005>
1.64932262897491

$$$$
36
                    3D
 Structure written by MMmdl.
169177  0  0  1  0            999 V2000
  -30.6943  -14.4729   20.5608 C   0  0  0  0  0  0
  -30.4246  -12.3007   19.4293 C   0  0  0  0  0  0
  -29.5003  -12.5100   18.2114 C   0  0  0  0  0  0
  -28.0193  -12.3721   18.6188 C   0  0  0  0  0  0
  -27.6649  -13.2069   19.8792 C   0  0  2  0  0  0
  -28.7058  -12.9838   21.0014 C   0  0  0  0  0  0
  -25.2605  -13.8162   20.5692 C   0  0  0  0  0  0
  -24.1845  -13.0442   20.9173 C   0  0  0  0  0  0
  -24.6392  -11.6907   20.8727 C   0  0  0  0  0  0
  -23.9052  -10.4295   21.0401 C   0  0  0  0  0  0
  -24.3604   -9.4210   21.9180 C   0  0  0  0  0  0
  -23.6285   -8.2246   22.0754 C   0  0  0  0  0  0
  -22.4268   -8.0283   21.3542 C   0  0  0  0  0  0
  -21.9898   -9.0254   20.4647 C   0  0  0  0  0  0
  -22.7223  -10.2136   20.3053 C   0  0  0  0  0  0
  -21.6849   -6.0734   22.5279 C   0  0  0  0  0  0
  -21.4015   -6.5634   23.8214 C   0  0  0  0  0  0
  -21.3661   -5.6784   24.9175 C   0  0  0  0  0  0
  -21.6044   -4.3046   24.7221 C   0  0  0  0  0  0
  -21.8817   -3.8139   23.4339 C   0  0  0  0  0  0
  -21.9190   -4.6960   22.3401 C   0  0  0  0  0  0
  -22.7866  -13.5249   21.1828 C   0  0  0  0  0  0
  -22.1661   -4.2148   21.0976 F   0  0  0  0  0  0
  -21.5630   -3.4531   25.7733 F   0  0  0  0  0  0
  -30.0395  -13.2855   20.4529 N   0  0  0  0  0  0
  -26.3040  -12.9330   20.3373 N   0  0  0  0  0  0
  -25.9318  -11.6487   20.5750 N   0  0  0  0  0  0
  -22.0489  -12.8262   22.0385 N   0  0  0  0  0  0
  -25.4337  -15.1880   20.4126 N   0  0  0  0  0  0
  -31.8174  -14.6667   20.0882 O   0  0  0  0  0  0
  -21.6633   -6.8877   21.4243 O   0  0  0  0  0  0
  -22.3554  -14.5548   20.6659 O   0  0  0  0  0  0
  -24.6152  -31.8679   23.2106 C   0  0  0  0  0  0
  -25.9048  -32.4819   23.8400 C   0  0  1  0  0  0
  -27.2337  -27.4249   20.0914 C   0  0  0  0  0  0
  -25.5907  -33.8620   24.2329 N   0  0  0  0  0  0
  -23.4029  -30.4932   21.5510 C   0  0  2  0  0  0
  -24.8481  -28.9601   20.1136 C   0  0  0  0  0  0
  -22.7412  -29.4664   22.4983 C   0  0  0  0  0  0
  -18.0273  -28.1377   22.8491 C   0  0  0  0  0  0
  -24.1487  -36.7315   23.2639 C   0  0  0  0  0  0
  -25.9337  -30.8291   21.3668 C   0  0  0  0  0  0
  -26.0084  -29.4635   20.7129 C   0  0  0  0  0  0
  -27.2007  -28.7018   20.7019 C   0  0  0  0  0  0
  -26.0506  -26.9454   19.4768 C   0  0  0  0  0  0
  -24.8642  -27.6999   19.4948 C   0  0  0  0  0  0
  -23.6115  -29.8280   20.1645 C   0  0  0  0  0  0
  -25.4105  -36.3110   24.0341 C   0  0  1  0  0  0
  -20.5865  -28.3665   23.1316 C   0  0  2  0  0  0
  -20.6762  -26.9402   22.5416 C   0  0  0  0  0  0
  -19.5743  -26.6386   21.5210 C   0  0  0  0  0  0
  -18.1921  -26.7926   22.1621 C   0  0  0  0  0  0
  -19.1523  -28.8837   23.2902 C   0  0  0  0  0  0
  -18.9450  -30.1443   23.8911 C   0  0  0  0  0  0
  -17.6454  -30.6585   24.0563 C   0  0  0  0  0  0
  -25.9033  -34.9475   23.5128 C   0  0  0  0  0  0
  -16.5344  -29.9090   23.6324 C   0  0  0  0  0  0
  -16.7262  -28.6505   23.0347 C   0  0  0  0  0  0
  -26.4473  -31.6602   25.0732 C   0  0  0  0  0  0
  -25.3744  -31.3725   26.1487 C   0  0  0  0  0  0
  -27.0295  -30.3039   24.6115 C   0  0  0  0  0  0
  -27.6047  -32.4324   25.7493 C   0  0  0  0  0  0
  -27.5581  -37.1813   24.8463 C   0  0  0  0  0  0
  -21.4138  -29.3036   22.3725 N   0  0  0  0  0  0
  -26.4293  -37.3791   23.9409 N   0  0  0  0  0  0
  -24.6689  -31.0780   22.1009 N   0  0  0  0  0  0
  -23.4182  -28.8199   23.3022 O   0  0  0  0  0  0
  -28.4097  -26.6931   20.1260 O   0  0  0  0  0  0
  -26.5590  -34.8928   22.4686 O   0  0  0  0  0  0
  -23.5343  -32.1436   23.7496 O   0  0  0  0  0  0
  -29.7751  -21.8767   20.1096 C   0  0  0  0  0  0
  -30.9025  -21.2815   20.7180 C   0  0  0  0  0  0
  -28.5927  -21.1041   20.1548 C   0  0  0  0  0  0
  -29.6903  -19.3959   21.2599 C   0  0  0  0  0  0
  -32.2510  -21.9742   20.7820 C   0  0  0  0  0  0
  -26.3498  -22.1263   20.7411 C   0  0  0  0  0  0
  -28.2166  -17.5511   22.2231 C   0  0  0  0  0  0
  -30.5236  -17.8063   23.0674 C   0  0  0  0  0  0
  -29.8763  -23.2187   19.3547 C   0  0  0  0  0  0
  -27.2466  -21.5771   19.6234 C   0  0  0  0  0  0
  -29.6078  -24.5185   20.1631 C   0  0  0  0  0  0
  -30.1767  -16.9242   20.7191 C   0  0  0  0  0  0
  -28.3825  -25.3281   19.6751 C   0  0  0  0  0  0
  -29.6576  -17.9299   21.7941 C   0  0  0  0  0  0
  -30.8518  -20.0482   21.2647 N   0  0  0  0  0  0
  -28.5775  -19.8772   20.7106 N   0  0  0  0  0  0
  -29.9550  -15.4936   21.0313 N   0  0  0  0  0  0
  -31.4710  -12.3926   19.1331 H   0  0  0  0  0  0
  -30.3154  -11.2885   19.8229 H   0  0  0  0  0  0
  -29.7437  -11.7931   17.4261 H   0  0  0  0  0  0
  -29.6723  -13.4994   17.7831 H   0  0  0  0  0  0
  -27.8245  -11.3166   18.8092 H   0  0  0  0  0  0
  -27.3726  -12.6550   17.7871 H   0  0  0  0  0  0
  -27.7103  -14.2557   19.5849 H   0  0  0  0  0  0
  -28.6781  -11.9480   21.3431 H   0  0  0  0  0  0
  -28.4706  -13.5857   21.8805 H   0  0  0  0  0  0
  -25.2758   -9.5687   22.4742 H   0  0  0  0  0  0
  -23.9998   -7.4637   22.7475 H   0  0  0  0  0  0
  -21.0825   -8.8765   19.8960 H   0  0  0  0  0  0
  -22.3681  -10.9664   19.6150 H   0  0  0  0  0  0
  -21.2013   -7.6145   23.9717 H   0  0  0  0  0  0
  -21.1486   -6.0513   25.9077 H   0  0  0  0  0  0
  -22.0596   -2.7601   23.2832 H   0  0  0  0  0  0
  -22.4082  -11.9926   22.4799 H   0  0  0  0  0  0
  -21.1110  -13.1312   22.2572 H   0  0  0  0  0  0
  -24.6685  -15.8432   20.5283 H   0  0  0  0  0  0
  -26.2861  -15.6267   20.0889 H   0  0  0  0  0  0
  -26.7117  -32.5523   23.1162 H   0  0  0  0  0  0
  -25.0076  -33.9783   25.0486 H   0  0  0  0  0  0
  -22.6916  -31.3104   21.4126 H   0  0  0  0  0  0
  -23.3742  -35.9655   23.3309 H   0  0  0  0  0  0
  -24.3579  -36.8918   22.2051 H   0  0  0  0  0  0
  -23.7247  -37.6530   23.6639 H   0  0  0  0  0  0
  -26.0501  -31.5951   20.5987 H   0  0  0  0  0  0
  -26.8205  -30.8795   21.9870 H   0  0  0  0  0  0
  -28.0952  -29.0862   21.1721 H   0  0  0  0  0  0
  -26.0152  -25.9907   18.9737 H   0  0  0  0  0  0
  -23.9726  -27.3077   19.0254 H   0  0  0  0  0  0
  -23.7215  -30.6039   19.4058 H   0  0  0  0  0  0
  -22.7348  -29.2497   19.8676 H   0  0  0  0  0  0
  -25.1280  -36.1977   25.0834 H   0  0  0  0  0  0
  -20.9960  -28.3231   24.1436 H   0  0  0  0  0  0
  -20.5661  -26.2276   23.3604 H   0  0  0  0  0  0
  -21.6634  -26.7444   22.1213 H   0  0  0  0  0  0
  -19.6905  -25.6297   21.1239 H   0  0  0  0  0  0
  -19.6691  -27.3198   20.6742 H   0  0  0  0  0  0
  -17.4197  -26.6681   21.4016 H   0  0  0  0  0  0
  -18.0319  -26.0061   22.9009 H   0  0  0  0  0  0
  -19.7930  -30.7248   24.2291 H   0  0  0  0  0  0
  -17.5014  -31.6268   24.5165 H   0  0  0  0  0  0
  -15.5345  -30.2997   23.7637 H   0  0  0  0  0  0
  -15.8664  -28.0827   22.7054 H   0  0  0  0  0  0
  -24.5897  -30.7090   25.7839 H   0  0  0  0  0  0
  -24.8960  -32.2891   26.4949 H   0  0  0  0  0  0
  -25.8102  -30.8887   27.0237 H   0  0  0  0  0  0
  -26.2839  -29.6816   24.1149 H   0  0  0  0  0  0
  -27.4037  -29.7262   25.4579 H   0  0  0  0  0  0
  -27.8691  -30.4349   23.9283 H   0  0  0  0  0  0
  -27.2658  -33.3612   26.2097 H   0  0  0  0  0  0
  -28.3843  -32.6908   25.0315 H   0  0  0  0  0  0
  -28.0729  -31.8435   26.5391 H   0  0  0  0  0  0
  -28.2605  -38.0103   24.7495 H   0  0  0  0  0  0
  -28.1068  -36.2633   24.6295 H   0  0  0  0  0  0
  -27.2301  -37.1485   25.8868 H   0  0  0  0  0  0
  -20.9294  -29.8778   21.6967 H   0  0  0  0  0  0
  -26.0184  -38.2874   24.1391 H   0  0  0  0  0  0
  -32.7498  -21.9270   19.8142 H   0  0  0  0  0  0
  -32.9033  -21.5100   21.5219 H   0  0  0  0  0  0
  -32.1349  -23.0221   21.0596 H   0  0  0  0  0  0
  -25.4030  -22.4861   20.3387 H   0  0  0  0  0  0
  -26.8319  -22.9533   21.2614 H   0  0  0  0  0  0
  -26.1301  -21.3554   21.4798 H   0  0  0  0  0  0
  -27.8193  -18.2760   22.9344 H   0  0  0  0  0  0
  -28.1682  -16.5745   22.7025 H   0  0  0  0  0  0
  -27.5391  -17.5288   21.3692 H   0  0  0  0  0  0
  -30.2026  -18.5122   23.8339 H   0  0  0  0  0  0
  -31.5733  -18.0090   22.8538 H   0  0  0  0  0  0
  -30.4708  -16.8051   23.4945 H   0  0  0  0  0  0
  -29.2569  -23.1901   18.4600 H   0  0  0  0  0  0
  -30.8802  -23.2895   18.9346 H   0  0  0  0  0  0
  -26.7471  -20.7340   19.1440 H   0  0  0  0  0  0
  -27.3574  -22.3228   18.8405 H   0  0  0  0  0  0
  -30.4853  -25.1582   20.0592 H   0  0  0  0  0  0
  -29.5252  -24.3108   21.2304 H   0  0  0  0  0  0
  -31.2331  -17.1224   20.5294 H   0  0  0  0  0  0
  -29.6658  -17.1279   19.7769 H   0  0  0  0  0  0
  -27.4930  -24.8113   20.0336 H   0  0  0  0  0  0
  -28.3430  -25.3354   18.5850 H   0  0  0  0  0  0
  -29.0519  -15.2469   21.4058 H   0  0  0  0  0  0
  1 25  1  0  0  0
  1 30  2  0  0  0
  1 87  1  0  0  0
  2  3  1  0  0  0
  2 25  1  0  0  0
  2 88  1  0  0  0
  2 89  1  0  0  0
  3  4  1  0  0  0
  3 90  1  0  0  0
  3 91  1  0  0  0
  4  5  1  0  0  0
  4 92  1  0  0  0
  4 93  1  0  0  0
  5  6  1  0  0  0
  5 26  1  0  0  0
  5 94  1  0  0  0
  6 25  1  0  0  0
  6 95  1  0  0  0
  6 96  1  0  0  0
  7  8  2  0  0  0
  7 26  1  0  0  0
  7 29  1  0  0  0
  8  9  1  0  0  0
  8 22  1  0  0  0
  9 10  1  0  0  0
  9 27  2  0  0  0
 10 11  2  0  0  0
 10 15  1  0  0  0
 11 12  1  0  0  0
 11 97  1  0  0  0
 12 13  2  0  0  0
 12 98  1  0  0  0
 13 14  1  0  0  0
 13 31  1  0  0  0
 14 15  2  0  0  0
 14 99  1  0  0  0
 15100  1  0  0  0
 16 17  2  0  0  0
 16 21  1  0  0  0
 16 31  1  0  0  0
 17 18  1  0  0  0
 17101  1  0  0  0
 18 19  2  0  0  0
 18102  1  0  0  0
 19 20  1  0  0  0
 19 24  1  0  0  0
 20 21  2  0  0  0
 20103  1  0  0  0
 21 23  1  0  0  0
 22 28  1  0  0  0
 22 32  2  0  0  0
 26 27  1  0  0  0
 28104  1  0  0  0
 28105  1  0  0  0
 29106  1  0  0  0
 29107  1  0  0  0
 33 34  1  0  0  0
 33 66  1  0  0  0
 33 70  2  0  0  0
 34 36  1  0  0  0
 34 59  1  0  0  0
 34108  1  0  0  0
 35 44  2  0  0  0
 35 45  1  0  0  0
 35 68  1  0  0  0
 36 56  1  0  0  0
 36109  1  0  0  0
 37 39  1  0  0  0
 37 47  1  0  0  0
 37 66  1  0  0  0
 37110  1  0  0  0
 38 43  2  0  0  0
 38 46  1  0  0  0
 38 47  1  0  0  0
 39 64  1  0  0  0
 39 67  2  0  0  0
 40 52  1  0  0  0
 40 53  2  0  0  0
 40 58  1  0  0  0
 41111  1  0  0  0
 41112  1  0  0  0
 41113  1  0  0  0
 41 48  1  0  0  0
 42 43  1  0  0  0
 42 66  1  0  0  0
 42114  1  0  0  0
 42115  1  0  0  0
 43 44  1  0  0  0
 44116  1  0  0  0
 45 46  2  0  0  0
 45117  1  0  0  0
 46118  1  0  0  0
 47119  1  0  0  0
 47120  1  0  0  0
 48 56  1  0  0  0
 48 65  1  0  0  0
 48121  1  0  0  0
 49 50  1  0  0  0
 49 53  1  0  0  0
 49 64  1  0  0  0
 49122  1  0  0  0
 50 51  1  0  0  0
 50123  1  0  0  0
 50124  1  0  0  0
 51 52  1  0  0  0
 51125  1  0  0  0
 51126  1  0  0  0
 52127  1  0  0  0
 52128  1  0  0  0
 53 54  1  0  0  0
 54 55  2  0  0  0
 54129  1  0  0  0
 55 57  1  0  0  0
 55130  1  0  0  0
 56 69  2  0  0  0
 57 58  2  0  0  0
 57131  1  0  0  0
 58132  1  0  0  0
 59 60  1  0  0  0
 59 61  1  0  0  0
 59 62  1  0  0  0
 60133  1  0  0  0
 60134  1  0  0  0
 60135  1  0  0  0
 61136  1  0  0  0
 61137  1  0  0  0
 61138  1  0  0  0
 62139  1  0  0  0
 62140  1  0  0  0
 62141  1  0  0  0
 63 65  1  0  0  0
 63142  1  0  0  0
 63143  1  0  0  0
 63144  1  0  0  0
 64145  1  0  0  0
 65146  1  0  0  0
 68 83  1  0  0  0
 71 72  2  0  0  0
 71 73  1  0  0  0
 71 79  1  0  0  0
 72 75  1  0  0  0
 72 85  1  0  0  0
 73 80  1  0  0  0
 73 86  2  0  0  0
 74 84  1  0  0  0
 74 85  2  0  0  0
 74 86  1  0  0  0
 75147  1  0  0  0
 75148  1  0  0  0
 75149  1  0  0  0
 76 80  1  0  0  0
 76150  1  0  0  0
 76151  1  0  0  0
 76152  1  0  0  0
 77153  1  0  0  0
 77154  1  0  0  0
 77155  1  0  0  0
 77 84  1  0  0  0
 78 84  1  0  0  0
 78156  1  0  0  0
 78157  1  0  0  0
 78158  1  0  0  0
 79 81  1  0  0  0
 79159  1  0  0  0
 79160  1  0  0  0
 80161  1  0  0  0
 80162  1  0  0  0
 81 83  1  0  0  0
 81163  1  0  0  0
 81164  1  0  0  0
 82 84  1  0  0  0
 82 87  1  0  0  0
 82165  1  0  0  0
 82166  1  0  0  0
 83167  1  0  0  0
 83168  1  0  0  0
 87169  1  0  0  0
M  ISO  4   1 100  68 101  83 101  87 100
M  END
> <chiral flag>
0

> <version>
0

> <s_m_source_file>
/data/baiqing/PycharmProjects/Reinvent-master-3.2/result/LINK_invent/BTK/process_docking_weight1_custom_sum_contain_oxygen_bond_distance_aromatic_linkinvent_7_9_3/rearranged_h_0070.sdf

> <i_m_source_file_index>
37

> <r_mmod_Potential_Energy-OPLS-2005>
-468.29736328125

> <r_mmod_Stretch_Energy-OPLS-2005>
42.753776550293

> <r_mmod_Bend_Energy-OPLS-2005>
111.300453186035

> <r_mmod_Torsional_Energy-OPLS-2005>
205.759613037109

> <r_mmod_Improper_Torsional_Energy-OPLS-2005>
6.12091684341431

> <r_mmod_Van_der_Waal_Energy-OPLS-2005>
165.395309448242

> <r_mmod_Electrostatic_Energy-OPLS-2005>
-793.984802246094

> <r_mmod_Solvation_Energy-OPLS-2005>
-219.228530883789

> <b_mmod_Minimization_Converged-OPLS-2005>
0

> <r_mmod_RMS_Derivative-OPLS-2005>
1.06101250648499

$$$$
37
                    3D
 Structure written by MMmdl.
159167  0  0  1  0            999 V2000
  -30.6103  -14.4909   20.6165 C   0  0  0  0  0  0
  -30.4365  -12.3080   19.4513 C   0  0  0  0  0  0
  -29.5178  -12.5062   18.2242 C   0  0  0  0  0  0
  -28.0274  -12.3671   18.6071 C   0  0  0  0  0  0
  -27.6591  -13.1816   19.8755 C   0  0  2  0  0  0
  -28.6841  -12.9263   20.9990 C   0  0  0  0  0  0
  -25.2603  -13.8065   20.5566 C   0  0  0  0  0  0
  -24.1800  -13.0393   20.9035 C   0  0  0  0  0  0
  -24.6301  -11.6857   20.8633 C   0  0  0  0  0  0
  -23.8966  -10.4272   21.0349 C   0  0  0  0  0  0
  -24.3554   -9.4215   21.9142 C   0  0  0  0  0  0
  -23.6260   -8.2252   22.0776 C   0  0  0  0  0  0
  -22.4251   -8.0232   21.3554 C   0  0  0  0  0  0
  -21.9837   -9.0165   20.4656 C   0  0  0  0  0  0
  -22.7141  -10.2061   20.3041 C   0  0  0  0  0  0
  -21.6859   -6.0717   22.5277 C   0  0  0  0  0  0
  -21.4041   -6.5655   23.8198 C   0  0  0  0  0  0
  -21.3685   -5.6801   24.9161 C   0  0  0  0  0  0
  -21.6041   -4.3055   24.7208 C   0  0  0  0  0  0
  -21.8828   -3.8153   23.4329 C   0  0  0  0  0  0
  -21.9200   -4.6960   22.3391 C   0  0  0  0  0  0
  -22.7868  -13.5238   21.1768 C   0  0  0  0  0  0
  -22.1669   -4.2161   21.0963 F   0  0  0  0  0  0
  -21.5593   -3.4533   25.7712 F   0  0  0  0  0  0
  -30.0154  -13.2756   20.4743 N   0  0  0  0  0  0
  -26.2965  -12.9164   20.3234 N   0  0  0  0  0  0
  -25.9206  -11.6374   20.5637 N   0  0  0  0  0  0
  -22.0549  -12.8216   22.0352 N   0  0  0  0  0  0
  -25.4450  -15.1774   20.4081 N   0  0  0  0  0  0
  -31.7367  -14.7493   20.1781 O   0  0  0  0  0  0
  -21.6635   -6.8814   21.4237 O   0  0  0  0  0  0
  -22.3568  -14.5566   20.6646 O   0  0  0  0  0  0
  -24.6205  -31.8691   23.2149 C   0  0  0  0  0  0
  -25.9102  -32.4804   23.8433 C   0  0  1  0  0  0
  -27.1720  -27.4051   20.0874 C   0  0  0  0  0  0
  -25.5973  -33.8605   24.2364 N   0  0  0  0  0  0
  -23.3981  -30.5075   21.5618 C   0  0  2  0  0  0
  -24.8273  -29.0023   20.0989 C   0  0  0  0  0  0
  -22.7437  -29.4685   22.5022 C   0  0  0  0  0  0
  -18.0263  -28.1340   22.8505 C   0  0  0  0  0  0
  -24.1472  -36.7340   23.2630 C   0  0  0  0  0  0
  -25.9351  -30.8313   21.3694 C   0  0  0  0  0  0
  -25.9955  -29.4680   20.7163 C   0  0  0  0  0  0
  -27.1686  -28.6673   20.7265 C   0  0  0  0  0  0
  -25.9968  -27.0294   19.3767 C   0  0  0  0  0  0
  -24.8248  -27.7822   19.4229 C   0  0  0  0  0  0
  -23.5964  -29.8693   20.1652 C   0  0  0  0  0  0
  -25.4088  -36.3114   24.0349 C   0  0  1  0  0  0
  -20.5869  -28.3634   23.1306 C   0  0  2  0  0  0
  -20.6750  -26.9380   22.5367 C   0  0  0  0  0  0
  -19.5696  -26.6401   21.5169 C   0  0  0  0  0  0
  -18.1888  -26.7887   22.1612 C   0  0  0  0  0  0
  -19.1515  -28.8812   23.2900 C   0  0  0  0  0  0
  -18.9448  -30.1422   23.8906 C   0  0  0  0  0  0
  -17.6459  -30.6549   24.0570 C   0  0  0  0  0  0
  -25.9046  -34.9468   23.5146 C   0  0  0  0  0  0
  -16.5345  -29.9049   23.6317 C   0  0  0  0  0  0
  -16.7260  -28.6462   23.0367 C   0  0  0  0  0  0
  -26.4522  -31.6521   25.0702 C   0  0  0  0  0  0
  -25.3869  -31.3587   26.1500 C   0  0  0  0  0  0
  -27.0312  -30.2970   24.5993 C   0  0  0  0  0  0
  -27.6117  -32.4226   25.7455 C   0  0  0  0  0  0
  -27.5573  -37.1822   24.8481 C   0  0  0  0  0  0
  -21.4168  -29.3029   22.3772 N   0  0  0  0  0  0
  -26.4274  -37.3812   23.9441 N   0  0  0  0  0  0
  -24.6704  -31.0843   22.1064 N   0  0  0  0  0  0
  -23.4233  -28.8222   23.3014 O   0  0  0  0  0  0
  -28.2420  -26.5211   20.1954 O   0  0  0  0  0  0
  -26.5566  -34.8927   22.4684 O   0  0  0  0  0  0
  -23.5378  -32.1461   23.7538 O   0  0  0  0  0  0
  -29.3138  -20.4372   20.0219 C   0  0  0  0  0  0
  -28.9323  -19.1345   20.4799 C   0  0  0  0  0  0
  -28.2748  -21.2674   20.3545 C   0  0  0  0  0  0
  -30.7223  -17.9337   19.1610 C   0  0  0  0  0  0
  -26.1244  -20.8957   21.6846 C   0  0  0  0  0  0
  -27.9431  -22.6568   19.8675 C   0  0  0  0  0  0
  -28.5818  -23.9134   20.5373 C   0  0  0  0  0  0
  -29.9168  -16.8820   21.3576 C   0  0  0  0  0  0
  -27.8500  -25.1424   19.9515 C   0  0  0  0  0  0
  -29.5308  -17.7620   20.1263 C   0  0  1  0  0  0
  -27.7944  -19.2071   21.1652 N   0  0  0  0  0  0
  -27.3976  -20.5019   21.1019 N   0  0  0  0  0  0
  -29.7900  -15.4244   21.1445 N   0  0  0  0  0  0
  -31.4853  -12.4344   19.1783 H   0  0  0  0  0  0
  -30.3455  -11.2932   19.8472 H   0  0  0  0  0  0
  -29.7782  -11.7977   17.4378 H   0  0  0  0  0  0
  -29.6860  -13.5033   17.8141 H   0  0  0  0  0  0
  -27.8180  -11.3064   18.7625 H   0  0  0  0  0  0
  -27.3968  -12.6768   17.7730 H   0  0  0  0  0  0
  -27.7108  -14.2347   19.6027 H   0  0  0  0  0  0
  -28.6738  -11.8763   21.2955 H   0  0  0  0  0  0
  -28.4222  -13.4729   21.9056 H   0  0  0  0  0  0
  -25.2699   -9.5711   22.4689 H   0  0  0  0  0  0
  -23.9990   -7.4671   22.7524 H   0  0  0  0  0  0
  -21.0770   -8.8643   19.8948 H   0  0  0  0  0  0
  -22.3573  -10.9567   19.6158 H   0  0  0  0  0  0
  -21.2081   -7.6175   23.9704 H   0  0  0  0  0  0
  -21.1519   -6.0540   25.9058 H   0  0  0  0  0  0
  -22.0608   -2.7626   23.2810 H   0  0  0  0  0  0
  -22.4172  -11.9775   22.4511 H   0  0  0  0  0  0
  -21.1251  -13.1335   22.2734 H   0  0  0  0  0  0
  -24.6929  -15.8441   20.5482 H   0  0  0  0  0  0
  -26.3134  -15.6144   20.1244 H   0  0  0  0  0  0
  -26.7175  -32.5500   23.1210 H   0  0  0  0  0  0
  -25.0230  -33.9731   25.0576 H   0  0  0  0  0  0
  -22.6833  -31.3239   21.4391 H   0  0  0  0  0  0
  -23.3707  -35.9691   23.3248 H   0  0  0  0  0  0
  -24.3628  -36.8974   22.2060 H   0  0  0  0  0  0
  -23.7211  -37.6554   23.6639 H   0  0  0  0  0  0
  -26.0522  -31.5956   20.5960 H   0  0  0  0  0  0
  -26.8293  -30.8855   21.9787 H   0  0  0  0  0  0
  -28.0533  -29.0066   21.2483 H   0  0  0  0  0  0
  -25.9273  -26.1335   18.7838 H   0  0  0  0  0  0
  -23.9373  -27.4387   18.9049 H   0  0  0  0  0  0
  -23.7087  -30.6583   19.4196 H   0  0  0  0  0  0
  -22.7172  -29.3014   19.8599 H   0  0  0  0  0  0
  -25.1227  -36.2009   25.0834 H   0  0  0  0  0  0
  -20.9953  -28.3153   24.1431 H   0  0  0  0  0  0
  -20.5625  -26.2248   23.3540 H   0  0  0  0  0  0
  -21.6620  -26.7410   22.1172 H   0  0  0  0  0  0
  -19.6849  -25.6348   21.1092 H   0  0  0  0  0  0
  -19.6563  -27.3296   20.6761 H   0  0  0  0  0  0
  -17.4166  -26.6688   21.4000 H   0  0  0  0  0  0
  -18.0288  -25.9973   22.8949 H   0  0  0  0  0  0
  -19.7950  -30.7223   24.2258 H   0  0  0  0  0  0
  -17.5030  -31.6212   24.5205 H   0  0  0  0  0  0
  -15.5356  -30.2973   23.7632 H   0  0  0  0  0  0
  -15.8655  -28.0777   22.7091 H   0  0  0  0  0  0
  -24.6114  -30.6777   25.7956 H   0  0  0  0  0  0
  -24.8964  -32.2691   26.4954 H   0  0  0  0  0  0
  -25.8352  -30.8873   27.0257 H   0  0  0  0  0  0
  -26.2767  -29.6744   24.1148 H   0  0  0  0  0  0
  -27.4245  -29.7163   25.4354 H   0  0  0  0  0  0
  -27.8554  -30.4290   23.8974 H   0  0  0  0  0  0
  -27.2741  -33.3552   26.2003 H   0  0  0  0  0  0
  -28.3947  -32.6732   25.0279 H   0  0  0  0  0  0
  -28.0751  -31.8348   26.5399 H   0  0  0  0  0  0
  -28.2611  -38.0100   24.7551 H   0  0  0  0  0  0
  -28.1031  -36.2654   24.6246 H   0  0  0  0  0  0
  -27.2326  -37.1432   25.8891 H   0  0  0  0  0  0
  -20.9302  -29.8886   21.7150 H   0  0  0  0  0  0
  -26.0146  -38.2885   24.1443 H   0  0  0  0  0  0
  -30.1554  -20.7109   19.4036 H   0  0  0  0  0  0
  -30.4247  -18.4545   18.2525 H   0  0  0  0  0  0
  -31.1577  -16.9883   18.8413 H   0  0  0  0  0  0
  -31.5077  -18.5218   19.6358 H   0  0  0  0  0  0
  -25.4312  -21.1757   20.8910 H   0  0  0  0  0  0
  -26.2609  -21.7571   22.3396 H   0  0  0  0  0  0
  -25.6813  -20.0851   22.2666 H   0  0  0  0  0  0
  -26.8575  -22.7649   19.8921 H   0  0  0  0  0  0
  -28.1806  -22.6858   18.8036 H   0  0  0  0  0  0
  -29.6506  -23.9574   20.3423 H   0  0  0  0  0  0
  -28.4433  -23.8781   21.6193 H   0  0  0  0  0  0
  -29.1866  -17.0832   22.1420 H   0  0  0  0  0  0
  -30.8806  -17.1600   21.7868 H   0  0  0  0  0  0
  -26.8455  -24.9920   20.3549 H   0  0  0  0  0  0
  -27.7976  -25.0247   18.8672 H   0  0  0  0  0  0
  -28.7571  -17.2213   19.5779 H   0  0  0  0  0  0
  -28.8969  -15.0456   21.4241 H   0  0  0  0  0  0
  1 25  1  0  0  0
  1 30  2  0  0  0
  1 83  1  0  0  0
  2  3  1  0  0  0
  2 25  1  0  0  0
  2 84  1  0  0  0
  2 85  1  0  0  0
  3  4  1  0  0  0
  3 86  1  0  0  0
  3 87  1  0  0  0
  4  5  1  0  0  0
  4 88  1  0  0  0
  4 89  1  0  0  0
  5  6  1  0  0  0
  5 26  1  0  0  0
  5 90  1  0  0  0
  6 25  1  0  0  0
  6 91  1  0  0  0
  6 92  1  0  0  0
  7  8  2  0  0  0
  7 26  1  0  0  0
  7 29  1  0  0  0
  8  9  1  0  0  0
  8 22  1  0  0  0
  9 10  1  0  0  0
  9 27  2  0  0  0
 10 11  2  0  0  0
 10 15  1  0  0  0
 11 12  1  0  0  0
 11 93  1  0  0  0
 12 13  2  0  0  0
 12 94  1  0  0  0
 13 14  1  0  0  0
 13 31  1  0  0  0
 14 15  2  0  0  0
 14 95  1  0  0  0
 15 96  1  0  0  0
 16 17  2  0  0  0
 16 21  1  0  0  0
 16 31  1  0  0  0
 17 18  1  0  0  0
 17 97  1  0  0  0
 18 19  2  0  0  0
 18 98  1  0  0  0
 19 20  1  0  0  0
 19 24  1  0  0  0
 20 21  2  0  0  0
 20 99  1  0  0  0
 21 23  1  0  0  0
 22 28  1  0  0  0
 22 32  2  0  0  0
 26 27  1  0  0  0
 28100  1  0  0  0
 28101  1  0  0  0
 29102  1  0  0  0
 29103  1  0  0  0
 33 34  1  0  0  0
 33 66  1  0  0  0
 33 70  2  0  0  0
 34 36  1  0  0  0
 34 59  1  0  0  0
 34104  1  0  0  0
 35 44  2  0  0  0
 35 45  1  0  0  0
 35 68  1  0  0  0
 36 56  1  0  0  0
 36105  1  0  0  0
 37 39  1  0  0  0
 37 47  1  0  0  0
 37 66  1  0  0  0
 37106  1  0  0  0
 38 43  2  0  0  0
 38 46  1  0  0  0
 38 47  1  0  0  0
 39 64  1  0  0  0
 39 67  2  0  0  0
 40 52  1  0  0  0
 40 53  2  0  0  0
 40 58  1  0  0  0
 41107  1  0  0  0
 41108  1  0  0  0
 41109  1  0  0  0
 41 48  1  0  0  0
 42 43  1  0  0  0
 42 66  1  0  0  0
 42110  1  0  0  0
 42111  1  0  0  0
 43 44  1  0  0  0
 44112  1  0  0  0
 45 46  2  0  0  0
 45113  1  0  0  0
 46114  1  0  0  0
 47115  1  0  0  0
 47116  1  0  0  0
 48 56  1  0  0  0
 48 65  1  0  0  0
 48117  1  0  0  0
 49 50  1  0  0  0
 49 53  1  0  0  0
 49 64  1  0  0  0
 49118  1  0  0  0
 50 51  1  0  0  0
 50119  1  0  0  0
 50120  1  0  0  0
 51 52  1  0  0  0
 51121  1  0  0  0
 51122  1  0  0  0
 52123  1  0  0  0
 52124  1  0  0  0
 53 54  1  0  0  0
 54 55  2  0  0  0
 54125  1  0  0  0
 55 57  1  0  0  0
 55126  1  0  0  0
 56 69  2  0  0  0
 57 58  2  0  0  0
 57127  1  0  0  0
 58128  1  0  0  0
 59 60  1  0  0  0
 59 61  1  0  0  0
 59 62  1  0  0  0
 60129  1  0  0  0
 60130  1  0  0  0
 60131  1  0  0  0
 61132  1  0  0  0
 61133  1  0  0  0
 61134  1  0  0  0
 62135  1  0  0  0
 62136  1  0  0  0
 62137  1  0  0  0
 63 65  1  0  0  0
 63138  1  0  0  0
 63139  1  0  0  0
 63140  1  0  0  0
 64141  1  0  0  0
 65142  1  0  0  0
 68 79  1  0  0  0
 71 72  1  0  0  0
 71 73  2  0  0  0
 71143  1  0  0  0
 72 80  1  0  0  0
 72 81  2  0  0  0
 73 76  1  0  0  0
 73 82  1  0  0  0
 74144  1  0  0  0
 74145  1  0  0  0
 74146  1  0  0  0
 74 80  1  0  0  0
 75 82  1  0  0  0
 75147  1  0  0  0
 75148  1  0  0  0
 75149  1  0  0  0
 76 77  1  0  0  0
 76150  1  0  0  0
 76151  1  0  0  0
 77 79  1  0  0  0
 77152  1  0  0  0
 77153  1  0  0  0
 78 80  1  0  0  0
 78 83  1  0  0  0
 78154  1  0  0  0
 78155  1  0  0  0
 79156  1  0  0  0
 79157  1  0  0  0
 80158  1  0  0  0
 81 82  1  0  0  0
 83159  1  0  0  0
M  ISO  4   1 100  68 101  79 101  83 100
M  END
> <chiral flag>
0

> <version>
0

> <s_m_source_file>
/data/baiqing/PycharmProjects/Reinvent-master-3.2/result/LINK_invent/BTK/process_docking_weight1_custom_sum_contain_oxygen_bond_distance_aromatic_linkinvent_7_9_3/rearranged_h_0070.sdf

> <i_m_source_file_index>
38

> <r_mmod_Potential_Energy-OPLS-2005>
-66.5770568847656

> <r_mmod_Stretch_Energy-OPLS-2005>
41.5705070495605

> <r_mmod_Bend_Energy-OPLS-2005>
132.251373291016

> <r_mmod_Torsional_Energy-OPLS-2005>
215.363433837891

> <r_mmod_Improper_Torsional_Energy-OPLS-2005>
5.45442867279053

> <r_mmod_Van_der_Waal_Energy-OPLS-2005>
149.390426635742

> <r_mmod_Electrostatic_Energy-OPLS-2005>
-429.793975830078

> <r_mmod_Solvation_Energy-OPLS-2005>
-214.671325683594

> <b_mmod_Minimization_Converged-OPLS-2005>
0

> <r_mmod_RMS_Derivative-OPLS-2005>
6.63823556900024

$$$$
38
                    3D
 Structure written by MMmdl.
160168  0  0  1  0            999 V2000
  -30.7202  -14.4154   20.6147 C   0  0  0  0  0  0
  -30.4233  -12.2853   19.4078 C   0  0  0  0  0  0
  -29.4892  -12.5062   18.2006 C   0  0  0  0  0  0
  -28.0112  -12.3726   18.6162 C   0  0  0  0  0  0
  -27.6682  -13.2000   19.8826 C   0  0  2  0  0  0
  -28.7089  -12.9452   20.9977 C   0  0  0  0  0  0
  -25.2599  -13.8136   20.5660 C   0  0  0  0  0  0
  -24.1854  -13.0424   20.9192 C   0  0  0  0  0  0
  -24.6407  -11.6886   20.8763 C   0  0  0  0  0  0
  -23.9070  -10.4285   21.0424 C   0  0  0  0  0  0
  -24.3619   -9.4200   21.9204 C   0  0  0  0  0  0
  -23.6295   -8.2240   22.0770 C   0  0  0  0  0  0
  -22.4279   -8.0287   21.3558 C   0  0  0  0  0  0
  -21.9916   -9.0260   20.4660 C   0  0  0  0  0  0
  -22.7245  -10.2139   20.3069 C   0  0  0  0  0  0
  -21.6850   -6.0743   22.5292 C   0  0  0  0  0  0
  -21.4008   -6.5643   23.8225 C   0  0  0  0  0  0
  -21.3653   -5.6796   24.9190 C   0  0  0  0  0  0
  -21.6040   -4.3059   24.7233 C   0  0  0  0  0  0
  -21.8821   -3.8149   23.4357 C   0  0  0  0  0  0
  -21.9184   -4.6965   22.3416 C   0  0  0  0  0  0
  -22.7876  -13.5233   21.1842 C   0  0  0  0  0  0
  -22.1657   -4.2151   21.0993 F   0  0  0  0  0  0
  -21.5624   -3.4543   25.7745 F   0  0  0  0  0  0
  -30.0479  -13.2451   20.4565 N   0  0  0  0  0  0
  -26.3057  -12.9308   20.3406 N   0  0  0  0  0  0
  -25.9338  -11.6468   20.5810 N   0  0  0  0  0  0
  -22.0483  -12.8250   22.0387 N   0  0  0  0  0  0
  -25.4282  -15.1842   20.3945 N   0  0  0  0  0  0
  -31.7948  -14.6636   20.0615 O   0  0  0  0  0  0
  -21.6644   -6.8886   21.4256 O   0  0  0  0  0  0
  -22.3577  -14.5545   20.6683 O   0  0  0  0  0  0
  -24.6137  -31.8678   23.2118 C   0  0  0  0  0  0
  -25.9038  -32.4823   23.8391 C   0  0  1  0  0  0
  -27.2365  -27.4479   20.0891 C   0  0  0  0  0  0
  -25.5910  -33.8618   24.2337 N   0  0  0  0  0  0
  -23.3998  -30.4936   21.5520 C   0  0  2  0  0  0
  -24.8420  -28.9582   20.1197 C   0  0  0  0  0  0
  -22.7408  -29.4663   22.5007 C   0  0  0  0  0  0
  -18.0270  -28.1381   22.8492 C   0  0  0  0  0  0
  -24.1489  -36.7316   23.2640 C   0  0  0  0  0  0
  -25.9253  -30.8398   21.3583 C   0  0  0  0  0  0
  -26.0014  -29.4736   20.7093 C   0  0  0  0  0  0
  -27.1986  -28.7266   20.6877 C   0  0  0  0  0  0
  -26.0505  -26.9347   19.5108 C   0  0  0  0  0  0
  -24.8605  -27.6868   19.5219 C   0  0  0  0  0  0
  -23.6058  -29.8263   20.1659 C   0  0  0  0  0  0
  -25.4112  -36.3116   24.0341 C   0  0  1  0  0  0
  -20.5861  -28.3663   23.1333 C   0  0  2  0  0  0
  -20.6769  -26.9403   22.5429 C   0  0  0  0  0  0
  -19.5747  -26.6395   21.5225 C   0  0  0  0  0  0
  -18.1916  -26.7930   22.1622 C   0  0  0  0  0  0
  -19.1520  -28.8844   23.2902 C   0  0  0  0  0  0
  -18.9448  -30.1448   23.8908 C   0  0  0  0  0  0
  -17.6449  -30.6584   24.0577 C   0  0  0  0  0  0
  -25.9040  -34.9477   23.5138 C   0  0  0  0  0  0
  -16.5342  -29.9093   23.6324 C   0  0  0  0  0  0
  -16.7259  -28.6511   23.0337 C   0  0  0  0  0  0
  -26.4482  -31.6593   25.0702 C   0  0  0  0  0  0
  -25.3760  -31.3670   26.1457 C   0  0  0  0  0  0
  -27.0313  -30.3045   24.6038 C   0  0  0  0  0  0
  -27.6067  -32.4302   25.7460 C   0  0  0  0  0  0
  -27.5586  -37.1810   24.8469 C   0  0  0  0  0  0
  -21.4141  -29.3024   22.3741 N   0  0  0  0  0  0
  -26.4303  -37.3799   23.9412 N   0  0  0  0  0  0
  -24.6648  -31.0807   22.1000 N   0  0  0  0  0  0
  -23.4188  -28.8197   23.3038 O   0  0  0  0  0  0
  -28.4499  -26.7912   20.0652 O   0  0  0  0  0  0
  -26.5588  -34.8929   22.4688 O   0  0  0  0  0  0
  -23.5336  -32.1417   23.7529 O   0  0  0  0  0  0
  -29.8246  -20.0497   22.4845 C   0  0  0  0  0  0
  -28.7817  -20.9402   22.3760 C   0  0  0  0  0  0
  -27.9612  -18.8668   22.2573 C   0  0  0  0  0  0
  -26.9803  -17.7427   22.1632 C   0  0  0  0  0  0
  -28.7255  -22.4367   22.4537 C   0  0  0  0  0  0
  -28.5670  -23.1101   21.0777 C   0  0  0  0  0  0
  -28.3393  -24.6324   21.1879 C   0  0  0  0  0  0
  -30.0057  -17.5022   22.5894 C   0  0  0  0  0  0
  -30.2939  -16.7931   21.2478 C   0  0  0  0  0  0
  -28.5172  -25.3799   19.8542 C   0  0  0  0  0  0
  -29.2910  -18.7839   22.4325 N   0  0  0  0  0  0
  -27.6588  -20.1690   22.2143 N   0  3  0  0  0  0
  -30.0681  -15.3460   21.3243 N   0  0  0  0  0  0
  -31.4667  -12.3852   19.1040 H   0  0  0  0  0  0
  -30.3237  -11.2663   19.7851 H   0  0  0  0  0  0
  -29.7187  -11.7860   17.4141 H   0  0  0  0  0  0
  -29.6633  -13.4942   17.7714 H   0  0  0  0  0  0
  -27.8131  -11.3169   18.8041 H   0  0  0  0  0  0
  -27.3609  -12.6595   17.7891 H   0  0  0  0  0  0
  -27.7231  -14.2534   19.6048 H   0  0  0  0  0  0
  -28.6751  -11.9009   21.3094 H   0  0  0  0  0  0
  -28.4670  -13.5157   21.8949 H   0  0  0  0  0  0
  -25.2760   -9.5662   22.4780 H   0  0  0  0  0  0
  -23.9987   -7.4629   22.7492 H   0  0  0  0  0  0
  -21.0844   -8.8781   19.8970 H   0  0  0  0  0  0
  -22.3710  -10.9676   19.6177 H   0  0  0  0  0  0
  -21.2008   -7.6145   23.9724 H   0  0  0  0  0  0
  -21.1471   -6.0536   25.9092 H   0  0  0  0  0  0
  -22.0603   -2.7609   23.2869 H   0  0  0  0  0  0
  -22.4050  -11.9903   22.4791 H   0  0  0  0  0  0
  -21.1105  -13.1319   22.2561 H   0  0  0  0  0  0
  -24.6403  -15.8209   20.4428 H   0  0  0  0  0  0
  -26.2544  -15.6003   19.9852 H   0  0  0  0  0  0
  -26.7106  -32.5539   23.1156 H   0  0  0  0  0  0
  -25.0097  -33.9765   25.0510 H   0  0  0  0  0  0
  -22.6877  -31.3092   21.4151 H   0  0  0  0  0  0
  -23.3747  -35.9652   23.3321 H   0  0  0  0  0  0
  -24.3582  -36.8911   22.2051 H   0  0  0  0  0  0
  -23.7242  -37.6531   23.6638 H   0  0  0  0  0  0
  -26.0312  -31.6048   20.5876 H   0  0  0  0  0  0
  -26.8166  -30.8954   21.9717 H   0  0  0  0  0  0
  -28.0995  -29.1289   21.1287 H   0  0  0  0  0  0
  -26.0141  -25.9692   19.0304 H   0  0  0  0  0  0
  -23.9655  -27.2840   19.0678 H   0  0  0  0  0  0
  -23.7166  -30.6019   19.4065 H   0  0  0  0  0  0
  -22.7274  -29.2498   19.8693 H   0  0  0  0  0  0
  -25.1282  -36.1992   25.0834 H   0  0  0  0  0  0
  -20.9936  -28.3222   24.1466 H   0  0  0  0  0  0
  -20.5714  -26.2252   23.3600 H   0  0  0  0  0  0
  -21.6630  -26.7471   22.1199 H   0  0  0  0  0  0
  -19.6917  -25.6318   21.1229 H   0  0  0  0  0  0
  -19.6703  -27.3225   20.6775 H   0  0  0  0  0  0
  -17.4202  -26.6694   21.4010 H   0  0  0  0  0  0
  -18.0299  -26.0066   22.9010 H   0  0  0  0  0  0
  -19.7922  -30.7263   24.2280 H   0  0  0  0  0  0
  -17.5005  -31.6263   24.5180 H   0  0  0  0  0  0
  -15.5341  -30.3002   23.7647 H   0  0  0  0  0  0
  -15.8653  -28.0849   22.7034 H   0  0  0  0  0  0
  -24.5944  -30.7010   25.7799 H   0  0  0  0  0  0
  -24.8938  -32.2813   26.4925 H   0  0  0  0  0  0
  -25.8126  -30.8835   27.0202 H   0  0  0  0  0  0
  -26.2835  -29.6783   24.1161 H   0  0  0  0  0  0
  -27.4199  -29.7295   25.4459 H   0  0  0  0  0  0
  -27.8622  -30.4399   23.9102 H   0  0  0  0  0  0
  -27.2703  -33.3596   26.2061 H   0  0  0  0  0  0
  -28.3861  -32.6859   25.0274 H   0  0  0  0  0  0
  -28.0749  -31.8403   26.5350 H   0  0  0  0  0  0
  -28.2612  -38.0100   24.7507 H   0  0  0  0  0  0
  -28.1068  -36.2628   24.6305 H   0  0  0  0  0  0
  -27.2291  -37.1477   25.8868 H   0  0  0  0  0  0
  -20.9300  -29.8743   21.6954 H   0  0  0  0  0  0
  -26.0194  -38.2881   24.1406 H   0  0  0  0  0  0
  -30.8834  -20.2240   22.6277 H   0  0  0  0  0  0
  -27.4265  -16.9181   21.6097 H   0  0  0  0  0  0
  -26.0872  -18.0908   21.6451 H   0  0  0  0  0  0
  -26.7270  -17.4216   23.1729 H   0  0  0  0  0  0
  -29.6314  -22.7964   22.9428 H   0  0  0  0  0  0
  -27.8983  -22.7173   23.1059 H   0  0  0  0  0  0
  -27.7309  -22.6633   20.5381 H   0  0  0  0  0  0
  -29.4599  -22.9080   20.4848 H   0  0  0  0  0  0
  -29.0475  -25.0492   21.9059 H   0  0  0  0  0  0
  -27.3464  -24.8276   21.5966 H   0  0  0  0  0  0
  -30.9403  -17.6945   23.1183 H   0  0  0  0  0  0
  -29.4089  -16.8770   23.2541 H   0  0  0  0  0  0
  -31.3083  -17.0303   20.9226 H   0  0  0  0  0  0
  -29.6354  -17.1740   20.4664 H   0  0  0  0  0  0
  -27.8468  -25.0124   19.0797 H   0  0  0  0  0  0
  -29.5193  -25.1739   19.4765 H   0  0  0  0  0  0
  -26.7170  -20.5302   22.1054 H   0  0  0  0  0  0
  -29.2191  -15.0307   21.7696 H   0  0  0  0  0  0
  1 25  1  0  0  0
  1 30  2  0  0  0
  1 83  1  0  0  0
  2  3  1  0  0  0
  2 25  1  0  0  0
  2 84  1  0  0  0
  2 85  1  0  0  0
  3  4  1  0  0  0
  3 86  1  0  0  0
  3 87  1  0  0  0
  4  5  1  0  0  0
  4 88  1  0  0  0
  4 89  1  0  0  0
  5  6  1  0  0  0
  5 26  1  0  0  0
  5 90  1  0  0  0
  6 25  1  0  0  0
  6 91  1  0  0  0
  6 92  1  0  0  0
  7  8  2  0  0  0
  7 26  1  0  0  0
  7 29  1  0  0  0
  8  9  1  0  0  0
  8 22  1  0  0  0
  9 10  1  0  0  0
  9 27  2  0  0  0
 10 11  2  0  0  0
 10 15  1  0  0  0
 11 12  1  0  0  0
 11 93  1  0  0  0
 12 13  2  0  0  0
 12 94  1  0  0  0
 13 14  1  0  0  0
 13 31  1  0  0  0
 14 15  2  0  0  0
 14 95  1  0  0  0
 15 96  1  0  0  0
 16 17  2  0  0  0
 16 21  1  0  0  0
 16 31  1  0  0  0
 17 18  1  0  0  0
 17 97  1  0  0  0
 18 19  2  0  0  0
 18 98  1  0  0  0
 19 20  1  0  0  0
 19 24  1  0  0  0
 20 21  2  0  0  0
 20 99  1  0  0  0
 21 23  1  0  0  0
 22 28  1  0  0  0
 22 32  2  0  0  0
 26 27  1  0  0  0
 28100  1  0  0  0
 28101  1  0  0  0
 29102  1  0  0  0
 29103  1  0  0  0
 33 34  1  0  0  0
 33 66  1  0  0  0
 33 70  2  0  0  0
 34 36  1  0  0  0
 34 59  1  0  0  0
 34104  1  0  0  0
 35 44  2  0  0  0
 35 45  1  0  0  0
 35 68  1  0  0  0
 36 56  1  0  0  0
 36105  1  0  0  0
 37 39  1  0  0  0
 37 47  1  0  0  0
 37 66  1  0  0  0
 37106  1  0  0  0
 38 43  2  0  0  0
 38 46  1  0  0  0
 38 47  1  0  0  0
 39 64  1  0  0  0
 39 67  2  0  0  0
 40 52  1  0  0  0
 40 53  2  0  0  0
 40 58  1  0  0  0
 41107  1  0  0  0
 41108  1  0  0  0
 41109  1  0  0  0
 41 48  1  0  0  0
 42 43  1  0  0  0
 42 66  1  0  0  0
 42110  1  0  0  0
 42111  1  0  0  0
 43 44  1  0  0  0
 44112  1  0  0  0
 45 46  2  0  0  0
 45113  1  0  0  0
 46114  1  0  0  0
 47115  1  0  0  0
 47116  1  0  0  0
 48 56  1  0  0  0
 48 65  1  0  0  0
 48117  1  0  0  0
 49 50  1  0  0  0
 49 53  1  0  0  0
 49 64  1  0  0  0
 49118  1  0  0  0
 50 51  1  0  0  0
 50119  1  0  0  0
 50120  1  0  0  0
 51 52  1  0  0  0
 51121  1  0  0  0
 51122  1  0  0  0
 52123  1  0  0  0
 52124  1  0  0  0
 53 54  1  0  0  0
 54 55  2  0  0  0
 54125  1  0  0  0
 55 57  1  0  0  0
 55126  1  0  0  0
 56 69  2  0  0  0
 57 58  2  0  0  0
 57127  1  0  0  0
 58128  1  0  0  0
 59 60  1  0  0  0
 59 61  1  0  0  0
 59 62  1  0  0  0
 60129  1  0  0  0
 60130  1  0  0  0
 60131  1  0  0  0
 61132  1  0  0  0
 61133  1  0  0  0
 61134  1  0  0  0
 62135  1  0  0  0
 62136  1  0  0  0
 62137  1  0  0  0
 63 65  1  0  0  0
 63138  1  0  0  0
 63139  1  0  0  0
 63140  1  0  0  0
 64141  1  0  0  0
 65142  1  0  0  0
 68 80  1  0  0  0
 71 72  2  0  0  0
 71 81  1  0  0  0
 71143  1  0  0  0
 72 75  1  0  0  0
 72 82  1  0  0  0
 73 74  1  0  0  0
 73 81  1  0  0  0
 73 82  2  0  0  0
 74144  1  0  0  0
 74145  1  0  0  0
 74146  1  0  0  0
 75 76  1  0  0  0
 75147  1  0  0  0
 75148  1  0  0  0
 76 77  1  0  0  0
 76149  1  0  0  0
 76150  1  0  0  0
 77 80  1  0  0  0
 77151  1  0  0  0
 77152  1  0  0  0
 78 79  1  0  0  0
 78 81  1  0  0  0
 78153  1  0  0  0
 78154  1  0  0  0
 79 83  1  0  0  0
 79155  1  0  0  0
 79156  1  0  0  0
 80157  1  0  0  0
 80158  1  0  0  0
 82159  1  0  0  0
 83160  1  0  0  0
M  CHG  1  82   1
M  ISO  4   1 100  68 101  80 101  83 100
M  END
> <chiral flag>
0

> <version>
0

> <s_m_source_file>
/data/baiqing/PycharmProjects/Reinvent-master-3.2/result/LINK_invent/BTK/process_docking_weight1_custom_sum_contain_oxygen_bond_distance_aromatic_linkinvent_7_9_3/rearranged_h_0070.sdf

> <i_m_source_file_index>
39

> <r_mmod_Potential_Energy-OPLS-2005>
-154.210189819336

> <r_mmod_Stretch_Energy-OPLS-2005>
31.9057865142822

> <r_mmod_Bend_Energy-OPLS-2005>
97.004035949707

> <r_mmod_Torsional_Energy-OPLS-2005>
216.320220947266

> <r_mmod_Improper_Torsional_Energy-OPLS-2005>
4.27166080474854

> <r_mmod_Van_der_Waal_Energy-OPLS-2005>
126.089263916016

> <r_mmod_Electrostatic_Energy-OPLS-2005>
-209.118591308594

> <r_mmod_Solvation_Energy-OPLS-2005>
-429.376251220703

> <b_mmod_Minimization_Converged-OPLS-2005>
0

> <r_mmod_RMS_Derivative-OPLS-2005>
1.78927373886108

$$$$
39
                    3D
 Structure written by MMmdl.
167175  0  0  1  0            999 V2000
  -30.7057  -14.6199   20.5058 C   0  0  0  0  0  0
  -30.4180  -12.3842   19.4551 C   0  0  0  0  0  0
  -29.4976  -12.4991   18.2202 C   0  0  0  0  0  0
  -28.0165  -12.3569   18.6226 C   0  0  0  0  0  0
  -27.6480  -13.2176   19.8586 C   0  0  2  0  0  0
  -28.6969  -13.0556   20.9770 C   0  0  0  0  0  0
  -25.2516  -13.8162   20.5671 C   0  0  0  0  0  0
  -24.1809  -13.0420   20.9192 C   0  0  0  0  0  0
  -24.6395  -11.6896   20.8764 C   0  0  0  0  0  0
  -23.9075  -10.4282   21.0436 C   0  0  0  0  0  0
  -24.3634   -9.4192   21.9204 C   0  0  0  0  0  0
  -23.6311   -8.2225   22.0765 C   0  0  0  0  0  0
  -22.4292   -8.0271   21.3547 C   0  0  0  0  0  0
  -21.9922   -9.0247   20.4660 C   0  0  0  0  0  0
  -22.7248  -10.2127   20.3078 C   0  0  0  0  0  0
  -21.6849   -6.0744   22.5277 C   0  0  0  0  0  0
  -21.4008   -6.5647   23.8213 C   0  0  0  0  0  0
  -21.3664   -5.6799   24.9176 C   0  0  0  0  0  0
  -21.6050   -4.3063   24.7222 C   0  0  0  0  0  0
  -21.8819   -3.8152   23.4345 C   0  0  0  0  0  0
  -21.9196   -4.6971   22.3401 C   0  0  0  0  0  0
  -22.7818  -13.5202   21.1865 C   0  0  0  0  0  0
  -22.1663   -4.2162   21.0978 F   0  0  0  0  0  0
  -21.5644   -3.4545   25.7736 F   0  0  0  0  0  0
  -30.0077  -13.4312   20.4254 N   0  0  0  0  0  0
  -26.2966  -12.9359   20.3323 N   0  0  0  0  0  0
  -25.9316  -11.6508   20.5753 N   0  0  0  0  0  0
  -22.0478  -12.8196   22.0433 N   0  0  0  0  0  0
  -25.4122  -15.1889   20.4021 N   0  0  0  0  0  0
  -31.8730  -14.6062   20.1086 O   0  0  0  0  0  0
  -21.6638   -6.8877   21.4238 O   0  0  0  0  0  0
  -22.3482  -14.5504   20.6711 O   0  0  0  0  0  0
  -24.6199  -31.8639   23.2054 C   0  0  0  0  0  0
  -25.9073  -32.4796   23.8357 C   0  0  1  0  0  0
  -27.2261  -27.3779   20.1149 C   0  0  0  0  0  0
  -25.5916  -33.8597   24.2286 N   0  0  0  0  0  0
  -23.4107  -30.4875   21.5456 C   0  0  2  0  0  0
  -24.8580  -28.9452   20.1120 C   0  0  0  0  0  0
  -22.7430  -29.4669   22.4955 C   0  0  0  0  0  0
  -18.0284  -28.1401   22.8487 C   0  0  0  0  0  0
  -24.1490  -36.7310   23.2638 C   0  0  0  0  0  0
  -25.9448  -30.8140   21.3650 C   0  0  0  0  0  0
  -26.0230  -29.4445   20.7106 C   0  0  0  0  0  0
  -27.2149  -28.6718   20.7022 C   0  0  0  0  0  0
  -26.0468  -26.9095   19.5014 C   0  0  0  0  0  0
  -24.8680  -27.6798   19.5012 C   0  0  0  0  0  0
  -23.6215  -29.8184   20.1614 C   0  0  0  0  0  0
  -25.4107  -36.3086   24.0331 C   0  0  1  0  0  0
  -20.5874  -28.3707   23.1293 C   0  0  2  0  0  0
  -20.6781  -26.9432   22.5428 C   0  0  0  0  0  0
  -19.5760  -26.6401   21.5224 C   0  0  0  0  0  0
  -18.1929  -26.7947   22.1618 C   0  0  0  0  0  0
  -19.1534  -28.8864   23.2889 C   0  0  0  0  0  0
  -18.9459  -30.1465   23.8910 C   0  0  0  0  0  0
  -17.6463  -30.6603   24.0571 C   0  0  0  0  0  0
  -25.9047  -34.9463   23.5102 C   0  0  0  0  0  0
  -16.5355  -29.9105   23.6332 C   0  0  0  0  0  0
  -16.7272  -28.6524   23.0343 C   0  0  0  0  0  0
  -26.4481  -31.6592   25.0707 C   0  0  0  0  0  0
  -25.3739  -31.3738   26.1454 C   0  0  0  0  0  0
  -27.0325  -30.3022   24.6139 C   0  0  0  0  0  0
  -27.6037  -32.4344   25.7473 C   0  0  0  0  0  0
  -27.5575  -37.1805   24.8458 C   0  0  0  0  0  0
  -21.4153  -29.3060   22.3679 N   0  0  0  0  0  0
  -26.4286  -37.3777   23.9402 N   0  0  0  0  0  0
  -24.6767  -31.0708   22.0966 N   0  0  0  0  0  0
  -23.4166  -28.8209   23.3030 O   0  0  0  0  0  0
  -28.3449  -26.5568   20.1255 O   0  0  0  0  0  0
  -26.5603  -34.8921   22.4667 O   0  0  0  0  0  0
  -23.5382  -32.1412   23.7428 O   0  0  0  0  0  0
  -30.6117  -19.6600   20.5126 C   0  0  0  0  0  0
  -29.6633  -18.6463   20.1806 C   0  0  0  0  0  0
  -27.9947  -20.2908   20.3737 C   0  0  0  0  0  0
  -28.9520  -21.2953   20.7061 C   0  0  0  0  0  0
  -26.5111  -20.5927   20.2695 C   0  0  0  0  0  0
  -31.3811  -17.2924   18.9245 C   0  0  0  0  0  0
  -29.0417  -16.6746   18.7014 C   0  0  0  0  0  0
  -28.8790  -16.0764   21.7879 C   0  0  0  0  0  0
  -31.2403  -16.5985   21.9780 C   0  0  0  0  0  0
  -28.5587  -22.7269   21.1813 C   0  0  0  0  0  0
  -28.6819  -23.9595   20.2097 C   0  0  0  0  0  0
  -28.1925  -25.3073   20.8665 C   0  0  0  0  0  0
  -30.0680  -17.1728   19.7550 C   0  0  0  0  0  0
  -30.1844  -16.0800   20.9594 C   0  0  0  0  0  0
  -30.2662  -20.9567   20.7727 N   0  0  0  0  0  0
  -28.3443  -18.9928   20.1384 N   0  0  0  0  0  0
  -31.4616  -12.4597   19.1443 H   0  0  0  0  0  0
  -30.3320  -11.3924   19.8992 H   0  0  0  0  0  0
  -29.7547  -11.7357   17.4840 H   0  0  0  0  0  0
  -29.6618  -13.4590   17.7304 H   0  0  0  0  0  0
  -27.8327  -11.3037   18.8356 H   0  0  0  0  0  0
  -27.3695  -12.6146   17.7830 H   0  0  0  0  0  0
  -27.6673  -14.2521   19.5244 H   0  0  0  0  0  0
  -28.7181  -12.0151   21.3064 H   0  0  0  0  0  0
  -28.4263  -13.5974   21.8738 H   0  0  0  0  0  0
  -25.2782   -9.5676   22.4775 H   0  0  0  0  0  0
  -24.0048   -7.4609   22.7462 H   0  0  0  0  0  0
  -21.0868   -8.8752   19.8945 H   0  0  0  0  0  0
  -22.3711  -10.9676   19.6195 H   0  0  0  0  0  0
  -21.1976   -7.6152   23.9715 H   0  0  0  0  0  0
  -21.1499   -6.0531   25.9083 H   0  0  0  0  0  0
  -22.0595   -2.7617   23.2835 H   0  0  0  0  0  0
  -22.4096  -11.9889   22.4885 H   0  0  0  0  0  0
  -21.1077  -13.1190   22.2588 H   0  0  0  0  0  0
  -24.6420  -15.8361   20.5279 H   0  0  0  0  0  0
  -26.2588  -15.6424   20.0856 H   0  0  0  0  0  0
  -26.7141  -32.5486   23.1110 H   0  0  0  0  0  0
  -25.0047  -33.9746   25.0419 H   0  0  0  0  0  0
  -22.7031  -31.3063   21.4030 H   0  0  0  0  0  0
  -23.3742  -35.9653   23.3298 H   0  0  0  0  0  0
  -24.3587  -36.8942   22.2055 H   0  0  0  0  0  0
  -23.7262  -37.6521   23.6668 H   0  0  0  0  0  0
  -26.0638  -31.5782   20.5952 H   0  0  0  0  0  0
  -26.8296  -30.8654   21.9883 H   0  0  0  0  0  0
  -28.1120  -29.0513   21.1708 H   0  0  0  0  0  0
  -26.0360  -25.9340   19.0364 H   0  0  0  0  0  0
  -23.9749  -27.2865   19.0363 H   0  0  0  0  0  0
  -23.7318  -30.5922   19.4013 H   0  0  0  0  0  0
  -22.7429  -29.2421   19.8654 H   0  0  0  0  0  0
  -25.1292  -36.1939   25.0826 H   0  0  0  0  0  0
  -20.9968  -28.3298   24.1411 H   0  0  0  0  0  0
  -20.5699  -26.2312   23.3626 H   0  0  0  0  0  0
  -21.6646  -26.7486   22.1207 H   0  0  0  0  0  0
  -19.6927  -25.6310   21.1251 H   0  0  0  0  0  0
  -19.6702  -27.3205   20.6745 H   0  0  0  0  0  0
  -17.4206  -26.6704   21.4011 H   0  0  0  0  0  0
  -18.0316  -26.0094   22.9015 H   0  0  0  0  0  0
  -19.7938  -30.7280   24.2274 H   0  0  0  0  0  0
  -17.5026  -31.6277   24.5182 H   0  0  0  0  0  0
  -15.5355  -30.3012   23.7672 H   0  0  0  0  0  0
  -15.8666  -28.0863   22.7038 H   0  0  0  0  0  0
  -24.5889  -30.7102   25.7799 H   0  0  0  0  0  0
  -24.8950  -32.2916   26.4889 H   0  0  0  0  0  0
  -25.8089  -30.8912   27.0218 H   0  0  0  0  0  0
  -26.2890  -29.6762   24.1183 H   0  0  0  0  0  0
  -27.4049  -29.7281   25.4634 H   0  0  0  0  0  0
  -27.8741  -30.4298   23.9324 H   0  0  0  0  0  0
  -27.2620  -33.3620   26.2075 H   0  0  0  0  0  0
  -28.3829  -32.6963   25.0302 H   0  0  0  0  0  0
  -28.0723  -31.8466   26.5376 H   0  0  0  0  0  0
  -28.2591  -38.0098   24.7506 H   0  0  0  0  0  0
  -28.1078  -36.2644   24.6288 H   0  0  0  0  0  0
  -27.2301  -37.1448   25.8859 H   0  0  0  0  0  0
  -20.9316  -29.8761   21.6876 H   0  0  0  0  0  0
  -26.0175  -38.2855   24.1403 H   0  0  0  0  0  0
  -31.6699  -19.4453   20.5602 H   0  0  0  0  0  0
  -26.0430  -20.5660   21.2535 H   0  0  0  0  0  0
  -26.0068  -19.8653   19.6319 H   0  0  0  0  0  0
  -26.3403  -21.5747   19.8282 H   0  0  0  0  0  0
  -31.2914  -18.0655   18.1595 H   0  0  0  0  0  0
  -31.6215  -16.3778   18.3838 H   0  0  0  0  0  0
  -32.2522  -17.5437   19.5276 H   0  0  0  0  0  0
  -28.9623  -17.3706   17.8659 H   0  0  0  0  0  0
  -28.0410  -16.5739   19.1166 H   0  0  0  0  0  0
  -29.3173  -15.7089   18.2818 H   0  0  0  0  0  0
  -28.6366  -17.0741   22.1517 H   0  0  0  0  0  0
  -28.9722  -15.4630   22.6827 H   0  0  0  0  0  0
  -28.0157  -15.7446   21.2188 H   0  0  0  0  0  0
  -30.9835  -17.5787   22.3771 H   0  0  0  0  0  0
  -32.2386  -16.6830   21.5518 H   0  0  0  0  0  0
  -31.3288  -15.9238   22.8305 H   0  0  0  0  0  0
  -29.1608  -22.9403   22.0650 H   0  0  0  0  0  0
  -27.5377  -22.6907   21.5602 H   0  0  0  0  0  0
  -28.0994  -23.7616   19.3095 H   0  0  0  0  0  0
  -29.7176  -24.0683   19.8875 H   0  0  0  0  0  0
  -28.7426  -25.4497   21.7974 H   0  0  0  0  0  0
  -27.1576  -25.1680   21.1846 H   0  0  0  0  0  0
  1 25  1  0  0  0
  1 30  2  0  0  0
  1 84  1  0  0  0
  2  3  1  0  0  0
  2 25  1  0  0  0
  2 87  1  0  0  0
  2 88  1  0  0  0
  3  4  1  0  0  0
  3 89  1  0  0  0
  3 90  1  0  0  0
  4  5  1  0  0  0
  4 91  1  0  0  0
  4 92  1  0  0  0
  5  6  1  0  0  0
  5 26  1  0  0  0
  5 93  1  0  0  0
  6 25  1  0  0  0
  6 94  1  0  0  0
  6 95  1  0  0  0
  7  8  2  0  0  0
  7 26  1  0  0  0
  7 29  1  0  0  0
  8  9  1  0  0  0
  8 22  1  0  0  0
  9 10  1  0  0  0
  9 27  2  0  0  0
 10 11  2  0  0  0
 10 15  1  0  0  0
 11 12  1  0  0  0
 11 96  1  0  0  0
 12 13  2  0  0  0
 12 97  1  0  0  0
 13 14  1  0  0  0
 13 31  1  0  0  0
 14 15  2  0  0  0
 14 98  1  0  0  0
 15 99  1  0  0  0
 16 17  2  0  0  0
 16 21  1  0  0  0
 16 31  1  0  0  0
 17 18  1  0  0  0
 17100  1  0  0  0
 18 19  2  0  0  0
 18101  1  0  0  0
 19 20  1  0  0  0
 19 24  1  0  0  0
 20 21  2  0  0  0
 20102  1  0  0  0
 21 23  1  0  0  0
 22 28  1  0  0  0
 22 32  2  0  0  0
 26 27  1  0  0  0
 28103  1  0  0  0
 28104  1  0  0  0
 29105  1  0  0  0
 29106  1  0  0  0
 33 34  1  0  0  0
 33 66  1  0  0  0
 33 70  2  0  0  0
 34 36  1  0  0  0
 34 59  1  0  0  0
 34107  1  0  0  0
 35 44  2  0  0  0
 35 45  1  0  0  0
 35 68  1  0  0  0
 36 56  1  0  0  0
 36108  1  0  0  0
 37 39  1  0  0  0
 37 47  1  0  0  0
 37 66  1  0  0  0
 37109  1  0  0  0
 38 43  2  0  0  0
 38 46  1  0  0  0
 38 47  1  0  0  0
 39 64  1  0  0  0
 39 67  2  0  0  0
 40 52  1  0  0  0
 40 53  2  0  0  0
 40 58  1  0  0  0
 41110  1  0  0  0
 41111  1  0  0  0
 41112  1  0  0  0
 41 48  1  0  0  0
 42 43  1  0  0  0
 42 66  1  0  0  0
 42113  1  0  0  0
 42114  1  0  0  0
 43 44  1  0  0  0
 44115  1  0  0  0
 45 46  2  0  0  0
 45116  1  0  0  0
 46117  1  0  0  0
 47118  1  0  0  0
 47119  1  0  0  0
 48 56  1  0  0  0
 48 65  1  0  0  0
 48120  1  0  0  0
 49 50  1  0  0  0
 49 53  1  0  0  0
 49 64  1  0  0  0
 49121  1  0  0  0
 50 51  1  0  0  0
 50122  1  0  0  0
 50123  1  0  0  0
 51 52  1  0  0  0
 51124  1  0  0  0
 51125  1  0  0  0
 52126  1  0  0  0
 52127  1  0  0  0
 53 54  1  0  0  0
 54 55  2  0  0  0
 54128  1  0  0  0
 55 57  1  0  0  0
 55129  1  0  0  0
 56 69  2  0  0  0
 57 58  2  0  0  0
 57130  1  0  0  0
 58131  1  0  0  0
 59 60  1  0  0  0
 59 61  1  0  0  0
 59 62  1  0  0  0
 60132  1  0  0  0
 60133  1  0  0  0
 60134  1  0  0  0
 61135  1  0  0  0
 61136  1  0  0  0
 61137  1  0  0  0
 62138  1  0  0  0
 62139  1  0  0  0
 62140  1  0  0  0
 63 65  1  0  0  0
 63141  1  0  0  0
 63142  1  0  0  0
 63143  1  0  0  0
 64144  1  0  0  0
 65145  1  0  0  0
 68 82  1  0  0  0
 71 72  2  0  0  0
 71 85  1  0  0  0
 71146  1  0  0  0
 72 83  1  0  0  0
 72 86  1  0  0  0
 73 74  1  0  0  0
 73 75  1  0  0  0
 73 86  2  0  0  0
 74 80  1  0  0  0
 74 85  2  0  0  0
 75147  1  0  0  0
 75148  1  0  0  0
 75149  1  0  0  0
 76150  1  0  0  0
 76151  1  0  0  0
 76152  1  0  0  0
 76 83  1  0  0  0
 77 83  1  0  0  0
 77153  1  0  0  0
 77154  1  0  0  0
 77155  1  0  0  0
 78156  1  0  0  0
 78157  1  0  0  0
 78158  1  0  0  0
 78 84  1  0  0  0
 79 84  1  0  0  0
 79159  1  0  0  0
 79160  1  0  0  0
 79161  1  0  0  0
 80 81  1  0  0  0
 80162  1  0  0  0
 80163  1  0  0  0
 81 82  1  0  0  0
 81164  1  0  0  0
 81165  1  0  0  0
 82166  1  0  0  0
 82167  1  0  0  0
 83 84  1  0  0  0
M  ISO  4   1 100  68 101  82 101  84 100
M  END
> <chiral flag>
0

> <version>
0

> <s_m_source_file>
/data/baiqing/PycharmProjects/Reinvent-master-3.2/result/LINK_invent/BTK/process_docking_weight1_custom_sum_contain_oxygen_bond_distance_aromatic_linkinvent_7_9_3/rearranged_h_0070.sdf

> <i_m_source_file_index>
40

> <r_mmod_Potential_Energy-OPLS-2005>
191.49983215332

> <r_mmod_Stretch_Energy-OPLS-2005>
88.4379272460938

> <r_mmod_Bend_Energy-OPLS-2005>
165.552703857422

> <r_mmod_Torsional_Energy-OPLS-2005>
197.593292236328

> <r_mmod_Improper_Torsional_Energy-OPLS-2005>
3.00790548324585

> <r_mmod_Van_der_Waal_Energy-OPLS-2005>
167.190048217773

> <r_mmod_Electrostatic_Energy-OPLS-2005>
-278.747344970703

> <r_mmod_Solvation_Energy-OPLS-2005>
-186.924163818359

> <b_mmod_Minimization_Converged-OPLS-2005>
0

> <r_mmod_RMS_Derivative-OPLS-2005>
2.08258032798767

$$$$
40
                    3D
 Structure written by MMmdl.
165173  0  0  1  0            999 V2000
  -30.6718  -14.5347   20.4338 C   0  0  0  0  0  0
  -30.4255  -12.3049   19.4352 C   0  0  0  0  0  0
  -29.4943  -12.4199   18.2081 C   0  0  0  0  0  0
  -28.0116  -12.3171   18.6241 C   0  0  0  0  0  0
  -27.6490  -13.2010   19.8483 C   0  0  2  0  0  0
  -28.6996  -13.0717   20.9735 C   0  0  0  0  0  0
  -25.2595  -13.8152   20.5719 C   0  0  0  0  0  0
  -24.1836  -13.0451   20.9230 C   0  0  0  0  0  0
  -24.6363  -11.6902   20.8774 C   0  0  0  0  0  0
  -23.9022  -10.4295   21.0424 C   0  0  0  0  0  0
  -24.3580   -9.4210   21.9196 C   0  0  0  0  0  0
  -23.6275   -8.2237   22.0748 C   0  0  0  0  0  0
  -22.4253   -8.0278   21.3542 C   0  0  0  0  0  0
  -21.9886   -9.0250   20.4647 C   0  0  0  0  0  0
  -22.7199  -10.2141   20.3070 C   0  0  0  0  0  0
  -21.6845   -6.0740   22.5286 C   0  0  0  0  0  0
  -21.4000   -6.5640   23.8219 C   0  0  0  0  0  0
  -21.3655   -5.6790   24.9177 C   0  0  0  0  0  0
  -21.6043   -4.3053   24.7228 C   0  0  0  0  0  0
  -21.8826   -3.8151   23.4348 C   0  0  0  0  0  0
  -21.9191   -4.6970   22.3403 C   0  0  0  0  0  0
  -22.7855  -13.5270   21.1869 C   0  0  0  0  0  0
  -22.1671   -4.2155   21.0982 F   0  0  0  0  0  0
  -21.5628   -3.4544   25.7743 F   0  0  0  0  0  0
  -30.0172  -13.3450   20.3875 N   0  0  0  0  0  0
  -26.2975  -12.9294   20.3299 N   0  0  0  0  0  0
  -25.9276  -11.6465   20.5758 N   0  0  0  0  0  0
  -22.0449  -12.8265   22.0394 N   0  0  0  0  0  0
  -25.4394  -15.1866   20.4133 N   0  0  0  0  0  0
  -31.8895  -14.6335   20.2575 O   0  0  0  0  0  0
  -21.6620   -6.8877   21.4243 O   0  0  0  0  0  0
  -22.3569  -14.5592   20.6720 O   0  0  0  0  0  0
  -24.6137  -31.8666   23.2105 C   0  0  0  0  0  0
  -25.9026  -32.4817   23.8410 C   0  0  1  0  0  0
  -27.2323  -27.4330   20.1007 C   0  0  0  0  0  0
  -25.5887  -33.8618   24.2339 N   0  0  0  0  0  0
  -23.4031  -30.4890   21.5500 C   0  0  2  0  0  0
  -24.8525  -28.9536   20.1173 C   0  0  0  0  0  0
  -22.7410  -29.4640   22.4989 C   0  0  0  0  0  0
  -18.0266  -28.1365   22.8481 C   0  0  0  0  0  0
  -24.1477  -36.7317   23.2641 C   0  0  0  0  0  0
  -25.9310  -30.8300   21.3663 C   0  0  0  0  0  0
  -26.0097  -29.4618   20.7206 C   0  0  0  0  0  0
  -27.2063  -28.7058   20.7154 C   0  0  0  0  0  0
  -26.0660  -26.9410   19.4845 C   0  0  0  0  0  0
  -24.8746  -27.6920   19.4963 C   0  0  0  0  0  0
  -23.6143  -29.8214   20.1642 C   0  0  0  0  0  0
  -25.4097  -36.3109   24.0344 C   0  0  1  0  0  0
  -20.5859  -28.3647   23.1321 C   0  0  2  0  0  0
  -20.6751  -26.9382   22.5409 C   0  0  0  0  0  0
  -19.5733  -26.6381   21.5193 C   0  0  0  0  0  0
  -18.1915  -26.7907   22.1607 C   0  0  0  0  0  0
  -19.1516  -28.8819   23.2898 C   0  0  0  0  0  0
  -18.9439  -30.1433   23.8904 C   0  0  0  0  0  0
  -17.6440  -30.6566   24.0562 C   0  0  0  0  0  0
  -25.9027  -34.9475   23.5135 C   0  0  0  0  0  0
  -16.5337  -29.9069   23.6319 C   0  0  0  0  0  0
  -16.7256  -28.6488   23.0336 C   0  0  0  0  0  0
  -26.4465  -31.6587   25.0729 C   0  0  0  0  0  0
  -25.3741  -31.3683   26.1482 C   0  0  0  0  0  0
  -27.0285  -30.3035   24.6070 C   0  0  0  0  0  0
  -27.6055  -32.4288   25.7484 C   0  0  0  0  0  0
  -27.5575  -37.1816   24.8466 C   0  0  0  0  0  0
  -21.4131  -29.3027   22.3743 N   0  0  0  0  0  0
  -26.4285  -37.3793   23.9410 N   0  0  0  0  0  0
  -24.6669  -31.0767   22.1012 N   0  0  0  0  0  0
  -23.4186  -28.8186   23.3031 O   0  0  0  0  0  0
  -28.3744  -26.6663   20.0560 O   0  0  0  0  0  0
  -26.5584  -34.8916   22.4697 O   0  0  0  0  0  0
  -23.5326  -32.1425   23.7494 O   0  0  0  0  0  0
  -29.0445  -20.8386   22.7318 C   0  0  0  0  0  0
  -29.3875  -19.5267   22.5358 C   0  0  0  0  0  0
  -28.1210  -21.1469   21.6893 C   0  0  0  0  0  0
  -25.8563  -22.0389   21.0670 C   0  0  0  0  0  0
  -27.1303  -23.1522   22.8528 C   0  0  0  0  0  0
  -29.8528  -15.9931   18.7347 C   0  0  0  0  0  0
  -29.0116  -24.3753   20.8054 C   0  0  0  0  0  0
  -27.8649  -23.4035   20.4076 C   0  0  0  0  0  0
  -28.6442  -17.7334   20.8356 C   0  0  0  0  0  0
  -29.9111  -16.8310   21.0121 C   0  0  0  0  0  0
  -28.5804  -25.8196   21.1946 C   0  0  0  0  0  0
  -27.2897  -22.4318   21.4943 C   0  0  0  0  0  0
  -27.9926  -20.0980   20.8688 N   0  0  0  0  0  0
  -28.7300  -19.0866   21.4068 N   0  0  0  0  0  0
  -29.8880  -15.6148   20.1613 N   0  0  0  0  0  0
  -31.4689  -12.4059   19.1290 H   0  0  0  0  0  0
  -30.3401  -11.3213   19.8975 H   0  0  0  0  0  0
  -29.7283  -11.6297   17.4929 H   0  0  0  0  0  0
  -29.6669  -13.3555   17.6795 H   0  0  0  0  0  0
  -27.8170  -11.2697   18.8561 H   0  0  0  0  0  0
  -27.3638  -12.5597   17.7807 H   0  0  0  0  0  0
  -27.6599  -14.2285   19.4907 H   0  0  0  0  0  0
  -28.6843  -12.0724   21.4106 H   0  0  0  0  0  0
  -28.4816  -13.7729   21.7808 H   0  0  0  0  0  0
  -25.2722   -9.5706   22.4770 H   0  0  0  0  0  0
  -23.9993   -7.4633   22.7468 H   0  0  0  0  0  0
  -21.0816   -8.8758   19.8964 H   0  0  0  0  0  0
  -22.3641  -10.9673   19.6182 H   0  0  0  0  0  0
  -21.1979   -7.6147   23.9733 H   0  0  0  0  0  0
  -21.1473   -6.0507   25.9082 H   0  0  0  0  0  0
  -22.0610   -2.7615   23.2840 H   0  0  0  0  0  0
  -22.3986  -11.9871   22.4753 H   0  0  0  0  0  0
  -21.1087  -13.1361   22.2599 H   0  0  0  0  0  0
  -24.6902  -15.8564   20.5479 H   0  0  0  0  0  0
  -26.2957  -15.6102   20.0794 H   0  0  0  0  0  0
  -26.7103  -32.5535   23.1190 H   0  0  0  0  0  0
  -25.0051  -33.9793   25.0489 H   0  0  0  0  0  0
  -22.6921  -31.3059   21.4109 H   0  0  0  0  0  0
  -23.3724  -35.9668   23.3317 H   0  0  0  0  0  0
  -24.3573  -36.8899   22.2050 H   0  0  0  0  0  0
  -23.7237  -37.6536   23.6636 H   0  0  0  0  0  0
  -26.0356  -31.5908   20.5917 H   0  0  0  0  0  0
  -26.8221  -30.8903   21.9789 H   0  0  0  0  0  0
  -28.1032  -29.0942   21.1768 H   0  0  0  0  0  0
  -26.0814  -25.9803   18.9902 H   0  0  0  0  0  0
  -23.9879  -27.2999   19.0185 H   0  0  0  0  0  0
  -23.7252  -30.5957   19.4041 H   0  0  0  0  0  0
  -22.7374  -29.2435   19.8666 H   0  0  0  0  0  0
  -25.1268  -36.1993   25.0839 H   0  0  0  0  0  0
  -20.9967  -28.3209   24.1439 H   0  0  0  0  0  0
  -20.5597  -26.2265   23.3594 H   0  0  0  0  0  0
  -21.6629  -26.7380   22.1242 H   0  0  0  0  0  0
  -19.6873  -25.6294   21.1209 H   0  0  0  0  0  0
  -19.6670  -27.3197   20.6727 H   0  0  0  0  0  0
  -17.4183  -26.6660   21.4014 H   0  0  0  0  0  0
  -18.0314  -26.0045   22.8991 H   0  0  0  0  0  0
  -19.7919  -30.7242   24.2283 H   0  0  0  0  0  0
  -17.4988  -31.6237   24.5168 H   0  0  0  0  0  0
  -15.5334  -30.2962   23.7627 H   0  0  0  0  0  0
  -15.8659  -28.0815   22.7048 H   0  0  0  0  0  0
  -24.5940  -30.6993   25.7836 H   0  0  0  0  0  0
  -24.8908  -32.2826   26.4932 H   0  0  0  0  0  0
  -25.8119  -30.8877   27.0236 H   0  0  0  0  0  0
  -26.2820  -29.6816   24.1113 H   0  0  0  0  0  0
  -27.4054  -29.7249   25.4510 H   0  0  0  0  0  0
  -27.8658  -30.4368   23.9214 H   0  0  0  0  0  0
  -27.2703  -33.3584   26.2095 H   0  0  0  0  0  0
  -28.3856  -32.6831   25.0300 H   0  0  0  0  0  0
  -28.0724  -31.8373   26.5364 H   0  0  0  0  0  0
  -28.2608  -38.0100   24.7492 H   0  0  0  0  0  0
  -28.1049  -36.2626   24.6312 H   0  0  0  0  0  0
  -27.2297  -37.1496   25.8873 H   0  0  0  0  0  0
  -20.9265  -29.8797   21.7022 H   0  0  0  0  0  0
  -26.0169  -38.2869   24.1417 H   0  0  0  0  0  0
  -29.3661  -21.4727   23.5452 H   0  0  0  0  0  0
  -30.0186  -18.8710   23.1187 H   0  0  0  0  0  0
  -25.4043  -21.3393   21.7711 H   0  0  0  0  0  0
  -25.8487  -21.5661   20.0849 H   0  0  0  0  0  0
  -25.2006  -22.9082   21.0076 H   0  0  0  0  0  0
  -26.6507  -22.4997   23.5842 H   0  0  0  0  0  0
  -26.5059  -24.0414   22.7639 H   0  0  0  0  0  0
  -28.0834  -23.4607   23.2808 H   0  0  0  0  0  0
  -28.8345  -15.9192   18.3544 H   0  0  0  0  0  0
  -30.4788  -15.3643   18.0994 H   0  0  0  0  0  0
  -30.1988  -17.0133   18.5618 H   0  0  0  0  0  0
  -29.7172  -24.4487   19.9776 H   0  0  0  0  0  0
  -29.5897  -23.9353   21.6183 H   0  0  0  0  0  0
  -28.1802  -22.8101   19.5484 H   0  0  0  0  0  0
  -27.0556  -24.0254   20.0244 H   0  0  0  0  0  0
  -27.7798  -17.2342   21.2752 H   0  0  0  0  0  0
  -28.4047  -17.8590   19.7800 H   0  0  0  0  0  0
  -30.0010  -16.5335   22.0591 H   0  0  0  0  0  0
  -30.8117  -17.4026   20.7817 H   0  0  0  0  0  0
  -29.3808  -26.2781   21.7761 H   0  0  0  0  0  0
  -27.7113  -25.8010   21.8519 H   0  0  0  0  0  0
  1 25  1  0  0  0
  1 30  2  0  0  0
  1 85  1  0  0  0
  2  3  1  0  0  0
  2 25  1  0  0  0
  2 86  1  0  0  0
  2 87  1  0  0  0
  3  4  1  0  0  0
  3 88  1  0  0  0
  3 89  1  0  0  0
  4  5  1  0  0  0
  4 90  1  0  0  0
  4 91  1  0  0  0
  5  6  1  0  0  0
  5 26  1  0  0  0
  5 92  1  0  0  0
  6 25  1  0  0  0
  6 93  1  0  0  0
  6 94  1  0  0  0
  7  8  2  0  0  0
  7 26  1  0  0  0
  7 29  1  0  0  0
  8  9  1  0  0  0
  8 22  1  0  0  0
  9 10  1  0  0  0
  9 27  2  0  0  0
 10 11  2  0  0  0
 10 15  1  0  0  0
 11 12  1  0  0  0
 11 95  1  0  0  0
 12 13  2  0  0  0
 12 96  1  0  0  0
 13 14  1  0  0  0
 13 31  1  0  0  0
 14 15  2  0  0  0
 14 97  1  0  0  0
 15 98  1  0  0  0
 16 17  2  0  0  0
 16 21  1  0  0  0
 16 31  1  0  0  0
 17 18  1  0  0  0
 17 99  1  0  0  0
 18 19  2  0  0  0
 18100  1  0  0  0
 19 20  1  0  0  0
 19 24  1  0  0  0
 20 21  2  0  0  0
 20101  1  0  0  0
 21 23  1  0  0  0
 22 28  1  0  0  0
 22 32  2  0  0  0
 26 27  1  0  0  0
 28102  1  0  0  0
 28103  1  0  0  0
 29104  1  0  0  0
 29105  1  0  0  0
 33 34  1  0  0  0
 33 66  1  0  0  0
 33 70  2  0  0  0
 34 36  1  0  0  0
 34 59  1  0  0  0
 34106  1  0  0  0
 35 44  2  0  0  0
 35 45  1  0  0  0
 35 68  1  0  0  0
 36 56  1  0  0  0
 36107  1  0  0  0
 37 39  1  0  0  0
 37 47  1  0  0  0
 37 66  1  0  0  0
 37108  1  0  0  0
 38 43  2  0  0  0
 38 46  1  0  0  0
 38 47  1  0  0  0
 39 64  1  0  0  0
 39 67  2  0  0  0
 40 52  1  0  0  0
 40 53  2  0  0  0
 40 58  1  0  0  0
 41109  1  0  0  0
 41110  1  0  0  0
 41111  1  0  0  0
 41 48  1  0  0  0
 42 43  1  0  0  0
 42 66  1  0  0  0
 42112  1  0  0  0
 42113  1  0  0  0
 43 44  1  0  0  0
 44114  1  0  0  0
 45 46  2  0  0  0
 45115  1  0  0  0
 46116  1  0  0  0
 47117  1  0  0  0
 47118  1  0  0  0
 48 56  1  0  0  0
 48 65  1  0  0  0
 48119  1  0  0  0
 49 50  1  0  0  0
 49 53  1  0  0  0
 49 64  1  0  0  0
 49120  1  0  0  0
 50 51  1  0  0  0
 50121  1  0  0  0
 50122  1  0  0  0
 51 52  1  0  0  0
 51123  1  0  0  0
 51124  1  0  0  0
 52125  1  0  0  0
 52126  1  0  0  0
 53 54  1  0  0  0
 54 55  2  0  0  0
 54127  1  0  0  0
 55 57  1  0  0  0
 55128  1  0  0  0
 56 69  2  0  0  0
 57 58  2  0  0  0
 57129  1  0  0  0
 58130  1  0  0  0
 59 60  1  0  0  0
 59 61  1  0  0  0
 59 62  1  0  0  0
 60131  1  0  0  0
 60132  1  0  0  0
 60133  1  0  0  0
 61134  1  0  0  0
 61135  1  0  0  0
 61136  1  0  0  0
 62137  1  0  0  0
 62138  1  0  0  0
 62139  1  0  0  0
 63 65  1  0  0  0
 63140  1  0  0  0
 63141  1  0  0  0
 63142  1  0  0  0
 64143  1  0  0  0
 65144  1  0  0  0
 68 81  1  0  0  0
 71 72  2  0  0  0
 71 73  1  0  0  0
 71145  1  0  0  0
 72 84  1  0  0  0
 72146  1  0  0  0
 73 82  1  0  0  0
 73 83  2  0  0  0
 74147  1  0  0  0
 74148  1  0  0  0
 74149  1  0  0  0
 74 82  1  0  0  0
 75 82  1  0  0  0
 75150  1  0  0  0
 75151  1  0  0  0
 75152  1  0  0  0
 76 85  1  0  0  0
 76153  1  0  0  0
 76154  1  0  0  0
 76155  1  0  0  0
 77 78  1  0  0  0
 77 81  1  0  0  0
 77156  1  0  0  0
 77157  1  0  0  0
 78 82  1  0  0  0
 78158  1  0  0  0
 78159  1  0  0  0
 79 80  1  0  0  0
 79 84  1  0  0  0
 79160  1  0  0  0
 79161  1  0  0  0
 80 85  1  0  0  0
 80162  1  0  0  0
 80163  1  0  0  0
 81164  1  0  0  0
 81165  1  0  0  0
 83 84  1  0  0  0
M  ISO  4   1 100  68 101  81 101  85 100
M  END
> <chiral flag>
0

> <version>
0

> <s_m_source_file>
/data/baiqing/PycharmProjects/Reinvent-master-3.2/result/LINK_invent/BTK/process_docking_weight1_custom_sum_contain_oxygen_bond_distance_aromatic_linkinvent_7_9_3/rearranged_h_0070.sdf

> <i_m_source_file_index>
41

> <r_mmod_Potential_Energy-OPLS-2005>
132.406646728516

> <r_mmod_Stretch_Energy-OPLS-2005>
43.7342987060547

> <r_mmod_Bend_Energy-OPLS-2005>
111.022766113281

> <r_mmod_Torsional_Energy-OPLS-2005>
354.908386230469

> <r_mmod_Improper_Torsional_Energy-OPLS-2005>
20.2539215087891

> <r_mmod_Van_der_Waal_Energy-OPLS-2005>
125.673835754395

> <r_mmod_Electrostatic_Energy-OPLS-2005>
-353.083984375

> <r_mmod_Solvation_Energy-OPLS-2005>
-199.102813720703

> <b_mmod_Minimization_Converged-OPLS-2005>
0

> <r_mmod_RMS_Derivative-OPLS-2005>
2.11281085014343

$$$$
41
                    3D
 Structure written by MMmdl.
170178  0  0  1  0            999 V2000
  -30.6927  -14.7010   20.2544 C   0  0  0  0  0  0
  -30.4224  -12.3812   19.4677 C   0  0  0  0  0  0
  -29.5079  -12.3111   18.2318 C   0  0  0  0  0  0
  -28.0155  -12.2554   18.6376 C   0  0  0  0  0  0
  -27.6199  -13.1849   19.8195 C   0  0  2  0  0  0
  -28.6915  -13.2553   20.9247 C   0  0  0  0  0  0
  -25.2512  -13.8059   20.5762 C   0  0  0  0  0  0
  -24.1765  -13.0380   20.9278 C   0  0  0  0  0  0
  -24.6310  -11.6843   20.8865 C   0  0  0  0  0  0
  -23.8999  -10.4251   21.0504 C   0  0  0  0  0  0
  -24.3568   -9.4156   21.9253 C   0  0  0  0  0  0
  -23.6234   -8.2200   22.0789 C   0  0  0  0  0  0
  -22.4225   -8.0259   21.3559 C   0  0  0  0  0  0
  -21.9868   -9.0243   20.4673 C   0  0  0  0  0  0
  -22.7201  -10.2118   20.3110 C   0  0  0  0  0  0
  -21.6814   -6.0721   22.5281 C   0  0  0  0  0  0
  -21.3993   -6.5629   23.8216 C   0  0  0  0  0  0
  -21.3644   -5.6788   24.9184 C   0  0  0  0  0  0
  -21.6033   -4.3051   24.7236 C   0  0  0  0  0  0
  -21.8813   -3.8142   23.4357 C   0  0  0  0  0  0
  -21.9178   -4.6956   22.3411 C   0  0  0  0  0  0
  -22.7795  -13.5216   21.1884 C   0  0  0  0  0  0
  -22.1649   -4.2145   21.0987 F   0  0  0  0  0  0
  -21.5636   -3.4539   25.7749 F   0  0  0  0  0  0
  -29.9825  -13.5264   20.2813 N   0  0  0  0  0  0
  -26.2866  -12.9147   20.3331 N   0  0  0  0  0  0
  -25.9225  -11.6367   20.5910 N   0  0  0  0  0  0
  -22.0389  -12.8252   22.0430 N   0  0  0  0  0  0
  -25.4240  -15.1780   20.4161 N   0  0  0  0  0  0
  -31.9007  -14.6329   20.4731 O   0  0  0  0  0  0
  -21.6592   -6.8858   21.4238 O   0  0  0  0  0  0
  -22.3531  -14.5525   20.6691 O   0  0  0  0  0  0
  -24.6208  -31.8620   23.2041 C   0  0  0  0  0  0
  -25.9058  -32.4793   23.8378 C   0  0  1  0  0  0
  -27.2395  -27.3634   20.1299 C   0  0  0  0  0  0
  -25.5892  -33.8594   24.2314 N   0  0  0  0  0  0
  -23.4149  -30.4798   21.5473 C   0  0  2  0  0  0
  -24.8643  -28.9337   20.1217 C   0  0  0  0  0  0
  -22.7460  -29.4601   22.4980 C   0  0  0  0  0  0
  -18.0288  -28.1346   22.8499 C   0  0  0  0  0  0
  -24.1480  -36.7310   23.2644 C   0  0  0  0  0  0
  -25.9480  -30.8078   21.3680 C   0  0  0  0  0  0
  -26.0290  -29.4353   20.7188 C   0  0  0  0  0  0
  -27.2210  -28.6623   20.7090 C   0  0  0  0  0  0
  -26.0559  -26.8935   19.5213 C   0  0  0  0  0  0
  -24.8763  -27.6642   19.5181 C   0  0  0  0  0  0
  -23.6291  -29.8076   20.1662 C   0  0  0  0  0  0
  -25.4104  -36.3111   24.0343 C   0  0  1  0  0  0
  -20.5882  -28.3642   23.1318 C   0  0  2  0  0  0
  -20.6769  -26.9378   22.5414 C   0  0  0  0  0  0
  -19.5743  -26.6369   21.5210 C   0  0  0  0  0  0
  -18.1926  -26.7891   22.1619 C   0  0  0  0  0  0
  -19.1535  -28.8816   23.2892 C   0  0  0  0  0  0
  -18.9459  -30.1420   23.8900 C   0  0  0  0  0  0
  -17.6458  -30.6564   24.0546 C   0  0  0  0  0  0
  -25.9035  -34.9468   23.5133 C   0  0  0  0  0  0
  -16.5351  -29.9061   23.6308 C   0  0  0  0  0  0
  -16.7273  -28.6467   23.0355 C   0  0  0  0  0  0
  -26.4475  -31.6592   25.0726 C   0  0  0  0  0  0
  -25.3718  -31.3691   26.1456 C   0  0  0  0  0  0
  -27.0336  -30.3038   24.6133 C   0  0  0  0  0  0
  -27.6059  -32.4317   25.7482 C   0  0  0  0  0  0
  -27.5583  -37.1804   24.8462 C   0  0  0  0  0  0
  -21.4176  -29.3010   22.3726 N   0  0  0  0  0  0
  -26.4289  -37.3796   23.9415 N   0  0  0  0  0  0
  -24.6799  -31.0658   22.0987 N   0  0  0  0  0  0
  -23.4194  -28.8154   23.3055 O   0  0  0  0  0  0
  -28.3926  -26.5844   20.1192 O   0  0  0  0  0  0
  -26.5611  -34.8925   22.4705 O   0  0  0  0  0  0
  -23.5369  -32.1413   23.7384 O   0  0  0  0  0  0
  -28.8240  -17.7561   20.7667 C   0  0  0  0  0  0
  -30.5135  -19.7185   20.0229 C   0  0  0  0  0  0
  -30.0647  -17.4043   20.1640 C   0  0  0  0  0  0
  -29.2145  -20.0665   20.4891 C   0  0  0  0  0  0
  -30.5743  -24.8924   19.4503 C   0  0  0  0  0  0
  -30.1884  -22.8462   21.8605 C   0  0  0  0  0  0
  -31.4314  -16.1848   18.3728 C   0  0  0  0  0  0
  -29.0397  -15.8968   18.4742 C   0  0  0  0  0  0
  -27.4424  -21.6998   21.3687 C   0  0  0  0  0  0
  -27.9164  -21.5260   18.9296 C   0  0  0  0  0  0
  -28.3199  -25.1958   20.5885 C   0  0  0  0  0  0
  -29.2502  -24.1794   19.8130 C   0  0  2  0  0  0
  -29.5844  -22.7371   20.4446 C   0  0  2  0  0  0
  -30.2677  -16.0229   19.4132 C   0  0  0  0  0  0
  -28.5706  -21.5064   20.3259 C   0  0  0  0  0  0
  -30.9220  -18.4259   19.8596 N   0  0  0  0  0  0
  -28.3951  -19.0490   20.8904 N   0  0  0  0  0  0
  -31.4654  -12.4700   19.1599 H   0  0  0  0  0  0
  -30.3562  -11.4595   20.0476 H   0  0  0  0  0  0
  -29.7509  -11.4105   17.6649 H   0  0  0  0  0  0
  -29.7246  -13.1178   17.5390 H   0  0  0  0  0  0
  -27.8096  -11.2205   18.9091 H   0  0  0  0  0  0
  -27.3848  -12.4609   17.7723 H   0  0  0  0  0  0
  -27.5277  -14.1555   19.3766 H   0  0  0  0  0  0
  -28.7324  -12.3261   21.4929 H   0  0  0  0  0  0
  -28.4501  -14.0457   21.6377 H   0  0  0  0  0  0
  -25.2714   -9.5611   22.4846 H   0  0  0  0  0  0
  -23.9934   -7.4569   22.7497 H   0  0  0  0  0  0
  -21.0808   -8.8768   19.8957 H   0  0  0  0  0  0
  -22.3687  -10.9675   19.6230 H   0  0  0  0  0  0
  -21.1980   -7.6136   23.9720 H   0  0  0  0  0  0
  -21.1469   -6.0525   25.9086 H   0  0  0  0  0  0
  -22.0603   -2.7605   23.2859 H   0  0  0  0  0  0
  -22.3942  -11.9899   22.4846 H   0  0  0  0  0  0
  -21.1029  -13.1351   22.2638 H   0  0  0  0  0  0
  -24.6587  -15.8316   20.5422 H   0  0  0  0  0  0
  -26.2730  -15.6196   20.0919 H   0  0  0  0  0  0
  -26.7128  -32.5492   23.1139 H   0  0  0  0  0  0
  -24.9997  -33.9726   25.0429 H   0  0  0  0  0  0
  -22.7057  -31.2965   21.4001 H   0  0  0  0  0  0
  -23.3746  -35.9632   23.3308 H   0  0  0  0  0  0
  -24.3572  -36.8937   22.2056 H   0  0  0  0  0  0
  -23.7216  -37.6508   23.6657 H   0  0  0  0  0  0
  -26.0631  -31.5692   20.5953 H   0  0  0  0  0  0
  -26.8340  -30.8667   21.9884 H   0  0  0  0  0  0
  -28.1235  -29.0462   21.1661 H   0  0  0  0  0  0
  -26.0413  -25.9250   19.0445 H   0  0  0  0  0  0
  -23.9820  -27.2703   19.0546 H   0  0  0  0  0  0
  -23.7446  -30.5767   19.4012 H   0  0  0  0  0  0
  -22.7511  -29.2291   19.8724 H   0  0  0  0  0  0
  -25.1269  -36.1990   25.0830 H   0  0  0  0  0  0
  -20.9955  -28.3202   24.1445 H   0  0  0  0  0  0
  -20.5672  -26.2247   23.3594 H   0  0  0  0  0  0
  -21.6639  -26.7400   22.1220 H   0  0  0  0  0  0
  -19.6896  -25.6286   21.1232 H   0  0  0  0  0  0
  -19.6683  -27.3175   20.6741 H   0  0  0  0  0  0
  -17.4195  -26.6658   21.4017 H   0  0  0  0  0  0
  -18.0304  -26.0014   22.8994 H   0  0  0  0  0  0
  -19.7939  -30.7218   24.2301 H   0  0  0  0  0  0
  -17.5018  -31.6251   24.5130 H   0  0  0  0  0  0
  -15.5350  -30.2960   23.7626 H   0  0  0  0  0  0
  -15.8676  -28.0778   22.7085 H   0  0  0  0  0  0
  -24.5889  -30.7052   25.7772 H   0  0  0  0  0  0
  -24.8884  -32.2829   26.4921 H   0  0  0  0  0  0
  -25.8042  -30.8836   27.0216 H   0  0  0  0  0  0
  -26.2905  -29.6763   24.1188 H   0  0  0  0  0  0
  -27.4127  -29.7302   25.4607 H   0  0  0  0  0  0
  -27.8726  -30.4383   23.9298 H   0  0  0  0  0  0
  -27.2714  -33.3629   26.2073 H   0  0  0  0  0  0
  -28.3852  -32.6869   25.0284 H   0  0  0  0  0  0
  -28.0745  -31.8425   26.5375 H   0  0  0  0  0  0
  -28.2602  -38.0108   24.7546 H   0  0  0  0  0  0
  -28.1104  -36.2644   24.6270 H   0  0  0  0  0  0
  -27.2306  -37.1432   25.8869 H   0  0  0  0  0  0
  -20.9348  -29.8766   21.6968 H   0  0  0  0  0  0
  -26.0197  -38.2882   24.1421 H   0  0  0  0  0  0
  -28.0842  -17.0014   20.9874 H   0  0  0  0  0  0
  -31.2101  -20.4627   19.6689 H   0  0  0  0  0  0
  -30.3951  -25.7656   18.8234 H   0  0  0  0  0  0
  -31.2467  -24.2448   18.8855 H   0  0  0  0  0  0
  -31.1059  -25.2400   20.3369 H   0  0  0  0  0  0
  -31.0422  -23.5232   21.8844 H   0  0  0  0  0  0
  -30.5423  -21.8762   22.2132 H   0  0  0  0  0  0
  -29.4620  -23.2123   22.5855 H   0  0  0  0  0  0
  -31.2262  -16.9528   17.6266 H   0  0  0  0  0  0
  -31.6136  -15.2603   17.8240 H   0  0  0  0  0  0
  -32.3750  -16.4672   18.8421 H   0  0  0  0  0  0
  -29.0416  -16.6842   17.7188 H   0  0  0  0  0  0
  -28.0934  -16.0433   18.9828 H   0  0  0  0  0  0
  -28.9978  -14.9724   17.9168 H   0  0  0  0  0  0
  -26.6131  -21.0149   21.1842 H   0  0  0  0  0  0
  -27.0276  -22.7055   21.3409 H   0  0  0  0  0  0
  -27.7919  -21.5141   22.3836 H   0  0  0  0  0  0
  -27.2502  -20.6731   18.7929 H   0  0  0  0  0  0
  -28.6663  -21.4851   18.1385 H   0  0  0  0  0  0
  -27.3098  -22.4172   18.7736 H   0  0  0  0  0  0
  -28.6120  -25.2130   21.6389 H   0  0  0  0  0  0
  -27.2965  -24.8216   20.5819 H   0  0  0  0  0  0
  -28.7727  -24.0205   18.8489 H   0  0  0  0  0  0
  -30.4132  -22.4125   19.8207 H   0  0  0  0  0  0
  1 25  1  0  0  0
  1 30  2  0  0  0
  1 84  1  0  0  0
  2  3  1  0  0  0
  2 25  1  0  0  0
  2 88  1  0  0  0
  2 89  1  0  0  0
  3  4  1  0  0  0
  3 90  1  0  0  0
  3 91  1  0  0  0
  4  5  1  0  0  0
  4 92  1  0  0  0
  4 93  1  0  0  0
  5  6  1  0  0  0
  5 26  1  0  0  0
  5 94  1  0  0  0
  6 25  1  0  0  0
  6 95  1  0  0  0
  6 96  1  0  0  0
  7  8  2  0  0  0
  7 26  1  0  0  0
  7 29  1  0  0  0
  8  9  1  0  0  0
  8 22  1  0  0  0
  9 10  1  0  0  0
  9 27  2  0  0  0
 10 11  2  0  0  0
 10 15  1  0  0  0
 11 12  1  0  0  0
 11 97  1  0  0  0
 12 13  2  0  0  0
 12 98  1  0  0  0
 13 14  1  0  0  0
 13 31  1  0  0  0
 14 15  2  0  0  0
 14 99  1  0  0  0
 15100  1  0  0  0
 16 17  2  0  0  0
 16 21  1  0  0  0
 16 31  1  0  0  0
 17 18  1  0  0  0
 17101  1  0  0  0
 18 19  2  0  0  0
 18102  1  0  0  0
 19 20  1  0  0  0
 19 24  1  0  0  0
 20 21  2  0  0  0
 20103  1  0  0  0
 21 23  1  0  0  0
 22 28  1  0  0  0
 22 32  2  0  0  0
 26 27  1  0  0  0
 28104  1  0  0  0
 28105  1  0  0  0
 29106  1  0  0  0
 29107  1  0  0  0
 33 34  1  0  0  0
 33 66  1  0  0  0
 33 70  2  0  0  0
 34 36  1  0  0  0
 34 59  1  0  0  0
 34108  1  0  0  0
 35 44  2  0  0  0
 35 45  1  0  0  0
 35 68  1  0  0  0
 36 56  1  0  0  0
 36109  1  0  0  0
 37 39  1  0  0  0
 37 47  1  0  0  0
 37 66  1  0  0  0
 37110  1  0  0  0
 38 43  2  0  0  0
 38 46  1  0  0  0
 38 47  1  0  0  0
 39 64  1  0  0  0
 39 67  2  0  0  0
 40 52  1  0  0  0
 40 53  2  0  0  0
 40 58  1  0  0  0
 41111  1  0  0  0
 41112  1  0  0  0
 41113  1  0  0  0
 41 48  1  0  0  0
 42 43  1  0  0  0
 42 66  1  0  0  0
 42114  1  0  0  0
 42115  1  0  0  0
 43 44  1  0  0  0
 44116  1  0  0  0
 45 46  2  0  0  0
 45117  1  0  0  0
 46118  1  0  0  0
 47119  1  0  0  0
 47120  1  0  0  0
 48 56  1  0  0  0
 48 65  1  0  0  0
 48121  1  0  0  0
 49 50  1  0  0  0
 49 53  1  0  0  0
 49 64  1  0  0  0
 49122  1  0  0  0
 50 51  1  0  0  0
 50123  1  0  0  0
 50124  1  0  0  0
 51 52  1  0  0  0
 51125  1  0  0  0
 51126  1  0  0  0
 52127  1  0  0  0
 52128  1  0  0  0
 53 54  1  0  0  0
 54 55  2  0  0  0
 54129  1  0  0  0
 55 57  1  0  0  0
 55130  1  0  0  0
 56 69  2  0  0  0
 57 58  2  0  0  0
 57131  1  0  0  0
 58132  1  0  0  0
 59 60  1  0  0  0
 59 61  1  0  0  0
 59 62  1  0  0  0
 60133  1  0  0  0
 60134  1  0  0  0
 60135  1  0  0  0
 61136  1  0  0  0
 61137  1  0  0  0
 61138  1  0  0  0
 62139  1  0  0  0
 62140  1  0  0  0
 62141  1  0  0  0
 63 65  1  0  0  0
 63142  1  0  0  0
 63143  1  0  0  0
 63144  1  0  0  0
 64145  1  0  0  0
 65146  1  0  0  0
 68 81  1  0  0  0
 71 73  2  0  0  0
 71 87  1  0  0  0
 71147  1  0  0  0
 72 74  1  0  0  0
 72 86  2  0  0  0
 72148  1  0  0  0
 73 84  1  0  0  0
 73 86  1  0  0  0
 74 85  1  0  0  0
 74 87  2  0  0  0
 75149  1  0  0  0
 75150  1  0  0  0
 75151  1  0  0  0
 75 82  1  0  0  0
 76152  1  0  0  0
 76153  1  0  0  0
 76154  1  0  0  0
 76 83  1  0  0  0
 77155  1  0  0  0
 77156  1  0  0  0
 77157  1  0  0  0
 77 84  1  0  0  0
 78 84  1  0  0  0
 78158  1  0  0  0
 78159  1  0  0  0
 78160  1  0  0  0
 79161  1  0  0  0
 79162  1  0  0  0
 79163  1  0  0  0
 79 85  1  0  0  0
 80 85  1  0  0  0
 80164  1  0  0  0
 80165  1  0  0  0
 80166  1  0  0  0
 81 82  1  0  0  0
 81167  1  0  0  0
 81168  1  0  0  0
 82 83  1  0  0  0
 82169  1  0  0  0
 83 85  1  0  0  0
 83170  1  0  0  0
M  ISO  4   1 100  68 101  81 101  84 100
M  END
> <chiral flag>
0

> <version>
0

> <s_m_source_file>
/data/baiqing/PycharmProjects/Reinvent-master-3.2/result/LINK_invent/BTK/process_docking_weight1_custom_sum_contain_oxygen_bond_distance_aromatic_linkinvent_7_9_3/rearranged_h_0070.sdf

> <i_m_source_file_index>
42

> <r_mmod_Potential_Energy-OPLS-2005>
472.842956542969

> <r_mmod_Stretch_Energy-OPLS-2005>
94.9642028808594

> <r_mmod_Bend_Energy-OPLS-2005>
189.649337768555

> <r_mmod_Torsional_Energy-OPLS-2005>
306.462493896484

> <r_mmod_Improper_Torsional_Energy-OPLS-2005>
22.8717880249023

> <r_mmod_Van_der_Waal_Energy-OPLS-2005>
180.658889770508

> <r_mmod_Electrostatic_Energy-OPLS-2005>
-229.574600219727

> <r_mmod_Solvation_Energy-OPLS-2005>
-189.042953491211

> <b_mmod_Minimization_Converged-OPLS-2005>
0

> <r_mmod_RMS_Derivative-OPLS-2005>
2.46368837356567

$$$$
42
                    3D
 Structure written by MMmdl.
171179  0  0  1  0            999 V2000
  -30.7952  -14.3945   20.7302 C   0  0  0  0  0  0
  -30.4061  -12.3197   19.4243 C   0  0  0  0  0  0
  -29.4875  -12.5418   18.2092 C   0  0  0  0  0  0
  -28.0129  -12.3812   18.6156 C   0  0  0  0  0  0
  -27.6632  -13.2064   19.8793 C   0  0  2  0  0  0
  -28.6968  -12.9765   21.0023 C   0  0  0  0  0  0
  -25.2561  -13.8115   20.5579 C   0  0  0  0  0  0
  -24.1816  -13.0414   20.9092 C   0  0  0  0  0  0
  -24.6384  -11.6886   20.8703 C   0  0  0  0  0  0
  -23.9048  -10.4289   21.0390 C   0  0  0  0  0  0
  -24.3614   -9.4214   21.9168 C   0  0  0  0  0  0
  -23.6298   -8.2247   22.0737 C   0  0  0  0  0  0
  -22.4271   -8.0282   21.3540 C   0  0  0  0  0  0
  -21.9892   -9.0255   20.4651 C   0  0  0  0  0  0
  -22.7207  -10.2140   20.3056 C   0  0  0  0  0  0
  -21.6854   -6.0737   22.5270 C   0  0  0  0  0  0
  -21.4014   -6.5643   23.8200 C   0  0  0  0  0  0
  -21.3666   -5.6795   24.9164 C   0  0  0  0  0  0
  -21.6047   -4.3058   24.7214 C   0  0  0  0  0  0
  -21.8811   -3.8148   23.4332 C   0  0  0  0  0  0
  -21.9185   -4.6968   22.3391 C   0  0  0  0  0  0
  -22.7844  -13.5227   21.1788 C   0  0  0  0  0  0
  -22.1648   -4.2153   21.0967 F   0  0  0  0  0  0
  -21.5644   -3.4540   25.7731 F   0  0  0  0  0  0
  -30.0381  -13.2818   20.4840 N   0  0  0  0  0  0
  -26.3040  -12.9313   20.3389 N   0  0  0  0  0  0
  -25.9324  -11.6470   20.5773 N   0  0  0  0  0  0
  -22.0489  -12.8216   22.0337 N   0  0  0  0  0  0
  -25.4260  -15.1800   20.3906 N   0  0  0  0  0  0
  -31.7427  -14.6495   19.9745 O   0  0  0  0  0  0
  -21.6634   -6.8882   21.4235 O   0  0  0  0  0  0
  -22.3540  -14.5565   20.6689 O   0  0  0  0  0  0
  -24.6143  -31.8686   23.2098 C   0  0  0  0  0  0
  -25.9036  -32.4826   23.8394 C   0  0  1  0  0  0
  -27.2357  -27.4344   20.0946 C   0  0  0  0  0  0
  -25.5893  -33.8622   24.2329 N   0  0  0  0  0  0
  -23.4010  -30.4915   21.5503 C   0  0  2  0  0  0
  -24.8453  -28.9558   20.1159 C   0  0  0  0  0  0
  -22.7399  -29.4666   22.4996 C   0  0  0  0  0  0
  -18.0275  -28.1366   22.8492 C   0  0  0  0  0  0
  -24.1484  -36.7314   23.2638 C   0  0  0  0  0  0
  -25.9280  -30.8352   21.3593 C   0  0  0  0  0  0
  -26.0048  -29.4686   20.7089 C   0  0  0  0  0  0
  -27.2001  -28.7160   20.6915 C   0  0  0  0  0  0
  -26.0529  -26.9338   19.5011 C   0  0  0  0  0  0
  -24.8647  -27.6880   19.5101 C   0  0  0  0  0  0
  -23.6072  -29.8214   20.1655 C   0  0  0  0  0  0
  -25.4103  -36.3113   24.0341 C   0  0  1  0  0  0
  -20.5862  -28.3657   23.1312 C   0  0  2  0  0  0
  -20.6755  -26.9392   22.5413 C   0  0  0  0  0  0
  -19.5736  -26.6379   21.5203 C   0  0  0  0  0  0
  -18.1920  -26.7914   22.1621 C   0  0  0  0  0  0
  -19.1524  -28.8826   23.2902 C   0  0  0  0  0  0
  -18.9454  -30.1432   23.8915 C   0  0  0  0  0  0
  -17.6457  -30.6575   24.0563 C   0  0  0  0  0  0
  -25.9027  -34.9478   23.5130 C   0  0  0  0  0  0
  -16.5348  -29.9079   23.6321 C   0  0  0  0  0  0
  -16.7266  -28.6492   23.0347 C   0  0  0  0  0  0
  -26.4471  -31.6599   25.0714 C   0  0  0  0  0  0
  -25.3743  -31.3703   26.1468 C   0  0  0  0  0  0
  -27.0295  -30.3046   24.6068 C   0  0  0  0  0  0
  -27.6050  -32.4318   25.7475 C   0  0  0  0  0  0
  -27.5580  -37.1809   24.8465 C   0  0  0  0  0  0
  -21.4128  -29.3036   22.3726 N   0  0  0  0  0  0
  -26.4292  -37.3795   23.9411 N   0  0  0  0  0  0
  -24.6663  -31.0794   22.0989 N   0  0  0  0  0  0
  -23.4171  -28.8207   23.3038 O   0  0  0  0  0  0
  -28.4300  -26.7385   20.1110 O   0  0  0  0  0  0
  -26.5592  -34.8932   22.4694 O   0  0  0  0  0  0
  -23.5337  -32.1434   23.7498 O   0  0  0  0  0  0
  -29.5462  -16.3908   21.8655 C   0  0  0  0  0  0
  -27.7013  -17.3431   22.1115 C   0  0  0  0  0  0
  -26.2733  -17.5983   22.4706 C   0  0  0  0  0  0
  -30.4613  -14.5152   23.3180 C   0  0  0  0  0  0
  -32.0102  -16.0319   22.2277 C   0  0  0  0  0  0
  -27.4535  -22.3463   23.1102 C   0  0  0  0  0  0
  -25.6620  -22.2586   21.3724 C   0  0  0  0  0  0
  -27.8715  -24.4631   20.9312 C   0  0  0  0  0  0
  -28.0047  -22.9327   20.6906 C   0  0  0  0  0  0
  -27.4449  -20.4959   21.3175 C   0  0  0  0  0  0
  -28.5550  -19.7700   22.1315 C   0  0  0  0  0  0
  -28.4630  -25.3372   19.8008 C   0  0  0  0  0  0
  -30.6386  -15.3204   21.9993 C   0  0  0  0  0  0
  -27.1673  -22.0100   21.6298 C   0  0  0  0  0  0
  -28.2117  -16.1194   21.9892 N   0  0  0  0  0  0
  -29.8245  -17.7019   21.7923 N   0  0  0  0  0  0
  -28.6189  -18.3112   21.9527 N   0  0  0  0  0  0
  -31.4532  -12.3941   19.1243 H   0  0  0  0  0  0
  -30.2919  -11.3016   19.8004 H   0  0  0  0  0  0
  -29.7349  -11.8384   17.4131 H   0  0  0  0  0  0
  -29.6524  -13.5400   17.8010 H   0  0  0  0  0  0
  -27.8301  -11.3217   18.7999 H   0  0  0  0  0  0
  -27.3619  -12.6640   17.7883 H   0  0  0  0  0  0
  -27.7122  -14.2585   19.5970 H   0  0  0  0  0  0
  -28.6649  -11.9432   21.3499 H   0  0  0  0  0  0
  -28.4036  -13.5777   21.8511 H   0  0  0  0  0  0
  -25.2772   -9.5704   22.4726 H   0  0  0  0  0  0
  -24.0007   -7.4639   22.7454 H   0  0  0  0  0  0
  -21.0802   -8.8787   19.8984 H   0  0  0  0  0  0
  -22.3638  -10.9687   19.6185 H   0  0  0  0  0  0
  -21.1992   -7.6149   23.9707 H   0  0  0  0  0  0
  -21.1505   -6.0524   25.9070 H   0  0  0  0  0  0
  -22.0585   -2.7610   23.2819 H   0  0  0  0  0  0
  -22.4086  -11.9847   22.4688 H   0  0  0  0  0  0
  -21.1123  -13.1278   22.2567 H   0  0  0  0  0  0
  -24.6746  -15.8417   20.5439 H   0  0  0  0  0  0
  -26.3411  -15.6109   20.3262 H   0  0  0  0  0  0
  -26.7100  -32.5540   23.1153 H   0  0  0  0  0  0
  -25.0057  -33.9779   25.0483 H   0  0  0  0  0  0
  -22.6910  -31.3090   21.4107 H   0  0  0  0  0  0
  -23.3745  -35.9649   23.3313 H   0  0  0  0  0  0
  -24.3577  -36.8914   22.2050 H   0  0  0  0  0  0
  -23.7238  -37.6525   23.6639 H   0  0  0  0  0  0
  -26.0350  -31.6003   20.5889 H   0  0  0  0  0  0
  -26.8181  -30.8929   21.9736 H   0  0  0  0  0  0
  -28.0984  -29.1128   21.1433 H   0  0  0  0  0  0
  -26.0239  -25.9644   19.0274 H   0  0  0  0  0  0
  -23.9720  -27.2865   19.0504 H   0  0  0  0  0  0
  -23.7116  -30.5938   19.4026 H   0  0  0  0  0  0
  -22.7318  -29.2374   19.8742 H   0  0  0  0  0  0
  -25.1279  -36.1984   25.0835 H   0  0  0  0  0  0
  -20.9969  -28.3226   24.1425 H   0  0  0  0  0  0
  -20.5634  -26.2274   23.3605 H   0  0  0  0  0  0
  -21.6629  -26.7415   22.1221 H   0  0  0  0  0  0
  -19.6899  -25.6295   21.1223 H   0  0  0  0  0  0
  -19.6672  -27.3194   20.6737 H   0  0  0  0  0  0
  -17.4187  -26.6668   21.4028 H   0  0  0  0  0  0
  -18.0324  -26.0044   22.9006 H   0  0  0  0  0  0
  -19.7931  -30.7238   24.2298 H   0  0  0  0  0  0
  -17.5013  -31.6259   24.5158 H   0  0  0  0  0  0
  -15.5348  -30.2988   23.7621 H   0  0  0  0  0  0
  -15.8667  -28.0814   22.7055 H   0  0  0  0  0  0
  -24.5911  -30.7052   25.7811 H   0  0  0  0  0  0
  -24.8935  -32.2856   26.4933 H   0  0  0  0  0  0
  -25.8104  -30.8866   27.0216 H   0  0  0  0  0  0
  -26.2826  -29.6816   24.1130 H   0  0  0  0  0  0
  -27.4087  -29.7275   25.4514 H   0  0  0  0  0  0
  -27.8653  -30.4380   23.9194 H   0  0  0  0  0  0
  -27.2670  -33.3607   26.2088 H   0  0  0  0  0  0
  -28.3840  -32.6902   25.0286 H   0  0  0  0  0  0
  -28.0737  -31.8419   26.5363 H   0  0  0  0  0  0
  -28.2607  -38.0096   24.7507 H   0  0  0  0  0  0
  -28.1066  -36.2632   24.6298 H   0  0  0  0  0  0
  -27.2297  -37.1469   25.8867 H   0  0  0  0  0  0
  -20.9284  -29.8778   21.6966 H   0  0  0  0  0  0
  -26.0189  -38.2877   24.1411 H   0  0  0  0  0  0
  -25.8316  -16.7077   22.9164 H   0  0  0  0  0  0
  -25.6981  -17.8545   21.5812 H   0  0  0  0  0  0
  -26.1965  -18.4080   23.1962 H   0  0  0  0  0  0
  -29.4467  -14.1778   23.5009 H   0  0  0  0  0  0
  -30.7045  -15.1256   24.1885 H   0  0  0  0  0  0
  -31.1107  -13.6404   23.3426 H   0  0  0  0  0  0
  -32.8195  -15.3129   22.3626 H   0  0  0  0  0  0
  -31.9967  -16.6687   23.1134 H   0  0  0  0  0  0
  -32.2861  -16.6753   21.3908 H   0  0  0  0  0  0
  -27.1209  -23.3519   23.3709 H   0  0  0  0  0  0
  -28.5193  -22.2967   23.3355 H   0  0  0  0  0  0
  -26.9356  -21.6631   23.7844 H   0  0  0  0  0  0
  -25.3502  -23.2712   21.6248 H   0  0  0  0  0  0
  -25.0378  -21.5983   21.9764 H   0  0  0  0  0  0
  -25.4009  -22.0858   20.3276 H   0  0  0  0  0  0
  -28.3668  -24.7222   21.8671 H   0  0  0  0  0  0
  -26.8278  -24.7390   21.0595 H   0  0  0  0  0  0
  -29.0585  -22.6600   20.7649 H   0  0  0  0  0  0
  -27.7242  -22.7202   19.6577 H   0  0  0  0  0  0
  -26.5156  -19.9580   21.4755 H   0  0  0  0  0  0
  -27.6473  -20.3696   20.2530 H   0  0  0  0  0  0
  -28.4094  -19.9265   23.1992 H   0  0  0  0  0  0
  -29.5263  -20.2026   21.8865 H   0  0  0  0  0  0
  -27.9954  -25.1261   18.8392 H   0  0  0  0  0  0
  -29.5121  -25.0702   19.6705 H   0  0  0  0  0  0
  1 25  1  0  0  0
  1 30  2  0  0  0
  1 83  1  0  0  0
  2  3  1  0  0  0
  2 25  1  0  0  0
  2 88  1  0  0  0
  2 89  1  0  0  0
  3  4  1  0  0  0
  3 90  1  0  0  0
  3 91  1  0  0  0
  4  5  1  0  0  0
  4 92  1  0  0  0
  4 93  1  0  0  0
  5  6  1  0  0  0
  5 26  1  0  0  0
  5 94  1  0  0  0
  6 25  1  0  0  0
  6 95  1  0  0  0
  6 96  1  0  0  0
  7  8  2  0  0  0
  7 26  1  0  0  0
  7 29  1  0  0  0
  8  9  1  0  0  0
  8 22  1  0  0  0
  9 10  1  0  0  0
  9 27  2  0  0  0
 10 11  2  0  0  0
 10 15  1  0  0  0
 11 12  1  0  0  0
 11 97  1  0  0  0
 12 13  2  0  0  0
 12 98  1  0  0  0
 13 14  1  0  0  0
 13 31  1  0  0  0
 14 15  2  0  0  0
 14 99  1  0  0  0
 15100  1  0  0  0
 16 17  2  0  0  0
 16 21  1  0  0  0
 16 31  1  0  0  0
 17 18  1  0  0  0
 17101  1  0  0  0
 18 19  2  0  0  0
 18102  1  0  0  0
 19 20  1  0  0  0
 19 24  1  0  0  0
 20 21  2  0  0  0
 20103  1  0  0  0
 21 23  1  0  0  0
 22 28  1  0  0  0
 22 32  2  0  0  0
 26 27  1  0  0  0
 28104  1  0  0  0
 28105  1  0  0  0
 29106  1  0  0  0
 29107  1  0  0  0
 33 34  1  0  0  0
 33 66  1  0  0  0
 33 70  2  0  0  0
 34 36  1  0  0  0
 34 59  1  0  0  0
 34108  1  0  0  0
 35 44  2  0  0  0
 35 45  1  0  0  0
 35 68  1  0  0  0
 36 56  1  0  0  0
 36109  1  0  0  0
 37 39  1  0  0  0
 37 47  1  0  0  0
 37 66  1  0  0  0
 37110  1  0  0  0
 38 43  2  0  0  0
 38 46  1  0  0  0
 38 47  1  0  0  0
 39 64  1  0  0  0
 39 67  2  0  0  0
 40 52  1  0  0  0
 40 53  2  0  0  0
 40 58  1  0  0  0
 41111  1  0  0  0
 41112  1  0  0  0
 41113  1  0  0  0
 41 48  1  0  0  0
 42 43  1  0  0  0
 42 66  1  0  0  0
 42114  1  0  0  0
 42115  1  0  0  0
 43 44  1  0  0  0
 44116  1  0  0  0
 45 46  2  0  0  0
 45117  1  0  0  0
 46118  1  0  0  0
 47119  1  0  0  0
 47120  1  0  0  0
 48 56  1  0  0  0
 48 65  1  0  0  0
 48121  1  0  0  0
 49 50  1  0  0  0
 49 53  1  0  0  0
 49 64  1  0  0  0
 49122  1  0  0  0
 50 51  1  0  0  0
 50123  1  0  0  0
 50124  1  0  0  0
 51 52  1  0  0  0
 51125  1  0  0  0
 51126  1  0  0  0
 52127  1  0  0  0
 52128  1  0  0  0
 53 54  1  0  0  0
 54 55  2  0  0  0
 54129  1  0  0  0
 55 57  1  0  0  0
 55130  1  0  0  0
 56 69  2  0  0  0
 57 58  2  0  0  0
 57131  1  0  0  0
 58132  1  0  0  0
 59 60  1  0  0  0
 59 61  1  0  0  0
 59 62  1  0  0  0
 60133  1  0  0  0
 60134  1  0  0  0
 60135  1  0  0  0
 61136  1  0  0  0
 61137  1  0  0  0
 61138  1  0  0  0
 62139  1  0  0  0
 62140  1  0  0  0
 62141  1  0  0  0
 63 65  1  0  0  0
 63142  1  0  0  0
 63143  1  0  0  0
 63144  1  0  0  0
 64145  1  0  0  0
 65146  1  0  0  0
 68 82  1  0  0  0
 71 83  1  0  0  0
 71 85  1  0  0  0
 71 86  2  0  0  0
 72 73  1  0  0  0
 72 85  2  0  0  0
 72 87  1  0  0  0
 73147  1  0  0  0
 73148  1  0  0  0
 73149  1  0  0  0
 74150  1  0  0  0
 74151  1  0  0  0
 74152  1  0  0  0
 74 83  1  0  0  0
 75 83  1  0  0  0
 75153  1  0  0  0
 75154  1  0  0  0
 75155  1  0  0  0
 76156  1  0  0  0
 76157  1  0  0  0
 76158  1  0  0  0
 76 84  1  0  0  0
 77 84  1  0  0  0
 77159  1  0  0  0
 77160  1  0  0  0
 77161  1  0  0  0
 78 79  1  0  0  0
 78 82  1  0  0  0
 78162  1  0  0  0
 78163  1  0  0  0
 79 84  1  0  0  0
 79164  1  0  0  0
 79165  1  0  0  0
 80 81  1  0  0  0
 80 84  1  0  0  0
 80166  1  0  0  0
 80167  1  0  0  0
 81 87  1  0  0  0
 81168  1  0  0  0
 81169  1  0  0  0
 82170  1  0  0  0
 82171  1  0  0  0
 86 87  1  0  0  0
M  ISO  4   1 100  68 101  82 101  83 100
M  END
> <chiral flag>
0

> <version>
0

> <s_m_source_file>
/data/baiqing/PycharmProjects/Reinvent-master-3.2/result/LINK_invent/BTK/process_docking_weight1_custom_sum_contain_oxygen_bond_distance_aromatic_linkinvent_7_9_3/rearranged_h_0070.sdf

> <i_m_source_file_index>
43

> <r_mmod_Potential_Energy-OPLS-2005>
61.5219230651855

> <r_mmod_Stretch_Energy-OPLS-2005>
48.8376274108887

> <r_mmod_Bend_Energy-OPLS-2005>
137.211013793945

> <r_mmod_Torsional_Energy-OPLS-2005>
213.257934570312

> <r_mmod_Improper_Torsional_Energy-OPLS-2005>
4.59426021575928

> <r_mmod_Van_der_Waal_Energy-OPLS-2005>
146.279006958008

> <r_mmod_Electrostatic_Energy-OPLS-2005>
-322.961700439453

> <r_mmod_Solvation_Energy-OPLS-2005>
-176.798156738281

> <b_mmod_Minimization_Converged-OPLS-2005>
0

> <r_mmod_RMS_Derivative-OPLS-2005>
1.40249645709991

$$$$
43
                    3D
 Structure written by MMmdl.
163171  0  0  1  0            999 V2000
  -30.7778  -14.3784   20.6498 C   0  0  0  0  0  0
  -30.4104  -12.2937   19.3967 C   0  0  0  0  0  0
  -29.4775  -12.5155   18.1924 C   0  0  0  0  0  0
  -28.0034  -12.3733   18.6175 C   0  0  0  0  0  0
  -27.6604  -13.2079   19.8798 C   0  0  2  0  0  0
  -28.7051  -12.9763   20.9949 C   0  0  0  0  0  0
  -25.2557  -13.8146   20.5708 C   0  0  0  0  0  0
  -24.1800  -13.0412   20.9196 C   0  0  0  0  0  0
  -24.6370  -11.6906   20.8757 C   0  0  0  0  0  0
  -23.9041  -10.4288   21.0407 C   0  0  0  0  0  0
  -24.3586   -9.4203   21.9185 C   0  0  0  0  0  0
  -23.6267   -8.2230   22.0739 C   0  0  0  0  0  0
  -22.4253   -8.0251   21.3528 C   0  0  0  0  0  0
  -21.9887   -9.0238   20.4634 C   0  0  0  0  0  0
  -22.7212  -10.2124   20.3051 C   0  0  0  0  0  0
  -21.6841   -6.0706   22.5280 C   0  0  0  0  0  0
  -21.4009   -6.5614   23.8207 C   0  0  0  0  0  0
  -21.3660   -5.6768   24.9168 C   0  0  0  0  0  0
  -21.6061   -4.3039   24.7230 C   0  0  0  0  0  0
  -21.8818   -3.8121   23.4354 C   0  0  0  0  0  0
  -21.9186   -4.6935   22.3399 C   0  0  0  0  0  0
  -22.7832  -13.5226   21.1883 C   0  0  0  0  0  0
  -22.1650   -4.2098   21.0986 F   0  0  0  0  0  0
  -21.5656   -3.4536   25.7758 F   0  0  0  0  0  0
  -30.0403  -13.2578   20.4407 N   0  0  0  0  0  0
  -26.3011  -12.9338   20.3422 N   0  0  0  0  0  0
  -25.9297  -11.6503   20.5800 N   0  0  0  0  0  0
  -22.0479  -12.8191   22.0443 N   0  0  0  0  0  0
  -25.4283  -15.1838   20.4159 N   0  0  0  0  0  0
  -31.8581  -14.5926   20.0975 O   0  0  0  0  0  0
  -21.6632   -6.8839   21.4228 O   0  0  0  0  0  0
  -22.3520  -14.5539   20.6752 O   0  0  0  0  0  0
  -24.6120  -31.8737   23.2123 C   0  0  0  0  0  0
  -25.9027  -32.4850   23.8408 C   0  0  1  0  0  0
  -27.2318  -27.4696   20.0636 C   0  0  0  0  0  0
  -25.5899  -33.8644   24.2348 N   0  0  0  0  0  0
  -23.3948  -30.5003   21.5570 C   0  0  2  0  0  0
  -24.8346  -28.9680   20.1204 C   0  0  0  0  0  0
  -22.7373  -29.4712   22.5046 C   0  0  0  0  0  0
  -18.0297  -28.1341   22.8512 C   0  0  0  0  0  0
  -24.1484  -36.7307   23.2643 C   0  0  0  0  0  0
  -25.9237  -30.8471   21.3612 C   0  0  0  0  0  0
  -25.9963  -29.4850   20.7044 C   0  0  0  0  0  0
  -27.1956  -28.7427   20.6710 C   0  0  0  0  0  0
  -26.0402  -26.9499   19.5033 C   0  0  0  0  0  0
  -24.8497  -27.6998   19.5205 C   0  0  0  0  0  0
  -23.5950  -29.8305   20.1723 C   0  0  0  0  0  0
  -25.4108  -36.3126   24.0341 C   0  0  1  0  0  0
  -20.5880  -28.3639   23.1372 C   0  0  2  0  0  0
  -20.6780  -26.9392   22.5420 C   0  0  0  0  0  0
  -19.5772  -26.6402   21.5175 C   0  0  0  0  0  0
  -18.1948  -26.7909   22.1616 C   0  0  0  0  0  0
  -19.1542  -28.8793   23.2954 C   0  0  0  0  0  0
  -18.9457  -30.1386   23.8978 C   0  0  0  0  0  0
  -17.6462  -30.6548   24.0570 C   0  0  0  0  0  0
  -25.9031  -34.9493   23.5143 C   0  0  0  0  0  0
  -16.5363  -29.9055   23.6302 C   0  0  0  0  0  0
  -16.7287  -28.6465   23.0347 C   0  0  0  0  0  0
  -26.4465  -31.6617   25.0726 C   0  0  0  0  0  0
  -25.3716  -31.3697   26.1460 C   0  0  0  0  0  0
  -27.0297  -30.3067   24.6077 C   0  0  0  0  0  0
  -27.6070  -32.4325   25.7465 C   0  0  0  0  0  0
  -27.5581  -37.1810   24.8467 C   0  0  0  0  0  0
  -21.4108  -29.3050   22.3794 N   0  0  0  0  0  0
  -26.4305  -37.3802   23.9398 N   0  0  0  0  0  0
  -24.6621  -31.0863   22.1017 N   0  0  0  0  0  0
  -23.4176  -28.8255   23.3059 O   0  0  0  0  0  0
  -28.4457  -26.8174   20.0226 O   0  0  0  0  0  0
  -26.5605  -34.8930   22.4708 O   0  0  0  0  0  0
  -23.5330  -32.1486   23.7548 O   0  0  0  0  0  0
  -28.7735  -19.8819   22.1911 C   0  0  0  0  0  0
  -27.8109  -20.8738   21.9492 C   0  0  0  0  0  0
  -28.3482  -18.5474   22.0734 C   0  0  0  0  0  0
  -26.2646  -19.2636   21.4541 C   0  0  0  0  0  0
  -24.8952  -18.9161   20.9098 C   0  0  0  0  0  0
  -29.7076  -17.0144   19.8293 C   0  0  0  0  0  0
  -28.1041  -22.3536   22.1250 C   0  0  0  0  0  0
  -29.2693  -17.3631   22.3528 C   0  0  0  0  0  0
  -28.1607  -23.1185   20.7953 C   0  0  0  0  0  0
  -28.1912  -24.6388   21.0133 C   0  0  0  0  0  0
  -28.4985  -25.4244   19.7342 C   0  0  0  0  0  0
  -29.3691  -16.3406   21.1876 C   0  0  1  0  0  0
  -26.5597  -20.5536   21.5723 N   0  0  0  0  0  0
  -27.0813  -18.2546   21.7244 N   0  0  0  0  0  0
  -30.3106  -15.2617   21.5378 N   0  0  0  0  0  0
  -31.4520  -12.3912   19.0863 H   0  0  0  0  0  0
  -30.3115  -11.2809   19.7891 H   0  0  0  0  0  0
  -29.7107  -11.8022   17.4006 H   0  0  0  0  0  0
  -29.6468  -13.5068   17.7714 H   0  0  0  0  0  0
  -27.8202  -11.3168   18.8183 H   0  0  0  0  0  0
  -27.3415  -12.6512   17.7962 H   0  0  0  0  0  0
  -27.7079  -14.2557   19.5864 H   0  0  0  0  0  0
  -28.6711  -11.9424   21.3390 H   0  0  0  0  0  0
  -28.4718  -13.5835   21.8696 H   0  0  0  0  0  0
  -25.2719   -9.5671   22.4772 H   0  0  0  0  0  0
  -23.9975   -7.4606   22.7442 H   0  0  0  0  0  0
  -21.0822   -8.8743   19.8932 H   0  0  0  0  0  0
  -22.3657  -10.9658   19.6154 H   0  0  0  0  0  0
  -21.1981   -7.6116   23.9680 H   0  0  0  0  0  0
  -21.1503   -6.0517   25.9064 H   0  0  0  0  0  0
  -22.0598   -2.7581   23.2882 H   0  0  0  0  0  0
  -22.4082  -11.9826   22.4793 H   0  0  0  0  0  0
  -21.1095  -13.1212   22.2674 H   0  0  0  0  0  0
  -24.6757  -15.8425   20.5714 H   0  0  0  0  0  0
  -26.3074  -15.6356   20.1949 H   0  0  0  0  0  0
  -26.7119  -32.5560   23.1200 H   0  0  0  0  0  0
  -25.0005  -33.9803   25.0463 H   0  0  0  0  0  0
  -22.6841  -31.3189   21.4222 H   0  0  0  0  0  0
  -23.3754  -35.9636   23.3336 H   0  0  0  0  0  0
  -24.3577  -36.8889   22.2053 H   0  0  0  0  0  0
  -23.7228  -37.6514   23.6635 H   0  0  0  0  0  0
  -26.0362  -31.6224   20.6013 H   0  0  0  0  0  0
  -26.8125  -30.8953   21.9800 H   0  0  0  0  0  0
  -28.1016  -29.1474   21.0996 H   0  0  0  0  0  0
  -25.9961  -25.9808   19.0324 H   0  0  0  0  0  0
  -23.9533  -27.2987   19.0691 H   0  0  0  0  0  0
  -23.6856  -30.6019   19.4062 H   0  0  0  0  0  0
  -22.7204  -29.2415   19.8886 H   0  0  0  0  0  0
  -25.1293  -36.2009   25.0840 H   0  0  0  0  0  0
  -21.0009  -28.3169   24.1476 H   0  0  0  0  0  0
  -20.5665  -26.2211   23.3568 H   0  0  0  0  0  0
  -21.6650  -26.7434   22.1200 H   0  0  0  0  0  0
  -19.7002  -25.6346   21.1118 H   0  0  0  0  0  0
  -19.6686  -27.3263   20.6749 H   0  0  0  0  0  0
  -17.4173  -26.6688   21.4060 H   0  0  0  0  0  0
  -18.0423  -26.0026   22.8992 H   0  0  0  0  0  0
  -19.7951  -30.7170   24.2379 H   0  0  0  0  0  0
  -17.5011  -31.6254   24.5123 H   0  0  0  0  0  0
  -15.5359  -30.2943   23.7597 H   0  0  0  0  0  0
  -15.8703  -28.0781   22.7036 H   0  0  0  0  0  0
  -24.5881  -30.7082   25.7736 H   0  0  0  0  0  0
  -24.8910  -32.2842   26.4942 H   0  0  0  0  0  0
  -25.8037  -30.8798   27.0191 H   0  0  0  0  0  0
  -26.2826  -29.6825   24.1160 H   0  0  0  0  0  0
  -27.4117  -29.7313   25.4520 H   0  0  0  0  0  0
  -27.8641  -30.4403   23.9188 H   0  0  0  0  0  0
  -27.2720  -33.3613   26.2092 H   0  0  0  0  0  0
  -28.3827  -32.6910   25.0242 H   0  0  0  0  0  0
  -28.0802  -31.8416   26.5318 H   0  0  0  0  0  0
  -28.2633  -38.0079   24.7510 H   0  0  0  0  0  0
  -28.1052  -36.2614   24.6320 H   0  0  0  0  0  0
  -27.2290  -37.1489   25.8871 H   0  0  0  0  0  0
  -20.9234  -29.8804   21.7071 H   0  0  0  0  0  0
  -26.0208  -38.2891   24.1388 H   0  0  0  0  0  0
  -29.7892  -20.1325   22.4727 H   0  0  0  0  0  0
  -24.1616  -18.8352   21.7104 H   0  0  0  0  0  0
  -24.9126  -17.9723   20.3651 H   0  0  0  0  0  0
  -24.5650  -19.6811   20.2081 H   0  0  0  0  0  0
  -29.0271  -17.8323   19.5908 H   0  0  0  0  0  0
  -29.6291  -16.3133   18.9969 H   0  0  0  0  0  0
  -30.7170  -17.4305   19.8236 H   0  0  0  0  0  0
  -29.0487  -22.4797   22.6565 H   0  0  0  0  0  0
  -27.3318  -22.7864   22.7641 H   0  0  0  0  0  0
  -28.9257  -16.8728   23.2666 H   0  0  0  0  0  0
  -30.2636  -17.7489   22.5828 H   0  0  0  0  0  0
  -27.2869  -22.8734   20.1904 H   0  0  0  0  0  0
  -29.0327  -22.7821   20.2339 H   0  0  0  0  0  0
  -28.9481  -24.8877   21.7572 H   0  0  0  0  0  0
  -27.2372  -24.9679   21.4294 H   0  0  0  0  0  0
  -27.8708  -25.1233   18.8965 H   0  0  0  0  0  0
  -29.5171  -25.2011   19.4169 H   0  0  0  0  0  0
  -28.3849  -15.8821   21.0911 H   0  0  0  0  0  0
  -31.0710  -15.6286   22.0919 H   0  0  0  0  0  0
  1 25  1  0  0  0
  1 30  2  0  0  0
  1 85  1  0  0  0
  2  3  1  0  0  0
  2 25  1  0  0  0
  2 86  1  0  0  0
  2 87  1  0  0  0
  3  4  1  0  0  0
  3 88  1  0  0  0
  3 89  1  0  0  0
  4  5  1  0  0  0
  4 90  1  0  0  0
  4 91  1  0  0  0
  5  6  1  0  0  0
  5 26  1  0  0  0
  5 92  1  0  0  0
  6 25  1  0  0  0
  6 93  1  0  0  0
  6 94  1  0  0  0
  7  8  2  0  0  0
  7 26  1  0  0  0
  7 29  1  0  0  0
  8  9  1  0  0  0
  8 22  1  0  0  0
  9 10  1  0  0  0
  9 27  2  0  0  0
 10 11  2  0  0  0
 10 15  1  0  0  0
 11 12  1  0  0  0
 11 95  1  0  0  0
 12 13  2  0  0  0
 12 96  1  0  0  0
 13 14  1  0  0  0
 13 31  1  0  0  0
 14 15  2  0  0  0
 14 97  1  0  0  0
 15 98  1  0  0  0
 16 17  2  0  0  0
 16 21  1  0  0  0
 16 31  1  0  0  0
 17 18  1  0  0  0
 17 99  1  0  0  0
 18 19  2  0  0  0
 18100  1  0  0  0
 19 20  1  0  0  0
 19 24  1  0  0  0
 20 21  2  0  0  0
 20101  1  0  0  0
 21 23  1  0  0  0
 22 28  1  0  0  0
 22 32  2  0  0  0
 26 27  1  0  0  0
 28102  1  0  0  0
 28103  1  0  0  0
 29104  1  0  0  0
 29105  1  0  0  0
 33 34  1  0  0  0
 33 66  1  0  0  0
 33 70  2  0  0  0
 34 36  1  0  0  0
 34 59  1  0  0  0
 34106  1  0  0  0
 35 44  2  0  0  0
 35 45  1  0  0  0
 35 68  1  0  0  0
 36 56  1  0  0  0
 36107  1  0  0  0
 37 39  1  0  0  0
 37 47  1  0  0  0
 37 66  1  0  0  0
 37108  1  0  0  0
 38 43  2  0  0  0
 38 46  1  0  0  0
 38 47  1  0  0  0
 39 64  1  0  0  0
 39 67  2  0  0  0
 40 52  1  0  0  0
 40 53  2  0  0  0
 40 58  1  0  0  0
 41109  1  0  0  0
 41110  1  0  0  0
 41111  1  0  0  0
 41 48  1  0  0  0
 42 43  1  0  0  0
 42 66  1  0  0  0
 42112  1  0  0  0
 42113  1  0  0  0
 43 44  1  0  0  0
 44114  1  0  0  0
 45 46  2  0  0  0
 45115  1  0  0  0
 46116  1  0  0  0
 47117  1  0  0  0
 47118  1  0  0  0
 48 56  1  0  0  0
 48 65  1  0  0  0
 48119  1  0  0  0
 49 50  1  0  0  0
 49 53  1  0  0  0
 49 64  1  0  0  0
 49120  1  0  0  0
 50 51  1  0  0  0
 50121  1  0  0  0
 50122  1  0  0  0
 51 52  1  0  0  0
 51123  1  0  0  0
 51124  1  0  0  0
 52125  1  0  0  0
 52126  1  0  0  0
 53 54  1  0  0  0
 54 55  2  0  0  0
 54127  1  0  0  0
 55 57  1  0  0  0
 55128  1  0  0  0
 56 69  2  0  0  0
 57 58  2  0  0  0
 57129  1  0  0  0
 58130  1  0  0  0
 59 60  1  0  0  0
 59 61  1  0  0  0
 59 62  1  0  0  0
 60131  1  0  0  0
 60132  1  0  0  0
 60133  1  0  0  0
 61134  1  0  0  0
 61135  1  0  0  0
 61136  1  0  0  0
 62137  1  0  0  0
 62138  1  0  0  0
 62139  1  0  0  0
 63 65  1  0  0  0
 63140  1  0  0  0
 63141  1  0  0  0
 63142  1  0  0  0
 64143  1  0  0  0
 65144  1  0  0  0
 68 81  1  0  0  0
 71 72  2  0  0  0
 71 73  1  0  0  0
 71145  1  0  0  0
 72 77  1  0  0  0
 72 83  1  0  0  0
 73 78  1  0  0  0
 73 84  2  0  0  0
 74 75  1  0  0  0
 74 83  2  0  0  0
 74 84  1  0  0  0
 75146  1  0  0  0
 75147  1  0  0  0
 75148  1  0  0  0
 76149  1  0  0  0
 76150  1  0  0  0
 76151  1  0  0  0
 76 82  1  0  0  0
 77 79  1  0  0  0
 77152  1  0  0  0
 77153  1  0  0  0
 78 82  1  0  0  0
 78154  1  0  0  0
 78155  1  0  0  0
 79 80  1  0  0  0
 79156  1  0  0  0
 79157  1  0  0  0
 80 81  1  0  0  0
 80158  1  0  0  0
 80159  1  0  0  0
 81160  1  0  0  0
 81161  1  0  0  0
 82 85  1  0  0  0
 82162  1  0  0  0
 85163  1  0  0  0
M  ISO  4   1 100  68 101  81 101  85 100
M  END
> <chiral flag>
0

> <version>
0

> <s_m_source_file>
/data/baiqing/PycharmProjects/Reinvent-master-3.2/result/LINK_invent/BTK/process_docking_weight1_custom_sum_contain_oxygen_bond_distance_aromatic_linkinvent_7_9_3/rearranged_h_0070.sdf

> <i_m_source_file_index>
44

> <r_mmod_Potential_Energy-OPLS-2005>
-385.39404296875

> <r_mmod_Stretch_Energy-OPLS-2005>
31.5708389282227

> <r_mmod_Bend_Energy-OPLS-2005>
108.812385559082

> <r_mmod_Torsional_Energy-OPLS-2005>
235.599807739258

> <r_mmod_Improper_Torsional_Energy-OPLS-2005>
6.24698543548584

> <r_mmod_Van_der_Waal_Energy-OPLS-2005>
157.421813964844

> <r_mmod_Electrostatic_Energy-OPLS-2005>
-717.95361328125

> <r_mmod_Solvation_Energy-OPLS-2005>
-216.905578613281

> <b_mmod_Minimization_Converged-OPLS-2005>
0

> <r_mmod_RMS_Derivative-OPLS-2005>
3.67604327201843

$$$$
44
                    3D
 Structure written by MMmdl.
170178  0  0  1  0            999 V2000
  -30.7319  -14.6011   20.5753 C   0  0  0  0  0  0
  -30.4074  -12.3906   19.4793 C   0  0  0  0  0  0
  -29.4965  -12.5175   18.2413 C   0  0  0  0  0  0
  -28.0234  -12.3578   18.6514 C   0  0  0  0  0  0
  -27.6488  -13.2357   19.8739 C   0  0  2  0  0  0
  -28.6894  -13.1326   21.0120 C   0  0  0  0  0  0
  -25.2470  -13.8135   20.5706 C   0  0  0  0  0  0
  -24.1784  -13.0415   20.9230 C   0  0  0  0  0  0
  -24.6388  -11.6898   20.8781 C   0  0  0  0  0  0
  -23.9079  -10.4284   21.0410 C   0  0  0  0  0  0
  -24.3638   -9.4197   21.9185 C   0  0  0  0  0  0
  -23.6314   -8.2231   22.0739 C   0  0  0  0  0  0
  -22.4276   -8.0292   21.3545 C   0  0  0  0  0  0
  -21.9932   -9.0260   20.4622 C   0  0  0  0  0  0
  -22.7259  -10.2141   20.3039 C   0  0  0  0  0  0
  -21.6873   -6.0738   22.5278 C   0  0  0  0  0  0
  -21.4010   -6.5645   23.8205 C   0  0  0  0  0  0
  -21.3656   -5.6807   24.9174 C   0  0  0  0  0  0
  -21.6048   -4.3075   24.7229 C   0  0  0  0  0  0
  -21.8822   -3.8157   23.4356 C   0  0  0  0  0  0
  -21.9188   -4.6962   22.3399 C   0  0  0  0  0  0
  -22.7804  -13.5169   21.1922 C   0  0  0  0  0  0
  -22.1667   -4.2149   21.0984 F   0  0  0  0  0  0
  -21.5630   -3.4553   25.7745 F   0  0  0  0  0  0
  -30.0113  -13.4395   20.4480 N   0  0  0  0  0  0
  -26.2972  -12.9407   20.3414 N   0  0  0  0  0  0
  -25.9329  -11.6538   20.5837 N   0  0  0  0  0  0
  -22.0494  -12.8120   22.0472 N   0  0  0  0  0  0
  -25.4093  -15.1836   20.4037 N   0  0  0  0  0  0
  -31.8339  -14.6753   20.0349 O   0  0  0  0  0  0
  -21.6642   -6.8895   21.4245 O   0  0  0  0  0  0
  -22.3461  -14.5483   20.6797 O   0  0  0  0  0  0
  -24.6204  -31.8636   23.2037 C   0  0  0  0  0  0
  -25.9078  -32.4782   23.8365 C   0  0  1  0  0  0
  -27.2353  -27.3538   20.0993 C   0  0  0  0  0  0
  -25.5897  -33.8594   24.2282 N   0  0  0  0  0  0
  -23.4154  -30.4872   21.5447 C   0  0  2  0  0  0
  -24.8623  -28.9441   20.1079 C   0  0  0  0  0  0
  -22.7471  -29.4660   22.4949 C   0  0  0  0  0  0
  -18.0292  -28.1336   22.8577 C   0  0  0  0  0  0
  -24.1498  -36.7313   23.2635 C   0  0  0  0  0  0
  -25.9517  -30.8022   21.3696 C   0  0  0  0  0  0
  -26.0239  -29.4293   20.7175 C   0  0  0  0  0  0
  -27.2064  -28.6399   20.7163 C   0  0  0  0  0  0
  -26.0574  -26.9213   19.4563 C   0  0  0  0  0  0
  -24.8776  -27.6929   19.4709 C   0  0  0  0  0  0
  -23.6254  -29.8164   20.1611 C   0  0  0  0  0  0
  -25.4124  -36.3078   24.0311 C   0  0  1  0  0  0
  -20.5873  -28.3662   23.1284 C   0  0  2  0  0  0
  -20.6767  -26.9401   22.5378 C   0  0  0  0  0  0
  -19.5703  -26.6417   21.5224 C   0  0  0  0  0  0
  -18.1949  -26.7844   22.1791 C   0  0  0  0  0  0
  -19.1534  -28.8817   23.2942 C   0  0  0  0  0  0
  -18.9468  -30.1419   23.8953 C   0  0  0  0  0  0
  -17.6472  -30.6557   24.0631 C   0  0  0  0  0  0
  -25.9056  -34.9449   23.5108 C   0  0  0  0  0  0
  -16.5371  -29.9075   23.6384 C   0  0  0  0  0  0
  -16.7290  -28.6473   23.0427 C   0  0  0  0  0  0
  -26.4469  -31.6554   25.0705 C   0  0  0  0  0  0
  -25.3723  -31.3682   26.1448 C   0  0  0  0  0  0
  -27.0301  -30.2987   24.6095 C   0  0  0  0  0  0
  -27.6018  -32.4304   25.7465 C   0  0  0  0  0  0
  -27.5591  -37.1809   24.8463 C   0  0  0  0  0  0
  -21.4171  -29.3040   22.3684 N   0  0  0  0  0  0
  -26.4313  -37.3762   23.9387 N   0  0  0  0  0  0
  -24.6819  -31.0690   22.0954 N   0  0  0  0  0  0
  -23.4230  -28.8277   23.3061 O   0  0  0  0  0  0
  -28.3871  -26.5638   20.1750 O   0  0  0  0  0  0
  -26.5639  -34.8898   22.4681 O   0  0  0  0  0  0
  -23.5359  -32.1428   23.7353 O   0  0  0  0  0  0
  -29.4614  -20.2286   21.2626 C   0  0  0  0  0  0
  -30.3399  -18.3198   21.7671 C   0  0  0  0  0  0
  -26.2257  -18.1160   19.1287 C   0  0  0  0  0  0
  -33.3541  -17.9037   22.3493 C   0  0  0  0  0  0
  -27.0048  -23.2986   19.0182 C   0  0  0  0  0  0
  -28.5388  -21.3266   20.6908 C   0  0  0  0  0  0
  -27.2269  -18.1707   20.2837 C   0  0  0  0  0  0
  -32.4918  -16.8650   21.6094 C   0  0  0  0  0  0
  -29.0988  -22.7698   20.3359 C   0  0  0  0  0  0
  -28.6901  -18.3073   19.8181 C   0  0  0  0  0  0
  -28.5699  -25.2909   19.4642 C   0  0  0  0  0  0
  -30.9419  -16.8719   21.8475 C   0  0  2  0  0  0
  -28.0189  -23.8986   20.0161 C   0  0  1  0  0  0
  -30.1807  -20.4346   22.3646 N   0  0  0  0  0  0
  -30.7012  -19.2095   22.7103 N   0  0  0  0  0  0
  -29.4805  -18.9065   20.8737 N   0  0  0  0  0  0
  -30.2082  -15.6780   21.2498 N   0  0  0  0  0  0
  -31.4551  -12.4555   19.1849 H   0  0  0  0  0  0
  -30.3013  -11.4097   19.9398 H   0  0  0  0  0  0
  -29.7621  -11.7635   17.5002 H   0  0  0  0  0  0
  -29.6526  -13.4838   17.7621 H   0  0  0  0  0  0
  -27.8571  -11.3083   18.8931 H   0  0  0  0  0  0
  -27.3673  -12.5855   17.8089 H   0  0  0  0  0  0
  -27.6593  -14.2684   19.5255 H   0  0  0  0  0  0
  -28.6885  -12.1300   21.4395 H   0  0  0  0  0  0
  -28.4400  -13.8086   21.8327 H   0  0  0  0  0  0
  -25.2779   -9.5682   22.4770 H   0  0  0  0  0  0
  -24.0037   -7.4608   22.7437 H   0  0  0  0  0  0
  -21.0867   -8.8770   19.8922 H   0  0  0  0  0  0
  -22.3715  -10.9692   19.6157 H   0  0  0  0  0  0
  -21.2006   -7.6162   23.9708 H   0  0  0  0  0  0
  -21.1473   -6.0547   25.9082 H   0  0  0  0  0  0
  -22.0596   -2.7612   23.2859 H   0  0  0  0  0  0
  -22.4151  -11.9750   22.4791 H   0  0  0  0  0  0
  -21.1079  -13.1044   22.2678 H   0  0  0  0  0  0
  -24.6309  -15.8299   20.4711 H   0  0  0  0  0  0
  -26.2367  -15.6052   20.0060 H   0  0  0  0  0  0
  -26.7160  -32.5448   23.1120 H   0  0  0  0  0  0
  -24.9965  -33.9759   25.0367 H   0  0  0  0  0  0
  -22.7057  -31.3056   21.3989 H   0  0  0  0  0  0
  -23.3718  -35.9687   23.3288 H   0  0  0  0  0  0
  -24.3590  -36.8971   22.2059 H   0  0  0  0  0  0
  -23.7301  -37.6526   23.6680 H   0  0  0  0  0  0
  -26.0766  -31.5642   20.5987 H   0  0  0  0  0  0
  -26.8342  -30.8536   21.9958 H   0  0  0  0  0  0
  -28.0975  -29.0079   21.2061 H   0  0  0  0  0  0
  -26.0275  -25.9847   18.9356 H   0  0  0  0  0  0
  -23.9912  -27.3195   18.9779 H   0  0  0  0  0  0
  -23.7363  -30.5849   19.3959 H   0  0  0  0  0  0
  -22.7472  -29.2389   19.8682 H   0  0  0  0  0  0
  -25.1297  -36.1920   25.0802 H   0  0  0  0  0  0
  -20.9968  -28.3197   24.1390 H   0  0  0  0  0  0
  -20.5788  -26.2217   23.3531 H   0  0  0  0  0  0
  -21.6607  -26.7492   22.1092 H   0  0  0  0  0  0
  -19.6845  -25.6391   21.1120 H   0  0  0  0  0  0
  -19.6556  -27.3242   20.6772 H   0  0  0  0  0  0
  -17.4123  -26.6531   21.4302 H   0  0  0  0  0  0
  -18.0557  -25.9974   22.9221 H   0  0  0  0  0  0
  -19.7970  -30.7219   24.2241 H   0  0  0  0  0  0
  -17.5053  -31.6263   24.5167 H   0  0  0  0  0  0
  -15.5371  -30.2990   23.7691 H   0  0  0  0  0  0
  -15.8680  -28.0798   22.7162 H   0  0  0  0  0  0
  -24.5842  -30.7093   25.7770 H   0  0  0  0  0  0
  -24.8961  -32.2858   26.4930 H   0  0  0  0  0  0
  -25.8047  -30.8797   27.0196 H   0  0  0  0  0  0
  -26.2849  -29.6750   24.1137 H   0  0  0  0  0  0
  -27.4067  -29.7196   25.4540 H   0  0  0  0  0  0
  -27.8678  -30.4288   23.9235 H   0  0  0  0  0  0
  -27.2583  -33.3573   26.2078 H   0  0  0  0  0  0
  -28.3778  -32.6963   25.0265 H   0  0  0  0  0  0
  -28.0745  -31.8439   26.5363 H   0  0  0  0  0  0
  -28.2589  -38.0123   24.7480 H   0  0  0  0  0  0
  -28.1104  -36.2643   24.6292 H   0  0  0  0  0  0
  -27.2313  -37.1468   25.8873 H   0  0  0  0  0  0
  -20.9313  -29.8746   21.6899 H   0  0  0  0  0  0
  -26.0170  -38.2833   24.1358 H   0  0  0  0  0  0
  -25.2104  -17.9690   19.5010 H   0  0  0  0  0  0
  -26.4508  -17.3065   18.4361 H   0  0  0  0  0  0
  -26.2310  -19.0543   18.5752 H   0  0  0  0  0  0
  -34.4137  -17.6749   22.2341 H   0  0  0  0  0  0
  -33.1348  -17.9084   23.4168 H   0  0  0  0  0  0
  -33.2067  -18.9121   21.9598 H   0  0  0  0  0  0
  -26.4220  -22.4993   19.4742 H   0  0  0  0  0  0
  -27.5097  -22.8834   18.1443 H   0  0  0  0  0  0
  -26.2748  -24.0105   18.6499 H   0  0  0  0  0  0
  -27.7461  -21.4634   21.4265 H   0  0  0  0  0  0
  -28.0548  -20.9249   19.8024 H   0  0  0  0  0  0
  -27.1284  -17.2916   20.9180 H   0  0  0  0  0  0
  -26.9466  -19.0097   20.9248 H   0  0  0  0  0  0
  -32.8919  -15.8941   21.8976 H   0  0  0  0  0  0
  -32.6915  -16.9870   20.5456 H   0  0  0  0  0  0
  -29.7700  -22.6670   19.4819 H   0  0  0  0  0  0
  -29.7217  -23.1217   21.1566 H   0  0  0  0  0  0
  -28.7678  -18.9423   18.9344 H   0  0  0  0  0  0
  -29.1049  -17.3402   19.5359 H   0  0  0  0  0  0
  -28.2844  -25.4285   18.4197 H   0  0  0  0  0  0
  -29.6519  -25.1806   19.4070 H   0  0  0  0  0  0
  -30.8566  -16.6314   22.9096 H   0  0  0  0  0  0
  -27.4849  -24.1155   20.9418 H   0  0  0  0  0  0
  -29.2610  -15.5590   21.5752 H   0  0  0  0  0  0
  1 25  1  0  0  0
  1 30  2  0  0  0
  1 87  1  0  0  0
  2  3  1  0  0  0
  2 25  1  0  0  0
  2 88  1  0  0  0
  2 89  1  0  0  0
  3  4  1  0  0  0
  3 90  1  0  0  0
  3 91  1  0  0  0
  4  5  1  0  0  0
  4 92  1  0  0  0
  4 93  1  0  0  0
  5  6  1  0  0  0
  5 26  1  0  0  0
  5 94  1  0  0  0
  6 25  1  0  0  0
  6 95  1  0  0  0
  6 96  1  0  0  0
  7  8  2  0  0  0
  7 26  1  0  0  0
  7 29  1  0  0  0
  8  9  1  0  0  0
  8 22  1  0  0  0
  9 10  1  0  0  0
  9 27  2  0  0  0
 10 11  2  0  0  0
 10 15  1  0  0  0
 11 12  1  0  0  0
 11 97  1  0  0  0
 12 13  2  0  0  0
 12 98  1  0  0  0
 13 14  1  0  0  0
 13 31  1  0  0  0
 14 15  2  0  0  0
 14 99  1  0  0  0
 15100  1  0  0  0
 16 17  2  0  0  0
 16 21  1  0  0  0
 16 31  1  0  0  0
 17 18  1  0  0  0
 17101  1  0  0  0
 18 19  2  0  0  0
 18102  1  0  0  0
 19 20  1  0  0  0
 19 24  1  0  0  0
 20 21  2  0  0  0
 20103  1  0  0  0
 21 23  1  0  0  0
 22 28  1  0  0  0
 22 32  2  0  0  0
 26 27  1  0  0  0
 28104  1  0  0  0
 28105  1  0  0  0
 29106  1  0  0  0
 29107  1  0  0  0
 33 34  1  0  0  0
 33 66  1  0  0  0
 33 70  2  0  0  0
 34 36  1  0  0  0
 34 59  1  0  0  0
 34108  1  0  0  0
 35 44  2  0  0  0
 35 45  1  0  0  0
 35 68  1  0  0  0
 36 56  1  0  0  0
 36109  1  0  0  0
 37 39  1  0  0  0
 37 47  1  0  0  0
 37 66  1  0  0  0
 37110  1  0  0  0
 38 43  2  0  0  0
 38 46  1  0  0  0
 38 47  1  0  0  0
 39 64  1  0  0  0
 39 67  2  0  0  0
 40 52  1  0  0  0
 40 53  2  0  0  0
 40 58  1  0  0  0
 41111  1  0  0  0
 41112  1  0  0  0
 41113  1  0  0  0
 41 48  1  0  0  0
 42 43  1  0  0  0
 42 66  1  0  0  0
 42114  1  0  0  0
 42115  1  0  0  0
 43 44  1  0  0  0
 44116  1  0  0  0
 45 46  2  0  0  0
 45117  1  0  0  0
 46118  1  0  0  0
 47119  1  0  0  0
 47120  1  0  0  0
 48 56  1  0  0  0
 48 65  1  0  0  0
 48121  1  0  0  0
 49 50  1  0  0  0
 49 53  1  0  0  0
 49 64  1  0  0  0
 49122  1  0  0  0
 50 51  1  0  0  0
 50123  1  0  0  0
 50124  1  0  0  0
 51 52  1  0  0  0
 51125  1  0  0  0
 51126  1  0  0  0
 52127  1  0  0  0
 52128  1  0  0  0
 53 54  1  0  0  0
 54 55  2  0  0  0
 54129  1  0  0  0
 55 57  1  0  0  0
 55130  1  0  0  0
 56 69  2  0  0  0
 57 58  2  0  0  0
 57131  1  0  0  0
 58132  1  0  0  0
 59 60  1  0  0  0
 59 61  1  0  0  0
 59 62  1  0  0  0
 60133  1  0  0  0
 60134  1  0  0  0
 60135  1  0  0  0
 61136  1  0  0  0
 61137  1  0  0  0
 61138  1  0  0  0
 62139  1  0  0  0
 62140  1  0  0  0
 62141  1  0  0  0
 63 65  1  0  0  0
 63142  1  0  0  0
 63143  1  0  0  0
 63144  1  0  0  0
 64145  1  0  0  0
 65146  1  0  0  0
 68 81  1  0  0  0
 71 76  1  0  0  0
 71 84  2  0  0  0
 71 86  1  0  0  0
 72 82  1  0  0  0
 72 85  2  0  0  0
 72 86  1  0  0  0
 73 77  1  0  0  0
 73147  1  0  0  0
 73148  1  0  0  0
 73149  1  0  0  0
 74 78  1  0  0  0
 74150  1  0  0  0
 74151  1  0  0  0
 74152  1  0  0  0
 75153  1  0  0  0
 75154  1  0  0  0
 75155  1  0  0  0
 75 83  1  0  0  0
 76 79  1  0  0  0
 76156  1  0  0  0
 76157  1  0  0  0
 77 80  1  0  0  0
 77158  1  0  0  0
 77159  1  0  0  0
 78160  1  0  0  0
 78161  1  0  0  0
 78 82  1  0  0  0
 79 83  1  0  0  0
 79162  1  0  0  0
 79163  1  0  0  0
 80 86  1  0  0  0
 80164  1  0  0  0
 80165  1  0  0  0
 81 83  1  0  0  0
 81166  1  0  0  0
 81167  1  0  0  0
 82 87  1  0  0  0
 82168  1  0  0  0
 83169  1  0  0  0
 84 85  1  0  0  0
 87170  1  0  0  0
M  ISO  4   1 100  68 101  81 101  87 100
M  END
> <chiral flag>
0

> <version>
0

> <s_m_source_file>
/data/baiqing/PycharmProjects/Reinvent-master-3.2/result/LINK_invent/BTK/process_docking_weight1_custom_sum_contain_oxygen_bond_distance_aromatic_linkinvent_7_9_3/rearranged_h_0070.sdf

> <i_m_source_file_index>
45

> <r_mmod_Potential_Energy-OPLS-2005>
55.7993202209473

> <r_mmod_Stretch_Energy-OPLS-2005>
84.2670135498047

> <r_mmod_Bend_Energy-OPLS-2005>
207.711761474609

> <r_mmod_Torsional_Energy-OPLS-2005>
221.210601806641

> <r_mmod_Improper_Torsional_Energy-OPLS-2005>
4.14251804351807

> <r_mmod_Van_der_Waal_Energy-OPLS-2005>
132.204574584961

> <r_mmod_Electrostatic_Energy-OPLS-2005>
-406.901245117188

> <r_mmod_Solvation_Energy-OPLS-2005>
-224.064834594727

> <b_mmod_Minimization_Converged-OPLS-2005>
0

> <r_mmod_RMS_Derivative-OPLS-2005>
4.69391632080078

$$$$
45
                    3D
 Structure written by MMmdl.
168176  0  0  1  0            999 V2000
  -29.6718  -15.8007   20.9311 C   0  0  0  0  0  0
  -30.3129  -13.3453   19.7627 C   0  0  0  0  0  0
  -29.5655  -12.8085   18.4854 C   0  0  0  0  0  0
  -28.1468  -12.3309   18.8220 C   0  0  0  0  0  0
  -27.5346  -13.2811   19.8684 C   0  0  2  0  0  0
  -28.4147  -13.5135   21.0986 C   0  0  0  0  0  0
  -25.1933  -13.8168   20.5669 C   0  0  0  0  0  0
  -24.1396  -13.0361   20.9280 C   0  0  0  0  0  0
  -24.6089  -11.6875   20.8767 C   0  0  0  0  0  0
  -23.8907  -10.4248   21.0442 C   0  0  0  0  0  0
  -24.3541   -9.4185   21.9192 C   0  0  0  0  0  0
  -23.6270   -8.2207   22.0751 C   0  0  0  0  0  0
  -22.4241   -8.0232   21.3548 C   0  0  0  0  0  0
  -21.9833   -9.0176   20.4639 C   0  0  0  0  0  0
  -22.7123  -10.2078   20.3060 C   0  0  0  0  0  0
  -21.6844   -6.0714   22.5281 C   0  0  0  0  0  0
  -21.4002   -6.5626   23.8209 C   0  0  0  0  0  0
  -21.3652   -5.6786   24.9178 C   0  0  0  0  0  0
  -21.6044   -4.3048   24.7235 C   0  0  0  0  0  0
  -21.8825   -3.8129   23.4360 C   0  0  0  0  0  0
  -21.9193   -4.6944   22.3410 C   0  0  0  0  0  0
  -22.7494  -13.5156   21.1998 C   0  0  0  0  0  0
  -22.1656   -4.2139   21.0989 F   0  0  0  0  0  0
  -21.5632   -3.4527   25.7748 F   0  0  0  0  0  0
  -29.4804  -14.3637   20.6152 N   0  0  0  0  0  0
  -26.2163  -12.9350   20.2966 N   0  0  0  0  0  0
  -25.8946  -11.6481   20.5587 N   0  0  0  0  0  0
  -22.0180  -12.8125   22.0577 N   0  0  0  0  0  0
  -25.3650  -15.1928   20.4098 N   0  0  0  0  0  0
  -30.9031  -15.9494   20.6681 O   0  0  0  0  0  0
  -21.6618   -6.8833   21.4243 O   0  0  0  0  0  0
  -22.3209  -14.5496   20.6872 O   0  0  0  0  0  0
  -24.8256  -31.8422   23.2569 C   0  0  0  0  0  0
  -26.0249  -32.5204   23.9146 C   0  0  1  0  0  0
  -25.4246  -27.4552   20.4227 C   0  0  0  0  0  0
  -25.6363  -33.8860   24.2710 N   0  0  0  0  0  0
  -24.1235  -30.0231   21.7979 C   0  0  2  0  0  0
  -25.4143  -29.7061   19.5258 C   0  0  0  0  0  0
  -24.0638  -28.3644   22.5871 C   0  0  0  0  0  0
  -18.2166  -27.8748   22.6861 C   0  0  0  0  0  0
  -24.1471  -36.7391   23.2578 C   0  0  0  0  0  0
  -26.3692  -30.7901   21.5601 C   0  0  0  0  0  0
  -26.3278  -29.6359   20.5646 C   0  0  0  0  0  0
  -26.4848  -28.3099   20.9693 C   0  0  0  0  0  0
  -25.7625  -27.3050   19.1071 C   0  0  0  0  0  0
  -25.3394  -28.5654   18.6281 C   0  0  0  0  0  0
  -24.1899  -30.3302   20.1393 C   0  0  0  0  0  0
  -25.4021  -36.3184   24.0348 C   0  0  1  0  0  0
  -20.9904  -27.1858   22.7464 C   0  0  2  0  0  0
  -20.5894  -26.1452   21.8202 C   0  0  0  0  0  0
  -19.3327  -26.4191   21.0547 C   0  0  0  0  0  0
  -18.1301  -26.5843   21.9531 C   0  0  0  0  0  0
  -19.5358  -28.2670   23.1268 C   0  0  0  0  0  0
  -19.2677  -29.4534   23.9896 C   0  0  0  0  0  0
  -18.0647  -30.2412   24.1103 C   0  0  0  0  0  0
  -25.9065  -34.9594   23.5205 C   0  0  0  0  0  0
  -16.8711  -29.7780   23.5552 C   0  0  0  0  0  0
  -16.9658  -28.5504   22.8924 C   0  0  0  0  0  0
  -26.5037  -31.7039   25.1686 C   0  0  0  0  0  0
  -25.3749  -31.3824   26.1823 C   0  0  0  0  0  0
  -27.1704  -30.3695   24.7639 C   0  0  0  0  0  0
  -27.6073  -32.5119   25.8728 C   0  0  0  0  0  0
  -27.5546  -37.1892   24.8472 C   0  0  0  0  0  0
  -22.8546  -27.2471   22.4543 N   0  0  0  0  0  0
  -26.4224  -37.3845   23.9443 N   0  0  0  0  0  0
  -25.1073  -30.9072   22.3146 N   0  0  0  0  0  0
  -24.7921  -28.3101   23.5214 O   0  0  0  0  0  0
  -23.8795  -27.8105   20.2846 O   0  0  0  0  0  0
  -26.5462  -34.8976   22.4664 O   0  0  0  0  0  0
  -23.6861  -32.1243   23.6742 O   0  0  0  0  0  0
  -23.7955  -24.5702   23.6100 C   0  0  0  0  0  0
  -24.9934  -23.5696   23.7222 C   0  0  0  0  0  0
  -24.8225  -25.6352   25.1147 C   0  0  0  0  0  0
  -25.3405  -26.5435   26.1856 C   0  0  0  0  0  0
  -21.5762  -27.4305   25.8732 C   0  0  0  0  0  0
  -26.3338  -21.4408   24.7744 C   0  0  0  0  0  0
  -26.8548  -20.3444   22.2392 C   0  0  0  0  0  0
  -21.9656  -29.2671   23.2795 C   0  0  0  0  0  0
  -28.0587  -18.6047   22.2098 C   0  0  0  0  0  0
  -22.2001  -28.8569   20.9998 C   0  0  0  0  0  0
  -22.6052  -27.6651   24.7390 C   0  0  2  0  0  0
  -25.7523  -21.7214   23.3875 C   0  0  2  0  0  0
  -23.6598  -25.9278   24.4430 N   0  0  0  0  0  0
  -25.4981  -24.4473   24.7197 N   0  3  0  0  0  0
  -24.5329  -20.9467   23.3229 N   0  0  0  0  0  0
  -28.5722  -16.9466   21.3937 N   0  0  0  0  0  0
  -31.2313  -13.8277   19.4307 H   0  0  0  0  0  0
  -30.6409  -12.5181   20.3947 H   0  0  0  0  0  0
  -30.1458  -12.0197   18.0071 H   0  0  0  0  0  0
  -29.4970  -13.6235   17.7636 H   0  0  0  0  0  0
  -28.2052  -11.3202   19.2334 H   0  0  0  0  0  0
  -27.5277  -12.2807   17.9261 H   0  0  0  0  0  0
  -27.4301  -14.2305   19.3392 H   0  0  0  0  0  0
  -28.7496  -12.5837   21.5597 H   0  0  0  0  0  0
  -27.8691  -14.0569   21.8716 H   0  0  0  0  0  0
  -25.2691   -9.5710   22.4765 H   0  0  0  0  0  0
  -24.0000   -7.4601   22.7452 H   0  0  0  0  0  0
  -21.0772   -8.8675   19.8944 H   0  0  0  0  0  0
  -22.3557  -10.9623   19.6176 H   0  0  0  0  0  0
  -21.1977   -7.6134   23.9708 H   0  0  0  0  0  0
  -21.1473   -6.0517   25.9085 H   0  0  0  0  0  0
  -22.0614   -2.7596   23.2854 H   0  0  0  0  0  0
  -22.3814  -11.9778   22.4935 H   0  0  0  0  0  0
  -21.0823  -13.1141   22.2857 H   0  0  0  0  0  0
  -24.5731  -15.8232   20.4864 H   0  0  0  0  0  0
  -26.1291  -15.5890   19.8791 H   0  0  0  0  0  0
  -26.8726  -32.5842   23.2349 H   0  0  0  0  0  0
  -25.0613  -33.9967   25.0947 H   0  0  0  0  0  0
  -23.2551  -30.6545   21.9541 H   0  0  0  0  0  0
  -23.3705  -35.9774   23.3243 H   0  0  0  0  0  0
  -24.3684  -36.9033   22.2021 H   0  0  0  0  0  0
  -23.7236  -37.6618   23.6547 H   0  0  0  0  0  0
  -26.5473  -31.7171   21.0062 H   0  0  0  0  0  0
  -27.2355  -30.6405   22.1883 H   0  0  0  0  0  0
  -26.9064  -28.1015   21.9416 H   0  0  0  0  0  0
  -25.3641  -26.4843   18.5272 H   0  0  0  0  0  0
  -24.6952  -28.5834   17.7606 H   0  0  0  0  0  0
  -24.2584  -31.4131   19.9864 H   0  0  0  0  0  0
  -23.4139  -30.0770   19.4214 H   0  0  0  0  0  0
  -25.1120  -36.2129   25.0836 H   0  0  0  0  0  0
  -20.9066  -26.5490   23.6196 H   0  0  0  0  0  0
  -20.4735  -25.1742   22.3066 H   0  0  0  0  0  0
  -21.3726  -25.9722   21.0849 H   0  0  0  0  0  0
  -19.1624  -25.5520   20.4155 H   0  0  0  0  0  0
  -19.4371  -27.2685   20.3814 H   0  0  0  0  0  0
  -17.2270  -26.5574   21.3406 H   0  0  0  0  0  0
  -18.0606  -25.7503   22.6493 H   0  0  0  0  0  0
  -20.0016  -29.7510   24.7232 H   0  0  0  0  0  0
  -18.0654  -31.1230   24.7369 H   0  0  0  0  0  0
  -15.9366  -30.3112   23.6758 H   0  0  0  0  0  0
  -16.0573  -28.1150   22.4953 H   0  0  0  0  0  0
  -24.7292  -30.5697   25.8375 H   0  0  0  0  0  0
  -24.7375  -32.2494   26.3757 H   0  0  0  0  0  0
  -25.7854  -31.0677   27.1444 H   0  0  0  0  0  0
  -26.5263  -29.7083   24.2047 H   0  0  0  0  0  0
  -27.4795  -29.8061   25.6449 H   0  0  0  0  0  0
  -28.0741  -30.5399   24.1793 H   0  0  0  0  0  0
  -27.2199  -33.4366   26.3023 H   0  0  0  0  0  0
  -28.4065  -32.7884   25.1795 H   0  0  0  0  0  0
  -28.0562  -31.9533   26.6971 H   0  0  0  0  0  0
  -28.2513  -38.0234   24.7502 H   0  0  0  0  0  0
  -28.1072  -36.2756   24.6233 H   0  0  0  0  0  0
  -27.2307  -37.1530   25.8896 H   0  0  0  0  0  0
  -23.2350  -26.3285   22.6101 H   0  0  0  0  0  0
  -26.0135  -38.2930   24.1497 H   0  0  0  0  0  0
  -22.9723  -24.3421   22.9457 H   0  0  0  0  0  0
  -25.8882  -25.9746   26.9372 H   0  0  0  0  0  0
  -24.5054  -27.0399   26.6770 H   0  0  0  0  0  0
  -25.9651  -27.2967   25.7084 H   0  0  0  0  0  0
  -21.6859  -28.1680   26.6652 H   0  0  0  0  0  0
  -21.7381  -26.4659   26.3520 H   0  0  0  0  0  0
  -20.5440  -27.4874   25.5355 H   0  0  0  0  0  0
  -27.2530  -22.0057   24.9166 H   0  0  0  0  0  0
  -26.5765  -20.3880   24.9213 H   0  0  0  0  0  0
  -25.6429  -21.7392   25.5646 H   0  0  0  0  0  0
  -26.1882  -20.1674   21.3953 H   0  0  0  0  0  0
  -27.5761  -21.0422   21.8126 H   0  0  0  0  0  0
  -21.3388  -30.1168   23.4237 H   0  0  0  0  0  0
  -22.6501  -29.9838   23.7176 H   0  0  0  0  0  0
  -27.8156  -18.2080   23.1957 H   0  0  0  0  0  0
  -29.0445  -19.0395   22.3714 H   0  0  0  0  0  0
  -21.8385  -29.7556   20.5008 H   0  0  0  0  0  0
  -21.3649  -28.2853   20.6127 H   0  0  0  0  0  0
  -23.3108  -28.2569   25.3218 H   0  0  0  0  0  0
  -26.3553  -24.1907   25.1953 H   0  0  0  0  0  0
  -23.7814  -21.5647   23.6053 H   0  0  0  0  0  0
  -24.5893  -20.2446   24.0498 H   0  0  0  0  0  0
  -27.7029  -16.4314   21.3293 H   0  0  0  0  0  0
  1 25  1  0  0  0
  1 30  2  0  0  0
  1 86  1  0  0  0
  2  3  1  0  0  0
  2 25  1  0  0  0
  2 87  1  0  0  0
  2 88  1  0  0  0
  3  4  1  0  0  0
  3 89  1  0  0  0
  3 90  1  0  0  0
  4  5  1  0  0  0
  4 91  1  0  0  0
  4 92  1  0  0  0
  5  6  1  0  0  0
  5 26  1  0  0  0
  5 93  1  0  0  0
  6 25  1  0  0  0
  6 94  1  0  0  0
  6 95  1  0  0  0
  7  8  2  0  0  0
  7 26  1  0  0  0
  7 29  1  0  0  0
  8  9  1  0  0  0
  8 22  1  0  0  0
  9 10  1  0  0  0
  9 27  2  0  0  0
 10 11  2  0  0  0
 10 15  1  0  0  0
 11 12  1  0  0  0
 11 96  1  0  0  0
 12 13  2  0  0  0
 12 97  1  0  0  0
 13 14  1  0  0  0
 13 31  1  0  0  0
 14 15  2  0  0  0
 14 98  1  0  0  0
 15 99  1  0  0  0
 16 17  2  0  0  0
 16 21  1  0  0  0
 16 31  1  0  0  0
 17 18  1  0  0  0
 17100  1  0  0  0
 18 19  2  0  0  0
 18101  1  0  0  0
 19 20  1  0  0  0
 19 24  1  0  0  0
 20 21  2  0  0  0
 20102  1  0  0  0
 21 23  1  0  0  0
 22 28  1  0  0  0
 22 32  2  0  0  0
 26 27  1  0  0  0
 28103  1  0  0  0
 28104  1  0  0  0
 29105  1  0  0  0
 29106  1  0  0  0
 33 34  1  0  0  0
 33 66  1  0  0  0
 33 70  2  0  0  0
 34 36  1  0  0  0
 34 59  1  0  0  0
 34107  1  0  0  0
 35 44  2  0  0  0
 35 45  1  0  0  0
 35 68  1  0  0  0
 36 56  1  0  0  0
 36108  1  0  0  0
 37 39  1  0  0  0
 37 47  1  0  0  0
 37 66  1  0  0  0
 37109  1  0  0  0
 38 43  2  0  0  0
 38 46  1  0  0  0
 38 47  1  0  0  0
 39 64  1  0  0  0
 39 67  2  0  0  0
 40 52  1  0  0  0
 40 53  2  0  0  0
 40 58  1  0  0  0
 41110  1  0  0  0
 41111  1  0  0  0
 41112  1  0  0  0
 41 48  1  0  0  0
 42 43  1  0  0  0
 42 66  1  0  0  0
 42113  1  0  0  0
 42114  1  0  0  0
 43 44  1  0  0  0
 44115  1  0  0  0
 45 46  2  0  0  0
 45116  1  0  0  0
 46117  1  0  0  0
 47118  1  0  0  0
 47119  1  0  0  0
 48 56  1  0  0  0
 48 65  1  0  0  0
 48120  1  0  0  0
 49 50  1  0  0  0
 49 53  1  0  0  0
 49 64  1  0  0  0
 49121  1  0  0  0
 50 51  1  0  0  0
 50122  1  0  0  0
 50123  1  0  0  0
 51 52  1  0  0  0
 51124  1  0  0  0
 51125  1  0  0  0
 52126  1  0  0  0
 52127  1  0  0  0
 53 54  1  0  0  0
 54 55  2  0  0  0
 54128  1  0  0  0
 55 57  1  0  0  0
 55129  1  0  0  0
 56 69  2  0  0  0
 57 58  2  0  0  0
 57130  1  0  0  0
 58131  1  0  0  0
 59 60  1  0  0  0
 59 61  1  0  0  0
 59 62  1  0  0  0
 60132  1  0  0  0
 60133  1  0  0  0
 60134  1  0  0  0
 61135  1  0  0  0
 61136  1  0  0  0
 61137  1  0  0  0
 62138  1  0  0  0
 62139  1  0  0  0
 62140  1  0  0  0
 63 65  1  0  0  0
 63141  1  0  0  0
 63142  1  0  0  0
 63143  1  0  0  0
 64144  1  0  0  0
 65145  1  0  0  0
 68 80  1  0  0  0
 71 72  2  0  0  0
 71 83  1  0  0  0
 71146  1  0  0  0
 72 82  1  0  0  0
 72 84  1  0  0  0
 73 74  1  0  0  0
 73 83  1  0  0  0
 73 84  2  0  0  0
 74147  1  0  0  0
 74148  1  0  0  0
 74149  1  0  0  0
 75150  1  0  0  0
 75151  1  0  0  0
 75152  1  0  0  0
 75 81  1  0  0  0
 76153  1  0  0  0
 76154  1  0  0  0
 76155  1  0  0  0
 76 82  1  0  0  0
 77 79  1  0  0  0
 77 82  1  0  0  0
 77156  1  0  0  0
 77157  1  0  0  0
 78 80  1  0  0  0
 78 81  1  0  0  0
 78158  1  0  0  0
 78159  1  0  0  0
 79 86  1  0  0  0
 79160  1  0  0  0
 79161  1  0  0  0
 80162  1  0  0  0
 80163  1  0  0  0
 81 83  1  0  0  0
 81164  1  0  0  0
 82 85  1  0  0  0
 84165  1  0  0  0
 85166  1  0  0  0
 85167  1  0  0  0
 86168  1  0  0  0
M  CHG  1  84   1
M  ISO  4   1 100  68 101  80 101  86 100
M  END
> <chiral flag>
0

> <version>
0

> <s_m_source_file>
/data/baiqing/PycharmProjects/Reinvent-master-3.2/result/LINK_invent/BTK/process_docking_weight1_custom_sum_contain_oxygen_bond_distance_aromatic_linkinvent_7_9_3/rearranged_h_0070.sdf

> <i_m_source_file_index>
46

> <r_mmod_Potential_Energy-OPLS-2005>
14610.1572265625

> <r_mmod_Stretch_Energy-OPLS-2005>
5282.6513671875

> <r_mmod_Bend_Energy-OPLS-2005>
1712.60131835938

> <r_mmod_Torsional_Energy-OPLS-2005>
705.564758300781

> <r_mmod_Improper_Torsional_Energy-OPLS-2005>
88.0557098388672

> <r_mmod_Van_der_Waal_Energy-OPLS-2005>
1795.16101074219

> <r_mmod_Electrostatic_Energy-OPLS-2005>
-362.953430175781

> <r_mmod_Solvation_Energy-OPLS-2005>
-425.364379882812

> <b_mmod_Minimization_Converged-OPLS-2005>
0

> <r_mmod_RMS_Derivative-OPLS-2005>
10.0881958007812

$$$$
46
                    3D
 Structure written by MMmdl.
176184  0  0  1  0            999 V2000
  -30.7405  -14.5968   20.6115 C   0  0  0  0  0  0
  -30.4142  -12.3943   19.4776 C   0  0  0  0  0  0
  -29.5091  -12.5327   18.2356 C   0  0  0  0  0  0
  -28.0332  -12.3505   18.6272 C   0  0  0  0  0  0
  -27.6482  -13.2199   19.8523 C   0  0  2  0  0  0
  -28.6856  -13.0834   20.9944 C   0  0  0  0  0  0
  -25.2336  -13.8050   20.5384 C   0  0  0  0  0  0
  -24.1738  -13.0308   20.9108 C   0  0  0  0  0  0
  -24.6399  -11.6838   20.8712 C   0  0  0  0  0  0
  -23.9087  -10.4239   21.0389 C   0  0  0  0  0  0
  -24.3633   -9.4178   21.9179 C   0  0  0  0  0  0
  -23.6291   -8.2232   22.0765 C   0  0  0  0  0  0
  -22.4275   -8.0274   21.3555 C   0  0  0  0  0  0
  -21.9913   -9.0240   20.4651 C   0  0  0  0  0  0
  -22.7252  -10.2100   20.3044 C   0  0  0  0  0  0
  -21.6848   -6.0741   22.5290 C   0  0  0  0  0  0
  -21.4009   -6.5644   23.8224 C   0  0  0  0  0  0
  -21.3648   -5.6795   24.9181 C   0  0  0  0  0  0
  -21.6036   -4.3058   24.7225 C   0  0  0  0  0  0
  -21.8817   -3.8157   23.4347 C   0  0  0  0  0  0
  -21.9194   -4.6976   22.3407 C   0  0  0  0  0  0
  -22.7781  -13.5126   21.1815 C   0  0  0  0  0  0
  -22.1671   -4.2164   21.0979 F   0  0  0  0  0  0
  -21.5616   -3.4542   25.7736 F   0  0  0  0  0  0
  -30.0179  -13.4271   20.4718 N   0  0  0  0  0  0
  -26.2916  -12.9355   20.3175 N   0  0  0  0  0  0
  -25.9337  -11.6497   20.5732 N   0  0  0  0  0  0
  -22.0473  -12.8146   22.0416 N   0  0  0  0  0  0
  -25.3497  -15.1719   20.3397 N   0  0  0  0  0  0
  -31.8089  -14.6748   19.9993 O   0  0  0  0  0  0
  -21.6632   -6.8880   21.4257 O   0  0  0  0  0  0
  -22.3449  -14.5444   20.6686 O   0  0  0  0  0  0
  -24.6207  -31.8609   23.2027 C   0  0  0  0  0  0
  -25.9080  -32.4772   23.8343 C   0  0  1  0  0  0
  -27.2376  -27.3657   20.1152 C   0  0  0  0  0  0
  -25.5913  -33.8571   24.2279 N   0  0  0  0  0  0
  -23.4119  -30.4846   21.5417 C   0  0  2  0  0  0
  -24.8605  -28.9435   20.1062 C   0  0  0  0  0  0
  -22.7448  -29.4610   22.4909 C   0  0  0  0  0  0
  -18.0280  -28.1363   22.8439 C   0  0  0  0  0  0
  -24.1495  -36.7309   23.2636 C   0  0  0  0  0  0
  -25.9467  -30.8099   21.3616 C   0  0  0  0  0  0
  -26.0256  -29.4397   20.7068 C   0  0  0  0  0  0
  -27.2131  -28.6601   20.7025 C   0  0  0  0  0  0
  -26.0522  -26.9055   19.4953 C   0  0  0  0  0  0
  -24.8755  -27.6784   19.4928 C   0  0  0  0  0  0
  -23.6260  -29.8194   20.1551 C   0  0  0  0  0  0
  -25.4103  -36.3072   24.0343 C   0  0  1  0  0  0
  -20.5892  -28.3659   23.1268 C   0  0  2  0  0  0
  -20.6772  -26.9383   22.5396 C   0  0  0  0  0  0
  -19.5751  -26.6360   21.5195 C   0  0  0  0  0  0
  -18.1922  -26.7900   22.1599 C   0  0  0  0  0  0
  -19.1535  -28.8815   23.2839 C   0  0  0  0  0  0
  -18.9465  -30.1407   23.8878 C   0  0  0  0  0  0
  -17.6481  -30.6561   24.0542 C   0  0  0  0  0  0
  -25.9049  -34.9449   23.5106 C   0  0  0  0  0  0
  -16.5362  -29.9069   23.6323 C   0  0  0  0  0  0
  -16.7277  -28.6498   23.0304 C   0  0  0  0  0  0
  -26.4491  -31.6566   25.0701 C   0  0  0  0  0  0
  -25.3755  -31.3713   26.1459 C   0  0  0  0  0  0
  -27.0315  -30.2997   24.6093 C   0  0  0  0  0  0
  -27.6028  -32.4301   25.7482 C   0  0  0  0  0  0
  -27.5573  -37.1798   24.8455 C   0  0  0  0  0  0
  -21.4168  -29.3020   22.3662 N   0  0  0  0  0  0
  -26.4281  -37.3765   23.9420 N   0  0  0  0  0  0
  -24.6790  -31.0660   22.0958 N   0  0  0  0  0  0
  -23.4204  -28.8152   23.2956 O   0  0  0  0  0  0
  -28.3799  -26.5617   20.1834 O   0  0  0  0  0  0
  -26.5598  -34.8920   22.4662 O   0  0  0  0  0  0
  -23.5379  -32.1413   23.7381 O   0  0  0  0  0  0
  -30.4867  -18.9634   19.5512 C   0  0  0  0  0  0
  -30.4944  -20.3537   19.2590 C   0  0  0  0  0  0
  -29.6417  -18.4655   20.5611 C   0  0  0  0  0  0
  -29.6058  -21.2092   19.9854 C   0  0  0  0  0  0
  -35.0997  -21.8777   18.9328 C   0  0  0  0  0  0
  -27.8925  -16.7190   21.0943 C   0  0  0  0  0  0
  -33.5426  -19.6385   17.4144 C   0  0  0  0  0  0
  -29.9069  -15.5309   22.9065 C   0  0  0  0  0  0
  -31.6996  -16.6826   21.7183 C   0  0  0  0  0  0
  -31.3964  -20.8057   18.1140 C   0  0  0  0  0  0
  -29.2470  -22.6685   19.5257 C   0  0  0  0  0  0
  -33.6359  -21.9663   18.4781 C   0  0  0  0  0  0
  -28.8689  -23.7883   20.5672 C   0  0  0  0  0  0
  -28.2468  -25.1205   19.9404 C   0  0  0  0  0  0
  -29.3647  -16.9207   20.7129 C   0  0  2  0  0  0
  -32.9038  -20.6085   18.4253 C   0  0  2  0  0  0
  -30.3677  -15.9114   21.4677 C   0  0  0  0  0  0
  -28.9094  -19.3530   21.2995 N   0  0  0  0  0  0
  -28.8577  -20.6688   20.9896 N   0  0  0  0  0  0
  -31.4602  -12.4632   19.1775 H   0  0  0  0  0  0
  -30.3133  -11.3979   19.9100 H   0  0  0  0  0  0
  -29.7913  -11.8000   17.4783 H   0  0  0  0  0  0
  -29.6562  -13.5137   17.7819 H   0  0  0  0  0  0
  -27.8763  -11.2953   18.8507 H   0  0  0  0  0  0
  -27.3879  -12.5810   17.7784 H   0  0  0  0  0  0
  -27.6646  -14.2484   19.4959 H   0  0  0  0  0  0
  -28.6871  -12.0639   21.3828 H   0  0  0  0  0  0
  -28.3841  -13.6913   21.8350 H   0  0  0  0  0  0
  -25.2786   -9.5664   22.4734 H   0  0  0  0  0  0
  -23.9993   -7.4641   22.7503 H   0  0  0  0  0  0
  -21.0833   -8.8756   19.8968 H   0  0  0  0  0  0
  -22.3715  -10.9631   19.6142 H   0  0  0  0  0  0
  -21.2004   -7.6151   23.9726 H   0  0  0  0  0  0
  -21.1459   -6.0524   25.9077 H   0  0  0  0  0  0
  -22.0600   -2.7623   23.2841 H   0  0  0  0  0  0
  -22.4124  -11.9819   22.4798 H   0  0  0  0  0  0
  -21.1098  -13.1181   22.2637 H   0  0  0  0  0  0
  -24.5484  -15.7871   20.4284 H   0  0  0  0  0  0
  -26.1807  -15.6484   20.0177 H   0  0  0  0  0  0
  -26.7137  -32.5473   23.1085 H   0  0  0  0  0  0
  -25.0088  -33.9707   25.0436 H   0  0  0  0  0  0
  -22.7004  -31.2995   21.3965 H   0  0  0  0  0  0
  -23.3740  -35.9661   23.3298 H   0  0  0  0  0  0
  -24.3595  -36.8950   22.2051 H   0  0  0  0  0  0
  -23.7298  -37.6535   23.6669 H   0  0  0  0  0  0
  -26.0651  -31.5757   20.5931 H   0  0  0  0  0  0
  -26.8322  -30.8614   21.9822 H   0  0  0  0  0  0
  -28.1072  -29.0334   21.1829 H   0  0  0  0  0  0
  -26.0168  -25.9370   19.0178 H   0  0  0  0  0  0
  -23.9845  -27.2906   19.0163 H   0  0  0  0  0  0
  -23.7402  -30.6005   19.4007 H   0  0  0  0  0  0
  -22.7438  -29.2512   19.8553 H   0  0  0  0  0  0
  -25.1276  -36.1913   25.0840 H   0  0  0  0  0  0
  -20.9943  -28.3238   24.1408 H   0  0  0  0  0  0
  -20.5659  -26.2271   23.3613 H   0  0  0  0  0  0
  -21.6641  -26.7395   22.1200 H   0  0  0  0  0  0
  -19.6944  -25.6281   21.1203 H   0  0  0  0  0  0
  -19.6711  -27.3156   20.6732 H   0  0  0  0  0  0
  -17.4200  -26.6611   21.4005 H   0  0  0  0  0  0
  -18.0317  -26.0057   22.9005 H   0  0  0  0  0  0
  -19.7948  -30.7172   24.2261 H   0  0  0  0  0  0
  -17.5057  -31.6241   24.5121 H   0  0  0  0  0  0
  -15.5365  -30.2959   23.7654 H   0  0  0  0  0  0
  -15.8681  -28.0829   22.7006 H   0  0  0  0  0  0
  -24.5910  -30.7065   25.7853 H   0  0  0  0  0  0
  -24.8962  -32.2884   26.4877 H   0  0  0  0  0  0
  -25.8104  -30.8930   27.0241 H   0  0  0  0  0  0
  -26.2868  -29.6759   24.1151 H   0  0  0  0  0  0
  -27.4087  -29.7230   25.4549 H   0  0  0  0  0  0
  -27.8705  -30.4304   23.9260 H   0  0  0  0  0  0
  -27.2612  -33.3594   26.2038 H   0  0  0  0  0  0
  -28.3854  -32.6882   25.0340 H   0  0  0  0  0  0
  -28.0690  -31.8467   26.5427 H   0  0  0  0  0  0
  -28.2545  -38.0123   24.7472 H   0  0  0  0  0  0
  -28.1100  -36.2652   24.6279 H   0  0  0  0  0  0
  -27.2296  -37.1443   25.8855 H   0  0  0  0  0  0
  -20.9319  -29.8832   21.6985 H   0  0  0  0  0  0
  -26.0165  -38.2843   24.1411 H   0  0  0  0  0  0
  -31.0790  -18.2774   18.9624 H   0  0  0  0  0  0
  -35.5254  -22.8749   19.0481 H   0  0  0  0  0  0
  -35.7192  -21.3476   18.2096 H   0  0  0  0  0  0
  -35.1862  -21.3669   19.8923 H   0  0  0  0  0  0
  -27.2345  -17.1749   20.3545 H   0  0  0  0  0  0
  -27.6551  -17.1641   22.0608 H   0  0  0  0  0  0
  -27.6521  -15.6690   21.1754 H   0  0  0  0  0  0
  -33.0456  -18.6673   17.4307 H   0  0  0  0  0  0
  -34.5938  -19.4505   17.6311 H   0  0  0  0  0  0
  -33.4769  -20.0258   16.3971 H   0  0  0  0  0  0
  -30.0812  -16.3476   23.6078 H   0  0  0  0  0  0
  -30.4540  -14.6671   23.2878 H   0  0  0  0  0  0
  -28.8501  -15.3098   23.0131 H   0  0  0  0  0  0
  -31.5588  -17.5518   22.3616 H   0  0  0  0  0  0
  -32.1474  -17.0468   20.7931 H   0  0  0  0  0  0
  -32.4462  -16.0507   22.2015 H   0  0  0  0  0  0
  -31.2032  -21.8242   17.7931 H   0  0  0  0  0  0
  -31.1126  -20.2137   17.2414 H   0  0  0  0  0  0
  -28.4293  -22.5728   18.8121 H   0  0  0  0  0  0
  -30.0749  -23.0845   18.9592 H   0  0  0  0  0  0
  -33.5879  -22.4524   17.5023 H   0  0  0  0  0  0
  -33.1065  -22.6250   19.1690 H   0  0  0  0  0  0
  -29.7368  -24.0143   21.1908 H   0  0  0  0  0  0
  -28.1365  -23.3322   21.2391 H   0  0  0  0  0  0
  -29.2289  -25.3118   19.5070 H   0  0  0  0  0  0
  -27.9073  -25.2599   20.9690 H   0  0  0  0  0  0
  -29.4060  -16.5947   19.6733 H   0  0  0  0  0  0
  -33.0043  -20.1473   19.4101 H   0  0  0  0  0  0
  1 25  1  0  0  0
  1 30  2  0  0  0
  1 87  1  0  0  0
  2  3  1  0  0  0
  2 25  1  0  0  0
  2 90  1  0  0  0
  2 91  1  0  0  0
  3  4  1  0  0  0
  3 92  1  0  0  0
  3 93  1  0  0  0
  4  5  1  0  0  0
  4 94  1  0  0  0
  4 95  1  0  0  0
  5  6  1  0  0  0
  5 26  1  0  0  0
  5 96  1  0  0  0
  6 25  1  0  0  0
  6 97  1  0  0  0
  6 98  1  0  0  0
  7  8  2  0  0  0
  7 26  1  0  0  0
  7 29  1  0  0  0
  8  9  1  0  0  0
  8 22  1  0  0  0
  9 10  1  0  0  0
  9 27  2  0  0  0
 10 11  2  0  0  0
 10 15  1  0  0  0
 11 12  1  0  0  0
 11 99  1  0  0  0
 12 13  2  0  0  0
 12100  1  0  0  0
 13 14  1  0  0  0
 13 31  1  0  0  0
 14 15  2  0  0  0
 14101  1  0  0  0
 15102  1  0  0  0
 16 17  2  0  0  0
 16 21  1  0  0  0
 16 31  1  0  0  0
 17 18  1  0  0  0
 17103  1  0  0  0
 18 19  2  0  0  0
 18104  1  0  0  0
 19 20  1  0  0  0
 19 24  1  0  0  0
 20 21  2  0  0  0
 20105  1  0  0  0
 21 23  1  0  0  0
 22 28  1  0  0  0
 22 32  2  0  0  0
 26 27  1  0  0  0
 28106  1  0  0  0
 28107  1  0  0  0
 29108  1  0  0  0
 29109  1  0  0  0
 33 34  1  0  0  0
 33 66  1  0  0  0
 33 70  2  0  0  0
 34 36  1  0  0  0
 34 59  1  0  0  0
 34110  1  0  0  0
 35 44  2  0  0  0
 35 45  1  0  0  0
 35 68  1  0  0  0
 36 56  1  0  0  0
 36111  1  0  0  0
 37 39  1  0  0  0
 37 47  1  0  0  0
 37 66  1  0  0  0
 37112  1  0  0  0
 38 43  2  0  0  0
 38 46  1  0  0  0
 38 47  1  0  0  0
 39 64  1  0  0  0
 39 67  2  0  0  0
 40 52  1  0  0  0
 40 53  2  0  0  0
 40 58  1  0  0  0
 41113  1  0  0  0
 41114  1  0  0  0
 41115  1  0  0  0
 41 48  1  0  0  0
 42 43  1  0  0  0
 42 66  1  0  0  0
 42116  1  0  0  0
 42117  1  0  0  0
 43 44  1  0  0  0
 44118  1  0  0  0
 45 46  2  0  0  0
 45119  1  0  0  0
 46120  1  0  0  0
 47121  1  0  0  0
 47122  1  0  0  0
 48 56  1  0  0  0
 48 65  1  0  0  0
 48123  1  0  0  0
 49 50  1  0  0  0
 49 53  1  0  0  0
 49 64  1  0  0  0
 49124  1  0  0  0
 50 51  1  0  0  0
 50125  1  0  0  0
 50126  1  0  0  0
 51 52  1  0  0  0
 51127  1  0  0  0
 51128  1  0  0  0
 52129  1  0  0  0
 52130  1  0  0  0
 53 54  1  0  0  0
 54 55  2  0  0  0
 54131  1  0  0  0
 55 57  1  0  0  0
 55132  1  0  0  0
 56 69  2  0  0  0
 57 58  2  0  0  0
 57133  1  0  0  0
 58134  1  0  0  0
 59 60  1  0  0  0
 59 61  1  0  0  0
 59 62  1  0  0  0
 60135  1  0  0  0
 60136  1  0  0  0
 60137  1  0  0  0
 61138  1  0  0  0
 61139  1  0  0  0
 61140  1  0  0  0
 62141  1  0  0  0
 62142  1  0  0  0
 62143  1  0  0  0
 63 65  1  0  0  0
 63144  1  0  0  0
 63145  1  0  0  0
 63146  1  0  0  0
 64147  1  0  0  0
 65148  1  0  0  0
 68 84  1  0  0  0
 71 72  2  0  0  0
 71 73  1  0  0  0
 71149  1  0  0  0
 72 74  1  0  0  0
 72 80  1  0  0  0
 73 85  1  0  0  0
 73 88  2  0  0  0
 74 81  1  0  0  0
 74 89  2  0  0  0
 75 82  1  0  0  0
 75150  1  0  0  0
 75151  1  0  0  0
 75152  1  0  0  0
 76153  1  0  0  0
 76154  1  0  0  0
 76155  1  0  0  0
 76 85  1  0  0  0
 77156  1  0  0  0
 77157  1  0  0  0
 77158  1  0  0  0
 77 86  1  0  0  0
 78159  1  0  0  0
 78160  1  0  0  0
 78161  1  0  0  0
 78 87  1  0  0  0
 79 87  1  0  0  0
 79162  1  0  0  0
 79163  1  0  0  0
 79164  1  0  0  0
 80 86  1  0  0  0
 80165  1  0  0  0
 80166  1  0  0  0
 81 83  1  0  0  0
 81167  1  0  0  0
 81168  1  0  0  0
 82 86  1  0  0  0
 82169  1  0  0  0
 82170  1  0  0  0
 83 84  1  0  0  0
 83171  1  0  0  0
 83172  1  0  0  0
 84173  1  0  0  0
 84174  1  0  0  0
 85 87  1  0  0  0
 85175  1  0  0  0
 86176  1  0  0  0
 88 89  1  0  0  0
M  ISO  4   1 100  68 101  84 101  87 100
M  END
> <chiral flag>
0

> <version>
0

> <s_m_source_file>
/data/baiqing/PycharmProjects/Reinvent-master-3.2/result/LINK_invent/BTK/process_docking_weight1_custom_sum_contain_oxygen_bond_distance_aromatic_linkinvent_7_9_3/rearranged_h_0070.sdf

> <i_m_source_file_index>
47

> <r_mmod_Potential_Energy-OPLS-2005>
412.881530761719

> <r_mmod_Stretch_Energy-OPLS-2005>
91.0784912109375

> <r_mmod_Bend_Energy-OPLS-2005>
397.7666015625

> <r_mmod_Torsional_Energy-OPLS-2005>
209.750030517578

> <r_mmod_Improper_Torsional_Energy-OPLS-2005>
4.06663131713867

> <r_mmod_Van_der_Waal_Energy-OPLS-2005>
183.700149536133

> <r_mmod_Electrostatic_Energy-OPLS-2005>
-313.43896484375

> <r_mmod_Solvation_Energy-OPLS-2005>
-195.043823242188

> <b_mmod_Minimization_Converged-OPLS-2005>
0

> <r_mmod_RMS_Derivative-OPLS-2005>
3.13842225074768

$$$$
47
                    3D
 Structure written by MMmdl.
169177  0  0  1  0            999 V2000
  -30.7624  -14.4133   20.6611 C   0  0  0  0  0  0
  -30.4177  -12.3092   19.4023 C   0  0  0  0  0  0
  -29.4867  -12.5316   18.1936 C   0  0  0  0  0  0
  -28.0086  -12.3982   18.6057 C   0  0  0  0  0  0
  -27.6668  -13.2140   19.8809 C   0  0  2  0  0  0
  -28.7101  -12.9723   20.9977 C   0  0  0  0  0  0
  -25.2590  -13.8168   20.5669 C   0  0  0  0  0  0
  -24.1854  -13.0439   20.9197 C   0  0  0  0  0  0
  -24.6411  -11.6906   20.8737 C   0  0  0  0  0  0
  -23.9057  -10.4290   21.0392 C   0  0  0  0  0  0
  -24.3614   -9.4200   21.9162 C   0  0  0  0  0  0
  -23.6295   -8.2223   22.0722 C   0  0  0  0  0  0
  -22.4280   -8.0264   21.3518 C   0  0  0  0  0  0
  -21.9919   -9.0240   20.4619 C   0  0  0  0  0  0
  -22.7234  -10.2117   20.3043 C   0  0  0  0  0  0
  -21.6838   -6.0733   22.5288 C   0  0  0  0  0  0
  -21.3985   -6.5626   23.8227 C   0  0  0  0  0  0
  -21.3665   -5.6770   24.9180 C   0  0  0  0  0  0
  -21.6063   -4.3038   24.7223 C   0  0  0  0  0  0
  -21.8811   -3.8136   23.4341 C   0  0  0  0  0  0
  -21.9175   -4.6959   22.3398 C   0  0  0  0  0  0
  -22.7878  -13.5253   21.1870 C   0  0  0  0  0  0
  -22.1659   -4.2145   21.0981 F   0  0  0  0  0  0
  -21.5655   -3.4531   25.7738 F   0  0  0  0  0  0
  -30.0490  -13.2689   20.4572 N   0  0  0  0  0  0
  -26.3048  -12.9355   20.3369 N   0  0  0  0  0  0
  -25.9338  -11.6506   20.5761 N   0  0  0  0  0  0
  -22.0495  -12.8238   22.0396 N   0  0  0  0  0  0
  -25.4313  -15.1870   20.3995 N   0  0  0  0  0  0
  -31.7804  -14.6856   20.0165 O   0  0  0  0  0  0
  -21.6622   -6.8880   21.4252 O   0  0  0  0  0  0
  -22.3586  -14.5566   20.6703 O   0  0  0  0  0  0
  -24.6149  -31.8693   23.2132 C   0  0  0  0  0  0
  -25.9032  -32.4830   23.8424 C   0  0  1  0  0  0
  -27.2246  -27.3983   20.0877 C   0  0  0  0  0  0
  -25.5907  -33.8621   24.2359 N   0  0  0  0  0  0
  -23.4051  -30.5005   21.5523 C   0  0  2  0  0  0
  -24.8485  -28.9717   20.1126 C   0  0  0  0  0  0
  -22.7420  -29.4671   22.4939 C   0  0  0  0  0  0
  -18.0297  -28.1381   22.8464 C   0  0  0  0  0  0
  -24.1495  -36.7291   23.2644 C   0  0  0  0  0  0
  -25.9416  -30.8212   21.3759 C   0  0  0  0  0  0
  -26.0135  -29.4569   20.7163 C   0  0  0  0  0  0
  -27.1985  -28.6752   20.7105 C   0  0  0  0  0  0
  -26.0323  -26.9597   19.4536 C   0  0  0  0  0  0
  -24.8565  -27.7231   19.4786 C   0  0  0  0  0  0
  -23.6161  -29.8438   20.1644 C   0  0  0  0  0  0
  -25.4101  -36.3096   24.0360 C   0  0  1  0  0  0
  -20.5887  -28.3650   23.1291 C   0  0  2  0  0  0
  -20.6780  -26.9378   22.5399 C   0  0  0  0  0  0
  -19.5770  -26.6371   21.5192 C   0  0  0  0  0  0
  -18.1953  -26.7921   22.1598 C   0  0  0  0  0  0
  -19.1545  -28.8826   23.2889 C   0  0  0  0  0  0
  -18.9470  -30.1434   23.8888 C   0  0  0  0  0  0
  -17.6487  -30.6578   24.0562 C   0  0  0  0  0  0
  -25.9032  -34.9475   23.5144 C   0  0  0  0  0  0
  -16.5374  -29.9081   23.6329 C   0  0  0  0  0  0
  -16.7286  -28.6507   23.0320 C   0  0  0  0  0  0
  -26.4453  -31.6612   25.0745 C   0  0  0  0  0  0
  -25.3723  -31.3760   26.1505 C   0  0  0  0  0  0
  -27.0285  -30.3064   24.6115 C   0  0  0  0  0  0
  -27.6044  -32.4310   25.7476 C   0  0  0  0  0  0
  -27.5587  -37.1793   24.8455 C   0  0  0  0  0  0
  -21.4151  -29.3052   22.3689 N   0  0  0  0  0  0
  -26.4285  -37.3785   23.9423 N   0  0  0  0  0  0
  -24.6722  -31.0783   22.1039 N   0  0  0  0  0  0
  -23.4185  -28.8181   23.2957 O   0  0  0  0  0  0
  -28.3892  -26.6352   20.1413 O   0  0  0  0  0  0
  -26.5566  -34.8926   22.4685 O   0  0  0  0  0  0
  -23.5330  -32.1455   23.7512 O   0  0  0  0  0  0
  -31.0374  -19.8605   20.1787 C   0  0  0  0  0  0
  -29.9737  -18.9332   20.2014 C   0  0  0  0  0  0
  -28.6890  -19.5104   20.0590 C   0  0  0  0  0  0
  -29.6062  -21.6092   19.7954 C   0  0  0  0  0  0
  -27.5114  -18.0782   17.5252 C   0  0  0  0  0  0
  -30.9279  -15.0399   22.9822 C   0  0  0  0  0  0
  -30.2836  -17.4155   20.2403 C   0  0  0  0  0  0
  -29.3909  -23.0073   19.2043 C   0  0  0  0  0  0
  -26.6946  -18.7529   18.6427 C   0  0  0  0  0  0
  -29.2614  -24.2227   20.1670 C   0  0  0  0  0  0
  -29.7797  -16.5973   21.4703 C   0  0  0  0  0  0
  -28.4470  -25.3500   19.4741 C   0  0  0  0  0  0
  -27.3765  -18.7348   20.0335 C   0  0  2  0  0  0
  -30.8520  -21.1792   19.9550 N   0  0  0  0  0  0
  -28.5245  -20.8464   19.9167 N   0  0  0  0  0  0
  -30.3377  -15.2312   21.6535 N   0  0  0  0  0  0
  -26.5213  -19.3269   21.0640 N   0  3  0  0  0  0
  -31.4614  -12.4042   19.0959 H   0  0  0  0  0  0
  -30.3119  -11.2865   19.7711 H   0  0  0  0  0  0
  -29.7192  -11.8147   17.4023 H   0  0  0  0  0  0
  -29.6620  -13.5225   17.7710 H   0  0  0  0  0  0
  -27.8046  -11.3426   18.7783 H   0  0  0  0  0  0
  -27.3604  -12.7016   17.7831 H   0  0  0  0  0  0
  -27.7208  -14.2696   19.6110 H   0  0  0  0  0  0
  -28.6797  -11.9334   21.3304 H   0  0  0  0  0  0
  -28.4682  -13.5609   21.8807 H   0  0  0  0  0  0
  -25.2758   -9.5680   22.4729 H   0  0  0  0  0  0
  -24.0011   -7.4618   22.7427 H   0  0  0  0  0  0
  -21.0853   -8.8757   19.8935 H   0  0  0  0  0  0
  -22.3692  -10.9652   19.6152 H   0  0  0  0  0  0
  -21.1950   -7.6129   23.9740 H   0  0  0  0  0  0
  -21.1513   -6.0489   25.9097 H   0  0  0  0  0  0
  -22.0584   -2.7601   23.2824 H   0  0  0  0  0  0
  -22.4093  -11.9918   22.4825 H   0  0  0  0  0  0
  -21.1087  -13.1249   22.2560 H   0  0  0  0  0  0
  -24.6308  -15.8087   20.4144 H   0  0  0  0  0  0
  -26.2363  -15.5694   19.9266 H   0  0  0  0  0  0
  -26.7073  -32.5519   23.1167 H   0  0  0  0  0  0
  -25.0141  -33.9800   25.0562 H   0  0  0  0  0  0
  -22.6966  -31.3203   21.4199 H   0  0  0  0  0  0
  -23.3782  -35.9592   23.3271 H   0  0  0  0  0  0
  -24.3640  -36.8924   22.2066 H   0  0  0  0  0  0
  -23.7216  -37.6480   23.6662 H   0  0  0  0  0  0
  -26.0720  -31.5912   20.6141 H   0  0  0  0  0  0
  -26.8225  -30.8623   22.0042 H   0  0  0  0  0  0
  -28.0892  -29.0479   21.1976 H   0  0  0  0  0  0
  -25.9446  -26.0301   18.9199 H   0  0  0  0  0  0
  -23.9600  -27.3505   19.0009 H   0  0  0  0  0  0
  -23.7346  -30.6257   19.4137 H   0  0  0  0  0  0
  -22.7354  -29.2755   19.8582 H   0  0  0  0  0  0
  -25.1289  -36.1953   25.0858 H   0  0  0  0  0  0
  -21.0010  -28.3206   24.1402 H   0  0  0  0  0  0
  -20.5664  -26.2260   23.3590 H   0  0  0  0  0  0
  -21.6662  -26.7417   22.1222 H   0  0  0  0  0  0
  -19.6934  -25.6277   21.1232 H   0  0  0  0  0  0
  -19.6729  -27.3169   20.6712 H   0  0  0  0  0  0
  -17.4232  -26.6650   21.3996 H   0  0  0  0  0  0
  -18.0370  -26.0083   22.9014 H   0  0  0  0  0  0
  -19.7967  -30.7248   24.2234 H   0  0  0  0  0  0
  -17.5063  -31.6261   24.5165 H   0  0  0  0  0  0
  -15.5375  -30.2989   23.7666 H   0  0  0  0  0  0
  -15.8703  -28.0859   22.6984 H   0  0  0  0  0  0
  -24.5866  -30.7120   25.7900 H   0  0  0  0  0  0
  -24.8939  -32.2928   26.4955 H   0  0  0  0  0  0
  -25.8089  -30.8956   27.0273 H   0  0  0  0  0  0
  -26.2838  -29.6825   24.1151 H   0  0  0  0  0  0
  -27.4079  -29.7301   25.4569 H   0  0  0  0  0  0
  -27.8672  -30.4457   23.9287 H   0  0  0  0  0  0
  -27.2713  -33.3644   26.2041 H   0  0  0  0  0  0
  -28.3847  -32.6798   25.0266 H   0  0  0  0  0  0
  -28.0693  -31.8410   26.5395 H   0  0  0  0  0  0
  -28.2576  -38.0129   24.7563 H   0  0  0  0  0  0
  -28.1129  -36.2661   24.6201 H   0  0  0  0  0  0
  -27.2333  -37.1344   25.8871 H   0  0  0  0  0  0
  -20.9265  -29.8821   21.6997 H   0  0  0  0  0  0
  -26.0174  -38.2862   24.1449 H   0  0  0  0  0  0
  -32.0643  -19.5362   20.2669 H   0  0  0  0  0  0
  -26.9549  -18.0813   16.5874 H   0  0  0  0  0  0
  -27.7364  -17.0381   17.7657 H   0  0  0  0  0  0
  -28.4553  -18.5948   17.3469 H   0  0  0  0  0  0
  -30.1864  -15.2379   23.7575 H   0  0  0  0  0  0
  -31.7669  -15.7217   23.1318 H   0  0  0  0  0  0
  -31.2997  -14.0226   23.1365 H   0  0  0  0  0  0
  -31.3683  -17.3097   20.1905 H   0  0  0  0  0  0
  -29.9127  -16.9719   19.3152 H   0  0  0  0  0  0
  -28.4830  -22.9377   18.6030 H   0  0  0  0  0  0
  -30.1760  -23.2109   18.4790 H   0  0  0  0  0  0
  -25.7352  -18.2418   18.7108 H   0  0  0  0  0  0
  -26.4694  -19.7791   18.3485 H   0  0  0  0  0  0
  -30.2483  -24.5687   20.4770 H   0  0  0  0  0  0
  -28.7358  -23.9160   21.0726 H   0  0  0  0  0  0
  -28.7040  -16.4528   21.4390 H   0  0  0  0  0  0
  -29.9626  -17.1837   22.3693 H   0  0  0  0  0  0
  -27.4752  -24.8894   19.3435 H   0  0  0  0  0  0
  -28.8447  -25.5255   18.4744 H   0  0  0  0  0  0
  -27.5321  -17.6991   20.3033 H   0  0  0  0  0  0
  -26.5554  -20.3219   20.9118 H   0  0  0  0  0  0
  -26.9179  -19.1413   21.9667 H   0  0  0  0  0  0
  -25.5827  -18.9821   21.0211 H   0  0  0  0  0  0
  1 25  1  0  0  0
  1 30  2  0  0  0
  1 86  1  0  0  0
  2  3  1  0  0  0
  2 25  1  0  0  0
  2 88  1  0  0  0
  2 89  1  0  0  0
  3  4  1  0  0  0
  3 90  1  0  0  0
  3 91  1  0  0  0
  4  5  1  0  0  0
  4 92  1  0  0  0
  4 93  1  0  0  0
  5  6  1  0  0  0
  5 26  1  0  0  0
  5 94  1  0  0  0
  6 25  1  0  0  0
  6 95  1  0  0  0
  6 96  1  0  0  0
  7  8  2  0  0  0
  7 26  1  0  0  0
  7 29  1  0  0  0
  8  9  1  0  0  0
  8 22  1  0  0  0
  9 10  1  0  0  0
  9 27  2  0  0  0
 10 11  2  0  0  0
 10 15  1  0  0  0
 11 12  1  0  0  0
 11 97  1  0  0  0
 12 13  2  0  0  0
 12 98  1  0  0  0
 13 14  1  0  0  0
 13 31  1  0  0  0
 14 15  2  0  0  0
 14 99  1  0  0  0
 15100  1  0  0  0
 16 17  2  0  0  0
 16 21  1  0  0  0
 16 31  1  0  0  0
 17 18  1  0  0  0
 17101  1  0  0  0
 18 19  2  0  0  0
 18102  1  0  0  0
 19 20  1  0  0  0
 19 24  1  0  0  0
 20 21  2  0  0  0
 20103  1  0  0  0
 21 23  1  0  0  0
 22 28  1  0  0  0
 22 32  2  0  0  0
 26 27  1  0  0  0
 28104  1  0  0  0
 28105  1  0  0  0
 29106  1  0  0  0
 29107  1  0  0  0
 33 34  1  0  0  0
 33 66  1  0  0  0
 33 70  2  0  0  0
 34 36  1  0  0  0
 34 59  1  0  0  0
 34108  1  0  0  0
 35 44  2  0  0  0
 35 45  1  0  0  0
 35 68  1  0  0  0
 36 56  1  0  0  0
 36109  1  0  0  0
 37 39  1  0  0  0
 37 47  1  0  0  0
 37 66  1  0  0  0
 37110  1  0  0  0
 38 43  2  0  0  0
 38 46  1  0  0  0
 38 47  1  0  0  0
 39 64  1  0  0  0
 39 67  2  0  0  0
 40 52  1  0  0  0
 40 53  2  0  0  0
 40 58  1  0  0  0
 41111  1  0  0  0
 41112  1  0  0  0
 41113  1  0  0  0
 41 48  1  0  0  0
 42 43  1  0  0  0
 42 66  1  0  0  0
 42114  1  0  0  0
 42115  1  0  0  0
 43 44  1  0  0  0
 44116  1  0  0  0
 45 46  2  0  0  0
 45117  1  0  0  0
 46118  1  0  0  0
 47119  1  0  0  0
 47120  1  0  0  0
 48 56  1  0  0  0
 48 65  1  0  0  0
 48121  1  0  0  0
 49 50  1  0  0  0
 49 53  1  0  0  0
 49 64  1  0  0  0
 49122  1  0  0  0
 50 51  1  0  0  0
 50123  1  0  0  0
 50124  1  0  0  0
 51 52  1  0  0  0
 51125  1  0  0  0
 51126  1  0  0  0
 52127  1  0  0  0
 52128  1  0  0  0
 53 54  1  0  0  0
 54 55  2  0  0  0
 54129  1  0  0  0
 55 57  1  0  0  0
 55130  1  0  0  0
 56 69  2  0  0  0
 57 58  2  0  0  0
 57131  1  0  0  0
 58132  1  0  0  0
 59 60  1  0  0  0
 59 61  1  0  0  0
 59 62  1  0  0  0
 60133  1  0  0  0
 60134  1  0  0  0
 60135  1  0  0  0
 61136  1  0  0  0
 61137  1  0  0  0
 61138  1  0  0  0
 62139  1  0  0  0
 62140  1  0  0  0
 62141  1  0  0  0
 63 65  1  0  0  0
 63142  1  0  0  0
 63143  1  0  0  0
 63144  1  0  0  0
 64145  1  0  0  0
 65146  1  0  0  0
 68 82  1  0  0  0
 71 72  2  0  0  0
 71 84  1  0  0  0
 71147  1  0  0  0
 72 73  1  0  0  0
 72 77  1  0  0  0
 73 83  1  0  0  0
 73 85  2  0  0  0
 74 78  1  0  0  0
 74 84  2  0  0  0
 74 85  1  0  0  0
 75 79  1  0  0  0
 75148  1  0  0  0
 75149  1  0  0  0
 75150  1  0  0  0
 76 86  1  0  0  0
 76151  1  0  0  0
 76152  1  0  0  0
 76153  1  0  0  0
 77 81  1  0  0  0
 77154  1  0  0  0
 77155  1  0  0  0
 78 80  1  0  0  0
 78156  1  0  0  0
 78157  1  0  0  0
 79 83  1  0  0  0
 79158  1  0  0  0
 79159  1  0  0  0
 80 82  1  0  0  0
 80160  1  0  0  0
 80161  1  0  0  0
 81 86  1  0  0  0
 81162  1  0  0  0
 81163  1  0  0  0
 82164  1  0  0  0
 82165  1  0  0  0
 83 87  1  0  0  0
 83166  1  0  0  0
 87167  1  0  0  0
 87168  1  0  0  0
 87169  1  0  0  0
M  CHG  1  87   1
M  ISO  4   1 100  68 101  82 101  86 100
M  END
> <chiral flag>
0

> <version>
0

> <s_m_source_file>
/data/baiqing/PycharmProjects/Reinvent-master-3.2/result/LINK_invent/BTK/process_docking_weight1_custom_sum_contain_oxygen_bond_distance_aromatic_linkinvent_7_9_3/rearranged_h_0070.sdf

> <i_m_source_file_index>
48

> <r_mmod_Potential_Energy-OPLS-2005>
-694.589233398438

> <r_mmod_Stretch_Energy-OPLS-2005>
46.2604675292969

> <r_mmod_Bend_Energy-OPLS-2005>
132.66357421875

> <r_mmod_Torsional_Energy-OPLS-2005>
269.711059570312

> <r_mmod_Improper_Torsional_Energy-OPLS-2005>
6.30855226516724

> <r_mmod_Van_der_Waal_Energy-OPLS-2005>
162.744033813477

> <r_mmod_Electrostatic_Energy-OPLS-2005>
-833.844116210938

> <r_mmod_Solvation_Energy-OPLS-2005>
-492.181182861328

> <b_mmod_Minimization_Converged-OPLS-2005>
0

> <r_mmod_RMS_Derivative-OPLS-2005>
4.01517248153687

$$$$
48
                    3D
 Structure written by MMmdl.
157165  0  0  1  0            999 V2000
  -30.4232  -15.3603   20.2918 C   0  0  0  0  0  0
  -30.4386  -12.8612   19.5322 C   0  0  0  0  0  0
  -29.5436  -12.5809   18.2980 C   0  0  0  0  0  0
  -28.1027  -12.2571   18.7347 C   0  0  0  0  0  0
  -27.6040  -13.2417   19.8145 C   0  0  2  0  0  0
  -28.6376  -13.5199   20.9283 C   0  0  0  0  0  0
  -25.2382  -13.8077   20.5729 C   0  0  0  0  0  0
  -24.1722  -13.0340   20.9260 C   0  0  0  0  0  0
  -24.6360  -11.6841   20.8785 C   0  0  0  0  0  0
  -23.9041  -10.4245   21.0432 C   0  0  0  0  0  0
  -24.3606   -9.4178   21.9211 C   0  0  0  0  0  0
  -23.6297   -8.2209   22.0773 C   0  0  0  0  0  0
  -22.4279   -8.0255   21.3555 C   0  0  0  0  0  0
  -21.9899   -9.0223   20.4649 C   0  0  0  0  0  0
  -22.7214  -10.2109   20.3071 C   0  0  0  0  0  0
  -21.6854   -6.0720   22.5264 C   0  0  0  0  0  0
  -21.4014   -6.5630   23.8191 C   0  0  0  0  0  0
  -21.3662   -5.6789   24.9156 C   0  0  0  0  0  0
  -21.6041   -4.3048   24.7208 C   0  0  0  0  0  0
  -21.8828   -3.8140   23.4330 C   0  0  0  0  0  0
  -21.9206   -4.6952   22.3390 C   0  0  0  0  0  0
  -22.7754  -13.5153   21.1886 C   0  0  0  0  0  0
  -22.1691   -4.2145   21.0970 F   0  0  0  0  0  0
  -21.5631   -3.4537   25.7725 F   0  0  0  0  0  0
  -29.8651  -14.0354   20.2912 N   0  0  0  0  0  0
  -26.2805  -12.9306   20.3260 N   0  0  0  0  0  0
  -25.9296  -11.6445   20.5757 N   0  0  0  0  0  0
  -22.0416  -12.8161   22.0441 N   0  0  0  0  0  0
  -25.3898  -15.1784   20.4048 N   0  0  0  0  0  0
  -31.6615  -15.2870   20.2748 O   0  0  0  0  0  0
  -21.6658   -6.8856   21.4228 O   0  0  0  0  0  0
  -22.3457  -14.5469   20.6728 O   0  0  0  0  0  0
  -24.6646  -31.8218   23.1665 C   0  0  0  0  0  0
  -25.9305  -32.4587   23.8157 C   0  0  1  0  0  0
  -27.2390  -26.9113   20.1826 C   0  0  0  0  0  0
  -25.5967  -33.8400   24.2089 N   0  0  0  0  0  0
  -23.4830  -30.4271   21.5177 C   0  0  2  0  0  0
  -24.9405  -28.8043   20.1205 C   0  0  0  0  0  0
  -22.7692  -29.4417   22.4794 C   0  0  0  0  0  0
  -18.0321  -28.1410   22.8443 C   0  0  0  0  0  0
  -24.1498  -36.7196   23.2648 C   0  0  0  0  0  0
  -26.0540  -30.6230   21.3985 C   0  0  0  0  0  0
  -26.1266  -29.2080   20.7460 C   0  0  0  0  0  0
  -27.2720  -28.2861   20.7426 C   0  0  0  0  0  0
  -26.0149  -26.6576   19.5236 C   0  0  0  0  0  0
  -24.9107  -27.5499   19.4896 C   0  0  0  0  0  0
  -23.7251  -29.7330   20.1490 C   0  0  0  0  0  0
  -25.4142  -36.2978   24.0303 C   0  0  1  0  0  0
  -20.5950  -28.3749   23.1188 C   0  0  2  0  0  0
  -20.6802  -26.9428   22.5410 C   0  0  0  0  0  0
  -19.5780  -26.6367   21.5220 C   0  0  0  0  0  0
  -18.1952  -26.7935   22.1612 C   0  0  0  0  0  0
  -19.1582  -28.8904   23.2795 C   0  0  0  0  0  0
  -18.9492  -30.1492   23.8835 C   0  0  0  0  0  0
  -17.6482  -30.6594   24.0541 C   0  0  0  0  0  0
  -25.9094  -34.9349   23.5028 C   0  0  0  0  0  0
  -16.5373  -29.9077   23.6333 C   0  0  0  0  0  0
  -16.7305  -28.6501   23.0346 C   0  0  0  0  0  0
  -26.4557  -31.6529   25.0689 C   0  0  0  0  0  0
  -25.3672  -31.3738   26.1334 C   0  0  0  0  0  0
  -27.0449  -30.2899   24.6411 C   0  0  0  0  0  0
  -27.6052  -32.4333   25.7482 C   0  0  0  0  0  0
  -27.5581  -37.1760   24.8466 C   0  0  0  0  0  0
  -21.4362  -29.3032   22.3537 N   0  0  0  0  0  0
  -26.4298  -37.3708   23.9396 N   0  0  0  0  0  0
  -24.7554  -30.9849   22.0818 N   0  0  0  0  0  0
  -23.4225  -28.7981   23.3039 O   0  0  0  0  0  0
  -28.2784  -25.8317   20.1771 O   0  0  0  0  0  0
  -26.5706  -34.8874   22.4626 O   0  0  0  0  0  0
  -23.5706  -32.1204   23.6723 O   0  0  0  0  0  0
  -28.8459  -20.4053   21.6549 C   0  0  0  0  0  0
  -29.1152  -19.0214   21.6367 C   0  0  0  0  0  0
  -29.0658  -21.0070   20.3663 C   0  0  0  0  0  0
  -28.4348  -22.5892   18.3884 C   0  0  0  0  0  0
  -30.4598  -23.1310   19.7417 C   0  0  0  0  0  0
  -30.3961  -17.1671   18.4480 C   0  0  0  0  0  0
  -28.2302  -16.6480   19.4801 C   0  0  0  0  0  0
  -28.1381  -24.1899   20.4295 C   0  0  0  0  0  0
  -28.9869  -22.6976   19.8211 C   0  0  0  0  0  0
  -29.6926  -16.9396   19.8080 C   0  0  0  0  0  0
  -29.5057  -19.8136   19.6666 N   0  0  0  0  0  0
  -29.5783  -18.5246   20.4092 N   0  0  0  0  0  0
  -31.4597  -13.0583   19.2034 H   0  0  0  0  0  0
  -30.5066  -11.9769   20.1687 H   0  0  0  0  0  0
  -29.9525  -11.7588   17.7100 H   0  0  0  0  0  0
  -29.5455  -13.4581   17.6501 H   0  0  0  0  0  0
  -28.0891  -11.2410   19.1314 H   0  0  0  0  0  0
  -27.4329  -12.2588   17.8740 H   0  0  0  0  0  0
  -27.4611  -14.1528   19.2556 H   0  0  0  0  0  0
  -28.8321  -12.6288   21.5262 H   0  0  0  0  0  0
  -28.2508  -14.2702   21.6195 H   0  0  0  0  0  0
  -25.2728   -9.5689   22.4799 H   0  0  0  0  0  0
  -24.0014   -7.4602   22.7494 H   0  0  0  0  0  0
  -21.0841   -8.8727   19.8943 H   0  0  0  0  0  0
  -22.3657  -10.9669   19.6205 H   0  0  0  0  0  0
  -21.2010   -7.6142   23.9677 H   0  0  0  0  0  0
  -21.1485   -6.0534   25.9054 H   0  0  0  0  0  0
  -22.0612   -2.7612   23.2831 H   0  0  0  0  0  0
  -22.4060  -11.9819   22.4807 H   0  0  0  0  0  0
  -21.1043  -13.1185   22.2677 H   0  0  0  0  0  0
  -24.6111  -15.8185   20.5078 H   0  0  0  0  0  0
  -26.2141  -15.6166   20.0179 H   0  0  0  0  0  0
  -26.7383  -32.5123   23.0878 H   0  0  0  0  0  0
  -25.0063  -33.9488   25.0199 H   0  0  0  0  0  0
  -22.7965  -31.2577   21.3404 H   0  0  0  0  0  0
  -23.3793  -35.9500   23.3297 H   0  0  0  0  0  0
  -24.3564  -36.8850   22.2068 H   0  0  0  0  0  0
  -23.7230  -37.6361   23.6712 H   0  0  0  0  0  0
  -26.2351  -31.3624   20.6162 H   0  0  0  0  0  0
  -26.9147  -30.6826   22.0545 H   0  0  0  0  0  0
  -28.1800  -28.6051   21.2357 H   0  0  0  0  0  0
  -25.8913  -25.7014   19.0364 H   0  0  0  0  0  0
  -24.0073  -27.2367   18.9846 H   0  0  0  0  0  0
  -23.8780  -30.4971   19.3866 H   0  0  0  0  0  0
  -22.8358  -29.1839   19.8341 H   0  0  0  0  0  0
  -25.1351  -36.1788   25.0799 H   0  0  0  0  0  0
  -21.0022  -28.3356   24.1321 H   0  0  0  0  0  0
  -20.5695  -26.2359   23.3647 H   0  0  0  0  0  0
  -21.6660  -26.7396   22.1212 H   0  0  0  0  0  0
  -19.6939  -25.6263   21.1285 H   0  0  0  0  0  0
  -19.6738  -27.3146   20.6726 H   0  0  0  0  0  0
  -17.4227  -26.6663   21.4014 H   0  0  0  0  0  0
  -18.0347  -26.0116   22.9051 H   0  0  0  0  0  0
  -19.7967  -30.7326   24.2190 H   0  0  0  0  0  0
  -17.5023  -31.6269   24.5155 H   0  0  0  0  0  0
  -15.5363  -30.2957   23.7702 H   0  0  0  0  0  0
  -15.8702  -28.0804   22.7098 H   0  0  0  0  0  0
  -24.5885  -30.7080   25.7607 H   0  0  0  0  0  0
  -24.8825  -32.2909   26.4681 H   0  0  0  0  0  0
  -25.7897  -30.8935   27.0173 H   0  0  0  0  0  0
  -26.3117  -29.6567   24.1416 H   0  0  0  0  0  0
  -27.3985  -29.7267   25.5058 H   0  0  0  0  0  0
  -27.9054  -30.4085   23.9823 H   0  0  0  0  0  0
  -27.2655  -33.3688   26.1930 H   0  0  0  0  0  0
  -28.3922  -32.6805   25.0346 H   0  0  0  0  0  0
  -28.0668  -31.8543   26.5492 H   0  0  0  0  0  0
  -28.2584  -38.0068   24.7521 H   0  0  0  0  0  0
  -28.1098  -36.2597   24.6319 H   0  0  0  0  0  0
  -27.2275  -37.1418   25.8857 H   0  0  0  0  0  0
  -20.9644  -29.8710   21.6636 H   0  0  0  0  0  0
  -26.0158  -38.2764   24.1407 H   0  0  0  0  0  0
  -28.4977  -20.9388   22.5302 H   0  0  0  0  0  0
  -28.9619  -18.3151   22.4413 H   0  0  0  0  0  0
  -29.0201  -21.8986   17.7791 H   0  0  0  0  0  0
  -28.4344  -23.5548   17.8816 H   0  0  0  0  0  0
  -27.4083  -22.2207   18.3999 H   0  0  0  0  0  0
  -31.0485  -22.4428   19.1317 H   0  0  0  0  0  0
  -30.9103  -23.1566   20.7337 H   0  0  0  0  0  0
  -30.5595  -24.1251   19.3035 H   0  0  0  0  0  0
  -29.8333  -17.8458   17.8054 H   0  0  0  0  0  0
  -30.5211  -16.2401   17.8859 H   0  0  0  0  0  0
  -31.3856  -17.5982   18.5930 H   0  0  0  0  0  0
  -27.6922  -17.5464   19.1731 H   0  0  0  0  0  0
  -27.7297  -16.2568   20.3622 H   0  0  0  0  0  0
  -28.1537  -15.9594   18.6428 H   0  0  0  0  0  0
  -28.2771  -24.1348   21.5086 H   0  0  0  0  0  0
  -27.0763  -23.9832   20.2974 H   0  0  0  0  0  0
  1 25  1  0  0  0
  1 30  2  0  0  0
  1 80  1  0  0  0
  2  3  1  0  0  0
  2 25  1  0  0  0
  2 83  1  0  0  0
  2 84  1  0  0  0
  3  4  1  0  0  0
  3 85  1  0  0  0
  3 86  1  0  0  0
  4  5  1  0  0  0
  4 87  1  0  0  0
  4 88  1  0  0  0
  5  6  1  0  0  0
  5 26  1  0  0  0
  5 89  1  0  0  0
  6 25  1  0  0  0
  6 90  1  0  0  0
  6 91  1  0  0  0
  7  8  2  0  0  0
  7 26  1  0  0  0
  7 29  1  0  0  0
  8  9  1  0  0  0
  8 22  1  0  0  0
  9 10  1  0  0  0
  9 27  2  0  0  0
 10 11  2  0  0  0
 10 15  1  0  0  0
 11 12  1  0  0  0
 11 92  1  0  0  0
 12 13  2  0  0  0
 12 93  1  0  0  0
 13 14  1  0  0  0
 13 31  1  0  0  0
 14 15  2  0  0  0
 14 94  1  0  0  0
 15 95  1  0  0  0
 16 17  2  0  0  0
 16 21  1  0  0  0
 16 31  1  0  0  0
 17 18  1  0  0  0
 17 96  1  0  0  0
 18 19  2  0  0  0
 18 97  1  0  0  0
 19 20  1  0  0  0
 19 24  1  0  0  0
 20 21  2  0  0  0
 20 98  1  0  0  0
 21 23  1  0  0  0
 22 28  1  0  0  0
 22 32  2  0  0  0
 26 27  1  0  0  0
 28 99  1  0  0  0
 28100  1  0  0  0
 29101  1  0  0  0
 29102  1  0  0  0
 33 34  1  0  0  0
 33 66  1  0  0  0
 33 70  2  0  0  0
 34 36  1  0  0  0
 34 59  1  0  0  0
 34103  1  0  0  0
 35 44  2  0  0  0
 35 45  1  0  0  0
 35 68  1  0  0  0
 36 56  1  0  0  0
 36104  1  0  0  0
 37 39  1  0  0  0
 37 47  1  0  0  0
 37 66  1  0  0  0
 37105  1  0  0  0
 38 43  2  0  0  0
 38 46  1  0  0  0
 38 47  1  0  0  0
 39 64  1  0  0  0
 39 67  2  0  0  0
 40 52  1  0  0  0
 40 53  2  0  0  0
 40 58  1  0  0  0
 41106  1  0  0  0
 41107  1  0  0  0
 41108  1  0  0  0
 41 48  1  0  0  0
 42 43  1  0  0  0
 42 66  1  0  0  0
 42109  1  0  0  0
 42110  1  0  0  0
 43 44  1  0  0  0
 44111  1  0  0  0
 45 46  2  0  0  0
 45112  1  0  0  0
 46113  1  0  0  0
 47114  1  0  0  0
 47115  1  0  0  0
 48 56  1  0  0  0
 48 65  1  0  0  0
 48116  1  0  0  0
 49 50  1  0  0  0
 49 53  1  0  0  0
 49 64  1  0  0  0
 49117  1  0  0  0
 50 51  1  0  0  0
 50118  1  0  0  0
 50119  1  0  0  0
 51 52  1  0  0  0
 51120  1  0  0  0
 51121  1  0  0  0
 52122  1  0  0  0
 52123  1  0  0  0
 53 54  1  0  0  0
 54 55  2  0  0  0
 54124  1  0  0  0
 55 57  1  0  0  0
 55125  1  0  0  0
 56 69  2  0  0  0
 57 58  2  0  0  0
 57126  1  0  0  0
 58127  1  0  0  0
 59 60  1  0  0  0
 59 61  1  0  0  0
 59 62  1  0  0  0
 60128  1  0  0  0
 60129  1  0  0  0
 60130  1  0  0  0
 61131  1  0  0  0
 61132  1  0  0  0
 61133  1  0  0  0
 62134  1  0  0  0
 62135  1  0  0  0
 62136  1  0  0  0
 63 65  1  0  0  0
 63137  1  0  0  0
 63138  1  0  0  0
 63139  1  0  0  0
 64140  1  0  0  0
 65141  1  0  0  0
 68 78  1  0  0  0
 71 72  2  0  0  0
 71 73  1  0  0  0
 71142  1  0  0  0
 72 82  1  0  0  0
 72143  1  0  0  0
 73 79  1  0  0  0
 73 81  2  0  0  0
 74144  1  0  0  0
 74145  1  0  0  0
 74146  1  0  0  0
 74 79  1  0  0  0
 75 79  1  0  0  0
 75147  1  0  0  0
 75148  1  0  0  0
 75149  1  0  0  0
 76150  1  0  0  0
 76151  1  0  0  0
 76152  1  0  0  0
 76 80  1  0  0  0
 77 80  1  0  0  0
 77153  1  0  0  0
 77154  1  0  0  0
 77155  1  0  0  0
 78 79  1  0  0  0
 78156  1  0  0  0
 78157  1  0  0  0
 80 82  1  0  0  0
 81 82  1  0  0  0
M  ISO  4   1 100  68 101  78 101  80 100
M  END
> <chiral flag>
0

> <version>
0

> <s_m_source_file>
/data/baiqing/PycharmProjects/Reinvent-master-3.2/result/LINK_invent/BTK/process_docking_weight1_custom_sum_contain_oxygen_bond_distance_aromatic_linkinvent_7_9_3/rearranged_h_0070.sdf

> <i_m_source_file_index>
49

> <r_mmod_Potential_Energy-OPLS-2005>
1581.79760742188

> <r_mmod_Stretch_Energy-OPLS-2005>
667.689331054688

> <r_mmod_Bend_Energy-OPLS-2005>
520.271789550781

> <r_mmod_Torsional_Energy-OPLS-2005>
261.114532470703

> <r_mmod_Improper_Torsional_Energy-OPLS-2005>
18.0029373168945

> <r_mmod_Van_der_Waal_Energy-OPLS-2005>
111.542045593262

> <r_mmod_Electrostatic_Energy-OPLS-2005>
-315.482360839844

> <r_mmod_Solvation_Energy-OPLS-2005>
-201.496490478516

> <b_mmod_Minimization_Converged-OPLS-2005>
0

> <r_mmod_RMS_Derivative-OPLS-2005>
2.78362107276917

$$$$
49
                    3D
 Structure written by MMmdl.
157165  0  0  1  0            999 V2000
  -30.5480  -14.9514   20.3733 C   0  0  0  0  0  0
  -30.4332  -12.5788   19.5054 C   0  0  0  0  0  0
  -29.5232  -12.5203   18.2564 C   0  0  0  0  0  0
  -28.0531  -12.3126   18.6681 C   0  0  0  0  0  0
  -27.6234  -13.2519   19.8255 C   0  0  2  0  0  0
  -28.6623  -13.3071   20.9612 C   0  0  0  0  0  0
  -25.2476  -13.8168   20.5795 C   0  0  0  0  0  0
  -24.1777  -13.0402   20.9246 C   0  0  0  0  0  0
  -24.6405  -11.6895   20.8745 C   0  0  0  0  0  0
  -23.9091  -10.4272   21.0405 C   0  0  0  0  0  0
  -24.3634   -9.4192   21.9191 C   0  0  0  0  0  0
  -23.6297   -8.2234   22.0763 C   0  0  0  0  0  0
  -22.4278   -8.0280   21.3554 C   0  0  0  0  0  0
  -21.9924   -9.0254   20.4656 C   0  0  0  0  0  0
  -22.7261  -10.2124   20.3058 C   0  0  0  0  0  0
  -21.6848   -6.0742   22.5291 C   0  0  0  0  0  0
  -21.4007   -6.5644   23.8225 C   0  0  0  0  0  0
  -21.3657   -5.6797   24.9186 C   0  0  0  0  0  0
  -21.6040   -4.3061   24.7236 C   0  0  0  0  0  0
  -21.8816   -3.8155   23.4356 C   0  0  0  0  0  0
  -21.9192   -4.6971   22.3412 C   0  0  0  0  0  0
  -22.7804  -13.5190   21.1911 C   0  0  0  0  0  0
  -22.1665   -4.2160   21.0990 F   0  0  0  0  0  0
  -21.5627   -3.4543   25.7746 F   0  0  0  0  0  0
  -29.9451  -13.6934   20.3671 N   0  0  0  0  0  0
  -26.2874  -12.9424   20.3204 N   0  0  0  0  0  0
  -25.9332  -11.6549   20.5696 N   0  0  0  0  0  0
  -22.0446  -12.8170   22.0451 N   0  0  0  0  0  0
  -25.4193  -15.1871   20.4413 N   0  0  0  0  0  0
  -31.7728  -14.9652   20.1975 O   0  0  0  0  0  0
  -21.6636   -6.8884   21.4251 O   0  0  0  0  0  0
  -22.3498  -14.5507   20.6772 O   0  0  0  0  0  0
  -24.6431  -31.8442   23.1896 C   0  0  0  0  0  0
  -25.9200  -32.4697   23.8286 C   0  0  1  0  0  0
  -27.2194  -27.1436   20.1447 C   0  0  0  0  0  0
  -25.5946  -33.8503   24.2202 N   0  0  0  0  0  0
  -23.4463  -30.4653   21.5342 C   0  0  2  0  0  0
  -24.8967  -28.8928   20.1088 C   0  0  0  0  0  0
  -22.7565  -29.4553   22.4856 C   0  0  0  0  0  0
  -18.0310  -28.1392   22.8471 C   0  0  0  0  0  0
  -24.1494  -36.7257   23.2646 C   0  0  0  0  0  0
  -26.0027  -30.7199   21.3870 C   0  0  0  0  0  0
  -26.0743  -29.3327   20.7262 C   0  0  0  0  0  0
  -27.2366  -28.4741   20.7271 C   0  0  0  0  0  0
  -26.0156  -26.8043   19.4889 C   0  0  0  0  0  0
  -24.8790  -27.6412   19.4762 C   0  0  0  0  0  0
  -23.6723  -29.7938   20.1538 C   0  0  0  0  0  0
  -25.4123  -36.3032   24.0322 C   0  0  1  0  0  0
  -20.5922  -28.3714   23.1233 C   0  0  2  0  0  0
  -20.6793  -26.9416   22.5400 C   0  0  0  0  0  0
  -19.5766  -26.6372   21.5209 C   0  0  0  0  0  0
  -18.1945  -26.7927   22.1619 C   0  0  0  0  0  0
  -19.1567  -28.8872   23.2844 C   0  0  0  0  0  0
  -18.9477  -30.1466   23.8872 C   0  0  0  0  0  0
  -17.6472  -30.6587   24.0552 C   0  0  0  0  0  0
  -25.9072  -34.9406   23.5073 C   0  0  0  0  0  0
  -16.5365  -29.9074   23.6341 C   0  0  0  0  0  0
  -16.7293  -28.6495   23.0357 C   0  0  0  0  0  0
  -26.4516  -31.6568   25.0730 C   0  0  0  0  0  0
  -25.3697  -31.3734   26.1421 C   0  0  0  0  0  0
  -27.0387  -30.2969   24.6314 C   0  0  0  0  0  0
  -27.6052  -32.4340   25.7506 C   0  0  0  0  0  0
  -27.5577  -37.1782   24.8465 C   0  0  0  0  0  0
  -21.4260  -29.3039   22.3602 N   0  0  0  0  0  0
  -26.4287  -37.3739   23.9414 N   0  0  0  0  0  0
  -24.7171  -31.0307   22.0925 N   0  0  0  0  0  0
  -23.4209  -28.8096   23.3000 O   0  0  0  0  0  0
  -28.2740  -26.1622   20.2213 O   0  0  0  0  0  0
  -26.5652  -34.8894   22.4648 O   0  0  0  0  0  0
  -23.5553  -32.1314   23.7126 O   0  0  0  0  0  0
  -30.2991  -17.6772   20.8169 C   0  0  0  0  0  0
  -29.7845  -16.3781   20.3279 C   0  0  0  0  0  0
  -29.5009  -18.7768   20.3960 C   0  0  0  0  0  0
  -26.2216  -17.8730   18.7079 C   0  0  0  0  0  0
  -28.0760  -19.0108   17.4059 C   0  0  0  0  0  0
  -29.6459  -20.4092   20.6023 C   0  0  0  0  0  0
  -28.6632  -21.7011   20.1361 C   0  0  0  0  0  0
  -28.9992  -23.3374   20.4105 C   0  0  0  0  0  0
  -28.0067  -24.6419   20.0181 C   0  0  0  0  0  0
  -27.5072  -18.7081   18.8003 C   0  0  0  0  0  0
  -28.6993  -16.7203   19.6177 N   0  0  0  0  0  0
  -28.5357  -18.1012   19.6443 N   0  0  0  0  0  0
  -31.4721  -12.7179   19.2013 H   0  0  0  0  0  0
  -30.4068  -11.6318   20.0473 H   0  0  0  0  0  0
  -29.8430  -11.7167   17.5916 H   0  0  0  0  0  0
  -29.6196  -13.4466   17.6871 H   0  0  0  0  0  0
  -27.9461  -11.2732   18.9793 H   0  0  0  0  0  0
  -27.3945  -12.4425   17.8085 H   0  0  0  0  0  0
  -27.5756  -14.2474   19.3854 H   0  0  0  0  0  0
  -28.7427  -12.3473   21.4737 H   0  0  0  0  0  0
  -28.3654  -14.0394   21.7134 H   0  0  0  0  0  0
  -25.2781   -9.5664   22.4770 H   0  0  0  0  0  0
  -24.0006   -7.4625   22.7483 H   0  0  0  0  0  0
  -21.0853   -8.8775   19.8965 H   0  0  0  0  0  0
  -22.3728  -10.9663   19.6167 H   0  0  0  0  0  0
  -21.1990   -7.6152   23.9730 H   0  0  0  0  0  0
  -21.1482   -6.0530   25.9088 H   0  0  0  0  0  0
  -22.0594   -2.7619   23.2858 H   0  0  0  0  0  0
  -22.4059  -11.9812   22.4804 H   0  0  0  0  0  0
  -21.1067  -13.1198   22.2668 H   0  0  0  0  0  0
  -24.6577  -15.8421   20.5720 H   0  0  0  0  0  0
  -26.2863  -15.6322   20.1567 H   0  0  0  0  0  0
  -26.7267  -32.5306   23.1018 H   0  0  0  0  0  0
  -25.0063  -33.9620   25.0330 H   0  0  0  0  0  0
  -22.7481  -31.2908   21.3790 H   0  0  0  0  0  0
  -23.3763  -35.9581   23.3292 H   0  0  0  0  0  0
  -24.3577  -36.8906   22.2062 H   0  0  0  0  0  0
  -23.7240  -37.6446   23.6692 H   0  0  0  0  0  0
  -26.1582  -31.4761   20.6163 H   0  0  0  0  0  0
  -26.8737  -30.7691   22.0289 H   0  0  0  0  0  0
  -28.1335  -28.8046   21.2317 H   0  0  0  0  0  0
  -25.9166  -25.8475   18.9987 H   0  0  0  0  0  0
  -23.9794  -27.2973   18.9845 H   0  0  0  0  0  0
  -23.8039  -30.5679   19.3963 H   0  0  0  0  0  0
  -22.7876  -29.2314   19.8476 H   0  0  0  0  0  0
  -25.1308  -36.1861   25.0810 H   0  0  0  0  0  0
  -21.0015  -28.3307   24.1353 H   0  0  0  0  0  0
  -20.5680  -26.2324   23.3618 H   0  0  0  0  0  0
  -21.6658  -26.7420   22.1195 H   0  0  0  0  0  0
  -19.6923  -25.6274   21.1258 H   0  0  0  0  0  0
  -19.6713  -27.3172   20.6732 H   0  0  0  0  0  0
  -17.4212  -26.6679   21.4020 H   0  0  0  0  0  0
  -18.0340  -26.0074   22.9022 H   0  0  0  0  0  0
  -19.7953  -30.7290   24.2230 H   0  0  0  0  0  0
  -17.5023  -31.6267   24.5151 H   0  0  0  0  0  0
  -15.5360  -30.2956   23.7689 H   0  0  0  0  0  0
  -15.8693  -28.0804   22.7086 H   0  0  0  0  0  0
  -24.5906  -30.7055   25.7731 H   0  0  0  0  0  0
  -24.8841  -32.2892   26.4799 H   0  0  0  0  0  0
  -25.7972  -30.8940   27.0237 H   0  0  0  0  0  0
  -26.3008  -29.6678   24.1321 H   0  0  0  0  0  0
  -27.3995  -29.7282   25.4896 H   0  0  0  0  0  0
  -27.8912  -30.4211   23.9635 H   0  0  0  0  0  0
  -27.2671  -33.3680   26.2009 H   0  0  0  0  0  0
  -28.3888  -32.6845   25.0341 H   0  0  0  0  0  0
  -28.0687  -31.8510   26.5477 H   0  0  0  0  0  0
  -28.2578  -38.0093   24.7520 H   0  0  0  0  0  0
  -28.1088  -36.2621   24.6287 H   0  0  0  0  0  0
  -27.2292  -37.1424   25.8865 H   0  0  0  0  0  0
  -20.9468  -29.8761   21.6791 H   0  0  0  0  0  0
  -26.0159  -38.2811   24.1404 H   0  0  0  0  0  0
  -31.2090  -17.7855   21.3906 H   0  0  0  0  0  0
  -25.4689  -18.3820   18.1052 H   0  0  0  0  0  0
  -25.7934  -17.7239   19.6977 H   0  0  0  0  0  0
  -26.3994  -16.8974   18.2544 H   0  0  0  0  0  0
  -27.3412  -19.5225   16.7844 H   0  0  0  0  0  0
  -28.3729  -18.0966   16.8907 H   0  0  0  0  0  0
  -28.9544  -19.6539   17.4696 H   0  0  0  0  0  0
  -30.6295  -20.6571   20.2049 H   0  0  0  0  0  0
  -29.7667  -20.5433   21.6774 H   0  0  0  0  0  0
  -27.6805  -21.5189   20.5710 H   0  0  0  0  0  0
  -28.5172  -21.6071   19.0604 H   0  0  0  0  0  0
  -29.9586  -23.5335   19.9313 H   0  0  0  0  0  0
  -29.2097  -23.4303   21.4763 H   0  0  0  0  0  0
  -27.0609  -24.4400   20.5212 H   0  0  0  0  0  0
  -27.7912  -24.5321   18.9553 H   0  0  0  0  0  0
  -27.2192  -19.6483   19.2656 H   0  0  0  0  0  0
  1 25  1  0  0  0
  1 30  2  0  0  0
  1 72  1  0  0  0
  2  3  1  0  0  0
  2 25  1  0  0  0
  2 83  1  0  0  0
  2 84  1  0  0  0
  3  4  1  0  0  0
  3 85  1  0  0  0
  3 86  1  0  0  0
  4  5  1  0  0  0
  4 87  1  0  0  0
  4 88  1  0  0  0
  5  6  1  0  0  0
  5 26  1  0  0  0
  5 89  1  0  0  0
  6 25  1  0  0  0
  6 90  1  0  0  0
  6 91  1  0  0  0
  7  8  2  0  0  0
  7 26  1  0  0  0
  7 29  1  0  0  0
  8  9  1  0  0  0
  8 22  1  0  0  0
  9 10  1  0  0  0
  9 27  2  0  0  0
 10 11  2  0  0  0
 10 15  1  0  0  0
 11 12  1  0  0  0
 11 92  1  0  0  0
 12 13  2  0  0  0
 12 93  1  0  0  0
 13 14  1  0  0  0
 13 31  1  0  0  0
 14 15  2  0  0  0
 14 94  1  0  0  0
 15 95  1  0  0  0
 16 17  2  0  0  0
 16 21  1  0  0  0
 16 31  1  0  0  0
 17 18  1  0  0  0
 17 96  1  0  0  0
 18 19  2  0  0  0
 18 97  1  0  0  0
 19 20  1  0  0  0
 19 24  1  0  0  0
 20 21  2  0  0  0
 20 98  1  0  0  0
 21 23  1  0  0  0
 22 28  1  0  0  0
 22 32  2  0  0  0
 26 27  1  0  0  0
 28 99  1  0  0  0
 28100  1  0  0  0
 29101  1  0  0  0
 29102  1  0  0  0
 33 34  1  0  0  0
 33 66  1  0  0  0
 33 70  2  0  0  0
 34 36  1  0  0  0
 34 59  1  0  0  0
 34103  1  0  0  0
 35 44  2  0  0  0
 35 45  1  0  0  0
 35 68  1  0  0  0
 36 56  1  0  0  0
 36104  1  0  0  0
 37 39  1  0  0  0
 37 47  1  0  0  0
 37 66  1  0  0  0
 37105  1  0  0  0
 38 43  2  0  0  0
 38 46  1  0  0  0
 38 47  1  0  0  0
 39 64  1  0  0  0
 39 67  2  0  0  0
 40 52  1  0  0  0
 40 53  2  0  0  0
 40 58  1  0  0  0
 41106  1  0  0  0
 41107  1  0  0  0
 41108  1  0  0  0
 41 48  1  0  0  0
 42 43  1  0  0  0
 42 66  1  0  0  0
 42109  1  0  0  0
 42110  1  0  0  0
 43 44  1  0  0  0
 44111  1  0  0  0
 45 46  2  0  0  0
 45112  1  0  0  0
 46113  1  0  0  0
 47114  1  0  0  0
 47115  1  0  0  0
 48 56  1  0  0  0
 48 65  1  0  0  0
 48116  1  0  0  0
 49 50  1  0  0  0
 49 53  1  0  0  0
 49 64  1  0  0  0
 49117  1  0  0  0
 50 51  1  0  0  0
 50118  1  0  0  0
 50119  1  0  0  0
 51 52  1  0  0  0
 51120  1  0  0  0
 51121  1  0  0  0
 52122  1  0  0  0
 52123  1  0  0  0
 53 54  1  0  0  0
 54 55  2  0  0  0
 54124  1  0  0  0
 55 57  1  0  0  0
 55125  1  0  0  0
 56 69  2  0  0  0
 57 58  2  0  0  0
 57126  1  0  0  0
 58127  1  0  0  0
 59 60  1  0  0  0
 59 61  1  0  0  0
 59 62  1  0  0  0
 60128  1  0  0  0
 60129  1  0  0  0
 60130  1  0  0  0
 61131  1  0  0  0
 61132  1  0  0  0
 61133  1  0  0  0
 62134  1  0  0  0
 62135  1  0  0  0
 62136  1  0  0  0
 63 65  1  0  0  0
 63137  1  0  0  0
 63138  1  0  0  0
 63139  1  0  0  0
 64140  1  0  0  0
 65141  1  0  0  0
 68 79  1  0  0  0
 71 72  1  0  0  0
 71 73  2  0  0  0
 71142  1  0  0  0
 72 81  2  0  0  0
 73 76  1  0  0  0
 73 82  1  0  0  0
 74143  1  0  0  0
 74144  1  0  0  0
 74145  1  0  0  0
 74 80  1  0  0  0
 75 80  1  0  0  0
 75146  1  0  0  0
 75147  1  0  0  0
 75148  1  0  0  0
 76 77  1  0  0  0
 76149  1  0  0  0
 76150  1  0  0  0
 77 78  1  0  0  0
 77151  1  0  0  0
 77152  1  0  0  0
 78 79  1  0  0  0
 78153  1  0  0  0
 78154  1  0  0  0
 79155  1  0  0  0
 79156  1  0  0  0
 80 82  1  0  0  0
 80157  1  0  0  0
 81 82  1  0  0  0
M  ISO  4   1 100  68 101  72 100  79 101
M  END
> <chiral flag>
0

> <version>
0

> <s_m_source_file>
/data/baiqing/PycharmProjects/Reinvent-master-3.2/result/LINK_invent/BTK/process_docking_weight1_custom_sum_contain_oxygen_bond_distance_aromatic_linkinvent_7_9_3/rearranged_h_0070.sdf

> <i_m_source_file_index>
50

> <r_mmod_Potential_Energy-OPLS-2005>
608.138732910156

> <r_mmod_Stretch_Energy-OPLS-2005>
255.325241088867

> <r_mmod_Bend_Energy-OPLS-2005>
258.269500732422

> <r_mmod_Torsional_Energy-OPLS-2005>
235.545120239258

> <r_mmod_Improper_Torsional_Energy-OPLS-2005>
7.13965892791748

> <r_mmod_Van_der_Waal_Energy-OPLS-2005>
105.040725708008

> <r_mmod_Electrostatic_Energy-OPLS-2005>
-263.3271484375

> <r_mmod_Solvation_Energy-OPLS-2005>
-183.105239868164

> <b_mmod_Minimization_Converged-OPLS-2005>
0

> <r_mmod_RMS_Derivative-OPLS-2005>
1.31287717819214

$$$$
50
                    3D
 Structure written by MMmdl.
163171  0  0  1  0            999 V2000
  -30.7025  -14.4396   20.6535 C   0  0  0  0  0  0
  -30.4400  -12.3110   19.4195 C   0  0  0  0  0  0
  -29.5041  -12.5401   18.2128 C   0  0  0  0  0  0
  -28.0251  -12.3847   18.6195 C   0  0  0  0  0  0
  -27.6760  -13.1956   19.8949 C   0  0  2  0  0  0
  -28.7175  -12.9196   21.0080 C   0  0  0  0  0  0
  -25.2594  -13.8110   20.5583 C   0  0  0  0  0  0
  -24.1843  -13.0419   20.9145 C   0  0  0  0  0  0
  -24.6384  -11.6885   20.8729 C   0  0  0  0  0  0
  -23.9036  -10.4287   21.0404 C   0  0  0  0  0  0
  -24.3593   -9.4208   21.9186 C   0  0  0  0  0  0
  -23.6273   -8.2241   22.0758 C   0  0  0  0  0  0
  -22.4257   -8.0279   21.3547 C   0  0  0  0  0  0
  -21.9884   -9.0247   20.4653 C   0  0  0  0  0  0
  -22.7203  -10.2136   20.3058 C   0  0  0  0  0  0
  -21.6851   -6.0725   22.5274 C   0  0  0  0  0  0
  -21.4015   -6.5630   23.8204 C   0  0  0  0  0  0
  -21.3667   -5.6787   24.9172 C   0  0  0  0  0  0
  -21.6047   -4.3046   24.7220 C   0  0  0  0  0  0
  -21.8817   -3.8139   23.4343 C   0  0  0  0  0  0
  -21.9189   -4.6954   22.3397 C   0  0  0  0  0  0
  -22.7872  -13.5250   21.1806 C   0  0  0  0  0  0
  -22.1661   -4.2142   21.0975 F   0  0  0  0  0  0
  -21.5625   -3.4532   25.7735 F   0  0  0  0  0  0
  -30.0623  -13.2477   20.4906 N   0  0  0  0  0  0
  -26.3085  -12.9279   20.3429 N   0  0  0  0  0  0
  -25.9331  -11.6454   20.5806 N   0  0  0  0  0  0
  -22.0501  -12.8277   22.0384 N   0  0  0  0  0  0
  -25.4218  -15.1801   20.3766 N   0  0  0  0  0  0
  -31.7138  -14.7582   20.0210 O   0  0  0  0  0  0
  -21.6633   -6.8869   21.4238 O   0  0  0  0  0  0
  -22.3566  -14.5564   20.6657 O   0  0  0  0  0  0
  -24.6136  -31.8698   23.2127 C   0  0  0  0  0  0
  -25.9036  -32.4836   23.8416 C   0  0  1  0  0  0
  -27.2510  -27.4533   20.0968 C   0  0  0  0  0  0
  -25.5895  -33.8630   24.2346 N   0  0  0  0  0  0
  -23.4032  -30.4922   21.5519 C   0  0  2  0  0  0
  -24.8560  -28.9606   20.1204 C   0  0  0  0  0  0
  -22.7407  -29.4667   22.5000 C   0  0  0  0  0  0
  -18.0268  -28.1381   22.8491 C   0  0  0  0  0  0
  -24.1481  -36.7321   23.2637 C   0  0  0  0  0  0
  -25.9307  -30.8403   21.3655 C   0  0  0  0  0  0
  -26.0140  -29.4729   20.7207 C   0  0  0  0  0  0
  -27.2161  -28.7266   20.7167 C   0  0  0  0  0  0
  -26.0767  -26.9573   19.4958 C   0  0  0  0  0  0
  -24.8794  -27.6966   19.5080 C   0  0  0  0  0  0
  -23.6148  -29.8240   20.1672 C   0  0  0  0  0  0
  -25.4101  -36.3119   24.0341 C   0  0  1  0  0  0
  -20.5860  -28.3669   23.1316 C   0  0  2  0  0  0
  -20.6758  -26.9404   22.5419 C   0  0  0  0  0  0
  -19.5740  -26.6389   21.5211 C   0  0  0  0  0  0
  -18.1918  -26.7927   22.1622 C   0  0  0  0  0  0
  -19.1519  -28.8838   23.2901 C   0  0  0  0  0  0
  -18.9453  -30.1441   23.8912 C   0  0  0  0  0  0
  -17.6458  -30.6588   24.0568 C   0  0  0  0  0  0
  -25.9030  -34.9484   23.5139 C   0  0  0  0  0  0
  -16.5344  -29.9091   23.6326 C   0  0  0  0  0  0
  -16.7262  -28.6506   23.0347 C   0  0  0  0  0  0
  -26.4477  -31.6598   25.0726 C   0  0  0  0  0  0
  -25.3751  -31.3702   26.1478 C   0  0  0  0  0  0
  -27.0302  -30.3042   24.6081 C   0  0  0  0  0  0
  -27.6059  -32.4313   25.7483 C   0  0  0  0  0  0
  -27.5581  -37.1808   24.8464 C   0  0  0  0  0  0
  -21.4139  -29.3037   22.3727 N   0  0  0  0  0  0
  -26.4289  -37.3802   23.9416 N   0  0  0  0  0  0
  -24.6671  -31.0807   22.1024 N   0  0  0  0  0  0
  -23.4174  -28.8209   23.3049 O   0  0  0  0  0  0
  -28.3556  -26.6334   20.0109 O   0  0  0  0  0  0
  -26.5591  -34.8932   22.4700 O   0  0  0  0  0  0
  -23.5331  -32.1443   23.7521 O   0  0  0  0  0  0
  -29.3819  -18.8354   20.3660 C   0  0  0  0  0  0
  -29.9290  -17.8327   21.2048 C   0  0  0  0  0  0
  -30.9080  -19.4899   22.4914 C   0  0  0  0  0  0
  -30.2591  -20.4942   21.7142 C   0  0  0  0  0  0
  -31.7509  -19.8267   23.7070 C   0  0  0  0  0  0
  -28.0713  -16.4283   22.0519 C   0  0  0  0  0  0
  -30.0930  -21.9482   22.1821 C   0  0  0  0  0  0
  -30.5844  -23.0648   21.2271 C   0  0  0  0  0  0
  -29.9099  -24.4284   21.5405 C   0  0  0  0  0  0
  -30.4186  -25.6273   20.7056 C   0  0  0  0  0  0
  -29.5165  -26.8850   20.7920 C   0  0  0  0  0  0
  -29.3224  -16.4258   21.1533 C   0  0  2  0  0  0
  -29.5325  -20.1572   20.6214 N   0  0  0  0  0  0
  -30.7388  -18.1615   22.2443 N   0  0  0  0  0  0
  -30.1443  -15.2691   21.5494 N   0  0  0  0  0  0
  -31.4829  -12.4281   19.1197 H   0  0  0  0  0  0
  -30.3518  -11.2862   19.7823 H   0  0  0  0  0  0
  -29.7483  -11.8449   17.4085 H   0  0  0  0  0  0
  -29.6658  -13.5406   17.8076 H   0  0  0  0  0  0
  -27.8338  -11.3247   18.7903 H   0  0  0  0  0  0
  -27.3758  -12.6798   17.7946 H   0  0  0  0  0  0
  -27.7365  -14.2504   19.6308 H   0  0  0  0  0  0
  -28.6911  -11.8644   21.2849 H   0  0  0  0  0  0
  -28.4671  -13.4478   21.9255 H   0  0  0  0  0  0
  -25.2743   -9.5689   22.4751 H   0  0  0  0  0  0
  -23.9981   -7.4640   22.7485 H   0  0  0  0  0  0
  -21.0809   -8.8757   19.8970 H   0  0  0  0  0  0
  -22.3647  -10.9666   19.6160 H   0  0  0  0  0  0
  -21.2014   -7.6138   23.9706 H   0  0  0  0  0  0
  -21.1495   -6.0517   25.9073 H   0  0  0  0  0  0
  -22.0590   -2.7600   23.2837 H   0  0  0  0  0  0
  -22.4084  -11.9932   22.4783 H   0  0  0  0  0  0
  -21.1136  -13.1347   22.2600 H   0  0  0  0  0  0
  -24.6488  -15.8309   20.4672 H   0  0  0  0  0  0
  -26.2556  -15.6093   19.9996 H   0  0  0  0  0  0
  -26.7115  -32.5572   23.1196 H   0  0  0  0  0  0
  -25.0045  -33.9795   25.0489 H   0  0  0  0  0  0
  -22.6917  -31.3084   21.4115 H   0  0  0  0  0  0
  -23.3738  -35.9660   23.3314 H   0  0  0  0  0  0
  -24.3575  -36.8918   22.2049 H   0  0  0  0  0  0
  -23.7239  -37.6533   23.6640 H   0  0  0  0  0  0
  -26.0362  -31.6027   20.5924 H   0  0  0  0  0  0
  -26.8204  -30.9012   21.9798 H   0  0  0  0  0  0
  -28.1028  -29.1364   21.1785 H   0  0  0  0  0  0
  -26.0917  -25.9880   19.0176 H   0  0  0  0  0  0
  -23.9912  -27.2916   19.0428 H   0  0  0  0  0  0
  -23.7234  -30.5981   19.4068 H   0  0  0  0  0  0
  -22.7405  -29.2416   19.8713 H   0  0  0  0  0  0
  -25.1274  -36.1989   25.0833 H   0  0  0  0  0  0
  -20.9952  -28.3234   24.1437 H   0  0  0  0  0  0
  -20.5655  -26.2277   23.3609 H   0  0  0  0  0  0
  -21.6633  -26.7444   22.1220 H   0  0  0  0  0  0
  -19.6903  -25.6303   21.1232 H   0  0  0  0  0  0
  -19.6680  -27.3205   20.6747 H   0  0  0  0  0  0
  -17.4189  -26.6672   21.4024 H   0  0  0  0  0  0
  -18.0319  -26.0068   22.9020 H   0  0  0  0  0  0
  -19.7928  -30.7247   24.2295 H   0  0  0  0  0  0
  -17.5016  -31.6269   24.5171 H   0  0  0  0  0  0
  -15.5349  -30.3003   23.7646 H   0  0  0  0  0  0
  -15.8658  -28.0837   22.7057 H   0  0  0  0  0  0
  -24.5914  -30.7059   25.7820 H   0  0  0  0  0  0
  -24.8950  -32.2856   26.4946 H   0  0  0  0  0  0
  -25.8106  -30.8858   27.0224 H   0  0  0  0  0  0
  -26.2835  -29.6804   24.1151 H   0  0  0  0  0  0
  -27.4098  -29.7277   25.4528 H   0  0  0  0  0  0
  -27.8662  -30.4368   23.9208 H   0  0  0  0  0  0
  -27.2679  -33.3595   26.2107 H   0  0  0  0  0  0
  -28.3840  -32.6902   25.0290 H   0  0  0  0  0  0
  -28.0759  -31.8406   26.5358 H   0  0  0  0  0  0
  -28.2606  -38.0100   24.7517 H   0  0  0  0  0  0
  -28.1067  -36.2632   24.6276 H   0  0  0  0  0  0
  -27.2302  -37.1449   25.8868 H   0  0  0  0  0  0
  -20.9300  -29.8758   21.6948 H   0  0  0  0  0  0
  -26.0181  -38.2880   24.1423 H   0  0  0  0  0  0
  -28.7030  -18.5792   19.5656 H   0  0  0  0  0  0
  -31.1127  -20.1317   24.5362 H   0  0  0  0  0  0
  -32.4411  -20.6406   23.4820 H   0  0  0  0  0  0
  -32.3454  -18.9724   24.0321 H   0  0  0  0  0  0
  -27.3474  -17.1725   21.7180 H   0  0  0  0  0  0
  -28.3278  -16.6708   23.0848 H   0  0  0  0  0  0
  -27.5590  -15.4686   22.0618 H   0  0  0  0  0  0
  -30.5414  -22.0940   23.1639 H   0  0  0  0  0  0
  -29.0237  -22.0798   22.3479 H   0  0  0  0  0  0
  -30.3478  -22.7987   20.1967 H   0  0  0  0  0  0
  -31.6708  -23.1416   21.2826 H   0  0  0  0  0  0
  -30.0425  -24.6639   22.5972 H   0  0  0  0  0  0
  -28.8332  -24.3240   21.3939 H   0  0  0  0  0  0
  -30.5203  -25.3366   19.6594 H   0  0  0  0  0  0
  -31.4240  -25.8858   21.0424 H   0  0  0  0  0  0
  -30.0391  -27.7491   20.3786 H   0  0  0  0  0  0
  -29.2644  -27.1100   21.8293 H   0  0  0  0  0  0
  -28.9883  -16.2660   20.1250 H   0  0  0  0  0  0
  -29.7018  -14.7571   22.2963 H   0  0  0  0  0  0
  1 25  1  0  0  0
  1 30  2  0  0  0
  1 85  1  0  0  0
  2  3  1  0  0  0
  2 25  1  0  0  0
  2 86  1  0  0  0
  2 87  1  0  0  0
  3  4  1  0  0  0
  3 88  1  0  0  0
  3 89  1  0  0  0
  4  5  1  0  0  0
  4 90  1  0  0  0
  4 91  1  0  0  0
  5  6  1  0  0  0
  5 26  1  0  0  0
  5 92  1  0  0  0
  6 25  1  0  0  0
  6 93  1  0  0  0
  6 94  1  0  0  0
  7  8  2  0  0  0
  7 26  1  0  0  0
  7 29  1  0  0  0
  8  9  1  0  0  0
  8 22  1  0  0  0
  9 10  1  0  0  0
  9 27  2  0  0  0
 10 11  2  0  0  0
 10 15  1  0  0  0
 11 12  1  0  0  0
 11 95  1  0  0  0
 12 13  2  0  0  0
 12 96  1  0  0  0
 13 14  1  0  0  0
 13 31  1  0  0  0
 14 15  2  0  0  0
 14 97  1  0  0  0
 15 98  1  0  0  0
 16 17  2  0  0  0
 16 21  1  0  0  0
 16 31  1  0  0  0
 17 18  1  0  0  0
 17 99  1  0  0  0
 18 19  2  0  0  0
 18100  1  0  0  0
 19 20  1  0  0  0
 19 24  1  0  0  0
 20 21  2  0  0  0
 20101  1  0  0  0
 21 23  1  0  0  0
 22 28  1  0  0  0
 22 32  2  0  0  0
 26 27  1  0  0  0
 28102  1  0  0  0
 28103  1  0  0  0
 29104  1  0  0  0
 29105  1  0  0  0
 33 34  1  0  0  0
 33 66  1  0  0  0
 33 70  2  0  0  0
 34 36  1  0  0  0
 34 59  1  0  0  0
 34106  1  0  0  0
 35 44  2  0  0  0
 35 45  1  0  0  0
 35 68  1  0  0  0
 36 56  1  0  0  0
 36107  1  0  0  0
 37 39  1  0  0  0
 37 47  1  0  0  0
 37 66  1  0  0  0
 37108  1  0  0  0
 38 43  2  0  0  0
 38 46  1  0  0  0
 38 47  1  0  0  0
 39 64  1  0  0  0
 39 67  2  0  0  0
 40 52  1  0  0  0
 40 53  2  0  0  0
 40 58  1  0  0  0
 41109  1  0  0  0
 41110  1  0  0  0
 41111  1  0  0  0
 41 48  1  0  0  0
 42 43  1  0  0  0
 42 66  1  0  0  0
 42112  1  0  0  0
 42113  1  0  0  0
 43 44  1  0  0  0
 44114  1  0  0  0
 45 46  2  0  0  0
 45115  1  0  0  0
 46116  1  0  0  0
 47117  1  0  0  0
 47118  1  0  0  0
 48 56  1  0  0  0
 48 65  1  0  0  0
 48119  1  0  0  0
 49 50  1  0  0  0
 49 53  1  0  0  0
 49 64  1  0  0  0
 49120  1  0  0  0
 50 51  1  0  0  0
 50121  1  0  0  0
 50122  1  0  0  0
 51 52  1  0  0  0
 51123  1  0  0  0
 51124  1  0  0  0
 52125  1  0  0  0
 52126  1  0  0  0
 53 54  1  0  0  0
 54 55  2  0  0  0
 54127  1  0  0  0
 55 57  1  0  0  0
 55128  1  0  0  0
 56 69  2  0  0  0
 57 58  2  0  0  0
 57129  1  0  0  0
 58130  1  0  0  0
 59 60  1  0  0  0
 59 61  1  0  0  0
 59 62  1  0  0  0
 60131  1  0  0  0
 60132  1  0  0  0
 60133  1  0  0  0
 61134  1  0  0  0
 61135  1  0  0  0
 61136  1  0  0  0
 62137  1  0  0  0
 62138  1  0  0  0
 62139  1  0  0  0
 63 65  1  0  0  0
 63140  1  0  0  0
 63141  1  0  0  0
 63142  1  0  0  0
 64143  1  0  0  0
 65144  1  0  0  0
 68 81  1  0  0  0
 71 72  2  0  0  0
 71 83  1  0  0  0
 71145  1  0  0  0
 72 82  1  0  0  0
 72 84  1  0  0  0
 73 74  1  0  0  0
 73 75  1  0  0  0
 73 84  2  0  0  0
 74 77  1  0  0  0
 74 83  2  0  0  0
 75146  1  0  0  0
 75147  1  0  0  0
 75148  1  0  0  0
 76149  1  0  0  0
 76150  1  0  0  0
 76151  1  0  0  0
 76 82  1  0  0  0
 77 78  1  0  0  0
 77152  1  0  0  0
 77153  1  0  0  0
 78 79  1  0  0  0
 78154  1  0  0  0
 78155  1  0  0  0
 79 80  1  0  0  0
 79156  1  0  0  0
 79157  1  0  0  0
 80 81  1  0  0  0
 80158  1  0  0  0
 80159  1  0  0  0
 81160  1  0  0  0
 81161  1  0  0  0
 82 85  1  0  0  0
 82162  1  0  0  0
 85163  1  0  0  0
M  ISO  4   1 100  68 101  81 101  85 100
M  END
> <chiral flag>
0

> <version>
0

> <s_m_source_file>
/data/baiqing/PycharmProjects/Reinvent-master-3.2/result/LINK_invent/BTK/process_docking_weight1_custom_sum_contain_oxygen_bond_distance_aromatic_linkinvent_7_9_3/rearranged_h_0070.sdf

> <i_m_source_file_index>
51

> <r_mmod_Potential_Energy-OPLS-2005>
-10.1234359741211

> <r_mmod_Stretch_Energy-OPLS-2005>
40.0073356628418

> <r_mmod_Bend_Energy-OPLS-2005>
118.241546630859

> <r_mmod_Torsional_Energy-OPLS-2005>
244.547729492188

> <r_mmod_Improper_Torsional_Energy-OPLS-2005>
10.8336143493652

> <r_mmod_Van_der_Waal_Energy-OPLS-2005>
147.101638793945

> <r_mmod_Electrostatic_Energy-OPLS-2005>
-352.018249511719

> <r_mmod_Solvation_Energy-OPLS-2005>
-229.896362304688

> <b_mmod_Minimization_Converged-OPLS-2005>
0

> <r_mmod_RMS_Derivative-OPLS-2005>
1.58399295806885

$$$$
51
                    3D
 Structure written by MMmdl.
191199  0  0  1  0            999 V2000
  -30.7397  -14.4772   20.6884 C   0  0  0  0  0  0
  -30.4215  -12.3532   19.4186 C   0  0  0  0  0  0
  -29.5002  -12.5567   18.1957 C   0  0  0  0  0  0
  -28.0143  -12.4040   18.5837 C   0  0  0  0  0  0
  -27.6587  -13.2117   19.8619 C   0  0  2  0  0  0
  -28.6951  -12.9193   20.9652 C   0  0  0  0  0  0
  -25.2551  -13.8198   20.5609 C   0  0  0  0  0  0
  -24.1793  -13.0434   20.9111 C   0  0  0  0  0  0
  -24.6368  -11.6922   20.8671 C   0  0  0  0  0  0
  -23.9028  -10.4307   21.0409 C   0  0  0  0  0  0
  -24.3581   -9.4216   21.9190 C   0  0  0  0  0  0
  -23.6262   -8.2251   22.0762 C   0  0  0  0  0  0
  -22.4241   -8.0285   21.3558 C   0  0  0  0  0  0
  -21.9884   -9.0245   20.4649 C   0  0  0  0  0  0
  -22.7212  -10.2126   20.3049 C   0  0  0  0  0  0
  -21.6823   -6.0736   22.5284 C   0  0  0  0  0  0
  -21.4014   -6.5646   23.8220 C   0  0  0  0  0  0
  -21.3660   -5.6792   24.9184 C   0  0  0  0  0  0
  -21.6032   -4.3056   24.7233 C   0  0  0  0  0  0
  -21.8808   -3.8151   23.4351 C   0  0  0  0  0  0
  -21.9191   -4.6966   22.3409 C   0  0  0  0  0  0
  -22.7809  -13.5202   21.1818 C   0  0  0  0  0  0
  -22.1642   -4.2150   21.0985 F   0  0  0  0  0  0
  -21.5626   -3.4539   25.7748 F   0  0  0  0  0  0
  -30.0242  -13.3197   20.4743 N   0  0  0  0  0  0
  -26.2974  -12.9354   20.3222 N   0  0  0  0  0  0
  -25.9286  -11.6508   20.5623 N   0  0  0  0  0  0
  -22.0467  -12.8178   22.0391 N   0  0  0  0  0  0
  -25.4305  -15.1923   20.4112 N   0  0  0  0  0  0
  -31.7946  -14.6307   20.0606 O   0  0  0  0  0  0
  -21.6611   -6.8869   21.4246 O   0  0  0  0  0  0
  -22.3465  -14.5492   20.6679 O   0  0  0  0  0  0
  -24.6238  -31.8678   23.2087 C   0  0  0  0  0  0
  -25.9108  -32.4822   23.8388 C   0  0  1  0  0  0
  -27.2219  -27.3821   20.0855 C   0  0  0  0  0  0
  -25.5936  -33.8600   24.2318 N   0  0  0  0  0  0
  -23.4125  -30.4930   21.5538 C   0  0  2  0  0  0
  -24.8513  -28.9610   20.1089 C   0  0  0  0  0  0
  -22.7447  -29.4675   22.5018 C   0  0  0  0  0  0
  -18.0283  -28.1409   22.8485 C   0  0  0  0  0  0
  -24.1493  -36.7309   23.2636 C   0  0  0  0  0  0
  -25.9481  -30.8098   21.3724 C   0  0  0  0  0  0
  -26.0200  -29.4437   20.7120 C   0  0  0  0  0  0
  -27.2057  -28.6616   20.7007 C   0  0  0  0  0  0
  -26.0285  -26.9447   19.4525 C   0  0  0  0  0  0
  -24.8535  -27.7102   19.4777 C   0  0  0  0  0  0
  -23.6181  -29.8323   20.1673 C   0  0  0  0  0  0
  -25.4114  -36.3113   24.0342 C   0  0  1  0  0  0
  -20.5861  -28.3703   23.1306 C   0  0  2  0  0  0
  -20.6798  -26.9451   22.5418 C   0  0  0  0  0  0
  -19.5775  -26.6405   21.5228 C   0  0  0  0  0  0
  -18.1935  -26.7947   22.1618 C   0  0  0  0  0  0
  -19.1525  -28.8871   23.2872 C   0  0  0  0  0  0
  -18.9470  -30.1470   23.8903 C   0  0  0  0  0  0
  -17.6480  -30.6614   24.0571 C   0  0  0  0  0  0
  -25.9058  -34.9480   23.5135 C   0  0  0  0  0  0
  -16.5366  -29.9124   23.6344 C   0  0  0  0  0  0
  -16.7264  -28.6543   23.0362 C   0  0  0  0  0  0
  -26.4490  -31.6614   25.0753 C   0  0  0  0  0  0
  -25.3712  -31.3740   26.1489 C   0  0  0  0  0  0
  -27.0320  -30.3050   24.6155 C   0  0  0  0  0  0
  -27.6064  -32.4338   25.7506 C   0  0  0  0  0  0
  -27.5590  -37.1802   24.8463 C   0  0  0  0  0  0
  -21.4179  -29.3048   22.3711 N   0  0  0  0  0  0
  -26.4296  -37.3810   23.9419 N   0  0  0  0  0  0
  -24.6802  -31.0716   22.1021 N   0  0  0  0  0  0
  -23.4199  -28.8228   23.3088 O   0  0  0  0  0  0
  -28.3634  -26.5801   20.1326 O   0  0  0  0  0  0
  -26.5629  -34.8947   22.4704 O   0  0  0  0  0  0
  -23.5425  -32.1464   23.7461 O   0  0  0  0  0  0
  -29.4815  -16.9976   19.4886 C   0  0  0  0  0  0
  -29.4934  -18.1581   21.3469 C   0  0  0  0  0  0
  -29.8002  -16.9101   20.8624 C   0  0  0  0  0  0
  -28.9118  -18.2126   19.2001 C   0  0  0  0  0  0
  -25.5687  -21.2425   20.2107 C   0  0  0  0  0  0
  -28.0954  -19.9330   23.5353 C   0  0  0  0  0  0
  -27.5679  -17.4055   17.2576 C   0  0  0  0  0  0
  -29.3501  -15.3911   22.7822 C   0  0  0  0  0  0
  -31.6482  -16.1552   22.3658 C   0  0  0  0  0  0
  -30.2785  -20.2418   17.2439 C   0  0  0  0  0  0
  -29.0570  -19.1704   15.3679 C   0  0  0  0  0  0
  -30.7170  -17.8521   16.7140 C   0  0  0  0  0  0
  -26.8007  -20.4014   19.8053 C   0  0  0  0  0  0
  -27.2914  -19.9718   22.2105 C   0  0  0  0  0  0
  -28.8010  -22.6678   19.8756 C   0  0  0  0  0  0
  -29.2126  -24.1222   20.3063 C   0  0  0  0  0  0
  -28.8913  -21.5158   20.9392 C   0  0  0  0  0  0
  -28.1929  -25.1791   19.7790 C   0  0  0  0  0  0
  -28.4560  -18.5563   17.7866 C   0  0  2  0  0  0
  -30.3512  -15.6951   21.6457 C   0  0  0  0  0  0
  -29.6120  -18.9294   16.7921 C   0  0  0  0  0  0
  -27.9950  -20.1964   20.8059 C   0  0  0  0  0  0
  -28.7651  -18.9272   20.4268 N   0  0  0  0  0  0
  -31.4667  -12.4442   19.1207 H   0  0  0  0  0  0
  -30.3277  -11.3288   19.7802 H   0  0  0  0  0  0
  -29.7524  -11.8551   17.3999 H   0  0  0  0  0  0
  -29.6689  -13.5507   17.7807 H   0  0  0  0  0  0
  -27.8147  -11.3405   18.7383 H   0  0  0  0  0  0
  -27.3796  -12.7113   17.7512 H   0  0  0  0  0  0
  -27.7182  -14.2684   19.5996 H   0  0  0  0  0  0
  -28.7011  -11.8435   21.1468 H   0  0  0  0  0  0
  -28.3933  -13.3086   21.9232 H   0  0  0  0  0  0
  -25.2737   -9.5656   22.4742 H   0  0  0  0  0  0
  -23.9966   -7.4614   22.7446 H   0  0  0  0  0  0
  -21.0844   -8.8722   19.8929 H   0  0  0  0  0  0
  -22.3684  -10.9619   19.6110 H   0  0  0  0  0  0
  -21.1998   -7.6155   23.9711 H   0  0  0  0  0  0
  -21.1490   -6.0543   25.9079 H   0  0  0  0  0  0
  -22.0593   -2.7616   23.2851 H   0  0  0  0  0  0
  -22.4112  -11.9850   22.4760 H   0  0  0  0  0  0
  -21.1061  -13.1151   22.2581 H   0  0  0  0  0  0
  -24.6779  -15.8606   20.5305 H   0  0  0  0  0  0
  -26.3108  -15.6294   20.1652 H   0  0  0  0  0  0
  -26.7175  -32.5521   23.1132 H   0  0  0  0  0  0
  -25.0036  -33.9714   25.0440 H   0  0  0  0  0  0
  -22.7060  -31.3133   21.4192 H   0  0  0  0  0  0
  -23.3774  -35.9624   23.3299 H   0  0  0  0  0  0
  -24.3576  -36.8935   22.2048 H   0  0  0  0  0  0
  -23.7219  -37.6501   23.6660 H   0  0  0  0  0  0
  -26.0731  -31.5708   20.6021 H   0  0  0  0  0  0
  -26.8324  -30.8566   21.9961 H   0  0  0  0  0  0
  -28.1015  -29.0216   21.1868 H   0  0  0  0  0  0
  -25.9610  -25.9997   18.9316 H   0  0  0  0  0  0
  -23.9575  -27.3333   19.0003 H   0  0  0  0  0  0
  -23.7223  -30.6115   19.4117 H   0  0  0  0  0  0
  -22.7369  -29.2550   19.8797 H   0  0  0  0  0  0
  -25.1275  -36.1988   25.0834 H   0  0  0  0  0  0
  -20.9917  -28.3323   24.1433 H   0  0  0  0  0  0
  -20.5797  -26.2317   23.3619 H   0  0  0  0  0  0
  -21.6666  -26.7572   22.1157 H   0  0  0  0  0  0
  -19.6988  -25.6323   21.1262 H   0  0  0  0  0  0
  -19.6731  -27.3220   20.6766 H   0  0  0  0  0  0
  -17.4223  -26.6687   21.4013 H   0  0  0  0  0  0
  -18.0340  -26.0100   22.9024 H   0  0  0  0  0  0
  -19.7955  -30.7249   24.2312 H   0  0  0  0  0  0
  -17.5057  -31.6303   24.5163 H   0  0  0  0  0  0
  -15.5370  -30.3037   23.7682 H   0  0  0  0  0  0
  -15.8653  -28.0857   22.7093 H   0  0  0  0  0  0
  -24.5863  -30.7121   25.7817 H   0  0  0  0  0  0
  -24.8910  -32.2888   26.4964 H   0  0  0  0  0  0
  -25.8010  -30.8878   27.0249 H   0  0  0  0  0  0
  -26.2876  -29.6812   24.1186 H   0  0  0  0  0  0
  -27.4057  -29.7301   25.4636 H   0  0  0  0  0  0
  -27.8734  -30.4377   23.9347 H   0  0  0  0  0  0
  -27.2703  -33.3648   26.2082 H   0  0  0  0  0  0
  -28.3855  -32.6876   25.0308 H   0  0  0  0  0  0
  -28.0752  -31.8458   26.5412 H   0  0  0  0  0  0
  -28.2600  -38.0113   24.7546 H   0  0  0  0  0  0
  -28.1088  -36.2639   24.6236 H   0  0  0  0  0  0
  -27.2298  -37.1388   25.8864 H   0  0  0  0  0  0
  -20.9432  -29.8689   21.6809 H   0  0  0  0  0  0
  -26.0204  -38.2900   24.1415 H   0  0  0  0  0  0
  -29.6429  -16.2201   18.7562 H   0  0  0  0  0  0
  -29.6623  -18.5072   22.3476 H   0  0  0  0  0  0
  -24.9337  -21.4163   19.3406 H   0  0  0  0  0  0
  -25.8435  -22.2137   20.6189 H   0  0  0  0  0  0
  -24.9437  -20.7314   20.9432 H   0  0  0  0  0  0
  -27.5073  -20.3682   24.3442 H   0  0  0  0  0  0
  -29.0290  -20.4923   23.4944 H   0  0  0  0  0  0
  -28.3098  -18.9165   23.8609 H   0  0  0  0  0  0
  -26.8073  -17.1393   17.9921 H   0  0  0  0  0  0
  -28.1463  -16.5066   17.0447 H   0  0  0  0  0  0
  -27.0397  -17.6785   16.3464 H   0  0  0  0  0  0
  -28.3305  -15.3096   22.4084 H   0  0  0  0  0  0
  -29.3093  -16.2063   23.5050 H   0  0  0  0  0  0
  -29.6151  -14.4927   23.3425 H   0  0  0  0  0  0
  -31.4554  -16.9775   23.0559 H   0  0  0  0  0  0
  -32.4097  -16.5089   21.6712 H   0  0  0  0  0  0
  -32.0899  -15.3489   22.9543 H   0  0  0  0  0  0
  -31.1444  -20.4784   16.6248 H   0  0  0  0  0  0
  -30.6254  -20.1861   18.2760 H   0  0  0  0  0  0
  -29.5869  -21.0800   17.1666 H   0  0  0  0  0  0
  -29.8215  -19.5672   14.7012 H   0  0  0  0  0  0
  -28.2338  -19.8865   15.3710 H   0  0  0  0  0  0
  -28.6902  -18.2539   14.9041 H   0  0  0  0  0  0
  -31.4633  -18.1051   15.9619 H   0  0  0  0  0  0
  -30.3215  -16.8707   16.4543 H   0  0  0  0  0  0
  -31.2487  -17.7533   17.6597 H   0  0  0  0  0  0
  -27.1687  -20.8791   18.9039 H   0  0  0  0  0  0
  -26.4142  -19.4242   19.5144 H   0  0  0  0  0  0
  -26.6158  -20.8041   22.3899 H   0  0  0  0  0  0
  -26.6473  -19.0927   22.1659 H   0  0  0  0  0  0
  -29.3509  -22.3831   18.9810 H   0  0  0  0  0  0
  -27.7709  -22.7630   19.5523 H   0  0  0  0  0  0
  -30.2140  -24.3475   19.9367 H   0  0  0  0  0  0
  -29.2602  -24.1968   21.3931 H   0  0  0  0  0  0
  -28.5895  -22.0088   21.8612 H   0  0  0  0  0  0
  -29.9336  -21.2451   21.1154 H   0  0  0  0  0  0
  -27.2381  -24.8354   20.1777 H   0  0  0  0  0  0
  -28.1404  -25.1017   18.6909 H   0  0  0  0  0  0
  -27.8082  -19.4112   17.7642 H   0  0  0  0  0  0
  1 25  1  0  0  0
  1 30  2  0  0  0
  1 90  1  0  0  0
  2  3  1  0  0  0
  2 25  1  0  0  0
  2 94  1  0  0  0
  2 95  1  0  0  0
  3  4  1  0  0  0
  3 96  1  0  0  0
  3 97  1  0  0  0
  4  5  1  0  0  0
  4 98  1  0  0  0
  4 99  1  0  0  0
  5  6  1  0  0  0
  5 26  1  0  0  0
  5100  1  0  0  0
  6 25  1  0  0  0
  6101  1  0  0  0
  6102  1  0  0  0
  7  8  2  0  0  0
  7 26  1  0  0  0
  7 29  1  0  0  0
  8  9  1  0  0  0
  8 22  1  0  0  0
  9 10  1  0  0  0
  9 27  2  0  0  0
 10 11  2  0  0  0
 10 15  1  0  0  0
 11 12  1  0  0  0
 11103  1  0  0  0
 12 13  2  0  0  0
 12104  1  0  0  0
 13 14  1  0  0  0
 13 31  1  0  0  0
 14 15  2  0  0  0
 14105  1  0  0  0
 15106  1  0  0  0
 16 17  2  0  0  0
 16 21  1  0  0  0
 16 31  1  0  0  0
 17 18  1  0  0  0
 17107  1  0  0  0
 18 19  2  0  0  0
 18108  1  0  0  0
 19 20  1  0  0  0
 19 24  1  0  0  0
 20 21  2  0  0  0
 20109  1  0  0  0
 21 23  1  0  0  0
 22 28  1  0  0  0
 22 32  2  0  0  0
 26 27  1  0  0  0
 28110  1  0  0  0
 28111  1  0  0  0
 29112  1  0  0  0
 29113  1  0  0  0
 33 34  1  0  0  0
 33 66  1  0  0  0
 33 70  2  0  0  0
 34 36  1  0  0  0
 34 59  1  0  0  0
 34114  1  0  0  0
 35 44  2  0  0  0
 35 45  1  0  0  0
 35 68  1  0  0  0
 36 56  1  0  0  0
 36115  1  0  0  0
 37 39  1  0  0  0
 37 47  1  0  0  0
 37 66  1  0  0  0
 37116  1  0  0  0
 38 43  2  0  0  0
 38 46  1  0  0  0
 38 47  1  0  0  0
 39 64  1  0  0  0
 39 67  2  0  0  0
 40 52  1  0  0  0
 40 53  2  0  0  0
 40 58  1  0  0  0
 41117  1  0  0  0
 41118  1  0  0  0
 41119  1  0  0  0
 41 48  1  0  0  0
 42 43  1  0  0  0
 42 66  1  0  0  0
 42120  1  0  0  0
 42121  1  0  0  0
 43 44  1  0  0  0
 44122  1  0  0  0
 45 46  2  0  0  0
 45123  1  0  0  0
 46124  1  0  0  0
 47125  1  0  0  0
 47126  1  0  0  0
 48 56  1  0  0  0
 48 65  1  0  0  0
 48127  1  0  0  0
 49 50  1  0  0  0
 49 53  1  0  0  0
 49 64  1  0  0  0
 49128  1  0  0  0
 50 51  1  0  0  0
 50129  1  0  0  0
 50130  1  0  0  0
 51 52  1  0  0  0
 51131  1  0  0  0
 51132  1  0  0  0
 52133  1  0  0  0
 52134  1  0  0  0
 53 54  1  0  0  0
 54 55  2  0  0  0
 54135  1  0  0  0
 55 57  1  0  0  0
 55136  1  0  0  0
 56 69  2  0  0  0
 57 58  2  0  0  0
 57137  1  0  0  0
 58138  1  0  0  0
 59 60  1  0  0  0
 59 61  1  0  0  0
 59 62  1  0  0  0
 60139  1  0  0  0
 60140  1  0  0  0
 60141  1  0  0  0
 61142  1  0  0  0
 61143  1  0  0  0
 61144  1  0  0  0
 62145  1  0  0  0
 62146  1  0  0  0
 62147  1  0  0  0
 63 65  1  0  0  0
 63148  1  0  0  0
 63149  1  0  0  0
 63150  1  0  0  0
 64151  1  0  0  0
 65152  1  0  0  0
 68 88  1  0  0  0
 71 73  1  0  0  0
 71 74  2  0  0  0
 71153  1  0  0  0
 72 73  2  0  0  0
 72 93  1  0  0  0
 72154  1  0  0  0
 73 90  1  0  0  0
 74 89  1  0  0  0
 74 93  1  0  0  0
 75 83  1  0  0  0
 75155  1  0  0  0
 75156  1  0  0  0
 75157  1  0  0  0
 76 84  1  0  0  0
 76158  1  0  0  0
 76159  1  0  0  0
 76160  1  0  0  0
 77161  1  0  0  0
 77162  1  0  0  0
 77163  1  0  0  0
 77 89  1  0  0  0
 78164  1  0  0  0
 78165  1  0  0  0
 78166  1  0  0  0
 78 90  1  0  0  0
 79 90  1  0  0  0
 79167  1  0  0  0
 79168  1  0  0  0
 79169  1  0  0  0
 80170  1  0  0  0
 80171  1  0  0  0
 80172  1  0  0  0
 80 91  1  0  0  0
 81 91  1  0  0  0
 81173  1  0  0  0
 81174  1  0  0  0
 81175  1  0  0  0
 82 91  1  0  0  0
 82176  1  0  0  0
 82177  1  0  0  0
 82178  1  0  0  0
 83179  1  0  0  0
 83180  1  0  0  0
 83 92  1  0  0  0
 84 92  1  0  0  0
 84181  1  0  0  0
 84182  1  0  0  0
 85 86  1  0  0  0
 85 87  1  0  0  0
 85183  1  0  0  0
 85184  1  0  0  0
 86 88  1  0  0  0
 86185  1  0  0  0
 86186  1  0  0  0
 87 92  1  0  0  0
 87187  1  0  0  0
 87188  1  0  0  0
 88189  1  0  0  0
 88190  1  0  0  0
 89 91  1  0  0  0
 89191  1  0  0  0
 92 93  1  0  0  0
M  ISO  4   1 100  68 101  88 101  90 100
M  END
> <chiral flag>
0

> <version>
0

> <s_m_source_file>
/data/baiqing/PycharmProjects/Reinvent-master-3.2/result/LINK_invent/BTK/process_docking_weight1_custom_sum_contain_oxygen_bond_distance_aromatic_linkinvent_7_9_3/rearranged_h_0070.sdf

> <i_m_source_file_index>
52

> <r_mmod_Potential_Energy-OPLS-2005>
317.588531494141

> <r_mmod_Stretch_Energy-OPLS-2005>
88.5075531005859

> <r_mmod_Bend_Energy-OPLS-2005>
219.114151000977

> <r_mmod_Torsional_Energy-OPLS-2005>
295.419006347656

> <r_mmod_Improper_Torsional_Energy-OPLS-2005>
2.07001423835754

> <r_mmod_Van_der_Waal_Energy-OPLS-2005>
178.010238647461

> <r_mmod_Electrostatic_Energy-OPLS-2005>
-329.193084716797

> <r_mmod_Solvation_Energy-OPLS-2005>
-156.469848632812

> <b_mmod_Minimization_Converged-OPLS-2005>
0

> <r_mmod_RMS_Derivative-OPLS-2005>
4.46162796020508

$$$$
52
                    3D
 Structure written by MMmdl.
175183  0  0  1  0            999 V2000
  -30.7367  -14.4474   20.4941 C   0  0  0  0  0  0
  -30.4114  -12.2795   19.4069 C   0  0  0  0  0  0
  -29.4821  -12.4685   18.1928 C   0  0  0  0  0  0
  -28.0052  -12.3361   18.6150 C   0  0  0  0  0  0
  -27.6525  -13.1909   19.8626 C   0  0  2  0  0  0
  -28.7101  -13.0071   20.9791 C   0  0  0  0  0  0
  -25.2547  -13.8070   20.5805 C   0  0  0  0  0  0
  -24.1785  -13.0363   20.9227 C   0  0  0  0  0  0
  -24.6334  -11.6848   20.8724 C   0  0  0  0  0  0
  -23.9018  -10.4252   21.0386 C   0  0  0  0  0  0
  -24.3592   -9.4189   21.9177 C   0  0  0  0  0  0
  -23.6274   -8.2227   22.0742 C   0  0  0  0  0  0
  -22.4264   -8.0258   21.3534 C   0  0  0  0  0  0
  -21.9889   -9.0223   20.4643 C   0  0  0  0  0  0
  -22.7191  -10.2105   20.3039 C   0  0  0  0  0  0
  -21.6851   -6.0719   22.5281 C   0  0  0  0  0  0
  -21.4009   -6.5630   23.8216 C   0  0  0  0  0  0
  -21.3658   -5.6773   24.9177 C   0  0  0  0  0  0
  -21.6044   -4.3034   24.7226 C   0  0  0  0  0  0
  -21.8826   -3.8138   23.4343 C   0  0  0  0  0  0
  -21.9194   -4.6952   22.3400 C   0  0  0  0  0  0
  -22.7823  -13.5203   21.1869 C   0  0  0  0  0  0
  -22.1666   -4.2147   21.0977 F   0  0  0  0  0  0
  -21.5640   -3.4520   25.7735 F   0  0  0  0  0  0
  -30.0252  -13.2959   20.3939 N   0  0  0  0  0  0
  -26.2975  -12.9243   20.3367 N   0  0  0  0  0  0
  -25.9250  -11.6411   20.5741 N   0  0  0  0  0  0
  -22.0419  -12.8221   22.0415 N   0  0  0  0  0  0
  -25.4181  -15.1785   20.4426 N   0  0  0  0  0  0
  -31.9377  -14.5154   20.2458 O   0  0  0  0  0  0
  -21.6631   -6.8852   21.4235 O   0  0  0  0  0  0
  -22.3536  -14.5515   20.6704 O   0  0  0  0  0  0
  -24.6088  -31.8704   23.2136 C   0  0  0  0  0  0
  -25.9009  -32.4825   23.8400 C   0  0  1  0  0  0
  -27.2329  -27.4596   20.0965 C   0  0  0  0  0  0
  -25.5892  -33.8626   24.2332 N   0  0  0  0  0  0
  -23.3934  -30.4965   21.5529 C   0  0  2  0  0  0
  -24.8386  -28.9656   20.1147 C   0  0  0  0  0  0
  -22.7354  -29.4675   22.4992 C   0  0  0  0  0  0
  -18.0269  -28.1341   22.8525 C   0  0  0  0  0  0
  -24.1486  -36.7321   23.2639 C   0  0  0  0  0  0
  -25.9182  -30.8440   21.3628 C   0  0  0  0  0  0
  -25.9929  -29.4780   20.7163 C   0  0  0  0  0  0
  -27.1872  -28.7290   20.7118 C   0  0  0  0  0  0
  -26.0666  -26.9722   19.4611 C   0  0  0  0  0  0
  -24.8677  -27.7083   19.4882 C   0  0  0  0  0  0
  -23.5999  -29.8299   20.1665 C   0  0  0  0  0  0
  -25.4111  -36.3113   24.0336 C   0  0  1  0  0  0
  -20.5844  -28.3642   23.1306 C   0  0  2  0  0  0
  -20.6768  -26.9381   22.5384 C   0  0  0  0  0  0
  -19.5701  -26.6301   21.5255 C   0  0  0  0  0  0
  -18.1918  -26.7839   22.1746 C   0  0  0  0  0  0
  -19.1510  -28.8816   23.2895 C   0  0  0  0  0  0
  -18.9441  -30.1455   23.8855 C   0  0  0  0  0  0
  -17.6439  -30.6594   24.0499 C   0  0  0  0  0  0
  -25.9032  -34.9475   23.5134 C   0  0  0  0  0  0
  -16.5334  -29.9070   23.6301 C   0  0  0  0  0  0
  -16.7255  -28.6460   23.0370 C   0  0  0  0  0  0
  -26.4469  -31.6592   25.0706 C   0  0  0  0  0  0
  -25.3768  -31.3702   26.1477 C   0  0  0  0  0  0
  -27.0297  -30.3043   24.6049 C   0  0  0  0  0  0
  -27.6035  -32.4316   25.7478 C   0  0  0  0  0  0
  -27.5582  -37.1818   24.8471 C   0  0  0  0  0  0
  -21.4095  -29.3020   22.3719 N   0  0  0  0  0  0
  -26.4299  -37.3790   23.9405 N   0  0  0  0  0  0
  -24.6581  -31.0829   22.1029 N   0  0  0  0  0  0
  -23.4139  -28.8239   23.3047 O   0  0  0  0  0  0
  -28.4346  -26.7863   20.1289 O   0  0  0  0  0  0
  -26.5573  -34.8921   22.4683 O   0  0  0  0  0  0
  -23.5297  -32.1453   23.7560 O   0  0  0  0  0  0
  -25.6842  -21.9176   22.2696 C   0  0  0  0  0  0
  -26.3737  -22.6057   21.2251 C   0  0  0  0  0  0
  -25.5980  -20.5971   21.9107 C   0  0  0  0  0  0
  -26.7121  -21.6757   20.2775 C   0  0  0  0  0  0
  -25.1395  -22.5407   23.5316 C   0  0  0  0  0  0
  -24.9343  -19.4538   22.6211 C   0  0  0  0  0  0
  -27.4295  -21.8595   18.9727 C   0  0  0  0  0  0
  -27.9004  -16.8714   18.6373 C   0  0  0  0  0  0
  -29.6317  -18.3822   19.6164 C   0  0  0  0  0  0
  -26.6460  -24.0947   21.1359 C   0  0  0  0  0  0
  -28.1426  -24.4633   21.0028 C   0  0  0  0  0  0
  -27.3961  -18.1979   20.7871 C   0  0  0  0  0  0
  -26.4927  -19.1701   19.9989 C   0  0  0  0  0  0
  -28.9931  -16.2727   20.8722 C   0  0  0  0  0  0
  -28.5034  -25.3949   19.8202 C   0  0  0  0  0  0
  -28.4677  -17.4271   19.9707 C   0  0  0  0  0  0
  -26.2773  -20.4314   20.7096 N   0  0  0  0  0  0
  -30.0720  -15.5658   20.1970 N   0  0  0  0  0  0
  -31.4570  -12.3624   19.0989 H   0  0  0  0  0  0
  -30.3009  -11.2801   19.8298 H   0  0  0  0  0  0
  -29.7168  -11.7336   17.4225 H   0  0  0  0  0  0
  -29.6553  -13.4478   17.7425 H   0  0  0  0  0  0
  -27.8176  -11.2823   18.8254 H   0  0  0  0  0  0
  -27.3522  -12.5984   17.7817 H   0  0  0  0  0  0
  -27.6743  -14.2208   19.5197 H   0  0  0  0  0  0
  -28.6942  -11.9808   21.3487 H   0  0  0  0  0  0
  -28.5114  -13.6321   21.8482 H   0  0  0  0  0  0
  -25.2724   -9.5696   22.4765 H   0  0  0  0  0  0
  -23.9982   -7.4616   22.7464 H   0  0  0  0  0  0
  -21.0819   -8.8728   19.8956 H   0  0  0  0  0  0
  -22.3628  -10.9644   19.6166 H   0  0  0  0  0  0
  -21.2003   -7.6137   23.9729 H   0  0  0  0  0  0
  -21.1478   -6.0496   25.9082 H   0  0  0  0  0  0
  -22.0603   -2.7601   23.2836 H   0  0  0  0  0  0
  -22.3994  -11.9884   22.4835 H   0  0  0  0  0  0
  -21.1040  -13.1291   22.2594 H   0  0  0  0  0  0
  -24.6495  -15.8234   20.5918 H   0  0  0  0  0  0
  -26.2783  -15.6304   20.1641 H   0  0  0  0  0  0
  -26.7082  -32.5545   23.1166 H   0  0  0  0  0  0
  -25.0081  -33.9808   25.0506 H   0  0  0  0  0  0
  -22.6797  -31.3122   21.4174 H   0  0  0  0  0  0
  -23.3728  -35.9672   23.3331 H   0  0  0  0  0  0
  -24.3580  -36.8895   22.2043 H   0  0  0  0  0  0
  -23.7258  -37.6549   23.6634 H   0  0  0  0  0  0
  -26.0219  -31.6095   20.5918 H   0  0  0  0  0  0
  -26.8088  -30.9003   21.9756 H   0  0  0  0  0  0
  -28.0773  -29.1226   21.1824 H   0  0  0  0  0  0
  -26.0579  -26.0433   18.9155 H   0  0  0  0  0  0
  -23.9827  -27.3118   19.0079 H   0  0  0  0  0  0
  -23.7068  -30.6053   19.4078 H   0  0  0  0  0  0
  -22.7232  -29.2494   19.8707 H   0  0  0  0  0  0
  -25.1287  -36.1983   25.0826 H   0  0  0  0  0  0
  -20.9953  -28.3179   24.1415 H   0  0  0  0  0  0
  -20.5770  -26.2242   23.3577 H   0  0  0  0  0  0
  -21.6621  -26.7479   22.1098 H   0  0  0  0  0  0
  -19.6858  -25.6188   21.1337 H   0  0  0  0  0  0
  -19.6562  -27.3060   20.6740 H   0  0  0  0  0  0
  -17.4126  -26.6474   21.4229 H   0  0  0  0  0  0
  -18.0428  -26.0043   22.9236 H   0  0  0  0  0  0
  -19.7925  -30.7295   24.2154 H   0  0  0  0  0  0
  -17.4995  -31.6305   24.5052 H   0  0  0  0  0  0
  -15.5328  -30.2980   23.7615 H   0  0  0  0  0  0
  -15.8644  -28.0784   22.7106 H   0  0  0  0  0  0
  -24.5920  -30.7062   25.7847 H   0  0  0  0  0  0
  -24.8996  -32.2865   26.4952 H   0  0  0  0  0  0
  -25.8146  -30.8867   27.0214 H   0  0  0  0  0  0
  -26.2831  -29.6792   24.1135 H   0  0  0  0  0  0
  -27.4130  -29.7277   25.4476 H   0  0  0  0  0  0
  -27.8631  -30.4374   23.9147 H   0  0  0  0  0  0
  -27.2627  -33.3585   26.2101 H   0  0  0  0  0  0
  -28.3824  -32.6918   25.0304 H   0  0  0  0  0  0
  -28.0720  -31.8416   26.5359 H   0  0  0  0  0  0
  -28.2620  -38.0095   24.7472 H   0  0  0  0  0  0
  -28.1051  -36.2616   24.6350 H   0  0  0  0  0  0
  -27.2293  -37.1534   25.8876 H   0  0  0  0  0  0
  -20.9233  -29.8723   21.6947 H   0  0  0  0  0  0
  -26.0184  -38.2869   24.1399 H   0  0  0  0  0  0
  -25.9447  -23.0286   24.0814 H   0  0  0  0  0  0
  -24.6929  -21.7969   24.1911 H   0  0  0  0  0  0
  -24.3812  -23.2900   23.3009 H   0  0  0  0  0  0
  -25.6186  -18.9846   23.3285 H   0  0  0  0  0  0
  -24.5831  -18.6873   21.9302 H   0  0  0  0  0  0
  -24.0614  -19.7942   23.1782 H   0  0  0  0  0  0
  -27.5569  -22.9116   18.7301 H   0  0  0  0  0  0
  -26.8777  -21.4186   18.1427 H   0  0  0  0  0  0
  -28.4215  -21.4087   19.0074 H   0  0  0  0  0  0
  -26.9333  -16.3895   18.7572 H   0  0  0  0  0  0
  -28.5685  -16.1450   18.1737 H   0  0  0  0  0  0
  -27.7628  -17.6565   17.8942 H   0  0  0  0  0  0
  -30.3904  -17.8969   19.0009 H   0  0  0  0  0  0
  -30.1290  -18.7627   20.5074 H   0  0  0  0  0  0
  -29.2833  -19.2439   19.0482 H   0  0  0  0  0  0
  -26.2028  -24.6169   21.9852 H   0  0  0  0  0  0
  -26.0902  -24.4214   20.2627 H   0  0  0  0  0  0
  -28.7177  -23.5474   20.8653 H   0  0  0  0  0  0
  -28.5187  -24.8739   21.9410 H   0  0  0  0  0  0
  -26.7486  -17.4956   21.3124 H   0  0  0  0  0  0
  -27.9074  -18.7455   21.5796 H   0  0  0  0  0  0
  -25.5295  -18.7102   19.7813 H   0  0  0  0  0  0
  -26.9309  -19.3771   19.0281 H   0  0  0  0  0  0
  -28.1726  -15.6164   21.1434 H   0  0  0  0  0  0
  -29.3834  -16.6675   21.8117 H   0  0  0  0  0  0
  -27.9803  -25.1387   18.9008 H   0  0  0  0  0  0
  -29.5545  -25.2180   19.5894 H   0  0  0  0  0  0
  -30.6979  -16.2187   19.7516 H   0  0  0  0  0  0
  1 25  1  0  0  0
  1 30  2  0  0  0
  1 88  1  0  0  0
  2  3  1  0  0  0
  2 25  1  0  0  0
  2 89  1  0  0  0
  2 90  1  0  0  0
  3  4  1  0  0  0
  3 91  1  0  0  0
  3 92  1  0  0  0
  4  5  1  0  0  0
  4 93  1  0  0  0
  4 94  1  0  0  0
  5  6  1  0  0  0
  5 26  1  0  0  0
  5 95  1  0  0  0
  6 25  1  0  0  0
  6 96  1  0  0  0
  6 97  1  0  0  0
  7  8  2  0  0  0
  7 26  1  0  0  0
  7 29  1  0  0  0
  8  9  1  0  0  0
  8 22  1  0  0  0
  9 10  1  0  0  0
  9 27  2  0  0  0
 10 11  2  0  0  0
 10 15  1  0  0  0
 11 12  1  0  0  0
 11 98  1  0  0  0
 12 13  2  0  0  0
 12 99  1  0  0  0
 13 14  1  0  0  0
 13 31  1  0  0  0
 14 15  2  0  0  0
 14100  1  0  0  0
 15101  1  0  0  0
 16 17  2  0  0  0
 16 21  1  0  0  0
 16 31  1  0  0  0
 17 18  1  0  0  0
 17102  1  0  0  0
 18 19  2  0  0  0
 18103  1  0  0  0
 19 20  1  0  0  0
 19 24  1  0  0  0
 20 21  2  0  0  0
 20104  1  0  0  0
 21 23  1  0  0  0
 22 28  1  0  0  0
 22 32  2  0  0  0
 26 27  1  0  0  0
 28105  1  0  0  0
 28106  1  0  0  0
 29107  1  0  0  0
 29108  1  0  0  0
 33 34  1  0  0  0
 33 66  1  0  0  0
 33 70  2  0  0  0
 34 36  1  0  0  0
 34 59  1  0  0  0
 34109  1  0  0  0
 35 44  2  0  0  0
 35 45  1  0  0  0
 35 68  1  0  0  0
 36 56  1  0  0  0
 36110  1  0  0  0
 37 39  1  0  0  0
 37 47  1  0  0  0
 37 66  1  0  0  0
 37111  1  0  0  0
 38 43  2  0  0  0
 38 46  1  0  0  0
 38 47  1  0  0  0
 39 64  1  0  0  0
 39 67  2  0  0  0
 40 52  1  0  0  0
 40 53  2  0  0  0
 40 58  1  0  0  0
 41112  1  0  0  0
 41113  1  0  0  0
 41114  1  0  0  0
 41 48  1  0  0  0
 42 43  1  0  0  0
 42 66  1  0  0  0
 42115  1  0  0  0
 42116  1  0  0  0
 43 44  1  0  0  0
 44117  1  0  0  0
 45 46  2  0  0  0
 45118  1  0  0  0
 46119  1  0  0  0
 47120  1  0  0  0
 47121  1  0  0  0
 48 56  1  0  0  0
 48 65  1  0  0  0
 48122  1  0  0  0
 49 50  1  0  0  0
 49 53  1  0  0  0
 49 64  1  0  0  0
 49123  1  0  0  0
 50 51  1  0  0  0
 50124  1  0  0  0
 50125  1  0  0  0
 51 52  1  0  0  0
 51126  1  0  0  0
 51127  1  0  0  0
 52128  1  0  0  0
 52129  1  0  0  0
 53 54  1  0  0  0
 54 55  2  0  0  0
 54130  1  0  0  0
 55 57  1  0  0  0
 55131  1  0  0  0
 56 69  2  0  0  0
 57 58  2  0  0  0
 57132  1  0  0  0
 58133  1  0  0  0
 59 60  1  0  0  0
 59 61  1  0  0  0
 59 62  1  0  0  0
 60134  1  0  0  0
 60135  1  0  0  0
 60136  1  0  0  0
 61137  1  0  0  0
 61138  1  0  0  0
 61139  1  0  0  0
 62140  1  0  0  0
 62141  1  0  0  0
 62142  1  0  0  0
 63 65  1  0  0  0
 63143  1  0  0  0
 63144  1  0  0  0
 63145  1  0  0  0
 64146  1  0  0  0
 65147  1  0  0  0
 68 85  1  0  0  0
 71 72  1  0  0  0
 71 73  2  0  0  0
 71 75  1  0  0  0
 72 74  2  0  0  0
 72 80  1  0  0  0
 73 76  1  0  0  0
 73 87  1  0  0  0
 74 77  1  0  0  0
 74 87  1  0  0  0
 75148  1  0  0  0
 75149  1  0  0  0
 75150  1  0  0  0
 76151  1  0  0  0
 76152  1  0  0  0
 76153  1  0  0  0
 77154  1  0  0  0
 77155  1  0  0  0
 77156  1  0  0  0
 78157  1  0  0  0
 78158  1  0  0  0
 78159  1  0  0  0
 78 86  1  0  0  0
 79 86  1  0  0  0
 79160  1  0  0  0
 79161  1  0  0  0
 79162  1  0  0  0
 80 81  1  0  0  0
 80163  1  0  0  0
 80164  1  0  0  0
 81 85  1  0  0  0
 81165  1  0  0  0
 81166  1  0  0  0
 82 83  1  0  0  0
 82 86  1  0  0  0
 82167  1  0  0  0
 82168  1  0  0  0
 83 87  1  0  0  0
 83169  1  0  0  0
 83170  1  0  0  0
 84 86  1  0  0  0
 84 88  1  0  0  0
 84171  1  0  0  0
 84172  1  0  0  0
 85173  1  0  0  0
 85174  1  0  0  0
 88175  1  0  0  0
M  ISO  4   1 100  68 101  85 101  88 100
M  END
> <chiral flag>
0

> <version>
0

> <s_m_source_file>
/data/baiqing/PycharmProjects/Reinvent-master-3.2/result/LINK_invent/BTK/process_docking_weight1_custom_sum_contain_oxygen_bond_distance_aromatic_linkinvent_7_9_3/rearranged_h_0070.sdf

> <i_m_source_file_index>
53

> <r_mmod_Potential_Energy-OPLS-2005>
-32.9585952758789

> <r_mmod_Stretch_Energy-OPLS-2005>
33.1261024475098

> <r_mmod_Bend_Energy-OPLS-2005>
142.307098388672

> <r_mmod_Torsional_Energy-OPLS-2005>
301.784271240234

> <r_mmod_Improper_Torsional_Energy-OPLS-2005>
26.4032592773438

> <r_mmod_Van_der_Waal_Energy-OPLS-2005>
130.103134155273

> <r_mmod_Electrostatic_Energy-OPLS-2005>
-494.763885498047

> <r_mmod_Solvation_Energy-OPLS-2005>
-194.96598815918

> <b_mmod_Minimization_Converged-OPLS-2005>
0

> <r_mmod_RMS_Derivative-OPLS-2005>
2.71101760864258

$$$$
53
                    3D
 Structure written by MMmdl.
157165  0  0  1  0            999 V2000
  -30.6134  -14.7216   20.4480 C   0  0  0  0  0  0
  -30.4308  -12.4359   19.4755 C   0  0  0  0  0  0
  -29.5094  -12.5006   18.2375 C   0  0  0  0  0  0
  -28.0338  -12.3339   18.6487 C   0  0  0  0  0  0
  -27.6436  -13.2300   19.8547 C   0  0  2  0  0  0
  -28.6874  -13.1524   20.9909 C   0  0  0  0  0  0
  -25.2520  -13.8200   20.5708 C   0  0  0  0  0  0
  -24.1808  -13.0445   20.9207 C   0  0  0  0  0  0
  -24.6398  -11.6923   20.8753 C   0  0  0  0  0  0
  -23.9082  -10.4299   21.0415 C   0  0  0  0  0  0
  -24.3632   -9.4211   21.9190 C   0  0  0  0  0  0
  -23.6303   -8.2247   22.0759 C   0  0  0  0  0  0
  -22.4284   -8.0289   21.3548 C   0  0  0  0  0  0
  -21.9924   -9.0266   20.4650 C   0  0  0  0  0  0
  -22.7258  -10.2142   20.3061 C   0  0  0  0  0  0
  -21.6852   -6.0745   22.5282 C   0  0  0  0  0  0
  -21.4014   -6.5647   23.8217 C   0  0  0  0  0  0
  -21.3659   -5.6797   24.9177 C   0  0  0  0  0  0
  -21.6041   -4.3060   24.7224 C   0  0  0  0  0  0
  -21.8818   -3.8155   23.4344 C   0  0  0  0  0  0
  -21.9193   -4.6974   22.3403 C   0  0  0  0  0  0
  -22.7829  -13.5224   21.1867 C   0  0  0  0  0  0
  -22.1660   -4.2164   21.0979 F   0  0  0  0  0  0
  -21.5629   -3.4540   25.7734 F   0  0  0  0  0  0
  -29.9913  -13.4955   20.4117 N   0  0  0  0  0  0
  -26.2949  -12.9402   20.3300 N   0  0  0  0  0  0
  -25.9329  -11.6546   20.5771 N   0  0  0  0  0  0
  -22.0474  -12.8213   22.0420 N   0  0  0  0  0  0
  -25.4196  -15.1926   20.4139 N   0  0  0  0  0  0
  -31.7965  -14.8210   20.1119 O   0  0  0  0  0  0
  -21.6638   -6.8890   21.4246 O   0  0  0  0  0  0
  -22.3512  -14.5531   20.6717 O   0  0  0  0  0  0
  -24.6281  -31.8552   23.1981 C   0  0  0  0  0  0
  -25.9115  -32.4749   23.8315 C   0  0  1  0  0  0
  -27.2219  -27.2732   20.1214 C   0  0  0  0  0  0
  -25.5919  -33.8553   24.2238 N   0  0  0  0  0  0
  -23.4237  -30.4767   21.5416 C   0  0  2  0  0  0
  -24.8701  -28.9228   20.1086 C   0  0  0  0  0  0
  -22.7484  -29.4591   22.4928 C   0  0  0  0  0  0
  -18.0287  -28.1386   22.8482 C   0  0  0  0  0  0
  -24.1490  -36.7281   23.2644 C   0  0  0  0  0  0
  -25.9669  -30.7715   21.3758 C   0  0  0  0  0  0
  -26.0386  -29.3942   20.7188 C   0  0  0  0  0  0
  -27.2121  -28.5790   20.7179 C   0  0  0  0  0  0
  -26.0250  -26.8588   19.4946 C   0  0  0  0  0  0
  -24.8676  -27.6632   19.4888 C   0  0  0  0  0  0
  -23.6400  -29.8080   20.1575 C   0  0  0  0  0  0
  -25.4120  -36.3064   24.0324 C   0  0  1  0  0  0
  -20.5889  -28.3682   23.1290 C   0  0  2  0  0  0
  -20.6770  -26.9402   22.5423 C   0  0  0  0  0  0
  -19.5750  -26.6379   21.5218 C   0  0  0  0  0  0
  -18.1924  -26.7926   22.1620 C   0  0  0  0  0  0
  -19.1541  -28.8854   23.2872 C   0  0  0  0  0  0
  -18.9467  -30.1457   23.8884 C   0  0  0  0  0  0
  -17.6462  -30.6583   24.0563 C   0  0  0  0  0  0
  -25.9057  -34.9440   23.5084 C   0  0  0  0  0  0
  -16.5352  -29.9080   23.6339 C   0  0  0  0  0  0
  -16.7275  -28.6506   23.0343 C   0  0  0  0  0  0
  -26.4497  -31.6579   25.0702 C   0  0  0  0  0  0
  -25.3726  -31.3735   26.1429 C   0  0  0  0  0  0
  -27.0347  -30.2996   24.6185 C   0  0  0  0  0  0
  -27.6057  -32.4324   25.7467 C   0  0  0  0  0  0
  -27.5581  -37.1787   24.8464 C   0  0  0  0  0  0
  -21.4196  -29.3024   22.3677 N   0  0  0  0  0  0
  -26.4291  -37.3766   23.9414 N   0  0  0  0  0  0
  -24.6919  -31.0533   22.0945 N   0  0  0  0  0  0
  -23.4196  -28.8138   23.3019 O   0  0  0  0  0  0
  -28.3466  -26.4252   20.2022 O   0  0  0  0  0  0
  -26.5640  -34.8919   22.4660 O   0  0  0  0  0  0
  -23.5438  -32.1381   23.7289 O   0  0  0  0  0  0
  -27.4764  -23.5631   21.4119 C   0  0  0  0  0  0
  -27.9212  -21.2720   21.5442 C   0  0  0  0  0  0
  -28.3401  -23.7092   20.3046 C   0  0  0  0  0  0
  -28.8136  -21.3318   20.4475 C   0  0  0  0  0  0
  -31.0970  -20.3256   20.0539 C   0  0  0  0  0  0
  -29.2514  -19.8954   18.4132 C   0  0  0  0  0  0
  -28.4548  -25.0923   19.5262 C   0  0  0  0  0  0
  -30.2046  -17.2724   20.1787 C   0  0  0  0  0  0
  -29.5901  -20.0311   19.9140 C   0  0  0  0  0  0
  -29.3135  -18.5649   20.6086 C   0  0  0  0  0  0
  -27.2687  -22.3664   22.0235 N   0  0  0  0  0  0
  -29.0060  -22.5763   19.8388 N   0  0  0  0  0  0
  -29.8408  -15.8569   20.6177 N   0  0  0  0  0  0
  -28.0359  -18.2423   20.4027 F   0  0  0  0  0  0
  -29.4933  -18.6868   21.9239 F   0  0  0  0  0  0
  -31.4724  -12.5552   19.1727 H   0  0  0  0  0  0
  -30.3711  -11.4573   19.9541 H   0  0  0  0  0  0
  -29.7869  -11.7273   17.5198 H   0  0  0  0  0  0
  -29.6430  -13.4553   17.7265 H   0  0  0  0  0  0
  -27.8818  -11.2847   18.9040 H   0  0  0  0  0  0
  -27.3794  -12.5373   17.8001 H   0  0  0  0  0  0
  -27.6422  -14.2538   19.4804 H   0  0  0  0  0  0
  -28.7154  -12.1525   21.4261 H   0  0  0  0  0  0
  -28.4287  -13.8331   21.8039 H   0  0  0  0  0  0
  -25.2776   -9.5680   22.4768 H   0  0  0  0  0  0
  -24.0010   -7.4634   22.7477 H   0  0  0  0  0  0
  -21.0856   -8.8793   19.8952 H   0  0  0  0  0  0
  -22.3727  -10.9685   19.6174 H   0  0  0  0  0  0
  -21.2006   -7.6154   23.9727 H   0  0  0  0  0  0
  -21.1479   -6.0523   25.9080 H   0  0  0  0  0  0
  -22.0597   -2.7620   23.2837 H   0  0  0  0  0  0
  -22.4092  -11.9867   22.4793 H   0  0  0  0  0  0
  -21.1099  -13.1243   22.2641 H   0  0  0  0  0  0
  -24.6524  -15.8436   20.5405 H   0  0  0  0  0  0
  -26.2658  -15.6411   20.0885 H   0  0  0  0  0  0
  -26.7168  -32.5405   23.1045 H   0  0  0  0  0  0
  -25.0048  -33.9693   25.0369 H   0  0  0  0  0  0
  -22.7185  -31.2977   21.3954 H   0  0  0  0  0  0
  -23.3757  -35.9606   23.3298 H   0  0  0  0  0  0
  -24.3572  -36.8924   22.2058 H   0  0  0  0  0  0
  -23.7242  -37.6475   23.6686 H   0  0  0  0  0  0
  -26.1036  -31.5336   20.6073 H   0  0  0  0  0  0
  -26.8450  -30.8195   22.0079 H   0  0  0  0  0  0
  -28.1064  -28.9320   21.2133 H   0  0  0  0  0  0
  -25.9410  -25.8881   19.0322 H   0  0  0  0  0  0
  -23.9691  -27.2937   19.0135 H   0  0  0  0  0  0
  -23.7592  -30.5838   19.3997 H   0  0  0  0  0  0
  -22.7593  -29.2374   19.8568 H   0  0  0  0  0  0
  -25.1301  -36.1902   25.0814 H   0  0  0  0  0  0
  -20.9970  -28.3255   24.1414 H   0  0  0  0  0  0
  -20.5671  -26.2284   23.3620 H   0  0  0  0  0  0
  -21.6639  -26.7428   22.1220 H   0  0  0  0  0  0
  -19.6919  -25.6292   21.1244 H   0  0  0  0  0  0
  -19.6705  -27.3195   20.6755 H   0  0  0  0  0  0
  -17.4204  -26.6690   21.4008 H   0  0  0  0  0  0
  -18.0307  -26.0066   22.9013 H   0  0  0  0  0  0
  -19.7945  -30.7273   24.2241 H   0  0  0  0  0  0
  -17.5023  -31.6261   24.5161 H   0  0  0  0  0  0
  -15.5354  -30.2967   23.7683 H   0  0  0  0  0  0
  -15.8676  -28.0828   22.7047 H   0  0  0  0  0  0
  -24.5914  -30.7063   25.7770 H   0  0  0  0  0  0
  -24.8897  -32.2905   26.4820 H   0  0  0  0  0  0
  -25.8045  -30.8948   27.0226 H   0  0  0  0  0  0
  -26.2926  -29.6721   24.1235 H   0  0  0  0  0  0
  -27.4064  -29.7281   25.4700 H   0  0  0  0  0  0
  -27.8786  -30.4273   23.9401 H   0  0  0  0  0  0
  -27.2682  -33.3662   26.1980 H   0  0  0  0  0  0
  -28.3891  -32.6823   25.0297 H   0  0  0  0  0  0
  -28.0686  -31.8481   26.5429 H   0  0  0  0  0  0
  -28.2590  -38.0088   24.7507 H   0  0  0  0  0  0
  -28.1080  -36.2619   24.6286 H   0  0  0  0  0  0
  -27.2297  -37.1433   25.8865 H   0  0  0  0  0  0
  -20.9375  -29.8741   21.6887 H   0  0  0  0  0  0
  -26.0167  -38.2837   24.1424 H   0  0  0  0  0  0
  -26.9219  -24.4087   21.7943 H   0  0  0  0  0  0
  -27.7170  -20.3407   22.0504 H   0  0  0  0  0  0
  -31.3732  -21.2470   19.5404 H   0  0  0  0  0  0
  -31.7096  -19.5339   19.6250 H   0  0  0  0  0  0
  -31.3792  -20.4387   21.1003 H   0  0  0  0  0  0
  -29.4926  -20.8051   17.8621 H   0  0  0  0  0  0
  -28.1886  -19.7019   18.2678 H   0  0  0  0  0  0
  -29.8034  -19.0876   17.9365 H   0  0  0  0  0  0
  -27.8165  -25.0374   18.6470 H   0  0  0  0  0  0
  -29.4599  -25.0931   19.1050 H   0  0  0  0  0  0
  -31.2335  -17.4492   20.4938 H   0  0  0  0  0  0
  -30.2447  -17.2301   19.0910 H   0  0  0  0  0  0
  -28.8806  -15.7114   20.8878 H   0  0  0  0  0  0
  1 25  1  0  0  0
  1 30  2  0  0  0
  1 83  1  0  0  0
  2  3  1  0  0  0
  2 25  1  0  0  0
  2 86  1  0  0  0
  2 87  1  0  0  0
  3  4  1  0  0  0
  3 88  1  0  0  0
  3 89  1  0  0  0
  4  5  1  0  0  0
  4 90  1  0  0  0
  4 91  1  0  0  0
  5  6  1  0  0  0
  5 26  1  0  0  0
  5 92  1  0  0  0
  6 25  1  0  0  0
  6 93  1  0  0  0
  6 94  1  0  0  0
  7  8  2  0  0  0
  7 26  1  0  0  0
  7 29  1  0  0  0
  8  9  1  0  0  0
  8 22  1  0  0  0
  9 10  1  0  0  0
  9 27  2  0  0  0
 10 11  2  0  0  0
 10 15  1  0  0  0
 11 12  1  0  0  0
 11 95  1  0  0  0
 12 13  2  0  0  0
 12 96  1  0  0  0
 13 14  1  0  0  0
 13 31  1  0  0  0
 14 15  2  0  0  0
 14 97  1  0  0  0
 15 98  1  0  0  0
 16 17  2  0  0  0
 16 21  1  0  0  0
 16 31  1  0  0  0
 17 18  1  0  0  0
 17 99  1  0  0  0
 18 19  2  0  0  0
 18100  1  0  0  0
 19 20  1  0  0  0
 19 24  1  0  0  0
 20 21  2  0  0  0
 20101  1  0  0  0
 21 23  1  0  0  0
 22 28  1  0  0  0
 22 32  2  0  0  0
 26 27  1  0  0  0
 28102  1  0  0  0
 28103  1  0  0  0
 29104  1  0  0  0
 29105  1  0  0  0
 33 34  1  0  0  0
 33 66  1  0  0  0
 33 70  2  0  0  0
 34 36  1  0  0  0
 34 59  1  0  0  0
 34106  1  0  0  0
 35 44  2  0  0  0
 35 45  1  0  0  0
 35 68  1  0  0  0
 36 56  1  0  0  0
 36107  1  0  0  0
 37 39  1  0  0  0
 37 47  1  0  0  0
 37 66  1  0  0  0
 37108  1  0  0  0
 38 43  2  0  0  0
 38 46  1  0  0  0
 38 47  1  0  0  0
 39 64  1  0  0  0
 39 67  2  0  0  0
 40 52  1  0  0  0
 40 53  2  0  0  0
 40 58  1  0  0  0
 41109  1  0  0  0
 41110  1  0  0  0
 41111  1  0  0  0
 41 48  1  0  0  0
 42 43  1  0  0  0
 42 66  1  0  0  0
 42112  1  0  0  0
 42113  1  0  0  0
 43 44  1  0  0  0
 44114  1  0  0  0
 45 46  2  0  0  0
 45115  1  0  0  0
 46116  1  0  0  0
 47117  1  0  0  0
 47118  1  0  0  0
 48 56  1  0  0  0
 48 65  1  0  0  0
 48119  1  0  0  0
 49 50  1  0  0  0
 49 53  1  0  0  0
 49 64  1  0  0  0
 49120  1  0  0  0
 50 51  1  0  0  0
 50121  1  0  0  0
 50122  1  0  0  0
 51 52  1  0  0  0
 51123  1  0  0  0
 51124  1  0  0  0
 52125  1  0  0  0
 52126  1  0  0  0
 53 54  1  0  0  0
 54 55  2  0  0  0
 54127  1  0  0  0
 55 57  1  0  0  0
 55128  1  0  0  0
 56 69  2  0  0  0
 57 58  2  0  0  0
 57129  1  0  0  0
 58130  1  0  0  0
 59 60  1  0  0  0
 59 61  1  0  0  0
 59 62  1  0  0  0
 60131  1  0  0  0
 60132  1  0  0  0
 60133  1  0  0  0
 61134  1  0  0  0
 61135  1  0  0  0
 61136  1  0  0  0
 62137  1  0  0  0
 62138  1  0  0  0
 62139  1  0  0  0
 63 65  1  0  0  0
 63140  1  0  0  0
 63141  1  0  0  0
 63142  1  0  0  0
 64143  1  0  0  0
 65144  1  0  0  0
 68 77  1  0  0  0
 71 73  2  0  0  0
 71 81  1  0  0  0
 71145  1  0  0  0
 72 74  1  0  0  0
 72 81  2  0  0  0
 72146  1  0  0  0
 73 77  1  0  0  0
 73 82  1  0  0  0
 74 79  1  0  0  0
 74 82  2  0  0  0
 75147  1  0  0  0
 75148  1  0  0  0
 75149  1  0  0  0
 75 79  1  0  0  0
 76 79  1  0  0  0
 76150  1  0  0  0
 76151  1  0  0  0
 76152  1  0  0  0
 77153  1  0  0  0
 77154  1  0  0  0
 78 80  1  0  0  0
 78 83  1  0  0  0
 78155  1  0  0  0
 78156  1  0  0  0
 79 80  1  0  0  0
 80 84  1  0  0  0
 80 85  1  0  0  0
 83157  1  0  0  0
M  ISO  4   1 100  68 101  77 101  83 100
M  END
> <chiral flag>
0

> <version>
0

> <s_m_source_file>
/data/baiqing/PycharmProjects/Reinvent-master-3.2/result/LINK_invent/BTK/process_docking_weight1_custom_sum_contain_oxygen_bond_distance_aromatic_linkinvent_7_9_3/rearranged_h_0070.sdf

> <i_m_source_file_index>
54

> <r_mmod_Potential_Energy-OPLS-2005>
218.260314941406

> <r_mmod_Stretch_Energy-OPLS-2005>
128.193099975586

> <r_mmod_Bend_Energy-OPLS-2005>
173.614120483398

> <r_mmod_Torsional_Energy-OPLS-2005>
218.500259399414

> <r_mmod_Improper_Torsional_Energy-OPLS-2005>
6.43014574050903

> <r_mmod_Van_der_Waal_Energy-OPLS-2005>
142.592819213867

> <r_mmod_Electrostatic_Energy-OPLS-2005>
-315.774230957031

> <r_mmod_Solvation_Energy-OPLS-2005>
-210.393096923828

> <b_mmod_Minimization_Converged-OPLS-2005>
0

> <r_mmod_RMS_Derivative-OPLS-2005>
1.10674381256104

$$$$
54
                    3D
 Structure written by MMmdl.
161169  0  0  1  0            999 V2000
  -30.6327  -14.6949   20.4780 C   0  0  0  0  0  0
  -30.4311  -12.4299   19.4564 C   0  0  0  0  0  0
  -29.5053  -12.5039   18.2241 C   0  0  0  0  0  0
  -28.0320  -12.3304   18.6425 C   0  0  0  0  0  0
  -27.6431  -13.2266   19.8491 C   0  0  2  0  0  0
  -28.6891  -13.1437   20.9808 C   0  0  0  0  0  0
  -25.2524  -13.8189   20.5690 C   0  0  0  0  0  0
  -24.1810  -13.0442   20.9213 C   0  0  0  0  0  0
  -24.6389  -11.6916   20.8746 C   0  0  0  0  0  0
  -23.9062  -10.4295   21.0408 C   0  0  0  0  0  0
  -24.3615   -9.4213   21.9185 C   0  0  0  0  0  0
  -23.6298   -8.2245   22.0752 C   0  0  0  0  0  0
  -22.4275   -8.0281   21.3548 C   0  0  0  0  0  0
  -21.9909   -9.0250   20.4645 C   0  0  0  0  0  0
  -22.7234  -10.2131   20.3053 C   0  0  0  0  0  0
  -21.6855   -6.0735   22.5281 C   0  0  0  0  0  0
  -21.4015   -6.5637   23.8214 C   0  0  0  0  0  0
  -21.3663   -5.6790   24.9178 C   0  0  0  0  0  0
  -21.6048   -4.3053   24.7227 C   0  0  0  0  0  0
  -21.8820   -3.8145   23.4350 C   0  0  0  0  0  0
  -21.9196   -4.6964   22.3406 C   0  0  0  0  0  0
  -22.7831  -13.5229   21.1875 C   0  0  0  0  0  0
  -22.1662   -4.2146   21.0983 F   0  0  0  0  0  0
  -21.5636   -3.4536   25.7745 F   0  0  0  0  0  0
  -29.9934  -13.4830   20.3974 N   0  0  0  0  0  0
  -26.2943  -12.9386   20.3272 N   0  0  0  0  0  0
  -25.9316  -11.6532   20.5738 N   0  0  0  0  0  0
  -22.0466  -12.8218   22.0418 N   0  0  0  0  0  0
  -25.4222  -15.1913   20.4105 N   0  0  0  0  0  0
  -31.8235  -14.7945   20.1718 O   0  0  0  0  0  0
  -21.6646   -6.8872   21.4242 O   0  0  0  0  0  0
  -22.3518  -14.5537   20.6725 O   0  0  0  0  0  0
  -24.6278  -31.8576   23.1997 C   0  0  0  0  0  0
  -25.9114  -32.4772   23.8334 C   0  0  1  0  0  0
  -27.2172  -27.2955   20.1312 C   0  0  0  0  0  0
  -25.5906  -33.8571   24.2251 N   0  0  0  0  0  0
  -23.4226  -30.4810   21.5435 C   0  0  2  0  0  0
  -24.8690  -28.9279   20.1144 C   0  0  0  0  0  0
  -22.7488  -29.4615   22.4933 C   0  0  0  0  0  0
  -18.0288  -28.1388   22.8493 C   0  0  0  0  0  0
  -24.1487  -36.7300   23.2638 C   0  0  0  0  0  0
  -25.9655  -30.7824   21.3722 C   0  0  0  0  0  0
  -26.0400  -29.4061   20.7181 C   0  0  0  0  0  0
  -27.2216  -28.6024   20.7135 C   0  0  0  0  0  0
  -26.0291  -26.8741   19.4995 C   0  0  0  0  0  0
  -24.8655  -27.6675   19.4955 C   0  0  0  0  0  0
  -23.6390  -29.8129   20.1605 C   0  0  0  0  0  0
  -25.4113  -36.3084   24.0326 C   0  0  1  0  0  0
  -20.5894  -28.3687   23.1286 C   0  0  2  0  0  0
  -20.6777  -26.9407   22.5417 C   0  0  0  0  0  0
  -19.5746  -26.6384   21.5224 C   0  0  0  0  0  0
  -18.1927  -26.7930   22.1637 C   0  0  0  0  0  0
  -19.1544  -28.8856   23.2886 C   0  0  0  0  0  0
  -18.9469  -30.1465   23.8890 C   0  0  0  0  0  0
  -17.6466  -30.6589   24.0569 C   0  0  0  0  0  0
  -25.9053  -34.9452   23.5100 C   0  0  0  0  0  0
  -16.5357  -29.9090   23.6331 C   0  0  0  0  0  0
  -16.7276  -28.6513   23.0341 C   0  0  0  0  0  0
  -26.4474  -31.6589   25.0717 C   0  0  0  0  0  0
  -25.3693  -31.3751   26.1439 C   0  0  0  0  0  0
  -27.0308  -30.3003   24.6185 C   0  0  0  0  0  0
  -27.6021  -32.4329   25.7499 C   0  0  0  0  0  0
  -27.5581  -37.1804   24.8461 C   0  0  0  0  0  0
  -21.4197  -29.3044   22.3682 N   0  0  0  0  0  0
  -26.4287  -37.3785   23.9413 N   0  0  0  0  0  0
  -24.6915  -31.0574   22.0953 N   0  0  0  0  0  0
  -23.4212  -28.8143   23.3004 O   0  0  0  0  0  0
  -28.3080  -26.4115   20.1458 O   0  0  0  0  0  0
  -26.5649  -34.8922   22.4681 O   0  0  0  0  0  0
  -23.5439  -32.1370   23.7318 O   0  0  0  0  0  0
  -28.8743  -23.6644   18.7507 C   0  0  0  0  0  0
  -28.8528  -22.5235   20.8669 C   0  0  0  0  0  0
  -28.6315  -23.7471   20.1329 C   0  0  0  0  0  0
  -29.3160  -22.4479   18.1872 C   0  0  0  0  0  0
  -29.3121  -21.3051   20.2356 C   0  0  0  0  0  0
  -29.6021  -22.3534   16.7022 C   0  0  0  0  0  0
  -31.3858  -20.1549   21.0435 C   0  0  0  0  0  0
  -29.3468  -20.0461   22.4666 C   0  0  0  0  0  0
  -28.0852  -25.0812   20.7843 C   0  0  0  0  0  0
  -29.4827  -18.5311   20.4304 C   0  0  0  0  0  0
  -30.3472  -17.2536   20.9307 C   0  0  0  0  0  0
  -29.8491  -20.0088   21.0064 C   0  0  0  0  0  0
  -29.5357  -21.3167   18.9009 N   0  0  0  0  0  0
  -29.8738  -15.8229   20.7187 N   0  0  0  0  0  0
  -31.4711  -12.5534   19.1492 H   0  0  0  0  0  0
  -30.3716  -11.4487   19.9297 H   0  0  0  0  0  0
  -29.7797  -11.7392   17.4962 H   0  0  0  0  0  0
  -29.6356  -13.4645   17.7234 H   0  0  0  0  0  0
  -27.8873  -11.2805   18.9023 H   0  0  0  0  0  0
  -27.3727  -12.5260   17.7966 H   0  0  0  0  0  0
  -27.6409  -14.2510   19.4756 H   0  0  0  0  0  0
  -28.7137  -12.1426   21.4132 H   0  0  0  0  0  0
  -28.4299  -13.8219   21.7956 H   0  0  0  0  0  0
  -25.2760   -9.5699   22.4761 H   0  0  0  0  0  0
  -24.0018   -7.4637   22.7464 H   0  0  0  0  0  0
  -21.0848   -8.8759   19.8937 H   0  0  0  0  0  0
  -22.3690  -10.9674   19.6164 H   0  0  0  0  0  0
  -21.1986   -7.6142   23.9715 H   0  0  0  0  0  0
  -21.1494   -6.0519   25.9080 H   0  0  0  0  0  0
  -22.0591   -2.7605   23.2853 H   0  0  0  0  0  0
  -22.4080  -11.9889   22.4828 H   0  0  0  0  0  0
  -21.1076  -13.1239   22.2599 H   0  0  0  0  0  0
  -24.6527  -15.8439   20.5142 H   0  0  0  0  0  0
  -26.2661  -15.6298   20.0647 H   0  0  0  0  0  0
  -26.7185  -32.5433   23.1086 H   0  0  0  0  0  0
  -24.9985  -33.9703   25.0349 H   0  0  0  0  0  0
  -22.7167  -31.3018   21.3984 H   0  0  0  0  0  0
  -23.3748  -35.9636   23.3294 H   0  0  0  0  0  0
  -24.3575  -36.8933   22.2054 H   0  0  0  0  0  0
  -23.7241  -37.6497   23.6670 H   0  0  0  0  0  0
  -26.0973  -31.5416   20.6001 H   0  0  0  0  0  0
  -26.8464  -30.8353   22.0006 H   0  0  0  0  0  0
  -28.1209  -28.9625   21.1929 H   0  0  0  0  0  0
  -25.9935  -25.9056   19.0198 H   0  0  0  0  0  0
  -23.9682  -27.2952   19.0198 H   0  0  0  0  0  0
  -23.7622  -30.5879   19.4033 H   0  0  0  0  0  0
  -22.7567  -29.2472   19.8565 H   0  0  0  0  0  0
  -25.1296  -36.1929   25.0819 H   0  0  0  0  0  0
  -20.9994  -28.3265   24.1404 H   0  0  0  0  0  0
  -20.5679  -26.2296   23.3621 H   0  0  0  0  0  0
  -21.6642  -26.7429   22.1204 H   0  0  0  0  0  0
  -19.6899  -25.6297   21.1246 H   0  0  0  0  0  0
  -19.6677  -27.3207   20.6762 H   0  0  0  0  0  0
  -17.4196  -26.6684   21.4040 H   0  0  0  0  0  0
  -18.0315  -26.0072   22.9030 H   0  0  0  0  0  0
  -19.7946  -30.7294   24.2239 H   0  0  0  0  0  0
  -17.5017  -31.6263   24.5179 H   0  0  0  0  0  0
  -15.5355  -30.2990   23.7653 H   0  0  0  0  0  0
  -15.8677  -28.0841   22.7031 H   0  0  0  0  0  0
  -24.5857  -30.7109   25.7776 H   0  0  0  0  0  0
  -24.8892  -32.2929   26.4848 H   0  0  0  0  0  0
  -25.7998  -30.8938   27.0228 H   0  0  0  0  0  0
  -26.2886  -29.6773   24.1175 H   0  0  0  0  0  0
  -27.3951  -29.7243   25.4701 H   0  0  0  0  0  0
  -27.8782  -30.4274   23.9444 H   0  0  0  0  0  0
  -27.2609  -33.3620   26.2080 H   0  0  0  0  0  0
  -28.3835  -32.6905   25.0339 H   0  0  0  0  0  0
  -28.0681  -31.8451   26.5417 H   0  0  0  0  0  0
  -28.2595  -38.0104   24.7519 H   0  0  0  0  0  0
  -28.1081  -36.2637   24.6274 H   0  0  0  0  0  0
  -27.2302  -37.1443   25.8864 H   0  0  0  0  0  0
  -20.9371  -29.8782   21.6909 H   0  0  0  0  0  0
  -26.0166  -38.2859   24.1414 H   0  0  0  0  0  0
  -28.7206  -24.5360   18.1283 H   0  0  0  0  0  0
  -28.6945  -22.5491   21.9351 H   0  0  0  0  0  0
  -29.1467  -23.1800   16.1564 H   0  0  0  0  0  0
  -29.2121  -21.4244   16.2853 H   0  0  0  0  0  0
  -30.6768  -22.3829   16.5228 H   0  0  0  0  0  0
  -31.6746  -21.1202   21.4618 H   0  0  0  0  0  0
  -31.8111  -20.0979   20.0412 H   0  0  0  0  0  0
  -31.8657  -19.3902   21.6531 H   0  0  0  0  0  0
  -29.7182  -20.9205   23.0014 H   0  0  0  0  0  0
  -29.6769  -19.1804   23.0392 H   0  0  0  0  0  0
  -28.2572  -20.0680   22.5054 H   0  0  0  0  0  0
  -28.5267  -25.1466   21.7790 H   0  0  0  0  0  0
  -27.0230  -24.9181   20.9701 H   0  0  0  0  0  0
  -28.4249  -18.3472   20.6194 H   0  0  0  0  0  0
  -29.5733  -18.5630   19.3446 H   0  0  0  0  0  0
  -30.4942  -17.3427   22.0068 H   0  0  0  0  0  0
  -31.3474  -17.3436   20.5037 H   0  0  0  0  0  0
  -28.8917  -15.6523   20.8759 H   0  0  0  0  0  0
  1 25  1  0  0  0
  1 30  2  0  0  0
  1 84  1  0  0  0
  2  3  1  0  0  0
  2 25  1  0  0  0
  2 85  1  0  0  0
  2 86  1  0  0  0
  3  4  1  0  0  0
  3 87  1  0  0  0
  3 88  1  0  0  0
  4  5  1  0  0  0
  4 89  1  0  0  0
  4 90  1  0  0  0
  5  6  1  0  0  0
  5 26  1  0  0  0
  5 91  1  0  0  0
  6 25  1  0  0  0
  6 92  1  0  0  0
  6 93  1  0  0  0
  7  8  2  0  0  0
  7 26  1  0  0  0
  7 29  1  0  0  0
  8  9  1  0  0  0
  8 22  1  0  0  0
  9 10  1  0  0  0
  9 27  2  0  0  0
 10 11  2  0  0  0
 10 15  1  0  0  0
 11 12  1  0  0  0
 11 94  1  0  0  0
 12 13  2  0  0  0
 12 95  1  0  0  0
 13 14  1  0  0  0
 13 31  1  0  0  0
 14 15  2  0  0  0
 14 96  1  0  0  0
 15 97  1  0  0  0
 16 17  2  0  0  0
 16 21  1  0  0  0
 16 31  1  0  0  0
 17 18  1  0  0  0
 17 98  1  0  0  0
 18 19  2  0  0  0
 18 99  1  0  0  0
 19 20  1  0  0  0
 19 24  1  0  0  0
 20 21  2  0  0  0
 20100  1  0  0  0
 21 23  1  0  0  0
 22 28  1  0  0  0
 22 32  2  0  0  0
 26 27  1  0  0  0
 28101  1  0  0  0
 28102  1  0  0  0
 29103  1  0  0  0
 29104  1  0  0  0
 33 34  1  0  0  0
 33 66  1  0  0  0
 33 70  2  0  0  0
 34 36  1  0  0  0
 34 59  1  0  0  0
 34105  1  0  0  0
 35 44  2  0  0  0
 35 45  1  0  0  0
 35 68  1  0  0  0
 36 56  1  0  0  0
 36106  1  0  0  0
 37 39  1  0  0  0
 37 47  1  0  0  0
 37 66  1  0  0  0
 37107  1  0  0  0
 38 43  2  0  0  0
 38 46  1  0  0  0
 38 47  1  0  0  0
 39 64  1  0  0  0
 39 67  2  0  0  0
 40 52  1  0  0  0
 40 53  2  0  0  0
 40 58  1  0  0  0
 41108  1  0  0  0
 41109  1  0  0  0
 41110  1  0  0  0
 41 48  1  0  0  0
 42 43  1  0  0  0
 42 66  1  0  0  0
 42111  1  0  0  0
 42112  1  0  0  0
 43 44  1  0  0  0
 44113  1  0  0  0
 45 46  2  0  0  0
 45114  1  0  0  0
 46115  1  0  0  0
 47116  1  0  0  0
 47117  1  0  0  0
 48 56  1  0  0  0
 48 65  1  0  0  0
 48118  1  0  0  0
 49 50  1  0  0  0
 49 53  1  0  0  0
 49 64  1  0  0  0
 49119  1  0  0  0
 50 51  1  0  0  0
 50120  1  0  0  0
 50121  1  0  0  0
 51 52  1  0  0  0
 51122  1  0  0  0
 51123  1  0  0  0
 52124  1  0  0  0
 52125  1  0  0  0
 53 54  1  0  0  0
 54 55  2  0  0  0
 54126  1  0  0  0
 55 57  1  0  0  0
 55127  1  0  0  0
 56 69  2  0  0  0
 57 58  2  0  0  0
 57128  1  0  0  0
 58129  1  0  0  0
 59 60  1  0  0  0
 59 61  1  0  0  0
 59 62  1  0  0  0
 60130  1  0  0  0
 60131  1  0  0  0
 60132  1  0  0  0
 61133  1  0  0  0
 61134  1  0  0  0
 61135  1  0  0  0
 62136  1  0  0  0
 62137  1  0  0  0
 62138  1  0  0  0
 63 65  1  0  0  0
 63139  1  0  0  0
 63140  1  0  0  0
 63141  1  0  0  0
 64142  1  0  0  0
 65143  1  0  0  0
 68 79  1  0  0  0
 71 73  2  0  0  0
 71 74  1  0  0  0
 71144  1  0  0  0
 72 73  1  0  0  0
 72 75  2  0  0  0
 72145  1  0  0  0
 73 79  1  0  0  0
 74 76  1  0  0  0
 74 83  2  0  0  0
 75 82  1  0  0  0
 75 83  1  0  0  0
 76146  1  0  0  0
 76147  1  0  0  0
 76148  1  0  0  0
 77149  1  0  0  0
 77150  1  0  0  0
 77151  1  0  0  0
 77 82  1  0  0  0
 78 82  1  0  0  0
 78152  1  0  0  0
 78153  1  0  0  0
 78154  1  0  0  0
 79155  1  0  0  0
 79156  1  0  0  0
 80 81  1  0  0  0
 80 82  1  0  0  0
 80157  1  0  0  0
 80158  1  0  0  0
 81 84  1  0  0  0
 81159  1  0  0  0
 81160  1  0  0  0
 84161  1  0  0  0
M  ISO  4   1 100  68 101  79 101  84 100
M  END
> <chiral flag>
0

> <version>
0

> <s_m_source_file>
/data/baiqing/PycharmProjects/Reinvent-master-3.2/result/LINK_invent/BTK/process_docking_weight1_custom_sum_contain_oxygen_bond_distance_aromatic_linkinvent_7_9_3/rearranged_h_0070.sdf

> <i_m_source_file_index>
55

> <r_mmod_Potential_Energy-OPLS-2005>
-67.050651550293

> <r_mmod_Stretch_Energy-OPLS-2005>
107.388969421387

> <r_mmod_Bend_Energy-OPLS-2005>
149.794403076172

> <r_mmod_Torsional_Energy-OPLS-2005>
232.296112060547

> <r_mmod_Improper_Torsional_Energy-OPLS-2005>
5.53157758712769

> <r_mmod_Van_der_Waal_Energy-OPLS-2005>
144.161590576172

> <r_mmod_Electrostatic_Energy-OPLS-2005>
-559.93505859375

> <r_mmod_Solvation_Energy-OPLS-2005>
-213.448822021484

> <b_mmod_Minimization_Converged-OPLS-2005>
0

> <r_mmod_RMS_Derivative-OPLS-2005>
1.09815204143524

$$$$
55
                    3D
 Structure written by MMmdl.
164172  0  0  1  0            999 V2000
  -30.7044  -14.4377   20.6000 C   0  0  0  0  0  0
  -30.4283  -12.3046   19.3894 C   0  0  0  0  0  0
  -29.4836  -12.5086   18.1877 C   0  0  0  0  0  0
  -28.0084  -12.3659   18.6123 C   0  0  0  0  0  0
  -27.6645  -13.1991   19.8741 C   0  0  2  0  0  0
  -28.7097  -12.9456   20.9820 C   0  0  0  0  0  0
  -25.2626  -13.8153   20.5688 C   0  0  0  0  0  0
  -24.1858  -13.0444   20.9161 C   0  0  0  0  0  0
  -24.6393  -11.6909   20.8741 C   0  0  0  0  0  0
  -23.9052  -10.4308   21.0439 C   0  0  0  0  0  0
  -24.3605   -9.4220   21.9207 C   0  0  0  0  0  0
  -23.6286   -8.2261   22.0759 C   0  0  0  0  0  0
  -22.4271   -8.0299   21.3545 C   0  0  0  0  0  0
  -21.9904   -9.0275   20.4653 C   0  0  0  0  0  0
  -22.7228  -10.2156   20.3080 C   0  0  0  0  0  0
  -21.6842   -6.0760   22.5290 C   0  0  0  0  0  0
  -21.4008   -6.5663   23.8225 C   0  0  0  0  0  0
  -21.3652   -5.6804   24.9179 C   0  0  0  0  0  0
  -21.6035   -4.3062   24.7231 C   0  0  0  0  0  0
  -21.8812   -3.8168   23.4349 C   0  0  0  0  0  0
  -21.9181   -4.6985   22.3406 C   0  0  0  0  0  0
  -22.7879  -13.5263   21.1825 C   0  0  0  0  0  0
  -22.1657   -4.2173   21.0989 F   0  0  0  0  0  0
  -21.5619   -3.4547   25.7745 F   0  0  0  0  0  0
  -30.0383  -13.2675   20.4266 N   0  0  0  0  0  0
  -26.3046  -12.9298   20.3386 N   0  0  0  0  0  0
  -25.9311  -11.6467   20.5780 N   0  0  0  0  0  0
  -22.0497  -12.8277   22.0389 N   0  0  0  0  0  0
  -25.4374  -15.1877   20.4146 N   0  0  0  0  0  0
  -31.8091  -14.6746   20.1034 O   0  0  0  0  0  0
  -21.6622   -6.8907   21.4262 O   0  0  0  0  0  0
  -22.3572  -14.5577   20.6672 O   0  0  0  0  0  0
  -24.6171  -31.8682   23.2100 C   0  0  0  0  0  0
  -25.9050  -32.4839   23.8403 C   0  0  1  0  0  0
  -27.2287  -27.4101   20.0940 C   0  0  0  0  0  0
  -25.5913  -33.8627   24.2331 N   0  0  0  0  0  0
  -23.4065  -30.4935   21.5517 C   0  0  2  0  0  0
  -24.8495  -28.9597   20.1171 C   0  0  0  0  0  0
  -22.7429  -29.4671   22.4988 C   0  0  0  0  0  0
  -18.0286  -28.1389   22.8496 C   0  0  0  0  0  0
  -24.1493  -36.7316   23.2634 C   0  0  0  0  0  0
  -25.9394  -30.8256   21.3690 C   0  0  0  0  0  0
  -26.0141  -29.4595   20.7135 C   0  0  0  0  0  0
  -27.2063  -28.6937   20.6963 C   0  0  0  0  0  0
  -26.0350  -26.9321   19.4994 C   0  0  0  0  0  0
  -24.8557  -27.6961   19.5095 C   0  0  0  0  0  0
  -23.6152  -29.8306   20.1661 C   0  0  0  0  0  0
  -25.4113  -36.3117   24.0333 C   0  0  1  0  0  0
  -20.5877  -28.3680   23.1316 C   0  0  2  0  0  0
  -20.6781  -26.9418   22.5415 C   0  0  0  0  0  0
  -19.5760  -26.6399   21.5215 C   0  0  0  0  0  0
  -18.1937  -26.7941   22.1623 C   0  0  0  0  0  0
  -19.1534  -28.8851   23.2906 C   0  0  0  0  0  0
  -18.9460  -30.1457   23.8919 C   0  0  0  0  0  0
  -17.6456  -30.6593   24.0574 C   0  0  0  0  0  0
  -25.9045  -34.9483   23.5135 C   0  0  0  0  0  0
  -16.5347  -29.9092   23.6333 C   0  0  0  0  0  0
  -16.7268  -28.6508   23.0353 C   0  0  0  0  0  0
  -26.4468  -31.6612   25.0730 C   0  0  0  0  0  0
  -25.3715  -31.3729   26.1468 C   0  0  0  0  0  0
  -27.0296  -30.3051   24.6122 C   0  0  0  0  0  0
  -27.6072  -32.4316   25.7470 C   0  0  0  0  0  0
  -27.5597  -37.1807   24.8459 C   0  0  0  0  0  0
  -21.4154  -29.3048   22.3719 N   0  0  0  0  0  0
  -26.4308  -37.3795   23.9414 N   0  0  0  0  0  0
  -24.6726  -31.0763   22.1029 N   0  0  0  0  0  0
  -23.4189  -28.8213   23.3039 O   0  0  0  0  0  0
  -28.3988  -26.6612   20.1087 O   0  0  0  0  0  0
  -26.5596  -34.8928   22.4696 O   0  0  0  0  0  0
  -23.5346  -32.1449   23.7483 O   0  0  0  0  0  0
  -28.6965  -19.0078   19.8886 C   0  0  0  0  0  0
  -29.9625  -17.7983   20.9972 C   0  0  0  0  0  0
  -30.8095  -17.8254   24.0722 C   0  0  0  0  0  0
  -28.6115  -16.6611   23.5633 C   0  0  0  0  0  0
  -29.8957  -23.5981   21.0425 C   0  0  0  0  0  0
  -29.3249  -22.1515   20.9848 C   0  0  0  0  0  0
  -29.6543  -24.5086   19.8101 C   0  0  0  0  0  0
  -30.0250  -21.1832   19.9957 C   0  0  0  0  0  0
  -28.3031  -25.2641   19.7588 C   0  0  0  0  0  0
  -30.5123  -16.6347   21.8029 C   0  0  1  0  0  0
  -30.1339  -16.6774   23.3096 C   0  0  0  0  0  0
  -28.7718  -17.7487   20.3197 N   0  0  0  0  0  0
  -30.5822  -18.9850   20.9689 N   0  0  0  0  0  0
  -29.7308  -19.7698   20.2559 N   0  0  0  0  0  0
  -30.0341  -15.3480   21.3068 N   0  0  0  0  0  0
  -31.4667  -12.4255   19.0735 H   0  0  0  0  0  0
  -30.3497  -11.2870   19.7723 H   0  0  0  0  0  0
  -29.7143  -11.7928   17.3977 H   0  0  0  0  0  0
  -29.6483  -13.4968   17.7589 H   0  0  0  0  0  0
  -27.8151  -11.3098   18.8014 H   0  0  0  0  0  0
  -27.3523  -12.6491   17.7884 H   0  0  0  0  0  0
  -27.7173  -14.2516   19.5923 H   0  0  0  0  0  0
  -28.6889  -11.8991   21.2902 H   0  0  0  0  0  0
  -28.4669  -13.5104   21.8827 H   0  0  0  0  0  0
  -25.2771   -9.5678   22.4766 H   0  0  0  0  0  0
  -23.9980   -7.4655   22.7471 H   0  0  0  0  0  0
  -21.0826   -8.8817   19.8969 H   0  0  0  0  0  0
  -22.3708  -10.9702   19.6195 H   0  0  0  0  0  0
  -21.2016   -7.6172   23.9740 H   0  0  0  0  0  0
  -21.1466   -6.0533   25.9078 H   0  0  0  0  0  0
  -22.0589   -2.7630   23.2848 H   0  0  0  0  0  0
  -22.4076  -11.9927   22.4796 H   0  0  0  0  0  0
  -21.1140  -13.1359   22.2609 H   0  0  0  0  0  0
  -24.6783  -15.8468   20.5483 H   0  0  0  0  0  0
  -26.3014  -15.6351   20.1318 H   0  0  0  0  0  0
  -26.7128  -32.5541   23.1166 H   0  0  0  0  0  0
  -25.0065  -33.9802   25.0481 H   0  0  0  0  0  0
  -22.6966  -31.3119   21.4143 H   0  0  0  0  0  0
  -23.3765  -35.9644   23.3292 H   0  0  0  0  0  0
  -24.3591  -36.8931   22.2052 H   0  0  0  0  0  0
  -23.7232  -37.6515   23.6644 H   0  0  0  0  0  0
  -26.0582  -31.5928   20.6025 H   0  0  0  0  0  0
  -26.8250  -30.8749   21.9910 H   0  0  0  0  0  0
  -28.1060  -29.0772   21.1573 H   0  0  0  0  0  0
  -25.9755  -25.9669   19.0201 H   0  0  0  0  0  0
  -23.9572  -27.3047   19.0513 H   0  0  0  0  0  0
  -23.7298  -30.6079   19.4097 H   0  0  0  0  0  0
  -22.7368  -29.2544   19.8670 H   0  0  0  0  0  0
  -25.1288  -36.1995   25.0824 H   0  0  0  0  0  0
  -20.9963  -28.3249   24.1439 H   0  0  0  0  0  0
  -20.5702  -26.2288   23.3601 H   0  0  0  0  0  0
  -21.6653  -26.7479   22.1202 H   0  0  0  0  0  0
  -19.6931  -25.6313   21.1241 H   0  0  0  0  0  0
  -19.6709  -27.3215   20.6751 H   0  0  0  0  0  0
  -17.4212  -26.6697   21.4019 H   0  0  0  0  0  0
  -18.0340  -26.0078   22.9013 H   0  0  0  0  0  0
  -19.7928  -30.7280   24.2299 H   0  0  0  0  0  0
  -17.5002  -31.6269   24.5182 H   0  0  0  0  0  0
  -15.5346  -30.2998   23.7645 H   0  0  0  0  0  0
  -15.8671  -28.0828   22.7055 H   0  0  0  0  0  0
  -24.5901  -30.7071   25.7785 H   0  0  0  0  0  0
  -24.8887  -32.2885   26.4894 H   0  0  0  0  0  0
  -25.8039  -30.8903   27.0241 H   0  0  0  0  0  0
  -26.2839  -29.6819   24.1170 H   0  0  0  0  0  0
  -27.4054  -29.7291   25.4588 H   0  0  0  0  0  0
  -27.8684  -30.4370   23.9284 H   0  0  0  0  0  0
  -27.2745  -33.3641   26.2039 H   0  0  0  0  0  0
  -28.3870  -32.6827   25.0266 H   0  0  0  0  0  0
  -28.0746  -31.8431   26.5374 H   0  0  0  0  0  0
  -28.2600  -38.0118   24.7539 H   0  0  0  0  0  0
  -28.1109  -36.2655   24.6246 H   0  0  0  0  0  0
  -27.2323  -37.1405   25.8860 H   0  0  0  0  0  0
  -20.9321  -29.8759   21.6931 H   0  0  0  0  0  0
  -26.0203  -38.2881   24.1414 H   0  0  0  0  0  0
  -27.8688  -19.3849   19.3042 H   0  0  0  0  0  0
  -30.5673  -17.7755   25.1346 H   0  0  0  0  0  0
  -30.4926  -18.8006   23.7032 H   0  0  0  0  0  0
  -31.8946  -17.7685   23.9837 H   0  0  0  0  0  0
  -28.3926  -16.6072   24.6297 H   0  0  0  0  0  0
  -28.1240  -15.8026   23.0995 H   0  0  0  0  0  0
  -28.1365  -17.5620   23.1775 H   0  0  0  0  0  0
  -30.9730  -23.5222   21.2021 H   0  0  0  0  0  0
  -29.5136  -24.0982   21.9327 H   0  0  0  0  0  0
  -28.2518  -22.1738   20.7884 H   0  0  0  0  0  0
  -29.4291  -21.7290   21.9855 H   0  0  0  0  0  0
  -29.7555  -23.9010   18.9110 H   0  0  0  0  0  0
  -30.4562  -25.2443   19.7441 H   0  0  0  0  0  0
  -31.1073  -21.3169   20.0425 H   0  0  0  0  0  0
  -29.7291  -21.4110   18.9702 H   0  0  0  0  0  0
  -27.5688  -24.7632   20.3936 H   0  0  0  0  0  0
  -27.9468  -25.1867   18.7311 H   0  0  0  0  0  0
  -31.6024  -16.6616   21.7268 H   0  0  0  0  0  0
  -30.5292  -15.7638   23.7569 H   0  0  0  0  0  0
  -29.0955  -15.1062   21.5771 H   0  0  0  0  0  0
  1 25  1  0  0  0
  1 30  2  0  0  0
  1 85  1  0  0  0
  2  3  1  0  0  0
  2 25  1  0  0  0
  2 86  1  0  0  0
  2 87  1  0  0  0
  3  4  1  0  0  0
  3 88  1  0  0  0
  3 89  1  0  0  0
  4  5  1  0  0  0
  4 90  1  0  0  0
  4 91  1  0  0  0
  5  6  1  0  0  0
  5 26  1  0  0  0
  5 92  1  0  0  0
  6 25  1  0  0  0
  6 93  1  0  0  0
  6 94  1  0  0  0
  7  8  2  0  0  0
  7 26  1  0  0  0
  7 29  1  0  0  0
  8  9  1  0  0  0
  8 22  1  0  0  0
  9 10  1  0  0  0
  9 27  2  0  0  0
 10 11  2  0  0  0
 10 15  1  0  0  0
 11 12  1  0  0  0
 11 95  1  0  0  0
 12 13  2  0  0  0
 12 96  1  0  0  0
 13 14  1  0  0  0
 13 31  1  0  0  0
 14 15  2  0  0  0
 14 97  1  0  0  0
 15 98  1  0  0  0
 16 17  2  0  0  0
 16 21  1  0  0  0
 16 31  1  0  0  0
 17 18  1  0  0  0
 17 99  1  0  0  0
 18 19  2  0  0  0
 18100  1  0  0  0
 19 20  1  0  0  0
 19 24  1  0  0  0
 20 21  2  0  0  0
 20101  1  0  0  0
 21 23  1  0  0  0
 22 28  1  0  0  0
 22 32  2  0  0  0
 26 27  1  0  0  0
 28102  1  0  0  0
 28103  1  0  0  0
 29104  1  0  0  0
 29105  1  0  0  0
 33 34  1  0  0  0
 33 66  1  0  0  0
 33 70  2  0  0  0
 34 36  1  0  0  0
 34 59  1  0  0  0
 34106  1  0  0  0
 35 44  2  0  0  0
 35 45  1  0  0  0
 35 68  1  0  0  0
 36 56  1  0  0  0
 36107  1  0  0  0
 37 39  1  0  0  0
 37 47  1  0  0  0
 37 66  1  0  0  0
 37108  1  0  0  0
 38 43  2  0  0  0
 38 46  1  0  0  0
 38 47  1  0  0  0
 39 64  1  0  0  0
 39 67  2  0  0  0
 40 52  1  0  0  0
 40 53  2  0  0  0
 40 58  1  0  0  0
 41109  1  0  0  0
 41110  1  0  0  0
 41111  1  0  0  0
 41 48  1  0  0  0
 42 43  1  0  0  0
 42 66  1  0  0  0
 42112  1  0  0  0
 42113  1  0  0  0
 43 44  1  0  0  0
 44114  1  0  0  0
 45 46  2  0  0  0
 45115  1  0  0  0
 46116  1  0  0  0
 47117  1  0  0  0
 47118  1  0  0  0
 48 56  1  0  0  0
 48 65  1  0  0  0
 48119  1  0  0  0
 49 50  1  0  0  0
 49 53  1  0  0  0
 49 64  1  0  0  0
 49120  1  0  0  0
 50 51  1  0  0  0
 50121  1  0  0  0
 50122  1  0  0  0
 51 52  1  0  0  0
 51123  1  0  0  0
 51124  1  0  0  0
 52125  1  0  0  0
 52126  1  0  0  0
 53 54  1  0  0  0
 54 55  2  0  0  0
 54127  1  0  0  0
 55 57  1  0  0  0
 55128  1  0  0  0
 56 69  2  0  0  0
 57 58  2  0  0  0
 57129  1  0  0  0
 58130  1  0  0  0
 59 60  1  0  0  0
 59 61  1  0  0  0
 59 62  1  0  0  0
 60131  1  0  0  0
 60132  1  0  0  0
 60133  1  0  0  0
 61134  1  0  0  0
 61135  1  0  0  0
 61136  1  0  0  0
 62137  1  0  0  0
 62138  1  0  0  0
 62139  1  0  0  0
 63 65  1  0  0  0
 63140  1  0  0  0
 63141  1  0  0  0
 63142  1  0  0  0
 64143  1  0  0  0
 65144  1  0  0  0
 68 79  1  0  0  0
 71 82  2  0  0  0
 71 84  1  0  0  0
 71145  1  0  0  0
 72 80  1  0  0  0
 72 82  1  0  0  0
 72 83  2  0  0  0
 73146  1  0  0  0
 73147  1  0  0  0
 73148  1  0  0  0
 73 81  1  0  0  0
 74 81  1  0  0  0
 74149  1  0  0  0
 74150  1  0  0  0
 74151  1  0  0  0
 75 76  1  0  0  0
 75 77  1  0  0  0
 75152  1  0  0  0
 75153  1  0  0  0
 76 78  1  0  0  0
 76154  1  0  0  0
 76155  1  0  0  0
 77 79  1  0  0  0
 77156  1  0  0  0
 77157  1  0  0  0
 78 84  1  0  0  0
 78158  1  0  0  0
 78159  1  0  0  0
 79160  1  0  0  0
 79161  1  0  0  0
 80 81  1  0  0  0
 80 85  1  0  0  0
 80162  1  0  0  0
 81163  1  0  0  0
 83 84  1  0  0  0
 85164  1  0  0  0
M  ISO  4   1 100  68 101  79 101  85 100
M  END
> <chiral flag>
0

> <version>
0

> <s_m_source_file>
/data/baiqing/PycharmProjects/Reinvent-master-3.2/result/LINK_invent/BTK/process_docking_weight1_custom_sum_contain_oxygen_bond_distance_aromatic_linkinvent_7_9_3/rearranged_h_0070.sdf

> <i_m_source_file_index>
56

> <r_mmod_Potential_Energy-OPLS-2005>
-159.754043579102

> <r_mmod_Stretch_Energy-OPLS-2005>
38.6416625976562

> <r_mmod_Bend_Energy-OPLS-2005>
109.109443664551

> <r_mmod_Torsional_Energy-OPLS-2005>
212.153427124023

> <r_mmod_Improper_Torsional_Energy-OPLS-2005>
2.05045461654663

> <r_mmod_Van_der_Waal_Energy-OPLS-2005>
128.711730957031

> <r_mmod_Electrostatic_Energy-OPLS-2005>
-451.483428955078

> <r_mmod_Solvation_Energy-OPLS-2005>
-211.575576782227

> <b_mmod_Minimization_Converged-OPLS-2005>
0

> <r_mmod_RMS_Derivative-OPLS-2005>
3.06570100784302

$$$$
56
                    3D
 Structure written by MMmdl.
161169  0  0  1  0            999 V2000
  -30.6529  -14.6406   20.5982 C   0  0  0  0  0  0
  -30.4325  -12.4221   19.4568 C   0  0  0  0  0  0
  -29.5102  -12.5417   18.2223 C   0  0  0  0  0  0
  -28.0262  -12.3745   18.6111 C   0  0  0  0  0  0
  -27.6524  -13.2137   19.8610 C   0  0  2  0  0  0
  -28.6894  -12.9996   20.9771 C   0  0  0  0  0  0
  -25.2573  -13.8190   20.5634 C   0  0  0  0  0  0
  -24.1817  -13.0459   20.9139 C   0  0  0  0  0  0
  -24.6377  -11.6927   20.8731 C   0  0  0  0  0  0
  -23.9035  -10.4307   21.0407 C   0  0  0  0  0  0
  -24.3571   -9.4220   21.9201 C   0  0  0  0  0  0
  -23.6279   -8.2232   22.0735 C   0  0  0  0  0  0
  -22.4285   -8.0246   21.3503 C   0  0  0  0  0  0
  -21.9924   -9.0226   20.4619 C   0  0  0  0  0  0
  -22.7219  -10.2136   20.3054 C   0  0  0  0  0  0
  -21.6842   -6.0718   22.5288 C   0  0  0  0  0  0
  -21.3997   -6.5618   23.8225 C   0  0  0  0  0  0
  -21.3676   -5.6772   24.9203 C   0  0  0  0  0  0
  -21.6061   -4.3034   24.7244 C   0  0  0  0  0  0
  -21.8816   -3.8129   23.4365 C   0  0  0  0  0  0
  -21.9170   -4.6944   22.3418 C   0  0  0  0  0  0
  -22.7849  -13.5281   21.1819 C   0  0  0  0  0  0
  -22.1624   -4.2128   21.0994 F   0  0  0  0  0  0
  -21.5652   -3.4520   25.7751 F   0  0  0  0  0  0
  -29.9985  -13.4290   20.4614 N   0  0  0  0  0  0
  -26.2970  -12.9338   20.3257 N   0  0  0  0  0  0
  -25.9292  -11.6502   20.5716 N   0  0  0  0  0  0
  -22.0469  -12.8278   22.0370 N   0  0  0  0  0  0
  -25.4399  -15.1897   20.4114 N   0  0  0  0  0  0
  -31.7489  -14.7461   20.0277 O   0  0  0  0  0  0
  -21.6629   -6.8856   21.4231 O   0  0  0  0  0  0
  -22.3550  -14.5579   20.6664 O   0  0  0  0  0  0
  -24.6290  -31.8605   23.2033 C   0  0  0  0  0  0
  -25.9138  -32.4779   23.8364 C   0  0  1  0  0  0
  -27.2003  -27.3018   20.1092 C   0  0  0  0  0  0
  -25.5953  -33.8579   24.2289 N   0  0  0  0  0  0
  -23.4206  -30.4896   21.5468 C   0  0  2  0  0  0
  -24.8605  -28.9505   20.1057 C   0  0  0  0  0  0
  -22.7481  -29.4640   22.4923 C   0  0  0  0  0  0
  -18.0290  -28.1392   22.8486 C   0  0  0  0  0  0
  -24.1481  -36.7285   23.2638 C   0  0  0  0  0  0
  -25.9661  -30.7836   21.3787 C   0  0  0  0  0  0
  -26.0339  -29.4128   20.7165 C   0  0  0  0  0  0
  -27.2092  -28.6011   20.7105 C   0  0  0  0  0  0
  -26.0044  -26.9070   19.4652 C   0  0  0  0  0  0
  -24.8485  -27.7033   19.4709 C   0  0  0  0  0  0
  -23.6349  -29.8364   20.1573 C   0  0  0  0  0  0
  -25.4107  -36.3076   24.0327 C   0  0  1  0  0  0
  -20.5893  -28.3696   23.1270 C   0  0  2  0  0  0
  -20.6780  -26.9418   22.5399 C   0  0  0  0  0  0
  -19.5747  -26.6384   21.5210 C   0  0  0  0  0  0
  -18.1932  -26.7935   22.1627 C   0  0  0  0  0  0
  -19.1544  -28.8862   23.2876 C   0  0  0  0  0  0
  -18.9467  -30.1468   23.8891 C   0  0  0  0  0  0
  -17.6466  -30.6593   24.0572 C   0  0  0  0  0  0
  -25.9046  -34.9452   23.5095 C   0  0  0  0  0  0
  -16.5356  -29.9094   23.6341 C   0  0  0  0  0  0
  -16.7276  -28.6516   23.0351 C   0  0  0  0  0  0
  -26.4514  -31.6587   25.0735 C   0  0  0  0  0  0
  -25.3751  -31.3724   26.1463 C   0  0  0  0  0  0
  -27.0356  -30.3009   24.6191 C   0  0  0  0  0  0
  -27.6071  -32.4321   25.7517 C   0  0  0  0  0  0
  -27.5572  -37.1800   24.8471 C   0  0  0  0  0  0
  -21.4197  -29.3049   22.3659 N   0  0  0  0  0  0
  -26.4283  -37.3776   23.9415 N   0  0  0  0  0  0
  -24.6910  -31.0621   22.0983 N   0  0  0  0  0  0
  -23.4204  -28.8172   23.2996 O   0  0  0  0  0  0
  -28.2870  -26.4079   20.1694 O   0  0  0  0  0  0
  -26.5606  -34.8918   22.4655 O   0  0  0  0  0  0
  -23.5448  -32.1411   23.7357 O   0  0  0  0  0  0
  -29.9232  -18.5635   20.9416 C   0  0  0  0  0  0
  -29.2469  -19.6212   20.2641 C   0  0  0  0  0  0
  -29.6172  -17.1918   20.6417 C   0  0  0  0  0  0
  -28.0571  -17.9997   19.1414 C   0  0  0  0  0  0
  -26.9671  -17.6864   18.1386 C   0  0  0  0  0  0
  -29.1769  -15.6557   22.5712 C   0  0  0  0  0  0
  -31.4765  -16.3906   22.1989 C   0  0  0  0  0  0
  -29.6378  -21.1412   20.4013 C   0  0  0  0  0  0
  -28.5425  -22.2956   20.2804 C   0  0  0  0  0  0
  -29.0267  -23.8225   20.3911 C   0  0  0  0  0  0
  -27.9731  -24.9584   20.0289 C   0  0  0  0  0  0
  -30.1918  -15.9451   21.4454 C   0  0  0  0  0  0
  -28.3268  -19.2924   19.3373 N   0  0  0  0  0  0
  -28.6346  -16.9587   19.7439 N   0  0  0  0  0  0
  -31.4726  -12.5413   19.1520 H   0  0  0  0  0  0
  -30.3840  -11.4166   19.8777 H   0  0  0  0  0  0
  -29.7888  -11.7974   17.4744 H   0  0  0  0  0  0
  -29.6574  -13.5151   17.7519 H   0  0  0  0  0  0
  -27.8478  -11.3158   18.8033 H   0  0  0  0  0  0
  -27.3868  -12.6432   17.7701 H   0  0  0  0  0  0
  -27.6933  -14.2603   19.5607 H   0  0  0  0  0  0
  -28.7263  -11.9402   21.2338 H   0  0  0  0  0  0
  -28.3709  -13.4517   21.9025 H   0  0  0  0  0  0
  -25.2668   -9.5711   22.4848 H   0  0  0  0  0  0
  -23.9999   -7.4616   22.7454 H   0  0  0  0  0  0
  -21.0872   -8.8709   19.8910 H   0  0  0  0  0  0
  -22.3642  -10.9686   19.6201 H   0  0  0  0  0  0
  -21.1943   -7.6117   23.9738 H   0  0  0  0  0  0
  -21.1531   -6.0483   25.9113 H   0  0  0  0  0  0
  -22.0581   -2.7584   23.2883 H   0  0  0  0  0  0
  -22.4006  -11.9861   22.4666 H   0  0  0  0  0  0
  -21.1112  -13.1392   22.2597 H   0  0  0  0  0  0
  -26.3300  -15.6192   20.1830 H   0  0  0  0  0  0
  -24.6828  -15.8579   20.4995 H   0  0  0  0  0  0
  -26.7214  -32.5429   23.1117 H   0  0  0  0  0  0
  -25.0136  -33.9733   25.0459 H   0  0  0  0  0  0
  -22.7141  -31.3115   21.4100 H   0  0  0  0  0  0
  -23.3742  -35.9622   23.3309 H   0  0  0  0  0  0
  -24.3572  -36.8883   22.2050 H   0  0  0  0  0  0
  -23.7240  -37.6489   23.6652 H   0  0  0  0  0  0
  -26.1033  -31.5450   20.6099 H   0  0  0  0  0  0
  -26.8463  -30.8277   22.0083 H   0  0  0  0  0  0
  -28.1043  -28.9468   21.2090 H   0  0  0  0  0  0
  -25.9149  -25.9598   18.9572 H   0  0  0  0  0  0
  -23.9531  -27.3464   18.9797 H   0  0  0  0  0  0
  -23.7620  -30.6204   19.4092 H   0  0  0  0  0  0
  -22.7512  -29.2756   19.8472 H   0  0  0  0  0  0
  -25.1289  -36.1922   25.0821 H   0  0  0  0  0  0
  -21.0002  -28.3270   24.1384 H   0  0  0  0  0  0
  -20.5685  -26.2308   23.3598 H   0  0  0  0  0  0
  -21.6647  -26.7439   22.1190 H   0  0  0  0  0  0
  -19.6894  -25.6291   21.1239 H   0  0  0  0  0  0
  -19.6685  -27.3201   20.6743 H   0  0  0  0  0  0
  -17.4200  -26.6688   21.4032 H   0  0  0  0  0  0
  -18.0334  -26.0087   22.9031 H   0  0  0  0  0  0
  -19.7939  -30.7296   24.2247 H   0  0  0  0  0  0
  -17.5014  -31.6267   24.5179 H   0  0  0  0  0  0
  -15.5354  -30.2991   23.7664 H   0  0  0  0  0  0
  -15.8677  -28.0833   22.7054 H   0  0  0  0  0  0
  -24.5936  -30.7055   25.7803 H   0  0  0  0  0  0
  -24.8937  -32.2883   26.4891 H   0  0  0  0  0  0
  -25.8081  -30.8910   27.0240 H   0  0  0  0  0  0
  -26.2921  -29.6758   24.1222 H   0  0  0  0  0  0
  -27.4060  -29.7269   25.4699 H   0  0  0  0  0  0
  -27.8797  -30.4299   23.9414 H   0  0  0  0  0  0
  -27.2676  -33.3622   26.2095 H   0  0  0  0  0  0
  -28.3887  -32.6870   25.0349 H   0  0  0  0  0  0
  -28.0738  -31.8445   26.5432 H   0  0  0  0  0  0
  -28.2594  -38.0091   24.7508 H   0  0  0  0  0  0
  -28.1053  -36.2619   24.6305 H   0  0  0  0  0  0
  -27.2289  -37.1465   25.8873 H   0  0  0  0  0  0
  -20.9363  -29.8800   21.6902 H   0  0  0  0  0  0
  -26.0148  -38.2839   24.1431 H   0  0  0  0  0  0
  -30.6697  -18.8195   21.6787 H   0  0  0  0  0  0
  -27.1228  -18.2479   17.2179 H   0  0  0  0  0  0
  -25.9924  -17.9619   18.5428 H   0  0  0  0  0  0
  -26.9437  -16.6260   17.8845 H   0  0  0  0  0  0
  -29.1121  -16.4914   23.2664 H   0  0  0  0  0  0
  -29.4591  -14.7869   23.1655 H   0  0  0  0  0  0
  -28.1685  -15.5340   22.1768 H   0  0  0  0  0  0
  -31.9567  -15.5528   22.7072 H   0  0  0  0  0  0
  -31.2738  -17.1414   22.9632 H   0  0  0  0  0  0
  -32.2125  -16.8181   21.5173 H   0  0  0  0  0  0
  -30.4062  -21.3295   19.6522 H   0  0  0  0  0  0
  -30.1374  -21.2579   21.3631 H   0  0  0  0  0  0
  -27.7678  -22.1146   21.0254 H   0  0  0  0  0  0
  -28.0485  -22.1737   19.3169 H   0  0  0  0  0  0
  -29.8920  -23.9528   19.7410 H   0  0  0  0  0  0
  -29.3900  -23.9974   21.4044 H   0  0  0  0  0  0
  -27.0823  -24.7528   20.6246 H   0  0  0  0  0  0
  -27.6971  -24.7820   18.9895 H   0  0  0  0  0  0
  1 25  1  0  0  0
  1 30  2  0  0  0
  1 82  1  0  0  0
  2  3  1  0  0  0
  2 25  1  0  0  0
  2 85  1  0  0  0
  2 86  1  0  0  0
  3  4  1  0  0  0
  3 87  1  0  0  0
  3 88  1  0  0  0
  4  5  1  0  0  0
  4 89  1  0  0  0
  4 90  1  0  0  0
  5  6  1  0  0  0
  5 26  1  0  0  0
  5 91  1  0  0  0
  6 25  1  0  0  0
  6 92  1  0  0  0
  6 93  1  0  0  0
  7  8  2  0  0  0
  7 26  1  0  0  0
  7 29  1  0  0  0
  8  9  1  0  0  0
  8 22  1  0  0  0
  9 10  1  0  0  0
  9 27  2  0  0  0
 10 11  2  0  0  0
 10 15  1  0  0  0
 11 12  1  0  0  0
 11 94  1  0  0  0
 12 13  2  0  0  0
 12 95  1  0  0  0
 13 14  1  0  0  0
 13 31  1  0  0  0
 14 15  2  0  0  0
 14 96  1  0  0  0
 15 97  1  0  0  0
 16 17  2  0  0  0
 16 21  1  0  0  0
 16 31  1  0  0  0
 17 18  1  0  0  0
 17 98  1  0  0  0
 18 19  2  0  0  0
 18 99  1  0  0  0
 19 20  1  0  0  0
 19 24  1  0  0  0
 20 21  2  0  0  0
 20100  1  0  0  0
 21 23  1  0  0  0
 22 28  1  0  0  0
 22 32  2  0  0  0
 26 27  1  0  0  0
 28101  1  0  0  0
 28102  1  0  0  0
 29103  1  0  0  0
 29104  1  0  0  0
 33 34  1  0  0  0
 33 66  1  0  0  0
 33 70  2  0  0  0
 34 36  1  0  0  0
 34 59  1  0  0  0
 34105  1  0  0  0
 35 44  2  0  0  0
 35 45  1  0  0  0
 35 68  1  0  0  0
 36 56  1  0  0  0
 36106  1  0  0  0
 37 39  1  0  0  0
 37 47  1  0  0  0
 37 66  1  0  0  0
 37107  1  0  0  0
 38 43  2  0  0  0
 38 46  1  0  0  0
 38 47  1  0  0  0
 39 64  1  0  0  0
 39 67  2  0  0  0
 40 52  1  0  0  0
 40 53  2  0  0  0
 40 58  1  0  0  0
 41108  1  0  0  0
 41109  1  0  0  0
 41110  1  0  0  0
 41 48  1  0  0  0
 42 43  1  0  0  0
 42 66  1  0  0  0
 42111  1  0  0  0
 42112  1  0  0  0
 43 44  1  0  0  0
 44113  1  0  0  0
 45 46  2  0  0  0
 45114  1  0  0  0
 46115  1  0  0  0
 47116  1  0  0  0
 47117  1  0  0  0
 48 56  1  0  0  0
 48 65  1  0  0  0
 48118  1  0  0  0
 49 50  1  0  0  0
 49 53  1  0  0  0
 49 64  1  0  0  0
 49119  1  0  0  0
 50 51  1  0  0  0
 50120  1  0  0  0
 50121  1  0  0  0
 51 52  1  0  0  0
 51122  1  0  0  0
 51123  1  0  0  0
 52124  1  0  0  0
 52125  1  0  0  0
 53 54  1  0  0  0
 54 55  2  0  0  0
 54126  1  0  0  0
 55 57  1  0  0  0
 55127  1  0  0  0
 56 69  2  0  0  0
 57 58  2  0  0  0
 57128  1  0  0  0
 58129  1  0  0  0
 59 60  1  0  0  0
 59 61  1  0  0  0
 59 62  1  0  0  0
 60130  1  0  0  0
 60131  1  0  0  0
 60132  1  0  0  0
 61133  1  0  0  0
 61134  1  0  0  0
 61135  1  0  0  0
 62136  1  0  0  0
 62137  1  0  0  0
 62138  1  0  0  0
 63 65  1  0  0  0
 63139  1  0  0  0
 63140  1  0  0  0
 63141  1  0  0  0
 64142  1  0  0  0
 65143  1  0  0  0
 68 81  1  0  0  0
 71 72  2  0  0  0
 71 73  1  0  0  0
 71144  1  0  0  0
 72 78  1  0  0  0
 72 83  1  0  0  0
 73 82  1  0  0  0
 73 84  2  0  0  0
 74 75  1  0  0  0
 74 83  2  0  0  0
 74 84  1  0  0  0
 75145  1  0  0  0
 75146  1  0  0  0
 75147  1  0  0  0
 76148  1  0  0  0
 76149  1  0  0  0
 76150  1  0  0  0
 76 82  1  0  0  0
 77 82  1  0  0  0
 77151  1  0  0  0
 77152  1  0  0  0
 77153  1  0  0  0
 78 79  1  0  0  0
 78154  1  0  0  0
 78155  1  0  0  0
 79 80  1  0  0  0
 79156  1  0  0  0
 79157  1  0  0  0
 80 81  1  0  0  0
 80158  1  0  0  0
 80159  1  0  0  0
 81160  1  0  0  0
 81161  1  0  0  0
M  ISO  4   1 100  68 101  81 101  82 100
M  END
> <chiral flag>
0

> <version>
0

> <s_m_source_file>
/data/baiqing/PycharmProjects/Reinvent-master-3.2/result/LINK_invent/BTK/process_docking_weight1_custom_sum_contain_oxygen_bond_distance_aromatic_linkinvent_7_9_3/rearranged_h_0070.sdf

> <i_m_source_file_index>
57

> <r_mmod_Potential_Energy-OPLS-2005>
-217.572814941406

> <r_mmod_Stretch_Energy-OPLS-2005>
100.188468933105

> <r_mmod_Bend_Energy-OPLS-2005>
174.772720336914

> <r_mmod_Torsional_Energy-OPLS-2005>
174.304534912109

> <r_mmod_Improper_Torsional_Energy-OPLS-2005>
3.07739353179932

> <r_mmod_Van_der_Waal_Energy-OPLS-2005>
164.950744628906

> <r_mmod_Electrostatic_Energy-OPLS-2005>
-688.765014648438

> <r_mmod_Solvation_Energy-OPLS-2005>
-198.225463867188

> <b_mmod_Minimization_Converged-OPLS-2005>
0

> <r_mmod_RMS_Derivative-OPLS-2005>
2.60523343086243

$$$$
57
                    3D
 Structure written by MMmdl.
161169  0  0  1  0            999 V2000
  -30.7457  -14.4327   20.7139 C   0  0  0  0  0  0
  -30.4283  -12.3417   19.4136 C   0  0  0  0  0  0
  -29.4926  -12.5587   18.2048 C   0  0  0  0  0  0
  -28.0116  -12.4014   18.6026 C   0  0  0  0  0  0
  -27.6684  -13.1947   19.8911 C   0  0  2  0  0  0
  -28.7064  -12.8633   20.9819 C   0  0  0  0  0  0
  -25.2635  -13.8117   20.5707 C   0  0  0  0  0  0
  -24.1863  -13.0419   20.9194 C   0  0  0  0  0  0
  -24.6392  -11.6881   20.8746 C   0  0  0  0  0  0
  -23.9042  -10.4284   21.0416 C   0  0  0  0  0  0
  -24.3603   -9.4200   21.9191 C   0  0  0  0  0  0
  -23.6289   -8.2232   22.0753 C   0  0  0  0  0  0
  -22.4267   -8.0276   21.3547 C   0  0  0  0  0  0
  -21.9896   -9.0242   20.4639 C   0  0  0  0  0  0
  -22.7218  -10.2126   20.3056 C   0  0  0  0  0  0
  -21.6851   -6.0728   22.5280 C   0  0  0  0  0  0
  -21.4007   -6.5637   23.8217 C   0  0  0  0  0  0
  -21.3666   -5.6791   24.9179 C   0  0  0  0  0  0
  -21.6047   -4.3050   24.7225 C   0  0  0  0  0  0
  -21.8820   -3.8137   23.4349 C   0  0  0  0  0  0
  -21.9200   -4.6956   22.3400 C   0  0  0  0  0  0
  -22.7891  -13.5240   21.1849 C   0  0  0  0  0  0
  -22.1660   -4.2134   21.0979 F   0  0  0  0  0  0
  -21.5646   -3.4546   25.7744 F   0  0  0  0  0  0
  -30.0351  -13.2754   20.4947 N   0  0  0  0  0  0
  -26.3053  -12.9265   20.3408 N   0  0  0  0  0  0
  -25.9312  -11.6430   20.5759 N   0  0  0  0  0  0
  -22.0509  -12.8246   22.0393 N   0  0  0  0  0  0
  -25.4398  -15.1830   20.4125 N   0  0  0  0  0  0
  -31.7278  -14.6625   19.9989 O   0  0  0  0  0  0
  -21.6629   -6.8874   21.4248 O   0  0  0  0  0  0
  -22.3605  -14.5562   20.6709 O   0  0  0  0  0  0
  -24.6133  -31.8689   23.2116 C   0  0  0  0  0  0
  -25.9036  -32.4827   23.8400 C   0  0  1  0  0  0
  -27.2411  -27.4512   20.0740 C   0  0  0  0  0  0
  -25.5900  -33.8625   24.2341 N   0  0  0  0  0  0
  -23.3992  -30.4937   21.5519 C   0  0  2  0  0  0
  -24.8421  -28.9573   20.1167 C   0  0  0  0  0  0
  -22.7399  -29.4670   22.4994 C   0  0  0  0  0  0
  -18.0274  -28.1373   22.8492 C   0  0  0  0  0  0
  -24.1481  -36.7317   23.2638 C   0  0  0  0  0  0
  -25.9260  -30.8390   21.3588 C   0  0  0  0  0  0
  -26.0013  -29.4732   20.7073 C   0  0  0  0  0  0
  -27.1986  -28.7252   20.6850 C   0  0  0  0  0  0
  -26.0518  -26.9334   19.5079 C   0  0  0  0  0  0
  -24.8608  -27.6848   19.5201 C   0  0  0  0  0  0
  -23.6052  -29.8256   20.1655 C   0  0  0  0  0  0
  -25.4101  -36.3118   24.0344 C   0  0  1  0  0  0
  -20.5861  -28.3661   23.1315 C   0  0  2  0  0  0
  -20.6756  -26.9398   22.5406 C   0  0  0  0  0  0
  -19.5734  -26.6388   21.5199 C   0  0  0  0  0  0
  -18.1918  -26.7921   22.1620 C   0  0  0  0  0  0
  -19.1521  -28.8834   23.2907 C   0  0  0  0  0  0
  -18.9449  -30.1438   23.8920 C   0  0  0  0  0  0
  -17.6450  -30.6579   24.0567 C   0  0  0  0  0  0
  -25.9031  -34.9480   23.5142 C   0  0  0  0  0  0
  -16.5343  -29.9083   23.6320 C   0  0  0  0  0  0
  -16.7265  -28.6500   23.0344 C   0  0  0  0  0  0
  -26.4479  -31.6603   25.0721 C   0  0  0  0  0  0
  -25.3770  -31.3680   26.1490 C   0  0  0  0  0  0
  -27.0291  -30.3055   24.6057 C   0  0  0  0  0  0
  -27.6070  -32.4313   25.7470 C   0  0  0  0  0  0
  -27.5581  -37.1807   24.8470 C   0  0  0  0  0  0
  -21.4128  -29.3038   22.3736 N   0  0  0  0  0  0
  -26.4293  -37.3800   23.9415 N   0  0  0  0  0  0
  -24.6650  -31.0806   22.1000 N   0  0  0  0  0  0
  -23.4183  -28.8211   23.3026 O   0  0  0  0  0  0
  -28.4507  -26.7849   20.0653 O   0  0  0  0  0  0
  -26.5590  -34.8931   22.4702 O   0  0  0  0  0  0
  -23.5331  -32.1434   23.7528 O   0  0  0  0  0  0
  -31.1911  -17.6442   20.4505 C   0  0  0  0  0  0
  -28.8782  -17.4462   20.9058 C   0  0  0  0  0  0
  -30.1619  -16.8873   21.0382 C   0  0  0  0  0  0
  -29.7054  -19.2600   19.7908 C   0  0  0  0  0  0
  -29.2892  -15.2784   22.7969 C   0  0  0  0  0  0
  -29.4355  -20.5779   19.0708 C   0  0  0  0  0  0
  -29.1406  -21.7779   19.9999 C   0  0  0  0  0  0
  -28.9468  -23.0912   19.2065 C   0  0  0  0  0  0
  -28.5964  -24.3303   20.0586 C   0  0  0  0  0  0
  -28.6492  -25.6355   19.2383 C   0  0  0  0  0  0
  -30.4415  -15.5524   21.7918 C   0  0  1  0  0  0
  -31.7083  -15.7055   22.7132 C   0  0  0  0  0  0
  -30.9603  -18.8285   19.8476 N   0  0  0  0  0  0
  -28.6574  -18.6194   20.2855 N   0  0  0  0  0  0
  -31.5468  -16.7392   23.5432 F   0  0  0  0  0  0
  -31.8803  -14.6041   23.4487 F   0  0  0  0  0  0
  -32.8596  -15.9064   22.0727 F   0  0  0  0  0  0
  -31.4696  -12.4526   19.1064 H   0  0  0  0  0  0
  -30.3594  -11.3104   19.7607 H   0  0  0  0  0  0
  -29.7433  -11.8603   17.4063 H   0  0  0  0  0  0
  -29.6534  -13.5584   17.7985 H   0  0  0  0  0  0
  -27.8160  -11.3395   18.7574 H   0  0  0  0  0  0
  -27.3641  -12.7131   17.7821 H   0  0  0  0  0  0
  -27.7429  -14.2575   19.6612 H   0  0  0  0  0  0
  -28.7118  -11.7829   21.1339 H   0  0  0  0  0  0
  -28.3997  -13.1979   21.9582 H   0  0  0  0  0  0
  -25.2750   -9.5687   22.4769 H   0  0  0  0  0  0
  -24.0005   -7.4618   22.7466 H   0  0  0  0  0  0
  -21.0829   -8.8755   19.8942 H   0  0  0  0  0  0
  -22.3672  -10.9674   19.6170 H   0  0  0  0  0  0
  -21.1982   -7.6139   23.9725 H   0  0  0  0  0  0
  -21.1502   -6.0512   25.9088 H   0  0  0  0  0  0
  -22.0598   -2.7598   23.2852 H   0  0  0  0  0  0
  -22.4066  -11.9887   22.4777 H   0  0  0  0  0  0
  -21.1138  -13.1321   22.2606 H   0  0  0  0  0  0
  -24.6718  -15.8374   20.5103 H   0  0  0  0  0  0
  -26.2780  -15.6118   20.0445 H   0  0  0  0  0  0
  -26.7107  -32.5537   23.1164 H   0  0  0  0  0  0
  -25.0057  -33.9790   25.0491 H   0  0  0  0  0  0
  -22.6881  -31.3114   21.4145 H   0  0  0  0  0  0
  -23.3740  -35.9653   23.3315 H   0  0  0  0  0  0
  -24.3576  -36.8913   22.2049 H   0  0  0  0  0  0
  -23.7235  -37.6530   23.6637 H   0  0  0  0  0  0
  -26.0327  -31.6057   20.5893 H   0  0  0  0  0  0
  -26.8166  -30.8944   21.9726 H   0  0  0  0  0  0
  -28.0985  -29.1312   21.1253 H   0  0  0  0  0  0
  -26.0174  -25.9513   19.0607 H   0  0  0  0  0  0
  -23.9640  -27.2765   19.0745 H   0  0  0  0  0  0
  -23.7145  -30.6021   19.4069 H   0  0  0  0  0  0
  -22.7273  -29.2488   19.8688 H   0  0  0  0  0  0
  -25.1272  -36.1985   25.0836 H   0  0  0  0  0  0
  -20.9961  -28.3213   24.1431 H   0  0  0  0  0  0
  -20.5629  -26.2270   23.3592 H   0  0  0  0  0  0
  -21.6628  -26.7420   22.1211 H   0  0  0  0  0  0
  -19.6887  -25.6302   21.1217 H   0  0  0  0  0  0
  -19.6669  -27.3207   20.6733 H   0  0  0  0  0  0
  -17.4180  -26.6674   21.4030 H   0  0  0  0  0  0
  -18.0332  -26.0057   22.9011 H   0  0  0  0  0  0
  -19.7926  -30.7247   24.2302 H   0  0  0  0  0  0
  -17.5006  -31.6259   24.5167 H   0  0  0  0  0  0
  -15.5345  -30.2991   23.7624 H   0  0  0  0  0  0
  -15.8667  -28.0823   22.7044 H   0  0  0  0  0  0
  -24.5929  -30.7044   25.7829 H   0  0  0  0  0  0
  -24.8976  -32.2816   26.5011 H   0  0  0  0  0  0
  -25.8149  -30.8798   27.0204 H   0  0  0  0  0  0
  -26.2793  -29.6819   24.1172 H   0  0  0  0  0  0
  -27.4146  -29.7292   25.4476 H   0  0  0  0  0  0
  -27.8599  -30.4395   23.9126 H   0  0  0  0  0  0
  -27.2710  -33.3597   26.2101 H   0  0  0  0  0  0
  -28.3847  -32.6901   25.0273 H   0  0  0  0  0  0
  -28.0782  -31.8407   26.5338 H   0  0  0  0  0  0
  -28.2610  -38.0095   24.7516 H   0  0  0  0  0  0
  -28.1067  -36.2629   24.6292 H   0  0  0  0  0  0
  -27.2304  -37.1457   25.8876 H   0  0  0  0  0  0
  -20.9285  -29.8791   21.6986 H   0  0  0  0  0  0
  -26.0186  -38.2879   24.1420 H   0  0  0  0  0  0
  -32.2215  -17.3301   20.4403 H   0  0  0  0  0  0
  -27.9859  -16.9816   21.2909 H   0  0  0  0  0  0
  -29.2094  -16.0835   23.5273 H   0  0  0  0  0  0
  -29.4656  -14.3751   23.3813 H   0  0  0  0  0  0
  -28.3079  -15.2060   22.3355 H   0  0  0  0  0  0
  -28.5983  -20.4282   18.3894 H   0  0  0  0  0  0
  -30.2930  -20.8114   18.4386 H   0  0  0  0  0  0
  -29.9587  -21.8903   20.7125 H   0  0  0  0  0  0
  -28.2473  -21.5645   20.5888 H   0  0  0  0  0  0
  -28.1617  -22.9500   18.4625 H   0  0  0  0  0  0
  -29.8607  -23.2919   18.6443 H   0  0  0  0  0  0
  -29.2988  -24.4134   20.8892 H   0  0  0  0  0  0
  -27.6065  -24.2115   20.5019 H   0  0  0  0  0  0
  -27.9903  -25.5994   18.3709 H   0  0  0  0  0  0
  -29.6491  -25.7369   18.8148 H   0  0  0  0  0  0
  1 25  1  0  0  0
  1 30  2  0  0  0
  1 81  1  0  0  0
  2  3  1  0  0  0
  2 25  1  0  0  0
  2 88  1  0  0  0
  2 89  1  0  0  0
  3  4  1  0  0  0
  3 90  1  0  0  0
  3 91  1  0  0  0
  4  5  1  0  0  0
  4 92  1  0  0  0
  4 93  1  0  0  0
  5  6  1  0  0  0
  5 26  1  0  0  0
  5 94  1  0  0  0
  6 25  1  0  0  0
  6 95  1  0  0  0
  6 96  1  0  0  0
  7  8  2  0  0  0
  7 26  1  0  0  0
  7 29  1  0  0  0
  8  9  1  0  0  0
  8 22  1  0  0  0
  9 10  1  0  0  0
  9 27  2  0  0  0
 10 11  2  0  0  0
 10 15  1  0  0  0
 11 12  1  0  0  0
 11 97  1  0  0  0
 12 13  2  0  0  0
 12 98  1  0  0  0
 13 14  1  0  0  0
 13 31  1  0  0  0
 14 15  2  0  0  0
 14 99  1  0  0  0
 15100  1  0  0  0
 16 17  2  0  0  0
 16 21  1  0  0  0
 16 31  1  0  0  0
 17 18  1  0  0  0
 17101  1  0  0  0
 18 19  2  0  0  0
 18102  1  0  0  0
 19 20  1  0  0  0
 19 24  1  0  0  0
 20 21  2  0  0  0
 20103  1  0  0  0
 21 23  1  0  0  0
 22 28  1  0  0  0
 22 32  2  0  0  0
 26 27  1  0  0  0
 28104  1  0  0  0
 28105  1  0  0  0
 29106  1  0  0  0
 29107  1  0  0  0
 33 34  1  0  0  0
 33 66  1  0  0  0
 33 70  2  0  0  0
 34 36  1  0  0  0
 34 59  1  0  0  0
 34108  1  0  0  0
 35 44  2  0  0  0
 35 45  1  0  0  0
 35 68  1  0  0  0
 36 56  1  0  0  0
 36109  1  0  0  0
 37 39  1  0  0  0
 37 47  1  0  0  0
 37 66  1  0  0  0
 37110  1  0  0  0
 38 43  2  0  0  0
 38 46  1  0  0  0
 38 47  1  0  0  0
 39 64  1  0  0  0
 39 67  2  0  0  0
 40 52  1  0  0  0
 40 53  2  0  0  0
 40 58  1  0  0  0
 41111  1  0  0  0
 41112  1  0  0  0
 41113  1  0  0  0
 41 48  1  0  0  0
 42 43  1  0  0  0
 42 66  1  0  0  0
 42114  1  0  0  0
 42115  1  0  0  0
 43 44  1  0  0  0
 44116  1  0  0  0
 45 46  2  0  0  0
 45117  1  0  0  0
 46118  1  0  0  0
 47119  1  0  0  0
 47120  1  0  0  0
 48 56  1  0  0  0
 48 65  1  0  0  0
 48121  1  0  0  0
 49 50  1  0  0  0
 49 53  1  0  0  0
 49 64  1  0  0  0
 49122  1  0  0  0
 50 51  1  0  0  0
 50123  1  0  0  0
 50124  1  0  0  0
 51 52  1  0  0  0
 51125  1  0  0  0
 51126  1  0  0  0
 52127  1  0  0  0
 52128  1  0  0  0
 53 54  1  0  0  0
 54 55  2  0  0  0
 54129  1  0  0  0
 55 57  1  0  0  0
 55130  1  0  0  0
 56 69  2  0  0  0
 57 58  2  0  0  0
 57131  1  0  0  0
 58132  1  0  0  0
 59 60  1  0  0  0
 59 61  1  0  0  0
 59 62  1  0  0  0
 60133  1  0  0  0
 60134  1  0  0  0
 60135  1  0  0  0
 61136  1  0  0  0
 61137  1  0  0  0
 61138  1  0  0  0
 62139  1  0  0  0
 62140  1  0  0  0
 62141  1  0  0  0
 63 65  1  0  0  0
 63142  1  0  0  0
 63143  1  0  0  0
 63144  1  0  0  0
 64145  1  0  0  0
 65146  1  0  0  0
 68 80  1  0  0  0
 71 73  2  0  0  0
 71 83  1  0  0  0
 71147  1  0  0  0
 72 73  1  0  0  0
 72 84  2  0  0  0
 72148  1  0  0  0
 73 81  1  0  0  0
 74 76  1  0  0  0
 74 83  2  0  0  0
 74 84  1  0  0  0
 75149  1  0  0  0
 75150  1  0  0  0
 75151  1  0  0  0
 75 81  1  0  0  0
 76 77  1  0  0  0
 76152  1  0  0  0
 76153  1  0  0  0
 77 78  1  0  0  0
 77154  1  0  0  0
 77155  1  0  0  0
 78 79  1  0  0  0
 78156  1  0  0  0
 78157  1  0  0  0
 79 80  1  0  0  0
 79158  1  0  0  0
 79159  1  0  0  0
 80160  1  0  0  0
 80161  1  0  0  0
 81 82  1  0  0  0
 82 85  1  0  0  0
 82 86  1  0  0  0
 82 87  1  0  0  0
M  ISO  4   1 100  68 101  80 101  81 100
M  END
> <chiral flag>
0

> <version>
0

> <s_m_source_file>
/data/baiqing/PycharmProjects/Reinvent-master-3.2/result/LINK_invent/BTK/process_docking_weight1_custom_sum_contain_oxygen_bond_distance_aromatic_linkinvent_7_9_3/rearranged_h_0070.sdf

> <i_m_source_file_index>
58

> <r_mmod_Potential_Energy-OPLS-2005>
-433.404418945312

> <r_mmod_Stretch_Energy-OPLS-2005>
46.3943405151367

> <r_mmod_Bend_Energy-OPLS-2005>
143.408401489258

> <r_mmod_Torsional_Energy-OPLS-2005>
151.95085144043

> <r_mmod_Improper_Torsional_Energy-OPLS-2005>
1.96077477931976

> <r_mmod_Van_der_Waal_Energy-OPLS-2005>
188.01416015625

> <r_mmod_Electrostatic_Energy-OPLS-2005>
-782.813720703125

> <r_mmod_Solvation_Energy-OPLS-2005>
-194.086395263672

> <b_mmod_Minimization_Converged-OPLS-2005>
0

> <r_mmod_RMS_Derivative-OPLS-2005>
1.63345444202423

$$$$
58
                    3D
 Structure written by MMmdl.
171179  0  0  1  0            999 V2000
  -30.6161  -14.7669   20.5199 C   0  0  0  0  0  0
  -30.4485  -12.4917   19.4566 C   0  0  0  0  0  0
  -29.5116  -12.5504   18.2283 C   0  0  0  0  0  0
  -28.0309  -12.3826   18.6284 C   0  0  0  0  0  0
  -27.6532  -13.2299   19.8708 C   0  0  2  0  0  0
  -28.7077  -13.0551   20.9796 C   0  0  0  0  0  0
  -25.2547  -13.8201   20.5675 C   0  0  0  0  0  0
  -24.1818  -13.0441   20.9186 C   0  0  0  0  0  0
  -24.6410  -11.6938   20.8748 C   0  0  0  0  0  0
  -23.9063  -10.4328   21.0437 C   0  0  0  0  0  0
  -24.3620   -9.4215   21.9184 C   0  0  0  0  0  0
  -23.6304   -8.2239   22.0726 C   0  0  0  0  0  0
  -22.4273   -8.0294   21.3535 C   0  0  0  0  0  0
  -21.9940   -9.0267   20.4619 C   0  0  0  0  0  0
  -22.7256  -10.2162   20.3051 C   0  0  0  0  0  0
  -21.6835   -6.0754   22.5296 C   0  0  0  0  0  0
  -21.3995   -6.5651   23.8232 C   0  0  0  0  0  0
  -21.3662   -5.6807   24.9197 C   0  0  0  0  0  0
  -21.6042   -4.3065   24.7244 C   0  0  0  0  0  0
  -21.8821   -3.8159   23.4366 C   0  0  0  0  0  0
  -21.9198   -4.6984   22.3422 C   0  0  0  0  0  0
  -22.7836  -13.5216   21.1885 C   0  0  0  0  0  0
  -22.1665   -4.2168   21.0997 F   0  0  0  0  0  0
  -21.5638   -3.4543   25.7746 F   0  0  0  0  0  0
  -29.9918  -13.5226   20.4328 N   0  0  0  0  0  0
  -26.2987  -12.9402   20.3387 N   0  0  0  0  0  0
  -25.9334  -11.6539   20.5778 N   0  0  0  0  0  0
  -22.0526  -12.8125   22.0455 N   0  0  0  0  0  0
  -25.4258  -15.1915   20.4003 N   0  0  0  0  0  0
  -31.7370  -14.8381   20.0008 O   0  0  0  0  0  0
  -21.6613   -6.8903   21.4255 O   0  0  0  0  0  0
  -22.3481  -14.5539   20.6818 O   0  0  0  0  0  0
  -24.6328  -31.8522   23.1970 C   0  0  0  0  0  0
  -25.9129  -32.4744   23.8329 C   0  0  1  0  0  0
  -27.2168  -27.2565   20.1247 C   0  0  0  0  0  0
  -25.5920  -33.8560   24.2248 N   0  0  0  0  0  0
  -23.4299  -30.4723   21.5416 C   0  0  2  0  0  0
  -24.8731  -28.9095   20.1171 C   0  0  0  0  0  0
  -22.7502  -29.4594   22.4936 C   0  0  0  0  0  0
  -18.0282  -28.1387   22.8472 C   0  0  0  0  0  0
  -24.1494  -36.7283   23.2644 C   0  0  0  0  0  0
  -25.9760  -30.7633   21.3746 C   0  0  0  0  0  0
  -26.0473  -29.3844   20.7149 C   0  0  0  0  0  0
  -27.2283  -28.5751   20.6936 C   0  0  0  0  0  0
  -26.0154  -26.8301   19.5283 C   0  0  0  0  0  0
  -24.8613  -27.6415   19.5113 C   0  0  0  0  0  0
  -23.6460  -29.8011   20.1596 C   0  0  0  0  0  0
  -25.4125  -36.3074   24.0325 C   0  0  1  0  0  0
  -20.5886  -28.3706   23.1264 C   0  0  2  0  0  0
  -20.6784  -26.9429   22.5410 C   0  0  0  0  0  0
  -19.5765  -26.6379   21.5208 C   0  0  0  0  0  0
  -18.1931  -26.7932   22.1601 C   0  0  0  0  0  0
  -19.1538  -28.8865   23.2849 C   0  0  0  0  0  0
  -18.9457  -30.1453   23.8885 C   0  0  0  0  0  0
  -17.6451  -30.6584   24.0559 C   0  0  0  0  0  0
  -25.9062  -34.9435   23.5088 C   0  0  0  0  0  0
  -16.5342  -29.9087   23.6334 C   0  0  0  0  0  0
  -16.7270  -28.6496   23.0366 C   0  0  0  0  0  0
  -26.4490  -31.6591   25.0734 C   0  0  0  0  0  0
  -25.3729  -31.3705   26.1459 C   0  0  0  0  0  0
  -27.0346  -30.3011   24.6237 C   0  0  0  0  0  0
  -27.6018  -32.4377   25.7504 C   0  0  0  0  0  0
  -27.5584  -37.1800   24.8461 C   0  0  0  0  0  0
  -21.4211  -29.3025   22.3651 N   0  0  0  0  0  0
  -26.4300  -37.3770   23.9397 N   0  0  0  0  0  0
  -24.6985  -31.0491   22.0939 N   0  0  0  0  0  0
  -23.4183  -28.8140   23.3057 O   0  0  0  0  0  0
  -28.3353  -26.4023   20.0729 O   0  0  0  0  0  0
  -26.5642  -34.8905   22.4669 O   0  0  0  0  0  0
  -23.5468  -32.1350   23.7245 O   0  0  0  0  0  0
  -29.6691  -17.3811   20.3379 C   0  0  0  0  0  0
  -28.9359  -19.3546   19.6187 C   0  0  0  0  0  0
  -31.7173  -20.5266   23.2418 C   0  0  0  0  0  0
  -28.9519  -15.9018   22.2489 C   0  0  0  0  0  0
  -31.3422  -16.5403   22.1172 C   0  0  0  0  0  0
  -28.1329  -21.1260   17.9734 C   0  0  0  0  0  0
  -26.7786  -20.5815   19.9939 C   0  0  0  0  0  0
  -31.1796  -20.0335   21.8970 C   0  0  0  0  0  0
  -28.1605  -23.6509   19.6969 C   0  0  0  0  0  0
  -28.7664  -22.1912   20.1597 C   0  0  0  0  0  0
  -29.7829  -19.3895   21.9740 C   0  0  0  0  0  0
  -28.3058  -24.9935   20.5983 C   0  0  0  0  0  0
  -30.1076  -16.1470   21.2612 C   0  0  0  0  0  0
  -28.2186  -20.7983   19.4879 C   0  0  0  0  0  0
  -29.2899  -17.2225   19.0672 N   0  0  0  0  0  0
  -28.8223  -18.4511   18.6241 N   0  0  0  0  0  0
  -29.4825  -18.7225   20.7173 N   0  0  0  0  0  0
  -31.4790  -12.6338   19.1314 H   0  0  0  0  0  0
  -30.4431  -11.5019   19.9087 H   0  0  0  0  0  0
  -29.7935  -11.7942   17.4951 H   0  0  0  0  0  0
  -29.6350  -13.5153   17.7384 H   0  0  0  0  0  0
  -27.8610  -11.3265   18.8363 H   0  0  0  0  0  0
  -27.3820  -12.6437   17.7896 H   0  0  0  0  0  0
  -27.6748  -14.2732   19.5532 H   0  0  0  0  0  0
  -28.7821  -11.9990   21.2422 H   0  0  0  0  0  0
  -28.4124  -13.5065   21.9156 H   0  0  0  0  0  0
  -25.2796   -9.5653   22.4721 H   0  0  0  0  0  0
  -24.0031   -7.4612   22.7404 H   0  0  0  0  0  0
  -21.0888   -8.8775   19.8901 H   0  0  0  0  0  0
  -22.3745  -10.9677   19.6112 H   0  0  0  0  0  0
  -21.1951   -7.6153   23.9726 H   0  0  0  0  0  0
  -21.1477   -6.0537   25.9098 H   0  0  0  0  0  0
  -22.0593   -2.7616   23.2856 H   0  0  0  0  0  0
  -22.4193  -11.9784   22.4789 H   0  0  0  0  0  0
  -21.1112  -13.1010   22.2714 H   0  0  0  0  0  0
  -24.6630  -15.8550   20.4727 H   0  0  0  0  0  0
  -26.2787  -15.6141   20.0555 H   0  0  0  0  0  0
  -26.7199  -32.5369   23.1066 H   0  0  0  0  0  0
  -25.0078  -33.9705   25.0400 H   0  0  0  0  0  0
  -22.7263  -31.2946   21.3959 H   0  0  0  0  0  0
  -23.3771  -35.9599   23.3307 H   0  0  0  0  0  0
  -24.3574  -36.8924   22.2059 H   0  0  0  0  0  0
  -23.7225  -37.6467   23.6694 H   0  0  0  0  0  0
  -26.1234  -31.5257   20.6084 H   0  0  0  0  0  0
  -26.8492  -30.8046   22.0159 H   0  0  0  0  0  0
  -28.1407  -28.9456   21.1387 H   0  0  0  0  0  0
  -25.9736  -25.8512   19.0720 H   0  0  0  0  0  0
  -23.9641  -27.2743   19.0331 H   0  0  0  0  0  0
  -23.7677  -30.5776   19.4027 H   0  0  0  0  0  0
  -22.7632  -29.2352   19.8592 H   0  0  0  0  0  0
  -25.1311  -36.1926   25.0820 H   0  0  0  0  0  0
  -20.9958  -28.3295   24.1392 H   0  0  0  0  0  0
  -20.5710  -26.2306   23.3596 H   0  0  0  0  0  0
  -21.6646  -26.7468   22.1191 H   0  0  0  0  0  0
  -19.6942  -25.6284   21.1251 H   0  0  0  0  0  0
  -19.6723  -27.3174   20.6722 H   0  0  0  0  0  0
  -17.4210  -26.6672   21.3994 H   0  0  0  0  0  0
  -18.0332  -26.0068   22.8998 H   0  0  0  0  0  0
  -19.7934  -30.7263   24.2273 H   0  0  0  0  0  0
  -17.5012  -31.6277   24.5151 H   0  0  0  0  0  0
  -15.5344  -30.2987   23.7670 H   0  0  0  0  0  0
  -15.8662  -28.0804   22.7124 H   0  0  0  0  0  0
  -24.5918  -30.7034   25.7787 H   0  0  0  0  0  0
  -24.8894  -32.2849   26.4916 H   0  0  0  0  0  0
  -25.8061  -30.8871   27.0227 H   0  0  0  0  0  0
  -26.2924  -29.6752   24.1265 H   0  0  0  0  0  0
  -27.4017  -29.7278   25.4758 H   0  0  0  0  0  0
  -27.8817  -30.4286   23.9491 H   0  0  0  0  0  0
  -27.2602  -33.3704   26.2021 H   0  0  0  0  0  0
  -28.3839  -32.6918   25.0336 H   0  0  0  0  0  0
  -28.0690  -31.8568   26.5471 H   0  0  0  0  0  0
  -28.2583  -38.0116   24.7535 H   0  0  0  0  0  0
  -28.1098  -36.2642   24.6276 H   0  0  0  0  0  0
  -27.2293  -37.1435   25.8860 H   0  0  0  0  0  0
  -20.9420  -29.8690   21.6795 H   0  0  0  0  0  0
  -26.0184  -38.2843   24.1409 H   0  0  0  0  0  0
  -32.7459  -20.8757   23.1315 H   0  0  0  0  0  0
  -31.7187  -19.7275   23.9837 H   0  0  0  0  0  0
  -31.1220  -21.3556   23.6270 H   0  0  0  0  0  0
  -28.0347  -15.6296   21.7271 H   0  0  0  0  0  0
  -28.6976  -16.7876   22.8287 H   0  0  0  0  0  0
  -29.2177  -15.1364   22.9767 H   0  0  0  0  0  0
  -31.1168  -17.2040   22.9486 H   0  0  0  0  0  0
  -32.1013  -17.0152   21.4966 H   0  0  0  0  0  0
  -31.8107  -15.6712   22.5805 H   0  0  0  0  0  0
  -27.6748  -20.3283   17.3883 H   0  0  0  0  0  0
  -29.1241  -21.3043   17.5604 H   0  0  0  0  0  0
  -27.5224  -22.0039   17.7728 H   0  0  0  0  0  0
  -26.2887  -19.7842   19.4319 H   0  0  0  0  0  0
  -26.1573  -21.4704   19.9014 H   0  0  0  0  0  0
  -26.7696  -20.2831   21.0435 H   0  0  0  0  0  0
  -31.8888  -19.3192   21.4795 H   0  0  0  0  0  0
  -31.1673  -20.8640   21.1916 H   0  0  0  0  0  0
  -27.0918  -23.5324   19.5091 H   0  0  0  0  0  0
  -28.5939  -23.8744   18.7211 H   0  0  0  0  0  0
  -28.6825  -22.1233   21.2444 H   0  0  0  0  0  0
  -29.8371  -22.2410   19.9684 H   0  0  0  0  0  0
  -29.0122  -20.1328   22.1746 H   0  0  0  0  0  0
  -29.7072  -18.6963   22.8029 H   0  0  0  0  0  0
  -29.2685  -24.9009   21.1001 H   0  0  0  0  0  0
  -27.5766  -24.9505   21.4083 H   0  0  0  0  0  0
  1 25  1  0  0  0
  1 30  2  0  0  0
  1 83  1  0  0  0
  2  3  1  0  0  0
  2 25  1  0  0  0
  2 88  1  0  0  0
  2 89  1  0  0  0
  3  4  1  0  0  0
  3 90  1  0  0  0
  3 91  1  0  0  0
  4  5  1  0  0  0
  4 92  1  0  0  0
  4 93  1  0  0  0
  5  6  1  0  0  0
  5 26  1  0  0  0
  5 94  1  0  0  0
  6 25  1  0  0  0
  6 95  1  0  0  0
  6 96  1  0  0  0
  7  8  2  0  0  0
  7 26  1  0  0  0
  7 29  1  0  0  0
  8  9  1  0  0  0
  8 22  1  0  0  0
  9 10  1  0  0  0
  9 27  2  0  0  0
 10 11  2  0  0  0
 10 15  1  0  0  0
 11 12  1  0  0  0
 11 97  1  0  0  0
 12 13  2  0  0  0
 12 98  1  0  0  0
 13 14  1  0  0  0
 13 31  1  0  0  0
 14 15  2  0  0  0
 14 99  1  0  0  0
 15100  1  0  0  0
 16 17  2  0  0  0
 16 21  1  0  0  0
 16 31  1  0  0  0
 17 18  1  0  0  0
 17101  1  0  0  0
 18 19  2  0  0  0
 18102  1  0  0  0
 19 20  1  0  0  0
 19 24  1  0  0  0
 20 21  2  0  0  0
 20103  1  0  0  0
 21 23  1  0  0  0
 22 28  1  0  0  0
 22 32  2  0  0  0
 26 27  1  0  0  0
 28104  1  0  0  0
 28105  1  0  0  0
 29106  1  0  0  0
 29107  1  0  0  0
 33 34  1  0  0  0
 33 66  1  0  0  0
 33 70  2  0  0  0
 34 36  1  0  0  0
 34 59  1  0  0  0
 34108  1  0  0  0
 35 44  2  0  0  0
 35 45  1  0  0  0
 35 68  1  0  0  0
 36 56  1  0  0  0
 36109  1  0  0  0
 37 39  1  0  0  0
 37 47  1  0  0  0
 37 66  1  0  0  0
 37110  1  0  0  0
 38 43  2  0  0  0
 38 46  1  0  0  0
 38 47  1  0  0  0
 39 64  1  0  0  0
 39 67  2  0  0  0
 40 52  1  0  0  0
 40 53  2  0  0  0
 40 58  1  0  0  0
 41111  1  0  0  0
 41112  1  0  0  0
 41113  1  0  0  0
 41 48  1  0  0  0
 42 43  1  0  0  0
 42 66  1  0  0  0
 42114  1  0  0  0
 42115  1  0  0  0
 43 44  1  0  0  0
 44116  1  0  0  0
 45 46  2  0  0  0
 45117  1  0  0  0
 46118  1  0  0  0
 47119  1  0  0  0
 47120  1  0  0  0
 48 56  1  0  0  0
 48 65  1  0  0  0
 48121  1  0  0  0
 49 50  1  0  0  0
 49 53  1  0  0  0
 49 64  1  0  0  0
 49122  1  0  0  0
 50 51  1  0  0  0
 50123  1  0  0  0
 50124  1  0  0  0
 51 52  1  0  0  0
 51125  1  0  0  0
 51126  1  0  0  0
 52127  1  0  0  0
 52128  1  0  0  0
 53 54  1  0  0  0
 54 55  2  0  0  0
 54129  1  0  0  0
 55 57  1  0  0  0
 55130  1  0  0  0
 56 69  2  0  0  0
 57 58  2  0  0  0
 57131  1  0  0  0
 58132  1  0  0  0
 59 60  1  0  0  0
 59 61  1  0  0  0
 59 62  1  0  0  0
 60133  1  0  0  0
 60134  1  0  0  0
 60135  1  0  0  0
 61136  1  0  0  0
 61137  1  0  0  0
 61138  1  0  0  0
 62139  1  0  0  0
 62140  1  0  0  0
 62141  1  0  0  0
 63 65  1  0  0  0
 63142  1  0  0  0
 63143  1  0  0  0
 63144  1  0  0  0
 64145  1  0  0  0
 65146  1  0  0  0
 68 82  1  0  0  0
 71 83  1  0  0  0
 71 85  2  0  0  0
 71 87  1  0  0  0
 72 84  1  0  0  0
 72 86  2  0  0  0
 72 87  1  0  0  0
 73 78  1  0  0  0
 73147  1  0  0  0
 73148  1  0  0  0
 73149  1  0  0  0
 74150  1  0  0  0
 74151  1  0  0  0
 74152  1  0  0  0
 74 83  1  0  0  0
 75 83  1  0  0  0
 75153  1  0  0  0
 75154  1  0  0  0
 75155  1  0  0  0
 76156  1  0  0  0
 76157  1  0  0  0
 76158  1  0  0  0
 76 84  1  0  0  0
 77 84  1  0  0  0
 77159  1  0  0  0
 77160  1  0  0  0
 77161  1  0  0  0
 78 81  1  0  0  0
 78162  1  0  0  0
 78163  1  0  0  0
 79 80  1  0  0  0
 79 82  1  0  0  0
 79164  1  0  0  0
 79165  1  0  0  0
 80 84  1  0  0  0
 80166  1  0  0  0
 80167  1  0  0  0
 81 87  1  0  0  0
 81168  1  0  0  0
 81169  1  0  0  0
 82170  1  0  0  0
 82171  1  0  0  0
 85 86  1  0  0  0
M  ISO  4   1 100  68 101  82 101  83 100
M  END
> <chiral flag>
0

> <version>
0

> <s_m_source_file>
/data/baiqing/PycharmProjects/Reinvent-master-3.2/result/LINK_invent/BTK/process_docking_weight1_custom_sum_contain_oxygen_bond_distance_aromatic_linkinvent_7_9_3/rearranged_h_0070.sdf

> <i_m_source_file_index>
59

> <r_mmod_Potential_Energy-OPLS-2005>
384.670471191406

> <r_mmod_Stretch_Energy-OPLS-2005>
169.023941040039

> <r_mmod_Bend_Energy-OPLS-2005>
264.339294433594

> <r_mmod_Torsional_Energy-OPLS-2005>
237.406646728516

> <r_mmod_Improper_Torsional_Energy-OPLS-2005>
4.15958499908447

> <r_mmod_Van_der_Waal_Energy-OPLS-2005>
128.274810791016

> <r_mmod_Electrostatic_Energy-OPLS-2005>
-292.483215332031

> <r_mmod_Solvation_Energy-OPLS-2005>
-204.468673706055

> <b_mmod_Minimization_Converged-OPLS-2005>
0

> <r_mmod_RMS_Derivative-OPLS-2005>
4.26261425018311

$$$$
59
                    3D
 Structure written by MMmdl.
161169  0  0  1  0            999 V2000
  -30.6666  -14.5665   20.4952 C   0  0  0  0  0  0
  -30.4440  -12.3439   19.4581 C   0  0  0  0  0  0
  -29.5198  -12.4849   18.2284 C   0  0  0  0  0  0
  -28.0349  -12.3350   18.6288 C   0  0  0  0  0  0
  -27.6465  -13.1988   19.8582 C   0  0  2  0  0  0
  -28.6928  -13.0888   20.9905 C   0  0  0  0  0  0
  -25.2586  -13.8131   20.5716 C   0  0  0  0  0  0
  -24.1832  -13.0406   20.9213 C   0  0  0  0  0  0
  -24.6378  -11.6881   20.8715 C   0  0  0  0  0  0
  -23.9036  -10.4277   21.0405 C   0  0  0  0  0  0
  -24.3601   -9.4208   21.9184 C   0  0  0  0  0  0
  -23.6270   -8.2253   22.0746 C   0  0  0  0  0  0
  -22.4242   -8.0315   21.3545 C   0  0  0  0  0  0
  -21.9889   -9.0278   20.4629 C   0  0  0  0  0  0
  -22.7228  -10.2138   20.3032 C   0  0  0  0  0  0
  -21.6858   -6.0762   22.5276 C   0  0  0  0  0  0
  -21.4027   -6.5644   23.8219 C   0  0  0  0  0  0
  -21.3622   -5.6781   24.9164 C   0  0  0  0  0  0
  -21.6014   -4.3048   24.7216 C   0  0  0  0  0  0
  -21.8826   -3.8155   23.4336 C   0  0  0  0  0  0
  -21.9199   -4.6990   22.3396 C   0  0  0  0  0  0
  -22.7861  -13.5228   21.1872 C   0  0  0  0  0  0
  -22.1691   -4.2187   21.0982 F   0  0  0  0  0  0
  -21.5580   -3.4516   25.7725 F   0  0  0  0  0  0
  -30.0240  -13.3632   20.4342 N   0  0  0  0  0  0
  -26.2963  -12.9241   20.3303 N   0  0  0  0  0  0
  -25.9285  -11.6419   20.5708 N   0  0  0  0  0  0
  -22.0507  -12.8160   22.0412 N   0  0  0  0  0  0
  -25.4273  -15.1845   20.4185 N   0  0  0  0  0  0
  -31.8646  -14.6864   20.2266 O   0  0  0  0  0  0
  -21.6611   -6.8910   21.4244 O   0  0  0  0  0  0
  -22.3570  -14.5573   20.6785 O   0  0  0  0  0  0
  -24.6038  -31.8656   23.2044 C   0  0  0  0  0  0
  -25.8929  -32.4808   23.8342 C   0  0  1  0  0  0
  -27.2412  -27.4532   20.1251 C   0  0  0  0  0  0
  -25.5768  -33.8600   24.2260 N   0  0  0  0  0  0
  -23.3971  -30.4874   21.5387 C   0  0  2  0  0  0
  -24.8551  -28.9554   20.1089 C   0  0  0  0  0  0
  -22.7369  -29.4637   22.4912 C   0  0  0  0  0  0
  -18.0253  -28.1365   22.8488 C   0  0  0  0  0  0
  -24.1500  -36.7377   23.2638 C   0  0  0  0  0  0
  -25.9166  -30.8428   21.3572 C   0  0  0  0  0  0
  -26.0019  -29.4725   20.7215 C   0  0  0  0  0  0
  -27.1981  -28.7256   20.7431 C   0  0  0  0  0  0
  -26.0894  -26.9580   19.4827 C   0  0  0  0  0  0
  -24.8905  -27.6948   19.4850 C   0  0  0  0  0  0
  -23.6134  -29.8190   20.1518 C   0  0  0  0  0  0
  -25.4085  -36.3101   24.0330 C   0  0  1  0  0  0
  -20.5834  -28.3664   23.1301 C   0  0  2  0  0  0
  -20.6714  -26.9398   22.5412 C   0  0  0  0  0  0
  -19.5714  -26.6383   21.5192 C   0  0  0  0  0  0
  -18.1895  -26.7900   22.1612 C   0  0  0  0  0  0
  -19.1498  -28.8825   23.2901 C   0  0  0  0  0  0
  -18.9436  -30.1415   23.8930 C   0  0  0  0  0  0
  -17.6440  -30.6572   24.0580 C   0  0  0  0  0  0
  -25.8989  -34.9475   23.5117 C   0  0  0  0  0  0
  -16.5332  -29.9083   23.6321 C   0  0  0  0  0  0
  -16.7240  -28.6507   23.0333 C   0  0  0  0  0  0
  -26.4378  -31.6540   25.0640 C   0  0  0  0  0  0
  -25.3648  -31.3596   26.1396 C   0  0  0  0  0  0
  -27.0171  -30.3006   24.5892 C   0  0  0  0  0  0
  -27.5950  -32.4253   25.7392 C   0  0  0  0  0  0
  -27.5605  -37.1762   24.8418 C   0  0  0  0  0  0
  -21.4094  -29.3051   22.3712 N   0  0  0  0  0  0
  -26.4263  -37.3784   23.9420 N   0  0  0  0  0  0
  -24.6568  -31.0800   22.0927 N   0  0  0  0  0  0
  -23.4150  -28.8161   23.2935 O   0  0  0  0  0  0
  -28.3595  -26.6543   20.1289 O   0  0  0  0  0  0
  -26.5655  -34.8936   22.4739 O   0  0  0  0  0  0
  -23.5241  -32.1396   23.7460 O   0  0  0  0  0  0
  -29.1571  -16.1306   19.2351 C   0  0  0  0  0  0
  -28.3370  -18.1018   20.0685 C   0  0  0  0  0  0
  -29.8170  -15.8365   20.4526 C   0  0  0  0  0  0
  -29.0586  -17.8989   21.2680 C   0  0  0  0  0  0
  -31.0379  -25.5245   22.5240 C   0  0  0  0  0  0
  -28.9885  -18.9794   22.3526 C   0  0  0  0  0  0
  -29.7175  -22.7598   21.8601 C   0  0  0  0  0  0
  -28.9908  -24.1290   21.8651 C   0  0  0  0  0  0
  -28.8480  -21.5028   22.1210 C   0  0  0  0  0  0
  -29.1296  -26.6594   21.3326 C   0  0  0  0  0  0
  -29.9086  -25.3315   21.4981 C   0  0  1  0  0  0
  -28.3870  -17.2275   19.0459 N   0  0  0  0  0  0
  -29.7925  -16.7553   21.4750 N   0  0  0  0  0  0
  -29.6319  -20.2499   21.9327 N   0  3  0  0  0  0
  -30.5016  -25.0736   20.3306 F   0  0  0  0  0  0
  -31.4865  -12.4649   19.1531 H   0  0  0  0  0  0
  -30.3762  -11.3458   19.8912 H   0  0  0  0  0  0
  -29.7865  -11.7489   17.4695 H   0  0  0  0  0  0
  -29.6824  -13.4538   17.7591 H   0  0  0  0  0  0
  -27.8446  -11.2801   18.8393 H   0  0  0  0  0  0
  -27.4012  -12.5899   17.7789 H   0  0  0  0  0  0
  -27.6213  -14.2208   19.5066 H   0  0  0  0  0  0
  -28.6739  -12.0947   21.4373 H   0  0  0  0  0  0
  -28.4657  -13.7895   21.7990 H   0  0  0  0  0  0
  -25.2781   -9.5664   22.4708 H   0  0  0  0  0  0
  -23.9988   -7.4618   22.7415 H   0  0  0  0  0  0
  -21.0851   -8.8788   19.8884 H   0  0  0  0  0  0
  -22.3751  -10.9664   19.6099 H   0  0  0  0  0  0
  -21.2052   -7.6146   23.9766 H   0  0  0  0  0  0
  -21.1415   -6.0477   25.9068 H   0  0  0  0  0  0
  -22.0638   -2.7621   23.2806 H   0  0  0  0  0  0
  -22.4129  -11.9746   22.4659 H   0  0  0  0  0  0
  -21.1129  -13.1143   22.2702 H   0  0  0  0  0  0
  -24.6530  -15.8276   20.5341 H   0  0  0  0  0  0
  -26.2613  -15.6328   20.0620 H   0  0  0  0  0  0
  -26.6992  -32.5586   23.1099 H   0  0  0  0  0  0
  -24.9687  -33.9715   25.0254 H   0  0  0  0  0  0
  -22.6878  -31.3043   21.3931 H   0  0  0  0  0  0
  -23.3724  -35.9738   23.3190 H   0  0  0  0  0  0
  -24.3632  -36.9122   22.2081 H   0  0  0  0  0  0
  -23.7299  -37.6556   23.6756 H   0  0  0  0  0  0
  -26.0104  -31.5949   20.5733 H   0  0  0  0  0  0
  -26.8088  -30.9137   21.9669 H   0  0  0  0  0  0
  -28.0729  -29.1218   21.2379 H   0  0  0  0  0  0
  -26.1249  -25.9892   19.0012 H   0  0  0  0  0  0
  -24.0162  -27.2934   18.9953 H   0  0  0  0  0  0
  -23.7259  -30.5947   19.3896 H   0  0  0  0  0  0
  -22.7397  -29.2370   19.8534 H   0  0  0  0  0  0
  -25.1245  -36.1914   25.0810 H   0  0  0  0  0  0
  -20.9934  -28.3248   24.1424 H   0  0  0  0  0  0
  -20.5562  -26.2281   23.3589 H   0  0  0  0  0  0
  -21.6596  -26.7404   22.1261 H   0  0  0  0  0  0
  -19.6891  -25.6298   21.1211 H   0  0  0  0  0  0
  -19.6658  -27.3201   20.6725 H   0  0  0  0  0  0
  -17.4139  -26.6613   21.4044 H   0  0  0  0  0  0
  -18.0349  -26.0048   22.9031 H   0  0  0  0  0  0
  -19.7929  -30.7194   24.2366 H   0  0  0  0  0  0
  -17.5013  -31.6264   24.5164 H   0  0  0  0  0  0
  -15.5327  -30.2990   23.7658 H   0  0  0  0  0  0
  -15.8631  -28.0844   22.7015 H   0  0  0  0  0  0
  -24.5858  -30.6899   25.7731 H   0  0  0  0  0  0
  -24.8771  -32.2708   26.4869 H   0  0  0  0  0  0
  -25.8005  -30.8771   27.0144 H   0  0  0  0  0  0
  -26.2641  -29.6776   24.1050 H   0  0  0  0  0  0
  -27.4103  -29.7211   25.4232 H   0  0  0  0  0  0
  -27.8395  -30.4355   23.8866 H   0  0  0  0  0  0
  -27.2581  -33.3573   26.1942 H   0  0  0  0  0  0
  -28.3751  -32.6764   25.0195 H   0  0  0  0  0  0
  -28.0588  -31.8366   26.5303 H   0  0  0  0  0  0
  -28.2456  -38.0239   24.7671 H   0  0  0  0  0  0
  -28.1268  -36.2752   24.5935 H   0  0  0  0  0  0
  -27.2364  -37.1062   25.8833 H   0  0  0  0  0  0
  -20.9194  -29.8914   21.7098 H   0  0  0  0  0  0
  -26.0141  -38.2833   24.1501 H   0  0  0  0  0  0
  -29.2272  -15.4604   18.3954 H   0  0  0  0  0  0
  -27.7371  -18.9891   19.9207 H   0  0  0  0  0  0
  -30.6468  -25.6346   23.5334 H   0  0  0  0  0  0
  -31.6242  -26.4176   22.3046 H   0  0  0  0  0  0
  -31.7402  -24.6904   22.5286 H   0  0  0  0  0  0
  -29.4566  -18.6288   23.2719 H   0  0  0  0  0  0
  -27.9398  -19.1640   22.5868 H   0  0  0  0  0  0
  -30.4978  -22.7853   22.6185 H   0  0  0  0  0  0
  -30.2276  -22.6462   20.9038 H   0  0  0  0  0  0
  -28.5628  -24.2985   22.8543 H   0  0  0  0  0  0
  -28.1462  -24.1030   21.1752 H   0  0  0  0  0  0
  -27.9942  -21.4905   21.4410 H   0  0  0  0  0  0
  -28.4406  -21.5495   23.1323 H   0  0  0  0  0  0
  -29.8203  -27.5044   21.2912 H   0  0  0  0  0  0
  -28.4962  -26.8099   22.2108 H   0  0  0  0  0  0
  -29.8613  -20.1665   20.9561 H   0  0  0  0  0  0
  -30.5047  -20.3180   22.4299 H   0  0  0  0  0  0
  1 25  1  0  0  0
  1 30  2  0  0  0
  1 73  1  0  0  0
  2  3  1  0  0  0
  2 25  1  0  0  0
  2 86  1  0  0  0
  2 87  1  0  0  0
  3  4  1  0  0  0
  3 88  1  0  0  0
  3 89  1  0  0  0
  4  5  1  0  0  0
  4 90  1  0  0  0
  4 91  1  0  0  0
  5  6  1  0  0  0
  5 26  1  0  0  0
  5 92  1  0  0  0
  6 25  1  0  0  0
  6 93  1  0  0  0
  6 94  1  0  0  0
  7  8  2  0  0  0
  7 26  1  0  0  0
  7 29  1  0  0  0
  8  9  1  0  0  0
  8 22  1  0  0  0
  9 10  1  0  0  0
  9 27  2  0  0  0
 10 11  2  0  0  0
 10 15  1  0  0  0
 11 12  1  0  0  0
 11 95  1  0  0  0
 12 13  2  0  0  0
 12 96  1  0  0  0
 13 14  1  0  0  0
 13 31  1  0  0  0
 14 15  2  0  0  0
 14 97  1  0  0  0
 15 98  1  0  0  0
 16 17  2  0  0  0
 16 21  1  0  0  0
 16 31  1  0  0  0
 17 18  1  0  0  0
 17 99  1  0  0  0
 18 19  2  0  0  0
 18100  1  0  0  0
 19 20  1  0  0  0
 19 24  1  0  0  0
 20 21  2  0  0  0
 20101  1  0  0  0
 21 23  1  0  0  0
 22 28  1  0  0  0
 22 32  2  0  0  0
 26 27  1  0  0  0
 28102  1  0  0  0
 28103  1  0  0  0
 29104  1  0  0  0
 29105  1  0  0  0
 33 34  1  0  0  0
 33 66  1  0  0  0
 33 70  2  0  0  0
 34 36  1  0  0  0
 34 59  1  0  0  0
 34106  1  0  0  0
 35 44  2  0  0  0
 35 45  1  0  0  0
 35 68  1  0  0  0
 36 56  1  0  0  0
 36107  1  0  0  0
 37 39  1  0  0  0
 37 47  1  0  0  0
 37 66  1  0  0  0
 37108  1  0  0  0
 38 43  2  0  0  0
 38 46  1  0  0  0
 38 47  1  0  0  0
 39 64  1  0  0  0
 39 67  2  0  0  0
 40 52  1  0  0  0
 40 53  2  0  0  0
 40 58  1  0  0  0
 41109  1  0  0  0
 41110  1  0  0  0
 41111  1  0  0  0
 41 48  1  0  0  0
 42 43  1  0  0  0
 42 66  1  0  0  0
 42112  1  0  0  0
 42113  1  0  0  0
 43 44  1  0  0  0
 44114  1  0  0  0
 45 46  2  0  0  0
 45115  1  0  0  0
 46116  1  0  0  0
 47117  1  0  0  0
 47118  1  0  0  0
 48 56  1  0  0  0
 48 65  1  0  0  0
 48119  1  0  0  0
 49 50  1  0  0  0
 49 53  1  0  0  0
 49 64  1  0  0  0
 49120  1  0  0  0
 50 51  1  0  0  0
 50121  1  0  0  0
 50122  1  0  0  0
 51 52  1  0  0  0
 51123  1  0  0  0
 51124  1  0  0  0
 52125  1  0  0  0
 52126  1  0  0  0
 53 54  1  0  0  0
 54 55  2  0  0  0
 54127  1  0  0  0
 55 57  1  0  0  0
 55128  1  0  0  0
 56 69  2  0  0  0
 57 58  2  0  0  0
 57129  1  0  0  0
 58130  1  0  0  0
 59 60  1  0  0  0
 59 61  1  0  0  0
 59 62  1  0  0  0
 60131  1  0  0  0
 60132  1  0  0  0
 60133  1  0  0  0
 61134  1  0  0  0
 61135  1  0  0  0
 61136  1  0  0  0
 62137  1  0  0  0
 62138  1  0  0  0
 62139  1  0  0  0
 63 65  1  0  0  0
 63140  1  0  0  0
 63141  1  0  0  0
 63142  1  0  0  0
 64143  1  0  0  0
 65144  1  0  0  0
 68 80  1  0  0  0
 71 73  2  0  0  0
 71 82  1  0  0  0
 71145  1  0  0  0
 72 74  1  0  0  0
 72 82  2  0  0  0
 72146  1  0  0  0
 73 83  1  0  0  0
 74 76  1  0  0  0
 74 83  2  0  0  0
 75147  1  0  0  0
 75148  1  0  0  0
 75149  1  0  0  0
 75 81  1  0  0  0
 76 84  1  0  0  0
 76150  1  0  0  0
 76151  1  0  0  0
 77 78  1  0  0  0
 77 79  1  0  0  0
 77152  1  0  0  0
 77153  1  0  0  0
 78 81  1  0  0  0
 78154  1  0  0  0
 78155  1  0  0  0
 79 84  1  0  0  0
 79156  1  0  0  0
 79157  1  0  0  0
 80 81  1  0  0  0
 80158  1  0  0  0
 80159  1  0  0  0
 81 85  1  0  0  0
 84160  1  0  0  0
 84161  1  0  0  0
M  CHG  1  84   1
M  ISO  4   1 100  68 101  73 100  80 101
M  END
> <chiral flag>
0

> <version>
0

> <s_m_source_file>
/data/baiqing/PycharmProjects/Reinvent-master-3.2/result/LINK_invent/BTK/process_docking_weight1_custom_sum_contain_oxygen_bond_distance_aromatic_linkinvent_7_9_3/rearranged_h_0070.sdf

> <i_m_source_file_index>
60

> <r_mmod_Potential_Energy-OPLS-2005>
-32.4490089416504

> <r_mmod_Stretch_Energy-OPLS-2005>
42.3726806640625

> <r_mmod_Bend_Energy-OPLS-2005>
97.7656936645508

> <r_mmod_Torsional_Energy-OPLS-2005>
235.603775024414

> <r_mmod_Improper_Torsional_Energy-OPLS-2005>
11.9247913360596

> <r_mmod_Van_der_Waal_Energy-OPLS-2005>
150.000015258789

> <r_mmod_Electrostatic_Energy-OPLS-2005>
-129.803253173828

> <r_mmod_Solvation_Energy-OPLS-2005>
-467.113464355469

> <b_mmod_Minimization_Converged-OPLS-2005>
0

> <r_mmod_RMS_Derivative-OPLS-2005>
5.91829204559326

$$$$
60
                    3D
 Structure written by MMmdl.
165173  0  0  1  0            999 V2000
  -30.7612  -14.4052   20.6630 C   0  0  0  0  0  0
  -30.4130  -12.3043   19.4100 C   0  0  0  0  0  0
  -29.4847  -12.5208   18.2006 C   0  0  0  0  0  0
  -28.0106  -12.3692   18.6174 C   0  0  0  0  0  0
  -27.6617  -13.2046   19.8765 C   0  0  2  0  0  0
  -28.7001  -12.9822   20.9993 C   0  0  0  0  0  0
  -25.2571  -13.8131   20.5617 C   0  0  0  0  0  0
  -24.1832  -13.0425   20.9162 C   0  0  0  0  0  0
  -24.6391  -11.6895   20.8743 C   0  0  0  0  0  0
  -23.9054  -10.4287   21.0412 C   0  0  0  0  0  0
  -24.3607   -9.4204   21.9189 C   0  0  0  0  0  0
  -23.6284   -8.2239   22.0756 C   0  0  0  0  0  0
  -22.4269   -8.0278   21.3543 C   0  0  0  0  0  0
  -21.9903   -9.0253   20.4648 C   0  0  0  0  0  0
  -22.7228  -10.2132   20.3059 C   0  0  0  0  0  0
  -21.6850   -6.0733   22.5277 C   0  0  0  0  0  0
  -21.4012   -6.5637   23.8210 C   0  0  0  0  0  0
  -21.3659   -5.6791   24.9173 C   0  0  0  0  0  0
  -21.6044   -4.3054   24.7224 C   0  0  0  0  0  0
  -21.8820   -3.8145   23.4345 C   0  0  0  0  0  0
  -21.9192   -4.6960   22.3401 C   0  0  0  0  0  0
  -22.7862  -13.5239   21.1832 C   0  0  0  0  0  0
  -22.1663   -4.2147   21.0979 F   0  0  0  0  0  0
  -21.5629   -3.4538   25.7738 F   0  0  0  0  0  0
  -30.0404  -13.2686   20.4586 N   0  0  0  0  0  0
  -26.3025  -12.9312   20.3370 N   0  0  0  0  0  0
  -25.9321  -11.6476   20.5790 N   0  0  0  0  0  0
  -22.0502  -12.8238   22.0393 N   0  0  0  0  0  0
  -25.4253  -15.1820   20.3897 N   0  0  0  0  0  0
  -31.8025  -14.6560   20.0454 O   0  0  0  0  0  0
  -21.6636   -6.8874   21.4239 O   0  0  0  0  0  0
  -22.3554  -14.5553   20.6692 O   0  0  0  0  0  0
  -24.6132  -31.8683   23.2106 C   0  0  0  0  0  0
  -25.9032  -32.4821   23.8397 C   0  0  1  0  0  0
  -27.2402  -27.4453   20.0779 C   0  0  0  0  0  0
  -25.5893  -33.8620   24.2328 N   0  0  0  0  0  0
  -23.3998  -30.4919   21.5514 C   0  0  2  0  0  0
  -24.8445  -28.9565   20.1158 C   0  0  0  0  0  0
  -22.7395  -29.4661   22.5000 C   0  0  0  0  0  0
  -18.0266  -28.1373   22.8496 C   0  0  0  0  0  0
  -24.1487  -36.7318   23.2639 C   0  0  0  0  0  0
  -25.9275  -30.8341   21.3626 C   0  0  0  0  0  0
  -26.0031  -29.4682   20.7114 C   0  0  0  0  0  0
  -27.1979  -28.7153   20.6973 C   0  0  0  0  0  0
  -26.0528  -26.9341   19.5032 C   0  0  0  0  0  0
  -24.8625  -27.6860   19.5154 C   0  0  0  0  0  0
  -23.6066  -29.8230   20.1660 C   0  0  0  0  0  0
  -25.4107  -36.3112   24.0337 C   0  0  1  0  0  0
  -20.5854  -28.3657   23.1325 C   0  0  2  0  0  0
  -20.6756  -26.9395   22.5419 C   0  0  0  0  0  0
  -19.5737  -26.6383   21.5212 C   0  0  0  0  0  0
  -18.1915  -26.7921   22.1623 C   0  0  0  0  0  0
  -19.1515  -28.8831   23.2909 C   0  0  0  0  0  0
  -18.9445  -30.1438   23.8918 C   0  0  0  0  0  0
  -17.6449  -30.6582   24.0566 C   0  0  0  0  0  0
  -25.9033  -34.9475   23.5131 C   0  0  0  0  0  0
  -16.5340  -29.9086   23.6325 C   0  0  0  0  0  0
  -16.7256  -28.6501   23.0350 C   0  0  0  0  0  0
  -26.4467  -31.6599   25.0721 C   0  0  0  0  0  0
  -25.3741  -31.3690   26.1473 C   0  0  0  0  0  0
  -27.0302  -30.3048   24.6085 C   0  0  0  0  0  0
  -27.6046  -32.4318   25.7481 C   0  0  0  0  0  0
  -27.5581  -37.1813   24.8465 C   0  0  0  0  0  0
  -21.4124  -29.3030   22.3737 N   0  0  0  0  0  0
  -26.4295  -37.3794   23.9407 N   0  0  0  0  0  0
  -24.6652  -31.0790   22.1003 N   0  0  0  0  0  0
  -23.4172  -28.8206   23.3040 O   0  0  0  0  0  0
  -28.4352  -26.7536   20.0920 O   0  0  0  0  0  0
  -26.5596  -34.8924   22.4693 O   0  0  0  0  0  0
  -23.5329  -32.1437   23.7508 O   0  0  0  0  0  0
  -26.4660  -17.9645   22.0620 C   0  0  0  0  0  0
  -27.8687  -18.1734   22.1120 C   0  0  0  0  0  0
  -25.9417  -19.1815   21.7394 C   0  0  0  0  0  0
  -24.5140  -19.5919   21.5797 C   0  0  0  0  0  0
  -31.3142  -15.4788   22.7351 C   0  0  0  0  0  0
  -28.9096  -17.1455   22.4945 C   0  0  0  0  0  0
  -27.8313  -23.6470   20.3160 C   0  0  0  0  0  0
  -28.1337  -22.1799   20.7094 C   0  0  0  0  0  0
  -29.0359  -24.3862   19.7052 C   0  0  0  0  0  0
  -26.9109  -21.5045   21.3640 C   0  0  0  0  0  0
  -29.5357  -16.3995   21.2904 C   0  0  0  0  0  0
  -28.7117  -25.7661   19.0925 C   0  0  0  0  0  0
  -28.1888  -19.4353   21.8260 N   0  0  0  0  0  0
  -27.0016  -20.0606   21.5983 N   0  0  0  0  0  0
  -30.3460  -15.2176   21.6625 N   0  0  0  0  0  0
  -31.4570  -12.3977   19.1053 H   0  0  0  0  0  0
  -30.3099  -11.2875   19.7922 H   0  0  0  0  0  0
  -29.7242  -11.8088   17.4097 H   0  0  0  0  0  0
  -29.6491  -13.5140   17.7793 H   0  0  0  0  0  0
  -27.8268  -11.3117   18.8115 H   0  0  0  0  0  0
  -27.3548  -12.6441   17.7905 H   0  0  0  0  0  0
  -27.7066  -14.2519   19.5803 H   0  0  0  0  0  0
  -28.6665  -11.9495   21.3492 H   0  0  0  0  0  0
  -28.4498  -13.5924   21.8680 H   0  0  0  0  0  0
  -25.2754   -9.5680   22.4762 H   0  0  0  0  0  0
  -23.9994   -7.4631   22.7475 H   0  0  0  0  0  0
  -21.0833   -8.8771   19.8954 H   0  0  0  0  0  0
  -22.3690  -10.9672   19.6168 H   0  0  0  0  0  0
  -21.2005   -7.6145   23.9712 H   0  0  0  0  0  0
  -21.1481   -6.0522   25.9075 H   0  0  0  0  0  0
  -22.0600   -2.7607   23.2844 H   0  0  0  0  0  0
  -22.4109  -11.9891   22.4772 H   0  0  0  0  0  0
  -21.1128  -13.1279   22.2608 H   0  0  0  0  0  0
  -24.6535  -15.8326   20.4797 H   0  0  0  0  0  0
  -26.2792  -15.6225   20.0736 H   0  0  0  0  0  0
  -26.7100  -32.5534   23.1159 H   0  0  0  0  0  0
  -25.0045  -33.9785   25.0474 H   0  0  0  0  0  0
  -22.6883  -31.3084   21.4127 H   0  0  0  0  0  0
  -23.3742  -35.9658   23.3312 H   0  0  0  0  0  0
  -24.3582  -36.8924   22.2052 H   0  0  0  0  0  0
  -23.7246  -37.6529   23.6648 H   0  0  0  0  0  0
  -26.0377  -31.5991   20.5927 H   0  0  0  0  0  0
  -26.8164  -30.8887   21.9792 H   0  0  0  0  0  0
  -28.0944  -29.1106   21.1546 H   0  0  0  0  0  0
  -26.0170  -25.9507   19.0597 H   0  0  0  0  0  0
  -23.9661  -27.2781   19.0685 H   0  0  0  0  0  0
  -23.7133  -30.5971   19.4053 H   0  0  0  0  0  0
  -22.7305  -29.2420   19.8720 H   0  0  0  0  0  0
  -25.1283  -36.1981   25.0831 H   0  0  0  0  0  0
  -20.9945  -28.3218   24.1446 H   0  0  0  0  0  0
  -20.5656  -26.2263   23.3603 H   0  0  0  0  0  0
  -21.6629  -26.7439   22.1215 H   0  0  0  0  0  0
  -19.6900  -25.6298   21.1230 H   0  0  0  0  0  0
  -19.6677  -27.3203   20.6751 H   0  0  0  0  0  0
  -17.4184  -26.6670   21.4024 H   0  0  0  0  0  0
  -18.0318  -26.0056   22.9014 H   0  0  0  0  0  0
  -19.7922  -30.7247   24.2299 H   0  0  0  0  0  0
  -17.5005  -31.6265   24.5163 H   0  0  0  0  0  0
  -15.5342  -30.2996   23.7637 H   0  0  0  0  0  0
  -15.8655  -28.0828   22.7056 H   0  0  0  0  0  0
  -24.5915  -30.7036   25.7810 H   0  0  0  0  0  0
  -24.8928  -32.2837   26.4945 H   0  0  0  0  0  0
  -25.8104  -30.8845   27.0217 H   0  0  0  0  0  0
  -26.2841  -29.6804   24.1155 H   0  0  0  0  0  0
  -27.4101  -29.7286   25.4533 H   0  0  0  0  0  0
  -27.8660  -30.4379   23.9212 H   0  0  0  0  0  0
  -27.2670  -33.3610   26.2085 H   0  0  0  0  0  0
  -28.3840  -32.6892   25.0297 H   0  0  0  0  0  0
  -28.0730  -31.8425   26.5374 H   0  0  0  0  0  0
  -28.2603  -38.0105   24.7510 H   0  0  0  0  0  0
  -28.1071  -36.2636   24.6295 H   0  0  0  0  0  0
  -27.2297  -37.1471   25.8868 H   0  0  0  0  0  0
  -20.9279  -29.8763   21.6973 H   0  0  0  0  0  0
  -26.0186  -38.2874   24.1402 H   0  0  0  0  0  0
  -25.9212  -17.0535   22.2659 H   0  0  0  0  0  0
  -23.8407  -18.7727   21.8323 H   0  0  0  0  0  0
  -24.3070  -19.8882   20.5514 H   0  0  0  0  0  0
  -24.2734  -20.4325   22.2306 H   0  0  0  0  0  0
  -30.8107  -15.5783   23.6968 H   0  0  0  0  0  0
  -31.8761  -16.3938   22.5416 H   0  0  0  0  0  0
  -32.0367  -14.6670   22.8458 H   0  0  0  0  0  0
  -28.4500  -16.4153   23.1618 H   0  0  0  0  0  0
  -29.6910  -17.6294   23.0815 H   0  0  0  0  0  0
  -27.4801  -24.2001   21.1884 H   0  0  0  0  0  0
  -27.0086  -23.6565   19.5999 H   0  0  0  0  0  0
  -28.9816  -22.1428   21.3946 H   0  0  0  0  0  0
  -28.4260  -21.6176   19.8216 H   0  0  0  0  0  0
  -29.4582  -23.7634   18.9154 H   0  0  0  0  0  0
  -29.8227  -24.4943   20.4526 H   0  0  0  0  0  0
  -26.0414  -21.6809   20.7298 H   0  0  0  0  0  0
  -26.6912  -21.9833   22.3190 H   0  0  0  0  0  0
  -30.1396  -17.0930   20.7023 H   0  0  0  0  0  0
  -28.7271  -16.0730   20.6356 H   0  0  0  0  0  0
  -27.9624  -25.6797   18.3076 H   0  0  0  0  0  0
  -29.6038  -26.1161   18.5723 H   0  0  0  0  0  0
  1 25  1  0  0  0
  1 30  2  0  0  0
  1 85  1  0  0  0
  2  3  1  0  0  0
  2 25  1  0  0  0
  2 86  1  0  0  0
  2 87  1  0  0  0
  3  4  1  0  0  0
  3 88  1  0  0  0
  3 89  1  0  0  0
  4  5  1  0  0  0
  4 90  1  0  0  0
  4 91  1  0  0  0
  5  6  1  0  0  0
  5 26  1  0  0  0
  5 92  1  0  0  0
  6 25  1  0  0  0
  6 93  1  0  0  0
  6 94  1  0  0  0
  7  8  2  0  0  0
  7 26  1  0  0  0
  7 29  1  0  0  0
  8  9  1  0  0  0
  8 22  1  0  0  0
  9 10  1  0  0  0
  9 27  2  0  0  0
 10 11  2  0  0  0
 10 15  1  0  0  0
 11 12  1  0  0  0
 11 95  1  0  0  0
 12 13  2  0  0  0
 12 96  1  0  0  0
 13 14  1  0  0  0
 13 31  1  0  0  0
 14 15  2  0  0  0
 14 97  1  0  0  0
 15 98  1  0  0  0
 16 17  2  0  0  0
 16 21  1  0  0  0
 16 31  1  0  0  0
 17 18  1  0  0  0
 17 99  1  0  0  0
 18 19  2  0  0  0
 18100  1  0  0  0
 19 20  1  0  0  0
 19 24  1  0  0  0
 20 21  2  0  0  0
 20101  1  0  0  0
 21 23  1  0  0  0
 22 28  1  0  0  0
 22 32  2  0  0  0
 26 27  1  0  0  0
 28102  1  0  0  0
 28103  1  0  0  0
 29104  1  0  0  0
 29105  1  0  0  0
 33 34  1  0  0  0
 33 66  1  0  0  0
 33 70  2  0  0  0
 34 36  1  0  0  0
 34 59  1  0  0  0
 34106  1  0  0  0
 35 44  2  0  0  0
 35 45  1  0  0  0
 35 68  1  0  0  0
 36 56  1  0  0  0
 36107  1  0  0  0
 37 39  1  0  0  0
 37 47  1  0  0  0
 37 66  1  0  0  0
 37108  1  0  0  0
 38 43  2  0  0  0
 38 46  1  0  0  0
 38 47  1  0  0  0
 39 64  1  0  0  0
 39 67  2  0  0  0
 40 52  1  0  0  0
 40 53  2  0  0  0
 40 58  1  0  0  0
 41109  1  0  0  0
 41110  1  0  0  0
 41111  1  0  0  0
 41 48  1  0  0  0
 42 43  1  0  0  0
 42 66  1  0  0  0
 42112  1  0  0  0
 42113  1  0  0  0
 43 44  1  0  0  0
 44114  1  0  0  0
 45 46  2  0  0  0
 45115  1  0  0  0
 46116  1  0  0  0
 47117  1  0  0  0
 47118  1  0  0  0
 48 56  1  0  0  0
 48 65  1  0  0  0
 48119  1  0  0  0
 49 50  1  0  0  0
 49 53  1  0  0  0
 49 64  1  0  0  0
 49120  1  0  0  0
 50 51  1  0  0  0
 50121  1  0  0  0
 50122  1  0  0  0
 51 52  1  0  0  0
 51123  1  0  0  0
 51124  1  0  0  0
 52125  1  0  0  0
 52126  1  0  0  0
 53 54  1  0  0  0
 54 55  2  0  0  0
 54127  1  0  0  0
 55 57  1  0  0  0
 55128  1  0  0  0
 56 69  2  0  0  0
 57 58  2  0  0  0
 57129  1  0  0  0
 58130  1  0  0  0
 59 60  1  0  0  0
 59 61  1  0  0  0
 59 62  1  0  0  0
 60131  1  0  0  0
 60132  1  0  0  0
 60133  1  0  0  0
 61134  1  0  0  0
 61135  1  0  0  0
 61136  1  0  0  0
 62137  1  0  0  0
 62138  1  0  0  0
 62139  1  0  0  0
 63 65  1  0  0  0
 63140  1  0  0  0
 63141  1  0  0  0
 63142  1  0  0  0
 64143  1  0  0  0
 65144  1  0  0  0
 68 82  1  0  0  0
 71 72  1  0  0  0
 71 73  2  0  0  0
 71145  1  0  0  0
 72 76  1  0  0  0
 72 83  2  0  0  0
 73 74  1  0  0  0
 73 84  1  0  0  0
 74146  1  0  0  0
 74147  1  0  0  0
 74148  1  0  0  0
 75 85  1  0  0  0
 75149  1  0  0  0
 75150  1  0  0  0
 75151  1  0  0  0
 76 81  1  0  0  0
 76152  1  0  0  0
 76153  1  0  0  0
 77 78  1  0  0  0
 77 79  1  0  0  0
 77154  1  0  0  0
 77155  1  0  0  0
 78 80  1  0  0  0
 78156  1  0  0  0
 78157  1  0  0  0
 79 82  1  0  0  0
 79158  1  0  0  0
 79159  1  0  0  0
 80 84  1  0  0  0
 80160  1  0  0  0
 80161  1  0  0  0
 81 85  1  0  0  0
 81162  1  0  0  0
 81163  1  0  0  0
 82164  1  0  0  0
 82165  1  0  0  0
 83 84  1  0  0  0
M  ISO  4   1 100  68 101  82 101  85 100
M  END
> <chiral flag>
0

> <version>
0

> <s_m_source_file>
/data/baiqing/PycharmProjects/Reinvent-master-3.2/result/LINK_invent/BTK/process_docking_weight1_custom_sum_contain_oxygen_bond_distance_aromatic_linkinvent_7_9_3/rearranged_h_0070.sdf

> <i_m_source_file_index>
61

> <r_mmod_Potential_Energy-OPLS-2005>
44.5840682983398

> <r_mmod_Stretch_Energy-OPLS-2005>
35.8018760681152

> <r_mmod_Bend_Energy-OPLS-2005>
107.746116638184

> <r_mmod_Torsional_Energy-OPLS-2005>
284.879760742188

> <r_mmod_Improper_Torsional_Energy-OPLS-2005>
6.26421737670898

> <r_mmod_Van_der_Waal_Energy-OPLS-2005>
124.123397827148

> <r_mmod_Electrostatic_Energy-OPLS-2005>
-324.636505126953

> <r_mmod_Solvation_Energy-OPLS-2005>
-198.420867919922

> <b_mmod_Minimization_Converged-OPLS-2005>
0

> <r_mmod_RMS_Derivative-OPLS-2005>
0.260622590780258

$$$$
61
                    3D
 Structure written by MMmdl.
173181  0  0  1  0            999 V2000
  -30.7838  -14.4378   20.6651 C   0  0  0  0  0  0
  -30.4061  -12.3189   19.4272 C   0  0  0  0  0  0
  -29.4864  -12.5101   18.2063 C   0  0  0  0  0  0
  -28.0124  -12.3469   18.6161 C   0  0  0  0  0  0
  -27.6550  -13.1991   19.8574 C   0  0  2  0  0  0
  -28.6956  -13.0122   20.9852 C   0  0  0  0  0  0
  -25.2579  -13.8145   20.5641 C   0  0  0  0  0  0
  -24.1831  -13.0423   20.9167 C   0  0  0  0  0  0
  -24.6385  -11.6895   20.8732 C   0  0  0  0  0  0
  -23.9051  -10.4288   21.0416 C   0  0  0  0  0  0
  -24.3608   -9.4204   21.9193 C   0  0  0  0  0  0
  -23.6287   -8.2238   22.0759 C   0  0  0  0  0  0
  -22.4272   -8.0277   21.3546 C   0  0  0  0  0  0
  -21.9905   -9.0246   20.4645 C   0  0  0  0  0  0
  -22.7231  -10.2126   20.3056 C   0  0  0  0  0  0
  -21.6847   -6.0736   22.5281 C   0  0  0  0  0  0
  -21.4005   -6.5637   23.8215 C   0  0  0  0  0  0
  -21.3657   -5.6790   24.9176 C   0  0  0  0  0  0
  -21.6044   -4.3054   24.7227 C   0  0  0  0  0  0
  -21.8817   -3.8146   23.4344 C   0  0  0  0  0  0
  -21.9188   -4.6964   22.3404 C   0  0  0  0  0  0
  -22.7861  -13.5229   21.1850 C   0  0  0  0  0  0
  -22.1660   -4.2152   21.0981 F   0  0  0  0  0  0
  -21.5631   -3.4539   25.7740 F   0  0  0  0  0  0
  -30.0349  -13.3105   20.4580 N   0  0  0  0  0  0
  -26.2988  -12.9292   20.3277 N   0  0  0  0  0  0
  -25.9298  -11.6466   20.5726 N   0  0  0  0  0  0
  -22.0511  -12.8218   22.0419 N   0  0  0  0  0  0
  -25.4304  -15.1853   20.4046 N   0  0  0  0  0  0
  -31.8043  -14.6110   19.9910 O   0  0  0  0  0  0
  -21.6631   -6.8876   21.4244 O   0  0  0  0  0  0
  -22.3543  -14.5540   20.6716 O   0  0  0  0  0  0
  -24.6148  -31.8673   23.2108 C   0  0  0  0  0  0
  -25.9048  -32.4806   23.8397 C   0  0  1  0  0  0
  -27.2335  -27.4376   20.0975 C   0  0  0  0  0  0
  -25.5928  -33.8610   24.2332 N   0  0  0  0  0  0
  -23.4022  -30.4892   21.5522 C   0  0  2  0  0  0
  -24.8475  -28.9548   20.1169 C   0  0  0  0  0  0
  -22.7400  -29.4657   22.5014 C   0  0  0  0  0  0
  -18.0264  -28.1379   22.8494 C   0  0  0  0  0  0
  -24.1488  -36.7292   23.2637 C   0  0  0  0  0  0
  -25.9310  -30.8315   21.3658 C   0  0  0  0  0  0
  -26.0084  -29.4681   20.7095 C   0  0  0  0  0  0
  -27.2063  -28.7192   20.6920 C   0  0  0  0  0  0
  -26.0577  -26.9370   19.4973 C   0  0  0  0  0  0
  -24.8664  -27.6871   19.5080 C   0  0  0  0  0  0
  -23.6087  -29.8201   20.1678 C   0  0  0  0  0  0
  -25.4108  -36.3092   24.0336 C   0  0  1  0  0  0
  -20.5853  -28.3669   23.1318 C   0  0  2  0  0  0
  -20.6761  -26.9410   22.5422 C   0  0  0  0  0  0
  -19.5746  -26.6383   21.5221 C   0  0  0  0  0  0
  -18.1910  -26.7937   22.1603 C   0  0  0  0  0  0
  -19.1515  -28.8844   23.2896 C   0  0  0  0  0  0
  -18.9445  -30.1452   23.8905 C   0  0  0  0  0  0
  -17.6448  -30.6593   24.0566 C   0  0  0  0  0  0
  -25.9047  -34.9461   23.5119 C   0  0  0  0  0  0
  -16.5338  -29.9088   23.6349 C   0  0  0  0  0  0
  -16.7256  -28.6501   23.0379 C   0  0  0  0  0  0
  -26.4503  -31.6590   25.0720 C   0  0  0  0  0  0
  -25.3778  -31.3636   26.1460 C   0  0  0  0  0  0
  -27.0363  -30.3045   24.6103 C   0  0  0  0  0  0
  -27.6092  -32.4325   25.7455 C   0  0  0  0  0  0
  -27.5602  -37.1762   24.8447 C   0  0  0  0  0  0
  -21.4135  -29.3023   22.3728 N   0  0  0  0  0  0
  -26.4278  -37.3795   23.9444 N   0  0  0  0  0  0
  -24.6670  -31.0771   22.1009 N   0  0  0  0  0  0
  -23.4167  -28.8216   23.3073 O   0  0  0  0  0  0
  -28.3999  -26.7042   20.0893 O   0  0  0  0  0  0
  -26.5598  -34.8911   22.4673 O   0  0  0  0  0  0
  -23.5346  -32.1449   23.7493 O   0  0  0  0  0  0
  -29.3252  -18.9309   21.7353 C   0  0  0  0  0  0
  -29.2583  -17.7987   20.8969 C   0  0  0  0  0  0
  -29.3194  -18.0898   19.5182 C   0  0  0  0  0  0
  -29.4162  -20.3603   19.9387 C   0  0  0  0  0  0
  -29.2819  -17.0205   18.4437 C   0  0  0  0  0  0
  -28.0970  -16.3502   22.6272 C   0  0  0  0  0  0
  -31.2087  -22.0543   19.4611 C   0  0  0  0  0  0
  -29.2339  -21.8895   17.9009 C   0  0  0  0  0  0
  -30.5325  -14.9022   23.1479 C   0  0  0  0  0  0
  -31.6466  -16.5680   21.7571 C   0  0  0  0  0  0
  -28.9521  -24.3397   19.6597 C   0  0  0  0  0  0
  -28.9117  -22.8772   20.1982 C   0  0  0  0  0  0
  -28.3125  -25.3686   20.6124 C   0  0  0  0  0  0
  -29.1077  -16.3531   21.4514 C   0  0  2  0  0  0
  -29.6911  -21.7882   19.3828 C   0  0  0  0  0  0
  -30.4603  -15.5536   21.7396 C   0  0  0  0  0  0
  -29.4139  -20.1900   21.2582 N   0  0  0  0  0  0
  -29.4157  -19.3540   19.0670 N   0  0  0  0  0  0
  -31.4512  -12.3857   19.1219 H   0  0  0  0  0  0
  -30.2935  -11.3112   19.8302 H   0  0  0  0  0  0
  -29.7357  -11.7850   17.4303 H   0  0  0  0  0  0
  -29.6471  -13.4970   17.7708 H   0  0  0  0  0  0
  -27.8394  -11.2914   18.8277 H   0  0  0  0  0  0
  -27.3560  -12.6012   17.7830 H   0  0  0  0  0  0
  -27.6819  -14.2322   19.5199 H   0  0  0  0  0  0
  -28.6710  -11.9888   21.3615 H   0  0  0  0  0  0
  -28.4181  -13.6350   21.8229 H   0  0  0  0  0  0
  -25.2750   -9.5680   22.4767 H   0  0  0  0  0  0
  -23.9999   -7.4628   22.7476 H   0  0  0  0  0  0
  -21.0843   -8.8754   19.8948 H   0  0  0  0  0  0
  -22.3692  -10.9662   19.6159 H   0  0  0  0  0  0
  -21.1995   -7.6143   23.9719 H   0  0  0  0  0  0
  -21.1480   -6.0520   25.9082 H   0  0  0  0  0  0
  -22.0598   -2.7608   23.2845 H   0  0  0  0  0  0
  -22.4118  -11.9857   22.4767 H   0  0  0  0  0  0
  -21.1140  -13.1256   22.2656 H   0  0  0  0  0  0
  -24.6683  -15.8427   20.5283 H   0  0  0  0  0  0
  -26.2898  -15.6294   20.1104 H   0  0  0  0  0  0
  -26.7108  -32.5513   23.1155 H   0  0  0  0  0  0
  -25.0140  -33.9784   25.0520 H   0  0  0  0  0  0
  -22.6906  -31.3048   21.4126 H   0  0  0  0  0  0
  -23.3781  -35.9586   23.3228 H   0  0  0  0  0  0
  -24.3603  -36.8995   22.2068 H   0  0  0  0  0  0
  -23.7197  -37.6444   23.6717 H   0  0  0  0  0  0
  -26.0495  -31.5999   20.6009 H   0  0  0  0  0  0
  -26.8161  -30.8783   21.9879 H   0  0  0  0  0  0
  -28.1036  -29.1127   21.1483 H   0  0  0  0  0  0
  -26.0596  -25.9680   19.0178 H   0  0  0  0  0  0
  -23.9749  -27.2842   19.0469 H   0  0  0  0  0  0
  -23.7090  -30.5932   19.4051 H   0  0  0  0  0  0
  -22.7341  -29.2342   19.8789 H   0  0  0  0  0  0
  -25.1278  -36.1934   25.0828 H   0  0  0  0  0  0
  -20.9940  -28.3242   24.1441 H   0  0  0  0  0  0
  -20.5691  -26.2283   23.3607 H   0  0  0  0  0  0
  -21.6632  -26.7466   22.1210 H   0  0  0  0  0  0
  -19.6910  -25.6297   21.1246 H   0  0  0  0  0  0
  -19.6691  -27.3191   20.6750 H   0  0  0  0  0  0
  -17.4206  -26.6741   21.3969 H   0  0  0  0  0  0
  -18.0246  -26.0055   22.8962 H   0  0  0  0  0  0
  -19.7917  -30.7268   24.2285 H   0  0  0  0  0  0
  -17.5001  -31.6283   24.5149 H   0  0  0  0  0  0
  -15.5341  -30.2995   23.7673 H   0  0  0  0  0  0
  -15.8651  -28.0816   22.7122 H   0  0  0  0  0  0
  -24.6044  -30.6881   25.7792 H   0  0  0  0  0  0
  -24.8842  -32.2730   26.4884 H   0  0  0  0  0  0
  -25.8158  -30.8859   27.0233 H   0  0  0  0  0  0
  -26.2893  -29.6723   24.1291 H   0  0  0  0  0  0
  -27.4290  -29.7368   25.4550 H   0  0  0  0  0  0
  -27.8653  -30.4373   23.9149 H   0  0  0  0  0  0
  -27.2769  -33.3667   26.1995 H   0  0  0  0  0  0
  -28.3899  -32.6824   25.0257 H   0  0  0  0  0  0
  -28.0768  -31.8472   26.5383 H   0  0  0  0  0  0
  -28.2524  -38.0159   24.7674 H   0  0  0  0  0  0
  -28.1204  -36.2706   24.6057 H   0  0  0  0  0  0
  -27.2346  -37.1149   25.8848 H   0  0  0  0  0  0
  -20.9316  -29.8718   21.6916 H   0  0  0  0  0  0
  -26.0151  -38.2837   24.1568 H   0  0  0  0  0  0
  -29.3131  -18.8398   22.8110 H   0  0  0  0  0  0
  -30.0509  -16.2707   18.6164 H   0  0  0  0  0  0
  -29.4608  -17.4440   17.4551 H   0  0  0  0  0  0
  -28.3091  -16.5302   18.4250 H   0  0  0  0  0  0
  -27.1617  -16.8326   22.3411 H   0  0  0  0  0  0
  -28.4793  -16.8732   23.5030 H   0  0  0  0  0  0
  -27.8255  -15.3501   22.9569 H   0  0  0  0  0  0
  -31.7690  -21.2847   18.9306 H   0  0  0  0  0  0
  -31.5529  -22.0489   20.4962 H   0  0  0  0  0  0
  -31.4833  -23.0154   19.0279 H   0  0  0  0  0  0
  -29.7172  -21.1417   17.2716 H   0  0  0  0  0  0
  -29.4860  -22.8503   17.4550 H   0  0  0  0  0  0
  -28.1566  -21.7490   17.8056 H   0  0  0  0  0  0
  -30.4591  -15.6487   23.9382 H   0  0  0  0  0  0
  -31.4856  -14.3918   23.2931 H   0  0  0  0  0  0
  -29.7643  -14.1594   23.3425 H   0  0  0  0  0  0
  -31.5098  -17.3375   22.5165 H   0  0  0  0  0  0
  -31.7829  -17.0710   20.7983 H   0  0  0  0  0  0
  -32.5959  -16.0789   21.9841 H   0  0  0  0  0  0
  -28.4302  -24.3994   18.7054 H   0  0  0  0  0  0
  -29.9804  -24.6438   19.4683 H   0  0  0  0  0  0
  -27.8683  -22.5691   20.2771 H   0  0  0  0  0  0
  -29.2894  -22.8794   21.2221 H   0  0  0  0  0  0
  -28.8397  -25.3570   21.5680 H   0  0  0  0  0  0
  -27.2890  -25.0661   20.8390 H   0  0  0  0  0  0
  -28.5813  -15.8169   20.6703 H   0  0  0  0  0  0
  1 25  1  0  0  0
  1 30  2  0  0  0
  1 86  1  0  0  0
  2  3  1  0  0  0
  2 25  1  0  0  0
  2 89  1  0  0  0
  2 90  1  0  0  0
  3  4  1  0  0  0
  3 91  1  0  0  0
  3 92  1  0  0  0
  4  5  1  0  0  0
  4 93  1  0  0  0
  4 94  1  0  0  0
  5  6  1  0  0  0
  5 26  1  0  0  0
  5 95  1  0  0  0
  6 25  1  0  0  0
  6 96  1  0  0  0
  6 97  1  0  0  0
  7  8  2  0  0  0
  7 26  1  0  0  0
  7 29  1  0  0  0
  8  9  1  0  0  0
  8 22  1  0  0  0
  9 10  1  0  0  0
  9 27  2  0  0  0
 10 11  2  0  0  0
 10 15  1  0  0  0
 11 12  1  0  0  0
 11 98  1  0  0  0
 12 13  2  0  0  0
 12 99  1  0  0  0
 13 14  1  0  0  0
 13 31  1  0  0  0
 14 15  2  0  0  0
 14100  1  0  0  0
 15101  1  0  0  0
 16 17  2  0  0  0
 16 21  1  0  0  0
 16 31  1  0  0  0
 17 18  1  0  0  0
 17102  1  0  0  0
 18 19  2  0  0  0
 18103  1  0  0  0
 19 20  1  0  0  0
 19 24  1  0  0  0
 20 21  2  0  0  0
 20104  1  0  0  0
 21 23  1  0  0  0
 22 28  1  0  0  0
 22 32  2  0  0  0
 26 27  1  0  0  0
 28105  1  0  0  0
 28106  1  0  0  0
 29107  1  0  0  0
 29108  1  0  0  0
 33 34  1  0  0  0
 33 66  1  0  0  0
 33 70  2  0  0  0
 34 36  1  0  0  0
 34 59  1  0  0  0
 34109  1  0  0  0
 35 44  2  0  0  0
 35 45  1  0  0  0
 35 68  1  0  0  0
 36 56  1  0  0  0
 36110  1  0  0  0
 37 39  1  0  0  0
 37 47  1  0  0  0
 37 66  1  0  0  0
 37111  1  0  0  0
 38 43  2  0  0  0
 38 46  1  0  0  0
 38 47  1  0  0  0
 39 64  1  0  0  0
 39 67  2  0  0  0
 40 52  1  0  0  0
 40 53  2  0  0  0
 40 58  1  0  0  0
 41112  1  0  0  0
 41113  1  0  0  0
 41114  1  0  0  0
 41 48  1  0  0  0
 42 43  1  0  0  0
 42 66  1  0  0  0
 42115  1  0  0  0
 42116  1  0  0  0
 43 44  1  0  0  0
 44117  1  0  0  0
 45 46  2  0  0  0
 45118  1  0  0  0
 46119  1  0  0  0
 47120  1  0  0  0
 47121  1  0  0  0
 48 56  1  0  0  0
 48 65  1  0  0  0
 48122  1  0  0  0
 49 50  1  0  0  0
 49 53  1  0  0  0
 49 64  1  0  0  0
 49123  1  0  0  0
 50 51  1  0  0  0
 50124  1  0  0  0
 50125  1  0  0  0
 51 52  1  0  0  0
 51126  1  0  0  0
 51127  1  0  0  0
 52128  1  0  0  0
 52129  1  0  0  0
 53 54  1  0  0  0
 54 55  2  0  0  0
 54130  1  0  0  0
 55 57  1  0  0  0
 55131  1  0  0  0
 56 69  2  0  0  0
 57 58  2  0  0  0
 57132  1  0  0  0
 58133  1  0  0  0
 59 60  1  0  0  0
 59 61  1  0  0  0
 59 62  1  0  0  0
 60134  1  0  0  0
 60135  1  0  0  0
 60136  1  0  0  0
 61137  1  0  0  0
 61138  1  0  0  0
 61139  1  0  0  0
 62140  1  0  0  0
 62141  1  0  0  0
 62142  1  0  0  0
 63 65  1  0  0  0
 63143  1  0  0  0
 63144  1  0  0  0
 63145  1  0  0  0
 64146  1  0  0  0
 65147  1  0  0  0
 68 83  1  0  0  0
 71 72  2  0  0  0
 71 87  1  0  0  0
 71148  1  0  0  0
 72 73  1  0  0  0
 72 84  1  0  0  0
 73 75  1  0  0  0
 73 88  2  0  0  0
 74 85  1  0  0  0
 74 87  2  0  0  0
 74 88  1  0  0  0
 75149  1  0  0  0
 75150  1  0  0  0
 75151  1  0  0  0
 76152  1  0  0  0
 76153  1  0  0  0
 76154  1  0  0  0
 76 84  1  0  0  0
 77155  1  0  0  0
 77156  1  0  0  0
 77157  1  0  0  0
 77 85  1  0  0  0
 78 85  1  0  0  0
 78158  1  0  0  0
 78159  1  0  0  0
 78160  1  0  0  0
 79161  1  0  0  0
 79162  1  0  0  0
 79163  1  0  0  0
 79 86  1  0  0  0
 80 86  1  0  0  0
 80164  1  0  0  0
 80165  1  0  0  0
 80166  1  0  0  0
 81 82  1  0  0  0
 81 83  1  0  0  0
 81167  1  0  0  0
 81168  1  0  0  0
 82 85  1  0  0  0
 82169  1  0  0  0
 82170  1  0  0  0
 83171  1  0  0  0
 83172  1  0  0  0
 84 86  1  0  0  0
 84173  1  0  0  0
M  ISO  4   1 100  68 101  83 101  86 100
M  END
> <chiral flag>
0

> <version>
0

> <s_m_source_file>
/data/baiqing/PycharmProjects/Reinvent-master-3.2/result/LINK_invent/BTK/process_docking_weight1_custom_sum_contain_oxygen_bond_distance_aromatic_linkinvent_7_9_3/rearranged_h_0070.sdf

> <i_m_source_file_index>
62

> <r_mmod_Potential_Energy-OPLS-2005>
-331.319091796875

> <r_mmod_Stretch_Energy-OPLS-2005>
54.1793174743652

> <r_mmod_Bend_Energy-OPLS-2005>
128.532974243164

> <r_mmod_Torsional_Energy-OPLS-2005>
205.458679199219

> <r_mmod_Improper_Torsional_Energy-OPLS-2005>
2.82618236541748

> <r_mmod_Van_der_Waal_Energy-OPLS-2005>
178.850082397461

> <r_mmod_Electrostatic_Energy-OPLS-2005>
-722.954284667969

> <r_mmod_Solvation_Energy-OPLS-2005>
-190.030990600586

> <b_mmod_Minimization_Converged-OPLS-2005>
0

> <r_mmod_RMS_Derivative-OPLS-2005>
1.67652678489685

$$$$
62
                    3D
 Structure written by MMmdl.
166174  0  0  1  0            999 V2000
  -30.5826  -14.7402   20.4576 C   0  0  0  0  0  0
  -30.4333  -12.4533   19.4547 C   0  0  0  0  0  0
  -29.5053  -12.5224   18.2224 C   0  0  0  0  0  0
  -28.0333  -12.3371   18.6408 C   0  0  0  0  0  0
  -27.6434  -13.2230   19.8528 C   0  0  2  0  0  0
  -28.6914  -13.1362   20.9825 C   0  0  0  0  0  0
  -25.2538  -13.8169   20.5657 C   0  0  0  0  0  0
  -24.1821  -13.0429   20.9200 C   0  0  0  0  0  0
  -24.6393  -11.6906   20.8735 C   0  0  0  0  0  0
  -23.9057  -10.4292   21.0418 C   0  0  0  0  0  0
  -24.3619   -9.4207   21.9185 C   0  0  0  0  0  0
  -23.6290   -8.2246   22.0765 C   0  0  0  0  0  0
  -22.4278   -8.0278   21.3548 C   0  0  0  0  0  0
  -21.9903   -9.0250   20.4650 C   0  0  0  0  0  0
  -22.7231  -10.2131   20.3059 C   0  0  0  0  0  0
  -21.6853   -6.0725   22.5270 C   0  0  0  0  0  0
  -21.4017   -6.5632   23.8200 C   0  0  0  0  0  0
  -21.3671   -5.6791   24.9166 C   0  0  0  0  0  0
  -21.6046   -4.3046   24.7225 C   0  0  0  0  0  0
  -21.8824   -3.8139   23.4349 C   0  0  0  0  0  0
  -21.9199   -4.6955   22.3402 C   0  0  0  0  0  0
  -22.7860  -13.5231   21.1881 C   0  0  0  0  0  0
  -22.1671   -4.2130   21.0981 F   0  0  0  0  0  0
  -21.5633   -3.4537   25.7748 F   0  0  0  0  0  0
  -29.9874  -13.5028   20.3983 N   0  0  0  0  0  0
  -26.2944  -12.9346   20.3278 N   0  0  0  0  0  0
  -25.9315  -11.6502   20.5742 N   0  0  0  0  0  0
  -22.0505  -12.8201   22.0422 N   0  0  0  0  0  0
  -25.4239  -15.1877   20.4009 N   0  0  0  0  0  0
  -31.7739  -14.8690   20.1606 O   0  0  0  0  0  0
  -21.6647   -6.8867   21.4232 O   0  0  0  0  0  0
  -22.3568  -14.5546   20.6744 O   0  0  0  0  0  0
  -24.6320  -31.8554   23.1972 C   0  0  0  0  0  0
  -25.9135  -32.4749   23.8324 C   0  0  1  0  0  0
  -27.2209  -27.2751   20.1214 C   0  0  0  0  0  0
  -25.5937  -33.8556   24.2238 N   0  0  0  0  0  0
  -23.4291  -30.4766   21.5435 C   0  0  2  0  0  0
  -24.8704  -28.9193   20.1218 C   0  0  0  0  0  0
  -22.7522  -29.4599   22.4938 C   0  0  0  0  0  0
  -18.0291  -28.1412   22.8484 C   0  0  0  0  0  0
  -24.1483  -36.7297   23.2638 C   0  0  0  0  0  0
  -25.9727  -30.7738   21.3712 C   0  0  0  0  0  0
  -26.0468  -29.3973   20.7141 C   0  0  0  0  0  0
  -27.2289  -28.5925   20.6896 C   0  0  0  0  0  0
  -26.0110  -26.8444   19.5377 C   0  0  0  0  0  0
  -24.8562  -27.6492   19.5266 C   0  0  0  0  0  0
  -23.6458  -29.8093   20.1617 C   0  0  0  0  0  0
  -25.4118  -36.3085   24.0320 C   0  0  1  0  0  0
  -20.5897  -28.3724   23.1287 C   0  0  2  0  0  0
  -20.6797  -26.9450   22.5415 C   0  0  0  0  0  0
  -19.5761  -26.6407   21.5228 C   0  0  0  0  0  0
  -18.1937  -26.7958   22.1638 C   0  0  0  0  0  0
  -19.1546  -28.8885   23.2880 C   0  0  0  0  0  0
  -18.9457  -30.1489   23.8890 C   0  0  0  0  0  0
  -17.6462  -30.6602   24.0573 C   0  0  0  0  0  0
  -25.9057  -34.9443   23.5082 C   0  0  0  0  0  0
  -16.5353  -29.9096   23.6340 C   0  0  0  0  0  0
  -16.7282  -28.6537   23.0342 C   0  0  0  0  0  0
  -26.4491  -31.6599   25.0732 C   0  0  0  0  0  0
  -25.3704  -31.3726   26.1453 C   0  0  0  0  0  0
  -27.0351  -30.3026   24.6222 C   0  0  0  0  0  0
  -27.6061  -32.4347   25.7501 C   0  0  0  0  0  0
  -27.5580  -37.1811   24.8465 C   0  0  0  0  0  0
  -21.4227  -29.3058   22.3675 N   0  0  0  0  0  0
  -26.4295  -37.3798   23.9406 N   0  0  0  0  0  0
  -24.6977  -31.0532   22.0937 N   0  0  0  0  0  0
  -23.4209  -28.8148   23.3053 O   0  0  0  0  0  0
  -28.3436  -26.4253   20.0934 O   0  0  0  0  0  0
  -26.5630  -34.8913   22.4647 O   0  0  0  0  0  0
  -23.5474  -32.1400   23.7244 O   0  0  0  0  0  0
  -29.6458  -21.9661   21.0073 C   0  0  0  0  0  0
  -28.9036  -22.3223   19.9018 C   0  0  0  0  0  0
  -29.1577  -19.9763   20.0475 C   0  0  0  0  0  0
  -28.4667  -20.7256   16.8543 C   0  0  0  0  0  0
  -29.0698  -17.8662   18.4200 C   0  0  0  0  0  0
  -27.6112  -23.9272   18.2301 C   0  0  0  0  0  0
  -30.0117  -24.2649   18.7671 C   0  0  0  0  0  0
  -27.7115  -20.7824   18.2007 C   0  0  0  0  0  0
  -30.0435  -17.3545   20.6748 C   0  0  0  0  0  0
  -28.2292  -24.9625   20.4230 C   0  0  0  0  0  0
  -29.0489  -18.3696   19.8818 C   0  0  1  0  0  0
  -28.6582  -23.8196   19.3563 C   0  0  0  0  0  0
  -28.5854  -21.0383   19.3552 N   0  0  0  0  0  0
  -29.7755  -20.5909   21.0631 N   0  3  0  0  0  0
  -29.7601  -15.8422   20.6467 N   0  0  0  0  0  0
  -31.4739  -12.5846   19.1550 H   0  0  0  0  0  0
  -30.3730  -11.4696   19.9231 H   0  0  0  0  0  0
  -29.7857  -11.7615   17.4938 H   0  0  0  0  0  0
  -29.6247  -13.4852   17.7229 H   0  0  0  0  0  0
  -27.8942  -11.2854   18.8924 H   0  0  0  0  0  0
  -27.3710  -12.5397   17.7982 H   0  0  0  0  0  0
  -27.6404  -14.2468   19.4811 H   0  0  0  0  0  0
  -28.7344  -12.1281   21.3976 H   0  0  0  0  0  0
  -28.4314  -13.7942   21.8119 H   0  0  0  0  0  0
  -25.2768   -9.5681   22.4751 H   0  0  0  0  0  0
  -23.9997   -7.4638   22.7487 H   0  0  0  0  0  0
  -21.0829   -8.8772   19.8950 H   0  0  0  0  0  0
  -22.3692  -10.9674   19.6168 H   0  0  0  0  0  0
  -21.2009   -7.6136   23.9692 H   0  0  0  0  0  0
  -21.1488   -6.0525   25.9064 H   0  0  0  0  0  0
  -22.0598   -2.7593   23.2858 H   0  0  0  0  0  0
  -22.4126  -11.9834   22.4745 H   0  0  0  0  0  0
  -21.1137  -13.1249   22.2648 H   0  0  0  0  0  0
  -24.6465  -15.8352   20.4766 H   0  0  0  0  0  0
  -26.2522  -15.6148   20.0073 H   0  0  0  0  0  0
  -26.7186  -32.5404   23.1058 H   0  0  0  0  0  0
  -25.0081  -33.9689   25.0380 H   0  0  0  0  0  0
  -22.7266  -31.2984   21.3941 H   0  0  0  0  0  0
  -23.3754  -35.9620   23.3309 H   0  0  0  0  0  0
  -24.3560  -36.8920   22.2050 H   0  0  0  0  0  0
  -23.7213  -37.6486   23.6663 H   0  0  0  0  0  0
  -26.1052  -31.5309   20.5968 H   0  0  0  0  0  0
  -26.8513  -30.8246   22.0034 H   0  0  0  0  0  0
  -28.1391  -28.9682   21.1373 H   0  0  0  0  0  0
  -25.9371  -25.8662   19.0907 H   0  0  0  0  0  0
  -23.9484  -27.2712   19.0760 H   0  0  0  0  0  0
  -23.7818  -30.5832   19.4056 H   0  0  0  0  0  0
  -22.7646  -29.2452   19.8530 H   0  0  0  0  0  0
  -25.1293  -36.1945   25.0814 H   0  0  0  0  0  0
  -20.9966  -28.3285   24.1415 H   0  0  0  0  0  0
  -20.5750  -26.2331   23.3620 H   0  0  0  0  0  0
  -21.6662  -26.7513   22.1171 H   0  0  0  0  0  0
  -19.6942  -25.6314   21.1264 H   0  0  0  0  0  0
  -19.6688  -27.3217   20.6752 H   0  0  0  0  0  0
  -17.4229  -26.6708   21.4019 H   0  0  0  0  0  0
  -18.0318  -26.0103   22.9034 H   0  0  0  0  0  0
  -19.7929  -30.7320   24.2257 H   0  0  0  0  0  0
  -17.5003  -31.6284   24.5181 H   0  0  0  0  0  0
  -15.5349  -30.2996   23.7676 H   0  0  0  0  0  0
  -15.8687  -28.0855   22.7036 H   0  0  0  0  0  0
  -24.5881  -30.7080   25.7754 H   0  0  0  0  0  0
  -24.8886  -32.2882   26.4911 H   0  0  0  0  0  0
  -25.8017  -30.8873   27.0224 H   0  0  0  0  0  0
  -26.2935  -29.6771   24.1242 H   0  0  0  0  0  0
  -27.4035  -29.7300   25.4747 H   0  0  0  0  0  0
  -27.8809  -30.4319   23.9460 H   0  0  0  0  0  0
  -27.2684  -33.3664   26.2068 H   0  0  0  0  0  0
  -28.3872  -32.6900   25.0313 H   0  0  0  0  0  0
  -28.0745  -31.8491   26.5430 H   0  0  0  0  0  0
  -28.2612  -38.0102   24.7536 H   0  0  0  0  0  0
  -28.1067  -36.2640   24.6278 H   0  0  0  0  0  0
  -27.2300  -37.1442   25.8869 H   0  0  0  0  0  0
  -20.9455  -29.8745   21.6827 H   0  0  0  0  0  0
  -26.0180  -38.2869   24.1423 H   0  0  0  0  0  0
  -30.1211  -22.6009   21.7401 H   0  0  0  0  0  0
  -27.8089  -20.3656   16.0633 H   0  0  0  0  0  0
  -29.3253  -20.0600   16.8869 H   0  0  0  0  0  0
  -28.8545  -21.6916   16.5387 H   0  0  0  0  0  0
  -28.2248  -18.1859   17.8206 H   0  0  0  0  0  0
  -29.0183  -16.7786   18.3774 H   0  0  0  0  0  0
  -29.9899  -18.1595   17.9145 H   0  0  0  0  0  0
  -27.8653  -23.3575   17.3453 H   0  0  0  0  0  0
  -27.5453  -24.9535   17.8710 H   0  0  0  0  0  0
  -26.6115  -23.6432   18.5616 H   0  0  0  0  0  0
  -30.3467  -23.5883   17.9804 H   0  0  0  0  0  0
  -30.7836  -24.2880   19.5358 H   0  0  0  0  0  0
  -29.9658  -25.2664   18.3364 H   0  0  0  0  0  0
  -27.1567  -19.8693   18.3956 H   0  0  0  0  0  0
  -26.9130  -21.5154   18.1856 H   0  0  0  0  0  0
  -30.0527  -17.6344   21.7285 H   0  0  0  0  0  0
  -31.0621  -17.5181   20.3185 H   0  0  0  0  0  0
  -28.8775  -24.8464   21.2916 H   0  0  0  0  0  0
  -27.2291  -24.7410   20.8014 H   0  0  0  0  0  0
  -28.0497  -18.1655   20.2682 H   0  0  0  0  0  0
  -30.2852  -20.1077   21.7924 H   0  0  0  0  0  0
  -28.7955  -15.5964   20.8119 H   0  0  0  0  0  0
  1 25  1  0  0  0
  1 30  2  0  0  0
  1 85  1  0  0  0
  2  3  1  0  0  0
  2 25  1  0  0  0
  2 86  1  0  0  0
  2 87  1  0  0  0
  3  4  1  0  0  0
  3 88  1  0  0  0
  3 89  1  0  0  0
  4  5  1  0  0  0
  4 90  1  0  0  0
  4 91  1  0  0  0
  5  6  1  0  0  0
  5 26  1  0  0  0
  5 92  1  0  0  0
  6 25  1  0  0  0
  6 93  1  0  0  0
  6 94  1  0  0  0
  7  8  2  0  0  0
  7 26  1  0  0  0
  7 29  1  0  0  0
  8  9  1  0  0  0
  8 22  1  0  0  0
  9 10  1  0  0  0
  9 27  2  0  0  0
 10 11  2  0  0  0
 10 15  1  0  0  0
 11 12  1  0  0  0
 11 95  1  0  0  0
 12 13  2  0  0  0
 12 96  1  0  0  0
 13 14  1  0  0  0
 13 31  1  0  0  0
 14 15  2  0  0  0
 14 97  1  0  0  0
 15 98  1  0  0  0
 16 17  2  0  0  0
 16 21  1  0  0  0
 16 31  1  0  0  0
 17 18  1  0  0  0
 17 99  1  0  0  0
 18 19  2  0  0  0
 18100  1  0  0  0
 19 20  1  0  0  0
 19 24  1  0  0  0
 20 21  2  0  0  0
 20101  1  0  0  0
 21 23  1  0  0  0
 22 28  1  0  0  0
 22 32  2  0  0  0
 26 27  1  0  0  0
 28102  1  0  0  0
 28103  1  0  0  0
 29104  1  0  0  0
 29105  1  0  0  0
 33 34  1  0  0  0
 33 66  1  0  0  0
 33 70  2  0  0  0
 34 36  1  0  0  0
 34 59  1  0  0  0
 34106  1  0  0  0
 35 44  2  0  0  0
 35 45  1  0  0  0
 35 68  1  0  0  0
 36 56  1  0  0  0
 36107  1  0  0  0
 37 39  1  0  0  0
 37 47  1  0  0  0
 37 66  1  0  0  0
 37108  1  0  0  0
 38 43  2  0  0  0
 38 46  1  0  0  0
 38 47  1  0  0  0
 39 64  1  0  0  0
 39 67  2  0  0  0
 40 52  1  0  0  0
 40 53  2  0  0  0
 40 58  1  0  0  0
 41109  1  0  0  0
 41110  1  0  0  0
 41111  1  0  0  0
 41 48  1  0  0  0
 42 43  1  0  0  0
 42 66  1  0  0  0
 42112  1  0  0  0
 42113  1  0  0  0
 43 44  1  0  0  0
 44114  1  0  0  0
 45 46  2  0  0  0
 45115  1  0  0  0
 46116  1  0  0  0
 47117  1  0  0  0
 47118  1  0  0  0
 48 56  1  0  0  0
 48 65  1  0  0  0
 48119  1  0  0  0
 49 50  1  0  0  0
 49 53  1  0  0  0
 49 64  1  0  0  0
 49120  1  0  0  0
 50 51  1  0  0  0
 50121  1  0  0  0
 50122  1  0  0  0
 51 52  1  0  0  0
 51123  1  0  0  0
 51124  1  0  0  0
 52125  1  0  0  0
 52126  1  0  0  0
 53 54  1  0  0  0
 54 55  2  0  0  0
 54127  1  0  0  0
 55 57  1  0  0  0
 55128  1  0  0  0
 56 69  2  0  0  0
 57 58  2  0  0  0
 57129  1  0  0  0
 58130  1  0  0  0
 59 60  1  0  0  0
 59 61  1  0  0  0
 59 62  1  0  0  0
 60131  1  0  0  0
 60132  1  0  0  0
 60133  1  0  0  0
 61134  1  0  0  0
 61135  1  0  0  0
 61136  1  0  0  0
 62137  1  0  0  0
 62138  1  0  0  0
 62139  1  0  0  0
 63 65  1  0  0  0
 63140  1  0  0  0
 63141  1  0  0  0
 63142  1  0  0  0
 64143  1  0  0  0
 65144  1  0  0  0
 68 80  1  0  0  0
 71 72  2  0  0  0
 71 84  1  0  0  0
 71145  1  0  0  0
 72 82  1  0  0  0
 72 83  1  0  0  0
 73 81  1  0  0  0
 73 83  1  0  0  0
 73 84  2  0  0  0
 74 78  1  0  0  0
 74146  1  0  0  0
 74147  1  0  0  0
 74148  1  0  0  0
 75149  1  0  0  0
 75150  1  0  0  0
 75151  1  0  0  0
 75 81  1  0  0  0
 76152  1  0  0  0
 76153  1  0  0  0
 76154  1  0  0  0
 76 82  1  0  0  0
 77 82  1  0  0  0
 77155  1  0  0  0
 77156  1  0  0  0
 77157  1  0  0  0
 78 83  1  0  0  0
 78158  1  0  0  0
 78159  1  0  0  0
 79 81  1  0  0  0
 79 85  1  0  0  0
 79160  1  0  0  0
 79161  1  0  0  0
 80 82  1  0  0  0
 80162  1  0  0  0
 80163  1  0  0  0
 81164  1  0  0  0
 84165  1  0  0  0
 85166  1  0  0  0
M  CHG  1  84   1
M  ISO  4   1 100  68 101  80 101  85 100
M  END
> <chiral flag>
0

> <version>
0

> <s_m_source_file>
/data/baiqing/PycharmProjects/Reinvent-master-3.2/result/LINK_invent/BTK/process_docking_weight1_custom_sum_contain_oxygen_bond_distance_aromatic_linkinvent_7_9_3/rearranged_h_0070.sdf

> <i_m_source_file_index>
63

> <r_mmod_Potential_Energy-OPLS-2005>
147.027069091797

> <r_mmod_Stretch_Energy-OPLS-2005>
144.552276611328

> <r_mmod_Bend_Energy-OPLS-2005>
188.409118652344

> <r_mmod_Torsional_Energy-OPLS-2005>
263.749603271484

> <r_mmod_Improper_Torsional_Energy-OPLS-2005>
5.7738618850708

> <r_mmod_Van_der_Waal_Energy-OPLS-2005>
124.562644958496

> <r_mmod_Electrostatic_Energy-OPLS-2005>
-230.953506469727

> <r_mmod_Solvation_Energy-OPLS-2005>
-426.387725830078

> <b_mmod_Minimization_Converged-OPLS-2005>
0

> <r_mmod_RMS_Derivative-OPLS-2005>
3.24038147926331

$$$$
63
                    3D
 Structure written by MMmdl.
161169  0  0  1  0            999 V2000
  -30.6650  -14.8207   20.2892 C   0  0  0  0  0  0
  -30.4150  -12.4864   19.4568 C   0  0  0  0  0  0
  -29.4934  -12.4557   18.2221 C   0  0  0  0  0  0
  -28.0253  -12.2509   18.6451 C   0  0  0  0  0  0
  -27.6029  -13.1757   19.8129 C   0  0  2  0  0  0
  -28.6738  -13.3076   20.9215 C   0  0  0  0  0  0
  -25.2444  -13.7979   20.5766 C   0  0  0  0  0  0
  -24.1734  -13.0311   20.9303 C   0  0  0  0  0  0
  -24.6285  -11.6769   20.8856 C   0  0  0  0  0  0
  -23.8978  -10.4204   21.0473 C   0  0  0  0  0  0
  -24.3579   -9.4110   21.9216 C   0  0  0  0  0  0
  -23.6261   -8.2151   22.0760 C   0  0  0  0  0  0
  -22.4244   -8.0221   21.3535 C   0  0  0  0  0  0
  -21.9871   -9.0190   20.4648 C   0  0  0  0  0  0
  -22.7185  -10.2068   20.3076 C   0  0  0  0  0  0
  -21.6830   -6.0712   22.5272 C   0  0  0  0  0  0
  -21.3988   -6.5620   23.8201 C   0  0  0  0  0  0
  -21.3658   -5.6782   24.9181 C   0  0  0  0  0  0
  -21.6051   -4.3047   24.7238 C   0  0  0  0  0  0
  -21.8816   -3.8130   23.4359 C   0  0  0  0  0  0
  -21.9172   -4.6943   22.3408 C   0  0  0  0  0  0
  -22.7765  -13.5154   21.1914 C   0  0  0  0  0  0
  -22.1653   -4.2129   21.0989 F   0  0  0  0  0  0
  -21.5657   -3.4532   25.7754 F   0  0  0  0  0  0
  -29.9681  -13.6208   20.2974 N   0  0  0  0  0  0
  -26.2774  -12.9030   20.3309 N   0  0  0  0  0  0
  -25.9175  -11.6249   20.5838 N   0  0  0  0  0  0
  -22.0373  -12.8188   22.0460 N   0  0  0  0  0  0
  -25.4084  -15.1726   20.4169 N   0  0  0  0  0  0
  -31.8882  -14.7303   20.3835 O   0  0  0  0  0  0
  -21.6603   -6.8829   21.4227 O   0  0  0  0  0  0
  -22.3482  -14.5461   20.6715 O   0  0  0  0  0  0
  -24.6289  -31.8564   23.1987 C   0  0  0  0  0  0
  -25.9132  -32.4755   23.8306 C   0  0  1  0  0  0
  -27.2257  -27.2854   20.1378 C   0  0  0  0  0  0
  -25.5923  -33.8557   24.2223 N   0  0  0  0  0  0
  -23.4238  -30.4802   21.5411 C   0  0  2  0  0  0
  -24.8718  -28.9290   20.1110 C   0  0  0  0  0  0
  -22.7488  -29.4622   22.4907 C   0  0  0  0  0  0
  -18.0287  -28.1394   22.8490 C   0  0  0  0  0  0
  -24.1476  -36.7262   23.2641 C   0  0  0  0  0  0
  -25.9690  -30.7729   21.3842 C   0  0  0  0  0  0
  -26.0387  -29.3992   20.7256 C   0  0  0  0  0  0
  -27.2125  -28.5871   20.7340 C   0  0  0  0  0  0
  -26.0372  -26.8790   19.4839 C   0  0  0  0  0  0
  -24.8751  -27.6765   19.4797 C   0  0  0  0  0  0
  -23.6426  -29.8143   20.1563 C   0  0  0  0  0  0
  -25.4112  -36.3068   24.0314 C   0  0  1  0  0  0
  -20.5886  -28.3723   23.1266 C   0  0  2  0  0  0
  -20.6790  -26.9439   22.5408 C   0  0  0  0  0  0
  -19.5763  -26.6381   21.5230 C   0  0  0  0  0  0
  -18.1942  -26.7928   22.1637 C   0  0  0  0  0  0
  -19.1539  -28.8868   23.2863 C   0  0  0  0  0  0
  -18.9468  -30.1462   23.8885 C   0  0  0  0  0  0
  -17.6471  -30.6597   24.0571 C   0  0  0  0  0  0
  -25.9047  -34.9438   23.5065 C   0  0  0  0  0  0
  -16.5354  -29.9096   23.6345 C   0  0  0  0  0  0
  -16.7272  -28.6514   23.0369 C   0  0  0  0  0  0
  -26.4457  -31.6605   25.0722 C   0  0  0  0  0  0
  -25.3644  -31.3837   26.1434 C   0  0  0  0  0  0
  -27.0312  -30.3000   24.6270 C   0  0  0  0  0  0
  -27.5972  -32.4386   25.7501 C   0  0  0  0  0  0
  -27.5566  -37.1796   24.8466 C   0  0  0  0  0  0
  -21.4204  -29.3065   22.3652 N   0  0  0  0  0  0
  -26.4286  -37.3777   23.9401 N   0  0  0  0  0  0
  -24.6908  -31.0556   22.0952 N   0  0  0  0  0  0
  -23.4190  -28.8163   23.3008 O   0  0  0  0  0  0
  -28.3592  -26.4524   20.2335 O   0  0  0  0  0  0
  -26.5638  -34.8931   22.4647 O   0  0  0  0  0  0
  -23.5450  -32.1374   23.7311 O   0  0  0  0  0  0
  -31.3401  -18.2071   21.1507 C   0  0  0  0  0  0
  -31.0792  -19.5180   21.4868 C   0  0  0  0  0  0
  -29.2476  -18.6543   20.6035 C   0  0  0  0  0  0
  -30.1977  -17.6265   20.5165 C   0  0  0  0  0  0
  -29.4856  -21.6210   22.8879 C   0  0  0  0  0  0
  -28.6863  -16.1868   19.1468 C   0  0  0  0  0  0
  -28.7503  -23.8827   20.9309 C   0  0  0  0  0  0
  -29.1375  -22.3863   20.4478 C   0  0  0  0  0  0
  -28.3795  -25.0079   19.8503 C   0  0  0  0  0  0
  -29.0607  -21.1547   21.4814 C   0  0  1  0  0  0
  -30.1199  -16.2583   19.6871 C   0  0  2  0  0  0
  -30.9943  -16.5412   18.4042 C   0  0  0  0  0  0
  -29.7656  -19.8387   21.1694 N   0  0  0  0  0  0
  -30.9336  -15.5288   17.5351 F   0  0  0  0  0  0
  -30.5716  -17.6322   17.7565 F   0  0  0  0  0  0
  -32.2844  -16.7497   18.6802 F   0  0  0  0  0  0
  -31.4534  -12.5903   19.1428 H   0  0  0  0  0  0
  -30.3599  -11.5470   20.0081 H   0  0  0  0  0  0
  -29.8016  -11.6601   17.5438 H   0  0  0  0  0  0
  -29.5893  -13.3850   17.6591 H   0  0  0  0  0  0
  -27.9050  -11.2089   18.9396 H   0  0  0  0  0  0
  -27.3701  -12.4018   17.7865 H   0  0  0  0  0  0
  -27.4515  -14.1111   19.3225 H   0  0  0  0  0  0
  -28.7462  -12.3861   21.4977 H   0  0  0  0  0  0
  -28.3973  -14.0942   21.6258 H   0  0  0  0  0  0
  -25.2720   -9.5592   22.4802 H   0  0  0  0  0  0
  -23.9962   -7.4530   22.7484 H   0  0  0  0  0  0
  -21.0797   -8.8709   19.8962 H   0  0  0  0  0  0
  -22.3636  -10.9635   19.6214 H   0  0  0  0  0  0
  -21.1951   -7.6124   23.9697 H   0  0  0  0  0  0
  -21.1508   -6.0527   25.9086 H   0  0  0  0  0  0
  -22.0600   -2.7590   23.2867 H   0  0  0  0  0  0
  -22.3970  -11.9874   22.4904 H   0  0  0  0  0  0
  -21.0983  -13.1211   22.2647 H   0  0  0  0  0  0
  -24.6310  -15.8139   20.5340 H   0  0  0  0  0  0
  -26.2491  -15.6241   20.0835 H   0  0  0  0  0  0
  -26.7212  -32.5395   23.1064 H   0  0  0  0  0  0
  -25.0135  -33.9686   25.0413 H   0  0  0  0  0  0
  -22.7212  -31.3032   21.3947 H   0  0  0  0  0  0
  -23.3752  -35.9586   23.3327 H   0  0  0  0  0  0
  -24.3589  -36.8862   22.2052 H   0  0  0  0  0  0
  -23.7190  -37.6447   23.6659 H   0  0  0  0  0  0
  -26.1323  -31.5367   20.6215 H   0  0  0  0  0  0
  -26.8375  -30.8053   22.0303 H   0  0  0  0  0  0
  -28.1009  -28.9360   21.2427 H   0  0  0  0  0  0
  -25.9552  -25.9374   18.9673 H   0  0  0  0  0  0
  -23.9849  -27.3134   18.9836 H   0  0  0  0  0  0
  -23.7648  -30.5868   19.3954 H   0  0  0  0  0  0
  -22.7614  -29.2450   19.8534 H   0  0  0  0  0  0
  -25.1298  -36.1923   25.0803 H   0  0  0  0  0  0
  -20.9993  -28.3325   24.1384 H   0  0  0  0  0  0
  -20.5772  -26.2323   23.3620 H   0  0  0  0  0  0
  -21.6650  -26.7518   22.1149 H   0  0  0  0  0  0
  -19.6937  -25.6297   21.1260 H   0  0  0  0  0  0
  -19.6684  -27.3195   20.6760 H   0  0  0  0  0  0
  -17.4206  -26.6684   21.4033 H   0  0  0  0  0  0
  -18.0334  -26.0070   22.9029 H   0  0  0  0  0  0
  -19.7945  -30.7280   24.2254 H   0  0  0  0  0  0
  -17.5035  -31.6296   24.5170 H   0  0  0  0  0  0
  -15.5366  -30.3014   23.7678 H   0  0  0  0  0  0
  -15.8662  -28.0840   22.7097 H   0  0  0  0  0  0
  -24.5774  -30.7233   25.7776 H   0  0  0  0  0  0
  -24.8892  -32.3051   26.4788 H   0  0  0  0  0  0
  -25.7899  -30.9034   27.0250 H   0  0  0  0  0  0
  -26.2934  -29.6788   24.1173 H   0  0  0  0  0  0
  -27.3829  -29.7245   25.4845 H   0  0  0  0  0  0
  -27.8876  -30.4257   23.9651 H   0  0  0  0  0  0
  -27.2494  -33.3679   26.2046 H   0  0  0  0  0  0
  -28.3760  -32.6986   25.0313 H   0  0  0  0  0  0
  -28.0655  -31.8550   26.5442 H   0  0  0  0  0  0
  -28.2580  -38.0095   24.7528 H   0  0  0  0  0  0
  -28.1054  -36.2619   24.6277 H   0  0  0  0  0  0
  -27.2301  -37.1433   25.8878 H   0  0  0  0  0  0
  -20.9406  -29.8776   21.6845 H   0  0  0  0  0  0
  -26.0157  -38.2849   24.1423 H   0  0  0  0  0  0
  -32.3029  -17.7297   21.2772 H   0  0  0  0  0  0
  -31.7212  -20.2573   21.9496 H   0  0  0  0  0  0
  -28.2210  -18.6738   20.2570 H   0  0  0  0  0  0
  -29.5264  -20.7874   23.5903 H   0  0  0  0  0  0
  -28.7816  -22.3458   23.2946 H   0  0  0  0  0  0
  -30.4686  -22.0927   22.8731 H   0  0  0  0  0  0
  -28.3996  -17.1017   18.6295 H   0  0  0  0  0  0
  -27.9746  -16.0523   19.9564 H   0  0  0  0  0  0
  -28.6070  -15.4224   18.3786 H   0  0  0  0  0  0
  -27.9070  -23.8215   21.6208 H   0  0  0  0  0  0
  -29.5852  -24.2581   21.5237 H   0  0  0  0  0  0
  -30.1441  -22.4194   20.0292 H   0  0  0  0  0  0
  -28.4916  -22.1307   19.6082 H   0  0  0  0  0  0
  -29.1163  -24.9449   19.0492 H   0  0  0  0  0  0
  -27.4558  -24.6778   19.3871 H   0  0  0  0  0  0
  -28.0026  -20.8936   21.5695 H   0  0  0  0  0  0
  1 25  1  0  0  0
  1 30  2  0  0  0
  1 81  1  0  0  0
  2  3  1  0  0  0
  2 25  1  0  0  0
  2 87  1  0  0  0
  2 88  1  0  0  0
  3  4  1  0  0  0
  3 89  1  0  0  0
  3 90  1  0  0  0
  4  5  1  0  0  0
  4 91  1  0  0  0
  4 92  1  0  0  0
  5  6  1  0  0  0
  5 26  1  0  0  0
  5 93  1  0  0  0
  6 25  1  0  0  0
  6 94  1  0  0  0
  6 95  1  0  0  0
  7  8  2  0  0  0
  7 26  1  0  0  0
  7 29  1  0  0  0
  8  9  1  0  0  0
  8 22  1  0  0  0
  9 10  1  0  0  0
  9 27  2  0  0  0
 10 11  2  0  0  0
 10 15  1  0  0  0
 11 12  1  0  0  0
 11 96  1  0  0  0
 12 13  2  0  0  0
 12 97  1  0  0  0
 13 14  1  0  0  0
 13 31  1  0  0  0
 14 15  2  0  0  0
 14 98  1  0  0  0
 15 99  1  0  0  0
 16 17  2  0  0  0
 16 21  1  0  0  0
 16 31  1  0  0  0
 17 18  1  0  0  0
 17100  1  0  0  0
 18 19  2  0  0  0
 18101  1  0  0  0
 19 20  1  0  0  0
 19 24  1  0  0  0
 20 21  2  0  0  0
 20102  1  0  0  0
 21 23  1  0  0  0
 22 28  1  0  0  0
 22 32  2  0  0  0
 26 27  1  0  0  0
 28103  1  0  0  0
 28104  1  0  0  0
 29105  1  0  0  0
 29106  1  0  0  0
 33 34  1  0  0  0
 33 66  1  0  0  0
 33 70  2  0  0  0
 34 36  1  0  0  0
 34 59  1  0  0  0
 34107  1  0  0  0
 35 44  2  0  0  0
 35 45  1  0  0  0
 35 68  1  0  0  0
 36 56  1  0  0  0
 36108  1  0  0  0
 37 39  1  0  0  0
 37 47  1  0  0  0
 37 66  1  0  0  0
 37109  1  0  0  0
 38 43  2  0  0  0
 38 46  1  0  0  0
 38 47  1  0  0  0
 39 64  1  0  0  0
 39 67  2  0  0  0
 40 52  1  0  0  0
 40 53  2  0  0  0
 40 58  1  0  0  0
 41110  1  0  0  0
 41111  1  0  0  0
 41112  1  0  0  0
 41 48  1  0  0  0
 42 43  1  0  0  0
 42 66  1  0  0  0
 42113  1  0  0  0
 42114  1  0  0  0
 43 44  1  0  0  0
 44115  1  0  0  0
 45 46  2  0  0  0
 45116  1  0  0  0
 46117  1  0  0  0
 47118  1  0  0  0
 47119  1  0  0  0
 48 56  1  0  0  0
 48 65  1  0  0  0
 48120  1  0  0  0
 49 50  1  0  0  0
 49 53  1  0  0  0
 49 64  1  0  0  0
 49121  1  0  0  0
 50 51  1  0  0  0
 50122  1  0  0  0
 50123  1  0  0  0
 51 52  1  0  0  0
 51124  1  0  0  0
 51125  1  0  0  0
 52126  1  0  0  0
 52127  1  0  0  0
 53 54  1  0  0  0
 54 55  2  0  0  0
 54128  1  0  0  0
 55 57  1  0  0  0
 55129  1  0  0  0
 56 69  2  0  0  0
 57 58  2  0  0  0
 57130  1  0  0  0
 58131  1  0  0  0
 59 60  1  0  0  0
 59 61  1  0  0  0
 59 62  1  0  0  0
 60132  1  0  0  0
 60133  1  0  0  0
 60134  1  0  0  0
 61135  1  0  0  0
 61136  1  0  0  0
 61137  1  0  0  0
 62138  1  0  0  0
 62139  1  0  0  0
 62140  1  0  0  0
 63 65  1  0  0  0
 63141  1  0  0  0
 63142  1  0  0  0
 63143  1  0  0  0
 64144  1  0  0  0
 65145  1  0  0  0
 68 79  1  0  0  0
 71 72  2  0  0  0
 71 74  1  0  0  0
 71146  1  0  0  0
 72 83  1  0  0  0
 72147  1  0  0  0
 73 74  2  0  0  0
 73 83  1  0  0  0
 73148  1  0  0  0
 74 81  1  0  0  0
 75149  1  0  0  0
 75150  1  0  0  0
 75151  1  0  0  0
 75 80  1  0  0  0
 76152  1  0  0  0
 76153  1  0  0  0
 76154  1  0  0  0
 76 81  1  0  0  0
 77 78  1  0  0  0
 77 79  1  0  0  0
 77155  1  0  0  0
 77156  1  0  0  0
 78 80  1  0  0  0
 78157  1  0  0  0
 78158  1  0  0  0
 79159  1  0  0  0
 79160  1  0  0  0
 80 83  1  0  0  0
 80161  1  0  0  0
 81 82  1  0  0  0
 82 84  1  0  0  0
 82 85  1  0  0  0
 82 86  1  0  0  0
M  ISO  4   1 100  68 101  79 101  81 100
M  END
> <chiral flag>
0

> <version>
0

> <s_m_source_file>
/data/baiqing/PycharmProjects/Reinvent-master-3.2/result/LINK_invent/BTK/process_docking_weight1_custom_sum_contain_oxygen_bond_distance_aromatic_linkinvent_7_9_3/rearranged_h_0070.sdf

> <i_m_source_file_index>
64

> <r_mmod_Potential_Energy-OPLS-2005>
487.013122558594

> <r_mmod_Stretch_Energy-OPLS-2005>
125.39241027832

> <r_mmod_Bend_Energy-OPLS-2005>
206.928146362305

> <r_mmod_Torsional_Energy-OPLS-2005>
256.396209716797

> <r_mmod_Improper_Torsional_Energy-OPLS-2005>
15.1096839904785

> <r_mmod_Van_der_Waal_Energy-OPLS-2005>
144.232849121094

> <r_mmod_Electrostatic_Energy-OPLS-2005>
-197.581619262695

> <r_mmod_Solvation_Energy-OPLS-2005>
-189.179290771484

> <b_mmod_Minimization_Converged-OPLS-2005>
0

> <r_mmod_RMS_Derivative-OPLS-2005>
3.25087642669678

$$$$
64
                    3D
 Structure written by MMmdl.
167175  0  0  1  0            999 V2000
  -30.7564  -14.4294   20.7255 C   0  0  0  0  0  0
  -30.4147  -12.3382   19.4177 C   0  0  0  0  0  0
  -29.4880  -12.5361   18.2020 C   0  0  0  0  0  0
  -28.0123  -12.3664   18.6077 C   0  0  0  0  0  0
  -27.6574  -13.1991   19.8628 C   0  0  2  0  0  0
  -28.6925  -12.9698   20.9838 C   0  0  0  0  0  0
  -25.2582  -13.8147   20.5649 C   0  0  0  0  0  0
  -24.1839  -13.0434   20.9179 C   0  0  0  0  0  0
  -24.6381  -11.6897   20.8726 C   0  0  0  0  0  0
  -23.9059  -10.4293   21.0401 C   0  0  0  0  0  0
  -24.3619   -9.4210   21.9172 C   0  0  0  0  0  0
  -23.6296   -8.2247   22.0753 C   0  0  0  0  0  0
  -22.4275   -8.0283   21.3550 C   0  0  0  0  0  0
  -21.9902   -9.0253   20.4648 C   0  0  0  0  0  0
  -22.7227  -10.2135   20.3048 C   0  0  0  0  0  0
  -21.6855   -6.0743   22.5289 C   0  0  0  0  0  0
  -21.4011   -6.5646   23.8223 C   0  0  0  0  0  0
  -21.3656   -5.6793   24.9181 C   0  0  0  0  0  0
  -21.6042   -4.3057   24.7227 C   0  0  0  0  0  0
  -21.8818   -3.8153   23.4346 C   0  0  0  0  0  0
  -21.9193   -4.6973   22.3405 C   0  0  0  0  0  0
  -22.7874  -13.5242   21.1856 C   0  0  0  0  0  0
  -22.1665   -4.2158   21.0983 F   0  0  0  0  0  0
  -21.5625   -3.4539   25.7738 F   0  0  0  0  0  0
  -30.0297  -13.2968   20.4731 N   0  0  0  0  0  0
  -26.2990  -12.9297   20.3264 N   0  0  0  0  0  0
  -25.9290  -11.6469   20.5708 N   0  0  0  0  0  0
  -22.0522  -12.8233   22.0423 N   0  0  0  0  0  0
  -25.4301  -15.1859   20.4051 N   0  0  0  0  0  0
  -31.7389  -14.6821   20.0194 O   0  0  0  0  0  0
  -21.6636   -6.8877   21.4249 O   0  0  0  0  0  0
  -22.3555  -14.5544   20.6703 O   0  0  0  0  0  0
  -24.6155  -31.8663   23.2079 C   0  0  0  0  0  0
  -25.9031  -32.4832   23.8384 C   0  0  1  0  0  0
  -27.2435  -27.4271   20.0939 C   0  0  0  0  0  0
  -25.5889  -33.8630   24.2315 N   0  0  0  0  0  0
  -23.4030  -30.4889   21.5480 C   0  0  2  0  0  0
  -24.8487  -28.9486   20.1149 C   0  0  0  0  0  0
  -22.7414  -29.4655   22.4991 C   0  0  0  0  0  0
  -18.0270  -28.1387   22.8495 C   0  0  0  0  0  0
  -24.1485  -36.7316   23.2648 C   0  0  0  0  0  0
  -25.9305  -30.8298   21.3579 C   0  0  0  0  0  0
  -26.0070  -29.4607   20.7104 C   0  0  0  0  0  0
  -27.2023  -28.7069   20.6958 C   0  0  0  0  0  0
  -26.0616  -26.9225   19.5044 C   0  0  0  0  0  0
  -24.8713  -27.6785   19.5114 C   0  0  0  0  0  0
  -23.6113  -29.8178   20.1624 C   0  0  0  0  0  0
  -25.4103  -36.3123   24.0344 C   0  0  1  0  0  0
  -20.5865  -28.3656   23.1332 C   0  0  2  0  0  0
  -20.6763  -26.9387   22.5434 C   0  0  0  0  0  0
  -19.5749  -26.6385   21.5223 C   0  0  0  0  0  0
  -18.1918  -26.7937   22.1618 C   0  0  0  0  0  0
  -19.1521  -28.8834   23.2922 C   0  0  0  0  0  0
  -18.9452  -30.1439   23.8923 C   0  0  0  0  0  0
  -17.6460  -30.6596   24.0570 C   0  0  0  0  0  0
  -25.9025  -34.9487   23.5125 C   0  0  0  0  0  0
  -16.5348  -29.9093   23.6332 C   0  0  0  0  0  0
  -16.7261  -28.6513   23.0343 C   0  0  0  0  0  0
  -26.4453  -31.6627   25.0724 C   0  0  0  0  0  0
  -25.3737  -31.3756   26.1510 C   0  0  0  0  0  0
  -27.0260  -30.3077   24.6075 C   0  0  0  0  0  0
  -27.6061  -32.4322   25.7461 C   0  0  0  0  0  0
  -27.5579  -37.1810   24.8465 C   0  0  0  0  0  0
  -21.4139  -29.3037   22.3754 N   0  0  0  0  0  0
  -26.4286  -37.3813   23.9423 N   0  0  0  0  0  0
  -24.6681  -31.0764   22.0970 N   0  0  0  0  0  0
  -23.4193  -28.8190   23.3027 O   0  0  0  0  0  0
  -28.4477  -26.7457   20.1061 O   0  0  0  0  0  0
  -26.5596  -34.8941   22.4691 O   0  0  0  0  0  0
  -23.5345  -32.1387   23.7485 O   0  0  0  0  0  0
  -28.5170  -18.3070   20.3848 C   0  0  0  0  0  0
  -29.1455  -17.7460   21.5268 C   0  0  0  0  0  0
  -29.3321  -19.8855   22.4212 C   0  0  0  0  0  0
  -28.6125  -20.4287   21.3201 C   0  0  0  0  0  0
  -29.8014  -20.7279   23.5921 C   0  0  0  0  0  0
  -28.0937  -16.0268   22.9682 C   0  0  0  0  0  0
  -30.5683  -14.5725   23.2586 C   0  0  0  0  0  0
  -31.6807  -16.3791   22.0632 C   0  0  0  0  0  0
  -28.0297  -21.8524   21.3372 C   0  0  0  0  0  0
  -28.6664  -22.8988   20.3902 C   0  0  0  0  0  0
  -28.1236  -24.3333   20.6513 C   0  0  0  0  0  0
  -28.5663  -25.3991   19.6186 C   0  0  0  0  0  0
  -29.0999  -16.2199   21.8015 C   0  0  2  0  0  0
  -30.4717  -15.4021   21.9436 C   0  0  0  0  0  0
  -28.2460  -19.6358   20.2806 N   0  0  0  0  0  0
  -29.5818  -18.5561   22.5277 N   0  0  0  0  0  0
  -31.4579  -12.4381   19.1148 H   0  0  0  0  0  0
  -30.3247  -11.3201   19.7997 H   0  0  0  0  0  0
  -29.7411  -11.8245   17.4150 H   0  0  0  0  0  0
  -29.6415  -13.5316   17.7818 H   0  0  0  0  0  0
  -27.8335  -11.3079   18.8000 H   0  0  0  0  0  0
  -27.3580  -12.6374   17.7786 H   0  0  0  0  0  0
  -27.7011  -14.2452   19.5626 H   0  0  0  0  0  0
  -28.6690  -11.9331   21.3235 H   0  0  0  0  0  0
  -28.4017  -13.5545   21.8387 H   0  0  0  0  0  0
  -25.2774   -9.5690   22.4730 H   0  0  0  0  0  0
  -24.0015   -7.4634   22.7466 H   0  0  0  0  0  0
  -21.0833   -8.8760   19.8953 H   0  0  0  0  0  0
  -22.3682  -10.9667   19.6152 H   0  0  0  0  0  0
  -21.2004   -7.6153   23.9733 H   0  0  0  0  0  0
  -21.1476   -6.0522   25.9085 H   0  0  0  0  0  0
  -22.0597   -2.7614   23.2843 H   0  0  0  0  0  0
  -22.4144  -11.9889   22.4791 H   0  0  0  0  0  0
  -21.1141  -13.1263   22.2644 H   0  0  0  0  0  0
  -24.6588  -15.8359   20.5120 H   0  0  0  0  0  0
  -26.2683  -15.6225   20.0483 H   0  0  0  0  0  0
  -26.7110  -32.5534   23.1150 H   0  0  0  0  0  0
  -25.0091  -33.9782   25.0504 H   0  0  0  0  0  0
  -22.6950  -31.3066   21.4068 H   0  0  0  0  0  0
  -23.3752  -35.9642   23.3320 H   0  0  0  0  0  0
  -24.3595  -36.8914   22.2063 H   0  0  0  0  0  0
  -23.7212  -37.6515   23.6645 H   0  0  0  0  0  0
  -26.0367  -31.5892   20.5823 H   0  0  0  0  0  0
  -26.8225  -30.8926   21.9694 H   0  0  0  0  0  0
  -28.0994  -29.1041   21.1505 H   0  0  0  0  0  0
  -26.0361  -25.9510   19.0343 H   0  0  0  0  0  0
  -23.9797  -27.2762   19.0501 H   0  0  0  0  0  0
  -23.7222  -30.5912   19.4019 H   0  0  0  0  0  0
  -22.7329  -29.2412   19.8647 H   0  0  0  0  0  0
  -25.1277  -36.1992   25.0833 H   0  0  0  0  0  0
  -20.9953  -28.3197   24.1450 H   0  0  0  0  0  0
  -20.5663  -26.2243   23.3616 H   0  0  0  0  0  0
  -21.6631  -26.7427   22.1217 H   0  0  0  0  0  0
  -19.6907  -25.6293   21.1240 H   0  0  0  0  0  0
  -19.6700  -27.3210   20.6770 H   0  0  0  0  0  0
  -17.4195  -26.6700   21.4016 H   0  0  0  0  0  0
  -18.0289  -26.0074   22.9003 H   0  0  0  0  0  0
  -19.7931  -30.7246   24.2304 H   0  0  0  0  0  0
  -17.5018  -31.6280   24.5154 H   0  0  0  0  0  0
  -15.5347  -30.3010   23.7657 H   0  0  0  0  0  0
  -15.8658  -28.0857   22.7035 H   0  0  0  0  0  0
  -24.5889  -30.7102   25.7893 H   0  0  0  0  0  0
  -24.8952  -32.2923   26.4969 H   0  0  0  0  0  0
  -25.8117  -30.8942   27.0267 H   0  0  0  0  0  0
  -26.2766  -29.6871   24.1148 H   0  0  0  0  0  0
  -27.4074  -29.7294   25.4500 H   0  0  0  0  0  0
  -27.8589  -30.4431   23.9175 H   0  0  0  0  0  0
  -27.2723  -33.3641   26.2042 H   0  0  0  0  0  0
  -28.3863  -32.6838   25.0264 H   0  0  0  0  0  0
  -28.0731  -31.8431   26.5373 H   0  0  0  0  0  0
  -28.2611  -38.0102   24.7520 H   0  0  0  0  0  0
  -28.1056  -36.2632   24.6260 H   0  0  0  0  0  0
  -27.2315  -37.1430   25.8877 H   0  0  0  0  0  0
  -20.9281  -29.8781   21.7009 H   0  0  0  0  0  0
  -26.0182  -38.2888   24.1442 H   0  0  0  0  0  0
  -28.1321  -17.6769   19.5959 H   0  0  0  0  0  0
  -30.1770  -21.6927   23.2506 H   0  0  0  0  0  0
  -30.6083  -20.2325   24.1332 H   0  0  0  0  0  0
  -28.9836  -20.8996   24.2919 H   0  0  0  0  0  0
  -27.1443  -16.5098   22.7339 H   0  0  0  0  0  0
  -28.4651  -16.4830   23.8858 H   0  0  0  0  0  0
  -27.8543  -14.9963   23.2071 H   0  0  0  0  0  0
  -30.5271  -15.2148   24.1392 H   0  0  0  0  0  0
  -31.5131  -14.0298   23.3121 H   0  0  0  0  0  0
  -29.7913  -13.8248   23.3847 H   0  0  0  0  0  0
  -31.6147  -16.9934   22.9613 H   0  0  0  0  0  0
  -31.7577  -17.0485   21.2061 H   0  0  0  0  0  0
  -32.6301  -15.8459   22.1396 H   0  0  0  0  0  0
  -28.0466  -22.2353   22.3567 H   0  0  0  0  0  0
  -26.9689  -21.7693   21.0958 H   0  0  0  0  0  0
  -28.4847  -22.6114   19.3547 H   0  0  0  0  0  0
  -29.7488  -22.8993   20.5236 H   0  0  0  0  0  0
  -28.4582  -24.6463   21.6416 H   0  0  0  0  0  0
  -27.0340  -24.3162   20.6958 H   0  0  0  0  0  0
  -28.0712  -25.2621   18.6570 H   0  0  0  0  0  0
  -29.6276  -25.2551   19.4116 H   0  0  0  0  0  0
  -28.5913  -15.8147   20.9280 H   0  0  0  0  0  0
  1 25  1  0  0  0
  1 30  2  0  0  0
  1 84  1  0  0  0
  2  3  1  0  0  0
  2 25  1  0  0  0
  2 87  1  0  0  0
  2 88  1  0  0  0
  3  4  1  0  0  0
  3 89  1  0  0  0
  3 90  1  0  0  0
  4  5  1  0  0  0
  4 91  1  0  0  0
  4 92  1  0  0  0
  5  6  1  0  0  0
  5 26  1  0  0  0
  5 93  1  0  0  0
  6 25  1  0  0  0
  6 94  1  0  0  0
  6 95  1  0  0  0
  7  8  2  0  0  0
  7 26  1  0  0  0
  7 29  1  0  0  0
  8  9  1  0  0  0
  8 22  1  0  0  0
  9 10  1  0  0  0
  9 27  2  0  0  0
 10 11  2  0  0  0
 10 15  1  0  0  0
 11 12  1  0  0  0
 11 96  1  0  0  0
 12 13  2  0  0  0
 12 97  1  0  0  0
 13 14  1  0  0  0
 13 31  1  0  0  0
 14 15  2  0  0  0
 14 98  1  0  0  0
 15 99  1  0  0  0
 16 17  2  0  0  0
 16 21  1  0  0  0
 16 31  1  0  0  0
 17 18  1  0  0  0
 17100  1  0  0  0
 18 19  2  0  0  0
 18101  1  0  0  0
 19 20  1  0  0  0
 19 24  1  0  0  0
 20 21  2  0  0  0
 20102  1  0  0  0
 21 23  1  0  0  0
 22 28  1  0  0  0
 22 32  2  0  0  0
 26 27  1  0  0  0
 28103  1  0  0  0
 28104  1  0  0  0
 29105  1  0  0  0
 29106  1  0  0  0
 33 34  1  0  0  0
 33 66  1  0  0  0
 33 70  2  0  0  0
 34 36  1  0  0  0
 34 59  1  0  0  0
 34107  1  0  0  0
 35 44  2  0  0  0
 35 45  1  0  0  0
 35 68  1  0  0  0
 36 56  1  0  0  0
 36108  1  0  0  0
 37 39  1  0  0  0
 37 47  1  0  0  0
 37 66  1  0  0  0
 37109  1  0  0  0
 38 43  2  0  0  0
 38 46  1  0  0  0
 38 47  1  0  0  0
 39 64  1  0  0  0
 39 67  2  0  0  0
 40 52  1  0  0  0
 40 53  2  0  0  0
 40 58  1  0  0  0
 41110  1  0  0  0
 41111  1  0  0  0
 41112  1  0  0  0
 41 48  1  0  0  0
 42 43  1  0  0  0
 42 66  1  0  0  0
 42113  1  0  0  0
 42114  1  0  0  0
 43 44  1  0  0  0
 44115  1  0  0  0
 45 46  2  0  0  0
 45116  1  0  0  0
 46117  1  0  0  0
 47118  1  0  0  0
 47119  1  0  0  0
 48 56  1  0  0  0
 48 65  1  0  0  0
 48120  1  0  0  0
 49 50  1  0  0  0
 49 53  1  0  0  0
 49 64  1  0  0  0
 49121  1  0  0  0
 50 51  1  0  0  0
 50122  1  0  0  0
 50123  1  0  0  0
 51 52  1  0  0  0
 51124  1  0  0  0
 51125  1  0  0  0
 52126  1  0  0  0
 52127  1  0  0  0
 53 54  1  0  0  0
 54 55  2  0  0  0
 54128  1  0  0  0
 55 57  1  0  0  0
 55129  1  0  0  0
 56 69  2  0  0  0
 57 58  2  0  0  0
 57130  1  0  0  0
 58131  1  0  0  0
 59 60  1  0  0  0
 59 61  1  0  0  0
 59 62  1  0  0  0
 60132  1  0  0  0
 60133  1  0  0  0
 60134  1  0  0  0
 61135  1  0  0  0
 61136  1  0  0  0
 61137  1  0  0  0
 62138  1  0  0  0
 62139  1  0  0  0
 62140  1  0  0  0
 63 65  1  0  0  0
 63141  1  0  0  0
 63142  1  0  0  0
 63143  1  0  0  0
 64144  1  0  0  0
 65145  1  0  0  0
 68 82  1  0  0  0
 71 72  2  0  0  0
 71 85  1  0  0  0
 71146  1  0  0  0
 72 83  1  0  0  0
 72 86  1  0  0  0
 73 74  1  0  0  0
 73 75  1  0  0  0
 73 86  2  0  0  0
 74 79  1  0  0  0
 74 85  2  0  0  0
 75147  1  0  0  0
 75148  1  0  0  0
 75149  1  0  0  0
 76150  1  0  0  0
 76151  1  0  0  0
 76152  1  0  0  0
 76 83  1  0  0  0
 77153  1  0  0  0
 77154  1  0  0  0
 77155  1  0  0  0
 77 84  1  0  0  0
 78 84  1  0  0  0
 78156  1  0  0  0
 78157  1  0  0  0
 78158  1  0  0  0
 79 80  1  0  0  0
 79159  1  0  0  0
 79160  1  0  0  0
 80 81  1  0  0  0
 80161  1  0  0  0
 80162  1  0  0  0
 81 82  1  0  0  0
 81163  1  0  0  0
 81164  1  0  0  0
 82165  1  0  0  0
 82166  1  0  0  0
 83 84  1  0  0  0
 83167  1  0  0  0
M  ISO  4   1 100  68 101  82 101  84 100
M  END
> <chiral flag>
0

> <version>
0

> <s_m_source_file>
/data/baiqing/PycharmProjects/Reinvent-master-3.2/result/LINK_invent/BTK/process_docking_weight1_custom_sum_contain_oxygen_bond_distance_aromatic_linkinvent_7_9_3/rearranged_h_0070.sdf

> <i_m_source_file_index>
65

> <r_mmod_Potential_Energy-OPLS-2005>
92.4632034301758

> <r_mmod_Stretch_Energy-OPLS-2005>
56.2389793395996

> <r_mmod_Bend_Energy-OPLS-2005>
135.710220336914

> <r_mmod_Torsional_Energy-OPLS-2005>
177.578155517578

> <r_mmod_Improper_Torsional_Energy-OPLS-2005>
4.61039352416992

> <r_mmod_Van_der_Waal_Energy-OPLS-2005>
167.892349243164

> <r_mmod_Electrostatic_Energy-OPLS-2005>
-271.894012451172

> <r_mmod_Solvation_Energy-OPLS-2005>
-189.560989379883

> <b_mmod_Minimization_Converged-OPLS-2005>
0

> <r_mmod_RMS_Derivative-OPLS-2005>
1.99006545543671

$$$$
65
                    3D
 Structure written by MMmdl.
167175  0  0  1  0            999 V2000
  -30.6338  -14.5399   20.5289 C   0  0  0  0  0  0
  -30.4370  -12.3315   19.4402 C   0  0  0  0  0  0
  -29.5072  -12.5054   18.2184 C   0  0  0  0  0  0
  -28.0266  -12.3590   18.6262 C   0  0  0  0  0  0
  -27.6628  -13.2022   19.8777 C   0  0  2  0  0  0
  -28.7034  -12.9923   21.0040 C   0  0  0  0  0  0
  -25.2594  -13.8144   20.5677 C   0  0  0  0  0  0
  -24.1835  -13.0421   20.9161 C   0  0  0  0  0  0
  -24.6387  -11.6890   20.8729 C   0  0  0  0  0  0
  -23.9051  -10.4286   21.0407 C   0  0  0  0  0  0
  -24.3607   -9.4201   21.9185 C   0  0  0  0  0  0
  -23.6279   -8.2239   22.0760 C   0  0  0  0  0  0
  -22.4265   -8.0277   21.3545 C   0  0  0  0  0  0
  -21.9902   -9.0249   20.4642 C   0  0  0  0  0  0
  -22.7228  -10.2126   20.3055 C   0  0  0  0  0  0
  -21.6844   -6.0729   22.5277 C   0  0  0  0  0  0
  -21.4011   -6.5637   23.8209 C   0  0  0  0  0  0
  -21.3664   -5.6790   24.9171 C   0  0  0  0  0  0
  -21.6050   -4.3052   24.7222 C   0  0  0  0  0  0
  -21.8817   -3.8145   23.4339 C   0  0  0  0  0  0
  -21.9190   -4.6961   22.3397 C   0  0  0  0  0  0
  -22.7869  -13.5232   21.1833 C   0  0  0  0  0  0
  -22.1654   -4.2151   21.0975 F   0  0  0  0  0  0
  -21.5639   -3.4534   25.7733 F   0  0  0  0  0  0
  -30.0329  -13.3178   20.4577 N   0  0  0  0  0  0
  -26.3021  -12.9299   20.3355 N   0  0  0  0  0  0
  -25.9312  -11.6467   20.5754 N   0  0  0  0  0  0
  -22.0517  -12.8219   22.0393 N   0  0  0  0  0  0
  -25.4312  -15.1864   20.4114 N   0  0  0  0  0  0
  -31.7541  -14.7623   20.0606 O   0  0  0  0  0  0
  -21.6630   -6.8877   21.4240 O   0  0  0  0  0  0
  -22.3552  -14.5545   20.6689 O   0  0  0  0  0  0
  -24.6188  -31.8630   23.2069 C   0  0  0  0  0  0
  -25.9073  -32.4784   23.8363 C   0  0  1  0  0  0
  -27.2361  -27.3858   20.0968 C   0  0  0  0  0  0
  -25.5915  -33.8581   24.2297 N   0  0  0  0  0  0
  -23.4093  -30.4840   21.5488 C   0  0  2  0  0  0
  -24.8556  -28.9434   20.1139 C   0  0  0  0  0  0
  -22.7421  -29.4617   22.4976 C   0  0  0  0  0  0
  -18.0260  -28.1382   22.8491 C   0  0  0  0  0  0
  -24.1482  -36.7308   23.2645 C   0  0  0  0  0  0
  -25.9430  -30.8115   21.3689 C   0  0  0  0  0  0
  -26.0167  -29.4432   20.7131 C   0  0  0  0  0  0
  -27.2058  -28.6719   20.6996 C   0  0  0  0  0  0
  -26.0469  -26.9046   19.5025 C   0  0  0  0  0  0
  -24.8674  -27.6760   19.5069 C   0  0  0  0  0  0
  -23.6209  -29.8170   20.1639 C   0  0  0  0  0  0
  -25.4111  -36.3088   24.0329 C   0  0  1  0  0  0
  -20.5851  -28.3658   23.1321 C   0  0  2  0  0  0
  -20.6752  -26.9386   22.5428 C   0  0  0  0  0  0
  -19.5731  -26.6375   21.5219 C   0  0  0  0  0  0
  -18.1901  -26.7927   22.1615 C   0  0  0  0  0  0
  -19.1512  -28.8838   23.2895 C   0  0  0  0  0  0
  -18.9442  -30.1451   23.8892 C   0  0  0  0  0  0
  -17.6445  -30.6586   24.0568 C   0  0  0  0  0  0
  -25.9039  -34.9449   23.5108 C   0  0  0  0  0  0
  -16.5334  -29.9087   23.6344 C   0  0  0  0  0  0
  -16.7250  -28.6513   23.0347 C   0  0  0  0  0  0
  -26.4486  -31.6586   25.0715 C   0  0  0  0  0  0
  -25.3742  -31.3706   26.1461 C   0  0  0  0  0  0
  -27.0362  -30.3030   24.6146 C   0  0  0  0  0  0
  -27.6021  -32.4345   25.7498 C   0  0  0  0  0  0
  -27.5583  -37.1812   24.8468 C   0  0  0  0  0  0
  -21.4140  -29.3019   22.3720 N   0  0  0  0  0  0
  -26.4301  -37.3777   23.9401 N   0  0  0  0  0  0
  -24.6753  -31.0688   22.0991 N   0  0  0  0  0  0
  -23.4165  -28.8161   23.3044 O   0  0  0  0  0  0
  -28.4195  -26.6574   20.1332 O   0  0  0  0  0  0
  -26.5595  -34.8903   22.4664 O   0  0  0  0  0  0
  -23.5373  -32.1404   23.7441 O   0  0  0  0  0  0
  -29.0361  -21.4690   20.2851 C   0  0  0  0  0  0
  -29.4580  -19.4679   20.9110 C   0  0  0  0  0  0
  -32.4013  -21.4629   21.5310 C   0  0  0  0  0  0
  -30.0561  -19.2752   17.4682 C   0  0  0  0  0  0
  -29.0581  -22.8230   19.5616 C   0  0  0  0  0  0
  -30.1126  -18.1125   21.2224 C   0  0  0  0  0  0
  -32.5122  -20.5618   20.2916 C   0  0  0  0  0  0
  -31.3413  -19.4515   18.2936 C   0  0  0  0  0  0
  -28.5136  -24.0923   20.3071 C   0  0  0  0  0  0
  -29.6862  -16.8992   20.3358 C   0  0  0  0  0  0
  -28.5824  -25.3950   19.4381 C   0  0  0  0  0  0
  -31.2478  -20.5224   19.4019 C   0  0  0  0  0  0
  -27.9820  -21.0698   21.0057 N   0  0  0  0  0  0
  -28.2592  -19.7848   21.4193 N   0  0  0  0  0  0
  -29.9847  -20.4835   20.1595 N   0  0  0  0  0  0
  -29.8180  -15.5422   20.9328 N   0  0  0  0  0  0
  -31.4807  -12.4477   19.1414 H   0  0  0  0  0  0
  -30.3532  -11.3211   19.8434 H   0  0  0  0  0  0
  -29.7553  -11.7771   17.4449 H   0  0  0  0  0  0
  -29.6699  -13.4873   17.7720 H   0  0  0  0  0  0
  -27.8395  -11.3024   18.8237 H   0  0  0  0  0  0
  -27.3802  -12.6305   17.7917 H   0  0  0  0  0  0
  -27.7001  -14.2480   19.5726 H   0  0  0  0  0  0
  -28.6896  -11.9554   21.3450 H   0  0  0  0  0  0
  -28.4589  -13.5905   21.8834 H   0  0  0  0  0  0
  -25.2763   -9.5671   22.4742 H   0  0  0  0  0  0
  -23.9992   -7.4634   22.7486 H   0  0  0  0  0  0
  -21.0841   -8.8763   19.8941 H   0  0  0  0  0  0
  -22.3700  -10.9660   19.6158 H   0  0  0  0  0  0
  -21.2003   -7.6143   23.9707 H   0  0  0  0  0  0
  -21.1489   -6.0523   25.9075 H   0  0  0  0  0  0
  -22.0594   -2.7608   23.2837 H   0  0  0  0  0  0
  -22.4129  -11.9871   22.4764 H   0  0  0  0  0  0
  -21.1147  -13.1256   22.2633 H   0  0  0  0  0  0
  -24.6657  -15.8416   20.5320 H   0  0  0  0  0  0
  -26.2833  -15.6301   20.0931 H   0  0  0  0  0  0
  -26.7127  -32.5494   23.1105 H   0  0  0  0  0  0
  -25.0089  -33.9716   25.0460 H   0  0  0  0  0  0
  -22.6989  -31.3007   21.4071 H   0  0  0  0  0  0
  -23.3725  -35.9656   23.3311 H   0  0  0  0  0  0
  -24.3587  -36.8937   22.2066 H   0  0  0  0  0  0
  -23.7242  -37.6515   23.6663 H   0  0  0  0  0  0
  -26.0653  -31.5750   20.6000 H   0  0  0  0  0  0
  -26.8280  -30.8639   21.9921 H   0  0  0  0  0  0
  -28.1038  -29.0568   21.1626 H   0  0  0  0  0  0
  -25.9953  -25.9267   19.0485 H   0  0  0  0  0  0
  -23.9707  -27.2824   19.0484 H   0  0  0  0  0  0
  -23.7331  -30.5937   19.4066 H   0  0  0  0  0  0
  -22.7449  -29.2380   19.8673 H   0  0  0  0  0  0
  -25.1285  -36.1962   25.0824 H   0  0  0  0  0  0
  -20.9919  -28.3223   24.1452 H   0  0  0  0  0  0
  -20.5680  -26.2244   23.3605 H   0  0  0  0  0  0
  -21.6617  -26.7421   22.1216 H   0  0  0  0  0  0
  -19.6889  -25.6287   21.1249 H   0  0  0  0  0  0
  -19.6698  -27.3181   20.6750 H   0  0  0  0  0  0
  -17.4183  -26.6673   21.4006 H   0  0  0  0  0  0
  -18.0284  -26.0067   22.9006 H   0  0  0  0  0  0
  -19.7918  -30.7273   24.2246 H   0  0  0  0  0  0
  -17.5002  -31.6274   24.5151 H   0  0  0  0  0  0
  -15.5337  -30.2990   23.7681 H   0  0  0  0  0  0
  -15.8644  -28.0853   22.7042 H   0  0  0  0  0  0
  -24.5920  -30.7037   25.7819 H   0  0  0  0  0  0
  -24.8916  -32.2868   26.4872 H   0  0  0  0  0  0
  -25.8103  -30.8921   27.0241 H   0  0  0  0  0  0
  -26.2947  -29.6758   24.1187 H   0  0  0  0  0  0
  -27.4116  -29.7302   25.4638 H   0  0  0  0  0  0
  -27.8764  -30.4337   23.9322 H   0  0  0  0  0  0
  -27.2579  -33.3625   26.2068 H   0  0  0  0  0  0
  -28.3828  -32.6964   25.0346 H   0  0  0  0  0  0
  -28.0683  -31.8497   26.5437 H   0  0  0  0  0  0
  -28.2596  -38.0115   24.7520 H   0  0  0  0  0  0
  -28.1083  -36.2647   24.6288 H   0  0  0  0  0  0
  -27.2298  -37.1467   25.8870 H   0  0  0  0  0  0
  -20.9293  -29.8793   21.6989 H   0  0  0  0  0  0
  -26.0190  -38.2854   24.1400 H   0  0  0  0  0  0
  -33.3449  -21.4802   22.0785 H   0  0  0  0  0  0
  -31.6333  -21.1109   22.2203 H   0  0  0  0  0  0
  -32.1606  -22.4894   21.2509 H   0  0  0  0  0  0
  -30.2293  -18.6119   16.6204 H   0  0  0  0  0  0
  -29.7108  -20.2308   17.0729 H   0  0  0  0  0  0
  -29.2459  -18.8459   18.0584 H   0  0  0  0  0  0
  -28.5126  -22.6963   18.6257 H   0  0  0  0  0  0
  -30.0781  -23.0684   19.2793 H   0  0  0  0  0  0
  -29.8714  -17.8836   22.2612 H   0  0  0  0  0  0
  -31.1944  -18.2074   21.2022 H   0  0  0  0  0  0
  -32.7892  -19.5573   20.6067 H   0  0  0  0  0  0
  -33.3543  -20.9045   19.6873 H   0  0  0  0  0  0
  -32.1506  -19.7239   17.6143 H   0  0  0  0  0  0
  -31.6417  -18.4945   18.7167 H   0  0  0  0  0  0
  -29.0956  -24.2392   21.2167 H   0  0  0  0  0  0
  -27.4850  -23.9262   20.6273 H   0  0  0  0  0  0
  -30.1909  -16.9323   19.3719 H   0  0  0  0  0  0
  -28.6253  -17.0141   20.1096 H   0  0  0  0  0  0
  -29.5892  -25.4483   19.0226 H   0  0  0  0  0  0
  -27.9449  -25.3101   18.5590 H   0  0  0  0  0  0
  -31.2620  -21.4575   18.8517 H   0  0  0  0  0  0
  -28.9819  -15.2067   21.3883 H   0  0  0  0  0  0
  1 25  1  0  0  0
  1 30  2  0  0  0
  1 86  1  0  0  0
  2  3  1  0  0  0
  2 25  1  0  0  0
  2 87  1  0  0  0
  2 88  1  0  0  0
  3  4  1  0  0  0
  3 89  1  0  0  0
  3 90  1  0  0  0
  4  5  1  0  0  0
  4 91  1  0  0  0
  4 92  1  0  0  0
  5  6  1  0  0  0
  5 26  1  0  0  0
  5 93  1  0  0  0
  6 25  1  0  0  0
  6 94  1  0  0  0
  6 95  1  0  0  0
  7  8  2  0  0  0
  7 26  1  0  0  0
  7 29  1  0  0  0
  8  9  1  0  0  0
  8 22  1  0  0  0
  9 10  1  0  0  0
  9 27  2  0  0  0
 10 11  2  0  0  0
 10 15  1  0  0  0
 11 12  1  0  0  0
 11 96  1  0  0  0
 12 13  2  0  0  0
 12 97  1  0  0  0
 13 14  1  0  0  0
 13 31  1  0  0  0
 14 15  2  0  0  0
 14 98  1  0  0  0
 15 99  1  0  0  0
 16 17  2  0  0  0
 16 21  1  0  0  0
 16 31  1  0  0  0
 17 18  1  0  0  0
 17100  1  0  0  0
 18 19  2  0  0  0
 18101  1  0  0  0
 19 20  1  0  0  0
 19 24  1  0  0  0
 20 21  2  0  0  0
 20102  1  0  0  0
 21 23  1  0  0  0
 22 28  1  0  0  0
 22 32  2  0  0  0
 26 27  1  0  0  0
 28103  1  0  0  0
 28104  1  0  0  0
 29105  1  0  0  0
 29106  1  0  0  0
 33 34  1  0  0  0
 33 66  1  0  0  0
 33 70  2  0  0  0
 34 36  1  0  0  0
 34 59  1  0  0  0
 34107  1  0  0  0
 35 44  2  0  0  0
 35 45  1  0  0  0
 35 68  1  0  0  0
 36 56  1  0  0  0
 36108  1  0  0  0
 37 39  1  0  0  0
 37 47  1  0  0  0
 37 66  1  0  0  0
 37109  1  0  0  0
 38 43  2  0  0  0
 38 46  1  0  0  0
 38 47  1  0  0  0
 39 64  1  0  0  0
 39 67  2  0  0  0
 40 52  1  0  0  0
 40 53  2  0  0  0
 40 58  1  0  0  0
 41110  1  0  0  0
 41111  1  0  0  0
 41112  1  0  0  0
 41 48  1  0  0  0
 42 43  1  0  0  0
 42 66  1  0  0  0
 42113  1  0  0  0
 42114  1  0  0  0
 43 44  1  0  0  0
 44115  1  0  0  0
 45 46  2  0  0  0
 45116  1  0  0  0
 46117  1  0  0  0
 47118  1  0  0  0
 47119  1  0  0  0
 48 56  1  0  0  0
 48 65  1  0  0  0
 48120  1  0  0  0
 49 50  1  0  0  0
 49 53  1  0  0  0
 49 64  1  0  0  0
 49121  1  0  0  0
 50 51  1  0  0  0
 50122  1  0  0  0
 50123  1  0  0  0
 51 52  1  0  0  0
 51124  1  0  0  0
 51125  1  0  0  0
 52126  1  0  0  0
 52127  1  0  0  0
 53 54  1  0  0  0
 54 55  2  0  0  0
 54128  1  0  0  0
 55 57  1  0  0  0
 55129  1  0  0  0
 56 69  2  0  0  0
 57 58  2  0  0  0
 57130  1  0  0  0
 58131  1  0  0  0
 59 60  1  0  0  0
 59 61  1  0  0  0
 59 62  1  0  0  0
 60132  1  0  0  0
 60133  1  0  0  0
 60134  1  0  0  0
 61135  1  0  0  0
 61136  1  0  0  0
 61137  1  0  0  0
 62138  1  0  0  0
 62139  1  0  0  0
 62140  1  0  0  0
 63 65  1  0  0  0
 63141  1  0  0  0
 63142  1  0  0  0
 63143  1  0  0  0
 64144  1  0  0  0
 65145  1  0  0  0
 68 81  1  0  0  0
 71 75  1  0  0  0
 71 83  2  0  0  0
 71 85  1  0  0  0
 72 76  1  0  0  0
 72 84  2  0  0  0
 72 85  1  0  0  0
 73 77  1  0  0  0
 73146  1  0  0  0
 73147  1  0  0  0
 73148  1  0  0  0
 74 78  1  0  0  0
 74149  1  0  0  0
 74150  1  0  0  0
 74151  1  0  0  0
 75 79  1  0  0  0
 75152  1  0  0  0
 75153  1  0  0  0
 76 80  1  0  0  0
 76154  1  0  0  0
 76155  1  0  0  0
 77156  1  0  0  0
 77157  1  0  0  0
 77 82  1  0  0  0
 78 82  1  0  0  0
 78158  1  0  0  0
 78159  1  0  0  0
 79 81  1  0  0  0
 79160  1  0  0  0
 79161  1  0  0  0
 80 86  1  0  0  0
 80162  1  0  0  0
 80163  1  0  0  0
 81164  1  0  0  0
 81165  1  0  0  0
 82 85  1  0  0  0
 82166  1  0  0  0
 83 84  1  0  0  0
 86167  1  0  0  0
M  ISO  4   1 100  68 101  81 101  86 100
M  END
> <chiral flag>
0

> <version>
0

> <s_m_source_file>
/data/baiqing/PycharmProjects/Reinvent-master-3.2/result/LINK_invent/BTK/process_docking_weight1_custom_sum_contain_oxygen_bond_distance_aromatic_linkinvent_7_9_3/rearranged_h_0070.sdf

> <i_m_source_file_index>
66

> <r_mmod_Potential_Energy-OPLS-2005>
-48.5744171142578

> <r_mmod_Stretch_Energy-OPLS-2005>
53.3472747802734

> <r_mmod_Bend_Energy-OPLS-2005>
141.517807006836

> <r_mmod_Torsional_Energy-OPLS-2005>
231.084884643555

> <r_mmod_Improper_Torsional_Energy-OPLS-2005>
7.92567586898804

> <r_mmod_Van_der_Waal_Energy-OPLS-2005>
118.191886901855

> <r_mmod_Electrostatic_Energy-OPLS-2005>
-387.296569824219

> <r_mmod_Solvation_Energy-OPLS-2005>
-235.804840087891

> <b_mmod_Minimization_Converged-OPLS-2005>
0

> <r_mmod_RMS_Derivative-OPLS-2005>
1.75192201137543

$$$$
66
                    3D
 Structure written by MMmdl.
175183  0  0  1  0            999 V2000
  -30.6782  -14.5224   20.5482 C   0  0  0  0  0  0
  -30.4292  -12.3319   19.4275 C   0  0  0  0  0  0
  -29.5022  -12.5078   18.2051 C   0  0  0  0  0  0
  -28.0201  -12.3700   18.6121 C   0  0  0  0  0  0
  -27.6595  -13.2032   19.8711 C   0  0  2  0  0  0
  -28.7034  -12.9884   20.9887 C   0  0  0  0  0  0
  -25.2593  -13.8141   20.5667 C   0  0  0  0  0  0
  -24.1838  -13.0433   20.9173 C   0  0  0  0  0  0
  -24.6381  -11.6895   20.8725 C   0  0  0  0  0  0
  -23.9035  -10.4289   21.0408 C   0  0  0  0  0  0
  -24.3590   -9.4212   21.9184 C   0  0  0  0  0  0
  -23.6285   -8.2237   22.0749 C   0  0  0  0  0  0
  -22.4274   -8.0264   21.3538 C   0  0  0  0  0  0
  -21.9897   -9.0236   20.4649 C   0  0  0  0  0  0
  -22.7208  -10.2127   20.3058 C   0  0  0  0  0  0
  -21.6851   -6.0727   22.5272 C   0  0  0  0  0  0
  -21.4020   -6.5624   23.8207 C   0  0  0  0  0  0
  -21.3664   -5.6775   24.9165 C   0  0  0  0  0  0
  -21.6045   -4.3040   24.7219 C   0  0  0  0  0  0
  -21.8822   -3.8137   23.4343 C   0  0  0  0  0  0
  -21.9197   -4.6955   22.3397 C   0  0  0  0  0  0
  -22.7866  -13.5254   21.1843 C   0  0  0  0  0  0
  -22.1667   -4.2134   21.0979 F   0  0  0  0  0  0
  -21.5631   -3.4527   25.7742 F   0  0  0  0  0  0
  -30.0251  -13.3272   20.4366 N   0  0  0  0  0  0
  -26.3014  -12.9291   20.3335 N   0  0  0  0  0  0
  -25.9305  -11.6459   20.5744 N   0  0  0  0  0  0
  -22.0478  -12.8266   22.0396 N   0  0  0  0  0  0
  -25.4355  -15.1854   20.4093 N   0  0  0  0  0  0
  -31.8224  -14.6772   20.1060 O   0  0  0  0  0  0
  -21.6638   -6.8865   21.4234 O   0  0  0  0  0  0
  -22.3572  -14.5568   20.6697 O   0  0  0  0  0  0
  -24.6174  -31.8660   23.2098 C   0  0  0  0  0  0
  -25.9063  -32.4810   23.8396 C   0  0  1  0  0  0
  -27.2305  -27.4139   20.1053 C   0  0  0  0  0  0
  -25.5916  -33.8612   24.2323 N   0  0  0  0  0  0
  -23.4063  -30.4896   21.5501 C   0  0  2  0  0  0
  -24.8520  -28.9478   20.1196 C   0  0  0  0  0  0
  -22.7423  -29.4652   22.4991 C   0  0  0  0  0  0
  -18.0275  -28.1379   22.8486 C   0  0  0  0  0  0
  -24.1485  -36.7311   23.2638 C   0  0  0  0  0  0
  -25.9370  -30.8256   21.3653 C   0  0  0  0  0  0
  -26.0139  -29.4573   20.7141 C   0  0  0  0  0  0
  -27.2094  -28.6985   20.7011 C   0  0  0  0  0  0
  -26.0540  -26.9191   19.5082 C   0  0  0  0  0  0
  -24.8665  -27.6779   19.5151 C   0  0  0  0  0  0
  -23.6159  -29.8198   20.1660 C   0  0  0  0  0  0
  -25.4106  -36.3104   24.0336 C   0  0  1  0  0  0
  -20.5866  -28.3667   23.1319 C   0  0  2  0  0  0
  -20.6768  -26.9405   22.5421 C   0  0  0  0  0  0
  -19.5749  -26.6379   21.5218 C   0  0  0  0  0  0
  -18.1924  -26.7926   22.1622 C   0  0  0  0  0  0
  -19.1525  -28.8841   23.2901 C   0  0  0  0  0  0
  -18.9450  -30.1443   23.8911 C   0  0  0  0  0  0
  -17.6454  -30.6585   24.0568 C   0  0  0  0  0  0
  -25.9037  -34.9471   23.5122 C   0  0  0  0  0  0
  -16.5344  -29.9088   23.6326 C   0  0  0  0  0  0
  -16.7264  -28.6506   23.0345 C   0  0  0  0  0  0
  -26.4490  -31.6599   25.0733 C   0  0  0  0  0  0
  -25.3760  -31.3724   26.1491 C   0  0  0  0  0  0
  -27.0314  -30.3028   24.6133 C   0  0  0  0  0  0
  -27.6063  -32.4326   25.7495 C   0  0  0  0  0  0
  -27.5581  -37.1810   24.8463 C   0  0  0  0  0  0
  -21.4151  -29.3035   22.3725 N   0  0  0  0  0  0
  -26.4289  -37.3790   23.9412 N   0  0  0  0  0  0
  -24.6716  -31.0754   22.0994 N   0  0  0  0  0  0
  -23.4185  -28.8196   23.3042 O   0  0  0  0  0  0
  -28.3802  -26.6519   20.0668 O   0  0  0  0  0  0
  -26.5591  -34.8924   22.4680 O   0  0  0  0  0  0
  -23.5362  -32.1423   23.7480 O   0  0  0  0  0  0
  -30.7183  -20.0190   20.7443 C   0  0  0  0  0  0
  -29.8518  -20.8879   20.0273 C   0  0  0  0  0  0
  -28.8402  -20.1755   19.3194 C   0  0  0  0  0  0
  -29.6792  -18.1236   20.0086 C   0  0  0  0  0  0
  -24.3664  -22.5929   19.0720 C   0  0  0  0  0  0
  -30.8432  -22.9111   21.2837 C   0  0  0  0  0  0
  -31.3343  -22.4974   18.8789 C   0  0  0  0  0  0
  -29.4160  -15.9408   22.1226 C   0  0  0  0  0  0
  -27.7923  -20.7839   18.4018 C   0  0  0  0  0  0
  -29.7254  -16.6162   19.6962 C   0  0  0  0  0  0
  -25.5587  -22.0379   18.2840 C   0  0  0  0  0  0
  -26.5346  -21.2364   19.1616 C   0  0  0  0  0  0
  -28.1580  -24.1444   20.5363 C   0  0  0  0  0  0
  -29.1702  -23.5357   19.5222 C   0  0  0  0  0  0
  -28.4662  -25.5919   21.0411 C   0  0  0  0  0  0
  -30.2228  -22.4243   19.9496 C   0  0  0  0  0  0
  -30.6558  -18.6697   20.7117 N   0  0  0  0  0  0
  -28.7598  -18.8242   19.3573 N   0  0  0  0  0  0
  -29.8896  -15.6050   20.7751 N   0  0  0  0  0  0
  -31.4728  -12.4374   19.1262 H   0  0  0  0  0  0
  -30.3421  -11.3242   19.8346 H   0  0  0  0  0  0
  -29.7466  -11.7701   17.4395 H   0  0  0  0  0  0
  -29.6708  -13.4861   17.7512 H   0  0  0  0  0  0
  -27.8314  -11.3135   18.8053 H   0  0  0  0  0  0
  -27.3714  -12.6468   17.7793 H   0  0  0  0  0  0
  -27.6964  -14.2495   19.5738 H   0  0  0  0  0  0
  -28.6981  -11.9501   21.3252 H   0  0  0  0  0  0
  -28.4475  -13.5701   21.8701 H   0  0  0  0  0  0
  -25.2734   -9.5702   22.4757 H   0  0  0  0  0  0
  -24.0002   -7.4637   22.7466 H   0  0  0  0  0  0
  -21.0825   -8.8743   19.8968 H   0  0  0  0  0  0
  -22.3650  -10.9656   19.6163 H   0  0  0  0  0  0
  -21.2008   -7.6136   23.9705 H   0  0  0  0  0  0
  -21.1486   -6.0509   25.9067 H   0  0  0  0  0  0
  -22.0608   -2.7604   23.2841 H   0  0  0  0  0  0
  -22.4071  -11.9924   22.4801 H   0  0  0  0  0  0
  -21.1098  -13.1309   22.2571 H   0  0  0  0  0  0
  -24.6750  -15.8475   20.5258 H   0  0  0  0  0  0
  -26.2945  -15.6227   20.1026 H   0  0  0  0  0  0
  -26.7133  -32.5517   23.1160 H   0  0  0  0  0  0
  -25.0099  -33.9772   25.0491 H   0  0  0  0  0  0
  -22.6954  -31.3069   21.4106 H   0  0  0  0  0  0
  -23.3744  -35.9649   23.3306 H   0  0  0  0  0  0
  -24.3579  -36.8921   22.2051 H   0  0  0  0  0  0
  -23.7246  -37.6521   23.6648 H   0  0  0  0  0  0
  -26.0546  -31.5920   20.5977 H   0  0  0  0  0  0
  -26.8222  -30.8761   21.9877 H   0  0  0  0  0  0
  -28.1106  -29.0908   21.1515 H   0  0  0  0  0  0
  -26.0564  -25.9476   19.0355 H   0  0  0  0  0  0
  -23.9725  -27.2784   19.0566 H   0  0  0  0  0  0
  -23.7283  -30.5943   19.4068 H   0  0  0  0  0  0
  -22.7381  -29.2435   19.8689 H   0  0  0  0  0  0
  -25.1283  -36.1964   25.0827 H   0  0  0  0  0  0
  -20.9957  -28.3234   24.1443 H   0  0  0  0  0  0
  -20.5680  -26.2277   23.3610 H   0  0  0  0  0  0
  -21.6641  -26.7453   22.1214 H   0  0  0  0  0  0
  -19.6915  -25.6290   21.1248 H   0  0  0  0  0  0
  -19.6695  -27.3192   20.6750 H   0  0  0  0  0  0
  -17.4203  -26.6681   21.4014 H   0  0  0  0  0  0
  -18.0313  -26.0065   22.9012 H   0  0  0  0  0  0
  -19.7928  -30.7251   24.2293 H   0  0  0  0  0  0
  -17.5013  -31.6268   24.5168 H   0  0  0  0  0  0
  -15.5347  -30.2996   23.7646 H   0  0  0  0  0  0
  -15.8663  -28.0836   22.7049 H   0  0  0  0  0  0
  -24.5905  -30.7098   25.7844 H   0  0  0  0  0  0
  -24.8990  -32.2888   26.4972 H   0  0  0  0  0  0
  -25.8117  -30.8870   27.0232 H   0  0  0  0  0  0
  -26.2855  -29.6788   24.1191 H   0  0  0  0  0  0
  -27.4067  -29.7275   25.4609 H   0  0  0  0  0  0
  -27.8706  -30.4329   23.9295 H   0  0  0  0  0  0
  -27.2677  -33.3617   26.2099 H   0  0  0  0  0  0
  -28.3861  -32.6905   25.0316 H   0  0  0  0  0  0
  -28.0747  -31.8439   26.5395 H   0  0  0  0  0  0
  -28.2605  -38.0100   24.7500 H   0  0  0  0  0  0
  -28.1064  -36.2631   24.6287 H   0  0  0  0  0  0
  -27.2301  -37.1466   25.8866 H   0  0  0  0  0  0
  -20.9311  -29.8761   21.6951 H   0  0  0  0  0  0
  -26.0175  -38.2867   24.1410 H   0  0  0  0  0  0
  -31.5678  -20.3868   21.2954 H   0  0  0  0  0  0
  -23.6931  -23.1427   18.4135 H   0  0  0  0  0  0
  -24.6912  -23.2768   19.8563 H   0  0  0  0  0  0
  -23.7895  -21.7930   19.5391 H   0  0  0  0  0  0
  -31.8084  -22.4571   21.5023 H   0  0  0  0  0  0
  -30.1843  -22.7190   22.1325 H   0  0  0  0  0  0
  -31.0433  -23.9821   21.2616 H   0  0  0  0  0  0
  -32.1614  -21.8200   19.0950 H   0  0  0  0  0  0
  -31.7666  -23.4957   18.8013 H   0  0  0  0  0  0
  -30.9494  -22.2355   17.8921 H   0  0  0  0  0  0
  -28.3300  -16.0418   22.1303 H   0  0  0  0  0  0
  -29.8496  -16.8746   22.4770 H   0  0  0  0  0  0
  -29.6880  -15.1789   22.8549 H   0  0  0  0  0  0
  -27.4875  -20.0296   17.6755 H   0  0  0  0  0  0
  -28.2330  -21.5482   17.7722 H   0  0  0  0  0  0
  -30.5089  -16.5010   18.9447 H   0  0  0  0  0  0
  -28.8077  -16.3528   19.1703 H   0  0  0  0  0  0
  -26.0870  -22.8672   17.8118 H   0  0  0  0  0  0
  -25.1900  -21.4045   17.4755 H   0  0  0  0  0  0
  -26.8321  -21.8357   20.0193 H   0  0  0  0  0  0
  -26.0359  -20.3596   19.5759 H   0  0  0  0  0  0
  -28.0576  -23.4782   21.3930 H   0  0  0  0  0  0
  -27.1694  -24.1598   20.0779 H   0  0  0  0  0  0
  -29.7545  -24.4044   19.2149 H   0  0  0  0  0  0
  -28.6546  -23.3149   18.5984 H   0  0  0  0  0  0
  -29.4739  -25.6219   21.4534 H   0  0  0  0  0  0
  -27.8101  -25.8157   21.8846 H   0  0  0  0  0  0
  1 25  1  0  0  0
  1 30  2  0  0  0
  1 89  1  0  0  0
  2  3  1  0  0  0
  2 25  1  0  0  0
  2 90  1  0  0  0
  2 91  1  0  0  0
  3  4  1  0  0  0
  3 92  1  0  0  0
  3 93  1  0  0  0
  4  5  1  0  0  0
  4 94  1  0  0  0
  4 95  1  0  0  0
  5  6  1  0  0  0
  5 26  1  0  0  0
  5 96  1  0  0  0
  6 25  1  0  0  0
  6 97  1  0  0  0
  6 98  1  0  0  0
  7  8  2  0  0  0
  7 26  1  0  0  0
  7 29  1  0  0  0
  8  9  1  0  0  0
  8 22  1  0  0  0
  9 10  1  0  0  0
  9 27  2  0  0  0
 10 11  2  0  0  0
 10 15  1  0  0  0
 11 12  1  0  0  0
 11 99  1  0  0  0
 12 13  2  0  0  0
 12100  1  0  0  0
 13 14  1  0  0  0
 13 31  1  0  0  0
 14 15  2  0  0  0
 14101  1  0  0  0
 15102  1  0  0  0
 16 17  2  0  0  0
 16 21  1  0  0  0
 16 31  1  0  0  0
 17 18  1  0  0  0
 17103  1  0  0  0
 18 19  2  0  0  0
 18104  1  0  0  0
 19 20  1  0  0  0
 19 24  1  0  0  0
 20 21  2  0  0  0
 20105  1  0  0  0
 21 23  1  0  0  0
 22 28  1  0  0  0
 22 32  2  0  0  0
 26 27  1  0  0  0
 28106  1  0  0  0
 28107  1  0  0  0
 29108  1  0  0  0
 29109  1  0  0  0
 33 34  1  0  0  0
 33 66  1  0  0  0
 33 70  2  0  0  0
 34 36  1  0  0  0
 34 59  1  0  0  0
 34110  1  0  0  0
 35 44  2  0  0  0
 35 45  1  0  0  0
 35 68  1  0  0  0
 36 56  1  0  0  0
 36111  1  0  0  0
 37 39  1  0  0  0
 37 47  1  0  0  0
 37 66  1  0  0  0
 37112  1  0  0  0
 38 43  2  0  0  0
 38 46  1  0  0  0
 38 47  1  0  0  0
 39 64  1  0  0  0
 39 67  2  0  0  0
 40 52  1  0  0  0
 40 53  2  0  0  0
 40 58  1  0  0  0
 41113  1  0  0  0
 41114  1  0  0  0
 41115  1  0  0  0
 41 48  1  0  0  0
 42 43  1  0  0  0
 42 66  1  0  0  0
 42116  1  0  0  0
 42117  1  0  0  0
 43 44  1  0  0  0
 44118  1  0  0  0
 45 46  2  0  0  0
 45119  1  0  0  0
 46120  1  0  0  0
 47121  1  0  0  0
 47122  1  0  0  0
 48 56  1  0  0  0
 48 65  1  0  0  0
 48123  1  0  0  0
 49 50  1  0  0  0
 49 53  1  0  0  0
 49 64  1  0  0  0
 49124  1  0  0  0
 50 51  1  0  0  0
 50125  1  0  0  0
 50126  1  0  0  0
 51 52  1  0  0  0
 51127  1  0  0  0
 51128  1  0  0  0
 52129  1  0  0  0
 52130  1  0  0  0
 53 54  1  0  0  0
 54 55  2  0  0  0
 54131  1  0  0  0
 55 57  1  0  0  0
 55132  1  0  0  0
 56 69  2  0  0  0
 57 58  2  0  0  0
 57133  1  0  0  0
 58134  1  0  0  0
 59 60  1  0  0  0
 59 61  1  0  0  0
 59 62  1  0  0  0
 60135  1  0  0  0
 60136  1  0  0  0
 60137  1  0  0  0
 61138  1  0  0  0
 61139  1  0  0  0
 61140  1  0  0  0
 62141  1  0  0  0
 62142  1  0  0  0
 62143  1  0  0  0
 63 65  1  0  0  0
 63144  1  0  0  0
 63145  1  0  0  0
 63146  1  0  0  0
 64147  1  0  0  0
 65148  1  0  0  0
 68 85  1  0  0  0
 71 72  2  0  0  0
 71 87  1  0  0  0
 71149  1  0  0  0
 72 73  1  0  0  0
 72 86  1  0  0  0
 73 79  1  0  0  0
 73 88  2  0  0  0
 74 80  1  0  0  0
 74 87  2  0  0  0
 74 88  1  0  0  0
 75 81  1  0  0  0
 75150  1  0  0  0
 75151  1  0  0  0
 75152  1  0  0  0
 76153  1  0  0  0
 76154  1  0  0  0
 76155  1  0  0  0
 76 86  1  0  0  0
 77 86  1  0  0  0
 77156  1  0  0  0
 77157  1  0  0  0
 77158  1  0  0  0
 78 89  1  0  0  0
 78159  1  0  0  0
 78160  1  0  0  0
 78161  1  0  0  0
 79 82  1  0  0  0
 79162  1  0  0  0
 79163  1  0  0  0
 80 89  1  0  0  0
 80164  1  0  0  0
 80165  1  0  0  0
 81 82  1  0  0  0
 81166  1  0  0  0
 81167  1  0  0  0
 82168  1  0  0  0
 82169  1  0  0  0
 83 84  1  0  0  0
 83 85  1  0  0  0
 83170  1  0  0  0
 83171  1  0  0  0
 84 86  1  0  0  0
 84172  1  0  0  0
 84173  1  0  0  0
 85174  1  0  0  0
 85175  1  0  0  0
M  ISO  4   1 100  68 101  85 101  89 100
M  END
> <chiral flag>
0

> <version>
0

> <s_m_source_file>
/data/baiqing/PycharmProjects/Reinvent-master-3.2/result/LINK_invent/BTK/process_docking_weight1_custom_sum_contain_oxygen_bond_distance_aromatic_linkinvent_7_9_3/rearranged_h_0070.sdf

> <i_m_source_file_index>
67

> <r_mmod_Potential_Energy-OPLS-2005>
-239.788345336914

> <r_mmod_Stretch_Energy-OPLS-2005>
54.7127494812012

> <r_mmod_Bend_Energy-OPLS-2005>
165.114471435547

> <r_mmod_Torsional_Energy-OPLS-2005>
319.179138183594

> <r_mmod_Improper_Torsional_Energy-OPLS-2005>
14.1816930770874

> <r_mmod_Van_der_Waal_Energy-OPLS-2005>
156.886856079102

> <r_mmod_Electrostatic_Energy-OPLS-2005>
-763.073913574219

> <r_mmod_Solvation_Energy-OPLS-2005>
-203.802886962891

> <b_mmod_Minimization_Converged-OPLS-2005>
0

> <r_mmod_RMS_Derivative-OPLS-2005>
1.92399191856384

$$$$
67
                    3D
 Structure written by MMmdl.
168177  0  0  1  0            999 V2000
  -30.5958  -14.8524   20.3834 C   0  0  0  0  0  0
  -30.4356  -12.5139   19.4883 C   0  0  0  0  0  0
  -29.5170  -12.4943   18.2449 C   0  0  0  0  0  0
  -28.0434  -12.3116   18.6591 C   0  0  0  0  0  0
  -27.6275  -13.2412   19.8295 C   0  0  2  0  0  0
  -28.6747  -13.2618   20.9598 C   0  0  0  0  0  0
  -25.2478  -13.8199   20.5773 C   0  0  0  0  0  0
  -24.1773  -13.0425   20.9216 C   0  0  0  0  0  0
  -24.6381  -11.6911   20.8728 C   0  0  0  0  0  0
  -23.9071  -10.4283   21.0394 C   0  0  0  0  0  0
  -24.3624   -9.4206   21.9176 C   0  0  0  0  0  0
  -23.6299   -8.2244   22.0753 C   0  0  0  0  0  0
  -22.4280   -8.0278   21.3547 C   0  0  0  0  0  0
  -21.9914   -9.0250   20.4650 C   0  0  0  0  0  0
  -22.7242  -10.2126   20.3053 C   0  0  0  0  0  0
  -21.6854   -6.0737   22.5281 C   0  0  0  0  0  0
  -21.4011   -6.5640   23.8213 C   0  0  0  0  0  0
  -21.3660   -5.6793   24.9176 C   0  0  0  0  0  0
  -21.6046   -4.3057   24.7227 C   0  0  0  0  0  0
  -21.8818   -3.8149   23.4348 C   0  0  0  0  0  0
  -21.9192   -4.6966   22.3405 C   0  0  0  0  0  0
  -22.7800  -13.5209   21.1885 C   0  0  0  0  0  0
  -22.1662   -4.2152   21.0981 F   0  0  0  0  0  0
  -21.5633   -3.4538   25.7740 F   0  0  0  0  0  0
  -29.9694  -13.6158   20.3671 N   0  0  0  0  0  0
  -26.2882  -12.9420   20.3233 N   0  0  0  0  0  0
  -25.9309  -11.6554   20.5708 N   0  0  0  0  0  0
  -22.0448  -12.8191   22.0436 N   0  0  0  0  0  0
  -25.4178  -15.1937   20.4390 N   0  0  0  0  0  0
  -31.8198  -14.8828   20.2332 O   0  0  0  0  0  0
  -21.6642   -6.8879   21.4244 O   0  0  0  0  0  0
  -22.3487  -14.5521   20.6742 O   0  0  0  0  0  0
  -24.6389  -31.8501   23.1940 C   0  0  0  0  0  0
  -25.9190  -32.4725   23.8304 C   0  0  1  0  0  0
  -27.2128  -27.1927   20.1365 C   0  0  0  0  0  0
  -25.5962  -33.8527   24.2223 N   0  0  0  0  0  0
  -23.4383  -30.4736   21.5392 C   0  0  2  0  0  0
  -24.8853  -28.9146   20.1081 C   0  0  0  0  0  0
  -22.7541  -29.4583   22.4881 C   0  0  0  0  0  0
  -18.0301  -28.1393   22.8484 C   0  0  0  0  0  0
  -24.1488  -36.7261   23.2639 C   0  0  0  0  0  0
  -25.9916  -30.7412   21.3857 C   0  0  0  0  0  0
  -26.0622  -29.3595   20.7241 C   0  0  0  0  0  0
  -27.2280  -28.5135   20.7247 C   0  0  0  0  0  0
  -26.0097  -26.8423   19.4797 C   0  0  0  0  0  0
  -24.8690  -27.6669   19.4720 C   0  0  0  0  0  0
  -23.6604  -29.8102   20.1554 C   0  0  0  0  0  0
  -25.4115  -36.3046   24.0323 C   0  0  1  0  0  0
  -20.5910  -28.3714   23.1247 C   0  0  2  0  0  0
  -20.6787  -26.9425   22.5402 C   0  0  0  0  0  0
  -19.5759  -26.6386   21.5211 C   0  0  0  0  0  0
  -18.1940  -26.7936   22.1625 C   0  0  0  0  0  0
  -19.1557  -28.8872   23.2860 C   0  0  0  0  0  0
  -18.9475  -30.1469   23.8883 C   0  0  0  0  0  0
  -17.6472  -30.6593   24.0560 C   0  0  0  0  0  0
  -25.9071  -34.9423   23.5078 C   0  0  0  0  0  0
  -16.5362  -29.9086   23.6338 C   0  0  0  0  0  0
  -16.7286  -28.6502   23.0362 C   0  0  0  0  0  0
  -26.4529  -31.6574   25.0721 C   0  0  0  0  0  0
  -25.3730  -31.3754   26.1427 C   0  0  0  0  0  0
  -27.0386  -30.2975   24.6270 C   0  0  0  0  0  0
  -27.6066  -32.4331   25.7502 C   0  0  0  0  0  0
  -27.5575  -37.1780   24.8463 C   0  0  0  0  0  0
  -21.4240  -29.3050   22.3626 N   0  0  0  0  0  0
  -26.4279  -37.3759   23.9419 N   0  0  0  0  0  0
  -24.7091  -31.0411   22.0950 N   0  0  0  0  0  0
  -23.4210  -28.8127   23.3008 O   0  0  0  0  0  0
  -28.2705  -26.2286   20.2099 O   0  0  0  0  0  0
  -26.5639  -34.8915   22.4643 O   0  0  0  0  0  0
  -23.5525  -32.1352   23.7199 O   0  0  0  0  0  0
  -29.9602  -17.5082   20.7648 C   0  0  0  0  0  0
  -29.8305  -16.2265   20.1708 C   0  0  0  0  0  0
  -28.8307  -17.7841   18.8818 C   0  0  0  0  0  0
  -28.7527  -20.8002   21.4153 C   0  0  0  0  0  0
  -29.8476  -21.0605   19.2542 C   0  0  0  0  0  0
  -28.1315  -22.2804   21.2626 C   0  0  0  0  0  0
  -29.2314  -22.5302   19.0829 C   0  0  0  0  0  0
  -28.9621  -20.0422   20.0613 C   0  0  1  0  0  0
  -28.8618  -23.3842   20.3690 C   0  0  2  0  0  0
  -30.1426  -23.8439   21.0833 C   0  0  0  0  0  0
  -26.1137  -16.7245   17.3324 C   0  0  0  0  0  0
  -28.1088  -18.3171   17.6712 C   0  0  0  0  0  0
  -27.9392  -24.7384   20.0518 C   0  0  0  0  0  0
  -26.5817  -18.1363   17.7148 C   0  0  0  0  0  0
  -29.2705  -18.4764   19.9706 N   0  0  0  0  0  0
  -29.1615  -16.4800   19.0073 N   0  3  0  0  0  0
  -31.4754  -12.6419   19.1826 H   0  0  0  0  0  0
  -30.3942  -11.5600   20.0167 H   0  0  0  0  0  0
  -29.8158  -11.6907   17.5702 H   0  0  0  0  0  0
  -29.6330  -13.4210   17.6822 H   0  0  0  0  0  0
  -27.9178  -11.2697   18.9562 H   0  0  0  0  0  0
  -27.3856  -12.4626   17.8020 H   0  0  0  0  0  0
  -27.5863  -14.2427   19.4069 H   0  0  0  0  0  0
  -28.7312  -12.2937   21.4595 H   0  0  0  0  0  0
  -28.3964  -13.9896   21.7239 H   0  0  0  0  0  0
  -25.2768   -9.5688   22.4751 H   0  0  0  0  0  0
  -24.0012   -7.4639   22.7472 H   0  0  0  0  0  0
  -21.0845   -8.8767   19.8961 H   0  0  0  0  0  0
  -22.3696  -10.9665   19.6164 H   0  0  0  0  0  0
  -21.1995   -7.6146   23.9716 H   0  0  0  0  0  0
  -21.1486   -6.0523   25.9079 H   0  0  0  0  0  0
  -22.0596   -2.7611   23.2844 H   0  0  0  0  0  0
  -22.4059  -11.9837   22.4799 H   0  0  0  0  0  0
  -21.1078  -13.1227   22.2670 H   0  0  0  0  0  0
  -24.6505  -15.8426   20.5729 H   0  0  0  0  0  0
  -26.2828  -15.6518   20.1914 H   0  0  0  0  0  0
  -26.7253  -32.5349   23.1033 H   0  0  0  0  0  0
  -25.0125  -33.9651   25.0381 H   0  0  0  0  0  0
  -22.7382  -31.2985   21.3915 H   0  0  0  0  0  0
  -23.3764  -35.9578   23.3281 H   0  0  0  0  0  0
  -24.3586  -36.8908   22.2060 H   0  0  0  0  0  0
  -23.7226  -37.6446   23.6681 H   0  0  0  0  0  0
  -26.1437  -31.5008   20.6175 H   0  0  0  0  0  0
  -26.8633  -30.7862   22.0267 H   0  0  0  0  0  0
  -28.1232  -28.8477   21.2300 H   0  0  0  0  0  0
  -25.9055  -25.8933   18.9780 H   0  0  0  0  0  0
  -23.9712  -27.3217   18.9775 H   0  0  0  0  0  0
  -23.7925  -30.5880   19.4026 H   0  0  0  0  0  0
  -22.7758  -29.2510   19.8456 H   0  0  0  0  0  0
  -25.1301  -36.1876   25.0816 H   0  0  0  0  0  0
  -21.0005  -28.3299   24.1366 H   0  0  0  0  0  0
  -20.5688  -26.2329   23.3616 H   0  0  0  0  0  0
  -21.6654  -26.7443   22.1195 H   0  0  0  0  0  0
  -19.6922  -25.6292   21.1253 H   0  0  0  0  0  0
  -19.6695  -27.3185   20.6731 H   0  0  0  0  0  0
  -17.4211  -26.6685   21.4025 H   0  0  0  0  0  0
  -18.0339  -26.0079   22.9023 H   0  0  0  0  0  0
  -19.7951  -30.7288   24.2246 H   0  0  0  0  0  0
  -17.5027  -31.6273   24.5160 H   0  0  0  0  0  0
  -15.5363  -30.2981   23.7672 H   0  0  0  0  0  0
  -15.8687  -28.0812   22.7090 H   0  0  0  0  0  0
  -24.5910  -30.7098   25.7755 H   0  0  0  0  0  0
  -24.8916  -32.2935   26.4804 H   0  0  0  0  0  0
  -25.8026  -30.8963   27.0232 H   0  0  0  0  0  0
  -26.2990  -29.6706   24.1271 H   0  0  0  0  0  0
  -27.4011  -29.7265   25.4828 H   0  0  0  0  0  0
  -27.8899  -30.4224   23.9574 H   0  0  0  0  0  0
  -27.2659  -33.3646   26.2036 H   0  0  0  0  0  0
  -28.3897  -32.6866   25.0344 H   0  0  0  0  0  0
  -28.0710  -31.8486   26.5454 H   0  0  0  0  0  0
  -28.2572  -38.0097   24.7536 H   0  0  0  0  0  0
  -28.1092  -36.2629   24.6252 H   0  0  0  0  0  0
  -27.2305  -37.1386   25.8869 H   0  0  0  0  0  0
  -20.9438  -29.8772   21.6820 H   0  0  0  0  0  0
  -26.0149  -38.2826   24.1438 H   0  0  0  0  0  0
  -30.4873  -17.7907   21.6641 H   0  0  0  0  0  0
  -28.0908  -20.2085   22.0485 H   0  0  0  0  0  0
  -29.7007  -20.8547   21.9517 H   0  0  0  0  0  0
  -30.8242  -21.1360   19.7337 H   0  0  0  0  0  0
  -30.0551  -20.6583   18.2634 H   0  0  0  0  0  0
  -27.9812  -22.6924   22.2614 H   0  0  0  0  0  0
  -27.1234  -22.1565   20.8640 H   0  0  0  0  0  0
  -28.3254  -22.4219   18.4848 H   0  0  0  0  0  0
  -29.9056  -23.1187   18.4591 H   0  0  0  0  0  0
  -27.9687  -20.1103   19.6181 H   0  0  0  0  0  0
  -30.7919  -23.0065   21.3388 H   0  0  0  0  0  0
  -29.9059  -24.3697   22.0089 H   0  0  0  0  0  0
  -30.7170  -24.5279   20.4580 H   0  0  0  0  0  0
  -25.0257  -16.6550   17.3693 H   0  0  0  0  0  0
  -26.5110  -15.9673   18.0053 H   0  0  0  0  0  0
  -26.4244  -16.4656   16.3195 H   0  0  0  0  0  0
  -28.5341  -17.8216   16.7978 H   0  0  0  0  0  0
  -28.3592  -19.3686   17.5544 H   0  0  0  0  0  0
  -27.0247  -24.5954   20.6289 H   0  0  0  0  0  0
  -27.6303  -24.6264   19.0129 H   0  0  0  0  0  0
  -26.1933  -18.4210   18.6937 H   0  0  0  0  0  0
  -26.1357  -18.8323   17.0032 H   0  0  0  0  0  0
  -29.0233  -15.7927   18.2773 H   0  0  0  0  0  0
  1 25  1  0  0  0
  1 30  2  0  0  0
  1 72  1  0  0  0
  2  3  1  0  0  0
  2 25  1  0  0  0
  2 87  1  0  0  0
  2 88  1  0  0  0
  3  4  1  0  0  0
  3 89  1  0  0  0
  3 90  1  0  0  0
  4  5  1  0  0  0
  4 91  1  0  0  0
  4 92  1  0  0  0
  5  6  1  0  0  0
  5 26  1  0  0  0
  5 93  1  0  0  0
  6 25  1  0  0  0
  6 94  1  0  0  0
  6 95  1  0  0  0
  7  8  2  0  0  0
  7 26  1  0  0  0
  7 29  1  0  0  0
  8  9  1  0  0  0
  8 22  1  0  0  0
  9 10  1  0  0  0
  9 27  2  0  0  0
 10 11  2  0  0  0
 10 15  1  0  0  0
 11 12  1  0  0  0
 11 96  1  0  0  0
 12 13  2  0  0  0
 12 97  1  0  0  0
 13 14  1  0  0  0
 13 31  1  0  0  0
 14 15  2  0  0  0
 14 98  1  0  0  0
 15 99  1  0  0  0
 16 17  2  0  0  0
 16 21  1  0  0  0
 16 31  1  0  0  0
 17 18  1  0  0  0
 17100  1  0  0  0
 18 19  2  0  0  0
 18101  1  0  0  0
 19 20  1  0  0  0
 19 24  1  0  0  0
 20 21  2  0  0  0
 20102  1  0  0  0
 21 23  1  0  0  0
 22 28  1  0  0  0
 22 32  2  0  0  0
 26 27  1  0  0  0
 28103  1  0  0  0
 28104  1  0  0  0
 29105  1  0  0  0
 29106  1  0  0  0
 33 34  1  0  0  0
 33 66  1  0  0  0
 33 70  2  0  0  0
 34 36  1  0  0  0
 34 59  1  0  0  0
 34107  1  0  0  0
 35 44  2  0  0  0
 35 45  1  0  0  0
 35 68  1  0  0  0
 36 56  1  0  0  0
 36108  1  0  0  0
 37 39  1  0  0  0
 37 47  1  0  0  0
 37 66  1  0  0  0
 37109  1  0  0  0
 38 43  2  0  0  0
 38 46  1  0  0  0
 38 47  1  0  0  0
 39 64  1  0  0  0
 39 67  2  0  0  0
 40 52  1  0  0  0
 40 53  2  0  0  0
 40 58  1  0  0  0
 41110  1  0  0  0
 41111  1  0  0  0
 41112  1  0  0  0
 41 48  1  0  0  0
 42 43  1  0  0  0
 42 66  1  0  0  0
 42113  1  0  0  0
 42114  1  0  0  0
 43 44  1  0  0  0
 44115  1  0  0  0
 45 46  2  0  0  0
 45116  1  0  0  0
 46117  1  0  0  0
 47118  1  0  0  0
 47119  1  0  0  0
 48 56  1  0  0  0
 48 65  1  0  0  0
 48120  1  0  0  0
 49 50  1  0  0  0
 49 53  1  0  0  0
 49 64  1  0  0  0
 49121  1  0  0  0
 50 51  1  0  0  0
 50122  1  0  0  0
 50123  1  0  0  0
 51 52  1  0  0  0
 51124  1  0  0  0
 51125  1  0  0  0
 52126  1  0  0  0
 52127  1  0  0  0
 53 54  1  0  0  0
 54 55  2  0  0  0
 54128  1  0  0  0
 55 57  1  0  0  0
 55129  1  0  0  0
 56 69  2  0  0  0
 57 58  2  0  0  0
 57130  1  0  0  0
 58131  1  0  0  0
 59 60  1  0  0  0
 59 61  1  0  0  0
 59 62  1  0  0  0
 60132  1  0  0  0
 60133  1  0  0  0
 60134  1  0  0  0
 61135  1  0  0  0
 61136  1  0  0  0
 61137  1  0  0  0
 62138  1  0  0  0
 62139  1  0  0  0
 62140  1  0  0  0
 63 65  1  0  0  0
 63141  1  0  0  0
 63142  1  0  0  0
 63143  1  0  0  0
 64144  1  0  0  0
 65145  1  0  0  0
 68 83  1  0  0  0
 71 72  2  0  0  0
 71 85  1  0  0  0
 71146  1  0  0  0
 72 86  1  0  0  0
 73 82  1  0  0  0
 73 85  1  0  0  0
 73 86  2  0  0  0
 74 76  1  0  0  0
 74 78  1  0  0  0
 74147  1  0  0  0
 74148  1  0  0  0
 75 77  1  0  0  0
 75 78  1  0  0  0
 75149  1  0  0  0
 75150  1  0  0  0
 76 79  1  0  0  0
 76151  1  0  0  0
 76152  1  0  0  0
 77 79  1  0  0  0
 77153  1  0  0  0
 77154  1  0  0  0
 78 85  1  0  0  0
 78155  1  0  0  0
 79 80  1  0  0  0
 79 83  1  0  0  0
 80156  1  0  0  0
 80157  1  0  0  0
 80158  1  0  0  0
 81 84  1  0  0  0
 81159  1  0  0  0
 81160  1  0  0  0
 81161  1  0  0  0
 82 84  1  0  0  0
 82162  1  0  0  0
 82163  1  0  0  0
 83164  1  0  0  0
 83165  1  0  0  0
 84166  1  0  0  0
 84167  1  0  0  0
 86168  1  0  0  0
M  CHG  1  86   1
M  ISO  4   1 100  68 101  72 100  83 101
M  END
> <chiral flag>
0

> <version>
0

> <s_m_source_file>
/data/baiqing/PycharmProjects/Reinvent-master-3.2/result/LINK_invent/BTK/process_docking_weight1_custom_sum_contain_oxygen_bond_distance_aromatic_linkinvent_7_9_3/rearranged_h_0070.sdf

> <i_m_source_file_index>
68

> <r_mmod_Potential_Energy-OPLS-2005>
421.576690673828

> <r_mmod_Stretch_Energy-OPLS-2005>
177.60107421875

> <r_mmod_Bend_Energy-OPLS-2005>
243.163436889648

> <r_mmod_Torsional_Energy-OPLS-2005>
314.859710693359

> <r_mmod_Improper_Torsional_Energy-OPLS-2005>
12.4743413925171

> <r_mmod_Van_der_Waal_Energy-OPLS-2005>
106.361000061035

> <r_mmod_Electrostatic_Energy-OPLS-2005>
-177.816528320312

> <r_mmod_Solvation_Energy-OPLS-2005>
-399.981750488281

> <b_mmod_Minimization_Converged-OPLS-2005>
0

> <r_mmod_RMS_Derivative-OPLS-2005>
0.644056618213654

$$$$
68
                    3D
 Structure written by MMmdl.
172180  0  0  1  0            999 V2000
  -30.7732  -14.5982   20.3017 C   0  0  0  0  0  0
  -30.3934  -12.3482   19.4310 C   0  0  0  0  0  0
  -29.4701  -12.3690   18.2049 C   0  0  0  0  0  0
  -27.9943  -12.3018   18.6420 C   0  0  0  0  0  0
  -27.6344  -13.2271   19.8428 C   0  0  2  0  0  0
  -28.7073  -13.2256   20.9414 C   0  0  0  0  0  0
  -25.2515  -13.8227   20.5817 C   0  0  0  0  0  0
  -24.1791  -13.0458   20.9262 C   0  0  0  0  0  0
  -24.6385  -11.6941   20.8822 C   0  0  0  0  0  0
  -23.9069  -10.4306   21.0442 C   0  0  0  0  0  0
  -24.3620   -9.4208   21.9206 C   0  0  0  0  0  0
  -23.6298   -8.2239   22.0759 C   0  0  0  0  0  0
  -22.4281   -8.0282   21.3541 C   0  0  0  0  0  0
  -21.9924   -9.0265   20.4647 C   0  0  0  0  0  0
  -22.7252  -10.2148   20.3074 C   0  0  0  0  0  0
  -21.6851   -6.0738   22.5277 C   0  0  0  0  0  0
  -21.4011   -6.5639   23.8212 C   0  0  0  0  0  0
  -21.3661   -5.6790   24.9171 C   0  0  0  0  0  0
  -21.6048   -4.3055   24.7221 C   0  0  0  0  0  0
  -21.8818   -3.8148   23.4341 C   0  0  0  0  0  0
  -21.9191   -4.6966   22.3399 C   0  0  0  0  0  0
  -22.7802  -13.5232   21.1868 C   0  0  0  0  0  0
  -22.1659   -4.2155   21.0975 F   0  0  0  0  0  0
  -21.5635   -3.4540   25.7736 F   0  0  0  0  0  0
  -29.9900  -13.4800   20.2802 N   0  0  0  0  0  0
  -26.2948  -12.9430   20.3447 N   0  0  0  0  0  0
  -25.9326  -11.6575   20.5917 N   0  0  0  0  0  0
  -22.0436  -12.8226   22.0416 N   0  0  0  0  0  0
  -25.4174  -15.1952   20.4286 N   0  0  0  0  0  0
  -31.9755  -14.4156   20.4683 O   0  0  0  0  0  0
  -21.6636   -6.8885   21.4242 O   0  0  0  0  0  0
  -22.3481  -14.5520   20.6688 O   0  0  0  0  0  0
  -24.6180  -31.8653   23.2075 C   0  0  0  0  0  0
  -25.9060  -32.4808   23.8383 C   0  0  1  0  0  0
  -27.2185  -27.3993   20.1150 C   0  0  0  0  0  0
  -25.5904  -33.8608   24.2313 N   0  0  0  0  0  0
  -23.4070  -30.4890   21.5487 C   0  0  2  0  0  0
  -24.8528  -28.9524   20.1116 C   0  0  0  0  0  0
  -22.7425  -29.4648   22.4976 C   0  0  0  0  0  0
  -18.0275  -28.1379   22.8494 C   0  0  0  0  0  0
  -24.1486  -36.7308   23.2639 C   0  0  0  0  0  0
  -25.9389  -30.8239   21.3628 C   0  0  0  0  0  0
  -26.0161  -29.4568   20.7082 C   0  0  0  0  0  0
  -27.2077  -28.6898   20.7009 C   0  0  0  0  0  0
  -26.0433  -26.9188   19.5038 C   0  0  0  0  0  0
  -24.8636  -27.6861   19.5011 C   0  0  0  0  0  0
  -23.6162  -29.8224   20.1628 C   0  0  0  0  0  0
  -25.4109  -36.3101   24.0335 C   0  0  1  0  0  0
  -20.5868  -28.3669   23.1310 C   0  0  2  0  0  0
  -20.6765  -26.9402   22.5417 C   0  0  0  0  0  0
  -19.5743  -26.6385   21.5215 C   0  0  0  0  0  0
  -18.1920  -26.7927   22.1624 C   0  0  0  0  0  0
  -19.1526  -28.8843   23.2898 C   0  0  0  0  0  0
  -18.9452  -30.1449   23.8910 C   0  0  0  0  0  0
  -17.6453  -30.6586   24.0566 C   0  0  0  0  0  0
  -25.9038  -34.9467   23.5122 C   0  0  0  0  0  0
  -16.5345  -29.9087   23.6330 C   0  0  0  0  0  0
  -16.7265  -28.6504   23.0353 C   0  0  0  0  0  0
  -26.4478  -31.6595   25.0722 C   0  0  0  0  0  0
  -25.3738  -31.3705   26.1469 C   0  0  0  0  0  0
  -27.0309  -30.3035   24.6109 C   0  0  0  0  0  0
  -27.6058  -32.4312   25.7481 C   0  0  0  0  0  0
  -27.5581  -37.1806   24.8463 C   0  0  0  0  0  0
  -21.4150  -29.3032   22.3714 N   0  0  0  0  0  0
  -26.4291  -37.3789   23.9411 N   0  0  0  0  0  0
  -24.6733  -31.0738   22.0980 N   0  0  0  0  0  0
  -23.4186  -28.8189   23.3024 O   0  0  0  0  0  0
  -28.3372  -26.5899   20.1514 O   0  0  0  0  0  0
  -26.5604  -34.8921   22.4687 O   0  0  0  0  0  0
  -23.5366  -32.1413   23.7457 O   0  0  0  0  0  0
  -29.0863  -17.6851   20.9521 C   0  0  0  0  0  0
  -28.2394  -18.7634   20.5775 C   0  0  0  0  0  0
  -29.2169  -16.8774   19.8343 C   0  0  0  0  0  0
  -31.6500  -16.9536   20.0466 C   0  0  0  0  0  0
  -30.8893  -15.8338   18.0898 C   0  0  0  0  0  0
  -27.4088  -15.5783   17.2682 C   0  0  0  0  0  0
  -28.7630  -17.6037   16.4992 C   0  0  0  0  0  0
  -26.4032  -17.7772   17.2081 C   0  0  0  0  0  0
  -27.9598  -20.1109   21.2476 C   0  0  0  0  0  0
  -28.3347  -21.3661   20.3840 C   0  0  0  0  0  0
  -28.0951  -22.7558   21.0628 C   0  0  0  0  0  0
  -28.3364  -24.0243   20.1742 C   0  0  0  0  0  0
  -28.1777  -25.3784   20.9366 C   0  0  0  0  0  0
  -30.4873  -16.0038   19.5740 C   0  0  0  0  0  0
  -27.7489  -17.0553   17.5306 C   0  0  0  0  0  0
  -27.6358  -18.4661   19.4579 N   0  0  0  0  0  0
  -28.1965  -17.3352   18.9408 N   0  0  0  0  0  0
  -31.4343  -12.4047   19.1066 H   0  0  0  0  0  0
  -30.2965  -11.4084   19.9761 H   0  0  0  0  0  0
  -29.6966  -11.5186   17.5608 H   0  0  0  0  0  0
  -29.6577  -13.2449   17.5946 H   0  0  0  0  0  0
  -27.8061  -11.2641   18.9185 H   0  0  0  0  0  0
  -27.3366  -12.5057   17.7961 H   0  0  0  0  0  0
  -27.6201  -14.2481   19.4846 H   0  0  0  0  0  0
  -28.7301  -12.2726   21.4716 H   0  0  0  0  0  0
  -28.5005  -14.0004   21.6812 H   0  0  0  0  0  0
  -25.2760   -9.5685   22.4793 H   0  0  0  0  0  0
  -24.0008   -7.4624   22.7471 H   0  0  0  0  0  0
  -21.0863   -8.8790   19.8945 H   0  0  0  0  0  0
  -22.3715  -10.9698   19.6194 H   0  0  0  0  0  0
  -21.2000   -7.6145   23.9720 H   0  0  0  0  0  0
  -21.1486   -6.0517   25.9075 H   0  0  0  0  0  0
  -22.0598   -2.7612   23.2836 H   0  0  0  0  0  0
  -22.4055  -11.9904   22.4829 H   0  0  0  0  0  0
  -21.1041  -13.1237   22.2579 H   0  0  0  0  0  0
  -24.6494  -15.8437   20.5579 H   0  0  0  0  0  0
  -26.2755  -15.6560   20.1512 H   0  0  0  0  0  0
  -26.7131  -32.5510   23.1146 H   0  0  0  0  0  0
  -25.0059  -33.9768   25.0462 H   0  0  0  0  0  0
  -22.6971  -31.3069   21.4090 H   0  0  0  0  0  0
  -23.3746  -35.9643   23.3299 H   0  0  0  0  0  0
  -24.3580  -36.8930   22.2054 H   0  0  0  0  0  0
  -23.7236  -37.6511   23.6658 H   0  0  0  0  0  0
  -26.0534  -31.5897   20.5943 H   0  0  0  0  0  0
  -26.8259  -30.8774   21.9826 H   0  0  0  0  0  0
  -28.1044  -29.0686   21.1713 H   0  0  0  0  0  0
  -26.0361  -25.9404   19.0443 H   0  0  0  0  0  0
  -23.9691  -27.2924   19.0383 H   0  0  0  0  0  0
  -23.7253  -30.5976   19.4036 H   0  0  0  0  0  0
  -22.7390  -29.2440   19.8669 H   0  0  0  0  0  0
  -25.1285  -36.1965   25.0827 H   0  0  0  0  0  0
  -20.9962  -28.3237   24.1429 H   0  0  0  0  0  0
  -20.5673  -26.2274   23.3605 H   0  0  0  0  0  0
  -21.6636  -26.7444   22.1208 H   0  0  0  0  0  0
  -19.6904  -25.6298   21.1237 H   0  0  0  0  0  0
  -19.6685  -27.3204   20.6751 H   0  0  0  0  0  0
  -17.4192  -26.6681   21.4023 H   0  0  0  0  0  0
  -18.0316  -26.0066   22.9016 H   0  0  0  0  0  0
  -19.7925  -30.7264   24.2282 H   0  0  0  0  0  0
  -17.5005  -31.6269   24.5161 H   0  0  0  0  0  0
  -15.5345  -30.2993   23.7648 H   0  0  0  0  0  0
  -15.8662  -28.0828   22.7062 H   0  0  0  0  0  0
  -24.5900  -30.7069   25.7797 H   0  0  0  0  0  0
  -24.8944  -32.2863   26.4938 H   0  0  0  0  0  0
  -25.8086  -30.8848   27.0215 H   0  0  0  0  0  0
  -26.2856  -29.6793   24.1165 H   0  0  0  0  0  0
  -27.4078  -29.7277   25.4573 H   0  0  0  0  0  0
  -27.8691  -30.4353   23.9261 H   0  0  0  0  0  0
  -27.2690  -33.3612   26.2074 H   0  0  0  0  0  0
  -28.3858  -32.6873   25.0297 H   0  0  0  0  0  0
  -28.0734  -31.8422   26.5381 H   0  0  0  0  0  0
  -28.2597  -38.0106   24.7520 H   0  0  0  0  0  0
  -28.1080  -36.2639   24.6277 H   0  0  0  0  0  0
  -27.2300  -37.1445   25.8865 H   0  0  0  0  0  0
  -20.9312  -29.8755   21.6937 H   0  0  0  0  0  0
  -26.0178  -38.2865   24.1420 H   0  0  0  0  0  0
  -29.6996  -17.6536   21.8409 H   0  0  0  0  0  0
  -31.5343  -17.9628   19.6476 H   0  0  0  0  0  0
  -32.6406  -16.6277   19.7232 H   0  0  0  0  0  0
  -31.7027  -17.0399   21.1323 H   0  0  0  0  0  0
  -31.0853  -16.7946   17.6159 H   0  0  0  0  0  0
  -30.1660  -15.3072   17.4936 H   0  0  0  0  0  0
  -31.8117  -15.2606   17.9827 H   0  0  0  0  0  0
  -27.1820  -15.4104   16.2147 H   0  0  0  0  0  0
  -26.5242  -15.2722   17.8260 H   0  0  0  0  0  0
  -28.1994  -14.8929   17.5203 H   0  0  0  0  0  0
  -29.4469  -16.8445   16.1307 H   0  0  0  0  0  0
  -29.3470  -18.4287   16.9090 H   0  0  0  0  0  0
  -28.2675  -17.9835   15.6048 H   0  0  0  0  0  0
  -26.0213  -17.5016   16.2239 H   0  0  0  0  0  0
  -26.5076  -18.8633   17.1995 H   0  0  0  0  0  0
  -25.6253  -17.5252   17.9307 H   0  0  0  0  0  0
  -28.5064  -20.1597   22.1897 H   0  0  0  0  0  0
  -26.9054  -20.1664   21.5204 H   0  0  0  0  0  0
  -27.7635  -21.3273   19.4555 H   0  0  0  0  0  0
  -29.3829  -21.2908   20.0930 H   0  0  0  0  0  0
  -28.7303  -22.8215   21.9473 H   0  0  0  0  0  0
  -27.0697  -22.7897   21.4336 H   0  0  0  0  0  0
  -27.6441  -24.0045   19.3323 H   0  0  0  0  0  0
  -29.3374  -23.9798   19.7440 H   0  0  0  0  0  0
  -28.9290  -25.4177   21.7260 H   0  0  0  0  0  0
  -27.2204  -25.3759   21.4622 H   0  0  0  0  0  0
  1 25  1  0  0  0
  1 30  2  0  0  0
  1 84  1  0  0  0
  2  3  1  0  0  0
  2 25  1  0  0  0
  2 88  1  0  0  0
  2 89  1  0  0  0
  3  4  1  0  0  0
  3 90  1  0  0  0
  3 91  1  0  0  0
  4  5  1  0  0  0
  4 92  1  0  0  0
  4 93  1  0  0  0
  5  6  1  0  0  0
  5 26  1  0  0  0
  5 94  1  0  0  0
  6 25  1  0  0  0
  6 95  1  0  0  0
  6 96  1  0  0  0
  7  8  2  0  0  0
  7 26  1  0  0  0
  7 29  1  0  0  0
  8  9  1  0  0  0
  8 22  1  0  0  0
  9 10  1  0  0  0
  9 27  2  0  0  0
 10 11  2  0  0  0
 10 15  1  0  0  0
 11 12  1  0  0  0
 11 97  1  0  0  0
 12 13  2  0  0  0
 12 98  1  0  0  0
 13 14  1  0  0  0
 13 31  1  0  0  0
 14 15  2  0  0  0
 14 99  1  0  0  0
 15100  1  0  0  0
 16 17  2  0  0  0
 16 21  1  0  0  0
 16 31  1  0  0  0
 17 18  1  0  0  0
 17101  1  0  0  0
 18 19  2  0  0  0
 18102  1  0  0  0
 19 20  1  0  0  0
 19 24  1  0  0  0
 20 21  2  0  0  0
 20103  1  0  0  0
 21 23  1  0  0  0
 22 28  1  0  0  0
 22 32  2  0  0  0
 26 27  1  0  0  0
 28104  1  0  0  0
 28105  1  0  0  0
 29106  1  0  0  0
 29107  1  0  0  0
 33 34  1  0  0  0
 33 66  1  0  0  0
 33 70  2  0  0  0
 34 36  1  0  0  0
 34 59  1  0  0  0
 34108  1  0  0  0
 35 44  2  0  0  0
 35 45  1  0  0  0
 35 68  1  0  0  0
 36 56  1  0  0  0
 36109  1  0  0  0
 37 39  1  0  0  0
 37 47  1  0  0  0
 37 66  1  0  0  0
 37110  1  0  0  0
 38 43  2  0  0  0
 38 46  1  0  0  0
 38 47  1  0  0  0
 39 64  1  0  0  0
 39 67  2  0  0  0
 40 52  1  0  0  0
 40 53  2  0  0  0
 40 58  1  0  0  0
 41111  1  0  0  0
 41112  1  0  0  0
 41113  1  0  0  0
 41 48  1  0  0  0
 42 43  1  0  0  0
 42 66  1  0  0  0
 42114  1  0  0  0
 42115  1  0  0  0
 43 44  1  0  0  0
 44116  1  0  0  0
 45 46  2  0  0  0
 45117  1  0  0  0
 46118  1  0  0  0
 47119  1  0  0  0
 47120  1  0  0  0
 48 56  1  0  0  0
 48 65  1  0  0  0
 48121  1  0  0  0
 49 50  1  0  0  0
 49 53  1  0  0  0
 49 64  1  0  0  0
 49122  1  0  0  0
 50 51  1  0  0  0
 50123  1  0  0  0
 50124  1  0  0  0
 51 52  1  0  0  0
 51125  1  0  0  0
 51126  1  0  0  0
 52127  1  0  0  0
 52128  1  0  0  0
 53 54  1  0  0  0
 54 55  2  0  0  0
 54129  1  0  0  0
 55 57  1  0  0  0
 55130  1  0  0  0
 56 69  2  0  0  0
 57 58  2  0  0  0
 57131  1  0  0  0
 58132  1  0  0  0
 59 60  1  0  0  0
 59 61  1  0  0  0
 59 62  1  0  0  0
 60133  1  0  0  0
 60134  1  0  0  0
 60135  1  0  0  0
 61136  1  0  0  0
 61137  1  0  0  0
 61138  1  0  0  0
 62139  1  0  0  0
 62140  1  0  0  0
 62141  1  0  0  0
 63 65  1  0  0  0
 63142  1  0  0  0
 63143  1  0  0  0
 63144  1  0  0  0
 64145  1  0  0  0
 65146  1  0  0  0
 68 83  1  0  0  0
 71 72  1  0  0  0
 71 73  2  0  0  0
 71147  1  0  0  0
 72 79  1  0  0  0
 72 86  2  0  0  0
 73 84  1  0  0  0
 73 87  1  0  0  0
 74148  1  0  0  0
 74149  1  0  0  0
 74150  1  0  0  0
 74 84  1  0  0  0
 75 84  1  0  0  0
 75151  1  0  0  0
 75152  1  0  0  0
 75153  1  0  0  0
 76154  1  0  0  0
 76155  1  0  0  0
 76156  1  0  0  0
 76 85  1  0  0  0
 77 85  1  0  0  0
 77157  1  0  0  0
 77158  1  0  0  0
 77159  1  0  0  0
 78 85  1  0  0  0
 78160  1  0  0  0
 78161  1  0  0  0
 78162  1  0  0  0
 79 80  1  0  0  0
 79163  1  0  0  0
 79164  1  0  0  0
 80 81  1  0  0  0
 80165  1  0  0  0
 80166  1  0  0  0
 81 82  1  0  0  0
 81167  1  0  0  0
 81168  1  0  0  0
 82 83  1  0  0  0
 82169  1  0  0  0
 82170  1  0  0  0
 83171  1  0  0  0
 83172  1  0  0  0
 85 87  1  0  0  0
 86 87  1  0  0  0
M  ISO  4   1 100  68 101  83 101  84 100
M  END
> <chiral flag>
0

> <version>
0

> <s_m_source_file>
/data/baiqing/PycharmProjects/Reinvent-master-3.2/result/LINK_invent/BTK/process_docking_weight1_custom_sum_contain_oxygen_bond_distance_aromatic_linkinvent_7_9_3/rearranged_h_0070.sdf

> <i_m_source_file_index>
69

> <r_mmod_Potential_Energy-OPLS-2005>
328.321044921875

> <r_mmod_Stretch_Energy-OPLS-2005>
73.0633316040039

> <r_mmod_Bend_Energy-OPLS-2005>
208.731231689453

> <r_mmod_Torsional_Energy-OPLS-2005>
315.208648681641

> <r_mmod_Improper_Torsional_Energy-OPLS-2005>
22.9157447814941

> <r_mmod_Van_der_Waal_Energy-OPLS-2005>
149.429824829102

> <r_mmod_Electrostatic_Energy-OPLS-2005>
-354.074066162109

> <r_mmod_Solvation_Energy-OPLS-2005>
-170.557144165039

> <b_mmod_Minimization_Converged-OPLS-2005>
0

> <r_mmod_RMS_Derivative-OPLS-2005>
0.631437420845032

$$$$
69
                    3D
 Structure written by MMmdl.
171179  0  0  1  0            999 V2000
  -30.7844  -14.4802   20.5946 C   0  0  0  0  0  0
  -30.4064  -12.3196   19.4474 C   0  0  0  0  0  0
  -29.5039  -12.5104   18.2142 C   0  0  0  0  0  0
  -28.0196  -12.3961   18.6088 C   0  0  0  0  0  0
  -27.6649  -13.2259   19.8736 C   0  0  2  0  0  0
  -28.7103  -13.0488   21.0032 C   0  0  0  0  0  0
  -25.2544  -13.8161   20.5475 C   0  0  0  0  0  0
  -24.1857  -13.0465   20.9076 C   0  0  0  0  0  0
  -24.6441  -11.6939   20.8708 C   0  0  0  0  0  0
  -23.9097  -10.4352   21.0391 C   0  0  0  0  0  0
  -24.3660   -9.4280   21.9149 C   0  0  0  0  0  0
  -23.6340   -8.2307   22.0732 C   0  0  0  0  0  0
  -22.4296   -8.0342   21.3551 C   0  0  0  0  0  0
  -21.9923   -9.0328   20.4638 C   0  0  0  0  0  0
  -22.7264  -10.2202   20.3071 C   0  0  0  0  0  0
  -21.6906   -6.0774   22.5284 C   0  0  0  0  0  0
  -21.4022   -6.5646   23.8223 C   0  0  0  0  0  0
  -21.3643   -5.6773   24.9158 C   0  0  0  0  0  0
  -21.6042   -4.3050   24.7195 C   0  0  0  0  0  0
  -21.8819   -3.8162   23.4317 C   0  0  0  0  0  0
  -21.9228   -4.6989   22.3385 C   0  0  0  0  0  0
  -22.7896  -13.5255   21.1807 C   0  0  0  0  0  0
  -22.1676   -4.2167   21.0953 F   0  0  0  0  0  0
  -21.5657   -3.4529   25.7721 F   0  0  0  0  0  0
  -30.0399  -13.3385   20.4515 N   0  0  0  0  0  0
  -26.3061  -12.9387   20.3336 N   0  0  0  0  0  0
  -25.9409  -11.6544   20.5790 N   0  0  0  0  0  0
  -22.0626  -12.8313   22.0460 N   0  0  0  0  0  0
  -25.4181  -15.1855   20.3584 N   0  0  0  0  0  0
  -31.8607  -14.6070   20.0012 O   0  0  0  0  0  0
  -21.6633   -6.8953   21.4268 O   0  0  0  0  0  0
  -22.3516  -14.5527   20.6631 O   0  0  0  0  0  0
  -24.6203  -31.8622   23.2066 C   0  0  0  0  0  0
  -25.9073  -32.4784   23.8381 C   0  0  1  0  0  0
  -27.2451  -27.4193   20.0984 C   0  0  0  0  0  0
  -25.5901  -33.8589   24.2300 N   0  0  0  0  0  0
  -23.4101  -30.4877   21.5477 C   0  0  2  0  0  0
  -24.8561  -28.9508   20.1113 C   0  0  0  0  0  0
  -22.7434  -29.4635   22.4958 C   0  0  0  0  0  0
  -18.0254  -28.1428   22.8464 C   0  0  0  0  0  0
  -24.1470  -36.7346   23.2641 C   0  0  0  0  0  0
  -25.9377  -30.8313   21.3532 C   0  0  0  0  0  0
  -26.0154  -29.4605   20.7079 C   0  0  0  0  0  0
  -27.2113  -28.7062   20.6889 C   0  0  0  0  0  0
  -26.0664  -26.9298   19.4879 C   0  0  0  0  0  0
  -24.8804  -27.6891   19.4929 C   0  0  0  0  0  0
  -23.6191  -29.8200   20.1617 C   0  0  0  0  0  0
  -25.4083  -36.3099   24.0330 C   0  0  1  0  0  0
  -20.5849  -28.3707   23.1281 C   0  0  2  0  0  0
  -20.6751  -26.9434   22.5414 C   0  0  0  0  0  0
  -19.5725  -26.6415   21.5217 C   0  0  0  0  0  0
  -18.1900  -26.7957   22.1630 C   0  0  0  0  0  0
  -19.1512  -28.8875   23.2880 C   0  0  0  0  0  0
  -18.9436  -30.1464   23.8922 C   0  0  0  0  0  0
  -17.6440  -30.6614   24.0568 C   0  0  0  0  0  0
  -25.9021  -34.9457   23.5108 C   0  0  0  0  0  0
  -16.5326  -29.9137   23.6310 C   0  0  0  0  0  0
  -16.7240  -28.6565   23.0306 C   0  0  0  0  0  0
  -26.4492  -31.6566   25.0722 C   0  0  0  0  0  0
  -25.3730  -31.3682   26.1449 C   0  0  0  0  0  0
  -27.0295  -30.2993   24.6100 C   0  0  0  0  0  0
  -27.6077  -32.4270   25.7473 C   0  0  0  0  0  0
  -27.5562  -37.1817   24.8460 C   0  0  0  0  0  0
  -21.4149  -29.3067   22.3700 N   0  0  0  0  0  0
  -26.4266  -37.3789   23.9417 N   0  0  0  0  0  0
  -24.6758  -31.0722   22.0974 N   0  0  0  0  0  0
  -23.4189  -28.8155   23.3002 O   0  0  0  0  0  0
  -28.4363  -26.7136   20.1319 O   0  0  0  0  0  0
  -26.5612  -34.8927   22.4691 O   0  0  0  0  0  0
  -23.5374  -32.1366   23.7438 O   0  0  0  0  0  0
  -29.3190  -20.3021   23.7528 C   0  0  0  0  0  0
  -29.4014  -18.9374   23.7239 C   0  0  0  0  0  0
  -28.8538  -18.5933   22.4353 C   0  0  0  0  0  0
  -27.7877  -16.2809   22.7765 C   0  0  0  0  0  0
  -27.0240  -24.7817   22.1051 C   0  0  0  0  0  0
  -29.4782  -25.1765   22.3885 C   0  0  0  0  0  0
  -31.4305  -16.0898   22.2496 C   0  0  0  0  0  0
  -28.7214  -23.0048   21.3071 C   0  0  0  0  0  0
  -28.1122  -22.0770   22.3987 C   0  0  0  0  0  0
  -29.5269  -16.5687   20.8560 C   0  0  0  0  0  0
  -28.4664  -25.2673   20.0778 C   0  0  0  0  0  0
  -28.4745  -17.2432   21.7992 C   0  0  1  0  0  0
  -29.8796  -18.1323   24.9216 C   0  0  0  0  0  0
  -28.4112  -24.5478   21.4672 C   0  0  0  0  0  0
  -28.4780  -19.7005   21.7709 N   0  0  0  0  0  0
  -28.7029  -20.7441   22.6061 N   0  0  0  0  0  0
  -30.3657  -15.4809   21.4247 N   0  0  0  0  0  0
  -30.9948  -18.6911   25.3957 F   0  0  0  0  0  0
  -28.9498  -18.1925   25.8726 F   0  0  0  0  0  0
  -30.1386  -16.8538   24.6911 F   0  0  0  0  0  0
  -31.4569  -12.3652   19.1562 H   0  0  0  0  0  0
  -30.2643  -11.3232   19.8709 H   0  0  0  0  0  0
  -29.7426  -11.7726   17.4486 H   0  0  0  0  0  0
  -29.7011  -13.4850   17.7666 H   0  0  0  0  0  0
  -27.8032  -11.3417   18.7771 H   0  0  0  0  0  0
  -27.3888  -12.7010   17.7717 H   0  0  0  0  0  0
  -27.6955  -14.2694   19.5680 H   0  0  0  0  0  0
  -28.6833  -12.0273   21.3829 H   0  0  0  0  0  0
  -28.4886  -13.6842   21.8564 H   0  0  0  0  0  0
  -25.2804   -9.5835   22.4700 H   0  0  0  0  0  0
  -24.0110   -7.4704   22.7430 H   0  0  0  0  0  0
  -21.0857   -8.8920   19.8912 H   0  0  0  0  0  0
  -22.3748  -10.9809   19.6228 H   0  0  0  0  0  0
  -21.1955   -7.6125   23.9754 H   0  0  0  0  0  0
  -21.1438   -6.0465   25.9081 H   0  0  0  0  0  0
  -22.0580   -2.7616   23.2807 H   0  0  0  0  0  0
  -22.4244  -11.9993   22.4896 H   0  0  0  0  0  0
  -21.1310  -13.1492   22.2742 H   0  0  0  0  0  0
  -24.6450  -15.8348   20.4384 H   0  0  0  0  0  0
  -26.2561  -15.6051   19.9797 H   0  0  0  0  0  0
  -26.7160  -32.5487   23.1166 H   0  0  0  0  0  0
  -25.0015  -33.9735   25.0418 H   0  0  0  0  0  0
  -22.7028  -31.3084   21.4070 H   0  0  0  0  0  0
  -23.3699  -35.9718   23.3298 H   0  0  0  0  0  0
  -24.3566  -36.8976   22.2059 H   0  0  0  0  0  0
  -23.7241  -37.6564   23.6650 H   0  0  0  0  0  0
  -26.0245  -31.5832   20.5672 H   0  0  0  0  0  0
  -26.8393  -30.9067   21.9509 H   0  0  0  0  0  0
  -28.1124  -29.1021   21.1364 H   0  0  0  0  0  0
  -26.0389  -25.9764   18.9841 H   0  0  0  0  0  0
  -23.9967  -27.2986   19.0086 H   0  0  0  0  0  0
  -23.7335  -30.5978   19.4056 H   0  0  0  0  0  0
  -22.7428  -29.2450   19.8559 H   0  0  0  0  0  0
  -25.1238  -36.1985   25.0817 H   0  0  0  0  0  0
  -20.9918  -28.3306   24.1406 H   0  0  0  0  0  0
  -20.5634  -26.2340   23.3629 H   0  0  0  0  0  0
  -21.6624  -26.7464   22.1216 H   0  0  0  0  0  0
  -19.6904  -25.6332   21.1235 H   0  0  0  0  0  0
  -19.6667  -27.3248   20.6762 H   0  0  0  0  0  0
  -17.4159  -26.6641   21.4050 H   0  0  0  0  0  0
  -18.0325  -26.0134   22.9065 H   0  0  0  0  0  0
  -19.7911  -30.7250   24.2343 H   0  0  0  0  0  0
  -17.4999  -31.6277   24.5199 H   0  0  0  0  0  0
  -15.5336  -30.3056   23.7616 H   0  0  0  0  0  0
  -15.8631  -28.0910   22.6991 H   0  0  0  0  0  0
  -24.5913  -30.7046   25.7763 H   0  0  0  0  0  0
  -24.8928  -32.2834   26.4896 H   0  0  0  0  0  0
  -25.8057  -30.8828   27.0197 H   0  0  0  0  0  0
  -26.2847  -29.6783   24.1125 H   0  0  0  0  0  0
  -27.4015  -29.7202   25.4561 H   0  0  0  0  0  0
  -27.8690  -30.4304   23.9275 H   0  0  0  0  0  0
  -27.2726  -33.3558   26.2096 H   0  0  0  0  0  0
  -28.3860  -32.6842   25.0277 H   0  0  0  0  0  0
  -28.0789  -31.8367   26.5338 H   0  0  0  0  0  0
  -28.2569  -38.0122   24.7478 H   0  0  0  0  0  0
  -28.1045  -36.2637   24.6277 H   0  0  0  0  0  0
  -27.2289  -37.1488   25.8869 H   0  0  0  0  0  0
  -20.9347  -29.8834   21.6930 H   0  0  0  0  0  0
  -26.0150  -38.2866   24.1424 H   0  0  0  0  0  0
  -29.5563  -20.9827   24.5586 H   0  0  0  0  0  0
  -28.4701  -15.8569   23.5036 H   0  0  0  0  0  0
  -27.3364  -15.4493   22.2438 H   0  0  0  0  0  0
  -26.9801  -16.7785   23.3131 H   0  0  0  0  0  0
  -26.9676  -24.4089   23.1268 H   0  0  0  0  0  0
  -26.2307  -24.3069   21.5263 H   0  0  0  0  0  0
  -26.7944  -25.8433   22.1771 H   0  0  0  0  0  0
  -29.6225  -24.5940   23.2982 H   0  0  0  0  0  0
  -29.2035  -26.1883   22.6888 H   0  0  0  0  0  0
  -30.4451  -25.2465   21.8877 H   0  0  0  0  0  0
  -31.1630  -17.0790   22.6127 H   0  0  0  0  0  0
  -32.3667  -16.2522   21.7104 H   0  0  0  0  0  0
  -31.6682  -15.4709   23.1164 H   0  0  0  0  0  0
  -28.3634  -22.6562   20.3376 H   0  0  0  0  0  0
  -29.8010  -22.8622   21.2744 H   0  0  0  0  0  0
  -27.0451  -21.9443   22.2024 H   0  0  0  0  0  0
  -28.1745  -22.5823   23.3620 H   0  0  0  0  0  0
  -30.1519  -17.3314   20.3876 H   0  0  0  0  0  0
  -28.9635  -16.1491   20.0193 H   0  0  0  0  0  0
  -27.7213  -24.8473   19.4060 H   0  0  0  0  0  0
  -29.4176  -25.0131   19.6086 H   0  0  0  0  0  0
  -27.6699  -17.4924   21.1047 H   0  0  0  0  0  0
  1 25  1  0  0  0
  1 30  2  0  0  0
  1 87  1  0  0  0
  2  3  1  0  0  0
  2 25  1  0  0  0
  2 91  1  0  0  0
  2 92  1  0  0  0
  3  4  1  0  0  0
  3 93  1  0  0  0
  3 94  1  0  0  0
  4  5  1  0  0  0
  4 95  1  0  0  0
  4 96  1  0  0  0
  5  6  1  0  0  0
  5 26  1  0  0  0
  5 97  1  0  0  0
  6 25  1  0  0  0
  6 98  1  0  0  0
  6 99  1  0  0  0
  7  8  2  0  0  0
  7 26  1  0  0  0
  7 29  1  0  0  0
  8  9  1  0  0  0
  8 22  1  0  0  0
  9 10  1  0  0  0
  9 27  2  0  0  0
 10 11  2  0  0  0
 10 15  1  0  0  0
 11 12  1  0  0  0
 11100  1  0  0  0
 12 13  2  0  0  0
 12101  1  0  0  0
 13 14  1  0  0  0
 13 31  1  0  0  0
 14 15  2  0  0  0
 14102  1  0  0  0
 15103  1  0  0  0
 16 17  2  0  0  0
 16 21  1  0  0  0
 16 31  1  0  0  0
 17 18  1  0  0  0
 17104  1  0  0  0
 18 19  2  0  0  0
 18105  1  0  0  0
 19 20  1  0  0  0
 19 24  1  0  0  0
 20 21  2  0  0  0
 20106  1  0  0  0
 21 23  1  0  0  0
 22 28  1  0  0  0
 22 32  2  0  0  0
 26 27  1  0  0  0
 28107  1  0  0  0
 28108  1  0  0  0
 29109  1  0  0  0
 29110  1  0  0  0
 33 34  1  0  0  0
 33 66  1  0  0  0
 33 70  2  0  0  0
 34 36  1  0  0  0
 34 59  1  0  0  0
 34111  1  0  0  0
 35 44  2  0  0  0
 35 45  1  0  0  0
 35 68  1  0  0  0
 36 56  1  0  0  0
 36112  1  0  0  0
 37 39  1  0  0  0
 37 47  1  0  0  0
 37 66  1  0  0  0
 37113  1  0  0  0
 38 43  2  0  0  0
 38 46  1  0  0  0
 38 47  1  0  0  0
 39 64  1  0  0  0
 39 67  2  0  0  0
 40 52  1  0  0  0
 40 53  2  0  0  0
 40 58  1  0  0  0
 41114  1  0  0  0
 41115  1  0  0  0
 41116  1  0  0  0
 41 48  1  0  0  0
 42 43  1  0  0  0
 42 66  1  0  0  0
 42117  1  0  0  0
 42118  1  0  0  0
 43 44  1  0  0  0
 44119  1  0  0  0
 45 46  2  0  0  0
 45120  1  0  0  0
 46121  1  0  0  0
 47122  1  0  0  0
 47123  1  0  0  0
 48 56  1  0  0  0
 48 65  1  0  0  0
 48124  1  0  0  0
 49 50  1  0  0  0
 49 53  1  0  0  0
 49 64  1  0  0  0
 49125  1  0  0  0
 50 51  1  0  0  0
 50126  1  0  0  0
 50127  1  0  0  0
 51 52  1  0  0  0
 51128  1  0  0  0
 51129  1  0  0  0
 52130  1  0  0  0
 52131  1  0  0  0
 53 54  1  0  0  0
 54 55  2  0  0  0
 54132  1  0  0  0
 55 57  1  0  0  0
 55133  1  0  0  0
 56 69  2  0  0  0
 57 58  2  0  0  0
 57134  1  0  0  0
 58135  1  0  0  0
 59 60  1  0  0  0
 59 61  1  0  0  0
 59 62  1  0  0  0
 60136  1  0  0  0
 60137  1  0  0  0
 60138  1  0  0  0
 61139  1  0  0  0
 61140  1  0  0  0
 61141  1  0  0  0
 62142  1  0  0  0
 62143  1  0  0  0
 62144  1  0  0  0
 63 65  1  0  0  0
 63145  1  0  0  0
 63146  1  0  0  0
 63147  1  0  0  0
 64148  1  0  0  0
 65149  1  0  0  0
 68 81  1  0  0  0
 71 72  2  0  0  0
 71 86  1  0  0  0
 71150  1  0  0  0
 72 73  1  0  0  0
 72 83  1  0  0  0
 73 82  1  0  0  0
 73 85  2  0  0  0
 74151  1  0  0  0
 74152  1  0  0  0
 74153  1  0  0  0
 74 82  1  0  0  0
 75154  1  0  0  0
 75155  1  0  0  0
 75156  1  0  0  0
 75 84  1  0  0  0
 76 84  1  0  0  0
 76157  1  0  0  0
 76158  1  0  0  0
 76159  1  0  0  0
 77 87  1  0  0  0
 77160  1  0  0  0
 77161  1  0  0  0
 77162  1  0  0  0
 78 79  1  0  0  0
 78 84  1  0  0  0
 78163  1  0  0  0
 78164  1  0  0  0
 79 86  1  0  0  0
 79165  1  0  0  0
 79166  1  0  0  0
 80 82  1  0  0  0
 80 87  1  0  0  0
 80167  1  0  0  0
 80168  1  0  0  0
 81 84  1  0  0  0
 81169  1  0  0  0
 81170  1  0  0  0
 82171  1  0  0  0
 83 88  1  0  0  0
 83 89  1  0  0  0
 83 90  1  0  0  0
 85 86  1  0  0  0
M  ISO  4   1 100  68 101  81 101  87 100
M  END
> <chiral flag>
0

> <version>
0

> <s_m_source_file>
/data/baiqing/PycharmProjects/Reinvent-master-3.2/result/LINK_invent/BTK/process_docking_weight1_custom_sum_contain_oxygen_bond_distance_aromatic_linkinvent_7_9_3/rearranged_h_0070.sdf

> <i_m_source_file_index>
70

> <r_mmod_Potential_Energy-OPLS-2005>
148.563018798828

> <r_mmod_Stretch_Energy-OPLS-2005>
53.0606422424316

> <r_mmod_Bend_Energy-OPLS-2005>
163.591125488281

> <r_mmod_Torsional_Energy-OPLS-2005>
316.850708007812

> <r_mmod_Improper_Torsional_Energy-OPLS-2005>
9.25162696838379

> <r_mmod_Van_der_Waal_Energy-OPLS-2005>
133.351089477539

> <r_mmod_Electrostatic_Energy-OPLS-2005>
-356.952423095703

> <r_mmod_Solvation_Energy-OPLS-2005>
-187.486419677734

> <b_mmod_Minimization_Converged-OPLS-2005>
0

> <r_mmod_RMS_Derivative-OPLS-2005>
5.0635871887207

$$$$
70
                    3D
 Structure written by MMmdl.
173181  0  0  1  0            999 V2000
  -30.7129  -14.4486   20.6421 C   0  0  0  0  0  0
  -30.4233  -12.3180   19.4227 C   0  0  0  0  0  0
  -29.4944  -12.5215   18.2072 C   0  0  0  0  0  0
  -28.0148  -12.3760   18.6171 C   0  0  0  0  0  0
  -27.6608  -13.2111   19.8759 C   0  0  2  0  0  0
  -28.6951  -12.9786   20.9998 C   0  0  0  0  0  0
  -25.2573  -13.8188   20.5705 C   0  0  0  0  0  0
  -24.1813  -13.0470   20.9223 C   0  0  0  0  0  0
  -24.6344  -11.6909   20.8743 C   0  0  0  0  0  0
  -23.8990  -10.4313   21.0400 C   0  0  0  0  0  0
  -24.3562   -9.4242   21.9184 C   0  0  0  0  0  0
  -23.6282   -8.2251   22.0732 C   0  0  0  0  0  0
  -22.4264   -8.0250   21.3532 C   0  0  0  0  0  0
  -21.9877   -9.0211   20.4633 C   0  0  0  0  0  0
  -22.7158  -10.2122   20.3059 C   0  0  0  0  0  0
  -21.6845   -6.0733   22.5285 C   0  0  0  0  0  0
  -21.4006   -6.5648   23.8212 C   0  0  0  0  0  0
  -21.3674   -5.6789   24.9188 C   0  0  0  0  0  0
  -21.6045   -4.3052   24.7227 C   0  0  0  0  0  0
  -21.8815   -3.8153   23.4350 C   0  0  0  0  0  0
  -21.9191   -4.6976   22.3403 C   0  0  0  0  0  0
  -22.7843  -13.5254   21.1880 C   0  0  0  0  0  0
  -22.1659   -4.2174   21.0972 F   0  0  0  0  0  0
  -21.5622   -3.4518   25.7727 F   0  0  0  0  0  0
  -30.0280  -13.2885   20.4569 N   0  0  0  0  0  0
  -26.2993  -12.9344   20.3340 N   0  0  0  0  0  0
  -25.9284  -11.6507   20.5781 N   0  0  0  0  0  0
  -22.0429  -12.8278   22.0442 N   0  0  0  0  0  0
  -25.4391  -15.1889   20.4041 N   0  0  0  0  0  0
  -31.8258  -14.6522   20.1502 O   0  0  0  0  0  0
  -21.6640   -6.8863   21.4212 O   0  0  0  0  0  0
  -22.3537  -14.5543   20.6685 O   0  0  0  0  0  0
  -24.6108  -31.8715   23.2144 C   0  0  0  0  0  0
  -25.9032  -32.4824   23.8394 C   0  0  1  0  0  0
  -27.2127  -27.4422   20.0985 C   0  0  0  0  0  0
  -25.5920  -33.8617   24.2327 N   0  0  0  0  0  0
  -23.3946  -30.4956   21.5565 C   0  0  2  0  0  0
  -24.8424  -28.9712   20.1077 C   0  0  0  0  0  0
  -22.7358  -29.4676   22.5036 C   0  0  0  0  0  0
  -18.0255  -28.1327   22.8542 C   0  0  0  0  0  0
  -24.1488  -36.7304   23.2623 C   0  0  0  0  0  0
  -25.9237  -30.8362   21.3693 C   0  0  0  0  0  0
  -25.9999  -29.4707   20.7190 C   0  0  0  0  0  0
  -27.1912  -28.7102   20.7220 C   0  0  0  0  0  0
  -26.0543  -26.9756   19.4470 C   0  0  0  0  0  0
  -24.8664  -27.7232   19.4651 C   0  0  0  0  0  0
  -23.5985  -29.8291   20.1690 C   0  0  0  0  0  0
  -25.4122  -36.3098   24.0317 C   0  0  1  0  0  0
  -20.5855  -28.3608   23.1325 C   0  0  2  0  0  0
  -20.6779  -26.9364   22.5348 C   0  0  0  0  0  0
  -19.5680  -26.6364   21.5224 C   0  0  0  0  0  0
  -18.1926  -26.7828   22.1794 C   0  0  0  0  0  0
  -19.1511  -28.8805   23.2913 C   0  0  0  0  0  0
  -18.9451  -30.1414   23.8905 C   0  0  0  0  0  0
  -17.6463  -30.6559   24.0577 C   0  0  0  0  0  0
  -25.9047  -34.9464   23.5125 C   0  0  0  0  0  0
  -16.5351  -29.9061   23.6326 C   0  0  0  0  0  0
  -16.7265  -28.6460   23.0389 C   0  0  0  0  0  0
  -26.4465  -31.6564   25.0695 C   0  0  0  0  0  0
  -25.3751  -31.3685   26.1468 C   0  0  0  0  0  0
  -27.0295  -30.3003   24.6060 C   0  0  0  0  0  0
  -27.6046  -32.4274   25.7462 C   0  0  0  0  0  0
  -27.5584  -37.1803   24.8464 C   0  0  0  0  0  0
  -21.4097  -29.3009   22.3751 N   0  0  0  0  0  0
  -26.4304  -37.3798   23.9392 N   0  0  0  0  0  0
  -24.6611  -31.0816   22.1044 N   0  0  0  0  0  0
  -23.4137  -28.8256   23.3096 O   0  0  0  0  0  0
  -28.3363  -26.6524   20.0967 O   0  0  0  0  0  0
  -26.5589  -34.8923   22.4663 O   0  0  0  0  0  0
  -23.5311  -32.1489   23.7545 O   0  0  0  0  0  0
  -31.3802  -20.3259   24.0105 C   0  0  0  0  0  0
  -30.2543  -18.7779   23.2206 C   0  0  0  0  0  0
  -31.2629  -18.8828   20.1659 C   0  0  0  0  0  0
  -26.7586  -22.6037   22.8068 C   0  0  0  0  0  0
  -27.7820  -24.5751   23.9657 C   0  0  0  0  0  0
  -27.6010  -23.7602   20.1075 C   0  0  0  0  0  0
  -29.8083  -17.4034   22.7970 C   0  0  0  0  0  0
  -30.3382  -17.6563   20.2629 C   0  0  0  0  0  0
  -29.2427  -22.9618   22.6435 C   0  0  0  0  0  0
  -29.6324  -22.1569   23.9182 C   0  0  0  0  0  0
  -28.5144  -25.8552   21.2839 C   0  0  0  0  0  0
  -30.5217  -16.8017   21.5464 C   0  0  2  0  0  0
  -27.8615  -23.6924   22.6948 C   0  0  0  0  0  0
  -27.5994  -24.5866   21.4124 C   0  0  2  0  0  0
  -31.4852  -19.0209   23.7693 N   0  0  0  0  0  0
  -29.4450  -19.8384   23.1347 N   0  0  0  0  0  0
  -30.1958  -20.8393   23.6666 N   0  0  0  0  0  0
  -30.0523  -15.4177   21.3087 N   0  0  0  0  0  0
  -26.3511  -25.0388   21.5486 F   0  0  0  0  0  0
  -31.4700  -12.4236   19.1283 H   0  0  0  0  0  0
  -30.3316  -11.3030   19.8090 H   0  0  0  0  0  0
  -29.7419  -11.8009   17.4269 H   0  0  0  0  0  0
  -29.6637  -13.5132   17.7788 H   0  0  0  0  0  0
  -27.8216  -11.3194   18.7997 H   0  0  0  0  0  0
  -27.3664  -12.6614   17.7889 H   0  0  0  0  0  0
  -27.7095  -14.2664   19.5905 H   0  0  0  0  0  0
  -28.6678  -11.9388   21.3285 H   0  0  0  0  0  0
  -28.4482  -13.5628   21.8886 H   0  0  0  0  0  0
  -25.2678   -9.5758   22.4795 H   0  0  0  0  0  0
  -24.0010   -7.4647   22.7442 H   0  0  0  0  0  0
  -21.0828   -8.8698   19.8935 H   0  0  0  0  0  0
  -22.3571  -10.9663   19.6204 H   0  0  0  0  0  0
  -21.2001   -7.6154   23.9740 H   0  0  0  0  0  0
  -21.1503   -6.0514   25.9089 H   0  0  0  0  0  0
  -22.0601   -2.7615   23.2828 H   0  0  0  0  0  0
  -22.3939  -11.9921   22.4887 H   0  0  0  0  0  0
  -21.1038  -13.1349   22.2564 H   0  0  0  0  0  0
  -24.6767  -15.8519   20.4824 H   0  0  0  0  0  0
  -26.2956  -15.6046   20.0575 H   0  0  0  0  0  0
  -26.7111  -32.5539   23.1155 H   0  0  0  0  0  0
  -25.0113  -33.9811   25.0503 H   0  0  0  0  0  0
  -22.6827  -31.3126   21.4199 H   0  0  0  0  0  0
  -23.3749  -35.9638   23.3302 H   0  0  0  0  0  0
  -24.3562  -36.8912   22.2034 H   0  0  0  0  0  0
  -23.7254  -37.6518   23.6633 H   0  0  0  0  0  0
  -26.0369  -31.6038   20.6013 H   0  0  0  0  0  0
  -26.8113  -30.8866   21.9868 H   0  0  0  0  0  0
  -28.0814  -29.0869   21.2104 H   0  0  0  0  0  0
  -26.0594  -26.0233   18.9427 H   0  0  0  0  0  0
  -23.9832  -27.3405   18.9754 H   0  0  0  0  0  0
  -23.6812  -30.6039   19.4046 H   0  0  0  0  0  0
  -22.7265  -29.2356   19.8875 H   0  0  0  0  0  0
  -25.1294  -36.1959   25.0814 H   0  0  0  0  0  0
  -20.9971  -28.3122   24.1431 H   0  0  0  0  0  0
  -20.5764  -26.2207   23.3514 H   0  0  0  0  0  0
  -21.6624  -26.7469   22.1057 H   0  0  0  0  0  0
  -19.6828  -25.6283   21.1226 H   0  0  0  0  0  0
  -19.6486  -27.3206   20.6765 H   0  0  0  0  0  0
  -17.4079  -26.6370   21.4337 H   0  0  0  0  0  0
  -18.0551  -26.0036   22.9316 H   0  0  0  0  0  0
  -19.7937  -30.7229   24.2239 H   0  0  0  0  0  0
  -17.5031  -31.6223   24.5178 H   0  0  0  0  0  0
  -15.5348  -30.2981   23.7655 H   0  0  0  0  0  0
  -15.8659  -28.0779   22.7128 H   0  0  0  0  0  0
  -24.5917  -30.7034   25.7817 H   0  0  0  0  0  0
  -24.8964  -32.2865   26.4897 H   0  0  0  0  0  0
  -25.8134  -30.8869   27.0227 H   0  0  0  0  0  0
  -26.2855  -29.6765   24.1121 H   0  0  0  0  0  0
  -27.4077  -29.7217   25.4494 H   0  0  0  0  0  0
  -27.8659  -30.4288   23.9196 H   0  0  0  0  0  0
  -27.2657  -33.3568   26.2052 H   0  0  0  0  0  0
  -28.3854  -32.6859   25.0290 H   0  0  0  0  0  0
  -28.0710  -31.8394   26.5376 H   0  0  0  0  0  0
  -28.2609  -38.0098   24.7517 H   0  0  0  0  0  0
  -28.1079  -36.2633   24.6285 H   0  0  0  0  0  0
  -27.2286  -37.1439   25.8865 H   0  0  0  0  0  0
  -20.9236  -29.8725   21.6972 H   0  0  0  0  0  0
  -26.0182  -38.2866   24.1431 H   0  0  0  0  0  0
  -32.1534  -20.9097   24.4918 H   0  0  0  0  0  0
  -30.9558  -19.6953   20.8244 H   0  0  0  0  0  0
  -31.2565  -19.2893   19.1555 H   0  0  0  0  0  0
  -32.2960  -18.6270   20.4076 H   0  0  0  0  0  0
  -26.7681  -22.0957   23.7698 H   0  0  0  0  0  0
  -26.8818  -21.8255   22.0534 H   0  0  0  0  0  0
  -25.7531  -23.0108   22.6987 H   0  0  0  0  0  0
  -27.8242  -23.9954   24.8867 H   0  0  0  0  0  0
  -26.8486  -25.1360   24.0022 H   0  0  0  0  0  0
  -28.6007  -25.2903   24.0138 H   0  0  0  0  0  0
  -28.5567  -23.2714   19.9302 H   0  0  0  0  0  0
  -27.4064  -24.3739   19.2314 H   0  0  0  0  0  0
  -26.8253  -22.9947   20.1235 H   0  0  0  0  0  0
  -28.7312  -17.4380   22.6185 H   0  0  0  0  0  0
  -29.9475  -16.7431   23.6541 H   0  0  0  0  0  0
  -29.2977  -17.9669   20.1613 H   0  0  0  0  0  0
  -30.5373  -17.0437   19.3834 H   0  0  0  0  0  0
  -29.2580  -22.2878   21.7881 H   0  0  0  0  0  0
  -30.0354  -23.6854   22.4528 H   0  0  0  0  0  0
  -28.7846  -21.9989   24.5800 H   0  0  0  0  0  0
  -30.3487  -22.7293   24.5075 H   0  0  0  0  0  0
  -29.5584  -25.5516   21.2853 H   0  0  0  0  0  0
  -28.3875  -26.5018   22.1538 H   0  0  0  0  0  0
  -31.5891  -16.7420   21.7789 H   0  0  0  0  0  0
  -29.1215  -15.1809   21.6232 H   0  0  0  0  0  0
  1 25  1  0  0  0
  1 30  2  0  0  0
  1 88  1  0  0  0
  2  3  1  0  0  0
  2 25  1  0  0  0
  2 90  1  0  0  0
  2 91  1  0  0  0
  3  4  1  0  0  0
  3 92  1  0  0  0
  3 93  1  0  0  0
  4  5  1  0  0  0
  4 94  1  0  0  0
  4 95  1  0  0  0
  5  6  1  0  0  0
  5 26  1  0  0  0
  5 96  1  0  0  0
  6 25  1  0  0  0
  6 97  1  0  0  0
  6 98  1  0  0  0
  7  8  2  0  0  0
  7 26  1  0  0  0
  7 29  1  0  0  0
  8  9  1  0  0  0
  8 22  1  0  0  0
  9 10  1  0  0  0
  9 27  2  0  0  0
 10 11  2  0  0  0
 10 15  1  0  0  0
 11 12  1  0  0  0
 11 99  1  0  0  0
 12 13  2  0  0  0
 12100  1  0  0  0
 13 14  1  0  0  0
 13 31  1  0  0  0
 14 15  2  0  0  0
 14101  1  0  0  0
 15102  1  0  0  0
 16 17  2  0  0  0
 16 21  1  0  0  0
 16 31  1  0  0  0
 17 18  1  0  0  0
 17103  1  0  0  0
 18 19  2  0  0  0
 18104  1  0  0  0
 19 20  1  0  0  0
 19 24  1  0  0  0
 20 21  2  0  0  0
 20105  1  0  0  0
 21 23  1  0  0  0
 22 28  1  0  0  0
 22 32  2  0  0  0
 26 27  1  0  0  0
 28106  1  0  0  0
 28107  1  0  0  0
 29108  1  0  0  0
 29109  1  0  0  0
 33 34  1  0  0  0
 33 66  1  0  0  0
 33 70  2  0  0  0
 34 36  1  0  0  0
 34 59  1  0  0  0
 34110  1  0  0  0
 35 44  2  0  0  0
 35 45  1  0  0  0
 35 68  1  0  0  0
 36 56  1  0  0  0
 36111  1  0  0  0
 37 39  1  0  0  0
 37 47  1  0  0  0
 37 66  1  0  0  0
 37112  1  0  0  0
 38 43  2  0  0  0
 38 46  1  0  0  0
 38 47  1  0  0  0
 39 64  1  0  0  0
 39 67  2  0  0  0
 40 52  1  0  0  0
 40 53  2  0  0  0
 40 58  1  0  0  0
 41113  1  0  0  0
 41114  1  0  0  0
 41115  1  0  0  0
 41 48  1  0  0  0
 42 43  1  0  0  0
 42 66  1  0  0  0
 42116  1  0  0  0
 42117  1  0  0  0
 43 44  1  0  0  0
 44118  1  0  0  0
 45 46  2  0  0  0
 45119  1  0  0  0
 46120  1  0  0  0
 47121  1  0  0  0
 47122  1  0  0  0
 48 56  1  0  0  0
 48 65  1  0  0  0
 48123  1  0  0  0
 49 50  1  0  0  0
 49 53  1  0  0  0
 49 64  1  0  0  0
 49124  1  0  0  0
 50 51  1  0  0  0
 50125  1  0  0  0
 50126  1  0  0  0
 51 52  1  0  0  0
 51127  1  0  0  0
 51128  1  0  0  0
 52129  1  0  0  0
 52130  1  0  0  0
 53 54  1  0  0  0
 54 55  2  0  0  0
 54131  1  0  0  0
 55 57  1  0  0  0
 55132  1  0  0  0
 56 69  2  0  0  0
 57 58  2  0  0  0
 57133  1  0  0  0
 58134  1  0  0  0
 59 60  1  0  0  0
 59 61  1  0  0  0
 59 62  1  0  0  0
 60135  1  0  0  0
 60136  1  0  0  0
 60137  1  0  0  0
 61138  1  0  0  0
 61139  1  0  0  0
 61140  1  0  0  0
 62141  1  0  0  0
 62142  1  0  0  0
 62143  1  0  0  0
 63 65  1  0  0  0
 63144  1  0  0  0
 63145  1  0  0  0
 63146  1  0  0  0
 64147  1  0  0  0
 65148  1  0  0  0
 68 81  1  0  0  0
 71 85  2  0  0  0
 71 87  1  0  0  0
 71149  1  0  0  0
 72 77  1  0  0  0
 72 85  1  0  0  0
 72 86  2  0  0  0
 73 78  1  0  0  0
 73150  1  0  0  0
 73151  1  0  0  0
 73152  1  0  0  0
 74153  1  0  0  0
 74154  1  0  0  0
 74155  1  0  0  0
 74 83  1  0  0  0
 75 83  1  0  0  0
 75156  1  0  0  0
 75157  1  0  0  0
 75158  1  0  0  0
 76159  1  0  0  0
 76160  1  0  0  0
 76161  1  0  0  0
 76 84  1  0  0  0
 77162  1  0  0  0
 77163  1  0  0  0
 77 82  1  0  0  0
 78 82  1  0  0  0
 78164  1  0  0  0
 78165  1  0  0  0
 79 80  1  0  0  0
 79 83  1  0  0  0
 79166  1  0  0  0
 79167  1  0  0  0
 80 87  1  0  0  0
 80168  1  0  0  0
 80169  1  0  0  0
 81 84  1  0  0  0
 81170  1  0  0  0
 81171  1  0  0  0
 82 88  1  0  0  0
 82172  1  0  0  0
 83 84  1  0  0  0
 84 89  1  0  0  0
 86 87  1  0  0  0
 88173  1  0  0  0
M  ISO  4   1 100  68 101  81 101  88 100
M  END
> <chiral flag>
0

> <version>
0

> <s_m_source_file>
/data/baiqing/PycharmProjects/Reinvent-master-3.2/result/LINK_invent/BTK/process_docking_weight1_custom_sum_contain_oxygen_bond_distance_aromatic_linkinvent_7_9_3/rearranged_h_0070.sdf

> <i_m_source_file_index>
71

> <r_mmod_Potential_Energy-OPLS-2005>
7.91825866699219

> <r_mmod_Stretch_Energy-OPLS-2005>
44.4931488037109

> <r_mmod_Bend_Energy-OPLS-2005>
111.016578674316

> <r_mmod_Torsional_Energy-OPLS-2005>
255.544692993164

> <r_mmod_Improper_Torsional_Energy-OPLS-2005>
3.201988697052

> <r_mmod_Van_der_Waal_Energy-OPLS-2005>
136.482467651367

> <r_mmod_Electrostatic_Energy-OPLS-2005>
-336.529693603516

> <r_mmod_Solvation_Energy-OPLS-2005>
-219.327407836914

> <b_mmod_Minimization_Converged-OPLS-2005>
0

> <r_mmod_RMS_Derivative-OPLS-2005>
5.34273910522461

$$$$
72
                    3D
 Structure written by MMmdl.
158166  0  0  1  0            999 V2000
  -30.5499  -14.7361   20.4478 C   0  0  0  0  0  0
  -30.4524  -12.4444   19.4634 C   0  0  0  0  0  0
  -29.5170  -12.5119   18.2310 C   0  0  0  0  0  0
  -28.0402  -12.3221   18.6387 C   0  0  0  0  0  0
  -27.6469  -13.2007   19.8523 C   0  0  2  0  0  0
  -28.6942  -13.0743   20.9815 C   0  0  0  0  0  0
  -25.2561  -13.8107   20.5669 C   0  0  0  0  0  0
  -24.1821  -13.0412   20.9171 C   0  0  0  0  0  0
  -24.6369  -11.6862   20.8717 C   0  0  0  0  0  0
  -23.9020  -10.4271   21.0404 C   0  0  0  0  0  0
  -24.3579   -9.4191   21.9187 C   0  0  0  0  0  0
  -23.6258   -8.2233   22.0765 C   0  0  0  0  0  0
  -22.4251   -8.0266   21.3550 C   0  0  0  0  0  0
  -21.9888   -9.0224   20.4644 C   0  0  0  0  0  0
  -22.7196  -10.2110   20.3046 C   0  0  0  0  0  0
  -21.6843   -6.0722   22.5286 C   0  0  0  0  0  0
  -21.4019   -6.5635   23.8216 C   0  0  0  0  0  0
  -21.3663   -5.6792   24.9182 C   0  0  0  0  0  0
  -21.6044   -4.3048   24.7234 C   0  0  0  0  0  0
  -21.8821   -3.8137   23.4356 C   0  0  0  0  0  0
  -21.9199   -4.6955   22.3416 C   0  0  0  0  0  0
  -22.7864  -13.5232   21.1837 C   0  0  0  0  0  0
  -22.1669   -4.2142   21.0991 F   0  0  0  0  0  0
  -21.5611   -3.4522   25.7743 F   0  0  0  0  0  0
  -29.9976  -13.4692   20.4297 N   0  0  0  0  0  0
  -26.2951  -12.9248   20.3260 N   0  0  0  0  0  0
  -25.9285  -11.6424   20.5739 N   0  0  0  0  0  0
  -22.0517  -12.8220   22.0390 N   0  0  0  0  0  0
  -25.4292  -15.1832   20.4117 N   0  0  0  0  0  0
  -31.7570  -14.8510   20.1887 O   0  0  0  0  0  0
  -21.6619   -6.8863   21.4247 O   0  0  0  0  0  0
  -22.3550  -14.5553   20.6698 O   0  0  0  0  0  0
  -24.6249  -31.8579   23.2039 C   0  0  0  0  0  0
  -25.9099  -32.4773   23.8369 C   0  0  1  0  0  0
  -27.2394  -27.3248   20.1189 C   0  0  0  0  0  0
  -25.5898  -33.8566   24.2303 N   0  0  0  0  0  0
  -23.4212  -30.4786   21.5455 C   0  0  2  0  0  0
  -24.8732  -28.9267   20.1201 C   0  0  0  0  0  0
  -22.7478  -29.4591   22.4951 C   0  0  0  0  0  0
  -18.0279  -28.1375   22.8481 C   0  0  0  0  0  0
  -24.1479  -36.7295   23.2645 C   0  0  0  0  0  0
  -25.9623  -30.7916   21.3727 C   0  0  0  0  0  0
  -26.0419  -29.4176   20.7177 C   0  0  0  0  0  0
  -27.2312  -28.6302   20.7006 C   0  0  0  0  0  0
  -26.0474  -26.8770   19.5107 C   0  0  0  0  0  0
  -24.8751  -27.6603   19.5116 C   0  0  0  0  0  0
  -23.6385  -29.8063   20.1645 C   0  0  0  0  0  0
  -25.4110  -36.3080   24.0334 C   0  0  1  0  0  0
  -20.5876  -28.3664   23.1289 C   0  0  2  0  0  0
  -20.6760  -26.9380   22.5415 C   0  0  0  0  0  0
  -19.5745  -26.6367   21.5205 C   0  0  0  0  0  0
  -18.1919  -26.7918   22.1611 C   0  0  0  0  0  0
  -19.1532  -28.8843   23.2875 C   0  0  0  0  0  0
  -18.9456  -30.1444   23.8895 C   0  0  0  0  0  0
  -17.6455  -30.6581   24.0550 C   0  0  0  0  0  0
  -25.9039  -34.9440   23.5132 C   0  0  0  0  0  0
  -16.5344  -29.9080   23.6324 C   0  0  0  0  0  0
  -16.7266  -28.6492   23.0358 C   0  0  0  0  0  0
  -26.4491  -31.6588   25.0739 C   0  0  0  0  0  0
  -25.3718  -31.3705   26.1456 C   0  0  0  0  0  0
  -27.0356  -30.3020   24.6203 C   0  0  0  0  0  0
  -27.6073  -32.4300   25.7499 C   0  0  0  0  0  0
  -27.5580  -37.1802   24.8461 C   0  0  0  0  0  0
  -21.4190  -29.3010   22.3691 N   0  0  0  0  0  0
  -26.4297  -37.3774   23.9392 N   0  0  0  0  0  0
  -24.6881  -31.0591   22.0987 N   0  0  0  0  0  0
  -23.4199  -28.8130   23.3031 O   0  0  0  0  0  0
  -28.3679  -26.4950   20.1027 O   0  0  0  0  0  0
  -26.5613  -34.8901   22.4701 O   0  0  0  0  0  0
  -23.5406  -32.1352   23.7369 O   0  0  0  0  0  0
  -30.1469  -19.9393   22.1606 C   0  0  0  0  0  0
  -30.3802  -18.7465   22.8527 C   0  0  0  0  0  0
  -29.8312  -19.8643   20.8014 C   0  0  0  0  0  0
  -30.0368  -17.4838   20.9472 C   0  0  0  0  0  0
  -29.2263  -19.0466   25.0628 C   0  0  0  0  0  0
  -30.5598  -18.7644   24.3571 C   0  0  0  0  0  0
  -29.5988  -21.1824   19.9669 C   0  0  0  0  0  0
  -28.9374  -22.4697   20.6600 C   0  0  0  0  0  0
  -28.9110  -23.8785   19.8876 C   0  0  0  0  0  0
  -28.2312  -25.1175   20.6327 C   0  0  0  0  0  0
  -29.6037  -16.0519   20.4018 C   0  0  0  0  0  0
  -30.3250  -17.5442   22.2489 N   0  0  0  0  0  0
  -29.7766  -18.6174   20.2172 N   0  0  0  0  0  0
  -29.2512  -16.2078   19.1222 F   0  0  0  0  0  0
  -28.4775  -15.8217   21.0779 F   0  0  0  0  0  0
  -31.4877  -12.6016   19.1555 H   0  0  0  0  0  0
  -30.4225  -11.4546   19.9203 H   0  0  0  0  0  0
  -29.8012  -11.7539   17.4992 H   0  0  0  0  0  0
  -29.6314  -13.4745   17.7300 H   0  0  0  0  0  0
  -27.8943  -11.2684   18.8774 H   0  0  0  0  0  0
  -27.3830  -12.5361   17.7938 H   0  0  0  0  0  0
  -27.6447  -14.2213   19.4776 H   0  0  0  0  0  0
  -28.7343  -12.0459   21.3450 H   0  0  0  0  0  0
  -28.4291  -13.6686   21.8540 H   0  0  0  0  0  0
  -25.2736   -9.5683   22.4727 H   0  0  0  0  0  0
  -23.9971   -7.4642   22.7496 H   0  0  0  0  0  0
  -21.0825   -8.8732   19.8942 H   0  0  0  0  0  0
  -22.3658  -10.9631   19.6133 H   0  0  0  0  0  0
  -21.2016   -7.6149   23.9697 H   0  0  0  0  0  0
  -21.1475   -6.0538   25.9078 H   0  0  0  0  0  0
  -22.0593   -2.7596   23.2850 H   0  0  0  0  0  0
  -22.4145  -11.9879   22.4753 H   0  0  0  0  0  0
  -21.1135  -13.1226   22.2612 H   0  0  0  0  0  0
  -24.6679  -15.8409   20.5400 H   0  0  0  0  0  0
  -26.2993  -15.6262   20.1471 H   0  0  0  0  0  0
  -26.7167  -32.5475   23.1122 H   0  0  0  0  0  0
  -24.9997  -33.9702   25.0411 H   0  0  0  0  0  0
  -22.7130  -31.2964   21.3998 H   0  0  0  0  0  0
  -23.3749  -35.9621   23.3303 H   0  0  0  0  0  0
  -24.3557  -36.8939   22.2059 H   0  0  0  0  0  0
  -23.7226  -37.6489   23.6686 H   0  0  0  0  0  0
  -26.0856  -31.5536   20.6019 H   0  0  0  0  0  0
  -26.8440  -30.8481   21.9996 H   0  0  0  0  0  0
  -28.1362  -29.0054   21.1575 H   0  0  0  0  0  0
  -26.0201  -25.9067   19.0343 H   0  0  0  0  0  0
  -23.9771  -27.2768   19.0450 H   0  0  0  0  0  0
  -23.7542  -30.5777   19.4027 H   0  0  0  0  0  0
  -22.7617  -29.2285   19.8685 H   0  0  0  0  0  0
  -25.1293  -36.1950   25.0831 H   0  0  0  0  0  0
  -20.9953  -28.3227   24.1418 H   0  0  0  0  0  0
  -20.5632  -26.2260   23.3598 H   0  0  0  0  0  0
  -21.6631  -26.7377   22.1230 H   0  0  0  0  0  0
  -19.6887  -25.6277   21.1239 H   0  0  0  0  0  0
  -19.6714  -27.3170   20.6731 H   0  0  0  0  0  0
  -17.4187  -26.6657   21.4015 H   0  0  0  0  0  0
  -18.0314  -26.0064   22.9007 H   0  0  0  0  0  0
  -19.7935  -30.7247   24.2275 H   0  0  0  0  0  0
  -17.5017  -31.6266   24.5142 H   0  0  0  0  0  0
  -15.5346  -30.2986   23.7661 H   0  0  0  0  0  0
  -15.8652  -28.0810   22.7092 H   0  0  0  0  0  0
  -24.5879  -30.7093   25.7746 H   0  0  0  0  0  0
  -24.8917  -32.2863   26.4915 H   0  0  0  0  0  0
  -25.8017  -30.8824   27.0211 H   0  0  0  0  0  0
  -26.2942  -29.6741   24.1251 H   0  0  0  0  0  0
  -27.4081  -29.7315   25.4723 H   0  0  0  0  0  0
  -27.8796  -30.4322   23.9424 H   0  0  0  0  0  0
  -27.2740  -33.3626   26.2060 H   0  0  0  0  0  0
  -28.3898  -32.6805   25.0325 H   0  0  0  0  0  0
  -28.0721  -31.8413   26.5418 H   0  0  0  0  0  0
  -28.2601  -38.0096   24.7508 H   0  0  0  0  0  0
  -28.1084  -36.2631   24.6316 H   0  0  0  0  0  0
  -27.2279  -37.1471   25.8858 H   0  0  0  0  0  0
  -20.9365  -29.8748   21.6914 H   0  0  0  0  0  0
  -26.0191  -38.2851   24.1418 H   0  0  0  0  0  0
  -30.1896  -20.8866   22.6808 H   0  0  0  0  0  0
  -29.3531  -19.0909   26.1437 H   0  0  0  0  0  0
  -28.4914  -18.2753   24.8313 H   0  0  0  0  0  0
  -28.8152  -20.0053   24.7417 H   0  0  0  0  0  0
  -31.3001  -19.5203   24.6224 H   0  0  0  0  0  0
  -30.9601  -17.8066   24.6958 H   0  0  0  0  0  0
  -29.0238  -20.9230   19.0775 H   0  0  0  0  0  0
  -30.5833  -21.4761   19.6064 H   0  0  0  0  0  0
  -29.4519  -22.6496   21.6022 H   0  0  0  0  0  0
  -27.9152  -22.2085   20.9376 H   0  0  0  0  0  0
  -28.4135  -23.7436   18.9264 H   0  0  0  0  0  0
  -29.9381  -24.1529   19.6491 H   0  0  0  0  0  0
  -28.6747  -25.1590   21.6274 H   0  0  0  0  0  0
  -27.1841  -24.8742   20.8129 H   0  0  0  0  0  0
  1 25  1  0  0  0
  1 30  2  0  0  0
  1 81  1  0  0  0
  2  3  1  0  0  0
  2 25  1  0  0  0
  2 86  1  0  0  0
  2 87  1  0  0  0
  3  4  1  0  0  0
  3 88  1  0  0  0
  3 89  1  0  0  0
  4  5  1  0  0  0
  4 90  1  0  0  0
  4 91  1  0  0  0
  5  6  1  0  0  0
  5 26  1  0  0  0
  5 92  1  0  0  0
  6 25  1  0  0  0
  6 93  1  0  0  0
  6 94  1  0  0  0
  7  8  2  0  0  0
  7 26  1  0  0  0
  7 29  1  0  0  0
  8  9  1  0  0  0
  8 22  1  0  0  0
  9 10  1  0  0  0
  9 27  2  0  0  0
 10 11  2  0  0  0
 10 15  1  0  0  0
 11 12  1  0  0  0
 11 95  1  0  0  0
 12 13  2  0  0  0
 12 96  1  0  0  0
 13 14  1  0  0  0
 13 31  1  0  0  0
 14 15  2  0  0  0
 14 97  1  0  0  0
 15 98  1  0  0  0
 16 17  2  0  0  0
 16 21  1  0  0  0
 16 31  1  0  0  0
 17 18  1  0  0  0
 17 99  1  0  0  0
 18 19  2  0  0  0
 18100  1  0  0  0
 19 20  1  0  0  0
 19 24  1  0  0  0
 20 21  2  0  0  0
 20101  1  0  0  0
 21 23  1  0  0  0
 22 28  1  0  0  0
 22 32  2  0  0  0
 26 27  1  0  0  0
 28102  1  0  0  0
 28103  1  0  0  0
 29104  1  0  0  0
 29105  1  0  0  0
 33 34  1  0  0  0
 33 66  1  0  0  0
 33 70  2  0  0  0
 34 36  1  0  0  0
 34 59  1  0  0  0
 34106  1  0  0  0
 35 44  2  0  0  0
 35 45  1  0  0  0
 35 68  1  0  0  0
 36 56  1  0  0  0
 36107  1  0  0  0
 37 39  1  0  0  0
 37 47  1  0  0  0
 37 66  1  0  0  0
 37108  1  0  0  0
 38 43  2  0  0  0
 38 46  1  0  0  0
 38 47  1  0  0  0
 39 64  1  0  0  0
 39 67  2  0  0  0
 40 52  1  0  0  0
 40 53  2  0  0  0
 40 58  1  0  0  0
 41109  1  0  0  0
 41110  1  0  0  0
 41111  1  0  0  0
 41 48  1  0  0  0
 42 43  1  0  0  0
 42 66  1  0  0  0
 42112  1  0  0  0
 42113  1  0  0  0
 43 44  1  0  0  0
 44114  1  0  0  0
 45 46  2  0  0  0
 45115  1  0  0  0
 46116  1  0  0  0
 47117  1  0  0  0
 47118  1  0  0  0
 48 56  1  0  0  0
 48 65  1  0  0  0
 48119  1  0  0  0
 49 50  1  0  0  0
 49 53  1  0  0  0
 49 64  1  0  0  0
 49120  1  0  0  0
 50 51  1  0  0  0
 50121  1  0  0  0
 50122  1  0  0  0
 51 52  1  0  0  0
 51123  1  0  0  0
 51124  1  0  0  0
 52125  1  0  0  0
 52126  1  0  0  0
 53 54  1  0  0  0
 54 55  2  0  0  0
 54127  1  0  0  0
 55 57  1  0  0  0
 55128  1  0  0  0
 56 69  2  0  0  0
 57 58  2  0  0  0
 57129  1  0  0  0
 58130  1  0  0  0
 59 60  1  0  0  0
 59 61  1  0  0  0
 59 62  1  0  0  0
 60131  1  0  0  0
 60132  1  0  0  0
 60133  1  0  0  0
 61134  1  0  0  0
 61135  1  0  0  0
 61136  1  0  0  0
 62137  1  0  0  0
 62138  1  0  0  0
 62139  1  0  0  0
 63 65  1  0  0  0
 63140  1  0  0  0
 63141  1  0  0  0
 63142  1  0  0  0
 64143  1  0  0  0
 65144  1  0  0  0
 68 80  1  0  0  0
 71 72  2  0  0  0
 71 73  1  0  0  0
 71145  1  0  0  0
 72 76  1  0  0  0
 72 82  1  0  0  0
 73 77  1  0  0  0
 73 83  2  0  0  0
 74 81  1  0  0  0
 74 82  2  0  0  0
 74 83  1  0  0  0
 75 76  1  0  0  0
 75146  1  0  0  0
 75147  1  0  0  0
 75148  1  0  0  0
 76149  1  0  0  0
 76150  1  0  0  0
 77 78  1  0  0  0
 77151  1  0  0  0
 77152  1  0  0  0
 78 79  1  0  0  0
 78153  1  0  0  0
 78154  1  0  0  0
 79 80  1  0  0  0
 79155  1  0  0  0
 79156  1  0  0  0
 80157  1  0  0  0
 80158  1  0  0  0
 81 84  1  0  0  0
 81 85  1  0  0  0
M  ISO  4   1 100  68 101  80 101  81 100
M  END
> <chiral flag>
0

> <version>
0

> <s_m_source_file>
/data/baiqing/PycharmProjects/Reinvent-master-3.2/result/LINK_invent/BTK/process_docking_weight1_custom_sum_contain_oxygen_bond_distance_aromatic_linkinvent_7_9_3/rearranged_h_0070.sdf

> <i_m_source_file_index>
72

> <r_mmod_Potential_Energy-OPLS-2005>
-41.8933067321777

> <r_mmod_Stretch_Energy-OPLS-2005>
101.7353515625

> <r_mmod_Bend_Energy-OPLS-2005>
156.532241821289

> <r_mmod_Torsional_Energy-OPLS-2005>
209.980743408203

> <r_mmod_Improper_Torsional_Energy-OPLS-2005>
12.9252948760986

> <r_mmod_Van_der_Waal_Energy-OPLS-2005>
148.20182800293

> <r_mmod_Electrostatic_Energy-OPLS-2005>
-530.985290527344

> <r_mmod_Solvation_Energy-OPLS-2005>
-204.924240112305

> <b_mmod_Minimization_Converged-OPLS-2005>
0

> <r_mmod_RMS_Derivative-OPLS-2005>
2.88042974472046

$$$$
73
                    3D
 Structure written by MMmdl.
158166  0  0  1  0            999 V2000
  -30.6966  -14.6183   20.6359 C   0  0  0  0  0  0
  -30.4355  -12.4192   19.4568 C   0  0  0  0  0  0
  -29.5104  -12.5462   18.2254 C   0  0  0  0  0  0
  -28.0289  -12.3792   18.6188 C   0  0  0  0  0  0
  -27.6580  -13.2156   19.8704 C   0  0  2  0  0  0
  -28.6965  -12.9820   20.9831 C   0  0  0  0  0  0
  -25.2577  -13.8169   20.5665 C   0  0  0  0  0  0
  -24.1841  -13.0436   20.9166 C   0  0  0  0  0  0
  -24.6407  -11.6905   20.8713 C   0  0  0  0  0  0
  -23.9070  -10.4292   21.0395 C   0  0  0  0  0  0
  -24.3622   -9.4212   21.9175 C   0  0  0  0  0  0
  -23.6293   -8.2249   22.0759 C   0  0  0  0  0  0
  -22.4271   -8.0289   21.3554 C   0  0  0  0  0  0
  -21.9907   -9.0256   20.4650 C   0  0  0  0  0  0
  -22.7239  -10.2132   20.3048 C   0  0  0  0  0  0
  -21.6858   -6.0736   22.5279 C   0  0  0  0  0  0
  -21.4019   -6.5637   23.8215 C   0  0  0  0  0  0
  -21.3656   -5.6787   24.9175 C   0  0  0  0  0  0
  -21.6041   -4.3051   24.7221 C   0  0  0  0  0  0
  -21.8823   -3.8145   23.4342 C   0  0  0  0  0  0
  -21.9196   -4.6963   22.3400 C   0  0  0  0  0  0
  -22.7865  -13.5236   21.1826 C   0  0  0  0  0  0
  -22.1665   -4.2151   21.0976 F   0  0  0  0  0  0
  -21.5621   -3.4532   25.7735 F   0  0  0  0  0  0
  -30.0136  -13.4190   20.4775 N   0  0  0  0  0  0
  -26.3003  -12.9345   20.3298 N   0  0  0  0  0  0
  -25.9329  -11.6501   20.5707 N   0  0  0  0  0  0
  -22.0505  -12.8237   22.0390 N   0  0  0  0  0  0
  -25.4289  -15.1887   20.4094 N   0  0  0  0  0  0
  -31.7413  -14.7394   19.9861 O   0  0  0  0  0  0
  -21.6643   -6.8883   21.4242 O   0  0  0  0  0  0
  -22.3552  -14.5541   20.6669 O   0  0  0  0  0  0
  -24.6212  -31.8609   23.2036 C   0  0  0  0  0  0
  -25.9073  -32.4785   23.8355 C   0  0  1  0  0  0
  -27.2250  -27.3488   20.1223 C   0  0  0  0  0  0
  -25.5900  -33.8581   24.2285 N   0  0  0  0  0  0
  -23.4141  -30.4828   21.5460 C   0  0  2  0  0  0
  -24.8607  -28.9350   20.1155 C   0  0  0  0  0  0
  -22.7449  -29.4617   22.4957 C   0  0  0  0  0  0
  -18.0273  -28.1362   22.8485 C   0  0  0  0  0  0
  -24.1487  -36.7308   23.2638 C   0  0  0  0  0  0
  -25.9497  -30.8029   21.3671 C   0  0  0  0  0  0
  -26.0277  -29.4299   20.7144 C   0  0  0  0  0  0
  -27.2166  -28.6487   20.7048 C   0  0  0  0  0  0
  -26.0407  -26.8895   19.5102 C   0  0  0  0  0  0
  -24.8670  -27.6687   19.5052 C   0  0  0  0  0  0
  -23.6279  -29.8139   20.1624 C   0  0  0  0  0  0
  -25.4111  -36.3090   24.0327 C   0  0  1  0  0  0
  -20.5872  -28.3673   23.1293 C   0  0  2  0  0  0
  -20.6772  -26.9402   22.5413 C   0  0  0  0  0  0
  -19.5754  -26.6378   21.5202 C   0  0  0  0  0  0
  -18.1929  -26.7913   22.1610 C   0  0  0  0  0  0
  -19.1525  -28.8831   23.2886 C   0  0  0  0  0  0
  -18.9458  -30.1431   23.8905 C   0  0  0  0  0  0
  -17.6465  -30.6578   24.0553 C   0  0  0  0  0  0
  -25.9039  -34.9453   23.5113 C   0  0  0  0  0  0
  -16.5356  -29.9077   23.6321 C   0  0  0  0  0  0
  -16.7262  -28.6486   23.0357 C   0  0  0  0  0  0
  -26.4481  -31.6581   25.0714 C   0  0  0  0  0  0
  -25.3732  -31.3679   26.1456 C   0  0  0  0  0  0
  -27.0323  -30.3015   24.6112 C   0  0  0  0  0  0
  -27.6044  -32.4320   25.7488 C   0  0  0  0  0  0
  -27.5585  -37.1800   24.8461 C   0  0  0  0  0  0
  -21.4167  -29.3030   22.3694 N   0  0  0  0  0  0
  -26.4288  -37.3785   23.9412 N   0  0  0  0  0  0
  -24.6804  -31.0650   22.0968 N   0  0  0  0  0  0
  -23.4185  -28.8167   23.3034 O   0  0  0  0  0  0
  -28.3544  -26.5335   20.1198 O   0  0  0  0  0  0
  -26.5622  -34.8923   22.4688 O   0  0  0  0  0  0
  -23.5386  -32.1390   23.7383 O   0  0  0  0  0  0
  -30.3042  -19.0410   19.4754 C   0  0  0  0  0  0
  -28.8380  -18.0606   21.4883 C   0  0  0  0  0  0
  -29.3159  -19.8650   20.0877 C   0  0  0  0  0  0
  -29.8570  -17.2304   20.9143 C   0  0  0  0  0  0
  -29.3259  -15.4712   22.7157 C   0  0  0  0  0  0
  -28.9567  -21.2814   19.5241 C   0  0  0  0  0  0
  -28.7720  -22.5247   20.4866 C   0  0  0  0  0  0
  -28.5936  -23.9416   19.7814 C   0  0  0  0  0  0
  -28.2246  -25.1836   20.6890 C   0  0  0  0  0  0
  -30.3304  -15.8667   21.6019 C   0  0  1  0  0  0
  -31.6401  -16.2251   22.3970 C   0  0  0  0  0  0
  -28.5570  -19.3361   21.0811 N   0  0  0  0  0  0
  -30.5658  -17.7547   19.8692 N   0  0  0  0  0  0
  -31.4165  -17.2051   23.2795 F   0  0  0  0  0  0
  -32.0860  -15.1684   23.0838 F   0  0  0  0  0  0
  -32.6466  -16.6420   21.6244 F   0  0  0  0  0  0
  -31.4760  -12.5293   19.1472 H   0  0  0  0  0  0
  -30.3847  -11.4092   19.8678 H   0  0  0  0  0  0
  -29.7836  -11.8045   17.4733 H   0  0  0  0  0  0
  -29.6591  -13.5216   17.7607 H   0  0  0  0  0  0
  -27.8548  -11.3210   18.8183 H   0  0  0  0  0  0
  -27.3822  -12.6415   17.7811 H   0  0  0  0  0  0
  -27.7018  -14.2670   19.5857 H   0  0  0  0  0  0
  -28.7344  -11.9167   21.2182 H   0  0  0  0  0  0
  -28.3549  -13.3991   21.9158 H   0  0  0  0  0  0
  -25.2774   -9.5689   22.4742 H   0  0  0  0  0  0
  -24.0000   -7.4653   22.7487 H   0  0  0  0  0  0
  -21.0837   -8.8775   19.8967 H   0  0  0  0  0  0
  -22.3699  -10.9665   19.6152 H   0  0  0  0  0  0
  -21.2020   -7.6147   23.9721 H   0  0  0  0  0  0
  -21.1469   -6.0515   25.9079 H   0  0  0  0  0  0
  -22.0607   -2.7607   23.2840 H   0  0  0  0  0  0
  -22.4116  -11.9901   22.4780 H   0  0  0  0  0  0
  -21.1129  -13.1279   22.2585 H   0  0  0  0  0  0
  -24.6582  -15.8397   20.5159 H   0  0  0  0  0  0
  -26.2679  -15.6273   20.0521 H   0  0  0  0  0  0
  -26.7148  -32.5484   23.1115 H   0  0  0  0  0  0
  -25.0031  -33.9728   25.0420 H   0  0  0  0  0  0
  -22.7049  -31.3010   21.4029 H   0  0  0  0  0  0
  -23.3748  -35.9643   23.3290 H   0  0  0  0  0  0
  -24.3575  -36.8939   22.2057 H   0  0  0  0  0  0
  -23.7249  -37.6502   23.6676 H   0  0  0  0  0  0
  -26.0686  -31.5661   20.5971 H   0  0  0  0  0  0
  -26.8329  -30.8579   21.9914 H   0  0  0  0  0  0
  -28.1173  -29.0230   21.1723 H   0  0  0  0  0  0
  -26.0223  -25.9162   19.0398 H   0  0  0  0  0  0
  -23.9715  -27.2840   19.0365 H   0  0  0  0  0  0
  -23.7451  -30.5884   19.4039 H   0  0  0  0  0  0
  -22.7482  -29.2407   19.8649 H   0  0  0  0  0  0
  -25.1286  -36.1941   25.0816 H   0  0  0  0  0  0
  -20.9943  -28.3254   24.1418 H   0  0  0  0  0  0
  -20.5667  -26.2280   23.3604 H   0  0  0  0  0  0
  -21.6647  -26.7440   22.1214 H   0  0  0  0  0  0
  -19.6932  -25.6288   21.1228 H   0  0  0  0  0  0
  -19.6701  -27.3184   20.6733 H   0  0  0  0  0  0
  -17.4205  -26.6646   21.4008 H   0  0  0  0  0  0
  -18.0336  -26.0036   22.8989 H   0  0  0  0  0  0
  -19.7940  -30.7223   24.2291 H   0  0  0  0  0  0
  -17.5032  -31.6261   24.5156 H   0  0  0  0  0  0
  -15.5353  -30.2996   23.7639 H   0  0  0  0  0  0
  -15.8657  -28.0804   22.7089 H   0  0  0  0  0  0
  -24.5949  -30.6968   25.7803 H   0  0  0  0  0  0
  -24.8869  -32.2816   26.4876 H   0  0  0  0  0  0
  -25.8098  -30.8896   27.0234 H   0  0  0  0  0  0
  -26.2871  -29.6758   24.1178 H   0  0  0  0  0  0
  -27.4091  -29.7266   25.4579 H   0  0  0  0  0  0
  -27.8710  -30.4314   23.9270 H   0  0  0  0  0  0
  -27.2657  -33.3639   26.2027 H   0  0  0  0  0  0
  -28.3879  -32.6833   25.0329 H   0  0  0  0  0  0
  -28.0675  -31.8459   26.5432 H   0  0  0  0  0  0
  -28.2580  -38.0120   24.7538 H   0  0  0  0  0  0
  -28.1101  -36.2648   24.6251 H   0  0  0  0  0  0
  -27.2300  -37.1408   25.8860 H   0  0  0  0  0  0
  -20.9335  -29.8761   21.6917 H   0  0  0  0  0  0
  -26.0170  -38.2850   24.1430 H   0  0  0  0  0  0
  -30.8837  -19.4118   18.6418 H   0  0  0  0  0  0
  -28.2464  -17.7409   22.3323 H   0  0  0  0  0  0
  -29.3049  -16.1943   23.5300 H   0  0  0  0  0  0
  -29.6014  -14.5299   23.1912 H   0  0  0  0  0  0
  -28.3043  -15.4237   22.3404 H   0  0  0  0  0  0
  -28.0550  -21.1713   18.9219 H   0  0  0  0  0  0
  -29.7404  -21.5399   18.8107 H   0  0  0  0  0  0
  -29.6342  -22.5803   21.1519 H   0  0  0  0  0  0
  -27.9119  -22.3342   21.1309 H   0  0  0  0  0  0
  -27.8309  -23.8535   19.0079 H   0  0  0  0  0  0
  -29.5189  -24.1723   19.2530 H   0  0  0  0  0  0
  -28.8865  -25.1651   21.5555 H   0  0  0  0  0  0
  -27.2256  -25.0316   21.1023 H   0  0  0  0  0  0
  1 25  1  0  0  0
  1 30  2  0  0  0
  1 80  1  0  0  0
  2  3  1  0  0  0
  2 25  1  0  0  0
  2 87  1  0  0  0
  2 88  1  0  0  0
  3  4  1  0  0  0
  3 89  1  0  0  0
  3 90  1  0  0  0
  4  5  1  0  0  0
  4 91  1  0  0  0
  4 92  1  0  0  0
  5  6  1  0  0  0
  5 26  1  0  0  0
  5 93  1  0  0  0
  6 25  1  0  0  0
  6 94  1  0  0  0
  6 95  1  0  0  0
  7  8  2  0  0  0
  7 26  1  0  0  0
  7 29  1  0  0  0
  8  9  1  0  0  0
  8 22  1  0  0  0
  9 10  1  0  0  0
  9 27  2  0  0  0
 10 11  2  0  0  0
 10 15  1  0  0  0
 11 12  1  0  0  0
 11 96  1  0  0  0
 12 13  2  0  0  0
 12 97  1  0  0  0
 13 14  1  0  0  0
 13 31  1  0  0  0
 14 15  2  0  0  0
 14 98  1  0  0  0
 15 99  1  0  0  0
 16 17  2  0  0  0
 16 21  1  0  0  0
 16 31  1  0  0  0
 17 18  1  0  0  0
 17100  1  0  0  0
 18 19  2  0  0  0
 18101  1  0  0  0
 19 20  1  0  0  0
 19 24  1  0  0  0
 20 21  2  0  0  0
 20102  1  0  0  0
 21 23  1  0  0  0
 22 28  1  0  0  0
 22 32  2  0  0  0
 26 27  1  0  0  0
 28103  1  0  0  0
 28104  1  0  0  0
 29105  1  0  0  0
 29106  1  0  0  0
 33 34  1  0  0  0
 33 66  1  0  0  0
 33 70  2  0  0  0
 34 36  1  0  0  0
 34 59  1  0  0  0
 34107  1  0  0  0
 35 44  2  0  0  0
 35 45  1  0  0  0
 35 68  1  0  0  0
 36 56  1  0  0  0
 36108  1  0  0  0
 37 39  1  0  0  0
 37 47  1  0  0  0
 37 66  1  0  0  0
 37109  1  0  0  0
 38 43  2  0  0  0
 38 46  1  0  0  0
 38 47  1  0  0  0
 39 64  1  0  0  0
 39 67  2  0  0  0
 40 52  1  0  0  0
 40 53  2  0  0  0
 40 58  1  0  0  0
 41110  1  0  0  0
 41111  1  0  0  0
 41112  1  0  0  0
 41 48  1  0  0  0
 42 43  1  0  0  0
 42 66  1  0  0  0
 42113  1  0  0  0
 42114  1  0  0  0
 43 44  1  0  0  0
 44115  1  0  0  0
 45 46  2  0  0  0
 45116  1  0  0  0
 46117  1  0  0  0
 47118  1  0  0  0
 47119  1  0  0  0
 48 56  1  0  0  0
 48 65  1  0  0  0
 48120  1  0  0  0
 49 50  1  0  0  0
 49 53  1  0  0  0
 49 64  1  0  0  0
 49121  1  0  0  0
 50 51  1  0  0  0
 50122  1  0  0  0
 50123  1  0  0  0
 51 52  1  0  0  0
 51124  1  0  0  0
 51125  1  0  0  0
 52126  1  0  0  0
 52127  1  0  0  0
 53 54  1  0  0  0
 54 55  2  0  0  0
 54128  1  0  0  0
 55 57  1  0  0  0
 55129  1  0  0  0
 56 69  2  0  0  0
 57 58  2  0  0  0
 57130  1  0  0  0
 58131  1  0  0  0
 59 60  1  0  0  0
 59 61  1  0  0  0
 59 62  1  0  0  0
 60132  1  0  0  0
 60133  1  0  0  0
 60134  1  0  0  0
 61135  1  0  0  0
 61136  1  0  0  0
 61137  1  0  0  0
 62138  1  0  0  0
 62139  1  0  0  0
 62140  1  0  0  0
 63 65  1  0  0  0
 63141  1  0  0  0
 63142  1  0  0  0
 63143  1  0  0  0
 64144  1  0  0  0
 65145  1  0  0  0
 68 79  1  0  0  0
 71 73  2  0  0  0
 71 83  1  0  0  0
 71146  1  0  0  0
 72 74  1  0  0  0
 72 82  2  0  0  0
 72147  1  0  0  0
 73 76  1  0  0  0
 73 82  1  0  0  0
 74 80  1  0  0  0
 74 83  2  0  0  0
 75148  1  0  0  0
 75149  1  0  0  0
 75150  1  0  0  0
 75 80  1  0  0  0
 76 77  1  0  0  0
 76151  1  0  0  0
 76152  1  0  0  0
 77 78  1  0  0  0
 77153  1  0  0  0
 77154  1  0  0  0
 78 79  1  0  0  0
 78155  1  0  0  0
 78156  1  0  0  0
 79157  1  0  0  0
 79158  1  0  0  0
 80 81  1  0  0  0
 81 84  1  0  0  0
 81 85  1  0  0  0
 81 86  1  0  0  0
M  ISO  4   1 100  68 101  79 101  80 100
M  END
> <chiral flag>
0

> <version>
0

> <s_m_source_file>
/data/baiqing/PycharmProjects/Reinvent-master-3.2/result/LINK_invent/BTK/process_docking_weight1_custom_sum_contain_oxygen_bond_distance_aromatic_linkinvent_7_9_3/rearranged_h_0070.sdf

> <i_m_source_file_index>
73

> <r_mmod_Potential_Energy-OPLS-2005>
298.87890625

> <r_mmod_Stretch_Energy-OPLS-2005>
95.6262512207031

> <r_mmod_Bend_Energy-OPLS-2005>
169.298583984375

> <r_mmod_Torsional_Energy-OPLS-2005>
178.520278930664

> <r_mmod_Improper_Torsional_Energy-OPLS-2005>
3.6593542098999

> <r_mmod_Van_der_Waal_Energy-OPLS-2005>
169.330551147461

> <r_mmod_Electrostatic_Energy-OPLS-2005>
-153.878890991211

> <r_mmod_Solvation_Energy-OPLS-2005>
-198.440460205078

> <b_mmod_Minimization_Converged-OPLS-2005>
0

> <r_mmod_RMS_Derivative-OPLS-2005>
1.51251399517059

$$$$
74
                    3D
 Structure written by MMmdl.
161169  0  0  1  0            999 V2000
  -30.7593  -14.3888   20.7008 C   0  0  0  0  0  0
  -30.4212  -12.3156   19.3924 C   0  0  0  0  0  0
  -29.4832  -12.5342   18.1909 C   0  0  0  0  0  0
  -28.0096  -12.3775   18.6107 C   0  0  0  0  0  0
  -27.6637  -13.2029   19.8771 C   0  0  2  0  0  0
  -28.7021  -12.9511   20.9913 C   0  0  0  0  0  0
  -25.2593  -13.8154   20.5672 C   0  0  0  0  0  0
  -24.1840  -13.0436   20.9167 C   0  0  0  0  0  0
  -24.6387  -11.6901   20.8724 C   0  0  0  0  0  0
  -23.9052  -10.4291   21.0400 C   0  0  0  0  0  0
  -24.3608   -9.4210   21.9180 C   0  0  0  0  0  0
  -23.6287   -8.2245   22.0754 C   0  0  0  0  0  0
  -22.4270   -8.0280   21.3544 C   0  0  0  0  0  0
  -21.9900   -9.0251   20.4646 C   0  0  0  0  0  0
  -22.7224  -10.2132   20.3053 C   0  0  0  0  0  0
  -21.6851   -6.0735   22.5279 C   0  0  0  0  0  0
  -21.4013   -6.5639   23.8213 C   0  0  0  0  0  0
  -21.3660   -5.6792   24.9175 C   0  0  0  0  0  0
  -21.6045   -4.3055   24.7225 C   0  0  0  0  0  0
  -21.8818   -3.8147   23.4345 C   0  0  0  0  0  0
  -21.9191   -4.6963   22.3402 C   0  0  0  0  0  0
  -22.7864  -13.5240   21.1840 C   0  0  0  0  0  0
  -22.1660   -4.2150   21.0979 F   0  0  0  0  0  0
  -21.5630   -3.4538   25.7738 F   0  0  0  0  0  0
  -30.0426  -13.2597   20.4546 N   0  0  0  0  0  0
  -26.3028  -12.9318   20.3362 N   0  0  0  0  0  0
  -25.9312  -11.6479   20.5748 N   0  0  0  0  0  0
  -22.0504  -12.8236   22.0399 N   0  0  0  0  0  0
  -25.4327  -15.1871   20.4089 N   0  0  0  0  0  0
  -31.7693  -14.6976   20.0635 O   0  0  0  0  0  0
  -21.6636   -6.8876   21.4240 O   0  0  0  0  0  0
  -22.3552  -14.5551   20.6695 O   0  0  0  0  0  0
  -24.6143  -31.8684   23.2107 C   0  0  0  0  0  0
  -25.9040  -32.4823   23.8397 C   0  0  1  0  0  0
  -27.2372  -27.4374   20.0765 C   0  0  0  0  0  0
  -25.5899  -33.8623   24.2327 N   0  0  0  0  0  0
  -23.4012  -30.4923   21.5519 C   0  0  2  0  0  0
  -24.8451  -28.9560   20.1174 C   0  0  0  0  0  0
  -22.7401  -29.4664   22.5002 C   0  0  0  0  0  0
  -18.0268  -28.1378   22.8496 C   0  0  0  0  0  0
  -24.1487  -36.7314   23.2638 C   0  0  0  0  0  0
  -25.9305  -30.8295   21.3662 C   0  0  0  0  0  0
  -26.0048  -29.4627   20.7160 C   0  0  0  0  0  0
  -27.1982  -28.7053   20.7030 C   0  0  0  0  0  0
  -26.0499  -26.9375   19.4918 C   0  0  0  0  0  0
  -24.8607  -27.6897   19.5094 C   0  0  0  0  0  0
  -23.6086  -29.8245   20.1666 C   0  0  0  0  0  0
  -25.4108  -36.3113   24.0337 C   0  0  1  0  0  0
  -20.5857  -28.3663   23.1325 C   0  0  2  0  0  0
  -20.6758  -26.9401   22.5423 C   0  0  0  0  0  0
  -19.5739  -26.6388   21.5216 C   0  0  0  0  0  0
  -18.1916  -26.7928   22.1623 C   0  0  0  0  0  0
  -19.1516  -28.8837   23.2909 C   0  0  0  0  0  0
  -18.9446  -30.1442   23.8921 C   0  0  0  0  0  0
  -17.6450  -30.6586   24.0567 C   0  0  0  0  0  0
  -25.9037  -34.9477   23.5128 C   0  0  0  0  0  0
  -16.5341  -29.9090   23.6326 C   0  0  0  0  0  0
  -16.7258  -28.6505   23.0351 C   0  0  0  0  0  0
  -26.4470  -31.6604   25.0725 C   0  0  0  0  0  0
  -25.3739  -31.3707   26.1475 C   0  0  0  0  0  0
  -27.0300  -30.3048   24.6101 C   0  0  0  0  0  0
  -27.6052  -32.4324   25.7479 C   0  0  0  0  0  0
  -27.5585  -37.1808   24.8463 C   0  0  0  0  0  0
  -21.4131  -29.3033   22.3735 N   0  0  0  0  0  0
  -26.4295  -37.3797   23.9411 N   0  0  0  0  0  0
  -24.6669  -31.0782   22.1011 N   0  0  0  0  0  0
  -23.4175  -28.8207   23.3043 O   0  0  0  0  0  0
  -28.4277  -26.7338   20.0637 O   0  0  0  0  0  0
  -26.5601  -34.8926   22.4691 O   0  0  0  0  0  0
  -23.5338  -32.1442   23.7502 O   0  0  0  0  0  0
  -29.7906  -18.0142   21.1969 C   0  0  0  0  0  0
  -31.6715  -19.7488   22.0521 C   0  0  0  0  0  0
  -30.8896  -17.5647   21.9804 C   0  0  0  0  0  0
  -30.5640  -20.1949   21.2979 C   0  0  0  0  0  0
  -32.4605  -15.7296   22.8329 C   0  0  0  0  0  0
  -28.3053  -24.2920   19.4846 C   0  0  0  0  0  0
  -29.4453  -23.5845   20.2501 C   0  0  0  0  0  0
  -28.6346  -25.7417   19.0482 C   0  0  0  0  0  0
  -29.2722  -22.0541   20.3932 C   0  0  0  0  0  0
  -30.9814  -16.1318   22.5663 C   0  0  1  0  0  0
  -30.2108  -16.0940   23.9158 C   0  0  0  0  0  0
  -31.8299  -18.4520   22.4029 N   0  0  0  0  0  0
  -29.6202  -19.3225   20.8541 N   0  0  0  0  0  0
  -30.3222  -15.0988   21.7477 N   0  0  0  0  0  0
  -30.4424  -21.5462   21.0321 O   0  0  0  0  0  0
  -28.9218  -16.3750   23.7118 F   0  0  0  0  0  0
  -30.6992  -16.9627   24.8018 F   0  0  0  0  0  0
  -30.2750  -14.8716   24.4499 F   0  0  0  0  0  0
  -31.4624  -12.4304   19.0850 H   0  0  0  0  0  0
  -30.3349  -11.2925   19.7616 H   0  0  0  0  0  0
  -29.7219  -11.8296   17.3932 H   0  0  0  0  0  0
  -29.6424  -13.5313   17.7771 H   0  0  0  0  0  0
  -27.8262  -11.3185   18.7966 H   0  0  0  0  0  0
  -27.3517  -12.6589   17.7876 H   0  0  0  0  0  0
  -27.7189  -14.2562   19.6009 H   0  0  0  0  0  0
  -28.6739  -11.9052   21.3012 H   0  0  0  0  0  0
  -28.4358  -13.5177   21.8835 H   0  0  0  0  0  0
  -25.2755   -9.5690   22.4749 H   0  0  0  0  0  0
  -23.9999   -7.4637   22.7472 H   0  0  0  0  0  0
  -21.0832   -8.8762   19.8952 H   0  0  0  0  0  0
  -22.3679  -10.9668   19.6161 H   0  0  0  0  0  0
  -21.2006   -7.6148   23.9717 H   0  0  0  0  0  0
  -21.1484   -6.0523   25.9077 H   0  0  0  0  0  0
  -22.0597   -2.7609   23.2844 H   0  0  0  0  0  0
  -22.4109  -11.9890   22.4779 H   0  0  0  0  0  0
  -21.1127  -13.1274   22.2613 H   0  0  0  0  0  0
  -24.6676  -15.8439   20.5176 H   0  0  0  0  0  0
  -26.2882  -15.6257   20.0922 H   0  0  0  0  0  0
  -26.7110  -32.5530   23.1159 H   0  0  0  0  0  0
  -25.0050  -33.9790   25.0472 H   0  0  0  0  0  0
  -22.6901  -31.3094   21.4137 H   0  0  0  0  0  0
  -23.3748  -35.9649   23.3309 H   0  0  0  0  0  0
  -24.3582  -36.8921   22.2052 H   0  0  0  0  0  0
  -23.7241  -37.6522   23.6647 H   0  0  0  0  0  0
  -26.0450  -31.5941   20.5965 H   0  0  0  0  0  0
  -26.8182  -30.8826   21.9845 H   0  0  0  0  0  0
  -28.0954  -29.0973   21.1616 H   0  0  0  0  0  0
  -26.0214  -25.9654   19.0222 H   0  0  0  0  0  0
  -23.9659  -27.2891   19.0533 H   0  0  0  0  0  0
  -23.7171  -30.5991   19.4066 H   0  0  0  0  0  0
  -22.7320  -29.2452   19.8712 H   0  0  0  0  0  0
  -25.1286  -36.1979   25.0832 H   0  0  0  0  0  0
  -20.9949  -28.3227   24.1446 H   0  0  0  0  0  0
  -20.5662  -26.2272   23.3608 H   0  0  0  0  0  0
  -21.6631  -26.7446   22.1217 H   0  0  0  0  0  0
  -19.6900  -25.6304   21.1233 H   0  0  0  0  0  0
  -19.6682  -27.3210   20.6756 H   0  0  0  0  0  0
  -17.4190  -26.6688   21.4019 H   0  0  0  0  0  0
  -18.0306  -26.0062   22.9009 H   0  0  0  0  0  0
  -19.7922  -30.7250   24.2308 H   0  0  0  0  0  0
  -17.5004  -31.6270   24.5163 H   0  0  0  0  0  0
  -15.5343  -30.3000   23.7639 H   0  0  0  0  0  0
  -15.8656  -28.0830   22.7059 H   0  0  0  0  0  0
  -24.5910  -30.7058   25.7808 H   0  0  0  0  0  0
  -24.8932  -32.2860   26.4938 H   0  0  0  0  0  0
  -25.8095  -30.8863   27.0223 H   0  0  0  0  0  0
  -26.2839  -29.6808   24.1167 H   0  0  0  0  0  0
  -27.4082  -29.7289   25.4559 H   0  0  0  0  0  0
  -27.8671  -30.4368   23.9241 H   0  0  0  0  0  0
  -27.2676  -33.3611   26.2090 H   0  0  0  0  0  0
  -28.3838  -32.6907   25.0288 H   0  0  0  0  0  0
  -28.0747  -31.8428   26.5363 H   0  0  0  0  0  0
  -28.2605  -38.0104   24.7521 H   0  0  0  0  0  0
  -28.1080  -36.2639   24.6276 H   0  0  0  0  0  0
  -27.2306  -37.1444   25.8866 H   0  0  0  0  0  0
  -20.9290  -29.8756   21.6960 H   0  0  0  0  0  0
  -26.0186  -38.2874   24.1416 H   0  0  0  0  0  0
  -29.0113  -17.3325   20.8884 H   0  0  0  0  0  0
  -32.4192  -20.4452   22.4027 H   0  0  0  0  0  0
  -32.9066  -16.3497   23.6106 H   0  0  0  0  0  0
  -33.0826  -15.8428   21.9457 H   0  0  0  0  0  0
  -32.5422  -14.6971   23.1723 H   0  0  0  0  0  0
  -27.3808  -24.2632   20.0617 H   0  0  0  0  0  0
  -28.1077  -23.7164   18.5793 H   0  0  0  0  0  0
  -29.5549  -24.0379   21.2360 H   0  0  0  0  0  0
  -30.3860  -23.7660   19.7288 H   0  0  0  0  0  0
  -28.0867  -25.9956   18.1395 H   0  0  0  0  0  0
  -29.6810  -25.7966   18.7471 H   0  0  0  0  0  0
  -29.1539  -21.5939   19.4108 H   0  0  0  0  0  0
  -28.3839  -21.8229   20.9832 H   0  0  0  0  0  0
  -29.4783  -14.7449   22.1723 H   0  0  0  0  0  0
  1 25  1  0  0  0
  1 30  2  0  0  0
  1 84  1  0  0  0
  2  3  1  0  0  0
  2 25  1  0  0  0
  2 89  1  0  0  0
  2 90  1  0  0  0
  3  4  1  0  0  0
  3 91  1  0  0  0
  3 92  1  0  0  0
  4  5  1  0  0  0
  4 93  1  0  0  0
  4 94  1  0  0  0
  5  6  1  0  0  0
  5 26  1  0  0  0
  5 95  1  0  0  0
  6 25  1  0  0  0
  6 96  1  0  0  0
  6 97  1  0  0  0
  7  8  2  0  0  0
  7 26  1  0  0  0
  7 29  1  0  0  0
  8  9  1  0  0  0
  8 22  1  0  0  0
  9 10  1  0  0  0
  9 27  2  0  0  0
 10 11  2  0  0  0
 10 15  1  0  0  0
 11 12  1  0  0  0
 11 98  1  0  0  0
 12 13  2  0  0  0
 12 99  1  0  0  0
 13 14  1  0  0  0
 13 31  1  0  0  0
 14 15  2  0  0  0
 14100  1  0  0  0
 15101  1  0  0  0
 16 17  2  0  0  0
 16 21  1  0  0  0
 16 31  1  0  0  0
 17 18  1  0  0  0
 17102  1  0  0  0
 18 19  2  0  0  0
 18103  1  0  0  0
 19 20  1  0  0  0
 19 24  1  0  0  0
 20 21  2  0  0  0
 20104  1  0  0  0
 21 23  1  0  0  0
 22 28  1  0  0  0
 22 32  2  0  0  0
 26 27  1  0  0  0
 28105  1  0  0  0
 28106  1  0  0  0
 29107  1  0  0  0
 29108  1  0  0  0
 33 34  1  0  0  0
 33 66  1  0  0  0
 33 70  2  0  0  0
 34 36  1  0  0  0
 34 59  1  0  0  0
 34109  1  0  0  0
 35 44  2  0  0  0
 35 45  1  0  0  0
 35 68  1  0  0  0
 36 56  1  0  0  0
 36110  1  0  0  0
 37 39  1  0  0  0
 37 47  1  0  0  0
 37 66  1  0  0  0
 37111  1  0  0  0
 38 43  2  0  0  0
 38 46  1  0  0  0
 38 47  1  0  0  0
 39 64  1  0  0  0
 39 67  2  0  0  0
 40 52  1  0  0  0
 40 53  2  0  0  0
 40 58  1  0  0  0
 41112  1  0  0  0
 41113  1  0  0  0
 41114  1  0  0  0
 41 48  1  0  0  0
 42 43  1  0  0  0
 42 66  1  0  0  0
 42115  1  0  0  0
 42116  1  0  0  0
 43 44  1  0  0  0
 44117  1  0  0  0
 45 46  2  0  0  0
 45118  1  0  0  0
 46119  1  0  0  0
 47120  1  0  0  0
 47121  1  0  0  0
 48 56  1  0  0  0
 48 65  1  0  0  0
 48122  1  0  0  0
 49 50  1  0  0  0
 49 53  1  0  0  0
 49 64  1  0  0  0
 49123  1  0  0  0
 50 51  1  0  0  0
 50124  1  0  0  0
 50125  1  0  0  0
 51 52  1  0  0  0
 51126  1  0  0  0
 51127  1  0  0  0
 52128  1  0  0  0
 52129  1  0  0  0
 53 54  1  0  0  0
 54 55  2  0  0  0
 54130  1  0  0  0
 55 57  1  0  0  0
 55131  1  0  0  0
 56 69  2  0  0  0
 57 58  2  0  0  0
 57132  1  0  0  0
 58133  1  0  0  0
 59 60  1  0  0  0
 59 61  1  0  0  0
 59 62  1  0  0  0
 60134  1  0  0  0
 60135  1  0  0  0
 60136  1  0  0  0
 61137  1  0  0  0
 61138  1  0  0  0
 61139  1  0  0  0
 62140  1  0  0  0
 62141  1  0  0  0
 62142  1  0  0  0
 63 65  1  0  0  0
 63143  1  0  0  0
 63144  1  0  0  0
 63145  1  0  0  0
 64146  1  0  0  0
 65147  1  0  0  0
 68 78  1  0  0  0
 71 73  2  0  0  0
 71 83  1  0  0  0
 71148  1  0  0  0
 72 74  1  0  0  0
 72 82  2  0  0  0
 72149  1  0  0  0
 73 80  1  0  0  0
 73 82  1  0  0  0
 74 83  2  0  0  0
 74 85  1  0  0  0
 75150  1  0  0  0
 75151  1  0  0  0
 75152  1  0  0  0
 75 80  1  0  0  0
 76 77  1  0  0  0
 76 78  1  0  0  0
 76153  1  0  0  0
 76154  1  0  0  0
 77 79  1  0  0  0
 77155  1  0  0  0
 77156  1  0  0  0
 78157  1  0  0  0
 78158  1  0  0  0
 79 85  1  0  0  0
 79159  1  0  0  0
 79160  1  0  0  0
 80 81  1  0  0  0
 80 84  1  0  0  0
 81 86  1  0  0  0
 81 87  1  0  0  0
 81 88  1  0  0  0
 84161  1  0  0  0
M  ISO  4   1 100  68 101  78 101  84 100
M  END
> <chiral flag>
0

> <version>
0

> <s_m_source_file>
/data/baiqing/PycharmProjects/Reinvent-master-3.2/result/LINK_invent/BTK/process_docking_weight1_custom_sum_contain_oxygen_bond_distance_aromatic_linkinvent_7_9_3/rearranged_h_0070.sdf

> <i_m_source_file_index>
74

> <r_mmod_Potential_Energy-OPLS-2005>
-48.677978515625

> <r_mmod_Stretch_Energy-OPLS-2005>
41.92041015625

> <r_mmod_Bend_Energy-OPLS-2005>
119.222442626953

> <r_mmod_Torsional_Energy-OPLS-2005>
186.718444824219

> <r_mmod_Improper_Torsional_Energy-OPLS-2005>
3.24856877326965

> <r_mmod_Van_der_Waal_Energy-OPLS-2005>
171.791687011719

> <r_mmod_Electrostatic_Energy-OPLS-2005>
-378.968017578125

> <r_mmod_Solvation_Energy-OPLS-2005>
-201.299850463867

> <b_mmod_Minimization_Converged-OPLS-2005>
0

> <r_mmod_RMS_Derivative-OPLS-2005>
0.313183784484863

$$$$
75
                    3D
 Structure written by MMmdl.
160168  0  0  1  0            999 V2000
  -30.6163  -14.6322   20.5438 C   0  0  0  0  0  0
  -30.4436  -12.4021   19.4353 C   0  0  0  0  0  0
  -29.5151  -12.5337   18.2076 C   0  0  0  0  0  0
  -28.0429  -12.3345   18.6241 C   0  0  0  0  0  0
  -27.6516  -13.2057   19.8472 C   0  0  2  0  0  0
  -28.6930  -13.0597   20.9808 C   0  0  0  0  0  0
  -25.2644  -13.8109   20.5666 C   0  0  0  0  0  0
  -24.1911  -13.0415   20.9174 C   0  0  0  0  0  0
  -24.6429  -11.6890   20.8715 C   0  0  0  0  0  0
  -23.9074  -10.4274   21.0378 C   0  0  0  0  0  0
  -24.3600   -9.4202   21.9169 C   0  0  0  0  0  0
  -23.6266   -8.2246   22.0779 C   0  0  0  0  0  0
  -22.4264   -8.0271   21.3552 C   0  0  0  0  0  0
  -21.9899   -9.0247   20.4664 C   0  0  0  0  0  0
  -22.7245  -10.2115   20.3038 C   0  0  0  0  0  0
  -21.6852   -6.0705   22.5273 C   0  0  0  0  0  0
  -21.4018   -6.5616   23.8199 C   0  0  0  0  0  0
  -21.3662   -5.6791   24.9176 C   0  0  0  0  0  0
  -21.6048   -4.3049   24.7250 C   0  0  0  0  0  0
  -21.8821   -3.8131   23.4369 C   0  0  0  0  0  0
  -21.9225   -4.6933   22.3429 C   0  0  0  0  0  0
  -22.7953  -13.5241   21.1872 C   0  0  0  0  0  0
  -22.1688   -4.2106   21.1006 F   0  0  0  0  0  0
  -21.5615   -3.4547   25.7768 F   0  0  0  0  0  0
  -30.0060  -13.4122   20.4200 N   0  0  0  0  0  0
  -26.3003  -12.9250   20.3208 N   0  0  0  0  0  0
  -25.9323  -11.6421   20.5646 N   0  0  0  0  0  0
  -22.0593  -12.8195   22.0386 N   0  0  0  0  0  0
  -25.4489  -15.1820   20.4136 N   0  0  0  0  0  0
  -31.7864  -14.8137   20.2044 O   0  0  0  0  0  0
  -21.6643   -6.8866   21.4246 O   0  0  0  0  0  0
  -22.3670  -14.5584   20.6796 O   0  0  0  0  0  0
  -24.6259  -31.8600   23.1983 C   0  0  0  0  0  0
  -25.9090  -32.4797   23.8333 C   0  0  1  0  0  0
  -27.2681  -27.3284   20.1366 C   0  0  0  0  0  0
  -25.5911  -33.8598   24.2285 N   0  0  0  0  0  0
  -23.4228  -30.4773   21.5399 C   0  0  2  0  0  0
  -24.8800  -28.9219   20.1139 C   0  0  0  0  0  0
  -22.7449  -29.4639   22.4945 C   0  0  0  0  0  0
  -18.0272  -28.1384   22.8494 C   0  0  0  0  0  0
  -24.1515  -36.7308   23.2635 C   0  0  0  0  0  0
  -25.9577  -30.7972   21.3627 C   0  0  0  0  0  0
  -26.0411  -29.4197   20.7176 C   0  0  0  0  0  0
  -27.2285  -28.6291   20.7261 C   0  0  0  0  0  0
  -26.0776  -26.8755   19.5200 C   0  0  0  0  0  0
  -24.9007  -27.6548   19.5087 C   0  0  0  0  0  0
  -23.6391  -29.7931   20.1620 C   0  0  0  0  0  0
  -25.4137  -36.3112   24.0323 C   0  0  1  0  0  0
  -20.5874  -28.3701   23.1293 C   0  0  2  0  0  0
  -20.6789  -26.9423   22.5435 C   0  0  0  0  0  0
  -19.5768  -26.6395   21.5228 C   0  0  0  0  0  0
  -18.1930  -26.7931   22.1605 C   0  0  0  0  0  0
  -19.1521  -28.8848   23.2899 C   0  0  0  0  0  0
  -18.9434  -30.1448   23.8923 C   0  0  0  0  0  0
  -17.6446  -30.6592   24.0566 C   0  0  0  0  0  0
  -25.9058  -34.9469   23.5116 C   0  0  0  0  0  0
  -16.5351  -29.9083   23.6352 C   0  0  0  0  0  0
  -16.7257  -28.6497   23.0372 C   0  0  0  0  0  0
  -26.4474  -31.6569   25.0673 C   0  0  0  0  0  0
  -25.3678  -31.3690   26.1371 C   0  0  0  0  0  0
  -27.0285  -30.2997   24.6075 C   0  0  0  0  0  0
  -27.6079  -32.4226   25.7438 C   0  0  0  0  0  0
  -27.5616  -37.1807   24.8447 C   0  0  0  0  0  0
  -21.4157  -29.3052   22.3659 N   0  0  0  0  0  0
  -26.4327  -37.3801   23.9398 N   0  0  0  0  0  0
  -24.6874  -31.0607   22.0923 N   0  0  0  0  0  0
  -23.4151  -28.8180   23.3032 O   0  0  0  0  0  0
  -28.4176  -26.5237   20.2498 O   0  0  0  0  0  0
  -26.5629  -34.8934   22.4683 O   0  0  0  0  0  0
  -23.5425  -32.1370   23.7333 O   0  0  0  0  0  0
  -28.1890  -22.7695   19.4913 C   0  0  0  0  0  0
  -28.8581  -23.8821   20.0612 C   0  0  0  0  0  0
  -29.8205  -23.5002   21.0333 C   0  0  0  0  0  0
  -29.3953  -21.1903   20.7144 C   0  0  0  0  0  0
  -30.6527  -24.5092   21.8194 C   0  0  0  0  0  0
  -31.2188  -18.5400   19.6866 C   0  0  0  0  0  0
  -28.6563  -25.3202   19.4351 C   0  0  0  0  0  0
  -30.0159  -17.0812   21.3666 C   0  0  0  0  0  0
  -29.5433  -19.7085   21.2929 C   0  0  0  0  0  0
  -29.8577  -18.3786   20.4089 C   0  0  1  0  0  0
  -28.7599  -18.1620   19.3232 C   0  0  0  0  0  0
  -28.4300  -21.4762   19.8380 N   0  0  0  0  0  0
  -30.0668  -22.1861   21.3293 N   0  0  0  0  0  0
  -29.7876  -15.6550   20.9158 N   0  0  0  0  0  0
  -28.4175  -19.4877   21.9811 F   0  0  0  0  0  0
  -30.5237  -19.7531   22.2064 F   0  0  0  0  0  0
  -28.9873  -17.0522   18.6137 F   0  0  0  0  0  0
  -27.5576  -18.0356   19.8902 F   0  0  0  0  0  0
  -28.7173  -19.1532   18.4359 F   0  0  0  0  0  0
  -31.4841  -12.5418   19.1343 H   0  0  0  0  0  0
  -30.3735  -11.4009   19.8635 H   0  0  0  0  0  0
  -29.7904  -11.8107   17.4385 H   0  0  0  0  0  0
  -29.6457  -13.5219   17.7613 H   0  0  0  0  0  0
  -27.9002  -11.2775   18.8606 H   0  0  0  0  0  0
  -27.3880  -12.5507   17.7790 H   0  0  0  0  0  0
  -27.6691  -14.2354   19.4946 H   0  0  0  0  0  0
  -28.7119  -12.0373   21.3620 H   0  0  0  0  0  0
  -28.4263  -13.6866   21.8326 H   0  0  0  0  0  0
  -25.2730   -9.5658   22.4745 H   0  0  0  0  0  0
  -23.9968   -7.4635   22.7455 H   0  0  0  0  0  0
  -21.0868   -8.8749   19.8926 H   0  0  0  0  0  0
  -22.3720  -10.9636   19.6131 H   0  0  0  0  0  0
  -21.1967   -7.6111   23.9676 H   0  0  0  0  0  0
  -21.1500   -6.0527   25.9065 H   0  0  0  0  0  0
  -22.0608   -2.7578   23.2905 H   0  0  0  0  0  0
  -22.4242  -11.9775   22.4623 H   0  0  0  0  0  0
  -21.1198  -13.1196   22.2608 H   0  0  0  0  0  0
  -24.6895  -15.8450   20.5108 H   0  0  0  0  0  0
  -26.2934  -15.6023   20.0504 H   0  0  0  0  0  0
  -26.7163  -32.5510   23.1102 H   0  0  0  0  0  0
  -25.0081  -33.9744   25.0439 H   0  0  0  0  0  0
  -22.7168  -31.2978   21.3883 H   0  0  0  0  0  0
  -23.3815  -35.9599   23.3240 H   0  0  0  0  0  0
  -24.3641  -36.8975   22.2052 H   0  0  0  0  0  0
  -23.7213  -37.6475   23.6670 H   0  0  0  0  0  0
  -26.0678  -31.5523   20.5827 H   0  0  0  0  0  0
  -26.8472  -30.8714   21.9789 H   0  0  0  0  0  0
  -28.1137  -29.0008   21.2211 H   0  0  0  0  0  0
  -26.0196  -25.8891   19.0880 H   0  0  0  0  0  0
  -24.0052  -27.2566   19.0505 H   0  0  0  0  0  0
  -23.7368  -30.5608   19.3916 H   0  0  0  0  0  0
  -22.7648  -29.2046   19.8764 H   0  0  0  0  0  0
  -25.1336  -36.1991   25.0835 H   0  0  0  0  0  0
  -20.9981  -28.3302   24.1408 H   0  0  0  0  0  0
  -20.5741  -26.2293   23.3624 H   0  0  0  0  0  0
  -21.6646  -26.7503   22.1190 H   0  0  0  0  0  0
  -19.6949  -25.6304   21.1250 H   0  0  0  0  0  0
  -19.6731  -27.3223   20.6772 H   0  0  0  0  0  0
  -17.4220  -26.6709   21.3975 H   0  0  0  0  0  0
  -18.0310  -26.0074   22.8985 H   0  0  0  0  0  0
  -19.7908  -30.7279   24.2317 H   0  0  0  0  0  0
  -17.4986  -31.6278   24.5127 H   0  0  0  0  0  0
  -15.5348  -30.2992   23.7679 H   0  0  0  0  0  0
  -15.8640  -28.0841   22.7094 H   0  0  0  0  0  0
  -24.5887  -30.7036   25.7642 H   0  0  0  0  0  0
  -24.8829  -32.2838   26.4773 H   0  0  0  0  0  0
  -25.7960  -30.8846   27.0147 H   0  0  0  0  0  0
  -26.2823  -29.6757   24.1142 H   0  0  0  0  0  0
  -27.4035  -29.7263   25.4558 H   0  0  0  0  0  0
  -27.8670  -30.4306   23.9234 H   0  0  0  0  0  0
  -27.2782  -33.3555   26.2023 H   0  0  0  0  0  0
  -28.3894  -32.6704   25.0236 H   0  0  0  0  0  0
  -28.0711  -31.8285   26.5321 H   0  0  0  0  0  0
  -28.2607  -38.0136   24.7592 H   0  0  0  0  0  0
  -28.1150  -36.2680   24.6189 H   0  0  0  0  0  0
  -27.2323  -37.1338   25.8841 H   0  0  0  0  0  0
  -20.9318  -29.8725   21.6851 H   0  0  0  0  0  0
  -26.0232  -38.2888   24.1395 H   0  0  0  0  0  0
  -27.4538  -22.9096   18.7063 H   0  0  0  0  0  0
  -30.1659  -24.7521   22.7680 H   0  0  0  0  0  0
  -30.8043  -25.4463   21.2806 H   0  0  0  0  0  0
  -31.6415  -24.1152   22.0698 H   0  0  0  0  0  0
  -32.0164  -18.7871   20.3887 H   0  0  0  0  0  0
  -31.1791  -19.3329   18.9400 H   0  0  0  0  0  0
  -31.5107  -17.6245   19.1744 H   0  0  0  0  0  0
  -27.9598  -25.2464   18.6034 H   0  0  0  0  0  0
  -29.6018  -25.5276   18.9344 H   0  0  0  0  0  0
  -29.2774  -17.1980   22.1643 H   0  0  0  0  0  0
  -30.9761  -17.1192   21.8807 H   0  0  0  0  0  0
  -28.8466  -15.3305   21.0814 H   0  0  0  0  0  0
  1 25  1  0  0  0
  1 30  2  0  0  0
  1 84  1  0  0  0
  2  3  1  0  0  0
  2 25  1  0  0  0
  2 90  1  0  0  0
  2 91  1  0  0  0
  3  4  1  0  0  0
  3 92  1  0  0  0
  3 93  1  0  0  0
  4  5  1  0  0  0
  4 94  1  0  0  0
  4 95  1  0  0  0
  5  6  1  0  0  0
  5 26  1  0  0  0
  5 96  1  0  0  0
  6 25  1  0  0  0
  6 97  1  0  0  0
  6 98  1  0  0  0
  7  8  2  0  0  0
  7 26  1  0  0  0
  7 29  1  0  0  0
  8  9  1  0  0  0
  8 22  1  0  0  0
  9 10  1  0  0  0
  9 27  2  0  0  0
 10 11  2  0  0  0
 10 15  1  0  0  0
 11 12  1  0  0  0
 11 99  1  0  0  0
 12 13  2  0  0  0
 12100  1  0  0  0
 13 14  1  0  0  0
 13 31  1  0  0  0
 14 15  2  0  0  0
 14101  1  0  0  0
 15102  1  0  0  0
 16 17  2  0  0  0
 16 21  1  0  0  0
 16 31  1  0  0  0
 17 18  1  0  0  0
 17103  1  0  0  0
 18 19  2  0  0  0
 18104  1  0  0  0
 19 20  1  0  0  0
 19 24  1  0  0  0
 20 21  2  0  0  0
 20105  1  0  0  0
 21 23  1  0  0  0
 22 28  1  0  0  0
 22 32  2  0  0  0
 26 27  1  0  0  0
 28106  1  0  0  0
 28107  1  0  0  0
 29108  1  0  0  0
 29109  1  0  0  0
 33 34  1  0  0  0
 33 66  1  0  0  0
 33 70  2  0  0  0
 34 36  1  0  0  0
 34 59  1  0  0  0
 34110  1  0  0  0
 35 44  2  0  0  0
 35 45  1  0  0  0
 35 68  1  0  0  0
 36 56  1  0  0  0
 36111  1  0  0  0
 37 39  1  0  0  0
 37 47  1  0  0  0
 37 66  1  0  0  0
 37112  1  0  0  0
 38 43  2  0  0  0
 38 46  1  0  0  0
 38 47  1  0  0  0
 39 64  1  0  0  0
 39 67  2  0  0  0
 40 52  1  0  0  0
 40 53  2  0  0  0
 40 58  1  0  0  0
 41113  1  0  0  0
 41114  1  0  0  0
 41115  1  0  0  0
 41 48  1  0  0  0
 42 43  1  0  0  0
 42 66  1  0  0  0
 42116  1  0  0  0
 42117  1  0  0  0
 43 44  1  0  0  0
 44118  1  0  0  0
 45 46  2  0  0  0
 45119  1  0  0  0
 46120  1  0  0  0
 47121  1  0  0  0
 47122  1  0  0  0
 48 56  1  0  0  0
 48 65  1  0  0  0
 48123  1  0  0  0
 49 50  1  0  0  0
 49 53  1  0  0  0
 49 64  1  0  0  0
 49124  1  0  0  0
 50 51  1  0  0  0
 50125  1  0  0  0
 50126  1  0  0  0
 51 52  1  0  0  0
 51127  1  0  0  0
 51128  1  0  0  0
 52129  1  0  0  0
 52130  1  0  0  0
 53 54  1  0  0  0
 54 55  2  0  0  0
 54131  1  0  0  0
 55 57  1  0  0  0
 55132  1  0  0  0
 56 69  2  0  0  0
 57 58  2  0  0  0
 57133  1  0  0  0
 58134  1  0  0  0
 59 60  1  0  0  0
 59 61  1  0  0  0
 59 62  1  0  0  0
 60135  1  0  0  0
 60136  1  0  0  0
 60137  1  0  0  0
 61138  1  0  0  0
 61139  1  0  0  0
 61140  1  0  0  0
 62141  1  0  0  0
 62142  1  0  0  0
 62143  1  0  0  0
 63 65  1  0  0  0
 63144  1  0  0  0
 63145  1  0  0  0
 63146  1  0  0  0
 64147  1  0  0  0
 65148  1  0  0  0
 68 77  1  0  0  0
 71 72  2  0  0  0
 71 82  1  0  0  0
 71149  1  0  0  0
 72 73  1  0  0  0
 72 77  1  0  0  0
 73 75  1  0  0  0
 73 83  2  0  0  0
 74 79  1  0  0  0
 74 82  2  0  0  0
 74 83  1  0  0  0
 75150  1  0  0  0
 75151  1  0  0  0
 75152  1  0  0  0
 76153  1  0  0  0
 76154  1  0  0  0
 76155  1  0  0  0
 76 80  1  0  0  0
 77156  1  0  0  0
 77157  1  0  0  0
 78 80  1  0  0  0
 78 84  1  0  0  0
 78158  1  0  0  0
 78159  1  0  0  0
 79 80  1  0  0  0
 79 85  1  0  0  0
 79 86  1  0  0  0
 80 81  1  0  0  0
 81 87  1  0  0  0
 81 88  1  0  0  0
 81 89  1  0  0  0
 84160  1  0  0  0
M  ISO  4   1 100  68 101  77 101  84 100
M  END
> <chiral flag>
0

> <version>
0

> <s_m_source_file>
/data/baiqing/PycharmProjects/Reinvent-master-3.2/result/LINK_invent/BTK/process_docking_weight1_custom_sum_contain_oxygen_bond_distance_aromatic_linkinvent_7_9_3/rearranged_h_0070.sdf

> <i_m_source_file_index>
75

> <r_mmod_Potential_Energy-OPLS-2005>
-211.289688110352

> <r_mmod_Stretch_Energy-OPLS-2005>
96.2915191650391

> <r_mmod_Bend_Energy-OPLS-2005>
195.776489257812

> <r_mmod_Torsional_Energy-OPLS-2005>
242.738174438477

> <r_mmod_Improper_Torsional_Energy-OPLS-2005>
7.23812866210938

> <r_mmod_Van_der_Waal_Energy-OPLS-2005>
150.10627746582

> <r_mmod_Electrostatic_Energy-OPLS-2005>
-736.876770019531

> <r_mmod_Solvation_Energy-OPLS-2005>
-215.663955688477

> <b_mmod_Minimization_Converged-OPLS-2005>
0

> <r_mmod_RMS_Derivative-OPLS-2005>
6.31685352325439

$$$$
76
                    3D
 Structure written by MMmdl.
172181  0  0  1  0            999 V2000
  -30.6999  -14.5274   20.3610 C   0  0  0  0  0  0
  -30.4087  -12.2933   19.4278 C   0  0  0  0  0  0
  -29.4641  -12.4910   18.2126 C   0  0  0  0  0  0
  -27.9950  -12.4029   18.6522 C   0  0  0  0  0  0
  -27.6735  -13.2195   19.9283 C   0  0  2  0  0  0
  -28.7276  -13.0491   21.0194 C   0  0  0  0  0  0
  -25.2731  -13.8247   20.5695 C   0  0  0  0  0  0
  -24.2026  -13.0449   20.8979 C   0  0  0  0  0  0
  -24.6442  -11.6791   20.8330 C   0  0  0  0  0  0
  -23.9223  -10.4060   21.0073 C   0  0  0  0  0  0
  -24.3794   -9.4003   21.8971 C   0  0  0  0  0  0
  -23.6388   -8.2093   22.0728 C   0  0  0  0  0  0
  -22.4360   -8.0084   21.3422 C   0  0  0  0  0  0
  -21.9759   -9.0131   20.4679 C   0  0  0  0  0  0
  -22.7297  -10.1831   20.2911 C   0  0  0  0  0  0
  -21.6787   -6.0612   22.5345 C   0  0  0  0  0  0
  -21.3818   -6.5601   23.8281 C   0  0  0  0  0  0
  -21.3447   -5.6763   24.9252 C   0  0  0  0  0  0
  -21.5938   -4.2987   24.7287 C   0  0  0  0  0  0
  -21.8802   -3.8035   23.4426 C   0  0  0  0  0  0
  -21.9057   -4.6817   22.3447 C   0  0  0  0  0  0
  -22.8170  -13.5145   21.2105 C   0  0  0  0  0  0
  -22.1589   -4.2087   21.0944 F   0  0  0  0  0  0
  -21.5540   -3.4446   25.7714 F   0  0  0  0  0  0
  -30.0280  -13.3372   20.3973 N   0  0  0  0  0  0
  -26.3259  -12.9415   20.3606 N   0  0  0  0  0  0
  -25.9447  -11.6534   20.5573 N   0  0  0  0  0  0
  -22.1789  -12.8450   22.1505 N   0  0  0  0  0  0
  -25.4516  -15.1992   20.3698 N   0  0  0  0  0  0
  -31.9141  -14.5722   20.1287 O   0  0  0  0  0  0
  -21.6448   -6.8857   21.4409 O   0  0  0  0  0  0
  -22.3379  -14.5151   20.7024 O   0  0  0  0  0  0
  -24.6263  -31.8627   23.2039 C   0  0  0  0  0  0
  -25.9138  -32.4759   23.8353 C   0  0  1  0  0  0
  -27.1625  -27.3440   20.1479 C   0  0  0  0  0  0
  -25.5973  -33.8554   24.2277 N   0  0  0  0  0  0
  -23.4082  -30.5003   21.5444 C   0  0  2  0  0  0
  -24.8446  -28.9543   20.1092 C   0  0  0  0  0  0
  -22.7474  -29.4659   22.4873 C   0  0  0  0  0  0
  -18.0297  -28.1390   22.8491 C   0  0  0  0  0  0
  -24.1493  -36.7303   23.2629 C   0  0  0  0  0  0
  -25.9477  -30.8155   21.3556 C   0  0  0  0  0  0
  -26.0135  -29.4459   20.7033 C   0  0  0  0  0  0
  -27.1897  -28.6533   20.7101 C   0  0  0  0  0  0
  -25.9807  -26.8885   19.5325 C   0  0  0  0  0  0
  -24.8227  -27.6806   19.5206 C   0  0  0  0  0  0
  -23.6194  -29.8436   20.1587 C   0  0  0  0  0  0
  -25.4119  -36.3086   24.0317 C   0  0  1  0  0  0
  -20.5918  -28.3711   23.1273 C   0  0  2  0  0  0
  -20.6772  -26.9432   22.5387 C   0  0  0  0  0  0
  -19.5743  -26.6396   21.5197 C   0  0  0  0  0  0
  -18.1936  -26.7936   22.1628 C   0  0  0  0  0  0
  -19.1561  -28.8853   23.2882 C   0  0  0  0  0  0
  -18.9468  -30.1449   23.8904 C   0  0  0  0  0  0
  -17.6455  -30.6575   24.0570 C   0  0  0  0  0  0
  -25.9069  -34.9443   23.5100 C   0  0  0  0  0  0
  -16.5350  -29.9072   23.6307 C   0  0  0  0  0  0
  -16.7277  -28.6493   23.0338 C   0  0  0  0  0  0
  -26.4513  -31.6561   25.0685 C   0  0  0  0  0  0
  -25.3756  -31.3671   26.1415 C   0  0  0  0  0  0
  -27.0343  -30.3006   24.6078 C   0  0  0  0  0  0
  -27.6088  -32.4286   25.7462 C   0  0  0  0  0  0
  -27.5584  -37.1816   24.8480 C   0  0  0  0  0  0
  -21.4194  -29.3051   22.3657 N   0  0  0  0  0  0
  -26.4306  -37.3775   23.9406 N   0  0  0  0  0  0
  -24.6787  -31.0807   22.0885 N   0  0  0  0  0  0
  -23.4262  -28.8151   23.2874 O   0  0  0  0  0  0
  -28.2279  -26.4656   20.2199 O   0  0  0  0  0  0
  -26.5619  -34.8923   22.4650 O   0  0  0  0  0  0
  -23.5437  -32.1335   23.7419 O   0  0  0  0  0  0
  -26.3840  -23.3210   21.4748 C   0  0  0  0  0  0
  -27.6866  -23.4019   19.4656 C   0  0  0  0  0  0
  -25.8403  -18.5578   17.7161 C   0  0  0  0  0  0
  -27.5476  -18.6988   19.1024 C   0  0  0  0  0  0
  -27.3254  -24.0309   20.6688 C   0  0  0  0  0  0
  -25.8543  -22.0537   21.0620 C   0  0  0  0  0  0
  -26.3877  -19.3543   18.7540 C   0  0  0  0  0  0
  -26.3168  -21.5541   19.8223 C   0  0  0  0  0  0
  -25.5892  -20.1743   22.7529 C   0  0  0  0  0  0
  -23.7295  -20.4927   21.1510 C   0  0  0  0  0  0
  -24.0707  -22.1297   22.9545 C   0  0  0  0  0  0
  -30.4382  -16.6479   21.3423 C   0  0  0  0  0  0
  -28.0231  -25.3483   21.1535 C   0  0  0  0  0  0
  -28.5767  -16.4518   18.1897 C   0  0  0  0  0  0
  -29.9211  -16.4292   18.9723 C   0  0  0  0  0  0
  -24.8350  -21.2438   21.9445 C   0  0  0  0  0  0
  -27.1891  -22.2176   19.0345 N   0  0  0  0  0  0
  -26.5792  -17.5047   17.4409 N   0  0  0  0  0  0
  -27.6267  -17.5674   18.3006 N   0  0  0  0  0  0
  -29.9849  -15.6981   20.2920 N   0  0  0  0  0  0
  -25.7301  -20.4454   19.2703 O   0  0  0  0  0  0
  -31.4304  -12.3735   19.0688 H   0  0  0  0  0  0
  -30.3518  -11.2974   19.8524 H   0  0  0  0  0  0
  -29.6563  -11.7293   17.4592 H   0  0  0  0  0  0
  -29.6398  -13.4597   17.7473 H   0  0  0  0  0  0
  -27.8081  -11.3424   18.8452 H   0  0  0  0  0  0
  -27.3176  -12.6931   17.8375 H   0  0  0  0  0  0
  -27.7276  -14.2745   19.7677 H   0  0  0  0  0  0
  -28.7043  -12.0322   21.3929 H   0  0  0  0  0  0
  -28.5178  -13.6983   21.8663 H   0  0  0  0  0  0
  -25.2823   -9.5385   22.4702 H   0  0  0  0  0  0
  -23.9833   -7.4491   22.7523 H   0  0  0  0  0  0
  -21.0281   -8.8968   19.9725 H   0  0  0  0  0  0
  -22.3531  -10.9350   19.6098 H   0  0  0  0  0  0
  -21.1938   -7.6106   23.9768 H   0  0  0  0  0  0
  -21.1283   -6.0518   25.9228 H   0  0  0  0  0  0
  -22.0856   -2.7504   23.2966 H   0  0  0  0  0  0
  -21.3662  -13.2826   22.5654 H   0  0  0  0  0  0
  -22.6360  -12.0818   22.6294 H   0  0  0  0  0  0
  -24.6467  -15.7932   20.3101 H   0  0  0  0  0  0
  -26.2376  -15.5769   19.8587 H   0  0  0  0  0  0
  -26.7163  -32.5428   23.1085 H   0  0  0  0  0  0
  -25.0154  -33.9653   25.0449 H   0  0  0  0  0  0
  -22.6969  -31.3120   21.4104 H   0  0  0  0  0  0
  -23.3741  -35.9658   23.3303 H   0  0  0  0  0  0
  -24.3581  -36.8916   22.2051 H   0  0  0  0  0  0
  -23.7273  -37.6513   23.6636 H   0  0  0  0  0  0
  -26.0790  -31.5752   20.5830 H   0  0  0  0  0  0
  -26.8298  -30.8595   21.9817 H   0  0  0  0  0  0
  -28.0948  -29.0269   21.1640 H   0  0  0  0  0  0
  -25.9499  -25.9028   19.0927 H   0  0  0  0  0  0
  -23.9122  -27.2954   19.0935 H   0  0  0  0  0  0
  -23.7554  -30.6174   19.4087 H   0  0  0  0  0  0
  -22.7353  -29.2915   19.8383 H   0  0  0  0  0  0
  -25.1297  -36.1916   25.0802 H   0  0  0  0  0  0
  -21.0008  -28.3257   24.1411 H   0  0  0  0  0  0
  -20.5697  -26.2294   23.3600 H   0  0  0  0  0  0
  -21.6632  -26.7434   22.1182 H   0  0  0  0  0  0
  -19.6899  -25.6310   21.1220 H   0  0  0  0  0  0
  -19.6664  -27.3214   20.6753 H   0  0  0  0  0  0
  -17.4205  -26.6705   21.4025 H   0  0  0  0  0  0
  -18.0321  -26.0066   22.9023 H   0  0  0  0  0  0
  -19.7935  -30.7275   24.2294 H   0  0  0  0  0  0
  -17.4999  -31.6264   24.5192 H   0  0  0  0  0  0
  -15.5355  -30.2974   23.7615 H   0  0  0  0  0  0
  -15.8699  -28.0803   22.7043 H   0  0  0  0  0  0
  -24.5944  -30.7000   25.7747 H   0  0  0  0  0  0
  -24.8915  -32.2810   26.4873 H   0  0  0  0  0  0
  -25.8089  -30.8834   27.0181 H   0  0  0  0  0  0
  -26.2881  -29.6782   24.1125 H   0  0  0  0  0  0
  -27.4109  -29.7229   25.4539 H   0  0  0  0  0  0
  -27.8719  -30.4342   23.9224 H   0  0  0  0  0  0
  -27.2721  -33.3604   26.2038 H   0  0  0  0  0  0
  -28.3911  -32.6834   25.0287 H   0  0  0  0  0  0
  -28.0747  -31.8402   26.5392 H   0  0  0  0  0  0
  -28.2625  -38.0086   24.7491 H   0  0  0  0  0  0
  -28.1046  -36.2627   24.6342 H   0  0  0  0  0  0
  -27.2293  -37.1511   25.8877 H   0  0  0  0  0  0
  -20.9365  -29.8806   21.6914 H   0  0  0  0  0  0
  -26.0181  -38.2845   24.1385 H   0  0  0  0  0  0
  -26.0957  -23.7281   22.4379 H   0  0  0  0  0  0
  -28.3776  -23.8697   18.7901 H   0  0  0  0  0  0
  -24.8984  -18.7019   17.2018 H   0  0  0  0  0  0
  -28.3125  -18.9304   19.8400 H   0  0  0  0  0  0
  -26.1337  -19.4679   22.1191 H   0  0  0  0  0  0
  -24.8869  -19.5838   23.3541 H   0  0  0  0  0  0
  -26.3010  -20.6280   23.4416 H   0  0  0  0  0  0
  -24.0959  -19.6115   20.6208 H   0  0  0  0  0  0
  -23.2139  -21.1402   20.4338 H   0  0  0  0  0  0
  -22.9675  -20.0736   21.8103 H   0  0  0  0  0  0
  -24.7270  -22.5458   23.7194 H   0  0  0  0  0  0
  -23.3211  -21.5496   23.4848 H   0  0  0  0  0  0
  -23.5439  -22.9585   22.4720 H   0  0  0  0  0  0
  -29.7259  -17.4452   21.5086 H   0  0  0  0  0  0
  -31.3663  -17.1579   21.0565 H   0  0  0  0  0  0
  -30.6399  -16.1670   22.3106 H   0  0  0  0  0  0
  -29.0256  -25.0602   21.4914 H   0  0  0  0  0  0
  -27.5186  -25.6968   22.0598 H   0  0  0  0  0  0
  -28.0033  -15.5492   18.2898 H   0  0  0  0  0  0
  -28.8363  -16.4526   17.1347 H   0  0  0  0  0  0
  -30.2780  -17.4505   19.0673 H   0  0  0  0  0  0
  -30.6334  -15.9578   18.2900 H   0  0  0  0  0  0
  1 25  1  0  0  0
  1 30  2  0  0  0
  1 90  1  0  0  0
  2  3  1  0  0  0
  2 25  1  0  0  0
  2 92  1  0  0  0
  2 93  1  0  0  0
  3  4  1  0  0  0
  3 94  1  0  0  0
  3 95  1  0  0  0
  4  5  1  0  0  0
  4 96  1  0  0  0
  4 97  1  0  0  0
  5  6  1  0  0  0
  5 26  1  0  0  0
  5 98  1  0  0  0
  6 25  1  0  0  0
  6 99  1  0  0  0
  6100  1  0  0  0
  7  8  2  0  0  0
  7 26  1  0  0  0
  7 29  1  0  0  0
  8  9  1  0  0  0
  8 22  1  0  0  0
  9 10  1  0  0  0
  9 27  2  0  0  0
 10 11  2  0  0  0
 10 15  1  0  0  0
 11 12  1  0  0  0
 11101  1  0  0  0
 12 13  2  0  0  0
 12102  1  0  0  0
 13 14  1  0  0  0
 13 31  1  0  0  0
 14 15  2  0  0  0
 14103  1  0  0  0
 15104  1  0  0  0
 16 17  2  0  0  0
 16 21  1  0  0  0
 16 31  1  0  0  0
 17 18  1  0  0  0
 17105  1  0  0  0
 18 19  2  0  0  0
 18106  1  0  0  0
 19 20  1  0  0  0
 19 24  1  0  0  0
 20 21  2  0  0  0
 20107  1  0  0  0
 21 23  1  0  0  0
 22 28  1  0  0  0
 22 32  2  0  0  0
 26 27  1  0  0  0
 28108  1  0  0  0
 28109  1  0  0  0
 29110  1  0  0  0
 29111  1  0  0  0
 33 34  1  0  0  0
 33 66  1  0  0  0
 33 70  2  0  0  0
 34 36  1  0  0  0
 34 59  1  0  0  0
 34112  1  0  0  0
 35 44  2  0  0  0
 35 45  1  0  0  0
 35 68  1  0  0  0
 36 56  1  0  0  0
 36113  1  0  0  0
 37 39  1  0  0  0
 37 47  1  0  0  0
 37 66  1  0  0  0
 37114  1  0  0  0
 38 43  2  0  0  0
 38 46  1  0  0  0
 38 47  1  0  0  0
 39 64  1  0  0  0
 39 67  2  0  0  0
 40 52  1  0  0  0
 40 53  2  0  0  0
 40 58  1  0  0  0
 41115  1  0  0  0
 41116  1  0  0  0
 41117  1  0  0  0
 41 48  1  0  0  0
 42 43  1  0  0  0
 42 66  1  0  0  0
 42118  1  0  0  0
 42119  1  0  0  0
 43 44  1  0  0  0
 44120  1  0  0  0
 45 46  2  0  0  0
 45121  1  0  0  0
 46122  1  0  0  0
 47123  1  0  0  0
 47124  1  0  0  0
 48 56  1  0  0  0
 48 65  1  0  0  0
 48125  1  0  0  0
 49 50  1  0  0  0
 49 53  1  0  0  0
 49 64  1  0  0  0
 49126  1  0  0  0
 50 51  1  0  0  0
 50127  1  0  0  0
 50128  1  0  0  0
 51 52  1  0  0  0
 51129  1  0  0  0
 51130  1  0  0  0
 52131  1  0  0  0
 52132  1  0  0  0
 53 54  1  0  0  0
 54 55  2  0  0  0
 54133  1  0  0  0
 55 57  1  0  0  0
 55134  1  0  0  0
 56 69  2  0  0  0
 57 58  2  0  0  0
 57135  1  0  0  0
 58136  1  0  0  0
 59 60  1  0  0  0
 59 61  1  0  0  0
 59 62  1  0  0  0
 60137  1  0  0  0
 60138  1  0  0  0
 60139  1  0  0  0
 61140  1  0  0  0
 61141  1  0  0  0
 61142  1  0  0  0
 62143  1  0  0  0
 62144  1  0  0  0
 62145  1  0  0  0
 63 65  1  0  0  0
 63146  1  0  0  0
 63147  1  0  0  0
 63148  1  0  0  0
 64149  1  0  0  0
 65150  1  0  0  0
 68 83  1  0  0  0
 71 75  2  0  0  0
 71 76  1  0  0  0
 71151  1  0  0  0
 72 75  1  0  0  0
 72 87  2  0  0  0
 72152  1  0  0  0
 73 77  1  0  0  0
 73 88  2  0  0  0
 73153  1  0  0  0
 74 77  2  0  0  0
 74 89  1  0  0  0
 74154  1  0  0  0
 75 83  1  0  0  0
 76 78  2  0  0  0
 76 86  1  0  0  0
 77 91  1  0  0  0
 78 87  1  0  0  0
 78 91  1  0  0  0
 79155  1  0  0  0
 79156  1  0  0  0
 79157  1  0  0  0
 79 86  1  0  0  0
 80 86  1  0  0  0
 80158  1  0  0  0
 80159  1  0  0  0
 80160  1  0  0  0
 81 86  1  0  0  0
 81161  1  0  0  0
 81162  1  0  0  0
 81163  1  0  0  0
 82 90  1  0  0  0
 82164  1  0  0  0
 82165  1  0  0  0
 82166  1  0  0  0
 83167  1  0  0  0
 83168  1  0  0  0
 84 85  1  0  0  0
 84 89  1  0  0  0
 84169  1  0  0  0
 84170  1  0  0  0
 85 90  1  0  0  0
 85171  1  0  0  0
 85172  1  0  0  0
 88 89  1  0  0  0
M  ISO  4   1 100  68 101  83 101  90 100
M  END
> <chiral flag>
0

> <version>
0

> <s_m_source_file>
/data/baiqing/PycharmProjects/Reinvent-master-3.2/result/LINK_invent/BTK/process_docking_weight1_custom_sum_contain_oxygen_bond_distance_aromatic_linkinvent_7_9_3/rearranged_h_0070.sdf

> <i_m_source_file_index>
76

> <r_mmod_Potential_Energy-OPLS-2005>
173.731872558594

> <r_mmod_Stretch_Energy-OPLS-2005>
70.8678207397461

> <r_mmod_Bend_Energy-OPLS-2005>
190.955825805664

> <r_mmod_Torsional_Energy-OPLS-2005>
355.868530273438

> <r_mmod_Improper_Torsional_Energy-OPLS-2005>
17.7241287231445

> <r_mmod_Van_der_Waal_Energy-OPLS-2005>
144.695404052734

> <r_mmod_Electrostatic_Energy-OPLS-2005>
-453.515960693359

> <r_mmod_Solvation_Energy-OPLS-2005>
-206.870635986328

> <b_mmod_Minimization_Converged-OPLS-2005>
0

> <r_mmod_RMS_Derivative-OPLS-2005>
23.0940532684326

$$$$
77
                    3D
 Structure written by MMmdl.
161169  0  0  1  0            999 V2000
  -30.7122  -14.5655   20.6616 C   0  0  0  0  0  0
  -30.4198  -12.3899   19.4626 C   0  0  0  0  0  0
  -29.5049  -12.5446   18.2298 C   0  0  0  0  0  0
  -28.0279  -12.3711   18.6296 C   0  0  0  0  0  0
  -27.6545  -13.2181   19.8722 C   0  0  2  0  0  0
  -28.6861  -13.0268   20.9990 C   0  0  0  0  0  0
  -25.2540  -13.8173   20.5675 C   0  0  0  0  0  0
  -24.1802  -13.0429   20.9156 C   0  0  0  0  0  0
  -24.6377  -11.6907   20.8707 C   0  0  0  0  0  0
  -23.9055  -10.4291   21.0396 C   0  0  0  0  0  0
  -24.3615   -9.4213   21.9168 C   0  0  0  0  0  0
  -23.6289   -8.2254   22.0754 C   0  0  0  0  0  0
  -22.4269   -8.0293   21.3553 C   0  0  0  0  0  0
  -21.9900   -9.0255   20.4651 C   0  0  0  0  0  0
  -22.7231  -10.2126   20.3050 C   0  0  0  0  0  0
  -21.6842   -6.0753   22.5280 C   0  0  0  0  0  0
  -21.4013   -6.5655   23.8216 C   0  0  0  0  0  0
  -21.3669   -5.6804   24.9172 C   0  0  0  0  0  0
  -21.6037   -4.3066   24.7212 C   0  0  0  0  0  0
  -21.8815   -3.8165   23.4331 C   0  0  0  0  0  0
  -21.9182   -4.6984   22.3395 C   0  0  0  0  0  0
  -22.7838  -13.5230   21.1845 C   0  0  0  0  0  0
  -22.1651   -4.2177   21.0970 F   0  0  0  0  0  0
  -21.5619   -3.4547   25.7728 F   0  0  0  0  0  0
  -30.0134  -13.3917   20.4801 N   0  0  0  0  0  0
  -26.2975  -12.9356   20.3327 N   0  0  0  0  0  0
  -25.9304  -11.6503   20.5716 N   0  0  0  0  0  0
  -22.0494  -12.8217   22.0421 N   0  0  0  0  0  0
  -25.4264  -15.1883   20.4162 N   0  0  0  0  0  0
  -31.7501  -14.7256   20.0026 O   0  0  0  0  0  0
  -21.6631   -6.8896   21.4248 O   0  0  0  0  0  0
  -22.3523  -14.5545   20.6736 O   0  0  0  0  0  0
  -24.6241  -31.8638   23.2040 C   0  0  0  0  0  0
  -25.9092  -32.4793   23.8395 C   0  0  1  0  0  0
  -27.2100  -27.3323   20.1087 C   0  0  0  0  0  0
  -25.5910  -33.8602   24.2315 N   0  0  0  0  0  0
  -23.4151  -30.4876   21.5500 C   0  0  2  0  0  0
  -24.8563  -28.9514   20.1038 C   0  0  0  0  0  0
  -22.7477  -29.4629   22.4978 C   0  0  0  0  0  0
  -18.0295  -28.1348   22.8486 C   0  0  0  0  0  0
  -24.1479  -36.7308   23.2642 C   0  0  0  0  0  0
  -25.9545  -30.7937   21.3763 C   0  0  0  0  0  0
  -26.0222  -29.4225   20.7199 C   0  0  0  0  0  0
  -27.1989  -28.6208   20.7220 C   0  0  0  0  0  0
  -26.0316  -26.9300   19.4373 C   0  0  0  0  0  0
  -24.8625  -27.7103   19.4531 C   0  0  0  0  0  0
  -23.6245  -29.8294   20.1609 C   0  0  0  0  0  0
  -25.4099  -36.3111   24.0349 C   0  0  1  0  0  0
  -20.5885  -28.3667   23.1278 C   0  0  2  0  0  0
  -20.6770  -26.9395   22.5403 C   0  0  0  0  0  0
  -19.5749  -26.6371   21.5189 C   0  0  0  0  0  0
  -18.1943  -26.7887   22.1635 C   0  0  0  0  0  0
  -19.1543  -28.8829   23.2872 C   0  0  0  0  0  0
  -18.9479  -30.1410   23.8929 C   0  0  0  0  0  0
  -17.6489  -30.6556   24.0573 C   0  0  0  0  0  0
  -25.9038  -34.9469   23.5133 C   0  0  0  0  0  0
  -16.5380  -29.9067   23.6324 C   0  0  0  0  0  0
  -16.7285  -28.6463   23.0384 C   0  0  0  0  0  0
  -26.4479  -31.6594   25.0766 C   0  0  0  0  0  0
  -25.3700  -31.3747   26.1485 C   0  0  0  0  0  0
  -27.0319  -30.3023   24.6203 C   0  0  0  0  0  0
  -27.6058  -32.4318   25.7527 C   0  0  0  0  0  0
  -27.5577  -37.1814   24.8474 C   0  0  0  0  0  0
  -21.4197  -29.3028   22.3697 N   0  0  0  0  0  0
  -26.4290  -37.3792   23.9410 N   0  0  0  0  0  0
  -24.6833  -31.0661   22.0995 N   0  0  0  0  0  0
  -23.4201  -28.8183   23.3070 O   0  0  0  0  0  0
  -28.3277  -26.4891   20.1869 O   0  0  0  0  0  0
  -26.5634  -34.8923   22.4716 O   0  0  0  0  0  0
  -23.5397  -32.1468   23.7338 O   0  0  0  0  0  0
  -30.8644  -19.3890   21.0492 C   0  0  0  0  0  0
  -29.5723  -19.9404   21.1493 C   0  0  0  0  0  0
  -28.5428  -18.9694   21.1815 C   0  0  0  0  0  0
  -30.0703  -17.1971   21.2117 C   0  0  0  0  0  0
  -26.7150  -19.2178   22.9063 C   0  0  0  0  0  0
  -29.3814  -21.4676   21.4510 C   0  0  0  0  0  0
  -27.0907  -19.3435   21.4225 C   0  0  0  0  0  0
  -28.8660  -22.4774   20.3548 C   0  0  0  0  0  0
  -28.9813  -24.0136   20.7455 C   0  0  0  0  0  0
  -28.1833  -25.0536   19.8684 C   0  0  0  0  0  0
  -30.3761  -15.7235   21.7019 C   0  0  1  0  0  0
  -29.7617  -15.3664   23.0860 C   0  0  0  0  0  0
  -31.0988  -18.0542   21.1093 N   0  0  0  0  0  0
  -28.8012  -17.6304   21.1699 N   0  0  0  0  0  0
  -30.1193  -14.1384   23.4740 F   0  0  0  0  0  0
  -30.2166  -16.2081   24.0192 F   0  0  0  0  0  0
  -28.4295  -15.4419   23.1082 F   0  0  0  0  0  0
  -31.4666  -12.4785   19.1673 H   0  0  0  0  0  0
  -30.3283  -11.3848   19.8754 H   0  0  0  0  0  0
  -29.7751  -11.8159   17.4646 H   0  0  0  0  0  0
  -29.6531  -13.5303   17.7861 H   0  0  0  0  0  0
  -27.8657  -11.3146   18.8444 H   0  0  0  0  0  0
  -27.3745  -12.6145   17.7916 H   0  0  0  0  0  0
  -27.6900  -14.2664   19.5721 H   0  0  0  0  0  0
  -28.3721  -13.5848   21.8657 H   0  0  0  0  0  0
  -28.6885  -11.9876   21.3303 H   0  0  0  0  0  0
  -25.2765   -9.5692   22.4723 H   0  0  0  0  0  0
  -24.0010   -7.4645   22.7467 H   0  0  0  0  0  0
  -21.0834   -8.8763   19.8952 H   0  0  0  0  0  0
  -22.3687  -10.9660   19.6150 H   0  0  0  0  0  0
  -21.2013   -7.6167   23.9729 H   0  0  0  0  0  0
  -21.1494   -6.0532   25.9076 H   0  0  0  0  0  0
  -22.0582   -2.7638   23.2813 H   0  0  0  0  0  0
  -22.4101  -11.9872   22.4807 H   0  0  0  0  0  0
  -21.1141  -13.1290   22.2675 H   0  0  0  0  0  0
  -24.6632  -15.8427   20.5490 H   0  0  0  0  0  0
  -26.3107  -15.6442   20.2249 H   0  0  0  0  0  0
  -26.7186  -32.5469   23.1166 H   0  0  0  0  0  0
  -25.0025  -33.9776   25.0439 H   0  0  0  0  0  0
  -22.7053  -31.3065   21.4139 H   0  0  0  0  0  0
  -23.3739  -35.9641   23.3316 H   0  0  0  0  0  0
  -24.3571  -36.8915   22.2055 H   0  0  0  0  0  0
  -23.7232  -37.6521   23.6637 H   0  0  0  0  0  0
  -26.0893  -31.5512   20.6028 H   0  0  0  0  0  0
  -26.8344  -30.8424   22.0053 H   0  0  0  0  0  0
  -28.0876  -28.9735   21.2255 H   0  0  0  0  0  0
  -25.9744  -26.0083   18.8807 H   0  0  0  0  0  0
  -23.9764  -27.3517   18.9476 H   0  0  0  0  0  0
  -23.7386  -30.6097   19.4072 H   0  0  0  0  0  0
  -22.7435  -29.2585   19.8623 H   0  0  0  0  0  0
  -25.1262  -36.1990   25.0847 H   0  0  0  0  0  0
  -20.9958  -28.3214   24.1402 H   0  0  0  0  0  0
  -20.5596  -26.2323   23.3628 H   0  0  0  0  0  0
  -21.6663  -26.7389   22.1261 H   0  0  0  0  0  0
  -19.6919  -25.6289   21.1214 H   0  0  0  0  0  0
  -19.6637  -27.3186   20.6712 H   0  0  0  0  0  0
  -17.4190  -26.6584   21.4067 H   0  0  0  0  0  0
  -18.0387  -26.0036   22.9055 H   0  0  0  0  0  0
  -19.7964  -30.7185   24.2355 H   0  0  0  0  0  0
  -17.5061  -31.6229   24.5195 H   0  0  0  0  0  0
  -15.5392  -30.3001   23.7642 H   0  0  0  0  0  0
  -15.8671  -28.0765   22.7162 H   0  0  0  0  0  0
  -24.5865  -30.7114   25.7799 H   0  0  0  0  0  0
  -24.8896  -32.2929   26.4885 H   0  0  0  0  0  0
  -25.7995  -30.8935   27.0282 H   0  0  0  0  0  0
  -26.2905  -29.6797   24.1177 H   0  0  0  0  0  0
  -27.3997  -29.7244   25.4695 H   0  0  0  0  0  0
  -27.8776  -30.4339   23.9446 H   0  0  0  0  0  0
  -27.2687  -33.3606   26.2135 H   0  0  0  0  0  0
  -28.3832  -32.6901   25.0326 H   0  0  0  0  0  0
  -28.0765  -31.8435   26.5415 H   0  0  0  0  0  0
  -28.2614  -38.0090   24.7491 H   0  0  0  0  0  0
  -28.1056  -36.2629   24.6309 H   0  0  0  0  0  0
  -27.2315  -37.1480   25.8887 H   0  0  0  0  0  0
  -20.9377  -29.8793   21.6949 H   0  0  0  0  0  0
  -26.0187  -38.2885   24.1361 H   0  0  0  0  0  0
  -31.7371  -20.0266   21.0448 H   0  0  0  0  0  0
  -27.3464  -19.8524   23.5277 H   0  0  0  0  0  0
  -26.8281  -18.1899   23.2524 H   0  0  0  0  0  0
  -25.6809  -19.5148   23.0748 H   0  0  0  0  0  0
  -30.3416  -21.8414   21.8118 H   0  0  0  0  0  0
  -28.7216  -21.5430   22.3177 H   0  0  0  0  0  0
  -26.4460  -18.6998   20.8236 H   0  0  0  0  0  0
  -26.8976  -20.3572   21.0772 H   0  0  0  0  0  0
  -27.8253  -22.2459   20.1233 H   0  0  0  0  0  0
  -29.4200  -22.3134   19.4294 H   0  0  0  0  0  0
  -28.6357  -24.1270   21.7739 H   0  0  0  0  0  0
  -30.0349  -24.2911   20.7466 H   0  0  0  0  0  0
  -27.1499  -24.7264   19.9611 H   0  0  0  0  0  0
  -28.4533  -24.9190   18.8208 H   0  0  0  0  0  0
  -31.4041  -15.8560   22.0420 H   0  0  0  0  0  0
  1 25  1  0  0  0
  1 30  2  0  0  0
  1 81  1  0  0  0
  2  3  1  0  0  0
  2 25  1  0  0  0
  2 88  1  0  0  0
  2 89  1  0  0  0
  3  4  1  0  0  0
  3 90  1  0  0  0
  3 91  1  0  0  0
  4  5  1  0  0  0
  4 92  1  0  0  0
  4 93  1  0  0  0
  5  6  1  0  0  0
  5 26  1  0  0  0
  5 94  1  0  0  0
  6 25  1  0  0  0
  6 95  1  0  0  0
  6 96  1  0  0  0
  7  8  2  0  0  0
  7 26  1  0  0  0
  7 29  1  0  0  0
  8  9  1  0  0  0
  8 22  1  0  0  0
  9 10  1  0  0  0
  9 27  2  0  0  0
 10 11  2  0  0  0
 10 15  1  0  0  0
 11 12  1  0  0  0
 11 97  1  0  0  0
 12 13  2  0  0  0
 12 98  1  0  0  0
 13 14  1  0  0  0
 13 31  1  0  0  0
 14 15  2  0  0  0
 14 99  1  0  0  0
 15100  1  0  0  0
 16 17  2  0  0  0
 16 21  1  0  0  0
 16 31  1  0  0  0
 17 18  1  0  0  0
 17101  1  0  0  0
 18 19  2  0  0  0
 18102  1  0  0  0
 19 20  1  0  0  0
 19 24  1  0  0  0
 20 21  2  0  0  0
 20103  1  0  0  0
 21 23  1  0  0  0
 22 28  1  0  0  0
 22 32  2  0  0  0
 26 27  1  0  0  0
 28104  1  0  0  0
 28105  1  0  0  0
 29106  1  0  0  0
 29107  1  0  0  0
 33 34  1  0  0  0
 33 66  1  0  0  0
 33 70  2  0  0  0
 34 36  1  0  0  0
 34 59  1  0  0  0
 34108  1  0  0  0
 35 44  2  0  0  0
 35 45  1  0  0  0
 35 68  1  0  0  0
 36 56  1  0  0  0
 36109  1  0  0  0
 37 39  1  0  0  0
 37 47  1  0  0  0
 37 66  1  0  0  0
 37110  1  0  0  0
 38 43  2  0  0  0
 38 46  1  0  0  0
 38 47  1  0  0  0
 39 64  1  0  0  0
 39 67  2  0  0  0
 40 52  1  0  0  0
 40 53  2  0  0  0
 40 58  1  0  0  0
 41111  1  0  0  0
 41112  1  0  0  0
 41113  1  0  0  0
 41 48  1  0  0  0
 42 43  1  0  0  0
 42 66  1  0  0  0
 42114  1  0  0  0
 42115  1  0  0  0
 43 44  1  0  0  0
 44116  1  0  0  0
 45 46  2  0  0  0
 45117  1  0  0  0
 46118  1  0  0  0
 47119  1  0  0  0
 47120  1  0  0  0
 48 56  1  0  0  0
 48 65  1  0  0  0
 48121  1  0  0  0
 49 50  1  0  0  0
 49 53  1  0  0  0
 49 64  1  0  0  0
 49122  1  0  0  0
 50 51  1  0  0  0
 50123  1  0  0  0
 50124  1  0  0  0
 51 52  1  0  0  0
 51125  1  0  0  0
 51126  1  0  0  0
 52127  1  0  0  0
 52128  1  0  0  0
 53 54  1  0  0  0
 54 55  2  0  0  0
 54129  1  0  0  0
 55 57  1  0  0  0
 55130  1  0  0  0
 56 69  2  0  0  0
 57 58  2  0  0  0
 57131  1  0  0  0
 58132  1  0  0  0
 59 60  1  0  0  0
 59 61  1  0  0  0
 59 62  1  0  0  0
 60133  1  0  0  0
 60134  1  0  0  0
 60135  1  0  0  0
 61136  1  0  0  0
 61137  1  0  0  0
 61138  1  0  0  0
 62139  1  0  0  0
 62140  1  0  0  0
 62141  1  0  0  0
 63 65  1  0  0  0
 63142  1  0  0  0
 63143  1  0  0  0
 63144  1  0  0  0
 64145  1  0  0  0
 65146  1  0  0  0
 68 80  1  0  0  0
 71 72  2  0  0  0
 71 83  1  0  0  0
 71147  1  0  0  0
 72 73  1  0  0  0
 72 76  1  0  0  0
 73 77  1  0  0  0
 73 84  2  0  0  0
 74 81  1  0  0  0
 74 83  2  0  0  0
 74 84  1  0  0  0
 75 77  1  0  0  0
 75148  1  0  0  0
 75149  1  0  0  0
 75150  1  0  0  0
 76 78  1  0  0  0
 76151  1  0  0  0
 76152  1  0  0  0
 77153  1  0  0  0
 77154  1  0  0  0
 78 79  1  0  0  0
 78155  1  0  0  0
 78156  1  0  0  0
 79 80  1  0  0  0
 79157  1  0  0  0
 79158  1  0  0  0
 80159  1  0  0  0
 80160  1  0  0  0
 81 82  1  0  0  0
 81161  1  0  0  0
 82 85  1  0  0  0
 82 86  1  0  0  0
 82 87  1  0  0  0
M  ISO  4   1 100  68 101  80 101  81 100
M  END
> <chiral flag>
0

> <version>
0

> <s_m_source_file>
/data/baiqing/PycharmProjects/Reinvent-master-3.2/result/LINK_invent/BTK/process_docking_weight1_custom_sum_contain_oxygen_bond_distance_aromatic_linkinvent_7_9_3/rearranged_h_0070.sdf

> <i_m_source_file_index>
77

> <r_mmod_Potential_Energy-OPLS-2005>
-99.4509201049805

> <r_mmod_Stretch_Energy-OPLS-2005>
76.3303756713867

> <r_mmod_Bend_Energy-OPLS-2005>
184.109344482422

> <r_mmod_Torsional_Energy-OPLS-2005>
169.204406738281

> <r_mmod_Improper_Torsional_Energy-OPLS-2005>
5.85577630996704

> <r_mmod_Van_der_Waal_Energy-OPLS-2005>
154.527404785156

> <r_mmod_Electrostatic_Energy-OPLS-2005>
-535.902526855469

> <r_mmod_Solvation_Energy-OPLS-2005>
-190.358032226562

> <b_mmod_Minimization_Converged-OPLS-2005>
0

> <r_mmod_RMS_Derivative-OPLS-2005>
2.82498264312744

$$$$
78
                    3D
 Structure written by MMmdl.
156164  0  0  1  0            999 V2000
  -30.6008  -14.9769   20.3562 C   0  0  0  0  0  0
  -30.4267  -12.6003   19.5012 C   0  0  0  0  0  0
  -29.5145  -12.5030   18.2590 C   0  0  0  0  0  0
  -28.0548  -12.2663   18.6851 C   0  0  0  0  0  0
  -27.6114  -13.2245   19.8157 C   0  0  2  0  0  0
  -28.6583  -13.3632   20.9413 C   0  0  0  0  0  0
  -25.2432  -13.8117   20.5749 C   0  0  0  0  0  0
  -24.1736  -13.0371   20.9265 C   0  0  0  0  0  0
  -24.6347  -11.6865   20.8804 C   0  0  0  0  0  0
  -23.9038  -10.4255   21.0450 C   0  0  0  0  0  0
  -24.3601   -9.4166   21.9210 C   0  0  0  0  0  0
  -23.6277   -8.2203   22.0762 C   0  0  0  0  0  0
  -22.4256   -8.0265   21.3555 C   0  0  0  0  0  0
  -21.9899   -9.0234   20.4651 C   0  0  0  0  0  0
  -22.7224  -10.2109   20.3078 C   0  0  0  0  0  0
  -21.6843   -6.0728   22.5275 C   0  0  0  0  0  0
  -21.4003   -6.5637   23.8208 C   0  0  0  0  0  0
  -21.3656   -5.6795   24.9172 C   0  0  0  0  0  0
  -21.6045   -4.3055   24.7224 C   0  0  0  0  0  0
  -21.8825   -3.8147   23.4348 C   0  0  0  0  0  0
  -21.9188   -4.6962   22.3401 C   0  0  0  0  0  0
  -22.7767  -13.5171   21.1913 C   0  0  0  0  0  0
  -22.1662   -4.2150   21.0979 F   0  0  0  0  0  0
  -21.5631   -3.4543   25.7737 F   0  0  0  0  0  0
  -29.9410  -13.7421   20.3327 N   0  0  0  0  0  0
  -26.2810  -12.9299   20.3220 N   0  0  0  0  0  0
  -25.9258  -11.6464   20.5756 N   0  0  0  0  0  0
  -22.0419  -12.8152   22.0464 N   0  0  0  0  0  0
  -25.4080  -15.1844   20.4175 N   0  0  0  0  0  0
  -31.8312  -14.8790   20.2866 O   0  0  0  0  0  0
  -21.6623   -6.8865   21.4236 O   0  0  0  0  0  0
  -22.3455  -14.5477   20.6758 O   0  0  0  0  0  0
  -24.6416  -31.8472   23.1879 C   0  0  0  0  0  0
  -25.9191  -32.4712   23.8286 C   0  0  1  0  0  0
  -27.2170  -27.1440   20.1667 C   0  0  0  0  0  0
  -25.5937  -33.8509   24.2205 N   0  0  0  0  0  0
  -23.4471  -30.4649   21.5348 C   0  0  2  0  0  0
  -24.8965  -28.8897   20.1142 C   0  0  0  0  0  0
  -22.7575  -29.4552   22.4874 C   0  0  0  0  0  0
  -18.0316  -28.1393   22.8488 C   0  0  0  0  0  0
  -24.1495  -36.7265   23.2646 C   0  0  0  0  0  0
  -26.0023  -30.7218   21.3882 C   0  0  0  0  0  0
  -26.0736  -29.3324   20.7325 C   0  0  0  0  0  0
  -27.2359  -28.4754   20.7404 C   0  0  0  0  0  0
  -26.0202  -26.8017   19.5020 C   0  0  0  0  0  0
  -24.8823  -27.6367   19.4820 C   0  0  0  0  0  0
  -23.6735  -29.7925   20.1549 C   0  0  0  0  0  0
  -25.4119  -36.3039   24.0325 C   0  0  1  0  0  0
  -20.5926  -28.3721   23.1240 C   0  0  2  0  0  0
  -20.6799  -26.9428   22.5409 C   0  0  0  0  0  0
  -19.5767  -26.6378   21.5225 C   0  0  0  0  0  0
  -18.1947  -26.7934   22.1632 C   0  0  0  0  0  0
  -19.1570  -28.8876   23.2859 C   0  0  0  0  0  0
  -18.9482  -30.1474   23.8882 C   0  0  0  0  0  0
  -17.6474  -30.6591   24.0557 C   0  0  0  0  0  0
  -25.9068  -34.9419   23.5079 C   0  0  0  0  0  0
  -16.5367  -29.9081   23.6332 C   0  0  0  0  0  0
  -16.7302  -28.6498   23.0360 C   0  0  0  0  0  0
  -26.4506  -31.6564   25.0726 C   0  0  0  0  0  0
  -25.3682  -31.3743   26.1411 C   0  0  0  0  0  0
  -27.0376  -30.2958   24.6299 C   0  0  0  0  0  0
  -27.6044  -32.4332   25.7501 C   0  0  0  0  0  0
  -27.5586  -37.1780   24.8465 C   0  0  0  0  0  0
  -21.4269  -29.3048   22.3609 N   0  0  0  0  0  0
  -26.4295  -37.3742   23.9410 N   0  0  0  0  0  0
  -24.7164  -31.0329   22.0917 N   0  0  0  0  0  0
  -23.4221  -28.8111   23.3030 O   0  0  0  0  0  0
  -28.2764  -26.1701   20.2015 O   0  0  0  0  0  0
  -26.5671  -34.8911   22.4665 O   0  0  0  0  0  0
  -23.5533  -32.1349   23.7089 O   0  0  0  0  0  0
  -29.1852  -19.1608   22.5357 C   0  0  0  0  0  0
  -29.6958  -17.5972   21.1974 C   0  0  0  0  0  0
  -31.0386  -17.2064   19.1126 C   0  0  0  0  0  0
  -28.7012  -16.4364   19.2134 C   0  0  0  0  0  0
  -28.6983  -21.7732   20.8058 C   0  0  0  0  0  0
  -28.8872  -23.3070   20.1280 C   0  0  0  0  0  0
  -29.3842  -20.3043   20.3011 C   0  0  0  0  0  0
  -28.0147  -24.6801   20.5684 C   0  0  0  0  0  0
  -29.9911  -16.5308   20.0333 C   0  0  0  0  0  0
  -29.2702  -18.0697   23.2904 N   0  0  0  0  0  0
  -29.5919  -17.0636   22.4259 N   0  0  0  0  0  0
  -29.4237  -19.0236   21.2170 N   0  0  0  0  0  0
  -31.4618  -12.7297   19.1811 H   0  0  0  0  0  0
  -30.4050  -11.6717   20.0736 H   0  0  0  0  0  0
  -29.8486  -11.6947   17.6056 H   0  0  0  0  0  0
  -29.5857  -13.4196   17.6732 H   0  0  0  0  0  0
  -27.9754  -11.2340   19.0267 H   0  0  0  0  0  0
  -27.3874  -12.3591   17.8281 H   0  0  0  0  0  0
  -27.5143  -14.1721   19.3081 H   0  0  0  0  0  0
  -28.7540  -12.4330   21.5027 H   0  0  0  0  0  0
  -28.3497  -14.1293   21.6546 H   0  0  0  0  0  0
  -25.2754   -9.5632   22.4771 H   0  0  0  0  0  0
  -23.9998   -7.4582   22.7463 H   0  0  0  0  0  0
  -21.0850   -8.8750   19.8936 H   0  0  0  0  0  0
  -22.3708  -10.9656   19.6187 H   0  0  0  0  0  0
  -21.1993   -7.6145   23.9707 H   0  0  0  0  0  0
  -21.1475   -6.0526   25.9071 H   0  0  0  0  0  0
  -22.0612   -2.7614   23.2843 H   0  0  0  0  0  0
  -22.4069  -11.9825   22.4843 H   0  0  0  0  0  0
  -21.1034  -13.1153   22.2684 H   0  0  0  0  0  0
  -24.6460  -15.8400   20.5525 H   0  0  0  0  0  0
  -26.2565  -15.6267   20.0924 H   0  0  0  0  0  0
  -26.7273  -32.5316   23.1031 H   0  0  0  0  0  0
  -25.0021  -33.9627   25.0309 H   0  0  0  0  0  0
  -22.7495  -31.2897   21.3788 H   0  0  0  0  0  0
  -23.3763  -35.9592   23.3290 H   0  0  0  0  0  0
  -24.3574  -36.8916   22.2065 H   0  0  0  0  0  0
  -23.7253  -37.6454   23.6694 H   0  0  0  0  0  0
  -26.1607  -31.4752   20.6157 H   0  0  0  0  0  0
  -26.8724  -30.7711   22.0313 H   0  0  0  0  0  0
  -28.1327  -28.8093   21.2432 H   0  0  0  0  0  0
  -25.9461  -25.8484   18.9990 H   0  0  0  0  0  0
  -23.9876  -27.2947   18.9795 H   0  0  0  0  0  0
  -23.8087  -30.5675   19.3989 H   0  0  0  0  0  0
  -22.7888  -29.2339   19.8446 H   0  0  0  0  0  0
  -25.1300  -36.1876   25.0820 H   0  0  0  0  0  0
  -21.0028  -28.3321   24.1354 H   0  0  0  0  0  0
  -20.5697  -26.2345   23.3632 H   0  0  0  0  0  0
  -21.6659  -26.7431   22.1195 H   0  0  0  0  0  0
  -19.6927  -25.6283   21.1269 H   0  0  0  0  0  0
  -19.6693  -27.3179   20.6746 H   0  0  0  0  0  0
  -17.4216  -26.6701   21.4036 H   0  0  0  0  0  0
  -18.0330  -26.0083   22.9031 H   0  0  0  0  0  0
  -19.7956  -30.7302   24.2241 H   0  0  0  0  0  0
  -17.5021  -31.6265   24.5171 H   0  0  0  0  0  0
  -15.5363  -30.2966   23.7657 H   0  0  0  0  0  0
  -15.8710  -28.0798   22.7077 H   0  0  0  0  0  0
  -24.5866  -30.7101   25.7706 H   0  0  0  0  0  0
  -24.8860  -32.2919   26.4785 H   0  0  0  0  0  0
  -25.7943  -30.8931   27.0221 H   0  0  0  0  0  0
  -26.2996  -29.6675   24.1297 H   0  0  0  0  0  0
  -27.3988  -29.7255   25.4864 H   0  0  0  0  0  0
  -27.8903  -30.4203   23.9625 H   0  0  0  0  0  0
  -27.2644  -33.3652   26.2024 H   0  0  0  0  0  0
  -28.3859  -32.6856   25.0329 H   0  0  0  0  0  0
  -28.0707  -31.8499   26.5448 H   0  0  0  0  0  0
  -28.2570  -38.0105   24.7509 H   0  0  0  0  0  0
  -28.1123  -36.2625   24.6292 H   0  0  0  0  0  0
  -27.2309  -37.1420   25.8872 H   0  0  0  0  0  0
  -20.9490  -29.8746   21.6763 H   0  0  0  0  0  0
  -26.0174  -38.2826   24.1369 H   0  0  0  0  0  0
  -28.9381  -20.1076   22.9920 H   0  0  0  0  0  0
  -30.6815  -18.1580   18.7212 H   0  0  0  0  0  0
  -31.2850  -16.5811   18.2527 H   0  0  0  0  0  0
  -31.9647  -17.4129   19.6514 H   0  0  0  0  0  0
  -28.4516  -17.3946   18.7582 H   0  0  0  0  0  0
  -27.8687  -16.1865   19.8632 H   0  0  0  0  0  0
  -28.7831  -15.7100   18.4050 H   0  0  0  0  0  0
  -27.6234  -21.5961   20.8437 H   0  0  0  0  0  0
  -28.9829  -21.9188   21.8469 H   0  0  0  0  0  0
  -28.7587  -23.1903   19.0515 H   0  0  0  0  0  0
  -29.9407  -23.5620   20.2492 H   0  0  0  0  0  0
  -30.4228  -20.5097   20.0435 H   0  0  0  0  0  0
  -28.9150  -20.0089   19.3621 H   0  0  0  0  0  0
  -28.0271  -24.6854   21.6589 H   0  0  0  0  0  0
  -26.9774  -24.4525   20.3285 H   0  0  0  0  0  0
  1 25  1  0  0  0
  1 30  2  0  0  0
  1 79  1  0  0  0
  2  3  1  0  0  0
  2 25  1  0  0  0
  2 83  1  0  0  0
  2 84  1  0  0  0
  3  4  1  0  0  0
  3 85  1  0  0  0
  3 86  1  0  0  0
  4  5  1  0  0  0
  4 87  1  0  0  0
  4 88  1  0  0  0
  5  6  1  0  0  0
  5 26  1  0  0  0
  5 89  1  0  0  0
  6 25  1  0  0  0
  6 90  1  0  0  0
  6 91  1  0  0  0
  7  8  2  0  0  0
  7 26  1  0  0  0
  7 29  1  0  0  0
  8  9  1  0  0  0
  8 22  1  0  0  0
  9 10  1  0  0  0
  9 27  2  0  0  0
 10 11  2  0  0  0
 10 15  1  0  0  0
 11 12  1  0  0  0
 11 92  1  0  0  0
 12 13  2  0  0  0
 12 93  1  0  0  0
 13 14  1  0  0  0
 13 31  1  0  0  0
 14 15  2  0  0  0
 14 94  1  0  0  0
 15 95  1  0  0  0
 16 17  2  0  0  0
 16 21  1  0  0  0
 16 31  1  0  0  0
 17 18  1  0  0  0
 17 96  1  0  0  0
 18 19  2  0  0  0
 18 97  1  0  0  0
 19 20  1  0  0  0
 19 24  1  0  0  0
 20 21  2  0  0  0
 20 98  1  0  0  0
 21 23  1  0  0  0
 22 28  1  0  0  0
 22 32  2  0  0  0
 26 27  1  0  0  0
 28 99  1  0  0  0
 28100  1  0  0  0
 29101  1  0  0  0
 29102  1  0  0  0
 33 34  1  0  0  0
 33 66  1  0  0  0
 33 70  2  0  0  0
 34 36  1  0  0  0
 34 59  1  0  0  0
 34103  1  0  0  0
 35 44  2  0  0  0
 35 45  1  0  0  0
 35 68  1  0  0  0
 36 56  1  0  0  0
 36104  1  0  0  0
 37 39  1  0  0  0
 37 47  1  0  0  0
 37 66  1  0  0  0
 37105  1  0  0  0
 38 43  2  0  0  0
 38 46  1  0  0  0
 38 47  1  0  0  0
 39 64  1  0  0  0
 39 67  2  0  0  0
 40 52  1  0  0  0
 40 53  2  0  0  0
 40 58  1  0  0  0
 41106  1  0  0  0
 41107  1  0  0  0
 41108  1  0  0  0
 41 48  1  0  0  0
 42 43  1  0  0  0
 42 66  1  0  0  0
 42109  1  0  0  0
 42110  1  0  0  0
 43 44  1  0  0  0
 44111  1  0  0  0
 45 46  2  0  0  0
 45112  1  0  0  0
 46113  1  0  0  0
 47114  1  0  0  0
 47115  1  0  0  0
 48 56  1  0  0  0
 48 65  1  0  0  0
 48116  1  0  0  0
 49 50  1  0  0  0
 49 53  1  0  0  0
 49 64  1  0  0  0
 49117  1  0  0  0
 50 51  1  0  0  0
 50118  1  0  0  0
 50119  1  0  0  0
 51 52  1  0  0  0
 51120  1  0  0  0
 51121  1  0  0  0
 52122  1  0  0  0
 52123  1  0  0  0
 53 54  1  0  0  0
 54 55  2  0  0  0
 54124  1  0  0  0
 55 57  1  0  0  0
 55125  1  0  0  0
 56 69  2  0  0  0
 57 58  2  0  0  0
 57126  1  0  0  0
 58127  1  0  0  0
 59 60  1  0  0  0
 59 61  1  0  0  0
 59 62  1  0  0  0
 60128  1  0  0  0
 60129  1  0  0  0
 60130  1  0  0  0
 61131  1  0  0  0
 61132  1  0  0  0
 61133  1  0  0  0
 62134  1  0  0  0
 62135  1  0  0  0
 62136  1  0  0  0
 63 65  1  0  0  0
 63137  1  0  0  0
 63138  1  0  0  0
 63139  1  0  0  0
 64140  1  0  0  0
 65141  1  0  0  0
 68 78  1  0  0  0
 71 80  2  0  0  0
 71 82  1  0  0  0
 71142  1  0  0  0
 72 79  1  0  0  0
 72 81  2  0  0  0
 72 82  1  0  0  0
 73143  1  0  0  0
 73144  1  0  0  0
 73145  1  0  0  0
 73 79  1  0  0  0
 74 79  1  0  0  0
 74146  1  0  0  0
 74147  1  0  0  0
 74148  1  0  0  0
 75 76  1  0  0  0
 75 77  1  0  0  0
 75149  1  0  0  0
 75150  1  0  0  0
 76 78  1  0  0  0
 76151  1  0  0  0
 76152  1  0  0  0
 77 82  1  0  0  0
 77153  1  0  0  0
 77154  1  0  0  0
 78155  1  0  0  0
 78156  1  0  0  0
 80 81  1  0  0  0
M  ISO  4   1 100  68 101  78 101  79 100
M  END
> <chiral flag>
0

> <version>
0

> <s_m_source_file>
/data/baiqing/PycharmProjects/Reinvent-master-3.2/result/LINK_invent/BTK/process_docking_weight1_custom_sum_contain_oxygen_bond_distance_aromatic_linkinvent_7_9_3/rearranged_h_0070.sdf

> <i_m_source_file_index>
78

> <r_mmod_Potential_Energy-OPLS-2005>
678.841247558594

> <r_mmod_Stretch_Energy-OPLS-2005>
284.393341064453

> <r_mmod_Bend_Energy-OPLS-2005>
311.993499755859

> <r_mmod_Torsional_Energy-OPLS-2005>
240.40788269043

> <r_mmod_Improper_Torsional_Energy-OPLS-2005>
11.2136716842651

> <r_mmod_Van_der_Waal_Energy-OPLS-2005>
115.16716003418

> <r_mmod_Electrostatic_Energy-OPLS-2005>
-270.846740722656

> <r_mmod_Solvation_Energy-OPLS-2005>
-219.51872253418

> <b_mmod_Minimization_Converged-OPLS-2005>
0

> <r_mmod_RMS_Derivative-OPLS-2005>
1.95286190509796

$$$$
79
                    3D
 Structure written by MMmdl.
169177  0  0  1  0            999 V2000
  -30.5434  -14.9472   20.3978 C   0  0  0  0  0  0
  -30.4329  -12.5854   19.4979 C   0  0  0  0  0  0
  -29.5182  -12.5333   18.2470 C   0  0  0  0  0  0
  -28.0441  -12.3195   18.6639 C   0  0  0  0  0  0
  -27.6202  -13.2329   19.8412 C   0  0  2  0  0  0
  -28.6656  -13.2285   20.9681 C   0  0  0  0  0  0
  -25.2244  -13.7859   20.5448 C   0  0  0  0  0  0
  -24.1637  -13.0274   20.9190 C   0  0  0  0  0  0
  -24.6302  -11.6754   20.8830 C   0  0  0  0  0  0
  -23.9026  -10.4132   21.0370 C   0  0  0  0  0  0
  -24.3617   -9.4033   21.9112 C   0  0  0  0  0  0
  -23.6272   -8.2117   22.0722 C   0  0  0  0  0  0
  -22.4253   -8.0140   21.3504 C   0  0  0  0  0  0
  -21.9875   -9.0089   20.4575 C   0  0  0  0  0  0
  -22.7232  -10.1952   20.2939 C   0  0  0  0  0  0
  -21.6795   -6.0638   22.5246 C   0  0  0  0  0  0
  -21.4029   -6.5566   23.8173 C   0  0  0  0  0  0
  -21.3714   -5.6726   24.9133 C   0  0  0  0  0  0
  -21.6058   -4.2977   24.7190 C   0  0  0  0  0  0
  -21.8786   -3.8068   23.4301 C   0  0  0  0  0  0
  -21.9121   -4.6883   22.3357 C   0  0  0  0  0  0
  -22.7683  -13.5174   21.1985 C   0  0  0  0  0  0
  -22.1572   -4.2054   21.0936 F   0  0  0  0  0  0
  -21.5722   -3.4492   25.7737 F   0  0  0  0  0  0
  -29.9382  -13.6842   20.3840 N   0  0  0  0  0  0
  -26.2814  -12.9257   20.3269 N   0  0  0  0  0  0
  -25.9268  -11.6410   20.5859 N   0  0  0  0  0  0
  -22.0364  -12.8242   22.0582 N   0  0  0  0  0  0
  -25.3691  -15.1430   20.3434 N   0  0  0  0  0  0
  -31.7716  -14.9136   20.2782 O   0  0  0  0  0  0
  -21.6591   -6.8769   21.4201 O   0  0  0  0  0  0
  -22.3382  -14.5533   20.6825 O   0  0  0  0  0  0
  -24.6310  -31.8445   23.1870 C   0  0  0  0  0  0
  -25.9094  -32.4691   23.8261 C   0  0  1  0  0  0
  -27.2840  -27.2265   20.1448 C   0  0  0  0  0  0
  -25.5893  -33.8491   24.2189 N   0  0  0  0  0  0
  -23.4392  -30.4560   21.5269 C   0  0  2  0  0  0
  -24.9067  -28.8847   20.1085 C   0  0  0  0  0  0
  -22.7491  -29.4506   22.4809 C   0  0  0  0  0  0
  -18.0279  -28.1371   22.8493 C   0  0  0  0  0  0
  -24.1504  -36.7228   23.2659 C   0  0  0  0  0  0
  -25.9882  -30.7505   21.3776 C   0  0  0  0  0  0
  -26.0736  -29.3676   20.7144 C   0  0  0  0  0  0
  -27.2538  -28.5544   20.7140 C   0  0  0  0  0  0
  -26.0904  -26.8062   19.5194 C   0  0  0  0  0  0
  -24.9217  -27.6078   19.5094 C   0  0  0  0  0  0
  -23.6654  -29.7653   20.1553 C   0  0  0  0  0  0
  -25.4137  -36.3003   24.0305 C   0  0  1  0  0  0
  -20.5902  -28.3673   23.1251 C   0  0  2  0  0  0
  -20.6769  -26.9368   22.5428 C   0  0  0  0  0  0
  -19.5739  -26.6353   21.5231 C   0  0  0  0  0  0
  -18.1924  -26.7923   22.1633 C   0  0  0  0  0  0
  -19.1561  -28.8835   23.2878 C   0  0  0  0  0  0
  -18.9455  -30.1443   23.8875 C   0  0  0  0  0  0
  -17.6468  -30.6582   24.0542 C   0  0  0  0  0  0
  -25.9049  -34.9398   23.5066 C   0  0  0  0  0  0
  -16.5342  -29.9069   23.6355 C   0  0  0  0  0  0
  -16.7277  -28.6491   23.0367 C   0  0  0  0  0  0
  -26.4490  -31.6554   25.0670 C   0  0  0  0  0  0
  -25.3725  -31.3744   26.1394 C   0  0  0  0  0  0
  -27.0365  -30.2950   24.6264 C   0  0  0  0  0  0
  -27.6012  -32.4356   25.7446 C   0  0  0  0  0  0
  -27.5565  -37.1750   24.8463 C   0  0  0  0  0  0
  -21.4192  -29.3032   22.3600 N   0  0  0  0  0  0
  -26.4280  -37.3727   23.9396 N   0  0  0  0  0  0
  -24.7041  -31.0375   22.0872 N   0  0  0  0  0  0
  -23.4151  -28.8071   23.2963 O   0  0  0  0  0  0
  -28.4134  -26.3672   20.2934 O   0  0  0  0  0  0
  -26.5652  -34.8885   22.4648 O   0  0  0  0  0  0
  -23.5441  -32.1265   23.7151 O   0  0  0  0  0  0
  -26.8859  -17.0119   22.2410 C   0  0  0  0  0  0
  -28.0958  -16.3832   22.0424 C   0  0  0  0  0  0
  -27.5051  -17.4276   20.2358 C   0  0  0  0  0  0
  -32.1000  -19.2124   18.8456 C   0  0  0  0  0  0
  -30.6580  -20.1154   22.0701 C   0  0  0  0  0  0
  -29.7301  -16.5161   18.6049 C   0  0  0  0  0  0
  -32.0041  -18.1367   19.9508 C   0  0  0  0  0  0
  -29.2361  -20.5570   19.9180 C   0  0  0  0  0  0
  -29.4916  -22.2148   19.8626 C   0  0  0  0  0  0
  -28.7055  -25.0028   19.6689 C   0  0  0  0  0  0
  -29.8669  -19.4113   20.9466 C   0  0  1  0  0  0
  -30.5891  -17.9181   20.5729 C   0  0  2  0  0  0
  -28.4443  -23.4589   20.2226 C   0  0  1  0  0  0
  -29.8305  -16.4674   20.1524 C   0  0  2  0  0  0
  -26.5184  -17.6935   21.0807 N   0  0  0  0  0  0
  -28.4943  -16.6538   20.7369 N   0  0  0  0  0  0
  -28.2411  -23.4667   21.5406 F   0  0  0  0  0  0
  -31.4665  -12.7180   19.1887 H   0  0  0  0  0  0
  -30.4319  -11.6246   20.0163 H   0  0  0  0  0  0
  -29.8606  -11.7364   17.5888 H   0  0  0  0  0  0
  -29.6080  -13.4511   17.6682 H   0  0  0  0  0  0
  -27.9432  -11.2848   18.9865 H   0  0  0  0  0  0
  -27.3725  -12.4475   17.8156 H   0  0  0  0  0  0
  -27.5879  -14.2398   19.4396 H   0  0  0  0  0  0
  -28.7787  -12.2224   21.3754 H   0  0  0  0  0  0
  -28.3444  -13.8249   21.8157 H   0  0  0  0  0  0
  -25.2729   -9.5568   22.4709 H   0  0  0  0  0  0
  -23.9851   -7.4578   22.7595 H   0  0  0  0  0  0
  -21.0681   -8.8616   19.9041 H   0  0  0  0  0  0
  -22.3637  -10.9470   19.6038 H   0  0  0  0  0  0
  -21.2094   -7.6084   23.9666 H   0  0  0  0  0  0
  -21.1619   -6.0454   25.9034 H   0  0  0  0  0  0
  -22.0569   -2.7529   23.2789 H   0  0  0  0  0  0
  -22.3861  -11.9925   22.5139 H   0  0  0  0  0  0
  -21.0957  -13.1307   22.2651 H   0  0  0  0  0  0
  -24.6340  -15.8221   20.4896 H   0  0  0  0  0  0
  -26.2765  -15.5860   20.3233 H   0  0  0  0  0  0
  -26.7154  -32.5367   23.1006 H   0  0  0  0  0  0
  -25.0025  -33.9676   25.0312 H   0  0  0  0  0  0
  -22.7375  -31.2732   21.3580 H   0  0  0  0  0  0
  -23.3767  -35.9555   23.3326 H   0  0  0  0  0  0
  -24.3617  -36.8854   22.2078 H   0  0  0  0  0  0
  -23.7235  -37.6409   23.6706 H   0  0  0  0  0  0
  -26.1411  -31.5168   20.6164 H   0  0  0  0  0  0
  -26.8609  -30.8016   22.0213 H   0  0  0  0  0  0
  -28.1444  -28.9231   21.2026 H   0  0  0  0  0  0
  -26.0403  -25.8129   19.0979 H   0  0  0  0  0  0
  -24.0226  -27.2094   19.0662 H   0  0  0  0  0  0
  -23.7705  -30.5260   19.3805 H   0  0  0  0  0  0
  -22.7978  -29.1695   19.8691 H   0  0  0  0  0  0
  -25.1327  -36.1852   25.0785 H   0  0  0  0  0  0
  -21.0038  -28.3290   24.1347 H   0  0  0  0  0  0
  -20.5680  -26.2256   23.3625 H   0  0  0  0  0  0
  -21.6617  -26.7366   22.1188 H   0  0  0  0  0  0
  -19.6898  -25.6272   21.1224 H   0  0  0  0  0  0
  -19.6717  -27.3193   20.6778 H   0  0  0  0  0  0
  -17.4191  -26.6669   21.4029 H   0  0  0  0  0  0
  -18.0296  -26.0073   22.9026 H   0  0  0  0  0  0
  -19.7936  -30.7269   24.2218 H   0  0  0  0  0  0
  -17.5015  -31.6270   24.5117 H   0  0  0  0  0  0
  -15.5349  -30.2947   23.7715 H   0  0  0  0  0  0
  -15.8651  -28.0795   22.7097 H   0  0  0  0  0  0
  -24.5893  -30.7108   25.7743 H   0  0  0  0  0  0
  -24.8932  -32.2931   26.4778 H   0  0  0  0  0  0
  -25.8040  -30.8939   27.0184 H   0  0  0  0  0  0
  -26.2990  -29.6657   24.1281 H   0  0  0  0  0  0
  -27.3982  -29.7274   25.4853 H   0  0  0  0  0  0
  -27.8887  -30.4171   23.9576 H   0  0  0  0  0  0
  -27.2557  -33.3674   26.1964 H   0  0  0  0  0  0
  -28.3835  -32.6922   25.0278 H   0  0  0  0  0  0
  -28.0676  -31.8531   26.5412 H   0  0  0  0  0  0
  -28.2554  -38.0078   24.7495 H   0  0  0  0  0  0
  -28.1076  -36.2577   24.6298 H   0  0  0  0  0  0
  -27.2270  -37.1389   25.8869 H   0  0  0  0  0  0
  -20.9338  -29.8659   21.6752 H   0  0  0  0  0  0
  -26.0141  -38.2779   24.1437 H   0  0  0  0  0  0
  -26.2729  -17.0653   23.1298 H   0  0  0  0  0  0
  -28.7314  -15.8272   22.7266 H   0  0  0  0  0  0
  -27.5651  -17.9286   19.2780 H   0  0  0  0  0  0
  -31.9968  -20.2215   19.2449 H   0  0  0  0  0  0
  -31.3550  -19.0512   18.0661 H   0  0  0  0  0  0
  -33.0714  -19.2115   18.3509 H   0  0  0  0  0  0
  -30.8511  -19.4414   22.9083 H   0  0  0  0  0  0
  -30.0710  -20.9307   22.4972 H   0  0  0  0  0  0
  -31.6064  -20.5252   21.7219 H   0  0  0  0  0  0
  -29.4537  -17.5103   18.2634 H   0  0  0  0  0  0
  -29.0030  -15.8071   18.2033 H   0  0  0  0  0  0
  -30.6917  -16.3001   18.1367 H   0  0  0  0  0  0
  -32.3810  -17.1993   19.5502 H   0  0  0  0  0  0
  -32.7055  -18.4005   20.7529 H   0  0  0  0  0  0
  -28.1578  -20.4244   19.9161 H   0  0  0  0  0  0
  -29.5228  -20.1865   18.9348 H   0  0  0  0  0  0
  -29.6008  -22.3726   18.7881 H   0  0  0  0  0  0
  -30.4891  -22.4530   20.2360 H   0  0  0  0  0  0
  -28.3931  -25.0377   18.6243 H   0  0  0  0  0  0
  -29.8009  -25.0403   19.6006 H   0  0  0  0  0  0
  -28.9961  -19.1199   21.5284 H   0  0  0  0  0  0
  -30.8540  -17.5874   21.5771 H   0  0  0  0  0  0
  -27.4812  -23.1829   19.7903 H   0  0  0  0  0  0
  1 25  1  0  0  0
  1 30  2  0  0  0
  1 84  1  0  0  0
  2  3  1  0  0  0
  2 25  1  0  0  0
  2 88  1  0  0  0
  2 89  1  0  0  0
  3  4  1  0  0  0
  3 90  1  0  0  0
  3 91  1  0  0  0
  4  5  1  0  0  0
  4 92  1  0  0  0
  4 93  1  0  0  0
  5  6  1  0  0  0
  5 26  1  0  0  0
  5 94  1  0  0  0
  6 25  1  0  0  0
  6 95  1  0  0  0
  6 96  1  0  0  0
  7  8  2  0  0  0
  7 26  1  0  0  0
  7 29  1  0  0  0
  8  9  1  0  0  0
  8 22  1  0  0  0
  9 10  1  0  0  0
  9 27  2  0  0  0
 10 11  2  0  0  0
 10 15  1  0  0  0
 11 12  1  0  0  0
 11 97  1  0  0  0
 12 13  2  0  0  0
 12 98  1  0  0  0
 13 14  1  0  0  0
 13 31  1  0  0  0
 14 15  2  0  0  0
 14 99  1  0  0  0
 15100  1  0  0  0
 16 17  2  0  0  0
 16 21  1  0  0  0
 16 31  1  0  0  0
 17 18  1  0  0  0
 17101  1  0  0  0
 18 19  2  0  0  0
 18102  1  0  0  0
 19 20  1  0  0  0
 19 24  1  0  0  0
 20 21  2  0  0  0
 20103  1  0  0  0
 21 23  1  0  0  0
 22 28  1  0  0  0
 22 32  2  0  0  0
 26 27  1  0  0  0
 28104  1  0  0  0
 28105  1  0  0  0
 29106  1  0  0  0
 29107  1  0  0  0
 33 34  1  0  0  0
 33 66  1  0  0  0
 33 70  2  0  0  0
 34 36  1  0  0  0
 34 59  1  0  0  0
 34108  1  0  0  0
 35 44  2  0  0  0
 35 45  1  0  0  0
 35 68  1  0  0  0
 36 56  1  0  0  0
 36109  1  0  0  0
 37 39  1  0  0  0
 37 47  1  0  0  0
 37 66  1  0  0  0
 37110  1  0  0  0
 38 43  2  0  0  0
 38 46  1  0  0  0
 38 47  1  0  0  0
 39 64  1  0  0  0
 39 67  2  0  0  0
 40 52  1  0  0  0
 40 53  2  0  0  0
 40 58  1  0  0  0
 41111  1  0  0  0
 41112  1  0  0  0
 41113  1  0  0  0
 41 48  1  0  0  0
 42 43  1  0  0  0
 42 66  1  0  0  0
 42114  1  0  0  0
 42115  1  0  0  0
 43 44  1  0  0  0
 44116  1  0  0  0
 45 46  2  0  0  0
 45117  1  0  0  0
 46118  1  0  0  0
 47119  1  0  0  0
 47120  1  0  0  0
 48 56  1  0  0  0
 48 65  1  0  0  0
 48121  1  0  0  0
 49 50  1  0  0  0
 49 53  1  0  0  0
 49 64  1  0  0  0
 49122  1  0  0  0
 50 51  1  0  0  0
 50123  1  0  0  0
 50124  1  0  0  0
 51 52  1  0  0  0
 51125  1  0  0  0
 51126  1  0  0  0
 52127  1  0  0  0
 52128  1  0  0  0
 53 54  1  0  0  0
 54 55  2  0  0  0
 54129  1  0  0  0
 55 57  1  0  0  0
 55130  1  0  0  0
 56 69  2  0  0  0
 57 58  2  0  0  0
 57131  1  0  0  0
 58132  1  0  0  0
 59 60  1  0  0  0
 59 61  1  0  0  0
 59 62  1  0  0  0
 60133  1  0  0  0
 60134  1  0  0  0
 60135  1  0  0  0
 61136  1  0  0  0
 61137  1  0  0  0
 61138  1  0  0  0
 62139  1  0  0  0
 62140  1  0  0  0
 62141  1  0  0  0
 63 65  1  0  0  0
 63142  1  0  0  0
 63143  1  0  0  0
 63144  1  0  0  0
 64145  1  0  0  0
 65146  1  0  0  0
 68 80  1  0  0  0
 71 72  2  0  0  0
 71 85  1  0  0  0
 71147  1  0  0  0
 72 86  1  0  0  0
 72148  1  0  0  0
 73 85  2  0  0  0
 73 86  1  0  0  0
 73149  1  0  0  0
 74 77  1  0  0  0
 74150  1  0  0  0
 74151  1  0  0  0
 74152  1  0  0  0
 75153  1  0  0  0
 75154  1  0  0  0
 75155  1  0  0  0
 75 81  1  0  0  0
 76156  1  0  0  0
 76157  1  0  0  0
 76158  1  0  0  0
 76 84  1  0  0  0
 77159  1  0  0  0
 77160  1  0  0  0
 77 82  1  0  0  0
 78 79  1  0  0  0
 78 81  1  0  0  0
 78161  1  0  0  0
 78162  1  0  0  0
 79 83  1  0  0  0
 79163  1  0  0  0
 79164  1  0  0  0
 80 83  1  0  0  0
 80165  1  0  0  0
 80166  1  0  0  0
 81 82  1  0  0  0
 81167  1  0  0  0
 82 84  1  0  0  0
 82168  1  0  0  0
 83 87  1  0  0  0
 83169  1  0  0  0
 84 86  1  0  0  0
M  ISO  4   1 100  68 101  80 101  84 100
M  END
> <chiral flag>
0

> <version>
0

> <s_m_source_file>
/data/baiqing/PycharmProjects/Reinvent-master-3.2/result/LINK_invent/BTK/process_docking_weight1_custom_sum_contain_oxygen_bond_distance_aromatic_linkinvent_7_9_3/rearranged_h_0070.sdf

> <i_m_source_file_index>
79

> <r_mmod_Potential_Energy-OPLS-2005>
783.102783203125

> <r_mmod_Stretch_Energy-OPLS-2005>
267.931518554688

> <r_mmod_Bend_Energy-OPLS-2005>
386.607482910156

> <r_mmod_Torsional_Energy-OPLS-2005>
290.328247070312

> <r_mmod_Improper_Torsional_Energy-OPLS-2005>
14.5154428482056

> <r_mmod_Van_der_Waal_Energy-OPLS-2005>
111.463760375977

> <r_mmod_Electrostatic_Energy-OPLS-2005>
-254.778701782227

> <r_mmod_Solvation_Energy-OPLS-2005>
-190.844635009766

> <b_mmod_Minimization_Converged-OPLS-2005>
0

> <r_mmod_RMS_Derivative-OPLS-2005>
10.1183595657349

$$$$
80
                    3D
 Structure written by MMmdl.
161169  0  0  1  0            999 V2000
  -30.6495  -14.4519   20.6278 C   0  0  0  0  0  0
  -30.4516  -12.3107   19.4095 C   0  0  0  0  0  0
  -29.5084  -12.5037   18.2013 C   0  0  0  0  0  0
  -28.0275  -12.3526   18.6167 C   0  0  0  0  0  0
  -27.6730  -13.1802   19.8805 C   0  0  2  0  0  0
  -28.7083  -12.8954   20.9913 C   0  0  0  0  0  0
  -25.2701  -13.8097   20.5668 C   0  0  0  0  0  0
  -24.1912  -13.0435   20.9167 C   0  0  0  0  0  0
  -24.6402  -11.6881   20.8728 C   0  0  0  0  0  0
  -23.9056  -10.4280   21.0413 C   0  0  0  0  0  0
  -24.3601   -9.4199   21.9201 C   0  0  0  0  0  0
  -23.6279   -8.2235   22.0768 C   0  0  0  0  0  0
  -22.4265   -8.0287   21.3543 C   0  0  0  0  0  0
  -21.9890   -9.0271   20.4657 C   0  0  0  0  0  0
  -22.7221  -10.2147   20.3073 C   0  0  0  0  0  0
  -21.6845   -6.0753   22.5291 C   0  0  0  0  0  0
  -21.3999   -6.5652   23.8226 C   0  0  0  0  0  0
  -21.3654   -5.6799   24.9191 C   0  0  0  0  0  0
  -21.6034   -4.3060   24.7221 C   0  0  0  0  0  0
  -21.8821   -3.8163   23.4336 C   0  0  0  0  0  0
  -21.9186   -4.6988   22.3398 C   0  0  0  0  0  0
  -22.7936  -13.5278   21.1836 C   0  0  0  0  0  0
  -22.1662   -4.2185   21.0973 F   0  0  0  0  0  0
  -21.5617   -3.4534   25.7719 F   0  0  0  0  0  0
  -30.0401  -13.2486   20.4606 N   0  0  0  0  0  0
  -26.3092  -12.9208   20.3355 N   0  0  0  0  0  0
  -25.9312  -11.6397   20.5741 N   0  0  0  0  0  0
  -22.0530  -12.8309   22.0374 N   0  0  0  0  0  0
  -25.4504  -15.1806   20.4050 N   0  0  0  0  0  0
  -31.7445  -14.7458   20.1372 O   0  0  0  0  0  0
  -21.6626   -6.8898   21.4248 O   0  0  0  0  0  0
  -22.3670  -14.5610   20.6706 O   0  0  0  0  0  0
  -24.6102  -31.8675   23.2125 C   0  0  0  0  0  0
  -25.9003  -32.4821   23.8420 C   0  0  1  0  0  0
  -27.2384  -27.4424   20.0965 C   0  0  0  0  0  0
  -25.5881  -33.8628   24.2344 N   0  0  0  0  0  0
  -23.4016  -30.4908   21.5487 C   0  0  2  0  0  0
  -24.8538  -28.9588   20.1117 C   0  0  0  0  0  0
  -22.7362  -29.4662   22.4964 C   0  0  0  0  0  0
  -18.0216  -28.1374   22.8453 C   0  0  0  0  0  0
  -24.1485  -36.7314   23.2640 C   0  0  0  0  0  0
  -25.9326  -30.8290   21.3736 C   0  0  0  0  0  0
  -26.0119  -29.4678   20.7148 C   0  0  0  0  0  0
  -27.2102  -28.7172   20.7044 C   0  0  0  0  0  0
  -26.0700  -26.9478   19.4819 C   0  0  0  0  0  0
  -24.8772  -27.6972   19.4906 C   0  0  0  0  0  0
  -23.6140  -29.8238   20.1629 C   0  0  0  0  0  0
  -25.4104  -36.3125   24.0347 C   0  0  1  0  0  0
  -20.5800  -28.3682   23.1266 C   0  0  2  0  0  0
  -20.6674  -26.9398   22.5412 C   0  0  0  0  0  0
  -19.5647  -26.6335   21.5214 C   0  0  0  0  0  0
  -18.1852  -26.7887   22.1652 C   0  0  0  0  0  0
  -19.1450  -28.8851   23.2857 C   0  0  0  0  0  0
  -18.9357  -30.1455   23.8874 C   0  0  0  0  0  0
  -17.6341  -30.6553   24.0570 C   0  0  0  0  0  0
  -25.9016  -34.9477   23.5138 C   0  0  0  0  0  0
  -16.5251  -29.9038   23.6316 C   0  0  0  0  0  0
  -16.7195  -28.6491   23.0289 C   0  0  0  0  0  0
  -26.4429  -31.6620   25.0762 C   0  0  0  0  0  0
  -25.3706  -31.3742   26.1520 C   0  0  0  0  0  0
  -27.0264  -30.3045   24.6192 C   0  0  0  0  0  0
  -27.6009  -32.4356   25.7503 C   0  0  0  0  0  0
  -27.5578  -37.1814   24.8457 C   0  0  0  0  0  0
  -21.4084  -29.3040   22.3667 N   0  0  0  0  0  0
  -26.4289  -37.3800   23.9410 N   0  0  0  0  0  0
  -24.6654  -31.0773   22.1021 N   0  0  0  0  0  0
  -23.4113  -28.8196   23.3022 O   0  0  0  0  0  0
  -28.3729  -26.6622   20.1103 O   0  0  0  0  0  0
  -26.5570  -34.8909   22.4687 O   0  0  0  0  0  0
  -23.5296  -32.1432   23.7501 O   0  0  0  0  0  0
  -28.3646  -21.1629   23.6474 C   0  0  0  0  0  0
  -28.0680  -20.0460   24.4237 C   0  0  0  0  0  0
  -29.1651  -20.9656   22.5101 C   0  0  0  0  0  0
  -29.3537  -18.7244   23.0424 C   0  0  0  0  0  0
  -27.1701  -20.1443   25.6401 C   0  0  0  0  0  0
  -29.5252  -16.2787   23.8596 C   0  0  0  0  0  0
  -29.0446  -24.3173   20.7283 C   0  0  0  0  0  0
  -29.9339  -16.8021   21.3726 C   0  0  0  0  0  0
  -28.3243  -25.6353   21.1137 C   0  0  0  0  0  0
  -28.8020  -23.2281   21.8025 C   0  0  0  0  0  0
  -30.0356  -17.3351   22.8383 C   0  0  2  0  0  0
  -28.5567  -18.8405   24.1094 N   0  0  0  0  0  0
  -29.6777  -19.7441   22.2301 N   0  0  0  0  0  0
  -29.8621  -15.3362   21.2563 N   0  0  0  0  0  0
  -29.4713  -21.9705   21.6004 O   0  0  0  0  0  0
  -31.3370  -17.4757   23.1076 F   0  0  0  0  0  0
  -31.4920  -12.4587   19.1142 H   0  0  0  0  0  0
  -30.3921  -11.2899   19.7876 H   0  0  0  0  0  0
  -29.7551  -11.7800   17.4226 H   0  0  0  0  0  0
  -29.6677  -13.4885   17.7594 H   0  0  0  0  0  0
  -27.8464  -11.2955   18.8159 H   0  0  0  0  0  0
  -27.3752  -12.6230   17.7850 H   0  0  0  0  0  0
  -27.7375  -14.2332   19.6052 H   0  0  0  0  0  0
  -28.6932  -11.8348   21.2484 H   0  0  0  0  0  0
  -28.4547  -13.4025   21.9232 H   0  0  0  0  0  0
  -25.2746   -9.5696   22.4794 H   0  0  0  0  0  0
  -23.9991   -7.4628   22.7484 H   0  0  0  0  0  0
  -21.0820   -8.8814   19.8967 H   0  0  0  0  0  0
  -22.3687  -10.9713   19.6202 H   0  0  0  0  0  0
  -21.1996   -7.6163   23.9753 H   0  0  0  0  0  0
  -21.1468   -6.0516   25.9101 H   0  0  0  0  0  0
  -22.0602   -2.7630   23.2819 H   0  0  0  0  0  0
  -22.4045  -11.9903   22.4722 H   0  0  0  0  0  0
  -21.1199  -13.1467   22.2604 H   0  0  0  0  0  0
  -24.6834  -15.8393   20.4947 H   0  0  0  0  0  0
  -26.2948  -15.6057   20.0440 H   0  0  0  0  0  0
  -26.7064  -32.5523   23.1174 H   0  0  0  0  0  0
  -25.0100  -33.9811   25.0538 H   0  0  0  0  0  0
  -22.6905  -31.3078   21.4077 H   0  0  0  0  0  0
  -23.3741  -35.9650   23.3315 H   0  0  0  0  0  0
  -24.3566  -36.8907   22.2045 H   0  0  0  0  0  0
  -23.7237  -37.6523   23.6633 H   0  0  0  0  0  0
  -26.0610  -31.6000   20.6126 H   0  0  0  0  0  0
  -26.8126  -30.8695   22.0043 H   0  0  0  0  0  0
  -28.1033  -29.1044   21.1734 H   0  0  0  0  0  0
  -26.0844  -25.9795   19.0022 H   0  0  0  0  0  0
  -23.9901  -27.3014   19.0156 H   0  0  0  0  0  0
  -23.7197  -30.5989   19.4031 H   0  0  0  0  0  0
  -22.7382  -29.2440   19.8655 H   0  0  0  0  0  0
  -25.1274  -36.1997   25.0837 H   0  0  0  0  0  0
  -20.9880  -28.3282   24.1388 H   0  0  0  0  0  0
  -20.5543  -26.2326   23.3641 H   0  0  0  0  0  0
  -21.6526  -26.7387   22.1208 H   0  0  0  0  0  0
  -19.6780  -25.6230   21.1282 H   0  0  0  0  0  0
  -19.6531  -27.3110   20.6707 H   0  0  0  0  0  0
  -17.4071  -26.6547   21.4116 H   0  0  0  0  0  0
  -18.0298  -26.0100   22.9130 H   0  0  0  0  0  0
  -19.7811  -30.7288   24.2250 H   0  0  0  0  0  0
  -17.4822  -31.6197   24.5212 H   0  0  0  0  0  0
  -15.5229  -30.2899   23.7644 H   0  0  0  0  0  0
  -15.8605  -28.0800   22.6971 H   0  0  0  0  0  0
  -24.5857  -30.7101   25.7904 H   0  0  0  0  0  0
  -24.8912  -32.2908   26.4969 H   0  0  0  0  0  0
  -25.8078  -30.8933   27.0283 H   0  0  0  0  0  0
  -26.2814  -29.6835   24.1206 H   0  0  0  0  0  0
  -27.3956  -29.7271   25.4683 H   0  0  0  0  0  0
  -27.8698  -30.4322   23.9404 H   0  0  0  0  0  0
  -27.2623  -33.3647   26.2096 H   0  0  0  0  0  0
  -28.3803  -32.6927   25.0313 H   0  0  0  0  0  0
  -28.0690  -31.8484   26.5415 H   0  0  0  0  0  0
  -28.2607  -38.0100   24.7495 H   0  0  0  0  0  0
  -28.1069  -36.2632   24.6299 H   0  0  0  0  0  0
  -27.2297  -37.1489   25.8861 H   0  0  0  0  0  0
  -20.9264  -29.8736   21.6855 H   0  0  0  0  0  0
  -26.0187  -38.2879   24.1410 H   0  0  0  0  0  0
  -27.9604  -22.1228   23.9321 H   0  0  0  0  0  0
  -27.2096  -21.1445   26.0732 H   0  0  0  0  0  0
  -27.4645  -19.4338   26.4121 H   0  0  0  0  0  0
  -26.1359  -19.9403   25.3608 H   0  0  0  0  0  0
  -29.6033  -16.6392   24.8857 H   0  0  0  0  0  0
  -30.1054  -15.3575   23.8219 H   0  0  0  0  0  0
  -28.4797  -16.0242   23.6780 H   0  0  0  0  0  0
  -30.1134  -24.4944   20.6090 H   0  0  0  0  0  0
  -28.6702  -23.9658   19.7661 H   0  0  0  0  0  0
  -30.7295  -17.2195   20.7537 H   0  0  0  0  0  0
  -29.0024  -17.1634   20.9389 H   0  0  0  0  0  0
  -28.7694  -26.0403   22.0234 H   0  0  0  0  0  0
  -27.2914  -25.3950   21.3748 H   0  0  0  0  0  0
  -27.7284  -23.0406   21.8424 H   0  0  0  0  0  0
  -29.1025  -23.6360   22.7692 H   0  0  0  0  0  0
  -29.0063  -14.9294   21.6017 H   0  0  0  0  0  0
  1 25  1  0  0  0
  1 30  2  0  0  0
  1 84  1  0  0  0
  2  3  1  0  0  0
  2 25  1  0  0  0
  2 87  1  0  0  0
  2 88  1  0  0  0
  3  4  1  0  0  0
  3 89  1  0  0  0
  3 90  1  0  0  0
  4  5  1  0  0  0
  4 91  1  0  0  0
  4 92  1  0  0  0
  5  6  1  0  0  0
  5 26  1  0  0  0
  5 93  1  0  0  0
  6 25  1  0  0  0
  6 94  1  0  0  0
  6 95  1  0  0  0
  7  8  2  0  0  0
  7 26  1  0  0  0
  7 29  1  0  0  0
  8  9  1  0  0  0
  8 22  1  0  0  0
  9 10  1  0  0  0
  9 27  2  0  0  0
 10 11  2  0  0  0
 10 15  1  0  0  0
 11 12  1  0  0  0
 11 96  1  0  0  0
 12 13  2  0  0  0
 12 97  1  0  0  0
 13 14  1  0  0  0
 13 31  1  0  0  0
 14 15  2  0  0  0
 14 98  1  0  0  0
 15 99  1  0  0  0
 16 17  2  0  0  0
 16 21  1  0  0  0
 16 31  1  0  0  0
 17 18  1  0  0  0
 17100  1  0  0  0
 18 19  2  0  0  0
 18101  1  0  0  0
 19 20  1  0  0  0
 19 24  1  0  0  0
 20 21  2  0  0  0
 20102  1  0  0  0
 21 23  1  0  0  0
 22 28  1  0  0  0
 22 32  2  0  0  0
 26 27  1  0  0  0
 28103  1  0  0  0
 28104  1  0  0  0
 29105  1  0  0  0
 29106  1  0  0  0
 33 34  1  0  0  0
 33 66  1  0  0  0
 33 70  2  0  0  0
 34 36  1  0  0  0
 34 59  1  0  0  0
 34107  1  0  0  0
 35 44  2  0  0  0
 35 45  1  0  0  0
 35 68  1  0  0  0
 36 56  1  0  0  0
 36108  1  0  0  0
 37 39  1  0  0  0
 37 47  1  0  0  0
 37 66  1  0  0  0
 37109  1  0  0  0
 38 43  2  0  0  0
 38 46  1  0  0  0
 38 47  1  0  0  0
 39 64  1  0  0  0
 39 67  2  0  0  0
 40 52  1  0  0  0
 40 53  2  0  0  0
 40 58  1  0  0  0
 41110  1  0  0  0
 41111  1  0  0  0
 41112  1  0  0  0
 41 48  1  0  0  0
 42 43  1  0  0  0
 42 66  1  0  0  0
 42113  1  0  0  0
 42114  1  0  0  0
 43 44  1  0  0  0
 44115  1  0  0  0
 45 46  2  0  0  0
 45116  1  0  0  0
 46117  1  0  0  0
 47118  1  0  0  0
 47119  1  0  0  0
 48 56  1  0  0  0
 48 65  1  0  0  0
 48120  1  0  0  0
 49 50  1  0  0  0
 49 53  1  0  0  0
 49 64  1  0  0  0
 49121  1  0  0  0
 50 51  1  0  0  0
 50122  1  0  0  0
 50123  1  0  0  0
 51 52  1  0  0  0
 51124  1  0  0  0
 51125  1  0  0  0
 52126  1  0  0  0
 52127  1  0  0  0
 53 54  1  0  0  0
 54 55  2  0  0  0
 54128  1  0  0  0
 55 57  1  0  0  0
 55129  1  0  0  0
 56 69  2  0  0  0
 57 58  2  0  0  0
 57130  1  0  0  0
 58131  1  0  0  0
 59 60  1  0  0  0
 59 61  1  0  0  0
 59 62  1  0  0  0
 60132  1  0  0  0
 60133  1  0  0  0
 60134  1  0  0  0
 61135  1  0  0  0
 61136  1  0  0  0
 61137  1  0  0  0
 62138  1  0  0  0
 62139  1  0  0  0
 62140  1  0  0  0
 63 65  1  0  0  0
 63141  1  0  0  0
 63142  1  0  0  0
 63143  1  0  0  0
 64144  1  0  0  0
 65145  1  0  0  0
 68 79  1  0  0  0
 71 72  2  0  0  0
 71 73  1  0  0  0
 71146  1  0  0  0
 72 75  1  0  0  0
 72 82  1  0  0  0
 73 83  2  0  0  0
 73 85  1  0  0  0
 74 81  1  0  0  0
 74 82  2  0  0  0
 74 83  1  0  0  0
 75147  1  0  0  0
 75148  1  0  0  0
 75149  1  0  0  0
 76150  1  0  0  0
 76151  1  0  0  0
 76152  1  0  0  0
 76 81  1  0  0  0
 77 79  1  0  0  0
 77 80  1  0  0  0
 77153  1  0  0  0
 77154  1  0  0  0
 78 81  1  0  0  0
 78 84  1  0  0  0
 78155  1  0  0  0
 78156  1  0  0  0
 79157  1  0  0  0
 79158  1  0  0  0
 80 85  1  0  0  0
 80159  1  0  0  0
 80160  1  0  0  0
 81 86  1  0  0  0
 84161  1  0  0  0
M  ISO  4   1 100  68 101  79 101  84 100
M  END
> <chiral flag>
0

> <version>
0

> <s_m_source_file>
/data/baiqing/PycharmProjects/Reinvent-master-3.2/result/LINK_invent/BTK/process_docking_weight1_custom_sum_contain_oxygen_bond_distance_aromatic_linkinvent_7_9_3/rearranged_h_0070.sdf

> <i_m_source_file_index>
80

> <r_mmod_Potential_Energy-OPLS-2005>
-452.145111083984

> <r_mmod_Stretch_Energy-OPLS-2005>
42.0943222045898

> <r_mmod_Bend_Energy-OPLS-2005>
107.65315246582

> <r_mmod_Torsional_Energy-OPLS-2005>
241.306167602539

> <r_mmod_Improper_Torsional_Energy-OPLS-2005>
4.16658735275269

> <r_mmod_Van_der_Waal_Energy-OPLS-2005>
179.169845581055

> <r_mmod_Electrostatic_Energy-OPLS-2005>
-810.734802246094

> <r_mmod_Solvation_Energy-OPLS-2005>
-229.752380371094

> <b_mmod_Minimization_Converged-OPLS-2005>
0

> <r_mmod_RMS_Derivative-OPLS-2005>
3.35837149620056

$$$$
81
                    3D
 Structure written by MMmdl.
160168  0  0  1  0            999 V2000
  -30.6785  -14.6380   20.4396 C   0  0  0  0  0  0
  -30.4276  -12.3672   19.4697 C   0  0  0  0  0  0
  -29.5159  -12.4908   18.2300 C   0  0  0  0  0  0
  -28.0328  -12.3485   18.6313 C   0  0  0  0  0  0
  -27.6561  -13.2266   19.8551 C   0  0  2  0  0  0
  -28.7085  -13.1169   20.9872 C   0  0  0  0  0  0
  -25.2589  -13.8169   20.5699 C   0  0  0  0  0  0
  -24.1873  -13.0439   20.9182 C   0  0  0  0  0  0
  -24.6446  -11.6898   20.8715 C   0  0  0  0  0  0
  -23.9094  -10.4279   21.0379 C   0  0  0  0  0  0
  -24.3623   -9.4195   21.9174 C   0  0  0  0  0  0
  -23.6300   -8.2240   22.0756 C   0  0  0  0  0  0
  -22.4286   -8.0276   21.3553 C   0  0  0  0  0  0
  -21.9907   -9.0250   20.4666 C   0  0  0  0  0  0
  -22.7238  -10.2128   20.3058 C   0  0  0  0  0  0
  -21.6855   -6.0728   22.5281 C   0  0  0  0  0  0
  -21.4020   -6.5635   23.8220 C   0  0  0  0  0  0
  -21.3663   -5.6785   24.9180 C   0  0  0  0  0  0
  -21.6042   -4.3052   24.7223 C   0  0  0  0  0  0
  -21.8816   -3.8146   23.4347 C   0  0  0  0  0  0
  -21.9207   -4.6956   22.3403 C   0  0  0  0  0  0
  -22.7894  -13.5221   21.1846 C   0  0  0  0  0  0
  -22.1673   -4.2139   21.0983 F   0  0  0  0  0  0
  -21.5630   -3.4537   25.7738 F   0  0  0  0  0  0
  -30.0266  -13.4275   20.4131 N   0  0  0  0  0  0
  -26.3037  -12.9393   20.3289 N   0  0  0  0  0  0
  -25.9397  -11.6532   20.5746 N   0  0  0  0  0  0
  -22.0541  -12.8234   22.0389 N   0  0  0  0  0  0
  -25.4271  -15.1907   20.4084 N   0  0  0  0  0  0
  -31.8519  -14.7454   20.0922 O   0  0  0  0  0  0
  -21.6668   -6.8870   21.4238 O   0  0  0  0  0  0
  -22.3583  -14.5534   20.6670 O   0  0  0  0  0  0
  -24.6287  -31.8563   23.1994 C   0  0  0  0  0  0
  -25.9161  -32.4753   23.8291 C   0  0  1  0  0  0
  -27.2273  -27.2922   20.0604 C   0  0  0  0  0  0
  -25.6026  -33.8546   24.2267 N   0  0  0  0  0  0
  -23.4178  -30.4781   21.5487 C   0  0  2  0  0  0
  -24.8585  -28.9304   20.1023 C   0  0  0  0  0  0
  -22.7404  -29.4623   22.4993 C   0  0  0  0  0  0
  -18.0298  -28.1438   22.8480 C   0  0  0  0  0  0
  -24.1536  -36.7234   23.2619 C   0  0  0  0  0  0
  -25.9585  -30.7687   21.3722 C   0  0  0  0  0  0
  -26.0315  -29.3947   20.7089 C   0  0  0  0  0  0
  -27.2084  -28.5817   20.6909 C   0  0  0  0  0  0
  -26.0261  -26.8927   19.4371 C   0  0  0  0  0  0
  -24.8604  -27.6830   19.4641 C   0  0  0  0  0  0
  -23.6184  -29.8030   20.1655 C   0  0  0  0  0  0
  -25.4168  -36.3052   24.0318 C   0  0  1  0  0  0
  -20.5884  -28.3716   23.1317 C   0  0  2  0  0  0
  -20.6825  -26.9473   22.5411 C   0  0  0  0  0  0
  -19.5815  -26.6458   21.5203 C   0  0  0  0  0  0
  -18.1985  -26.8006   22.1603 C   0  0  0  0  0  0
  -19.1534  -28.8893   23.2910 C   0  0  0  0  0  0
  -18.9457  -30.1520   23.8897 C   0  0  0  0  0  0
  -17.6450  -30.6628   24.0595 C   0  0  0  0  0  0
  -25.9106  -34.9414   23.5084 C   0  0  0  0  0  0
  -16.5347  -29.9118   23.6380 C   0  0  0  0  0  0
  -16.7284  -28.6563   23.0345 C   0  0  0  0  0  0
  -26.4547  -31.6552   25.0655 C   0  0  0  0  0  0
  -25.3747  -31.3637   26.1334 C   0  0  0  0  0  0
  -27.0362  -30.2978   24.6085 C   0  0  0  0  0  0
  -27.6163  -32.4179   25.7429 C   0  0  0  0  0  0
  -27.5613  -37.1783   24.8477 C   0  0  0  0  0  0
  -21.4137  -29.3038   22.3658 N   0  0  0  0  0  0
  -26.4338  -37.3755   23.9389 N   0  0  0  0  0  0
  -24.6885  -31.0502   22.0978 N   0  0  0  0  0  0
  -23.4057  -28.8203   23.3166 O   0  0  0  0  0  0
  -28.3647  -26.4591   20.1333 O   0  0  0  0  0  0
  -26.5637  -34.8896   22.4637 O   0  0  0  0  0  0
  -23.5471  -32.1416   23.7325 O   0  0  0  0  0  0
  -30.4822  -21.0806   20.6665 C   0  0  0  0  0  0
  -28.6821  -20.0342   19.5936 C   0  0  0  0  0  0
  -29.8716  -19.8399   20.3199 C   0  0  0  0  0  0
  -28.8012  -22.3893   19.6970 C   0  0  0  0  0  0
  -30.4523  -18.2034   22.2661 C   0  0  0  0  0  0
  -26.9968  -23.7813   20.8058 C   0  0  0  0  0  0
  -27.1030  -23.5515   18.2664 C   0  0  0  0  0  0
  -29.9835  -17.1099   19.9427 C   0  0  0  0  0  0
  -28.6485  -25.1841   19.3858 C   0  0  0  0  0  0
  -30.4565  -18.4184   20.7378 C   0  0  1  0  0  0
  -27.9307  -23.7395   19.5806 C   0  0  0  0  0  0
  -29.9444  -22.3161   20.3916 N   0  0  0  0  0  0
  -28.1753  -21.2618   19.3194 N   0  0  0  0  0  0
  -29.8993  -15.7505   20.6064 N   0  0  0  0  0  0
  -31.4798  -12.4306   19.1919 H   0  0  0  0  0  0
  -30.3077  -11.3846   19.9305 H   0  0  0  0  0  0
  -29.7735  -11.7281   17.4962 H   0  0  0  0  0  0
  -29.6802  -13.4546   17.7469 H   0  0  0  0  0  0
  -27.8562  -11.2964   18.8578 H   0  0  0  0  0  0
  -27.3884  -12.5900   17.7834 H   0  0  0  0  0  0
  -27.6613  -14.2573   19.4960 H   0  0  0  0  0  0
  -28.7113  -12.1120   21.4194 H   0  0  0  0  0  0
  -28.4737  -13.8018   21.8040 H   0  0  0  0  0  0
  -25.2747   -9.5708   22.4760 H   0  0  0  0  0  0
  -24.0009   -7.4657   22.7494 H   0  0  0  0  0  0
  -21.0819   -8.8746   19.8997 H   0  0  0  0  0  0
  -22.3650  -10.9657   19.6178 H   0  0  0  0  0  0
  -21.2004   -7.6149   23.9697 H   0  0  0  0  0  0
  -21.1493   -6.0539   25.9077 H   0  0  0  0  0  0
  -22.0599   -2.7607   23.2854 H   0  0  0  0  0  0
  -22.4128  -11.9861   22.4705 H   0  0  0  0  0  0
  -21.1180  -13.1305   22.2625 H   0  0  0  0  0  0
  -24.6442  -15.8310   20.4966 H   0  0  0  0  0  0
  -26.2661  -15.6302   20.0543 H   0  0  0  0  0  0
  -26.7171  -32.5383   23.0971 H   0  0  0  0  0  0
  -25.0275  -33.9687   25.0478 H   0  0  0  0  0  0
  -22.7247  -31.3100   21.4086 H   0  0  0  0  0  0
  -23.3819  -35.9556   23.3307 H   0  0  0  0  0  0
  -24.3613  -36.8805   22.2024 H   0  0  0  0  0  0
  -23.7272  -37.6445   23.6605 H   0  0  0  0  0  0
  -26.0878  -31.5264   20.5977 H   0  0  0  0  0  0
  -26.8342  -30.8149   22.0073 H   0  0  0  0  0  0
  -28.1069  -28.9305   21.1810 H   0  0  0  0  0  0
  -25.9336  -25.9438   18.9568 H   0  0  0  0  0  0
  -23.9576  -27.3198   18.9906 H   0  0  0  0  0  0
  -23.7095  -30.5725   19.3994 H   0  0  0  0  0  0
  -22.7375  -29.2190   19.8909 H   0  0  0  0  0  0
  -25.1351  -36.1925   25.0818 H   0  0  0  0  0  0
  -20.9978  -28.3353   24.1447 H   0  0  0  0  0  0
  -20.5835  -26.2317   23.3596 H   0  0  0  0  0  0
  -21.6698  -26.7648   22.1158 H   0  0  0  0  0  0
  -19.7011  -25.6374   21.1247 H   0  0  0  0  0  0
  -19.6806  -27.3260   20.6734 H   0  0  0  0  0  0
  -17.4289  -26.6774   21.3978 H   0  0  0  0  0  0
  -18.0400  -26.0152   22.8993 H   0  0  0  0  0  0
  -19.7918  -30.7380   24.2227 H   0  0  0  0  0  0
  -17.5003  -31.6311   24.5205 H   0  0  0  0  0  0
  -15.5351  -30.3001   23.7741 H   0  0  0  0  0  0
  -15.8698  -28.0892   22.7010 H   0  0  0  0  0  0
  -24.6077  -30.6833   25.7619 H   0  0  0  0  0  0
  -24.8742  -32.2737   26.4630 H   0  0  0  0  0  0
  -25.8037  -30.8943   27.0195 H   0  0  0  0  0  0
  -26.2921  -29.6766   24.1079 H   0  0  0  0  0  0
  -27.4006  -29.7194   25.4596 H   0  0  0  0  0  0
  -27.8838  -30.4252   23.9330 H   0  0  0  0  0  0
  -27.2926  -33.3534   26.1982 H   0  0  0  0  0  0
  -28.4028  -32.6565   25.0251 H   0  0  0  0  0  0
  -28.0779  -31.8268   26.5362 H   0  0  0  0  0  0
  -28.2639  -38.0071   24.7550 H   0  0  0  0  0  0
  -28.1101  -36.2608   24.6311 H   0  0  0  0  0  0
  -27.2305  -37.1421   25.8870 H   0  0  0  0  0  0
  -20.9344  -29.8581   21.6679 H   0  0  0  0  0  0
  -26.0235  -38.2841   24.1378 H   0  0  0  0  0  0
  -31.4282  -21.0921   21.1900 H   0  0  0  0  0  0
  -28.0916  -19.2031   19.2448 H   0  0  0  0  0  0
  -31.0445  -18.9721   22.7652 H   0  0  0  0  0  0
  -30.9262  -17.2603   22.5444 H   0  0  0  0  0  0
  -29.4470  -18.2052   22.6920 H   0  0  0  0  0  0
  -26.5037  -22.8183   20.9438 H   0  0  0  0  0  0
  -26.2225  -24.5373   20.7031 H   0  0  0  0  0  0
  -27.5472  -23.9964   21.7216 H   0  0  0  0  0  0
  -26.3340  -22.7819   18.3441 H   0  0  0  0  0  0
  -27.7648  -23.2437   17.4560 H   0  0  0  0  0  0
  -26.6061  -24.4380   17.8968 H   0  0  0  0  0  0
  -28.9563  -17.2724   19.6254 H   0  0  0  0  0  0
  -30.5493  -17.0258   19.0133 H   0  0  0  0  0  0
  -28.6682  -25.4467   18.3267 H   0  0  0  0  0  0
  -29.7032  -24.9993   19.5911 H   0  0  0  0  0  0
  -31.5163  -18.5127   20.4906 H   0  0  0  0  0  0
  -28.9704  -15.5088   20.9121 H   0  0  0  0  0  0
  1 25  1  0  0  0
  1 30  2  0  0  0
  1 84  1  0  0  0
  2  3  1  0  0  0
  2 25  1  0  0  0
  2 85  1  0  0  0
  2 86  1  0  0  0
  3  4  1  0  0  0
  3 87  1  0  0  0
  3 88  1  0  0  0
  4  5  1  0  0  0
  4 89  1  0  0  0
  4 90  1  0  0  0
  5  6  1  0  0  0
  5 26  1  0  0  0
  5 91  1  0  0  0
  6 25  1  0  0  0
  6 92  1  0  0  0
  6 93  1  0  0  0
  7  8  2  0  0  0
  7 26  1  0  0  0
  7 29  1  0  0  0
  8  9  1  0  0  0
  8 22  1  0  0  0
  9 10  1  0  0  0
  9 27  2  0  0  0
 10 11  2  0  0  0
 10 15  1  0  0  0
 11 12  1  0  0  0
 11 94  1  0  0  0
 12 13  2  0  0  0
 12 95  1  0  0  0
 13 14  1  0  0  0
 13 31  1  0  0  0
 14 15  2  0  0  0
 14 96  1  0  0  0
 15 97  1  0  0  0
 16 17  2  0  0  0
 16 21  1  0  0  0
 16 31  1  0  0  0
 17 18  1  0  0  0
 17 98  1  0  0  0
 18 19  2  0  0  0
 18 99  1  0  0  0
 19 20  1  0  0  0
 19 24  1  0  0  0
 20 21  2  0  0  0
 20100  1  0  0  0
 21 23  1  0  0  0
 22 28  1  0  0  0
 22 32  2  0  0  0
 26 27  1  0  0  0
 28101  1  0  0  0
 28102  1  0  0  0
 29103  1  0  0  0
 29104  1  0  0  0
 33 34  1  0  0  0
 33 66  1  0  0  0
 33 70  2  0  0  0
 34 36  1  0  0  0
 34 59  1  0  0  0
 34105  1  0  0  0
 35 44  2  0  0  0
 35 45  1  0  0  0
 35 68  1  0  0  0
 36 56  1  0  0  0
 36106  1  0  0  0
 37 39  1  0  0  0
 37 47  1  0  0  0
 37 66  1  0  0  0
 37107  1  0  0  0
 38 43  2  0  0  0
 38 46  1  0  0  0
 38 47  1  0  0  0
 39 64  1  0  0  0
 39 67  2  0  0  0
 40 52  1  0  0  0
 40 53  2  0  0  0
 40 58  1  0  0  0
 41108  1  0  0  0
 41109  1  0  0  0
 41110  1  0  0  0
 41 48  1  0  0  0
 42 43  1  0  0  0
 42 66  1  0  0  0
 42111  1  0  0  0
 42112  1  0  0  0
 43 44  1  0  0  0
 44113  1  0  0  0
 45 46  2  0  0  0
 45114  1  0  0  0
 46115  1  0  0  0
 47116  1  0  0  0
 47117  1  0  0  0
 48 56  1  0  0  0
 48 65  1  0  0  0
 48118  1  0  0  0
 49 50  1  0  0  0
 49 53  1  0  0  0
 49 64  1  0  0  0
 49119  1  0  0  0
 50 51  1  0  0  0
 50120  1  0  0  0
 50121  1  0  0  0
 51 52  1  0  0  0
 51122  1  0  0  0
 51123  1  0  0  0
 52124  1  0  0  0
 52125  1  0  0  0
 53 54  1  0  0  0
 54 55  2  0  0  0
 54126  1  0  0  0
 55 57  1  0  0  0
 55127  1  0  0  0
 56 69  2  0  0  0
 57 58  2  0  0  0
 57128  1  0  0  0
 58129  1  0  0  0
 59 60  1  0  0  0
 59 61  1  0  0  0
 59 62  1  0  0  0
 60130  1  0  0  0
 60131  1  0  0  0
 60132  1  0  0  0
 61133  1  0  0  0
 61134  1  0  0  0
 61135  1  0  0  0
 62136  1  0  0  0
 62137  1  0  0  0
 62138  1  0  0  0
 63 65  1  0  0  0
 63139  1  0  0  0
 63140  1  0  0  0
 63141  1  0  0  0
 64142  1  0  0  0
 65143  1  0  0  0
 68 79  1  0  0  0
 71 73  2  0  0  0
 71 82  1  0  0  0
 71144  1  0  0  0
 72 73  1  0  0  0
 72 83  2  0  0  0
 72145  1  0  0  0
 73 80  1  0  0  0
 74 81  1  0  0  0
 74 82  2  0  0  0
 74 83  1  0  0  0
 75146  1  0  0  0
 75147  1  0  0  0
 75148  1  0  0  0
 75 80  1  0  0  0
 76149  1  0  0  0
 76150  1  0  0  0
 76151  1  0  0  0
 76 81  1  0  0  0
 77 81  1  0  0  0
 77152  1  0  0  0
 77153  1  0  0  0
 77154  1  0  0  0
 78 80  1  0  0  0
 78 84  1  0  0  0
 78155  1  0  0  0
 78156  1  0  0  0
 79 81  1  0  0  0
 79157  1  0  0  0
 79158  1  0  0  0
 80159  1  0  0  0
 84160  1  0  0  0
M  ISO  4   1 100  68 101  79 101  84 100
M  END
> <chiral flag>
0

> <version>
0

> <s_m_source_file>
/data/baiqing/PycharmProjects/Reinvent-master-3.2/result/LINK_invent/BTK/process_docking_weight1_custom_sum_contain_oxygen_bond_distance_aromatic_linkinvent_7_9_3/rearranged_h_0070.sdf

> <i_m_source_file_index>
81

> <r_mmod_Potential_Energy-OPLS-2005>
-260.276000976562

> <r_mmod_Stretch_Energy-OPLS-2005>
108.604545593262

> <r_mmod_Bend_Energy-OPLS-2005>
221.535034179688

> <r_mmod_Torsional_Energy-OPLS-2005>
228.338928222656

> <r_mmod_Improper_Torsional_Energy-OPLS-2005>
10.147759437561

> <r_mmod_Van_der_Waal_Energy-OPLS-2005>
156.132965087891

> <r_mmod_Electrostatic_Energy-OPLS-2005>
-815.819458007812

> <r_mmod_Solvation_Energy-OPLS-2005>
-223.83088684082

> <b_mmod_Minimization_Converged-OPLS-2005>
0

> <r_mmod_RMS_Derivative-OPLS-2005>
6.22932577133179

$$$$
82
                    3D
 Structure written by MMmdl.
159167  0  0  1  0            999 V2000
  -30.6005  -14.7703   20.3820 C   0  0  0  0  0  0
  -30.4514  -12.4574   19.4662 C   0  0  0  0  0  0
  -29.5166  -12.4635   18.2357 C   0  0  0  0  0  0
  -28.0378  -12.3037   18.6474 C   0  0  0  0  0  0
  -27.6374  -13.2020   19.8469 C   0  0  2  0  0  0
  -28.6944  -13.1324   20.9641 C   0  0  0  0  0  0
  -25.2501  -13.8100   20.5675 C   0  0  0  0  0  0
  -24.1781  -13.0384   20.9227 C   0  0  0  0  0  0
  -24.6362  -11.6873   20.8783 C   0  0  0  0  0  0
  -23.9035  -10.4282   21.0471 C   0  0  0  0  0  0
  -24.3603   -9.4195   21.9226 C   0  0  0  0  0  0
  -23.6284   -8.2238   22.0772 C   0  0  0  0  0  0
  -22.4275   -8.0282   21.3565 C   0  0  0  0  0  0
  -21.9903   -9.0261   20.4658 C   0  0  0  0  0  0
  -22.7226  -10.2132   20.3094 C   0  0  0  0  0  0
  -21.6852   -6.0759   22.5309 C   0  0  0  0  0  0
  -21.4034   -6.5653   23.8237 C   0  0  0  0  0  0
  -21.3654   -5.6778   24.9180 C   0  0  0  0  0  0
  -21.6038   -4.3053   24.7208 C   0  0  0  0  0  0
  -21.8808   -3.8167   23.4327 C   0  0  0  0  0  0
  -21.9190   -4.6996   22.3389 C   0  0  0  0  0  0
  -22.7819  -13.5230   21.1847 C   0  0  0  0  0  0
  -22.1652   -4.2202   21.0966 F   0  0  0  0  0  0
  -21.5610   -3.4526   25.7720 F   0  0  0  0  0  0
  -29.9890  -13.5264   20.3826 N   0  0  0  0  0  0
  -26.2910  -12.9246   20.3288 N   0  0  0  0  0  0
  -25.9271  -11.6440   20.5778 N   0  0  0  0  0  0
  -22.0406  -12.8292   22.0397 N   0  0  0  0  0  0
  -25.4083  -15.1822   20.4055 N   0  0  0  0  0  0
  -31.8183  -14.7815   20.1960 O   0  0  0  0  0  0
  -21.6621   -6.8907   21.4272 O   0  0  0  0  0  0
  -22.3562  -14.5551   20.6658 O   0  0  0  0  0  0
  -24.6243  -31.8620   23.2015 C   0  0  0  0  0  0
  -25.9080  -32.4808   23.8370 C   0  0  1  0  0  0
  -27.2158  -27.3177   20.1384 C   0  0  0  0  0  0
  -25.5880  -33.8604   24.2284 N   0  0  0  0  0  0
  -23.4183  -30.4826   21.5467 C   0  0  2  0  0  0
  -24.8640  -28.9363   20.1120 C   0  0  0  0  0  0
  -22.7471  -29.4605   22.4956 C   0  0  0  0  0  0
  -18.0283  -28.1371   22.8490 C   0  0  0  0  0  0
  -24.1475  -36.7324   23.2639 C   0  0  0  0  0  0
  -25.9573  -30.7962   21.3658 C   0  0  0  0  0  0
  -26.0331  -29.4207   20.7158 C   0  0  0  0  0  0
  -27.2153  -28.6229   20.7190 C   0  0  0  0  0  0
  -26.0316  -26.8887   19.5050 C   0  0  0  0  0  0
  -24.8642  -27.6751   19.4968 C   0  0  0  0  0  0
  -23.6329  -29.8184   20.1607 C   0  0  0  0  0  0
  -25.4101  -36.3101   24.0331 C   0  0  1  0  0  0
  -20.5878  -28.3657   23.1303 C   0  0  2  0  0  0
  -20.6761  -26.9381   22.5420 C   0  0  0  0  0  0
  -19.5729  -26.6365   21.5226 C   0  0  0  0  0  0
  -18.1911  -26.7914   22.1638 C   0  0  0  0  0  0
  -19.1530  -28.8835   23.2889 C   0  0  0  0  0  0
  -18.9463  -30.1450   23.8896 C   0  0  0  0  0  0
  -17.6463  -30.6573   24.0563 C   0  0  0  0  0  0
  -25.9035  -34.9470   23.5115 C   0  0  0  0  0  0
  -16.5357  -29.9080   23.6316 C   0  0  0  0  0  0
  -16.7276  -28.6495   23.0337 C   0  0  0  0  0  0
  -26.4444  -31.6620   25.0745 C   0  0  0  0  0  0
  -25.3693  -31.3768   26.1489 C   0  0  0  0  0  0
  -27.0269  -30.3051   24.6164 C   0  0  0  0  0  0
  -27.5989  -32.4359   25.7533 C   0  0  0  0  0  0
  -27.5588  -37.1802   24.8449 C   0  0  0  0  0  0
  -21.4183  -29.3031   22.3717 N   0  0  0  0  0  0
  -26.4268  -37.3814   23.9426 N   0  0  0  0  0  0
  -24.6867  -31.0625   22.0963 N   0  0  0  0  0  0
  -23.4197  -28.8134   23.3010 O   0  0  0  0  0  0
  -28.3186  -26.4524   20.1681 O   0  0  0  0  0  0
  -26.5629  -34.8938   22.4693 O   0  0  0  0  0  0
  -23.5404  -32.1412   23.7342 O   0  0  0  0  0  0
  -29.8614  -20.0732   21.1793 C   0  0  0  0  0  0
  -29.9290  -19.0047   20.2930 C   0  0  0  0  0  0
  -31.8130  -17.6953   19.3098 C   0  0  0  0  0  0
  -28.9817  -16.2747   19.0070 C   0  0  0  0  0  0
  -28.8641  -16.2929   21.5517 C   0  0  0  0  0  0
  -28.9094  -23.8310   20.2101 C   0  0  0  0  0  0
  -28.7253  -22.4757   21.0426 C   0  0  0  0  0  0
  -28.0919  -25.0976   20.7369 C   0  0  0  0  0  0
  -30.6735  -17.6043   20.3608 C   0  0  2  0  0  0
  -29.8110  -16.2072   20.3278 C   0  0  0  0  0  0
  -29.3046  -19.4878   19.1305 N   0  0  0  0  0  0
  -28.8743  -20.7155   19.2826 N   0  0  0  0  0  0
  -29.2180  -21.1436   20.5219 N   0  0  0  0  0  0
  -31.4782  -12.6065   19.1335 H   0  0  0  0  0  0
  -30.4503  -11.4853   19.9601 H   0  0  0  0  0  0
  -29.7960  -11.6577   17.5543 H   0  0  0  0  0  0
  -29.6532  -13.3864   17.6718 H   0  0  0  0  0  0
  -27.8893  -11.2568   18.9135 H   0  0  0  0  0  0
  -27.3825  -12.4916   17.7976 H   0  0  0  0  0  0
  -27.6024  -14.2122   19.4686 H   0  0  0  0  0  0
  -28.7505  -12.1139   21.3527 H   0  0  0  0  0  0
  -28.4162  -13.7409   21.8190 H   0  0  0  0  0  0
  -25.2755   -9.5680   22.4783 H   0  0  0  0  0  0
  -24.0004   -7.4629   22.7482 H   0  0  0  0  0  0
  -21.0841   -8.8807   19.8939 H   0  0  0  0  0  0
  -22.3743  -10.9694   19.6200 H   0  0  0  0  0  0
  -21.2066   -7.6172   23.9794 H   0  0  0  0  0  0
  -21.1471   -6.0474   25.9079 H   0  0  0  0  0  0
  -22.0601   -2.7642   23.2789 H   0  0  0  0  0  0
  -22.3969  -11.9975   22.4870 H   0  0  0  0  0  0
  -21.1045  -13.1415   22.2559 H   0  0  0  0  0  0
  -24.6299  -15.8184   20.5304 H   0  0  0  0  0  0
  -26.2512  -15.6503   20.1013 H   0  0  0  0  0  0
  -26.7163  -32.5472   23.1140 H   0  0  0  0  0  0
  -24.9977  -33.9762   25.0390 H   0  0  0  0  0  0
  -22.7105  -31.3012   21.4044 H   0  0  0  0  0  0
  -23.3739  -35.9651   23.3256 H   0  0  0  0  0  0
  -24.3586  -36.8996   22.2065 H   0  0  0  0  0  0
  -23.7206  -37.6503   23.6696 H   0  0  0  0  0  0
  -26.0746  -31.5529   20.5882 H   0  0  0  0  0  0
  -26.8440  -30.8578   21.9848 H   0  0  0  0  0  0
  -28.1110  -28.9890   21.2009 H   0  0  0  0  0  0
  -25.9968  -25.9224   19.0229 H   0  0  0  0  0  0
  -23.9693  -27.2944   19.0228 H   0  0  0  0  0  0
  -23.7556  -30.5974   19.4069 H   0  0  0  0  0  0
  -22.7509  -29.2522   19.8560 H   0  0  0  0  0  0
  -25.1263  -36.1964   25.0823 H   0  0  0  0  0  0
  -20.9985  -28.3224   24.1418 H   0  0  0  0  0  0
  -20.5637  -26.2276   23.3622 H   0  0  0  0  0  0
  -21.6630  -26.7382   22.1231 H   0  0  0  0  0  0
  -19.6876  -25.6274   21.1253 H   0  0  0  0  0  0
  -19.6662  -27.3178   20.6757 H   0  0  0  0  0  0
  -17.4185  -26.6672   21.4042 H   0  0  0  0  0  0
  -18.0290  -26.0061   22.9031 H   0  0  0  0  0  0
  -19.7941  -30.7264   24.2254 H   0  0  0  0  0  0
  -17.5016  -31.6246   24.5166 H   0  0  0  0  0  0
  -15.5351  -30.2982   23.7630 H   0  0  0  0  0  0
  -15.8679  -28.0826   22.7032 H   0  0  0  0  0  0
  -24.5813  -30.7174   25.7832 H   0  0  0  0  0  0
  -24.8948  -32.2948   26.4973 H   0  0  0  0  0  0
  -25.8028  -30.8899   27.0236 H   0  0  0  0  0  0
  -26.2843  -29.6850   24.1133 H   0  0  0  0  0  0
  -27.3917  -29.7255   25.4650 H   0  0  0  0  0  0
  -27.8721  -30.4352   23.9405 H   0  0  0  0  0  0
  -27.2564  -33.3629   26.2151 H   0  0  0  0  0  0
  -28.3793  -32.6989   25.0379 H   0  0  0  0  0  0
  -28.0667  -31.8479   26.5439 H   0  0  0  0  0  0
  -28.2549  -38.0153   24.7566 H   0  0  0  0  0  0
  -28.1132  -36.2690   24.6157 H   0  0  0  0  0  0
  -27.2330  -37.1315   25.8854 H   0  0  0  0  0  0
  -20.9355  -29.8816   21.6994 H   0  0  0  0  0  0
  -26.0142  -38.2873   24.1483 H   0  0  0  0  0  0
  -30.2210  -20.1673   22.1972 H   0  0  0  0  0  0
  -32.4178  -18.5878   19.4780 H   0  0  0  0  0  0
  -31.4145  -17.7813   18.3009 H   0  0  0  0  0  0
  -32.5079  -16.8608   19.3157 H   0  0  0  0  0  0
  -27.9230  -16.4620   19.1838 H   0  0  0  0  0  0
  -29.0621  -15.3784   18.3989 H   0  0  0  0  0  0
  -29.3066  -17.0679   18.3363 H   0  0  0  0  0  0
  -29.2753  -15.7923   22.4279 H   0  0  0  0  0  0
  -27.8979  -15.8458   21.3424 H   0  0  0  0  0  0
  -28.6589  -17.3184   21.8578 H   0  0  0  0  0  0
  -28.6320  -23.6503   19.1725 H   0  0  0  0  0  0
  -29.9664  -24.0929   20.2062 H   0  0  0  0  0  0
  -27.6570  -22.3495   21.2184 H   0  0  0  0  0  0
  -29.1628  -22.6303   22.0294 H   0  0  0  0  0  0
  -28.2904  -25.1892   21.8055 H   0  0  0  0  0  0
  -27.0382  -24.8256   20.6824 H   0  0  0  0  0  0
  -31.1885  -17.5780   21.3218 H   0  0  0  0  0  0
  1 25  1  0  0  0
  1 30  2  0  0  0
  1 80  1  0  0  0
  2  3  1  0  0  0
  2 25  1  0  0  0
  2 84  1  0  0  0
  2 85  1  0  0  0
  3  4  1  0  0  0
  3 86  1  0  0  0
  3 87  1  0  0  0
  4  5  1  0  0  0
  4 88  1  0  0  0
  4 89  1  0  0  0
  5  6  1  0  0  0
  5 26  1  0  0  0
  5 90  1  0  0  0
  6 25  1  0  0  0
  6 91  1  0  0  0
  6 92  1  0  0  0
  7  8  2  0  0  0
  7 26  1  0  0  0
  7 29  1  0  0  0
  8  9  1  0  0  0
  8 22  1  0  0  0
  9 10  1  0  0  0
  9 27  2  0  0  0
 10 11  2  0  0  0
 10 15  1  0  0  0
 11 12  1  0  0  0
 11 93  1  0  0  0
 12 13  2  0  0  0
 12 94  1  0  0  0
 13 14  1  0  0  0
 13 31  1  0  0  0
 14 15  2  0  0  0
 14 95  1  0  0  0
 15 96  1  0  0  0
 16 17  2  0  0  0
 16 21  1  0  0  0
 16 31  1  0  0  0
 17 18  1  0  0  0
 17 97  1  0  0  0
 18 19  2  0  0  0
 18 98  1  0  0  0
 19 20  1  0  0  0
 19 24  1  0  0  0
 20 21  2  0  0  0
 20 99  1  0  0  0
 21 23  1  0  0  0
 22 28  1  0  0  0
 22 32  2  0  0  0
 26 27  1  0  0  0
 28100  1  0  0  0
 28101  1  0  0  0
 29102  1  0  0  0
 29103  1  0  0  0
 33 34  1  0  0  0
 33 66  1  0  0  0
 33 70  2  0  0  0
 34 36  1  0  0  0
 34 59  1  0  0  0
 34104  1  0  0  0
 35 44  2  0  0  0
 35 45  1  0  0  0
 35 68  1  0  0  0
 36 56  1  0  0  0
 36105  1  0  0  0
 37 39  1  0  0  0
 37 47  1  0  0  0
 37 66  1  0  0  0
 37106  1  0  0  0
 38 43  2  0  0  0
 38 46  1  0  0  0
 38 47  1  0  0  0
 39 64  1  0  0  0
 39 67  2  0  0  0
 40 52  1  0  0  0
 40 53  2  0  0  0
 40 58  1  0  0  0
 41107  1  0  0  0
 41108  1  0  0  0
 41109  1  0  0  0
 41 48  1  0  0  0
 42 43  1  0  0  0
 42 66  1  0  0  0
 42110  1  0  0  0
 42111  1  0  0  0
 43 44  1  0  0  0
 44112  1  0  0  0
 45 46  2  0  0  0
 45113  1  0  0  0
 46114  1  0  0  0
 47115  1  0  0  0
 47116  1  0  0  0
 48 56  1  0  0  0
 48 65  1  0  0  0
 48117  1  0  0  0
 49 50  1  0  0  0
 49 53  1  0  0  0
 49 64  1  0  0  0
 49118  1  0  0  0
 50 51  1  0  0  0
 50119  1  0  0  0
 50120  1  0  0  0
 51 52  1  0  0  0
 51121  1  0  0  0
 51122  1  0  0  0
 52123  1  0  0  0
 52124  1  0  0  0
 53 54  1  0  0  0
 54 55  2  0  0  0
 54125  1  0  0  0
 55 57  1  0  0  0
 55126  1  0  0  0
 56 69  2  0  0  0
 57 58  2  0  0  0
 57127  1  0  0  0
 58128  1  0  0  0
 59 60  1  0  0  0
 59 61  1  0  0  0
 59 62  1  0  0  0
 60129  1  0  0  0
 60130  1  0  0  0
 60131  1  0  0  0
 61132  1  0  0  0
 61133  1  0  0  0
 61134  1  0  0  0
 62135  1  0  0  0
 62136  1  0  0  0
 62137  1  0  0  0
 63 65  1  0  0  0
 63138  1  0  0  0
 63139  1  0  0  0
 63140  1  0  0  0
 64141  1  0  0  0
 65142  1  0  0  0
 68 78  1  0  0  0
 71 72  2  0  0  0
 71 83  1  0  0  0
 71143  1  0  0  0
 72 79  1  0  0  0
 72 81  1  0  0  0
 73144  1  0  0  0
 73145  1  0  0  0
 73146  1  0  0  0
 73 79  1  0  0  0
 74147  1  0  0  0
 74148  1  0  0  0
 74149  1  0  0  0
 74 80  1  0  0  0
 75 80  1  0  0  0
 75150  1  0  0  0
 75151  1  0  0  0
 75152  1  0  0  0
 76 77  1  0  0  0
 76 78  1  0  0  0
 76153  1  0  0  0
 76154  1  0  0  0
 77 83  1  0  0  0
 77155  1  0  0  0
 77156  1  0  0  0
 78157  1  0  0  0
 78158  1  0  0  0
 79 80  1  0  0  0
 79159  1  0  0  0
 81 82  2  0  0  0
 82 83  1  0  0  0
M  ISO  4   1 100  68 101  78 101  80 100
M  END
> <chiral flag>
0

> <version>
0

> <s_m_source_file>
/data/baiqing/PycharmProjects/Reinvent-master-3.2/result/LINK_invent/BTK/process_docking_weight1_custom_sum_contain_oxygen_bond_distance_aromatic_linkinvent_7_9_3/rearranged_h_0070.sdf

> <i_m_source_file_index>
82

> <r_mmod_Potential_Energy-OPLS-2005>
200.454406738281

> <r_mmod_Stretch_Energy-OPLS-2005>
114.498458862305

> <r_mmod_Bend_Energy-OPLS-2005>
171.551712036133

> <r_mmod_Torsional_Energy-OPLS-2005>
231.354278564453

> <r_mmod_Improper_Torsional_Energy-OPLS-2005>
7.00473737716675

> <r_mmod_Van_der_Waal_Energy-OPLS-2005>
135.874496459961

> <r_mmod_Electrostatic_Energy-OPLS-2005>
-340.588531494141

> <r_mmod_Solvation_Energy-OPLS-2005>
-197.998992919922

> <b_mmod_Minimization_Converged-OPLS-2005>
0

> <r_mmod_RMS_Derivative-OPLS-2005>
3.96336936950684

$$$$
83
                    3D
 Structure written by MMmdl.
165173  0  0  1  0            999 V2000
  -30.6821  -14.5772   20.6504 C   0  0  0  0  0  0
  -30.4331  -12.3983   19.4434 C   0  0  0  0  0  0
  -29.5091  -12.5402   18.2165 C   0  0  0  0  0  0
  -28.0353  -12.3552   18.6244 C   0  0  0  0  0  0
  -27.6584  -13.2097   19.8616 C   0  0  2  0  0  0
  -28.6919  -13.0348   20.9939 C   0  0  0  0  0  0
  -25.2616  -13.8165   20.5649 C   0  0  0  0  0  0
  -24.1866  -13.0415   20.9150 C   0  0  0  0  0  0
  -24.6427  -11.6883   20.8694 C   0  0  0  0  0  0
  -23.9077  -10.4276   21.0376 C   0  0  0  0  0  0
  -24.3656   -9.4192   21.9141 C   0  0  0  0  0  0
  -23.6328   -8.2226   22.0729 C   0  0  0  0  0  0
  -22.4300   -8.0264   21.3532 C   0  0  0  0  0  0
  -21.9925   -9.0230   20.4629 C   0  0  0  0  0  0
  -22.7256  -10.2109   20.3020 C   0  0  0  0  0  0
  -21.6852   -6.0741   22.5271 C   0  0  0  0  0  0
  -21.4014   -6.5642   23.8206 C   0  0  0  0  0  0
  -21.3656   -5.6796   24.9173 C   0  0  0  0  0  0
  -21.6048   -4.3061   24.7226 C   0  0  0  0  0  0
  -21.8823   -3.8149   23.4344 C   0  0  0  0  0  0
  -21.9203   -4.6973   22.3396 C   0  0  0  0  0  0
  -22.7894  -13.5216   21.1835 C   0  0  0  0  0  0
  -22.1666   -4.2142   21.0983 F   0  0  0  0  0  0
  -21.5636   -3.4545   25.7743 F   0  0  0  0  0  0
  -30.0129  -13.3925   20.4585 N   0  0  0  0  0  0
  -26.3010  -12.9308   20.3249 N   0  0  0  0  0  0
  -25.9344  -11.6464   20.5661 N   0  0  0  0  0  0
  -22.0589  -12.8150   22.0407 N   0  0  0  0  0  0
  -25.4386  -15.1884   20.4205 N   0  0  0  0  0  0
  -31.7197  -14.7935   20.0114 O   0  0  0  0  0  0
  -21.6642   -6.8883   21.4229 O   0  0  0  0  0  0
  -22.3529  -14.5503   20.6701 O   0  0  0  0  0  0
  -24.6231  -31.8563   23.2068 C   0  0  0  0  0  0
  -25.9080  -32.4770   23.8389 C   0  0  1  0  0  0
  -27.2291  -27.3307   20.1131 C   0  0  0  0  0  0
  -25.5889  -33.8579   24.2309 N   0  0  0  0  0  0
  -23.4169  -30.4817   21.5464 C   0  0  2  0  0  0
  -24.8631  -28.9355   20.1123 C   0  0  0  0  0  0
  -22.7421  -29.4618   22.4929 C   0  0  0  0  0  0
  -18.0289  -28.1393   22.8483 C   0  0  0  0  0  0
  -24.1470  -36.7315   23.2645 C   0  0  0  0  0  0
  -25.9562  -30.7936   21.3733 C   0  0  0  0  0  0
  -26.0292  -29.4204   20.7181 C   0  0  0  0  0  0
  -27.2105  -28.6254   20.7127 C   0  0  0  0  0  0
  -26.0368  -26.8827   19.5017 C   0  0  0  0  0  0
  -24.8684  -27.6714   19.4987 C   0  0  0  0  0  0
  -23.6308  -29.8164   20.1610 C   0  0  0  0  0  0
  -25.4095  -36.3093   24.0336 C   0  0  1  0  0  0
  -20.5859  -28.3711   23.1334 C   0  0  2  0  0  0
  -20.6759  -26.9410   22.5482 C   0  0  0  0  0  0
  -19.5759  -26.6379   21.5264 C   0  0  0  0  0  0
  -18.1929  -26.7922   22.1649 C   0  0  0  0  0  0
  -19.1528  -28.8857   23.2898 C   0  0  0  0  0  0
  -18.9447  -30.1467   23.8901 C   0  0  0  0  0  0
  -17.6440  -30.6605   24.0523 C   0  0  0  0  0  0
  -25.9020  -34.9446   23.5132 C   0  0  0  0  0  0
  -16.5343  -29.9097   23.6292 C   0  0  0  0  0  0
  -16.7268  -28.6486   23.0364 C   0  0  0  0  0  0
  -26.4485  -31.6598   25.0774 C   0  0  0  0  0  0
  -25.3756  -31.3715   26.1536 C   0  0  0  0  0  0
  -27.0342  -30.3029   24.6234 C   0  0  0  0  0  0
  -27.6032  -32.4354   25.7540 C   0  0  0  0  0  0
  -27.5572  -37.1824   24.8458 C   0  0  0  0  0  0
  -21.4125  -29.3108   22.3755 N   0  0  0  0  0  0
  -26.4286  -37.3785   23.9399 N   0  0  0  0  0  0
  -24.6846  -31.0598   22.0998 N   0  0  0  0  0  0
  -23.4146  -28.8118   23.2952 O   0  0  0  0  0  0
  -28.3769  -26.5303   20.1824 O   0  0  0  0  0  0
  -26.5602  -34.8885   22.4697 O   0  0  0  0  0  0
  -23.5390  -32.1336   23.7393 O   0  0  0  0  0  0
  -28.5958  -18.8140   21.2648 C   0  0  0  0  0  0
  -28.2147  -16.9952   22.2750 C   0  0  0  0  0  0
  -27.6669  -16.0807   23.3250 C   0  0  0  0  0  0
  -31.5560  -16.1617   22.5000 C   0  0  0  0  0  0
  -27.3782  -20.1504   19.4981 C   0  0  0  0  0  0
  -27.4020  -20.9585   21.8784 C   0  0  0  0  0  0
  -29.3172  -22.8994   20.6785 C   0  0  0  0  0  0
  -28.1496  -23.8388   20.1359 C   0  0  0  0  0  0
  -29.4227  -21.2998   20.4619 C   0  0  0  0  0  0
  -28.5071  -25.2459   19.4743 C   0  0  0  0  0  0
  -30.3023  -15.6254   21.7787 C   0  0  2  0  0  0
  -28.2436  -20.2743   20.7673 C   0  0  0  0  0  0
  -27.6751  -18.1829   22.0556 N   0  0  0  0  0  0
  -29.5821  -17.9645   20.8653 N   0  0  0  0  0  0
  -29.3336  -16.7714   21.5659 N   0  0  0  0  0  0
  -31.4782  -12.5116   19.1492 H   0  0  0  0  0  0
  -30.3666  -11.3902   19.8528 H   0  0  0  0  0  0
  -29.7835  -11.8115   17.4528 H   0  0  0  0  0  0
  -29.6455  -13.5246   17.7665 H   0  0  0  0  0  0
  -27.8846  -11.2991   18.8413 H   0  0  0  0  0  0
  -27.3790  -12.5918   17.7847 H   0  0  0  0  0  0
  -27.6946  -14.2522   19.5465 H   0  0  0  0  0  0
  -28.6987  -12.0015   21.3452 H   0  0  0  0  0  0
  -28.4043  -13.6296   21.8529 H   0  0  0  0  0  0
  -25.2828   -9.5640   22.4690 H   0  0  0  0  0  0
  -24.0031   -7.4615   22.7446 H   0  0  0  0  0  0
  -21.0851   -8.8756   19.8945 H   0  0  0  0  0  0
  -22.3728  -10.9640   19.6111 H   0  0  0  0  0  0
  -21.1992   -7.6149   23.9710 H   0  0  0  0  0  0
  -21.1479   -6.0522   25.9074 H   0  0  0  0  0  0
  -22.0618   -2.7605   23.2843 H   0  0  0  0  0  0
  -22.4266  -11.9785   22.4684 H   0  0  0  0  0  0
  -21.1176  -13.1053   22.2663 H   0  0  0  0  0  0
  -24.6864  -15.8530   20.5694 H   0  0  0  0  0  0
  -26.3095  -15.6307   20.1521 H   0  0  0  0  0  0
  -26.7153  -32.5441   23.1128 H   0  0  0  0  0  0
  -24.9966  -33.9711   25.0416 H   0  0  0  0  0  0
  -22.7128  -31.3064   21.4037 H   0  0  0  0  0  0
  -23.3723  -35.9667   23.3321 H   0  0  0  0  0  0
  -24.3572  -36.8920   22.2062 H   0  0  0  0  0  0
  -23.7248  -37.6525   23.6660 H   0  0  0  0  0  0
  -26.0821  -31.5573   20.6042 H   0  0  0  0  0  0
  -26.8380  -30.8473   22.0010 H   0  0  0  0  0  0
  -28.1055  -28.9927   21.1951 H   0  0  0  0  0  0
  -25.9732  -25.9044   19.0518 H   0  0  0  0  0  0
  -23.9689  -27.2915   19.0333 H   0  0  0  0  0  0
  -23.7534  -30.5964   19.4097 H   0  0  0  0  0  0
  -22.7504  -29.2483   19.8544 H   0  0  0  0  0  0
  -25.1289  -36.1959   25.0847 H   0  0  0  0  0  0
  -20.9936  -28.3286   24.1458 H   0  0  0  0  0  0
  -21.6647  -26.7408   22.1287 H   0  0  0  0  0  0
  -20.5625  -26.2371   23.3723 H   0  0  0  0  0  0
  -19.6926  -25.6264   21.1358 H   0  0  0  0  0  0
  -19.6754  -27.3188   20.6786 H   0  0  0  0  0  0
  -17.4200  -26.6697   21.4037 H   0  0  0  0  0  0
  -18.0261  -26.0131   22.9102 H   0  0  0  0  0  0
  -19.7904  -30.7294   24.2296 H   0  0  0  0  0  0
  -17.4989  -31.6296   24.5107 H   0  0  0  0  0  0
  -15.5321  -30.2982   23.7606 H   0  0  0  0  0  0
  -15.8679  -28.0755   22.7108 H   0  0  0  0  0  0
  -24.5908  -30.7067   25.7904 H   0  0  0  0  0  0
  -24.8954  -32.2861   26.5024 H   0  0  0  0  0  0
  -25.8121  -30.8874   27.0286 H   0  0  0  0  0  0
  -26.2926  -29.6785   24.1217 H   0  0  0  0  0  0
  -27.3992  -29.7281   25.4754 H   0  0  0  0  0  0
  -27.8817  -30.4324   23.9501 H   0  0  0  0  0  0
  -27.2619  -33.3630   26.2154 H   0  0  0  0  0  0
  -28.3816  -32.6973   25.0367 H   0  0  0  0  0  0
  -28.0742  -31.8480   26.5430 H   0  0  0  0  0  0
  -28.2608  -38.0096   24.7484 H   0  0  0  0  0  0
  -28.1052  -36.2639   24.6317 H   0  0  0  0  0  0
  -27.2297  -37.1512   25.8859 H   0  0  0  0  0  0
  -20.9225  -29.9009   21.7171 H   0  0  0  0  0  0
  -26.0170  -38.2864   24.1399 H   0  0  0  0  0  0
  -27.2092  -15.1965   22.8849 H   0  0  0  0  0  0
  -26.8996  -16.5971   23.9047 H   0  0  0  0  0  0
  -28.4460  -15.7844   24.0287 H   0  0  0  0  0  0
  -32.0291  -16.9671   21.9388 H   0  0  0  0  0  0
  -31.2936  -16.5496   23.4831 H   0  0  0  0  0  0
  -32.2970  -15.3779   22.6621 H   0  0  0  0  0  0
  -26.4794  -19.5625   19.6855 H   0  0  0  0  0  0
  -27.9252  -19.6556   18.6964 H   0  0  0  0  0  0
  -27.0594  -21.1240   19.1291 H   0  0  0  0  0  0
  -27.9989  -21.1189   22.7745 H   0  0  0  0  0  0
  -26.5172  -20.3877   22.1596 H   0  0  0  0  0  0
  -27.0136  -21.9224   21.5656 H   0  0  0  0  0  0
  -29.4093  -23.0931   21.7485 H   0  0  0  0  0  0
  -30.2438  -23.3006   20.2650 H   0  0  0  0  0  0
  -27.4148  -24.0077   20.9229 H   0  0  0  0  0  0
  -27.6124  -23.2723   19.3799 H   0  0  0  0  0  0
  -30.2510  -20.9900   21.1026 H   0  0  0  0  0  0
  -29.7941  -21.1083   19.4550 H   0  0  0  0  0  0
  -27.9796  -25.3183   18.5239 H   0  0  0  0  0  0
  -29.5490  -25.2002   19.1637 H   0  0  0  0  0  0
  -29.8683  -14.9863   22.5434 H   0  0  0  0  0  0
  1 25  1  0  0  0
  1 30  2  0  0  0
  1 81  1  0  0  0
  2  3  1  0  0  0
  2 25  1  0  0  0
  2 86  1  0  0  0
  2 87  1  0  0  0
  3  4  1  0  0  0
  3 88  1  0  0  0
  3 89  1  0  0  0
  4  5  1  0  0  0
  4 90  1  0  0  0
  4 91  1  0  0  0
  5  6  1  0  0  0
  5 26  1  0  0  0
  5 92  1  0  0  0
  6 25  1  0  0  0
  6 93  1  0  0  0
  6 94  1  0  0  0
  7  8  2  0  0  0
  7 26  1  0  0  0
  7 29  1  0  0  0
  8  9  1  0  0  0
  8 22  1  0  0  0
  9 10  1  0  0  0
  9 27  2  0  0  0
 10 11  2  0  0  0
 10 15  1  0  0  0
 11 12  1  0  0  0
 11 95  1  0  0  0
 12 13  2  0  0  0
 12 96  1  0  0  0
 13 14  1  0  0  0
 13 31  1  0  0  0
 14 15  2  0  0  0
 14 97  1  0  0  0
 15 98  1  0  0  0
 16 17  2  0  0  0
 16 21  1  0  0  0
 16 31  1  0  0  0
 17 18  1  0  0  0
 17 99  1  0  0  0
 18 19  2  0  0  0
 18100  1  0  0  0
 19 20  1  0  0  0
 19 24  1  0  0  0
 20 21  2  0  0  0
 20101  1  0  0  0
 21 23  1  0  0  0
 22 28  1  0  0  0
 22 32  2  0  0  0
 26 27  1  0  0  0
 28102  1  0  0  0
 28103  1  0  0  0
 29104  1  0  0  0
 29105  1  0  0  0
 33 34  1  0  0  0
 33 66  1  0  0  0
 33 70  2  0  0  0
 34 36  1  0  0  0
 34 59  1  0  0  0
 34106  1  0  0  0
 35 44  2  0  0  0
 35 45  1  0  0  0
 35 68  1  0  0  0
 36 56  1  0  0  0
 36107  1  0  0  0
 37 39  1  0  0  0
 37 47  1  0  0  0
 37 66  1  0  0  0
 37108  1  0  0  0
 38 43  2  0  0  0
 38 46  1  0  0  0
 38 47  1  0  0  0
 39 64  1  0  0  0
 39 67  2  0  0  0
 40 52  1  0  0  0
 40 53  2  0  0  0
 40 58  1  0  0  0
 41109  1  0  0  0
 41110  1  0  0  0
 41111  1  0  0  0
 41 48  1  0  0  0
 42 43  1  0  0  0
 42 66  1  0  0  0
 42112  1  0  0  0
 42113  1  0  0  0
 43 44  1  0  0  0
 44114  1  0  0  0
 45 46  2  0  0  0
 45115  1  0  0  0
 46116  1  0  0  0
 47117  1  0  0  0
 47118  1  0  0  0
 48 56  1  0  0  0
 48 65  1  0  0  0
 48119  1  0  0  0
 49 50  1  0  0  0
 49 53  1  0  0  0
 49 64  1  0  0  0
 49120  1  0  0  0
 50 51  1  0  0  0
 50121  1  0  0  0
 50122  1  0  0  0
 51 52  1  0  0  0
 51123  1  0  0  0
 51124  1  0  0  0
 52125  1  0  0  0
 52126  1  0  0  0
 53 54  1  0  0  0
 54 55  2  0  0  0
 54127  1  0  0  0
 55 57  1  0  0  0
 55128  1  0  0  0
 56 69  2  0  0  0
 57 58  2  0  0  0
 57129  1  0  0  0
 58130  1  0  0  0
 59 60  1  0  0  0
 59 61  1  0  0  0
 59 62  1  0  0  0
 60131  1  0  0  0
 60132  1  0  0  0
 60133  1  0  0  0
 61134  1  0  0  0
 61135  1  0  0  0
 61136  1  0  0  0
 62137  1  0  0  0
 62138  1  0  0  0
 62139  1  0  0  0
 63 65  1  0  0  0
 63140  1  0  0  0
 63141  1  0  0  0
 63142  1  0  0  0
 64143  1  0  0  0
 65144  1  0  0  0
 68 80  1  0  0  0
 71 82  1  0  0  0
 71 83  1  0  0  0
 71 84  2  0  0  0
 72 73  1  0  0  0
 72 83  2  0  0  0
 72 85  1  0  0  0
 73145  1  0  0  0
 73146  1  0  0  0
 73147  1  0  0  0
 74148  1  0  0  0
 74149  1  0  0  0
 74150  1  0  0  0
 74 81  1  0  0  0
 75151  1  0  0  0
 75152  1  0  0  0
 75153  1  0  0  0
 75 82  1  0  0  0
 76 82  1  0  0  0
 76154  1  0  0  0
 76155  1  0  0  0
 76156  1  0  0  0
 77 78  1  0  0  0
 77 79  1  0  0  0
 77157  1  0  0  0
 77158  1  0  0  0
 78 80  1  0  0  0
 78159  1  0  0  0
 78160  1  0  0  0
 79 82  1  0  0  0
 79161  1  0  0  0
 79162  1  0  0  0
 80163  1  0  0  0
 80164  1  0  0  0
 81 85  1  0  0  0
 81165  1  0  0  0
 84 85  1  0  0  0
M  ISO  4   1 100  68 101  80 101  81 100
M  END
> <chiral flag>
0

> <version>
0

> <s_m_source_file>
/data/baiqing/PycharmProjects/Reinvent-master-3.2/result/LINK_invent/BTK/process_docking_weight1_custom_sum_contain_oxygen_bond_distance_aromatic_linkinvent_7_9_3/rearranged_h_0070.sdf

> <i_m_source_file_index>
83

> <r_mmod_Potential_Energy-OPLS-2005>
157.80403137207

> <r_mmod_Stretch_Energy-OPLS-2005>
99.8043212890625

> <r_mmod_Bend_Energy-OPLS-2005>
222.390029907227

> <r_mmod_Torsional_Energy-OPLS-2005>
209.469314575195

> <r_mmod_Improper_Torsional_Energy-OPLS-2005>
6.98506927490234

> <r_mmod_Van_der_Waal_Energy-OPLS-2005>
124.393798828125

> <r_mmod_Electrostatic_Energy-OPLS-2005>
-340.057006835938

> <r_mmod_Solvation_Energy-OPLS-2005>
-201.458068847656

> <b_mmod_Minimization_Converged-OPLS-2005>
0

> <r_mmod_RMS_Derivative-OPLS-2005>
4.71238136291504

$$$$
84
                    3D
 Structure written by MMmdl.
162170  0  0  1  0            999 V2000
  -30.5829  -14.8494   20.3332 C   0  0  0  0  0  0
  -30.4684  -12.4945   19.4799 C   0  0  0  0  0  0
  -29.5227  -12.4267   18.2507 C   0  0  0  0  0  0
  -28.0446  -12.2648   18.6738 C   0  0  0  0  0  0
  -27.6320  -13.1914   19.8482 C   0  0  2  0  0  0
  -28.7097  -13.1690   20.9594 C   0  0  0  0  0  0
  -25.2479  -13.8057   20.5715 C   0  0  0  0  0  0
  -24.1754  -13.0337   20.9267 C   0  0  0  0  0  0
  -24.6329  -11.6836   20.8827 C   0  0  0  0  0  0
  -23.8985  -10.4240   21.0416 C   0  0  0  0  0  0
  -24.3575   -9.4172   21.9179 C   0  0  0  0  0  0
  -23.6258   -8.2212   22.0772 C   0  0  0  0  0  0
  -22.4251   -8.0275   21.3541 C   0  0  0  0  0  0
  -21.9861   -9.0221   20.4640 C   0  0  0  0  0  0
  -22.7181  -10.2096   20.3037 C   0  0  0  0  0  0
  -21.6848   -6.0734   22.5272 C   0  0  0  0  0  0
  -21.3997   -6.5631   23.8206 C   0  0  0  0  0  0
  -21.3655   -5.6800   24.9165 C   0  0  0  0  0  0
  -21.6030   -4.3055   24.7223 C   0  0  0  0  0  0
  -21.8811   -3.8140   23.4345 C   0  0  0  0  0  0
  -21.9178   -4.6959   22.3398 C   0  0  0  0  0  0
  -22.7792  -13.5171   21.1918 C   0  0  0  0  0  0
  -22.1647   -4.2139   21.0979 F   0  0  0  0  0  0
  -21.5663   -3.4543   25.7736 F   0  0  0  0  0  0
  -30.0008  -13.5833   20.3693 N   0  0  0  0  0  0
  -26.2903  -12.9160   20.3417 N   0  0  0  0  0  0
  -25.9257  -11.6362   20.5896 N   0  0  0  0  0  0
  -22.0446  -12.8131   22.0472 N   0  0  0  0  0  0
  -25.4014  -15.1770   20.3986 N   0  0  0  0  0  0
  -31.7990  -14.9101   20.1249 O   0  0  0  0  0  0
  -21.6660   -6.8861   21.4229 O   0  0  0  0  0  0
  -22.3457  -14.5480   20.6807 O   0  0  0  0  0  0
  -24.6274  -31.8561   23.1972 C   0  0  0  0  0  0
  -25.9084  -32.4768   23.8343 C   0  0  1  0  0  0
  -27.2806  -27.3204   20.0931 C   0  0  0  0  0  0
  -25.5878  -33.8557   24.2279 N   0  0  0  0  0  0
  -23.4269  -30.4699   21.5435 C   0  0  2  0  0  0
  -24.8832  -28.9060   20.1300 C   0  0  0  0  0  0
  -22.7484  -29.4596   22.4973 C   0  0  0  0  0  0
  -18.0291  -28.1360   22.8484 C   0  0  0  0  0  0
  -24.1495  -36.7306   23.2644 C   0  0  0  0  0  0
  -25.9679  -30.7827   21.3715 C   0  0  0  0  0  0
  -26.0512  -29.4039   20.7196 C   0  0  0  0  0  0
  -27.2472  -28.6231   20.6859 C   0  0  0  0  0  0
  -26.0784  -26.8689   19.4962 C   0  0  0  0  0  0
  -24.8963  -27.6419   19.5199 C   0  0  0  0  0  0
  -23.6479  -29.7864   20.1680 C   0  0  0  0  0  0
  -25.4118  -36.3076   24.0337 C   0  0  1  0  0  0
  -20.5879  -28.3654   23.1279 C   0  0  2  0  0  0
  -20.6757  -26.9380   22.5400 C   0  0  0  0  0  0
  -19.5752  -26.6370   21.5186 C   0  0  0  0  0  0
  -18.1936  -26.7915   22.1622 C   0  0  0  0  0  0
  -19.1538  -28.8829   23.2876 C   0  0  0  0  0  0
  -18.9465  -30.1428   23.8893 C   0  0  0  0  0  0
  -17.6455  -30.6552   24.0539 C   0  0  0  0  0  0
  -25.9044  -34.9418   23.5132 C   0  0  0  0  0  0
  -16.5343  -29.9049   23.6297 C   0  0  0  0  0  0
  -16.7278  -28.6460   23.0346 C   0  0  0  0  0  0
  -26.4443  -31.6567   25.0697 C   0  0  0  0  0  0
  -25.3677  -31.3665   26.1417 C   0  0  0  0  0  0
  -27.0281  -30.3005   24.6139 C   0  0  0  0  0  0
  -27.6038  -32.4279   25.7457 C   0  0  0  0  0  0
  -27.5590  -37.1809   24.8475 C   0  0  0  0  0  0
  -21.4195  -29.3022   22.3704 N   0  0  0  0  0  0
  -26.4312  -37.3758   23.9393 N   0  0  0  0  0  0
  -24.6935  -31.0536   22.0946 N   0  0  0  0  0  0
  -23.4186  -28.8160   23.3073 O   0  0  0  0  0  0
  -28.4568  -26.5435   20.0565 O   0  0  0  0  0  0
  -26.5638  -34.8877   22.4711 O   0  0  0  0  0  0
  -23.5421  -32.1349   23.7298 O   0  0  0  0  0  0
  -29.6170  -18.8559   19.6987 C   0  0  0  0  0  0
  -30.4434  -19.9501   19.8925 C   0  0  0  0  0  0
  -29.0101  -16.1538   18.7973 C   0  0  0  0  0  0
  -28.6861  -16.3216   21.3545 C   0  0  0  0  0  0
  -30.1689  -24.3704   18.3794 C   0  0  0  0  0  0
  -30.8643  -24.9916   20.6965 C   0  0  0  0  0  0
  -30.3268  -21.4565   19.3971 C   0  0  0  0  0  0
  -29.8116  -22.6596   20.3456 C   0  0  0  0  0  0
  -28.4210  -25.0536   20.1144 C   0  0  0  0  0  0
  -29.7016  -16.2383   20.1913 C   0  0  0  0  0  0
  -29.7914  -24.2352   19.8746 C   0  0  0  0  0  0
  -31.5785  -19.3920   20.5121 N   0  0  0  0  0  0
  -31.4608  -18.0822   20.6818 N   0  0  0  0  0  0
  -30.2796  -17.6743   20.1406 N   0  0  0  0  0  0
  -30.4678  -11.5475   20.0172 H   0  0  0  0  0  0
  -31.5006  -12.6437   19.1534 H   0  0  0  0  0  0
  -29.8126  -11.5820   17.6260 H   0  0  0  0  0  0
  -29.6433  -13.3059   17.6193 H   0  0  0  0  0  0
  -27.9225  -11.2246   18.9823 H   0  0  0  0  0  0
  -27.3785  -12.3977   17.8217 H   0  0  0  0  0  0
  -27.5477  -14.1856   19.4427 H   0  0  0  0  0  0
  -28.4394  -13.7833   21.8135 H   0  0  0  0  0  0
  -28.7815  -12.1625   21.3702 H   0  0  0  0  0  0
  -25.2718   -9.5693   22.4738 H   0  0  0  0  0  0
  -23.9958   -7.4629   22.7508 H   0  0  0  0  0  0
  -21.0802   -8.8723   19.8961 H   0  0  0  0  0  0
  -22.3630  -10.9628   19.6157 H   0  0  0  0  0  0
  -21.1994   -7.6143   23.9674 H   0  0  0  0  0  0
  -21.1499   -6.0555   25.9056 H   0  0  0  0  0  0
  -22.0599   -2.7592   23.2853 H   0  0  0  0  0  0
  -22.4030  -11.9741   22.4781 H   0  0  0  0  0  0
  -21.1074  -13.1176   22.2712 H   0  0  0  0  0  0
  -24.6278  -15.8206   20.5294 H   0  0  0  0  0  0
  -26.2486  -15.6323   20.0905 H   0  0  0  0  0  0
  -26.7152  -32.5420   23.1109 H   0  0  0  0  0  0
  -24.9945  -33.9699   25.0368 H   0  0  0  0  0  0
  -22.7202  -31.2886   21.3873 H   0  0  0  0  0  0
  -23.3725  -35.9666   23.3333 H   0  0  0  0  0  0
  -24.3598  -36.8908   22.2066 H   0  0  0  0  0  0
  -23.7287  -37.6534   23.6665 H   0  0  0  0  0  0
  -26.0902  -31.5372   20.5934 H   0  0  0  0  0  0
  -26.8520  -30.8449   21.9945 H   0  0  0  0  0  0
  -28.1504  -29.0118   21.1320 H   0  0  0  0  0  0
  -26.0357  -25.9154   18.9893 H   0  0  0  0  0  0
  -24.0009  -27.2504   19.0571 H   0  0  0  0  0  0
  -23.7663  -30.5536   19.4033 H   0  0  0  0  0  0
  -22.7709  -29.2106   19.8712 H   0  0  0  0  0  0
  -25.1303  -36.1940   25.0840 H   0  0  0  0  0  0
  -20.9953  -28.3225   24.1403 H   0  0  0  0  0  0
  -20.5610  -26.2281   23.3596 H   0  0  0  0  0  0
  -21.6641  -26.7380   22.1223 H   0  0  0  0  0  0
  -19.6889  -25.6273   21.1224 H   0  0  0  0  0  0
  -19.6686  -27.3155   20.6685 H   0  0  0  0  0  0
  -17.4188  -26.6647   21.4030 H   0  0  0  0  0  0
  -18.0356  -26.0051   22.9021 H   0  0  0  0  0  0
  -19.7943  -30.7246   24.2277 H   0  0  0  0  0  0
  -17.5001  -31.6238   24.5146 H   0  0  0  0  0  0
  -15.5349  -30.2936   23.7602 H   0  0  0  0  0  0
  -15.8696  -28.0739   22.7088 H   0  0  0  0  0  0
  -24.5878  -30.7003   25.7732 H   0  0  0  0  0  0
  -24.8782  -32.2823   26.4821 H   0  0  0  0  0  0
  -25.7968  -30.8876   27.0229 H   0  0  0  0  0  0
  -27.8715  -30.4311   23.9342 H   0  0  0  0  0  0
  -27.3996  -29.7210   25.4607 H   0  0  0  0  0  0
  -26.2847  -29.6777   24.1152 H   0  0  0  0  0  0
  -27.2685  -33.3587   26.2044 H   0  0  0  0  0  0
  -28.3815  -32.6815   25.0246 H   0  0  0  0  0  0
  -28.0731  -31.8378   26.5344 H   0  0  0  0  0  0
  -28.2610  -38.0098   24.7446 H   0  0  0  0  0  0
  -28.1063  -36.2609   24.6371 H   0  0  0  0  0  0
  -27.2282  -37.1549   25.8871 H   0  0  0  0  0  0
  -20.9396  -29.8760   21.6919 H   0  0  0  0  0  0
  -26.0196  -38.2847   24.1311 H   0  0  0  0  0  0
  -28.6277  -18.8229   19.2602 H   0  0  0  0  0  0
  -28.9542  -15.1587   18.3840 H   0  0  0  0  0  0
  -28.0065  -16.5788   18.7852 H   0  0  0  0  0  0
  -29.5852  -16.6812   18.0385 H   0  0  0  0  0  0
  -27.8119  -15.7003   21.2052 H   0  0  0  0  0  0
  -29.1580  -16.0570   22.3052 H   0  0  0  0  0  0
  -28.2862  -17.3272   21.4813 H   0  0  0  0  0  0
  -31.2046  -24.0996   18.1816 H   0  0  0  0  0  0
  -30.0546  -25.4008   18.0331 H   0  0  0  0  0  0
  -29.5419  -23.7451   17.7444 H   0  0  0  0  0  0
  -31.8584  -24.5625   20.5766 H   0  0  0  0  0  0
  -30.6320  -24.9874   21.7622 H   0  0  0  0  0  0
  -30.9344  -26.0430   20.4057 H   0  0  0  0  0  0
  -29.6974  -21.4603   18.5061 H   0  0  0  0  0  0
  -31.3091  -21.7480   19.0147 H   0  0  0  0  0  0
  -28.8167  -22.3936   20.7020 H   0  0  0  0  0  0
  -30.4439  -22.5980   21.2341 H   0  0  0  0  0  0
  -28.0520  -24.8024   21.1082 H   0  0  0  0  0  0
  -27.6871  -24.6593   19.4158 H   0  0  0  0  0  0
  1 25  1  0  0  0
  1 30  2  0  0  0
  1 80  1  0  0  0
  2  3  1  0  0  0
  2 25  1  0  0  0
  2 85  1  0  0  0
  2 86  1  0  0  0
  3  4  1  0  0  0
  3 87  1  0  0  0
  3 88  1  0  0  0
  4  5  1  0  0  0
  4 89  1  0  0  0
  4 90  1  0  0  0
  5  6  1  0  0  0
  5 26  1  0  0  0
  5 91  1  0  0  0
  6 25  1  0  0  0
  6 92  1  0  0  0
  6 93  1  0  0  0
  7  8  2  0  0  0
  7 26  1  0  0  0
  7 29  1  0  0  0
  8  9  1  0  0  0
  8 22  1  0  0  0
  9 10  1  0  0  0
  9 27  2  0  0  0
 10 11  2  0  0  0
 10 15  1  0  0  0
 11 12  1  0  0  0
 11 94  1  0  0  0
 12 13  2  0  0  0
 12 95  1  0  0  0
 13 14  1  0  0  0
 13 31  1  0  0  0
 14 15  2  0  0  0
 14 96  1  0  0  0
 15 97  1  0  0  0
 16 17  2  0  0  0
 16 21  1  0  0  0
 16 31  1  0  0  0
 17 18  1  0  0  0
 17 98  1  0  0  0
 18 19  2  0  0  0
 18 99  1  0  0  0
 19 20  1  0  0  0
 19 24  1  0  0  0
 20 21  2  0  0  0
 20100  1  0  0  0
 21 23  1  0  0  0
 22 28  1  0  0  0
 22 32  2  0  0  0
 26 27  1  0  0  0
 28101  1  0  0  0
 28102  1  0  0  0
 29103  1  0  0  0
 29104  1  0  0  0
 33 34  1  0  0  0
 33 66  1  0  0  0
 33 70  2  0  0  0
 34 36  1  0  0  0
 34 59  1  0  0  0
 34105  1  0  0  0
 35 44  2  0  0  0
 35 45  1  0  0  0
 35 68  1  0  0  0
 36 56  1  0  0  0
 36106  1  0  0  0
 37 39  1  0  0  0
 37 47  1  0  0  0
 37 66  1  0  0  0
 37107  1  0  0  0
 38 43  2  0  0  0
 38 46  1  0  0  0
 38 47  1  0  0  0
 39 64  1  0  0  0
 39 67  2  0  0  0
 40 52  1  0  0  0
 40 53  2  0  0  0
 40 58  1  0  0  0
 41108  1  0  0  0
 41109  1  0  0  0
 41110  1  0  0  0
 41 48  1  0  0  0
 42 43  1  0  0  0
 42 66  1  0  0  0
 42111  1  0  0  0
 42112  1  0  0  0
 43 44  1  0  0  0
 44113  1  0  0  0
 45 46  2  0  0  0
 45114  1  0  0  0
 46115  1  0  0  0
 47116  1  0  0  0
 47117  1  0  0  0
 48 56  1  0  0  0
 48 65  1  0  0  0
 48118  1  0  0  0
 49 50  1  0  0  0
 49 53  1  0  0  0
 49 64  1  0  0  0
 49119  1  0  0  0
 50 51  1  0  0  0
 50120  1  0  0  0
 50121  1  0  0  0
 51 52  1  0  0  0
 51122  1  0  0  0
 51123  1  0  0  0
 52124  1  0  0  0
 52125  1  0  0  0
 53 54  1  0  0  0
 54 55  2  0  0  0
 54126  1  0  0  0
 55 57  1  0  0  0
 55127  1  0  0  0
 56 69  2  0  0  0
 57 58  2  0  0  0
 57128  1  0  0  0
 58129  1  0  0  0
 59 60  1  0  0  0
 59 61  1  0  0  0
 59 62  1  0  0  0
 60130  1  0  0  0
 60131  1  0  0  0
 60132  1  0  0  0
 61133  1  0  0  0
 61134  1  0  0  0
 61135  1  0  0  0
 62136  1  0  0  0
 62137  1  0  0  0
 62138  1  0  0  0
 63 65  1  0  0  0
 63139  1  0  0  0
 63140  1  0  0  0
 63141  1  0  0  0
 64142  1  0  0  0
 65143  1  0  0  0
 68 79  1  0  0  0
 71 72  2  0  0  0
 71 84  1  0  0  0
 71144  1  0  0  0
 72 77  1  0  0  0
 72 82  1  0  0  0
 73145  1  0  0  0
 73146  1  0  0  0
 73147  1  0  0  0
 73 80  1  0  0  0
 74 80  1  0  0  0
 74148  1  0  0  0
 74149  1  0  0  0
 74150  1  0  0  0
 75151  1  0  0  0
 75152  1  0  0  0
 75153  1  0  0  0
 75 81  1  0  0  0
 76 81  1  0  0  0
 76154  1  0  0  0
 76155  1  0  0  0
 76156  1  0  0  0
 77 78  1  0  0  0
 77157  1  0  0  0
 77158  1  0  0  0
 78 81  1  0  0  0
 78159  1  0  0  0
 78160  1  0  0  0
 79 81  1  0  0  0
 79161  1  0  0  0
 79162  1  0  0  0
 80 84  1  0  0  0
 82 83  2  0  0  0
 83 84  1  0  0  0
M  ISO  4   1 100  68 101  79 101  80 100
M  END
> <chiral flag>
0

> <version>
0

> <s_m_source_file>
/data/baiqing/PycharmProjects/Reinvent-master-3.2/result/LINK_invent/BTK/process_docking_weight1_custom_sum_contain_oxygen_bond_distance_aromatic_linkinvent_7_9_3/rearranged_h_0070.sdf

> <i_m_source_file_index>
84

> <r_mmod_Potential_Energy-OPLS-2005>
344.929046630859

> <r_mmod_Stretch_Energy-OPLS-2005>
143.314956665039

> <r_mmod_Bend_Energy-OPLS-2005>
215.782409667969

> <r_mmod_Torsional_Energy-OPLS-2005>
267.296661376953

> <r_mmod_Improper_Torsional_Energy-OPLS-2005>
9.15003204345703

> <r_mmod_Van_der_Waal_Energy-OPLS-2005>
137.429306030273

> <r_mmod_Electrostatic_Energy-OPLS-2005>
-316.709625244141

> <r_mmod_Solvation_Energy-OPLS-2005>
-208.738403320312

> <b_mmod_Minimization_Converged-OPLS-2005>
0

> <r_mmod_RMS_Derivative-OPLS-2005>
6.56737852096558

$$$$
85
                    3D
 Structure written by MMmdl.
149157  0  0  1  0            999 V2000
  -30.2988  -15.5558   20.3765 C   0  0  0  0  0  0
  -30.4501  -13.0205   19.5428 C   0  0  0  0  0  0
  -29.5495  -12.6636   18.3229 C   0  0  0  0  0  0
  -28.1171  -12.3117   18.7631 C   0  0  0  0  0  0
  -27.6108  -13.2943   19.8426 C   0  0  2  0  0  0
  -28.6508  -13.5219   20.9700 C   0  0  0  0  0  0
  -25.2203  -13.8184   20.5689 C   0  0  0  0  0  0
  -24.1636  -13.0335   20.9243 C   0  0  0  0  0  0
  -24.6406  -11.6886   20.8793 C   0  0  0  0  0  0
  -23.9123  -10.4239   21.0412 C   0  0  0  0  0  0
  -24.3646   -9.4158   21.9209 C   0  0  0  0  0  0
  -23.6289   -8.2218   22.0785 C   0  0  0  0  0  0
  -22.4269   -8.0272   21.3563 C   0  0  0  0  0  0
  -21.9918   -9.0260   20.4668 C   0  0  0  0  0  0
  -22.7285  -10.2122   20.3064 C   0  0  0  0  0  0
  -21.6844   -6.0730   22.5286 C   0  0  0  0  0  0
  -21.4014   -6.5639   23.8222 C   0  0  0  0  0  0
  -21.3654   -5.6800   24.9185 C   0  0  0  0  0  0
  -21.6036   -4.3059   24.7240 C   0  0  0  0  0  0
  -21.8813   -3.8149   23.4361 C   0  0  0  0  0  0
  -21.9188   -4.6959   22.3413 C   0  0  0  0  0  0
  -22.7647  -13.5082   21.1861 C   0  0  0  0  0  0
  -22.1641   -4.2144   21.0994 F   0  0  0  0  0  0
  -21.5627   -3.4541   25.7756 F   0  0  0  0  0  0
  -29.8360  -14.1678   20.3468 N   0  0  0  0  0  0
  -26.2799  -12.9582   20.3367 N   0  0  0  0  0  0
  -25.9379  -11.6660   20.5829 N   0  0  0  0  0  0
  -22.0332  -12.8120   22.0466 N   0  0  0  0  0  0
  -25.3408  -15.1895   20.3940 N   0  0  0  0  0  0
  -31.5094  -15.5477   20.0844 O   0  0  0  0  0  0
  -21.6622   -6.8880   21.4251 O   0  0  0  0  0  0
  -22.3335  -14.5390   20.6702 O   0  0  0  0  0  0
  -24.6781  -31.8054   23.1563 C   0  0  0  0  0  0
  -25.9397  -32.4484   23.8073 C   0  0  1  0  0  0
  -27.2386  -26.7689   20.2007 C   0  0  0  0  0  0
  -25.6007  -33.8307   24.1976 N   0  0  0  0  0  0
  -23.5031  -30.4103   21.5075 C   0  0  2  0  0  0
  -24.9629  -28.7643   20.1155 C   0  0  0  0  0  0
  -22.7748  -29.4342   22.4704 C   0  0  0  0  0  0
  -18.0336  -28.1415   22.8457 C   0  0  0  0  0  0
  -24.1499  -36.7151   23.2657 C   0  0  0  0  0  0
  -26.0822  -30.5598   21.4138 C   0  0  0  0  0  0
  -26.1516  -29.1326   20.7592 C   0  0  0  0  0  0
  -27.2763  -28.1618   20.7705 C   0  0  0  0  0  0
  -26.0179  -26.5958   19.5027 C   0  0  0  0  0  0
  -24.9324  -27.5194   19.4643 C   0  0  0  0  0  0
  -23.7562  -29.7127   20.1404 C   0  0  0  0  0  0
  -25.4156  -36.2902   24.0282 C   0  0  1  0  0  0
  -20.5976  -28.3771   23.1144 C   0  0  2  0  0  0
  -20.6810  -26.9434   22.5399 C   0  0  0  0  0  0
  -19.5786  -26.6370   21.5212 C   0  0  0  0  0  0
  -18.1968  -26.7950   22.1614 C   0  0  0  0  0  0
  -19.1607  -28.8915   23.2789 C   0  0  0  0  0  0
  -18.9514  -30.1496   23.8833 C   0  0  0  0  0  0
  -17.6508  -30.6604   24.0550 C   0  0  0  0  0  0
  -25.9118  -34.9293   23.4958 C   0  0  0  0  0  0
  -16.5393  -29.9089   23.6347 C   0  0  0  0  0  0
  -16.7320  -28.6509   23.0369 C   0  0  0  0  0  0
  -26.4588  -31.6491   25.0668 C   0  0  0  0  0  0
  -25.3669  -31.3801   26.1291 C   0  0  0  0  0  0
  -27.0530  -30.2841   24.6555 C   0  0  0  0  0  0
  -27.6043  -32.4340   25.7486 C   0  0  0  0  0  0
  -27.5544  -37.1769   24.8501 C   0  0  0  0  0  0
  -21.4402  -29.3028   22.3465 N   0  0  0  0  0  0
  -26.4302  -37.3638   23.9364 N   0  0  0  0  0  0
  -24.7770  -30.9563   22.0776 N   0  0  0  0  0  0
  -23.4224  -28.7923   23.3012 O   0  0  0  0  0  0
  -28.2094  -25.5782   20.2911 O   0  0  0  0  0  0
  -26.5739  -34.8849   22.4559 O   0  0  0  0  0  0
  -23.5817  -32.1095   23.6557 O   0  0  0  0  0  0
  -28.9065  -21.1702   19.1875 C   0  0  0  0  0  0
  -29.2518  -20.0628   21.5219 C   0  0  0  0  0  0
  -28.7198  -22.2319   20.2234 C   0  0  0  0  0  0
  -29.4468  -18.9963   20.4924 C   0  0  0  0  0  0
  -29.5361  -17.0747   22.3174 C   0  0  0  0  0  0
  -27.9649  -16.8832   20.4410 C   0  0  0  0  0  0
  -27.9358  -23.8933   20.0390 C   0  0  0  0  0  0
  -29.4309  -17.1624   20.7753 C   0  0  0  0  0  0
  -28.9216  -21.4818   21.4107 N   0  0  0  0  0  0
  -29.2176  -19.7413   19.3009 N   0  0  0  0  0  0
  -31.4372  -13.2921   19.1732 H   0  0  0  0  0  0
  -30.6175  -12.1430   20.1705 H   0  0  0  0  0  0
  -29.9830  -11.8418   17.7515 H   0  0  0  0  0  0
  -29.5155  -13.5192   17.6454 H   0  0  0  0  0  0
  -28.1319  -11.3005   19.1736 H   0  0  0  0  0  0
  -27.4416  -12.2893   17.9073 H   0  0  0  0  0  0
  -27.4992  -14.2392   19.3135 H   0  0  0  0  0  0
  -28.9030  -12.5817   21.4636 H   0  0  0  0  0  0
  -28.2509  -14.1454   21.7673 H   0  0  0  0  0  0
  -25.2785   -9.5626   22.4810 H   0  0  0  0  0  0
  -23.9970   -7.4605   22.7518 H   0  0  0  0  0  0
  -21.0836   -8.8799   19.8979 H   0  0  0  0  0  0
  -22.3739  -10.9672   19.6181 H   0  0  0  0  0  0
  -21.2004   -7.6149   23.9720 H   0  0  0  0  0  0
  -21.1472   -6.0529   25.9086 H   0  0  0  0  0  0
  -22.0587   -2.7603   23.2867 H   0  0  0  0  0  0
  -22.3948  -11.9792   22.4872 H   0  0  0  0  0  0
  -21.0976  -13.1189   22.2731 H   0  0  0  0  0  0
  -24.5499  -15.8119   20.5123 H   0  0  0  0  0  0
  -26.1790  -15.6681   20.0928 H   0  0  0  0  0  0
  -26.7476  -32.4975   23.0778 H   0  0  0  0  0  0
  -25.0113  -33.9351   25.0105 H   0  0  0  0  0  0
  -22.8245  -31.2459   21.3222 H   0  0  0  0  0  0
  -23.3737  -35.9520   23.3417 H   0  0  0  0  0  0
  -24.3516  -36.8707   22.2049 H   0  0  0  0  0  0
  -23.7325  -37.6388   23.6666 H   0  0  0  0  0  0
  -26.2891  -31.2922   20.6322 H   0  0  0  0  0  0
  -26.9304  -30.6151   22.0842 H   0  0  0  0  0  0
  -28.1703  -28.4490   21.3048 H   0  0  0  0  0  0
  -25.8608  -25.6487   19.0057 H   0  0  0  0  0  0
  -24.0342  -27.2285   18.9347 H   0  0  0  0  0  0
  -23.9287  -30.4775   19.3818 H   0  0  0  0  0  0
  -22.8622  -29.1786   19.8125 H   0  0  0  0  0  0
  -25.1383  -36.1689   25.0780 H   0  0  0  0  0  0
  -21.0065  -28.3400   24.1268 H   0  0  0  0  0  0
  -20.5680  -26.2387   23.3655 H   0  0  0  0  0  0
  -21.6670  -26.7388   22.1207 H   0  0  0  0  0  0
  -19.6936  -25.6264   21.1285 H   0  0  0  0  0  0
  -19.6731  -27.3140   20.6718 H   0  0  0  0  0  0
  -17.4233  -26.6693   21.4020 H   0  0  0  0  0  0
  -18.0357  -26.0108   22.9029 H   0  0  0  0  0  0
  -19.7990  -30.7332   24.2181 H   0  0  0  0  0  0
  -17.5057  -31.6279   24.5159 H   0  0  0  0  0  0
  -15.5389  -30.2971   23.7705 H   0  0  0  0  0  0
  -15.8724  -28.0803   22.7124 H   0  0  0  0  0  0
  -24.5890  -30.7105   25.7583 H   0  0  0  0  0  0
  -24.8811  -32.3021   26.4493 H   0  0  0  0  0  0
  -25.7847  -30.9109   27.0211 H   0  0  0  0  0  0
  -26.3258  -29.6443   24.1551 H   0  0  0  0  0  0
  -27.3982  -29.7280   25.5283 H   0  0  0  0  0  0
  -27.9221  -30.3968   24.0072 H   0  0  0  0  0  0
  -27.2592  -33.3712   26.1867 H   0  0  0  0  0  0
  -28.3959  -32.6795   25.0396 H   0  0  0  0  0  0
  -28.0605  -31.8610   26.5573 H   0  0  0  0  0  0
  -28.2662  -37.9951   24.7348 H   0  0  0  0  0  0
  -28.0932  -36.2471   24.6615 H   0  0  0  0  0  0
  -27.2211  -37.1760   25.8891 H   0  0  0  0  0  0
  -20.9679  -29.8693   21.6557 H   0  0  0  0  0  0
  -26.0147  -38.2717   24.1255 H   0  0  0  0  0  0
  -28.7254  -21.4681   18.1635 H   0  0  0  0  0  0
  -29.2773  -19.7546   22.5552 H   0  0  0  0  0  0
  -28.7410  -17.6254   22.8206 H   0  0  0  0  0  0
  -30.4908  -17.4685   22.6661 H   0  0  0  0  0  0
  -29.4574  -16.0526   22.6902 H   0  0  0  0  0  0
  -27.3001  -17.6188   20.8949 H   0  0  0  0  0  0
  -27.6617  -15.9347   20.8461 H   0  0  0  0  0  0
  -27.7869  -16.8944   19.3662 H   0  0  0  0  0  0
  -26.9711  -23.7408   20.5226 H   0  0  0  0  0  0
  -27.6865  -23.8827   18.9771 H   0  0  0  0  0  0
  1 25  1  0  0  0
  1 30  2  0  0  0
  1 78  1  0  0  0
  2  3  1  0  0  0
  2 25  1  0  0  0
  2 81  1  0  0  0
  2 82  1  0  0  0
  3  4  1  0  0  0
  3 83  1  0  0  0
  3 84  1  0  0  0
  4  5  1  0  0  0
  4 85  1  0  0  0
  4 86  1  0  0  0
  5  6  1  0  0  0
  5 26  1  0  0  0
  5 87  1  0  0  0
  6 25  1  0  0  0
  6 88  1  0  0  0
  6 89  1  0  0  0
  7  8  2  0  0  0
  7 26  1  0  0  0
  7 29  1  0  0  0
  8  9  1  0  0  0
  8 22  1  0  0  0
  9 10  1  0  0  0
  9 27  2  0  0  0
 10 11  2  0  0  0
 10 15  1  0  0  0
 11 12  1  0  0  0
 11 90  1  0  0  0
 12 13  2  0  0  0
 12 91  1  0  0  0
 13 14  1  0  0  0
 13 31  1  0  0  0
 14 15  2  0  0  0
 14 92  1  0  0  0
 15 93  1  0  0  0
 16 17  2  0  0  0
 16 21  1  0  0  0
 16 31  1  0  0  0
 17 18  1  0  0  0
 17 94  1  0  0  0
 18 19  2  0  0  0
 18 95  1  0  0  0
 19 20  1  0  0  0
 19 24  1  0  0  0
 20 21  2  0  0  0
 20 96  1  0  0  0
 21 23  1  0  0  0
 22 28  1  0  0  0
 22 32  2  0  0  0
 26 27  1  0  0  0
 28 97  1  0  0  0
 28 98  1  0  0  0
 29 99  1  0  0  0
 29100  1  0  0  0
 33 34  1  0  0  0
 33 66  1  0  0  0
 33 70  2  0  0  0
 34 36  1  0  0  0
 34 59  1  0  0  0
 34101  1  0  0  0
 35 44  2  0  0  0
 35 45  1  0  0  0
 35 68  1  0  0  0
 36 56  1  0  0  0
 36102  1  0  0  0
 37 39  1  0  0  0
 37 47  1  0  0  0
 37 66  1  0  0  0
 37103  1  0  0  0
 38 43  2  0  0  0
 38 46  1  0  0  0
 38 47  1  0  0  0
 39 64  1  0  0  0
 39 67  2  0  0  0
 40 52  1  0  0  0
 40 53  2  0  0  0
 40 58  1  0  0  0
 41104  1  0  0  0
 41105  1  0  0  0
 41106  1  0  0  0
 41 48  1  0  0  0
 42 43  1  0  0  0
 42 66  1  0  0  0
 42107  1  0  0  0
 42108  1  0  0  0
 43 44  1  0  0  0
 44109  1  0  0  0
 45 46  2  0  0  0
 45110  1  0  0  0
 46111  1  0  0  0
 47112  1  0  0  0
 47113  1  0  0  0
 48 56  1  0  0  0
 48 65  1  0  0  0
 48114  1  0  0  0
 49 50  1  0  0  0
 49 53  1  0  0  0
 49 64  1  0  0  0
 49115  1  0  0  0
 50 51  1  0  0  0
 50116  1  0  0  0
 50117  1  0  0  0
 51 52  1  0  0  0
 51118  1  0  0  0
 51119  1  0  0  0
 52120  1  0  0  0
 52121  1  0  0  0
 53 54  1  0  0  0
 54 55  2  0  0  0
 54122  1  0  0  0
 55 57  1  0  0  0
 55123  1  0  0  0
 56 69  2  0  0  0
 57 58  2  0  0  0
 57124  1  0  0  0
 58125  1  0  0  0
 59 60  1  0  0  0
 59 61  1  0  0  0
 59 62  1  0  0  0
 60126  1  0  0  0
 60127  1  0  0  0
 60128  1  0  0  0
 61129  1  0  0  0
 61130  1  0  0  0
 61131  1  0  0  0
 62132  1  0  0  0
 62133  1  0  0  0
 62134  1  0  0  0
 63 65  1  0  0  0
 63135  1  0  0  0
 63136  1  0  0  0
 63137  1  0  0  0
 64138  1  0  0  0
 65139  1  0  0  0
 68 77  1  0  0  0
 71 73  2  0  0  0
 71 80  1  0  0  0
 71140  1  0  0  0
 72 74  1  0  0  0
 72 79  2  0  0  0
 72141  1  0  0  0
 73 77  1  0  0  0
 73 79  1  0  0  0
 74 78  1  0  0  0
 74 80  2  0  0  0
 75142  1  0  0  0
 75143  1  0  0  0
 75144  1  0  0  0
 75 78  1  0  0  0
 76 78  1  0  0  0
 76145  1  0  0  0
 76146  1  0  0  0
 76147  1  0  0  0
 77148  1  0  0  0
 77149  1  0  0  0
M  ISO  4   1 100  68 101  77 101  78 100
M  END
> <chiral flag>
0

> <version>
0

> <s_m_source_file>
/data/baiqing/PycharmProjects/Reinvent-master-3.2/result/LINK_invent/BTK/process_docking_weight1_custom_sum_contain_oxygen_bond_distance_aromatic_linkinvent_7_9_3/rearranged_h_0070.sdf

> <i_m_source_file_index>
85

> <r_mmod_Potential_Energy-OPLS-2005>
2308.3408203125

> <r_mmod_Stretch_Energy-OPLS-2005>
909.904846191406

> <r_mmod_Bend_Energy-OPLS-2005>
672.590637207031

> <r_mmod_Torsional_Energy-OPLS-2005>
206.186233520508

> <r_mmod_Improper_Torsional_Energy-OPLS-2005>
7.6176323890686

> <r_mmod_Van_der_Waal_Energy-OPLS-2005>
147.704467773438

> <r_mmod_Electrostatic_Energy-OPLS-2005>
-191.534957885742

> <r_mmod_Solvation_Energy-OPLS-2005>
-215.653656005859

> <b_mmod_Minimization_Converged-OPLS-2005>
0

> <r_mmod_RMS_Derivative-OPLS-2005>
3.30270862579346

$$$$
86
                    3D
 Structure written by MMmdl.
154162  0  0  1  0            999 V2000
  -30.4690  -15.0021   20.3891 C   0  0  0  0  0  0
  -30.4757  -12.6182   19.4801 C   0  0  0  0  0  0
  -29.5314  -12.5287   18.2516 C   0  0  0  0  0  0
  -28.0542  -12.3153   18.6622 C   0  0  0  0  0  0
  -27.6354  -13.2031   19.8612 C   0  0  2  0  0  0
  -28.7093  -13.1613   20.9708 C   0  0  0  0  0  0
  -25.2428  -13.8047   20.5634 C   0  0  0  0  0  0
  -24.1747  -13.0333   20.9223 C   0  0  0  0  0  0
  -24.6363  -11.6822   20.8818 C   0  0  0  0  0  0
  -23.9044  -10.4237   21.0451 C   0  0  0  0  0  0
  -24.3606   -9.4157   21.9212 C   0  0  0  0  0  0
  -23.6288   -8.2192   22.0763 C   0  0  0  0  0  0
  -22.4276   -8.0256   21.3540 C   0  0  0  0  0  0
  -21.9908   -9.0234   20.4649 C   0  0  0  0  0  0
  -22.7230  -10.2108   20.3074 C   0  0  0  0  0  0
  -21.6837   -6.0735   22.5282 C   0  0  0  0  0  0
  -21.3995   -6.5639   23.8214 C   0  0  0  0  0  0
  -21.3665   -5.6790   24.9180 C   0  0  0  0  0  0
  -21.6046   -4.3057   24.7222 C   0  0  0  0  0  0
  -21.8818   -3.8153   23.4338 C   0  0  0  0  0  0
  -21.9193   -4.6967   22.3397 C   0  0  0  0  0  0
  -22.7774  -13.5154   21.1856 C   0  0  0  0  0  0
  -22.1660   -4.2169   21.0970 F   0  0  0  0  0  0
  -21.5653   -3.4527   25.7726 F   0  0  0  0  0  0
  -29.9635  -13.6850   20.3912 N   0  0  0  0  0  0
  -26.2911  -12.9205   20.3422 N   0  0  0  0  0  0
  -25.9296  -11.6386   20.5880 N   0  0  0  0  0  0
  -22.0417  -12.8193   22.0449 N   0  0  0  0  0  0
  -25.3875  -15.1752   20.3796 N   0  0  0  0  0  0
  -31.6794  -15.0976   20.1501 O   0  0  0  0  0  0
  -21.6628   -6.8868   21.4241 O   0  0  0  0  0  0
  -22.3471  -14.5464   20.6700 O   0  0  0  0  0  0
  -24.6420  -31.8446   23.1872 C   0  0  0  0  0  0
  -25.9196  -32.4703   23.8268 C   0  0  1  0  0  0
  -27.2431  -27.1608   20.1540 C   0  0  0  0  0  0
  -25.5944  -33.8506   24.2185 N   0  0  0  0  0  0
  -23.4460  -30.4619   21.5314 C   0  0  2  0  0  0
  -24.9015  -28.8883   20.1103 C   0  0  0  0  0  0
  -22.7563  -29.4552   22.4862 C   0  0  0  0  0  0
  -18.0312  -28.1383   22.8487 C   0  0  0  0  0  0
  -24.1496  -36.7259   23.2637 C   0  0  0  0  0  0
  -25.9996  -30.7271   21.3831 C   0  0  0  0  0  0
  -26.0755  -29.3389   20.7272 C   0  0  0  0  0  0
  -27.2440  -28.4916   20.7313 C   0  0  0  0  0  0
  -26.0414  -26.8045   19.4992 C   0  0  0  0  0  0
  -24.8968  -27.6339   19.4804 C   0  0  0  0  0  0
  -23.6716  -29.7826   20.1535 C   0  0  0  0  0  0
  -25.4123  -36.3034   24.0313 C   0  0  1  0  0  0
  -20.5926  -28.3712   23.1239 C   0  0  2  0  0  0
  -20.6796  -26.9413   22.5399 C   0  0  0  0  0  0
  -19.5759  -26.6372   21.5219 C   0  0  0  0  0  0
  -18.1947  -26.7923   22.1632 C   0  0  0  0  0  0
  -19.1569  -28.8865   23.2857 C   0  0  0  0  0  0
  -18.9479  -30.1469   23.8877 C   0  0  0  0  0  0
  -17.6472  -30.6583   24.0557 C   0  0  0  0  0  0
  -25.9067  -34.9410   23.5055 C   0  0  0  0  0  0
  -16.5368  -29.9071   23.6333 C   0  0  0  0  0  0
  -16.7301  -28.6488   23.0366 C   0  0  0  0  0  0
  -26.4524  -31.6568   25.0700 C   0  0  0  0  0  0
  -25.3709  -31.3758   26.1394 C   0  0  0  0  0  0
  -27.0387  -30.2969   24.6265 C   0  0  0  0  0  0
  -27.6051  -32.4338   25.7488 C   0  0  0  0  0  0
  -27.5586  -37.1772   24.8454 C   0  0  0  0  0  0
  -21.4260  -29.3041   22.3602 N   0  0  0  0  0  0
  -26.4285  -37.3749   23.9418 N   0  0  0  0  0  0
  -24.7152  -31.0323   22.0891 N   0  0  0  0  0  0
  -23.4206  -28.8108   23.3016 O   0  0  0  0  0  0
  -28.3209  -26.2058   20.2347 O   0  0  0  0  0  0
  -26.5656  -34.8909   22.4635 O   0  0  0  0  0  0
  -23.5544  -32.1311   23.7102 O   0  0  0  0  0  0
  -30.7773  -19.9366   20.7278 C   0  0  0  0  0  0
  -28.9181  -19.0582   20.2306 C   0  0  0  0  0  0
  -29.4395  -20.3568   20.3862 C   0  0  0  0  0  0
  -28.7674  -16.3441   19.0001 C   0  0  0  0  0  0
  -28.4969  -16.2555   21.5609 C   0  0  0  0  0  0
  -28.6432  -21.7983   20.1859 C   0  0  0  0  0  0
  -29.1121  -23.3905   20.4267 C   0  0  0  0  0  0
  -28.0919  -24.6824   20.0576 C   0  0  0  0  0  0
  -29.4894  -16.3966   20.3804 C   0  0  0  0  0  0
  -30.9919  -18.5833   20.7759 N   0  0  0  0  0  0
  -29.8288  -17.9586   20.4339 N   0  0  0  0  0  0
  -31.4939  -12.8276   19.1490 H   0  0  0  0  0  0
  -30.5338  -11.6572   19.9940 H   0  0  0  0  0  0
  -29.8490  -11.7193   17.5939 H   0  0  0  0  0  0
  -29.6217  -13.4415   17.6630 H   0  0  0  0  0  0
  -27.9329  -11.2654   18.9275 H   0  0  0  0  0  0
  -27.3957  -12.4913   17.8116 H   0  0  0  0  0  0
  -27.5760  -14.2042   19.4713 H   0  0  0  0  0  0
  -28.8383  -12.1288   21.3006 H   0  0  0  0  0  0
  -28.4199  -13.6752   21.8823 H   0  0  0  0  0  0
  -25.2746   -9.5645   22.4799 H   0  0  0  0  0  0
  -24.0007   -7.4572   22.7474 H   0  0  0  0  0  0
  -21.0848   -8.8746   19.8944 H   0  0  0  0  0  0
  -22.3694  -10.9658   19.6197 H   0  0  0  0  0  0
  -21.1959   -7.6144   23.9718 H   0  0  0  0  0  0
  -21.1500   -6.0526   25.9091 H   0  0  0  0  0  0
  -22.0597   -2.7619   23.2824 H   0  0  0  0  0  0
  -22.4027  -11.9875   22.4877 H   0  0  0  0  0  0
  -21.1043  -13.1243   22.2636 H   0  0  0  0  0  0
  -24.6017  -15.8106   20.4721 H   0  0  0  0  0  0
  -26.2265  -15.6294   20.0462 H   0  0  0  0  0  0
  -26.7258  -32.5324   23.1000 H   0  0  0  0  0  0
  -25.0096  -33.9622   25.0338 H   0  0  0  0  0  0
  -22.7478  -31.2867   21.3736 H   0  0  0  0  0  0
  -23.3770  -35.9575   23.3253 H   0  0  0  0  0  0
  -24.3597  -36.8937   22.2060 H   0  0  0  0  0  0
  -23.7232  -37.6434   23.6703 H   0  0  0  0  0  0
  -26.1511  -31.4801   20.6085 H   0  0  0  0  0  0
  -26.8712  -30.7805   22.0243 H   0  0  0  0  0  0
  -28.1385  -28.8324   21.2336 H   0  0  0  0  0  0
  -25.9561  -25.8447   19.0123 H   0  0  0  0  0  0
  -24.0011  -27.2841   18.9862 H   0  0  0  0  0  0
  -23.7946  -30.5506   19.3894 H   0  0  0  0  0  0
  -22.7905  -29.2124   19.8537 H   0  0  0  0  0  0
  -25.1311  -36.1854   25.0803 H   0  0  0  0  0  0
  -21.0039  -28.3303   24.1354 H   0  0  0  0  0  0
  -20.5708  -26.2323   23.3620 H   0  0  0  0  0  0
  -21.6658  -26.7424   22.1186 H   0  0  0  0  0  0
  -19.6917  -25.6278   21.1261 H   0  0  0  0  0  0
  -19.6693  -27.3175   20.6741 H   0  0  0  0  0  0
  -17.4217  -26.6689   21.4033 H   0  0  0  0  0  0
  -18.0336  -26.0067   22.9027 H   0  0  0  0  0  0
  -19.7951  -30.7298   24.2231 H   0  0  0  0  0  0
  -17.5018  -31.6264   24.5149 H   0  0  0  0  0  0
  -15.5364  -30.2959   23.7659 H   0  0  0  0  0  0
  -15.8710  -28.0789   22.7095 H   0  0  0  0  0  0
  -24.5873  -30.7133   25.7702 H   0  0  0  0  0  0
  -24.8921  -32.2944   26.4791 H   0  0  0  0  0  0
  -25.7981  -30.8930   27.0192 H   0  0  0  0  0  0
  -26.2995  -29.6693   24.1271 H   0  0  0  0  0  0
  -27.4010  -29.7269   25.4832 H   0  0  0  0  0  0
  -27.8901  -30.4218   23.9571 H   0  0  0  0  0  0
  -27.2636  -33.3650   26.2028 H   0  0  0  0  0  0
  -28.3881  -32.6888   25.0330 H   0  0  0  0  0  0
  -28.0703  -31.8491   26.5437 H   0  0  0  0  0  0
  -28.2549  -38.0121   24.7567 H   0  0  0  0  0  0
  -28.1135  -36.2653   24.6195 H   0  0  0  0  0  0
  -27.2312  -37.1312   25.8855 H   0  0  0  0  0  0
  -20.9468  -29.8723   21.6761 H   0  0  0  0  0  0
  -26.0146  -38.2808   24.1453 H   0  0  0  0  0  0
  -31.6201  -20.5775   20.9483 H   0  0  0  0  0  0
  -27.8948  -18.8176   19.9752 H   0  0  0  0  0  0
  -27.6937  -16.5030   19.0884 H   0  0  0  0  0  0
  -28.9303  -15.4252   18.4442 H   0  0  0  0  0  0
  -29.1343  -17.1107   18.3154 H   0  0  0  0  0  0
  -27.9725  -17.1783   21.8071 H   0  0  0  0  0  0
  -29.0049  -15.9407   22.4718 H   0  0  0  0  0  0
  -27.7044  -15.5533   21.3528 H   0  0  0  0  0  0
  -27.7333  -21.7180   20.7814 H   0  0  0  0  0  0
  -28.2615  -21.7918   19.1649 H   0  0  0  0  0  0
  -30.0430  -23.5467   19.8809 H   0  0  0  0  0  0
  -29.3802  -23.4888   21.4794 H   0  0  0  0  0  0
  -27.1598  -24.4690   20.5807 H   0  0  0  0  0  0
  -27.8521  -24.5562   19.0020 H   0  0  0  0  0  0
  1 25  1  0  0  0
  1 30  2  0  0  0
  1 79  1  0  0  0
  2  3  1  0  0  0
  2 25  1  0  0  0
  2 82  1  0  0  0
  2 83  1  0  0  0
  3  4  1  0  0  0
  3 84  1  0  0  0
  3 85  1  0  0  0
  4  5  1  0  0  0
  4 86  1  0  0  0
  4 87  1  0  0  0
  5  6  1  0  0  0
  5 26  1  0  0  0
  5 88  1  0  0  0
  6 25  1  0  0  0
  6 89  1  0  0  0
  6 90  1  0  0  0
  7  8  2  0  0  0
  7 26  1  0  0  0
  7 29  1  0  0  0
  8  9  1  0  0  0
  8 22  1  0  0  0
  9 10  1  0  0  0
  9 27  2  0  0  0
 10 11  2  0  0  0
 10 15  1  0  0  0
 11 12  1  0  0  0
 11 91  1  0  0  0
 12 13  2  0  0  0
 12 92  1  0  0  0
 13 14  1  0  0  0
 13 31  1  0  0  0
 14 15  2  0  0  0
 14 93  1  0  0  0
 15 94  1  0  0  0
 16 17  2  0  0  0
 16 21  1  0  0  0
 16 31  1  0  0  0
 17 18  1  0  0  0
 17 95  1  0  0  0
 18 19  2  0  0  0
 18 96  1  0  0  0
 19 20  1  0  0  0
 19 24  1  0  0  0
 20 21  2  0  0  0
 20 97  1  0  0  0
 21 23  1  0  0  0
 22 28  1  0  0  0
 22 32  2  0  0  0
 26 27  1  0  0  0
 28 98  1  0  0  0
 28 99  1  0  0  0
 29100  1  0  0  0
 29101  1  0  0  0
 33 34  1  0  0  0
 33 66  1  0  0  0
 33 70  2  0  0  0
 34 36  1  0  0  0
 34 59  1  0  0  0
 34102  1  0  0  0
 35 44  2  0  0  0
 35 45  1  0  0  0
 35 68  1  0  0  0
 36 56  1  0  0  0
 36103  1  0  0  0
 37 39  1  0  0  0
 37 47  1  0  0  0
 37 66  1  0  0  0
 37104  1  0  0  0
 38 43  2  0  0  0
 38 46  1  0  0  0
 38 47  1  0  0  0
 39 64  1  0  0  0
 39 67  2  0  0  0
 40 52  1  0  0  0
 40 53  2  0  0  0
 40 58  1  0  0  0
 41105  1  0  0  0
 41106  1  0  0  0
 41107  1  0  0  0
 41 48  1  0  0  0
 42 43  1  0  0  0
 42 66  1  0  0  0
 42108  1  0  0  0
 42109  1  0  0  0
 43 44  1  0  0  0
 44110  1  0  0  0
 45 46  2  0  0  0
 45111  1  0  0  0
 46112  1  0  0  0
 47113  1  0  0  0
 47114  1  0  0  0
 48 56  1  0  0  0
 48 65  1  0  0  0
 48115  1  0  0  0
 49 50  1  0  0  0
 49 53  1  0  0  0
 49 64  1  0  0  0
 49116  1  0  0  0
 50 51  1  0  0  0
 50117  1  0  0  0
 50118  1  0  0  0
 51 52  1  0  0  0
 51119  1  0  0  0
 51120  1  0  0  0
 52121  1  0  0  0
 52122  1  0  0  0
 53 54  1  0  0  0
 54 55  2  0  0  0
 54123  1  0  0  0
 55 57  1  0  0  0
 55124  1  0  0  0
 56 69  2  0  0  0
 57 58  2  0  0  0
 57125  1  0  0  0
 58126  1  0  0  0
 59 60  1  0  0  0
 59 61  1  0  0  0
 59 62  1  0  0  0
 60127  1  0  0  0
 60128  1  0  0  0
 60129  1  0  0  0
 61130  1  0  0  0
 61131  1  0  0  0
 61132  1  0  0  0
 62133  1  0  0  0
 62134  1  0  0  0
 62135  1  0  0  0
 63 65  1  0  0  0
 63136  1  0  0  0
 63137  1  0  0  0
 63138  1  0  0  0
 64139  1  0  0  0
 65140  1  0  0  0
 68 78  1  0  0  0
 71 73  1  0  0  0
 71 80  2  0  0  0
 71141  1  0  0  0
 72 73  2  0  0  0
 72 81  1  0  0  0
 72142  1  0  0  0
 73 76  1  0  0  0
 74143  1  0  0  0
 74144  1  0  0  0
 74145  1  0  0  0
 74 79  1  0  0  0
 75 79  1  0  0  0
 75146  1  0  0  0
 75147  1  0  0  0
 75148  1  0  0  0
 76 77  1  0  0  0
 76149  1  0  0  0
 76150  1  0  0  0
 77 78  1  0  0  0
 77151  1  0  0  0
 77152  1  0  0  0
 78153  1  0  0  0
 78154  1  0  0  0
 79 81  1  0  0  0
 80 81  1  0  0  0
M  ISO  4   1 100  68 101  78 101  79 100
M  END
> <chiral flag>
0

> <version>
0

> <s_m_source_file>
/data/baiqing/PycharmProjects/Reinvent-master-3.2/result/LINK_invent/BTK/process_docking_weight1_custom_sum_contain_oxygen_bond_distance_aromatic_linkinvent_7_9_3/rearranged_h_0070.sdf

> <i_m_source_file_index>
86

> <r_mmod_Potential_Energy-OPLS-2005>
704.290161132812

> <r_mmod_Stretch_Energy-OPLS-2005>
270.150146484375

> <r_mmod_Bend_Energy-OPLS-2005>
326.033081054688

> <r_mmod_Torsional_Energy-OPLS-2005>
241.353134155273

> <r_mmod_Improper_Torsional_Energy-OPLS-2005>
6.83713245391846

> <r_mmod_Van_der_Waal_Energy-OPLS-2005>
133.940505981445

> <r_mmod_Electrostatic_Energy-OPLS-2005>
-249.686706542969

> <r_mmod_Solvation_Energy-OPLS-2005>
-220.709747314453

> <b_mmod_Minimization_Converged-OPLS-2005>
0

> <r_mmod_RMS_Derivative-OPLS-2005>
2.12247395515442

$$$$
87
                    3D
 Structure written by MMmdl.
157165  0  0  1  0            999 V2000
  -30.6352  -14.5931   20.5040 C   0  0  0  0  0  0
  -30.4495  -12.3705   19.4457 C   0  0  0  0  0  0
  -29.5131  -12.5076   18.2247 C   0  0  0  0  0  0
  -28.0366  -12.3520   18.6378 C   0  0  0  0  0  0
  -27.6639  -13.2114   19.8742 C   0  0  2  0  0  0
  -28.7075  -13.0367   21.0034 C   0  0  0  0  0  0
  -25.2602  -13.8160   20.5690 C   0  0  0  0  0  0
  -24.1852  -13.0437   20.9168 C   0  0  0  0  0  0
  -24.6416  -11.6906   20.8750 C   0  0  0  0  0  0
  -23.9071  -10.4293   21.0417 C   0  0  0  0  0  0
  -24.3615   -9.4210   21.9194 C   0  0  0  0  0  0
  -23.6298   -8.2247   22.0753 C   0  0  0  0  0  0
  -22.4282   -8.0284   21.3542 C   0  0  0  0  0  0
  -21.9912   -9.0257   20.4641 C   0  0  0  0  0  0
  -22.7240  -10.2138   20.3067 C   0  0  0  0  0  0
  -21.6851   -6.0741   22.5278 C   0  0  0  0  0  0
  -21.4011   -6.5653   23.8208 C   0  0  0  0  0  0
  -21.3662   -5.6808   24.9174 C   0  0  0  0  0  0
  -21.6036   -4.3066   24.7231 C   0  0  0  0  0  0
  -21.8820   -3.8155   23.4357 C   0  0  0  0  0  0
  -21.9197   -4.6968   22.3410 C   0  0  0  0  0  0
  -22.7868  -13.5232   21.1830 C   0  0  0  0  0  0
  -22.1662   -4.2157   21.0987 F   0  0  0  0  0  0
  -21.5625   -3.4545   25.7742 F   0  0  0  0  0  0
  -30.0340  -13.3667   20.4499 N   0  0  0  0  0  0
  -26.3041  -12.9338   20.3338 N   0  0  0  0  0  0
  -25.9346  -11.6503   20.5768 N   0  0  0  0  0  0
  -22.0502  -12.8242   22.0396 N   0  0  0  0  0  0
  -25.4330  -15.1887   20.4127 N   0  0  0  0  0  0
  -31.7560  -14.8001   20.0362 O   0  0  0  0  0  0
  -21.6639   -6.8887   21.4243 O   0  0  0  0  0  0
  -22.3571  -14.5559   20.6697 O   0  0  0  0  0  0
  -24.6216  -31.8659   23.2069 C   0  0  0  0  0  0
  -25.9117  -32.4797   23.8350 C   0  0  1  0  0  0
  -27.2306  -27.3888   20.1062 C   0  0  0  0  0  0
  -25.5972  -33.8592   24.2309 N   0  0  0  0  0  0
  -23.4080  -30.4949   21.5478 C   0  0  2  0  0  0
  -24.8539  -28.9536   20.1160 C   0  0  0  0  0  0
  -22.7414  -29.4710   22.4958 C   0  0  0  0  0  0
  -18.0273  -28.1387   22.8473 C   0  0  0  0  0  0
  -24.1502  -36.7310   23.2631 C   0  0  0  0  0  0
  -25.9442  -30.8168   21.3675 C   0  0  0  0  0  0
  -26.0199  -29.4500   20.7123 C   0  0  0  0  0  0
  -27.2116  -28.6786   20.6996 C   0  0  0  0  0  0
  -26.0414  -26.9265   19.4932 C   0  0  0  0  0  0
  -24.8629  -27.6923   19.5036 C   0  0  0  0  0  0
  -23.6202  -29.8290   20.1628 C   0  0  0  0  0  0
  -25.4110  -36.3087   24.0326 C   0  0  1  0  0  0
  -20.5871  -28.3719   23.1265 C   0  0  2  0  0  0
  -20.6780  -26.9450   22.5396 C   0  0  0  0  0  0
  -19.5769  -26.6402   21.5190 C   0  0  0  0  0  0
  -18.1941  -26.7927   22.1594 C   0  0  0  0  0  0
  -19.1525  -28.8847   23.2880 C   0  0  0  0  0  0
  -18.9457  -30.1438   23.8923 C   0  0  0  0  0  0
  -17.6467  -30.6604   24.0554 C   0  0  0  0  0  0
  -25.9045  -34.9457   23.5110 C   0  0  0  0  0  0
  -16.5350  -29.9116   23.6326 C   0  0  0  0  0  0
  -16.7258  -28.6520   23.0358 C   0  0  0  0  0  0
  -26.4507  -31.6564   25.0686 C   0  0  0  0  0  0
  -25.3760  -31.3723   26.1433 C   0  0  0  0  0  0
  -27.0334  -30.2981   24.6104 C   0  0  0  0  0  0
  -27.6051  -32.4293   25.7483 C   0  0  0  0  0  0
  -27.5580  -37.1808   24.8455 C   0  0  0  0  0  0
  -21.4140  -29.3096   22.3676 N   0  0  0  0  0  0
  -26.4294  -37.3766   23.9396 N   0  0  0  0  0  0
  -24.6761  -31.0742   22.0985 N   0  0  0  0  0  0
  -23.4150  -28.8257   23.3032 O   0  0  0  0  0  0
  -28.3741  -26.5964   20.1468 O   0  0  0  0  0  0
  -26.5574  -34.8915   22.4658 O   0  0  0  0  0  0
  -23.5409  -32.1434   23.7462 O   0  0  0  0  0  0
  -29.7794  -21.7877   18.6199 C   0  0  0  0  0  0
  -30.6063  -19.6393   18.4411 C   0  0  0  0  0  0
  -29.6270  -21.6268   20.0177 C   0  0  0  0  0  0
  -30.4472  -19.4292   19.8332 C   0  0  0  0  0  0
  -31.4390  -18.1529   21.8356 C   0  0  0  0  0  0
  -29.0348  -22.7634   20.8817 C   0  0  0  0  0  0
  -29.3910  -24.2605   20.5240 C   0  0  0  0  0  0
  -29.6548  -16.9866   20.3516 C   0  0  0  0  0  0
  -28.1572  -25.1565   20.1953 C   0  0  0  0  0  0
  -30.8087  -18.0377   20.4391 C   0  0  1  0  0  0
  -30.2696  -20.8022   17.8322 N   0  0  0  0  0  0
  -29.9331  -20.4311   20.6204 N   0  0  0  0  0  0
  -29.8282  -15.6087   20.9065 N   0  0  0  0  0  0
  -31.4876  -12.5103   19.1354 H   0  0  0  0  0  0
  -30.3982  -11.3670   19.8680 H   0  0  0  0  0  0
  -29.7710  -11.7602   17.4721 H   0  0  0  0  0  0
  -29.6627  -13.4804   17.7546 H   0  0  0  0  0  0
  -27.8740  -11.2978   18.8652 H   0  0  0  0  0  0
  -27.3818  -12.5894   17.7984 H   0  0  0  0  0  0
  -27.6926  -14.2508   19.5487 H   0  0  0  0  0  0
  -28.7016  -12.0109   21.3767 H   0  0  0  0  0  0
  -28.4540  -13.6617   21.8609 H   0  0  0  0  0  0
  -25.2755   -9.5705   22.4761 H   0  0  0  0  0  0
  -24.0006   -7.4657   22.7484 H   0  0  0  0  0  0
  -21.0832   -8.8792   19.8948 H   0  0  0  0  0  0
  -22.3704  -10.9686   19.6184 H   0  0  0  0  0  0
  -21.1996   -7.6157   23.9721 H   0  0  0  0  0  0
  -21.1467   -6.0528   25.9078 H   0  0  0  0  0  0
  -22.0591   -2.7621   23.2852 H   0  0  0  0  0  0
  -22.4096  -11.9904   22.4806 H   0  0  0  0  0  0
  -21.1113  -13.1274   22.2560 H   0  0  0  0  0  0
  -24.6704  -15.8476   20.5300 H   0  0  0  0  0  0
  -26.2877  -15.6258   20.0924 H   0  0  0  0  0  0
  -26.7173  -32.5490   23.1091 H   0  0  0  0  0  0
  -25.0155  -33.9711   25.0476 H   0  0  0  0  0  0
  -22.7004  -31.3148   21.4063 H   0  0  0  0  0  0
  -23.3752  -35.9662   23.3299 H   0  0  0  0  0  0
  -24.3612  -36.8922   22.2050 H   0  0  0  0  0  0
  -23.7271  -37.6520   23.6647 H   0  0  0  0  0  0
  -26.0665  -31.5819   20.5995 H   0  0  0  0  0  0
  -26.8297  -30.8648   21.9895 H   0  0  0  0  0  0
  -28.1099  -29.0547   21.1720 H   0  0  0  0  0  0
  -25.9950  -25.9696   18.9980 H   0  0  0  0  0  0
  -23.9699  -27.3012   19.0376 H   0  0  0  0  0  0
  -23.7372  -30.6059   19.4066 H   0  0  0  0  0  0
  -22.7373  -29.2620   19.8641 H   0  0  0  0  0  0
  -25.1304  -36.1935   25.0817 H   0  0  0  0  0  0
  -20.9950  -28.3317   24.1384 H   0  0  0  0  0  0
  -20.5677  -26.2338   23.3599 H   0  0  0  0  0  0
  -21.6655  -26.7501   22.1195 H   0  0  0  0  0  0
  -19.6955  -25.6314   21.1236 H   0  0  0  0  0  0
  -19.6710  -27.3192   20.6707 H   0  0  0  0  0  0
  -17.4206  -26.6650   21.4014 H   0  0  0  0  0  0
  -18.0375  -26.0068   22.8991 H   0  0  0  0  0  0
  -19.7933  -30.7231   24.2331 H   0  0  0  0  0  0
  -17.5032  -31.6280   24.5161 H   0  0  0  0  0  0
  -15.5360  -30.3036   23.7634 H   0  0  0  0  0  0
  -15.8644  -28.0836   22.7099 H   0  0  0  0  0  0
  -24.5901  -30.7092   25.7800 H   0  0  0  0  0  0
  -24.8991  -32.2912   26.4856 H   0  0  0  0  0  0
  -25.8106  -30.8909   27.0198 H   0  0  0  0  0  0
  -26.2892  -29.6737   24.1131 H   0  0  0  0  0  0
  -27.4051  -29.7227   25.4599 H   0  0  0  0  0  0
  -27.8765  -30.4273   23.9305 H   0  0  0  0  0  0
  -27.2616  -33.3559   26.2101 H   0  0  0  0  0  0
  -28.3860  -32.6907   25.0332 H   0  0  0  0  0  0
  -28.0711  -31.8379   26.5372 H   0  0  0  0  0  0
  -28.2589  -38.0106   24.7488 H   0  0  0  0  0  0
  -28.1089  -36.2643   24.6308 H   0  0  0  0  0  0
  -27.2299  -37.1491   25.8854 H   0  0  0  0  0  0
  -20.9306  -29.8791   21.6875 H   0  0  0  0  0  0
  -26.0191  -38.2852   24.1374 H   0  0  0  0  0  0
  -29.4915  -22.7046   18.1256 H   0  0  0  0  0  0
  -30.9845  -18.8592   17.7976 H   0  0  0  0  0  0
  -32.3451  -18.7595   21.7974 H   0  0  0  0  0  0
  -31.7152  -17.1752   22.2267 H   0  0  0  0  0  0
  -30.7511  -18.6178   22.5424 H   0  0  0  0  0  0
  -29.3276  -22.5795   21.9165 H   0  0  0  0  0  0
  -27.9519  -22.6345   20.8817 H   0  0  0  0  0  0
  -29.8965  -24.7004   21.3843 H   0  0  0  0  0  0
  -30.1233  -24.3176   19.7175 H   0  0  0  0  0  0
  -28.7817  -17.4136   20.8480 H   0  0  0  0  0  0
  -29.3698  -16.8857   19.3033 H   0  0  0  0  0  0
  -27.7642  -24.8052   19.2427 H   0  0  0  0  0  0
  -27.3864  -24.9561   20.9418 H   0  0  0  0  0  0
  -31.6014  -17.6462   19.7986 H   0  0  0  0  0  0
  -29.0040  -15.2752   21.3835 H   0  0  0  0  0  0
  1 25  1  0  0  0
  1 30  2  0  0  0
  1 83  1  0  0  0
  2  3  1  0  0  0
  2 25  1  0  0  0
  2 84  1  0  0  0
  2 85  1  0  0  0
  3  4  1  0  0  0
  3 86  1  0  0  0
  3 87  1  0  0  0
  4  5  1  0  0  0
  4 88  1  0  0  0
  4 89  1  0  0  0
  5  6  1  0  0  0
  5 26  1  0  0  0
  5 90  1  0  0  0
  6 25  1  0  0  0
  6 91  1  0  0  0
  6 92  1  0  0  0
  7  8  2  0  0  0
  7 26  1  0  0  0
  7 29  1  0  0  0
  8  9  1  0  0  0
  8 22  1  0  0  0
  9 10  1  0  0  0
  9 27  2  0  0  0
 10 11  2  0  0  0
 10 15  1  0  0  0
 11 12  1  0  0  0
 11 93  1  0  0  0
 12 13  2  0  0  0
 12 94  1  0  0  0
 13 14  1  0  0  0
 13 31  1  0  0  0
 14 15  2  0  0  0
 14 95  1  0  0  0
 15 96  1  0  0  0
 16 17  2  0  0  0
 16 21  1  0  0  0
 16 31  1  0  0  0
 17 18  1  0  0  0
 17 97  1  0  0  0
 18 19  2  0  0  0
 18 98  1  0  0  0
 19 20  1  0  0  0
 19 24  1  0  0  0
 20 21  2  0  0  0
 20 99  1  0  0  0
 21 23  1  0  0  0
 22 28  1  0  0  0
 22 32  2  0  0  0
 26 27  1  0  0  0
 28100  1  0  0  0
 28101  1  0  0  0
 29102  1  0  0  0
 29103  1  0  0  0
 33 34  1  0  0  0
 33 66  1  0  0  0
 33 70  2  0  0  0
 34 36  1  0  0  0
 34 59  1  0  0  0
 34104  1  0  0  0
 35 44  2  0  0  0
 35 45  1  0  0  0
 35 68  1  0  0  0
 36 56  1  0  0  0
 36105  1  0  0  0
 37 39  1  0  0  0
 37 47  1  0  0  0
 37 66  1  0  0  0
 37106  1  0  0  0
 38 43  2  0  0  0
 38 46  1  0  0  0
 38 47  1  0  0  0
 39 64  1  0  0  0
 39 67  2  0  0  0
 40 52  1  0  0  0
 40 53  2  0  0  0
 40 58  1  0  0  0
 41107  1  0  0  0
 41108  1  0  0  0
 41109  1  0  0  0
 41 48  1  0  0  0
 42 43  1  0  0  0
 42 66  1  0  0  0
 42110  1  0  0  0
 42111  1  0  0  0
 43 44  1  0  0  0
 44112  1  0  0  0
 45 46  2  0  0  0
 45113  1  0  0  0
 46114  1  0  0  0
 47115  1  0  0  0
 47116  1  0  0  0
 48 56  1  0  0  0
 48 65  1  0  0  0
 48117  1  0  0  0
 49 50  1  0  0  0
 49 53  1  0  0  0
 49 64  1  0  0  0
 49118  1  0  0  0
 50 51  1  0  0  0
 50119  1  0  0  0
 50120  1  0  0  0
 51 52  1  0  0  0
 51121  1  0  0  0
 51122  1  0  0  0
 52123  1  0  0  0
 52124  1  0  0  0
 53 54  1  0  0  0
 54 55  2  0  0  0
 54125  1  0  0  0
 55 57  1  0  0  0
 55126  1  0  0  0
 56 69  2  0  0  0
 57 58  2  0  0  0
 57127  1  0  0  0
 58128  1  0  0  0
 59 60  1  0  0  0
 59 61  1  0  0  0
 59 62  1  0  0  0
 60129  1  0  0  0
 60130  1  0  0  0
 60131  1  0  0  0
 61132  1  0  0  0
 61133  1  0  0  0
 61134  1  0  0  0
 62135  1  0  0  0
 62136  1  0  0  0
 62137  1  0  0  0
 63 65  1  0  0  0
 63138  1  0  0  0
 63139  1  0  0  0
 63140  1  0  0  0
 64141  1  0  0  0
 65142  1  0  0  0
 68 79  1  0  0  0
 71 73  2  0  0  0
 71 81  1  0  0  0
 71143  1  0  0  0
 72 74  1  0  0  0
 72 81  2  0  0  0
 72144  1  0  0  0
 73 76  1  0  0  0
 73 82  1  0  0  0
 74 80  1  0  0  0
 74 82  2  0  0  0
 75145  1  0  0  0
 75146  1  0  0  0
 75147  1  0  0  0
 75 80  1  0  0  0
 76 77  1  0  0  0
 76148  1  0  0  0
 76149  1  0  0  0
 77 79  1  0  0  0
 77150  1  0  0  0
 77151  1  0  0  0
 78 80  1  0  0  0
 78 83  1  0  0  0
 78152  1  0  0  0
 78153  1  0  0  0
 79154  1  0  0  0
 79155  1  0  0  0
 80156  1  0  0  0
 83157  1  0  0  0
M  ISO  4   1 100  68 101  79 101  83 100
M  END
> <chiral flag>
0

> <version>
0

> <s_m_source_file>
/data/baiqing/PycharmProjects/Reinvent-master-3.2/result/LINK_invent/BTK/process_docking_weight1_custom_sum_contain_oxygen_bond_distance_aromatic_linkinvent_7_9_3/rearranged_h_0070.sdf

> <i_m_source_file_index>
87

> <r_mmod_Potential_Energy-OPLS-2005>
35.3756561279297

> <r_mmod_Stretch_Energy-OPLS-2005>
57.2954521179199

> <r_mmod_Bend_Energy-OPLS-2005>
121.671562194824

> <r_mmod_Torsional_Energy-OPLS-2005>
225.207580566406

> <r_mmod_Improper_Torsional_Energy-OPLS-2005>
6.97068548202515

> <r_mmod_Van_der_Waal_Energy-OPLS-2005>
152.082122802734

> <r_mmod_Electrostatic_Energy-OPLS-2005>
-334.279602050781

> <r_mmod_Solvation_Energy-OPLS-2005>
-224.098358154297

> <b_mmod_Minimization_Converged-OPLS-2005>
0

> <r_mmod_RMS_Derivative-OPLS-2005>
3.4287314414978

$$$$
88
                    3D
 Structure written by MMmdl.
153161  0  0  1  0            999 V2000
  -30.5974  -14.7342   20.4881 C   0  0  0  0  0  0
  -30.4296  -12.4528   19.4724 C   0  0  0  0  0  0
  -29.5041  -12.4987   18.2379 C   0  0  0  0  0  0
  -28.0370  -12.2971   18.6636 C   0  0  0  0  0  0
  -27.6353  -13.2177   19.8441 C   0  0  2  0  0  0
  -28.6733  -13.1633   20.9842 C   0  0  0  0  0  0
  -25.2524  -13.8159   20.5671 C   0  0  0  0  0  0
  -24.1804  -13.0447   20.9207 C   0  0  0  0  0  0
  -24.6348  -11.6902   20.8740 C   0  0  0  0  0  0
  -23.9022  -10.4296   21.0401 C   0  0  0  0  0  0
  -24.3584   -9.4224   21.9192 C   0  0  0  0  0  0
  -23.6279   -8.2252   22.0747 C   0  0  0  0  0  0
  -22.4272   -8.0281   21.3531 C   0  0  0  0  0  0
  -21.9895   -9.0249   20.4653 C   0  0  0  0  0  0
  -22.7195  -10.2134   20.3064 C   0  0  0  0  0  0
  -21.6845   -6.0729   22.5272 C   0  0  0  0  0  0
  -21.4016   -6.5642   23.8205 C   0  0  0  0  0  0
  -21.3661   -5.6804   24.9182 C   0  0  0  0  0  0
  -21.6017   -4.3060   24.7235 C   0  0  0  0  0  0
  -21.8820   -3.8148   23.4367 C   0  0  0  0  0  0
  -21.9200   -4.6958   22.3417 C   0  0  0  0  0  0
  -22.7849  -13.5261   21.1880 C   0  0  0  0  0  0
  -22.1660   -4.2127   21.0995 F   0  0  0  0  0  0
  -21.5621   -3.4555   25.7757 F   0  0  0  0  0  0
  -29.9780  -13.5103   20.4045 N   0  0  0  0  0  0
  -26.2892  -12.9324   20.3227 N   0  0  0  0  0  0
  -25.9260  -11.6479   20.5725 N   0  0  0  0  0  0
  -22.0492  -12.8239   22.0434 N   0  0  0  0  0  0
  -25.4304  -15.1884   20.4028 N   0  0  0  0  0  0
  -31.7887  -14.8505   20.1861 O   0  0  0  0  0  0
  -21.6653   -6.8867   21.4224 O   0  0  0  0  0  0
  -22.3543  -14.5570   20.6738 O   0  0  0  0  0  0
  -24.6291  -31.8561   23.2021 C   0  0  0  0  0  0
  -25.9117  -32.4764   23.8357 C   0  0  1  0  0  0
  -27.2103  -27.2685   20.1419 C   0  0  0  0  0  0
  -25.5916  -33.8559   24.2272 N   0  0  0  0  0  0
  -23.4275  -30.4776   21.5449 C   0  0  2  0  0  0
  -24.8775  -28.9327   20.1065 C   0  0  0  0  0  0
  -22.7500  -29.4591   22.4933 C   0  0  0  0  0  0
  -18.0318  -28.1370   22.8485 C   0  0  0  0  0  0
  -24.1479  -36.7276   23.2632 C   0  0  0  0  0  0
  -25.9729  -30.7711   21.3820 C   0  0  0  0  0  0
  -26.0474  -29.3963   20.7236 C   0  0  0  0  0  0
  -27.2221  -28.5779   20.7314 C   0  0  0  0  0  0
  -26.0290  -26.8814   19.4750 C   0  0  0  0  0  0
  -24.8736  -27.6843   19.4669 C   0  0  0  0  0  0
  -23.6450  -29.8138   20.1601 C   0  0  0  0  0  0
  -25.4103  -36.3059   24.0327 C   0  0  1  0  0  0
  -20.5906  -28.3691   23.1308 C   0  0  2  0  0  0
  -20.6800  -26.9420   22.5420 C   0  0  0  0  0  0
  -19.5809  -26.6455   21.5175 C   0  0  0  0  0  0
  -18.1980  -26.7925   22.1597 C   0  0  0  0  0  0
  -19.1557  -28.8852   23.2895 C   0  0  0  0  0  0
  -18.9444  -30.1455   23.8922 C   0  0  0  0  0  0
  -17.6431  -30.6567   24.0554 C   0  0  0  0  0  0
  -25.9049  -34.9435   23.5101 C   0  0  0  0  0  0
  -16.5343  -29.9039   23.6310 C   0  0  0  0  0  0
  -16.7300  -28.6453   23.0346 C   0  0  0  0  0  0
  -26.4504  -31.6585   25.0737 C   0  0  0  0  0  0
  -25.3750  -31.3730   26.1473 C   0  0  0  0  0  0
  -27.0360  -30.3008   24.6225 C   0  0  0  0  0  0
  -27.6075  -32.4316   25.7495 C   0  0  0  0  0  0
  -27.5570  -37.1784   24.8473 C   0  0  0  0  0  0
  -21.4197  -29.3073   22.3717 N   0  0  0  0  0  0
  -26.4284  -37.3757   23.9405 N   0  0  0  0  0  0
  -24.6958  -31.0504   22.1006 N   0  0  0  0  0  0
  -23.4211  -28.8081   23.2995 O   0  0  0  0  0  0
  -28.2571  -26.3240   20.1997 O   0  0  0  0  0  0
  -26.5625  -34.8912   22.4674 O   0  0  0  0  0  0
  -23.5438  -32.1374   23.7313 O   0  0  0  0  0  0
  -28.3768  -22.4405   21.3629 C   0  0  0  0  0  0
  -29.6108  -21.9234   19.6998 C   0  0  0  0  0  0
  -28.5423  -23.6181   20.6172 C   0  0  0  0  0  0
  -28.1554  -19.6227   22.4070 C   0  0  0  0  0  0
  -27.9083  -25.0474   20.9119 C   0  0  0  0  0  0
  -29.4098  -18.5803   20.4425 C   0  0  0  0  0  0
  -30.1766  -17.2889   21.0806 C   0  0  0  0  0  0
  -29.2557  -19.9148   21.3597 C   0  0  1  0  0  0
  -29.3470  -23.2410   19.5338 N   0  0  0  0  0  0
  -29.0534  -21.3282   20.7785 N   0  0  0  0  0  0
  -29.8060  -15.8447   20.7361 N   0  0  0  0  0  0
  -31.4695  -12.5854   19.1700 H   0  0  0  0  0  0
  -30.3778  -11.4779   19.9609 H   0  0  0  0  0  0
  -29.7913  -11.7326   17.5160 H   0  0  0  0  0  0
  -29.6060  -13.4580   17.7304 H   0  0  0  0  0  0
  -27.9240  -11.2520   18.9606 H   0  0  0  0  0  0
  -27.3661  -12.4460   17.8167 H   0  0  0  0  0  0
  -27.6274  -14.2329   19.4446 H   0  0  0  0  0  0
  -28.7043  -12.1729   21.4393 H   0  0  0  0  0  0
  -28.3979  -13.8538   21.7837 H   0  0  0  0  0  0
  -25.2709   -9.5727   22.4789 H   0  0  0  0  0  0
  -23.9992   -7.4642   22.7450 H   0  0  0  0  0  0
  -21.0837   -8.8772   19.8950 H   0  0  0  0  0  0
  -22.3640  -10.9689   19.6204 H   0  0  0  0  0  0
  -21.2000   -7.6150   23.9696 H   0  0  0  0  0  0
  -21.1472   -6.0547   25.9074 H   0  0  0  0  0  0
  -22.0590   -2.7602   23.2887 H   0  0  0  0  0  0
  -22.4123  -11.9892   22.4796 H   0  0  0  0  0  0
  -21.1109  -13.1249   22.2642 H   0  0  0  0  0  0
  -24.6731  -15.8535   20.5208 H   0  0  0  0  0  0
  -26.2759  -15.6115   20.0409 H   0  0  0  0  0  0
  -26.7175  -32.5419   23.1081 H   0  0  0  0  0  0
  -25.0050  -33.9710   25.0407 H   0  0  0  0  0  0
  -22.7216  -31.2992   21.3982 H   0  0  0  0  0  0
  -23.3745  -35.9613   23.3310 H   0  0  0  0  0  0
  -24.3558  -36.8883   22.2048 H   0  0  0  0  0  0
  -23.7244  -37.6484   23.6658 H   0  0  0  0  0  0
  -26.1098  -31.5334   20.6143 H   0  0  0  0  0  0
  -26.8520  -30.8229   22.0143 H   0  0  0  0  0  0
  -28.1133  -28.9174   21.2393 H   0  0  0  0  0  0
  -25.9854  -25.9195   18.9839 H   0  0  0  0  0  0
  -23.9814  -27.3276   18.9693 H   0  0  0  0  0  0
  -23.7613  -30.5914   19.4040 H   0  0  0  0  0  0
  -22.7685  -29.2391   19.8572 H   0  0  0  0  0  0
  -25.1279  -36.1916   25.0827 H   0  0  0  0  0  0
  -20.9978  -28.3282   24.1451 H   0  0  0  0  0  0
  -20.5684  -26.2289   23.3595 H   0  0  0  0  0  0
  -21.6687  -26.7445   22.1239 H   0  0  0  0  0  0
  -19.7002  -25.6406   21.1123 H   0  0  0  0  0  0
  -19.6740  -27.3332   20.6756 H   0  0  0  0  0  0
  -17.4266  -26.6641   21.3993 H   0  0  0  0  0  0
  -18.0426  -26.0029   22.8972 H   0  0  0  0  0  0
  -19.7897  -30.7277   24.2341 H   0  0  0  0  0  0
  -17.4958  -31.6243   24.5153 H   0  0  0  0  0  0
  -15.5331  -30.2923   23.7629 H   0  0  0  0  0  0
  -15.8711  -28.0734   22.7092 H   0  0  0  0  0  0
  -24.5920  -30.7076   25.7803 H   0  0  0  0  0  0
  -24.8944  -32.2905   26.4897 H   0  0  0  0  0  0
  -25.8074  -30.8910   27.0254 H   0  0  0  0  0  0
  -26.2961  -29.6738   24.1239 H   0  0  0  0  0  0
  -27.4040  -29.7265   25.4734 H   0  0  0  0  0  0
  -27.8835  -30.4266   23.9482 H   0  0  0  0  0  0
  -27.2709  -33.3611   26.2089 H   0  0  0  0  0  0
  -28.3886  -32.6875   25.0326 H   0  0  0  0  0  0
  -28.0773  -31.8444   26.5394 H   0  0  0  0  0  0
  -28.2600  -38.0060   24.7480 H   0  0  0  0  0  0
  -28.1042  -36.2587   24.6343 H   0  0  0  0  0  0
  -27.2285  -37.1501   25.8874 H   0  0  0  0  0  0
  -20.9377  -29.8844   21.6970 H   0  0  0  0  0  0
  -26.0165  -38.2831   24.1407 H   0  0  0  0  0  0
  -27.8245  -22.3309   22.2878 H   0  0  0  0  0  0
  -30.2571  -21.3803   19.0278 H   0  0  0  0  0  0
  -28.1753  -20.3326   23.2343 H   0  0  0  0  0  0
  -28.2735  -18.6350   22.8497 H   0  0  0  0  0  0
  -27.1610  -19.6499   21.9580 H   0  0  0  0  0  0
  -28.1105  -25.2720   21.9595 H   0  0  0  0  0  0
  -26.8263  -24.9033   20.9007 H   0  0  0  0  0  0
  -28.4128  -18.2787   20.1212 H   0  0  0  0  0  0
  -29.9361  -18.8481   19.5273 H   0  0  0  0  0  0
  -31.2512  -17.4155   20.9310 H   0  0  0  0  0  0
  -30.0534  -17.3414   22.1617 H   0  0  0  0  0  0
  -30.1962  -19.9873   21.9079 H   0  0  0  0  0  0
  -28.8312  -15.6186   20.8640 H   0  0  0  0  0  0
  1 25  1  0  0  0
  1 30  2  0  0  0
  1 81  1  0  0  0
  2  3  1  0  0  0
  2 25  1  0  0  0
  2 82  1  0  0  0
  2 83  1  0  0  0
  3  4  1  0  0  0
  3 84  1  0  0  0
  3 85  1  0  0  0
  4  5  1  0  0  0
  4 86  1  0  0  0
  4 87  1  0  0  0
  5  6  1  0  0  0
  5 26  1  0  0  0
  5 88  1  0  0  0
  6 25  1  0  0  0
  6 89  1  0  0  0
  6 90  1  0  0  0
  7  8  2  0  0  0
  7 26  1  0  0  0
  7 29  1  0  0  0
  8  9  1  0  0  0
  8 22  1  0  0  0
  9 10  1  0  0  0
  9 27  2  0  0  0
 10 11  2  0  0  0
 10 15  1  0  0  0
 11 12  1  0  0  0
 11 91  1  0  0  0
 12 13  2  0  0  0
 12 92  1  0  0  0
 13 14  1  0  0  0
 13 31  1  0  0  0
 14 15  2  0  0  0
 14 93  1  0  0  0
 15 94  1  0  0  0
 16 17  2  0  0  0
 16 21  1  0  0  0
 16 31  1  0  0  0
 17 18  1  0  0  0
 17 95  1  0  0  0
 18 19  2  0  0  0
 18 96  1  0  0  0
 19 20  1  0  0  0
 19 24  1  0  0  0
 20 21  2  0  0  0
 20 97  1  0  0  0
 21 23  1  0  0  0
 22 28  1  0  0  0
 22 32  2  0  0  0
 26 27  1  0  0  0
 28 98  1  0  0  0
 28 99  1  0  0  0
 29100  1  0  0  0
 29101  1  0  0  0
 33 34  1  0  0  0
 33 66  1  0  0  0
 33 70  2  0  0  0
 34 36  1  0  0  0
 34 59  1  0  0  0
 34102  1  0  0  0
 35 44  2  0  0  0
 35 45  1  0  0  0
 35 68  1  0  0  0
 36 56  1  0  0  0
 36103  1  0  0  0
 37 39  1  0  0  0
 37 47  1  0  0  0
 37 66  1  0  0  0
 37104  1  0  0  0
 38 43  2  0  0  0
 38 46  1  0  0  0
 38 47  1  0  0  0
 39 64  1  0  0  0
 39 67  2  0  0  0
 40 52  1  0  0  0
 40 53  2  0  0  0
 40 58  1  0  0  0
 41105  1  0  0  0
 41106  1  0  0  0
 41107  1  0  0  0
 41 48  1  0  0  0
 42 43  1  0  0  0
 42 66  1  0  0  0
 42108  1  0  0  0
 42109  1  0  0  0
 43 44  1  0  0  0
 44110  1  0  0  0
 45 46  2  0  0  0
 45111  1  0  0  0
 46112  1  0  0  0
 47113  1  0  0  0
 47114  1  0  0  0
 48 56  1  0  0  0
 48 65  1  0  0  0
 48115  1  0  0  0
 49 50  1  0  0  0
 49 53  1  0  0  0
 49 64  1  0  0  0
 49116  1  0  0  0
 50 51  1  0  0  0
 50117  1  0  0  0
 50118  1  0  0  0
 51 52  1  0  0  0
 51119  1  0  0  0
 51120  1  0  0  0
 52121  1  0  0  0
 52122  1  0  0  0
 53 54  1  0  0  0
 54 55  2  0  0  0
 54123  1  0  0  0
 55 57  1  0  0  0
 55124  1  0  0  0
 56 69  2  0  0  0
 57 58  2  0  0  0
 57125  1  0  0  0
 58126  1  0  0  0
 59 60  1  0  0  0
 59 61  1  0  0  0
 59 62  1  0  0  0
 60127  1  0  0  0
 60128  1  0  0  0
 60129  1  0  0  0
 61130  1  0  0  0
 61131  1  0  0  0
 61132  1  0  0  0
 62133  1  0  0  0
 62134  1  0  0  0
 62135  1  0  0  0
 63 65  1  0  0  0
 63136  1  0  0  0
 63137  1  0  0  0
 63138  1  0  0  0
 64139  1  0  0  0
 65140  1  0  0  0
 68 75  1  0  0  0
 71 73  2  0  0  0
 71 80  1  0  0  0
 71141  1  0  0  0
 72 79  2  0  0  0
 72 80  1  0  0  0
 72142  1  0  0  0
 73 75  1  0  0  0
 73 79  1  0  0  0
 74143  1  0  0  0
 74144  1  0  0  0
 74145  1  0  0  0
 74 78  1  0  0  0
 75146  1  0  0  0
 75147  1  0  0  0
 76 77  1  0  0  0
 76 78  1  0  0  0
 76148  1  0  0  0
 76149  1  0  0  0
 77 81  1  0  0  0
 77150  1  0  0  0
 77151  1  0  0  0
 78 80  1  0  0  0
 78152  1  0  0  0
 81153  1  0  0  0
M  ISO  4   1 100  68 101  75 101  81 100
M  END
> <chiral flag>
0

> <version>
0

> <s_m_source_file>
/data/baiqing/PycharmProjects/Reinvent-master-3.2/result/LINK_invent/BTK/process_docking_weight1_custom_sum_contain_oxygen_bond_distance_aromatic_linkinvent_7_9_3/rearranged_h_0070.sdf

> <i_m_source_file_index>
88

> <r_mmod_Potential_Energy-OPLS-2005>
216.044281005859

> <r_mmod_Stretch_Energy-OPLS-2005>
121.544967651367

> <r_mmod_Bend_Energy-OPLS-2005>
185.262420654297

> <r_mmod_Torsional_Energy-OPLS-2005>
261.436706542969

> <r_mmod_Improper_Torsional_Energy-OPLS-2005>
5.48777151107788

> <r_mmod_Van_der_Waal_Energy-OPLS-2005>
119.369064331055

> <r_mmod_Electrostatic_Energy-OPLS-2005>
-331.115203857422

> <r_mmod_Solvation_Energy-OPLS-2005>
-235.624816894531

> <b_mmod_Minimization_Converged-OPLS-2005>
0

> <r_mmod_RMS_Derivative-OPLS-2005>
3.65196084976196

$$$$
89
                    3D
 Structure written by MMmdl.
175183  0  0  1  0            999 V2000
  -30.6454  -14.5746   20.5460 C   0  0  0  0  0  0
  -30.4355  -12.3635   19.4454 C   0  0  0  0  0  0
  -29.5110  -12.5185   18.2177 C   0  0  0  0  0  0
  -28.0294  -12.3612   18.6176 C   0  0  0  0  0  0
  -27.6566  -13.2098   19.8618 C   0  0  2  0  0  0
  -28.6951  -13.0309   20.9906 C   0  0  0  0  0  0
  -25.2576  -13.8158   20.5606 C   0  0  0  0  0  0
  -24.1832  -13.0452   20.9127 C   0  0  0  0  0  0
  -24.6371  -11.6920   20.8669 C   0  0  0  0  0  0
  -23.9031  -10.4307   21.0371 C   0  0  0  0  0  0
  -24.3594   -9.4242   21.9146 C   0  0  0  0  0  0
  -23.6287   -8.2274   22.0736 C   0  0  0  0  0  0
  -22.4276   -8.0284   21.3539 C   0  0  0  0  0  0
  -21.9897   -9.0240   20.4639 C   0  0  0  0  0  0
  -22.7206  -10.2134   20.3034 C   0  0  0  0  0  0
  -21.6864   -6.0719   22.5268 C   0  0  0  0  0  0
  -21.4007   -6.5624   23.8193 C   0  0  0  0  0  0
  -21.3663   -5.6779   24.9157 C   0  0  0  0  0  0
  -21.6065   -4.3047   24.7213 C   0  0  0  0  0  0
  -21.8820   -3.8128   23.4333 C   0  0  0  0  0  0
  -21.9190   -4.6949   22.3388 C   0  0  0  0  0  0
  -22.7850  -13.5270   21.1786 C   0  0  0  0  0  0
  -22.1667   -4.2134   21.0970 F   0  0  0  0  0  0
  -21.5652   -3.4531   25.7721 F   0  0  0  0  0  0
  -30.0197  -13.3655   20.4419 N   0  0  0  0  0  0
  -26.2986  -12.9323   20.3242 N   0  0  0  0  0  0
  -25.9299  -11.6488   20.5677 N   0  0  0  0  0  0
  -22.0484  -12.8280   22.0352 N   0  0  0  0  0  0
  -25.4423  -15.1857   20.4008 N   0  0  0  0  0  0
  -31.7862  -14.7653   20.1153 O   0  0  0  0  0  0
  -21.6662   -6.8867   21.4228 O   0  0  0  0  0  0
  -22.3550  -14.5575   20.6632 O   0  0  0  0  0  0
  -24.6216  -31.8643   23.2087 C   0  0  0  0  0  0
  -25.9080  -32.4811   23.8405 C   0  0  1  0  0  0
  -27.2209  -27.3726   20.1234 C   0  0  0  0  0  0
  -25.5916  -33.8606   24.2338 N   0  0  0  0  0  0
  -23.4135  -30.4910   21.5465 C   0  0  2  0  0  0
  -24.8596  -28.9537   20.1081 C   0  0  0  0  0  0
  -22.7466  -29.4649   22.4921 C   0  0  0  0  0  0
  -18.0303  -28.1434   22.8476 C   0  0  0  0  0  0
  -24.1481  -36.7323   23.2634 C   0  0  0  0  0  0
  -25.9476  -30.8138   21.3685 C   0  0  0  0  0  0
  -26.0224  -29.4430   20.7181 C   0  0  0  0  0  0
  -27.2088  -28.6621   20.7167 C   0  0  0  0  0  0
  -26.0440  -26.9179   19.4915 C   0  0  0  0  0  0
  -24.8703  -27.6954   19.4837 C   0  0  0  0  0  0
  -23.6283  -29.8347   20.1563 C   0  0  0  0  0  0
  -25.4090  -36.3107   24.0344 C   0  0  1  0  0  0
  -20.5891  -28.3712   23.1306 C   0  0  2  0  0  0
  -20.6799  -26.9437   22.5423 C   0  0  0  0  0  0
  -19.5764  -26.6421   21.5231 C   0  0  0  0  0  0
  -18.1946  -26.7979   22.1629 C   0  0  0  0  0  0
  -19.1550  -28.8885   23.2896 C   0  0  0  0  0  0
  -18.9476  -30.1488   23.8910 C   0  0  0  0  0  0
  -17.6473  -30.6621   24.0593 C   0  0  0  0  0  0
  -25.9028  -34.9472   23.5133 C   0  0  0  0  0  0
  -16.5367  -29.9131   23.6331 C   0  0  0  0  0  0
  -16.7287  -28.6565   23.0319 C   0  0  0  0  0  0
  -26.4472  -31.6595   25.0748 C   0  0  0  0  0  0
  -25.3738  -31.3717   26.1505 C   0  0  0  0  0  0
  -27.0303  -30.3042   24.6114 C   0  0  0  0  0  0
  -27.6053  -32.4302   25.7517 C   0  0  0  0  0  0
  -27.5577  -37.1822   24.8451 C   0  0  0  0  0  0
  -21.4181  -29.3064   22.3702 N   0  0  0  0  0  0
  -26.4273  -37.3804   23.9422 N   0  0  0  0  0  0
  -24.6806  -31.0726   22.0992 N   0  0  0  0  0  0
  -23.4212  -28.8175   23.2977 O   0  0  0  0  0  0
  -28.3595  -26.5750   20.1303 O   0  0  0  0  0  0
  -26.5587  -34.8929   22.4694 O   0  0  0  0  0  0
  -23.5392  -32.1394   23.7446 O   0  0  0  0  0  0
  -27.9761  -21.3492   19.6434 C   0  0  0  0  0  0
  -29.0613  -21.5946   20.4385 C   0  0  0  0  0  0
  -28.9340  -19.3536   20.0315 C   0  0  0  0  0  0
  -29.8854  -17.5736   18.5120 C   0  0  0  0  0  0
  -23.0213  -19.9853   18.2291 C   0  0  0  0  0  0
  -24.1954  -17.7791   18.2081 C   0  0  0  0  0  0
  -24.6112  -19.4565   16.3798 C   0  0  0  0  0  0
  -29.5828  -22.9128   21.0060 C   0  0  0  0  0  0
  -29.3429  -24.2251   20.1621 C   0  0  0  0  0  0
  -25.4726  -19.9176   18.7413 C   0  0  0  0  0  0
  -26.9032  -19.3605   18.5302 C   0  0  0  0  0  0
  -30.0916  -17.0808   20.9981 C   0  0  0  0  0  0
  -28.2086  -25.2040   20.6162 C   0  0  0  0  0  0
  -29.2635  -17.8401   19.8941 C   0  0  1  0  0  0
  -24.3463  -19.2768   17.8872 C   0  0  0  0  0  0
  -27.9085  -19.9944   19.4143 N   0  0  0  0  0  0
  -29.6199  -20.3377   20.6590 N   0  3  0  0  0  0
  -29.8677  -15.5978   20.9892 N   0  0  0  0  0  0
  -31.4802  -12.4836   19.1560 H   0  0  0  0  0  0
  -30.3551  -11.3617   19.8697 H   0  0  0  0  0  0
  -29.7787  -11.7894   17.4525 H   0  0  0  0  0  0
  -29.6597  -13.5011   17.7660 H   0  0  0  0  0  0
  -27.8450  -11.3046   18.8131 H   0  0  0  0  0  0
  -27.3873  -12.6314   17.7780 H   0  0  0  0  0  0
  -27.6909  -14.2515   19.5416 H   0  0  0  0  0  0
  -28.6917  -12.0019   21.3512 H   0  0  0  0  0  0
  -28.4374  -13.6433   21.8534 H   0  0  0  0  0  0
  -25.2745   -9.5744   22.4692 H   0  0  0  0  0  0
  -24.0014   -7.4681   22.7454 H   0  0  0  0  0  0
  -21.0834   -8.8729   19.8943 H   0  0  0  0  0  0
  -22.3636  -10.9645   19.6133 H   0  0  0  0  0  0
  -21.1998   -7.6130   23.9687 H   0  0  0  0  0  0
  -21.1493   -6.0513   25.9060 H   0  0  0  0  0  0
  -22.0602   -2.7595   23.2829 H   0  0  0  0  0  0
  -22.4101  -11.9974   22.4791 H   0  0  0  0  0  0
  -21.1078  -13.1284   22.2489 H   0  0  0  0  0  0
  -24.6809  -15.8492   20.4765 H   0  0  0  0  0  0
  -26.2988  -15.5955   20.0551 H   0  0  0  0  0  0
  -26.7154  -32.5504   23.1172 H   0  0  0  0  0  0
  -25.0104  -33.9744   25.0506 H   0  0  0  0  0  0
  -22.7053  -31.3114   21.4118 H   0  0  0  0  0  0
  -23.3740  -35.9658   23.3272 H   0  0  0  0  0  0
  -24.3601  -36.8960   22.2056 H   0  0  0  0  0  0
  -23.7223  -37.6522   23.6653 H   0  0  0  0  0  0
  -26.0632  -31.5712   20.5923 H   0  0  0  0  0  0
  -26.8376  -30.8741   21.9838 H   0  0  0  0  0  0
  -28.1056  -29.0293   21.1954 H   0  0  0  0  0  0
  -26.0257  -25.9603   18.9924 H   0  0  0  0  0  0
  -23.9842  -27.3209   18.9906 H   0  0  0  0  0  0
  -23.7580  -30.6216   19.4115 H   0  0  0  0  0  0
  -22.7460  -29.2753   19.8408 H   0  0  0  0  0  0
  -25.1260  -36.1980   25.0838 H   0  0  0  0  0  0
  -20.9984  -28.3304   24.1423 H   0  0  0  0  0  0
  -20.5755  -26.2305   23.3615 H   0  0  0  0  0  0
  -21.6668  -26.7530   22.1180 H   0  0  0  0  0  0
  -19.6914  -25.6334   21.1268 H   0  0  0  0  0  0
  -19.6716  -27.3232   20.6763 H   0  0  0  0  0  0
  -17.4219  -26.6735   21.4029 H   0  0  0  0  0  0
  -18.0328  -26.0147   22.9049 H   0  0  0  0  0  0
  -19.7951  -30.7320   24.2260 H   0  0  0  0  0  0
  -17.5035  -31.6275   24.5241 H   0  0  0  0  0  0
  -15.5369  -30.3043   23.7650 H   0  0  0  0  0  0
  -15.8699  -28.0927   22.6954 H   0  0  0  0  0  0
  -24.5904  -30.7046   25.7888 H   0  0  0  0  0  0
  -24.8919  -32.2864   26.4967 H   0  0  0  0  0  0
  -25.8111  -30.8915   27.0263 H   0  0  0  0  0  0
  -26.2847  -29.6826   24.1130 H   0  0  0  0  0  0
  -27.4046  -29.7266   25.4579 H   0  0  0  0  0  0
  -27.8703  -30.4400   23.9294 H   0  0  0  0  0  0
  -27.2682  -33.3600   26.2116 H   0  0  0  0  0  0
  -28.3861  -32.6851   25.0340 H   0  0  0  0  0  0
  -28.0701  -31.8384   26.5410 H   0  0  0  0  0  0
  -28.2579  -38.0142   24.7539 H   0  0  0  0  0  0
  -28.1103  -36.2679   24.6224 H   0  0  0  0  0  0
  -27.2321  -37.1418   25.8863 H   0  0  0  0  0  0
  -20.9335  -29.8828   21.6966 H   0  0  0  0  0  0
  -26.0161  -38.2881   24.1450 H   0  0  0  0  0  0
  -27.2650  -22.0460   19.2249 H   0  0  0  0  0  0
  -29.2640  -17.9645   17.7072 H   0  0  0  0  0  0
  -30.0191  -16.5076   18.3263 H   0  0  0  0  0  0
  -30.8640  -18.0503   18.4329 H   0  0  0  0  0  0
  -22.1888  -19.5813   17.6508 H   0  0  0  0  0  0
  -23.0712  -21.0558   18.0218 H   0  0  0  0  0  0
  -22.7690  -19.8733   19.2840 H   0  0  0  0  0  0
  -23.3374  -17.3483   17.6910 H   0  0  0  0  0  0
  -24.0458  -17.6169   19.2760 H   0  0  0  0  0  0
  -25.0695  -17.2021   17.9049 H   0  0  0  0  0  0
  -23.7750  -19.0810   15.7861 H   0  0  0  0  0  0
  -25.5027  -18.9218   16.0533 H   0  0  0  0  0  0
  -24.7471  -20.5062   16.1176 H   0  0  0  0  0  0
  -30.6590  -22.7959   21.1426 H   0  0  0  0  0  0
  -29.1782  -23.0387   22.0106 H   0  0  0  0  0  0
  -29.2525  -23.9947   19.0998 H   0  0  0  0  0  0
  -30.2637  -24.8037   20.2386 H   0  0  0  0  0  0
  -25.4684  -20.9881   18.5367 H   0  0  0  0  0  0
  -25.2190  -19.8195   19.7986 H   0  0  0  0  0  0
  -27.2365  -19.5329   17.5070 H   0  0  0  0  0  0
  -26.9011  -18.2861   18.6814 H   0  0  0  0  0  0
  -29.7929  -17.4426   21.9837 H   0  0  0  0  0  0
  -31.1543  -17.3120   20.9062 H   0  0  0  0  0  0
  -28.2037  -25.2612   21.7055 H   0  0  0  0  0  0
  -27.2518  -24.7586   20.3442 H   0  0  0  0  0  0
  -28.2880  -17.3615   19.9303 H   0  0  0  0  0  0
  -30.4577  -20.1778   21.2087 H   0  0  0  0  0  0
  -28.9659  -15.3014   21.3304 H   0  0  0  0  0  0
  1 25  1  0  0  0
  1 30  2  0  0  0
  1 88  1  0  0  0
  2  3  1  0  0  0
  2 25  1  0  0  0
  2 89  1  0  0  0
  2 90  1  0  0  0
  3  4  1  0  0  0
  3 91  1  0  0  0
  3 92  1  0  0  0
  4  5  1  0  0  0
  4 93  1  0  0  0
  4 94  1  0  0  0
  5  6  1  0  0  0
  5 26  1  0  0  0
  5 95  1  0  0  0
  6 25  1  0  0  0
  6 96  1  0  0  0
  6 97  1  0  0  0
  7  8  2  0  0  0
  7 26  1  0  0  0
  7 29  1  0  0  0
  8  9  1  0  0  0
  8 22  1  0  0  0
  9 10  1  0  0  0
  9 27  2  0  0  0
 10 11  2  0  0  0
 10 15  1  0  0  0
 11 12  1  0  0  0
 11 98  1  0  0  0
 12 13  2  0  0  0
 12 99  1  0  0  0
 13 14  1  0  0  0
 13 31  1  0  0  0
 14 15  2  0  0  0
 14100  1  0  0  0
 15101  1  0  0  0
 16 17  2  0  0  0
 16 21  1  0  0  0
 16 31  1  0  0  0
 17 18  1  0  0  0
 17102  1  0  0  0
 18 19  2  0  0  0
 18103  1  0  0  0
 19 20  1  0  0  0
 19 24  1  0  0  0
 20 21  2  0  0  0
 20104  1  0  0  0
 21 23  1  0  0  0
 22 28  1  0  0  0
 22 32  2  0  0  0
 26 27  1  0  0  0
 28105  1  0  0  0
 28106  1  0  0  0
 29107  1  0  0  0
 29108  1  0  0  0
 33 34  1  0  0  0
 33 66  1  0  0  0
 33 70  2  0  0  0
 34 36  1  0  0  0
 34 59  1  0  0  0
 34109  1  0  0  0
 35 44  2  0  0  0
 35 45  1  0  0  0
 35 68  1  0  0  0
 36 56  1  0  0  0
 36110  1  0  0  0
 37 39  1  0  0  0
 37 47  1  0  0  0
 37 66  1  0  0  0
 37111  1  0  0  0
 38 43  2  0  0  0
 38 46  1  0  0  0
 38 47  1  0  0  0
 39 64  1  0  0  0
 39 67  2  0  0  0
 40 52  1  0  0  0
 40 53  2  0  0  0
 40 58  1  0  0  0
 41112  1  0  0  0
 41113  1  0  0  0
 41114  1  0  0  0
 41 48  1  0  0  0
 42 43  1  0  0  0
 42 66  1  0  0  0
 42115  1  0  0  0
 42116  1  0  0  0
 43 44  1  0  0  0
 44117  1  0  0  0
 45 46  2  0  0  0
 45118  1  0  0  0
 46119  1  0  0  0
 47120  1  0  0  0
 47121  1  0  0  0
 48 56  1  0  0  0
 48 65  1  0  0  0
 48122  1  0  0  0
 49 50  1  0  0  0
 49 53  1  0  0  0
 49 64  1  0  0  0
 49123  1  0  0  0
 50 51  1  0  0  0
 50124  1  0  0  0
 50125  1  0  0  0
 51 52  1  0  0  0
 51126  1  0  0  0
 51127  1  0  0  0
 52128  1  0  0  0
 52129  1  0  0  0
 53 54  1  0  0  0
 54 55  2  0  0  0
 54130  1  0  0  0
 55 57  1  0  0  0
 55131  1  0  0  0
 56 69  2  0  0  0
 57 58  2  0  0  0
 57132  1  0  0  0
 58133  1  0  0  0
 59 60  1  0  0  0
 59 61  1  0  0  0
 59 62  1  0  0  0
 60134  1  0  0  0
 60135  1  0  0  0
 60136  1  0  0  0
 61137  1  0  0  0
 61138  1  0  0  0
 61139  1  0  0  0
 62140  1  0  0  0
 62141  1  0  0  0
 62142  1  0  0  0
 63 65  1  0  0  0
 63143  1  0  0  0
 63144  1  0  0  0
 63145  1  0  0  0
 64146  1  0  0  0
 65147  1  0  0  0
 68 83  1  0  0  0
 71 72  2  0  0  0
 71 86  1  0  0  0
 71148  1  0  0  0
 72 78  1  0  0  0
 72 87  1  0  0  0
 73 84  1  0  0  0
 73 86  1  0  0  0
 73 87  2  0  0  0
 74149  1  0  0  0
 74150  1  0  0  0
 74151  1  0  0  0
 74 84  1  0  0  0
 75152  1  0  0  0
 75153  1  0  0  0
 75154  1  0  0  0
 75 85  1  0  0  0
 76 85  1  0  0  0
 76155  1  0  0  0
 76156  1  0  0  0
 76157  1  0  0  0
 77 85  1  0  0  0
 77158  1  0  0  0
 77159  1  0  0  0
 77160  1  0  0  0
 78 79  1  0  0  0
 78161  1  0  0  0
 78162  1  0  0  0
 79 83  1  0  0  0
 79163  1  0  0  0
 79164  1  0  0  0
 80 81  1  0  0  0
 80 85  1  0  0  0
 80165  1  0  0  0
 80166  1  0  0  0
 81 86  1  0  0  0
 81167  1  0  0  0
 81168  1  0  0  0
 82 84  1  0  0  0
 82 88  1  0  0  0
 82169  1  0  0  0
 82170  1  0  0  0
 83171  1  0  0  0
 83172  1  0  0  0
 84173  1  0  0  0
 87174  1  0  0  0
 88175  1  0  0  0
M  CHG  1  87   1
M  ISO  4   1 100  68 101  83 101  88 100
M  END
> <chiral flag>
0

> <version>
0

> <s_m_source_file>
/data/baiqing/PycharmProjects/Reinvent-master-3.2/result/LINK_invent/BTK/process_docking_weight1_custom_sum_contain_oxygen_bond_distance_aromatic_linkinvent_7_9_3/rearranged_h_0070.sdf

> <i_m_source_file_index>
89

> <r_mmod_Potential_Energy-OPLS-2005>
-42.116039276123

> <r_mmod_Stretch_Energy-OPLS-2005>
59.7979736328125

> <r_mmod_Bend_Energy-OPLS-2005>
131.231262207031

> <r_mmod_Torsional_Energy-OPLS-2005>
263.205810546875

> <r_mmod_Improper_Torsional_Energy-OPLS-2005>
4.59230518341064

> <r_mmod_Van_der_Waal_Energy-OPLS-2005>
116.011085510254

> <r_mmod_Electrostatic_Energy-OPLS-2005>
-231.503341674805

> <r_mmod_Solvation_Energy-OPLS-2005>
-414.428131103516

> <b_mmod_Minimization_Converged-OPLS-2005>
0

> <r_mmod_RMS_Derivative-OPLS-2005>
3.04666519165039

$$$$
90
                    3D
 Structure written by MMmdl.
151159  0  0  1  0            999 V2000
  -30.5464  -14.9202   20.3966 C   0  0  0  0  0  0
  -30.4447  -12.5561   19.4901 C   0  0  0  0  0  0
  -29.5210  -12.5249   18.2473 C   0  0  0  0  0  0
  -28.0495  -12.3248   18.6589 C   0  0  0  0  0  0
  -27.6380  -13.2448   19.8382 C   0  0  2  0  0  0
  -28.6844  -13.2328   20.9716 C   0  0  0  0  0  0
  -25.2530  -13.8199   20.5709 C   0  0  0  0  0  0
  -24.1825  -13.0431   20.9187 C   0  0  0  0  0  0
  -24.6426  -11.6904   20.8739 C   0  0  0  0  0  0
  -23.9103  -10.4285   21.0421 C   0  0  0  0  0  0
  -24.3649   -9.4193   21.9194 C   0  0  0  0  0  0
  -23.6310   -8.2239   22.0772 C   0  0  0  0  0  0
  -22.4294   -8.0294   21.3553 C   0  0  0  0  0  0
  -21.9939   -9.0275   20.4651 C   0  0  0  0  0  0
  -22.7284  -10.2139   20.3065 C   0  0  0  0  0  0
  -21.6841   -6.0738   22.5277 C   0  0  0  0  0  0
  -21.4003   -6.5633   23.8216 C   0  0  0  0  0  0
  -21.3667   -5.6795   24.9178 C   0  0  0  0  0  0
  -21.6051   -4.3061   24.7213 C   0  0  0  0  0  0
  -21.8833   -3.8148   23.4343 C   0  0  0  0  0  0
  -21.9202   -4.6970   22.3402 C   0  0  0  0  0  0
  -22.7843  -13.5200   21.1855 C   0  0  0  0  0  0
  -22.1687   -4.2157   21.0976 F   0  0  0  0  0  0
  -21.5631   -3.4553   25.7740 F   0  0  0  0  0  0
  -29.9655  -13.6504   20.3850 N   0  0  0  0  0  0
  -26.2954  -12.9429   20.3258 N   0  0  0  0  0  0
  -25.9358  -11.6547   20.5721 N   0  0  0  0  0  0
  -22.0504  -12.8188   22.0408 N   0  0  0  0  0  0
  -25.4271  -15.1932   20.4197 N   0  0  0  0  0  0
  -31.7463  -14.9475   20.0873 O   0  0  0  0  0  0
  -21.6645   -6.8898   21.4248 O   0  0  0  0  0  0
  -22.3514  -14.5506   20.6723 O   0  0  0  0  0  0
  -24.6431  -31.8461   23.1934 C   0  0  0  0  0  0
  -25.9209  -32.4720   23.8306 C   0  0  1  0  0  0
  -27.2140  -27.1491   20.1167 C   0  0  0  0  0  0
  -25.5971  -33.8525   24.2234 N   0  0  0  0  0  0
  -23.4447  -30.4672   21.5407 C   0  0  2  0  0  0
  -24.8910  -28.8980   20.1095 C   0  0  0  0  0  0
  -22.7553  -29.4560   22.4894 C   0  0  0  0  0  0
  -18.0279  -28.1395   22.8451 C   0  0  0  0  0  0
  -24.1497  -36.7245   23.2640 C   0  0  0  0  0  0
  -26.0031  -30.7179   21.3936 C   0  0  0  0  0  0
  -26.0705  -29.3320   20.7272 C   0  0  0  0  0  0
  -27.2305  -28.4706   20.7195 C   0  0  0  0  0  0
  -26.0123  -26.8269   19.4457 C   0  0  0  0  0  0
  -24.8736  -27.6577   19.4578 C   0  0  0  0  0  0
  -23.6669  -29.7976   20.1598 C   0  0  0  0  0  0
  -25.4133  -36.3057   24.0322 C   0  0  1  0  0  0
  -20.5895  -28.3714   23.1229 C   0  0  2  0  0  0
  -20.6766  -26.9425   22.5394 C   0  0  0  0  0  0
  -19.5762  -26.6374   21.5179 C   0  0  0  0  0  0
  -18.1932  -26.7935   22.1585 C   0  0  0  0  0  0
  -19.1540  -28.8871   23.2829 C   0  0  0  0  0  0
  -18.9468  -30.1461   23.8860 C   0  0  0  0  0  0
  -17.6467  -30.6598   24.0544 C   0  0  0  0  0  0
  -25.9078  -34.9418   23.5085 C   0  0  0  0  0  0
  -16.5356  -29.9095   23.6339 C   0  0  0  0  0  0
  -16.7268  -28.6509   23.0362 C   0  0  0  0  0  0
  -26.4539  -31.6577   25.0740 C   0  0  0  0  0  0
  -25.3728  -31.3737   26.1432 C   0  0  0  0  0  0
  -27.0410  -30.2985   24.6327 C   0  0  0  0  0  0
  -27.6091  -32.4331   25.7521 C   0  0  0  0  0  0
  -27.5597  -37.1778   24.8463 C   0  0  0  0  0  0
  -21.4245  -29.3057   22.3626 N   0  0  0  0  0  0
  -26.4308  -37.3767   23.9415 N   0  0  0  0  0  0
  -24.7169  -31.0309   22.0971 N   0  0  0  0  0  0
  -23.4203  -28.8084   23.3016 O   0  0  0  0  0  0
  -28.2693  -26.1689   20.1986 O   0  0  0  0  0  0
  -26.5653  -34.8901   22.4659 O   0  0  0  0  0  0
  -23.5556  -32.1336   23.7161 O   0  0  0  0  0  0
  -29.4505  -19.2067   18.0966 C   0  0  0  0  0  0
  -29.6280  -17.9538   17.4776 C   0  0  0  0  0  0
  -29.4708  -18.9979   19.4539 C   0  0  0  0  0  0
  -29.2579  -20.3068   20.3848 C   0  0  0  0  0  0
  -28.8606  -21.8043   19.7078 C   0  0  0  0  0  0
  -28.8209  -23.3188   20.4343 C   0  0  0  0  0  0
  -28.1078  -24.6832   19.7680 C   0  0  0  0  0  0
  -29.8015  -16.3944   20.6847 C   0  0  1  0  0  0
  -29.7542  -16.9857   18.3530 N   0  0  0  0  0  0
  -29.7117  -17.5243   19.6028 N   0  0  0  0  0  0
  -28.5604  -16.1788   21.1269 F   0  0  0  0  0  0
  -31.4773  -12.7020   19.1703 H   0  0  0  0  0  0
  -30.4341  -11.5983   20.0139 H   0  0  0  0  0  0
  -29.8297  -11.7317   17.5645 H   0  0  0  0  0  0
  -29.6217  -13.4603   17.6966 H   0  0  0  0  0  0
  -27.9254  -11.2793   18.9441 H   0  0  0  0  0  0
  -27.3909  -12.4911   17.8053 H   0  0  0  0  0  0
  -27.6138  -14.2553   19.4260 H   0  0  0  0  0  0
  -28.7637  -12.2384   21.4141 H   0  0  0  0  0  0
  -28.3909  -13.8967   21.7843 H   0  0  0  0  0  0
  -25.2819   -9.5643   22.4744 H   0  0  0  0  0  0
  -24.0025   -7.4620   22.7478 H   0  0  0  0  0  0
  -21.0887   -8.8797   19.8929 H   0  0  0  0  0  0
  -22.3788  -10.9680   19.6162 H   0  0  0  0  0  0
  -21.1976   -7.6148   23.9705 H   0  0  0  0  0  0
  -21.1486   -6.0532   25.9081 H   0  0  0  0  0  0
  -22.0606   -2.7613   23.2838 H   0  0  0  0  0  0
  -22.4172  -11.9854   22.4758 H   0  0  0  0  0  0
  -21.1115  -13.1180   22.2634 H   0  0  0  0  0  0
  -24.6747  -15.8608   20.5524 H   0  0  0  0  0  0
  -26.3160  -15.6323   20.2077 H   0  0  0  0  0  0
  -26.7266  -32.5321   23.1014 H   0  0  0  0  0  0
  -25.0117  -33.9658   25.0392 H   0  0  0  0  0  0
  -22.7459  -31.2927   21.3886 H   0  0  0  0  0  0
  -23.3800  -35.9535   23.3274 H   0  0  0  0  0  0
  -24.3577  -36.8910   22.2056 H   0  0  0  0  0  0
  -23.7184  -37.6407   23.6684 H   0  0  0  0  0  0
  -26.1632  -31.4763   20.6252 H   0  0  0  0  0  0
  -26.8723  -30.7612   22.0378 H   0  0  0  0  0  0
  -28.1274  -28.7958   21.2271 H   0  0  0  0  0  0
  -25.9072  -25.8961   18.9123 H   0  0  0  0  0  0
  -23.9749  -27.3236   18.9561 H   0  0  0  0  0  0
  -23.7998  -30.5728   19.4054 H   0  0  0  0  0  0
  -22.7815  -29.2401   19.8495 H   0  0  0  0  0  0
  -25.1314  -36.1898   25.0818 H   0  0  0  0  0  0
  -20.9957  -28.3296   24.1362 H   0  0  0  0  0  0
  -20.5605  -26.2338   23.3605 H   0  0  0  0  0  0
  -21.6641  -26.7404   22.1236 H   0  0  0  0  0  0
  -19.6933  -25.6266   21.1247 H   0  0  0  0  0  0
  -19.6726  -27.3135   20.6666 H   0  0  0  0  0  0
  -17.4204  -26.6641   21.4000 H   0  0  0  0  0  0
  -18.0370  -26.0090   22.8996 H   0  0  0  0  0  0
  -19.7946  -30.7263   24.2248 H   0  0  0  0  0  0
  -17.5034  -31.6279   24.5146 H   0  0  0  0  0  0
  -15.5361  -30.2990   23.7694 H   0  0  0  0  0  0
  -15.8660  -28.0808   22.7133 H   0  0  0  0  0  0
  -24.5931  -30.7071   25.7732 H   0  0  0  0  0  0
  -24.8878  -32.2891   26.4829 H   0  0  0  0  0  0
  -25.8013  -30.8923   27.0226 H   0  0  0  0  0  0
  -26.3027  -29.6707   24.1331 H   0  0  0  0  0  0
  -27.4008  -29.7300   25.4906 H   0  0  0  0  0  0
  -27.8939  -30.4239   23.9660 H   0  0  0  0  0  0
  -27.2727  -33.3659   26.2056 H   0  0  0  0  0  0
  -28.3923  -32.6844   25.0359 H   0  0  0  0  0  0
  -28.0729  -31.8472   26.5465 H   0  0  0  0  0  0
  -28.2593  -38.0107   24.7584 H   0  0  0  0  0  0
  -28.1129  -36.2637   24.6221 H   0  0  0  0  0  0
  -27.2311  -37.1334   25.8868 H   0  0  0  0  0  0
  -20.9455  -29.8811   21.6830 H   0  0  0  0  0  0
  -26.0184  -38.2840   24.1447 H   0  0  0  0  0  0
  -29.3055  -20.1446   17.5794 H   0  0  0  0  0  0
  -29.6580  -17.7238   16.4204 H   0  0  0  0  0  0
  -30.1735  -20.4461   20.9599 H   0  0  0  0  0  0
  -28.4944  -20.0731   21.1265 H   0  0  0  0  0  0
  -27.8894  -21.6673   19.2311 H   0  0  0  0  0  0
  -29.5546  -21.9408   18.8783 H   0  0  0  0  0  0
  -29.8540  -23.5822   20.6595 H   0  0  0  0  0  0
  -28.3525  -23.1790   21.4090 H   0  0  0  0  0  0
  -27.0500  -24.4380   19.8056 H   0  0  0  0  0  0
  -28.3601  -24.6780   18.7069 H   0  0  0  0  0  0
  -30.3229  -16.8273   21.5367 H   0  0  0  0  0  0
  1 25  1  0  0  0
  1 30  2  0  0  0
  1 78  1  0  0  0
  2  3  1  0  0  0
  2 25  1  0  0  0
  2 82  1  0  0  0
  2 83  1  0  0  0
  3  4  1  0  0  0
  3 84  1  0  0  0
  3 85  1  0  0  0
  4  5  1  0  0  0
  4 86  1  0  0  0
  4 87  1  0  0  0
  5  6  1  0  0  0
  5 26  1  0  0  0
  5 88  1  0  0  0
  6 25  1  0  0  0
  6 89  1  0  0  0
  6 90  1  0  0  0
  7  8  2  0  0  0
  7 26  1  0  0  0
  7 29  1  0  0  0
  8  9  1  0  0  0
  8 22  1  0  0  0
  9 10  1  0  0  0
  9 27  2  0  0  0
 10 11  2  0  0  0
 10 15  1  0  0  0
 11 12  1  0  0  0
 11 91  1  0  0  0
 12 13  2  0  0  0
 12 92  1  0  0  0
 13 14  1  0  0  0
 13 31  1  0  0  0
 14 15  2  0  0  0
 14 93  1  0  0  0
 15 94  1  0  0  0
 16 17  2  0  0  0
 16 21  1  0  0  0
 16 31  1  0  0  0
 17 18  1  0  0  0
 17 95  1  0  0  0
 18 19  2  0  0  0
 18 96  1  0  0  0
 19 20  1  0  0  0
 19 24  1  0  0  0
 20 21  2  0  0  0
 20 97  1  0  0  0
 21 23  1  0  0  0
 22 28  1  0  0  0
 22 32  2  0  0  0
 26 27  1  0  0  0
 28 98  1  0  0  0
 28 99  1  0  0  0
 29100  1  0  0  0
 29101  1  0  0  0
 33 34  1  0  0  0
 33 66  1  0  0  0
 33 70  2  0  0  0
 34 36  1  0  0  0
 34 59  1  0  0  0
 34102  1  0  0  0
 35 44  2  0  0  0
 35 45  1  0  0  0
 35 68  1  0  0  0
 36 56  1  0  0  0
 36103  1  0  0  0
 37 39  1  0  0  0
 37 47  1  0  0  0
 37 66  1  0  0  0
 37104  1  0  0  0
 38 43  2  0  0  0
 38 46  1  0  0  0
 38 47  1  0  0  0
 39 64  1  0  0  0
 39 67  2  0  0  0
 40 52  1  0  0  0
 40 53  2  0  0  0
 40 58  1  0  0  0
 41105  1  0  0  0
 41106  1  0  0  0
 41107  1  0  0  0
 41 48  1  0  0  0
 42 43  1  0  0  0
 42 66  1  0  0  0
 42108  1  0  0  0
 42109  1  0  0  0
 43 44  1  0  0  0
 44110  1  0  0  0
 45 46  2  0  0  0
 45111  1  0  0  0
 46112  1  0  0  0
 47113  1  0  0  0
 47114  1  0  0  0
 48 56  1  0  0  0
 48 65  1  0  0  0
 48115  1  0  0  0
 49 50  1  0  0  0
 49 53  1  0  0  0
 49 64  1  0  0  0
 49116  1  0  0  0
 50 51  1  0  0  0
 50117  1  0  0  0
 50118  1  0  0  0
 51 52  1  0  0  0
 51119  1  0  0  0
 51120  1  0  0  0
 52121  1  0  0  0
 52122  1  0  0  0
 53 54  1  0  0  0
 54 55  2  0  0  0
 54123  1  0  0  0
 55 57  1  0  0  0
 55124  1  0  0  0
 56 69  2  0  0  0
 57 58  2  0  0  0
 57125  1  0  0  0
 58126  1  0  0  0
 59 60  1  0  0  0
 59 61  1  0  0  0
 59 62  1  0  0  0
 60127  1  0  0  0
 60128  1  0  0  0
 60129  1  0  0  0
 61130  1  0  0  0
 61131  1  0  0  0
 61132  1  0  0  0
 62133  1  0  0  0
 62134  1  0  0  0
 62135  1  0  0  0
 63 65  1  0  0  0
 63136  1  0  0  0
 63137  1  0  0  0
 63138  1  0  0  0
 64139  1  0  0  0
 65140  1  0  0  0
 68 77  1  0  0  0
 71 72  1  0  0  0
 71 73  2  0  0  0
 71141  1  0  0  0
 72 79  2  0  0  0
 72142  1  0  0  0
 73 74  1  0  0  0
 73 80  1  0  0  0
 74 75  1  0  0  0
 74143  1  0  0  0
 74144  1  0  0  0
 75 76  1  0  0  0
 75145  1  0  0  0
 75146  1  0  0  0
 76 77  1  0  0  0
 76147  1  0  0  0
 76148  1  0  0  0
 77149  1  0  0  0
 77150  1  0  0  0
 78 80  1  0  0  0
 78 81  1  0  0  0
 78151  1  0  0  0
 79 80  1  0  0  0
M  ISO  4   1 100  68 101  77 101  78 100
M  END
> <chiral flag>
0

> <version>
0

> <s_m_source_file>
/data/baiqing/PycharmProjects/Reinvent-master-3.2/result/LINK_invent/BTK/process_docking_weight1_custom_sum_contain_oxygen_bond_distance_aromatic_linkinvent_7_9_3/rearranged_h_0070.sdf

> <i_m_source_file_index>
90

> <r_mmod_Potential_Energy-OPLS-2005>
621.448974609375

> <r_mmod_Stretch_Energy-OPLS-2005>
270.187744140625

> <r_mmod_Bend_Energy-OPLS-2005>
289.427612304688

> <r_mmod_Torsional_Energy-OPLS-2005>
196.564239501953

> <r_mmod_Improper_Torsional_Energy-OPLS-2005>
2.36233949661255

> <r_mmod_Van_der_Waal_Energy-OPLS-2005>
116.43229675293

> <r_mmod_Electrostatic_Energy-OPLS-2005>
-220.732147216797

> <r_mmod_Solvation_Energy-OPLS-2005>
-203.924087524414

> <b_mmod_Minimization_Converged-OPLS-2005>
0

> <r_mmod_RMS_Derivative-OPLS-2005>
2.85854983329773

$$$$
91
                    3D
 Structure written by MMmdl.
158166  0  0  1  0            999 V2000
  -30.5010  -14.9188   20.4115 C   0  0  0  0  0  0
  -30.4706  -12.5641   19.4749 C   0  0  0  0  0  0
  -29.5251  -12.5100   18.2465 C   0  0  0  0  0  0
  -28.0453  -12.3074   18.6532 C   0  0  0  0  0  0
  -27.6349  -13.1764   19.8661 C   0  0  2  0  0  0
  -28.7119  -13.1083   20.9779 C   0  0  0  0  0  0
  -25.2416  -13.7948   20.5598 C   0  0  0  0  0  0
  -24.1731  -13.0288   20.9212 C   0  0  0  0  0  0
  -24.6314  -11.6774   20.8805 C   0  0  0  0  0  0
  -23.8986  -10.4216   21.0445 C   0  0  0  0  0  0
  -24.3559   -9.4155   21.9221 C   0  0  0  0  0  0
  -23.6255   -8.2196   22.0787 C   0  0  0  0  0  0
  -22.4250   -8.0244   21.3557 C   0  0  0  0  0  0
  -21.9855   -9.0205   20.4664 C   0  0  0  0  0  0
  -22.7163  -10.2092   20.3087 C   0  0  0  0  0  0
  -21.6848   -6.0724   22.5273 C   0  0  0  0  0  0
  -21.3993   -6.5645   23.8192 C   0  0  0  0  0  0
  -21.3649   -5.6805   24.9155 C   0  0  0  0  0  0
  -21.6054   -4.3068   24.7212 C   0  0  0  0  0  0
  -21.8831   -3.8154   23.4335 C   0  0  0  0  0  0
  -21.9196   -4.6960   22.3391 C   0  0  0  0  0  0
  -22.7773  -13.5145   21.1841 C   0  0  0  0  0  0
  -22.1678   -4.2156   21.0970 F   0  0  0  0  0  0
  -21.5623   -3.4554   25.7724 F   0  0  0  0  0  0
  -29.9718  -13.6179   20.4031 N   0  0  0  0  0  0
  -26.2888  -12.9072   20.3428 N   0  0  0  0  0  0
  -25.9242  -11.6289   20.5896 N   0  0  0  0  0  0
  -22.0431  -12.8176   22.0417 N   0  0  0  0  0  0
  -25.3791  -15.1670   20.3692 N   0  0  0  0  0  0
  -31.7185  -14.9976   20.1966 O   0  0  0  0  0  0
  -21.6626   -6.8853   21.4235 O   0  0  0  0  0  0
  -22.3489  -14.5473   20.6681 O   0  0  0  0  0  0
  -24.6343  -31.8531   23.1951 C   0  0  0  0  0  0
  -25.9159  -32.4740   23.8299 C   0  0  1  0  0  0
  -27.2445  -27.2423   20.1299 C   0  0  0  0  0  0
  -25.5942  -33.8541   24.2243 N   0  0  0  0  0  0
  -23.4336  -30.4694   21.5412 C   0  0  2  0  0  0
  -24.8868  -28.9096   20.1129 C   0  0  0  0  0  0
  -22.7533  -29.4567   22.4938 C   0  0  0  0  0  0
  -18.0306  -28.1394   22.8483 C   0  0  0  0  0  0
  -24.1505  -36.7284   23.2639 C   0  0  0  0  0  0
  -25.9805  -30.7576   21.3769 C   0  0  0  0  0  0
  -26.0569  -29.3753   20.7252 C   0  0  0  0  0  0
  -27.2332  -28.5536   20.7263 C   0  0  0  0  0  0
  -26.0476  -26.8540   19.4822 C   0  0  0  0  0  0
  -24.8888  -27.6574   19.4797 C   0  0  0  0  0  0
  -23.6548  -29.7969   20.1598 C   0  0  0  0  0  0
  -25.4114  -36.3066   24.0348 C   0  0  1  0  0  0
  -20.5916  -28.3695   23.1311 C   0  0  2  0  0  0
  -20.6815  -26.9422   22.5435 C   0  0  0  0  0  0
  -19.5774  -26.6376   21.5258 C   0  0  0  0  0  0
  -18.1944  -26.7931   22.1643 C   0  0  0  0  0  0
  -19.1555  -28.8861   23.2878 C   0  0  0  0  0  0
  -18.9467  -30.1476   23.8876 C   0  0  0  0  0  0
  -17.6462  -30.6591   24.0568 C   0  0  0  0  0  0
  -25.9050  -34.9437   23.5095 C   0  0  0  0  0  0
  -16.5365  -29.9081   23.6344 C   0  0  0  0  0  0
  -16.7285  -28.6517   23.0325 C   0  0  0  0  0  0
  -26.4497  -31.6548   25.0677 C   0  0  0  0  0  0
  -25.3702  -31.3704   26.1378 C   0  0  0  0  0  0
  -27.0340  -30.2973   24.6132 C   0  0  0  0  0  0
  -27.6043  -32.4274   25.7449 C   0  0  0  0  0  0
  -27.5591  -37.1781   24.8459 C   0  0  0  0  0  0
  -21.4245  -29.3020   22.3679 N   0  0  0  0  0  0
  -26.4288  -37.3775   23.9436 N   0  0  0  0  0  0
  -24.7023  -31.0453   22.0938 N   0  0  0  0  0  0
  -23.4223  -28.8138   23.3069 O   0  0  0  0  0  0
  -28.3486  -26.3431   20.1965 O   0  0  0  0  0  0
  -26.5634  -34.8930   22.4662 O   0  0  0  0  0  0
  -23.5482  -32.1358   23.7227 O   0  0  0  0  0  0
  -29.2438  -19.9367   21.4670 C   0  0  0  0  0  0
  -29.4696  -20.7212   20.3075 C   0  0  0  0  0  0
  -30.1938  -19.9585   19.3446 C   0  0  0  0  0  0
  -30.0602  -17.8903   20.5399 C   0  0  0  0  0  0
  -30.6180  -20.5719   18.0258 C   0  0  0  0  0  0
  -29.0201  -16.3281   18.8686 C   0  0  0  0  0  0
  -28.3538  -16.2262   21.2899 C   0  0  0  0  0  0
  -28.7069  -22.1221   20.0166 C   0  0  0  0  0  0
  -29.1787  -23.6543   20.3368 C   0  0  0  0  0  0
  -28.1474  -24.8651   19.9297 C   0  0  0  0  0  0
  -29.5750  -16.3204   20.3299 C   0  0  0  0  0  0
  -29.5471  -18.6023   21.5734 N   0  0  0  0  0  0
  -30.4717  -18.6159   19.4770 N   0  0  0  0  0  0
  -31.4921  -12.7625   19.1490 H   0  0  0  0  0  0
  -30.5142  -11.5914   19.9677 H   0  0  0  0  0  0
  -29.8353  -11.7080   17.5765 H   0  0  0  0  0  0
  -29.6249  -13.4282   17.6692 H   0  0  0  0  0  0
  -27.9033  -11.2508   18.8883 H   0  0  0  0  0  0
  -27.3922  -12.5189   17.8060 H   0  0  0  0  0  0
  -27.5660  -14.1761   19.4791 H   0  0  0  0  0  0
  -28.8263  -12.0693   21.2934 H   0  0  0  0  0  0
  -28.4470  -13.6091   21.9067 H   0  0  0  0  0  0
  -25.2706   -9.5661   22.4777 H   0  0  0  0  0  0
  -23.9998   -7.4596   22.7494 H   0  0  0  0  0  0
  -21.0801   -8.8692   19.8946 H   0  0  0  0  0  0
  -22.3618  -10.9637   19.6201 H   0  0  0  0  0  0
  -21.1982   -7.6155   23.9675 H   0  0  0  0  0  0
  -21.1457   -6.0548   25.9050 H   0  0  0  0  0  0
  -22.0620   -2.7626   23.2827 H   0  0  0  0  0  0
  -22.4087  -11.9857   22.4798 H   0  0  0  0  0  0
  -21.1045  -13.1202   22.2605 H   0  0  0  0  0  0
  -24.5886  -15.7924   20.4826 H   0  0  0  0  0  0
  -26.2033  -15.6304   20.0129 H   0  0  0  0  0  0
  -26.7219  -32.5392   23.1028 H   0  0  0  0  0  0
  -25.0114  -33.9670   25.0404 H   0  0  0  0  0  0
  -22.7305  -31.2904   21.3898 H   0  0  0  0  0  0
  -23.3788  -35.9583   23.3242 H   0  0  0  0  0  0
  -24.3622  -36.8948   22.2065 H   0  0  0  0  0  0
  -23.7217  -37.6458   23.6672 H   0  0  0  0  0  0
  -26.1137  -31.5108   20.5996 H   0  0  0  0  0  0
  -26.8627  -30.8169   22.0035 H   0  0  0  0  0  0
  -28.1224  -28.9015   21.2313 H   0  0  0  0  0  0
  -25.9779  -25.9003   18.9818 H   0  0  0  0  0  0
  -23.9962  -27.2950   18.9898 H   0  0  0  0  0  0
  -23.7791  -30.5719   19.4029 H   0  0  0  0  0  0
  -22.7738  -29.2294   19.8536 H   0  0  0  0  0  0
  -25.1284  -36.1901   25.0840 H   0  0  0  0  0  0
  -20.9987  -28.3264   24.1444 H   0  0  0  0  0  0
  -20.5802  -26.2292   23.3618 H   0  0  0  0  0  0
  -21.6664  -26.7484   22.1173 H   0  0  0  0  0  0
  -19.6960  -25.6285   21.1275 H   0  0  0  0  0  0
  -19.6740  -27.3203   20.6797 H   0  0  0  0  0  0
  -17.4245  -26.6712   21.4018 H   0  0  0  0  0  0
  -18.0314  -26.0075   22.9030 H   0  0  0  0  0  0
  -19.7937  -30.7315   24.2224 H   0  0  0  0  0  0
  -17.5004  -31.6259   24.5162 H   0  0  0  0  0  0
  -15.5354  -30.2963   23.7673 H   0  0  0  0  0  0
  -15.8696  -28.0843   22.7007 H   0  0  0  0  0  0
  -24.5883  -30.7055   25.7693 H   0  0  0  0  0  0
  -24.8881  -32.2884   26.4753 H   0  0  0  0  0  0
  -25.7989  -30.8897   27.0175 H   0  0  0  0  0  0
  -26.2916  -29.6717   24.1164 H   0  0  0  0  0  0
  -27.4079  -29.7221   25.4607 H   0  0  0  0  0  0
  -27.8759  -30.4290   23.9333 H   0  0  0  0  0  0
  -27.2652  -33.3585   26.1993 H   0  0  0  0  0  0
  -28.3851  -32.6799   25.0266 H   0  0  0  0  0  0
  -28.0689  -31.8404   26.5380 H   0  0  0  0  0  0
  -28.2549  -38.0144   24.7572 H   0  0  0  0  0  0
  -28.1156  -36.2670   24.6175 H   0  0  0  0  0  0
  -27.2340  -37.1293   25.8874 H   0  0  0  0  0  0
  -20.9462  -29.8677   21.6810 H   0  0  0  0  0  0
  -26.0172  -38.2845   24.1439 H   0  0  0  0  0  0
  -28.6859  -20.3511   22.2937 H   0  0  0  0  0  0
  -31.1071  -21.5313   18.1900 H   0  0  0  0  0  0
  -29.7564  -20.7226   17.3779 H   0  0  0  0  0  0
  -31.3237  -19.9285   17.5008 H   0  0  0  0  0  0
  -28.1528  -16.9818   18.7687 H   0  0  0  0  0  0
  -28.7603  -15.3650   18.4600 H   0  0  0  0  0  0
  -29.7709  -16.6775   18.1606 H   0  0  0  0  0  0
  -27.6457  -17.0340   21.0989 H   0  0  0  0  0  0
  -28.6553  -16.2979   22.3348 H   0  0  0  0  0  0
  -27.7388  -15.3605   21.2083 H   0  0  0  0  0  0
  -27.7440  -22.0142   20.5202 H   0  0  0  0  0  0
  -28.4381  -22.0952   18.9601 H   0  0  0  0  0  0
  -30.1346  -23.8409   19.8452 H   0  0  0  0  0  0
  -29.3785  -23.7344   21.4053 H   0  0  0  0  0  0
  -27.1962  -24.5859   20.3844 H   0  0  0  0  0  0
  -27.9931  -24.7838   18.8532 H   0  0  0  0  0  0
  1 25  1  0  0  0
  1 30  2  0  0  0
  1 81  1  0  0  0
  2  3  1  0  0  0
  2 25  1  0  0  0
  2 84  1  0  0  0
  2 85  1  0  0  0
  3  4  1  0  0  0
  3 86  1  0  0  0
  3 87  1  0  0  0
  4  5  1  0  0  0
  4 88  1  0  0  0
  4 89  1  0  0  0
  5  6  1  0  0  0
  5 26  1  0  0  0
  5 90  1  0  0  0
  6 25  1  0  0  0
  6 91  1  0  0  0
  6 92  1  0  0  0
  7  8  2  0  0  0
  7 26  1  0  0  0
  7 29  1  0  0  0
  8  9  1  0  0  0
  8 22  1  0  0  0
  9 10  1  0  0  0
  9 27  2  0  0  0
 10 11  2  0  0  0
 10 15  1  0  0  0
 11 12  1  0  0  0
 11 93  1  0  0  0
 12 13  2  0  0  0
 12 94  1  0  0  0
 13 14  1  0  0  0
 13 31  1  0  0  0
 14 15  2  0  0  0
 14 95  1  0  0  0
 15 96  1  0  0  0
 16 17  2  0  0  0
 16 21  1  0  0  0
 16 31  1  0  0  0
 17 18  1  0  0  0
 17 97  1  0  0  0
 18 19  2  0  0  0
 18 98  1  0  0  0
 19 20  1  0  0  0
 19 24  1  0  0  0
 20 21  2  0  0  0
 20 99  1  0  0  0
 21 23  1  0  0  0
 22 28  1  0  0  0
 22 32  2  0  0  0
 26 27  1  0  0  0
 28100  1  0  0  0
 28101  1  0  0  0
 29102  1  0  0  0
 29103  1  0  0  0
 33 34  1  0  0  0
 33 66  1  0  0  0
 33 70  2  0  0  0
 34 36  1  0  0  0
 34 59  1  0  0  0
 34104  1  0  0  0
 35 44  2  0  0  0
 35 45  1  0  0  0
 35 68  1  0  0  0
 36 56  1  0  0  0
 36105  1  0  0  0
 37 39  1  0  0  0
 37 47  1  0  0  0
 37 66  1  0  0  0
 37106  1  0  0  0
 38 43  2  0  0  0
 38 46  1  0  0  0
 38 47  1  0  0  0
 39 64  1  0  0  0
 39 67  2  0  0  0
 40 52  1  0  0  0
 40 53  2  0  0  0
 40 58  1  0  0  0
 41107  1  0  0  0
 41108  1  0  0  0
 41109  1  0  0  0
 41 48  1  0  0  0
 42 43  1  0  0  0
 42 66  1  0  0  0
 42110  1  0  0  0
 42111  1  0  0  0
 43 44  1  0  0  0
 44112  1  0  0  0
 45 46  2  0  0  0
 45113  1  0  0  0
 46114  1  0  0  0
 47115  1  0  0  0
 47116  1  0  0  0
 48 56  1  0  0  0
 48 65  1  0  0  0
 48117  1  0  0  0
 49 50  1  0  0  0
 49 53  1  0  0  0
 49 64  1  0  0  0
 49118  1  0  0  0
 50 51  1  0  0  0
 50119  1  0  0  0
 50120  1  0  0  0
 51 52  1  0  0  0
 51121  1  0  0  0
 51122  1  0  0  0
 52123  1  0  0  0
 52124  1  0  0  0
 53 54  1  0  0  0
 54 55  2  0  0  0
 54125  1  0  0  0
 55 57  1  0  0  0
 55126  1  0  0  0
 56 69  2  0  0  0
 57 58  2  0  0  0
 57127  1  0  0  0
 58128  1  0  0  0
 59 60  1  0  0  0
 59 61  1  0  0  0
 59 62  1  0  0  0
 60129  1  0  0  0
 60130  1  0  0  0
 60131  1  0  0  0
 61132  1  0  0  0
 61133  1  0  0  0
 61134  1  0  0  0
 62135  1  0  0  0
 62136  1  0  0  0
 62137  1  0  0  0
 63 65  1  0  0  0
 63138  1  0  0  0
 63139  1  0  0  0
 63140  1  0  0  0
 64141  1  0  0  0
 65142  1  0  0  0
 68 80  1  0  0  0
 71 72  2  0  0  0
 71 82  1  0  0  0
 71143  1  0  0  0
 72 73  1  0  0  0
 72 78  1  0  0  0
 73 75  1  0  0  0
 73 83  2  0  0  0
 74 81  1  0  0  0
 74 82  2  0  0  0
 74 83  1  0  0  0
 75144  1  0  0  0
 75145  1  0  0  0
 75146  1  0  0  0
 76147  1  0  0  0
 76148  1  0  0  0
 76149  1  0  0  0
 76 81  1  0  0  0
 77 81  1  0  0  0
 77150  1  0  0  0
 77151  1  0  0  0
 77152  1  0  0  0
 78 79  1  0  0  0
 78153  1  0  0  0
 78154  1  0  0  0
 79 80  1  0  0  0
 79155  1  0  0  0
 79156  1  0  0  0
 80157  1  0  0  0
 80158  1  0  0  0
M  ISO  4   1 100  68 101  80 101  81 100
M  END
> <chiral flag>
0

> <version>
0

> <s_m_source_file>
/data/baiqing/PycharmProjects/Reinvent-master-3.2/result/LINK_invent/BTK/process_docking_weight1_custom_sum_contain_oxygen_bond_distance_aromatic_linkinvent_7_9_3/rearranged_h_0070.sdf

> <i_m_source_file_index>
91

> <r_mmod_Potential_Energy-OPLS-2005>
209.093460083008

> <r_mmod_Stretch_Energy-OPLS-2005>
189.189712524414

> <r_mmod_Bend_Energy-OPLS-2005>
265.889495849609

> <r_mmod_Torsional_Energy-OPLS-2005>
251.993759155273

> <r_mmod_Improper_Torsional_Energy-OPLS-2005>
17.6366062164307

> <r_mmod_Van_der_Waal_Energy-OPLS-2005>
188.475341796875

> <r_mmod_Electrostatic_Energy-OPLS-2005>
-625.991394042969

> <r_mmod_Solvation_Energy-OPLS-2005>
-214.12370300293

> <b_mmod_Minimization_Converged-OPLS-2005>
0

> <r_mmod_RMS_Derivative-OPLS-2005>
3.04446697235107

$$$$
92
                    3D
 Structure written by MMmdl.
170178  0  0  1  0            999 V2000
  -30.8299  -14.5594   20.2220 C   0  0  0  0  0  0
  -30.4069  -12.3065   19.3965 C   0  0  0  0  0  0
  -29.4559  -12.3019   18.1874 C   0  0  0  0  0  0
  -27.9885  -12.2655   18.6456 C   0  0  0  0  0  0
  -27.6344  -13.2117   19.8314 C   0  0  2  0  0  0
  -28.7362  -13.2219   20.9131 C   0  0  0  0  0  0
  -25.2605  -13.8120   20.5887 C   0  0  0  0  0  0
  -24.1850  -13.0428   20.9311 C   0  0  0  0  0  0
  -24.6403  -11.6879   20.8880 C   0  0  0  0  0  0
  -23.9061  -10.4258   21.0468 C   0  0  0  0  0  0
  -24.3611   -9.4145   21.9198 C   0  0  0  0  0  0
  -23.6285   -8.2179   22.0742 C   0  0  0  0  0  0
  -22.4268   -8.0242   21.3534 C   0  0  0  0  0  0
  -21.9927   -9.0219   20.4641 C   0  0  0  0  0  0
  -22.7261  -10.2106   20.3083 C   0  0  0  0  0  0
  -21.6843   -6.0715   22.5280 C   0  0  0  0  0  0
  -21.3977   -6.5603   23.8212 C   0  0  0  0  0  0
  -21.3666   -5.6773   24.9172 C   0  0  0  0  0  0
  -21.6063   -4.3036   24.7237 C   0  0  0  0  0  0
  -21.8825   -3.8128   23.4351 C   0  0  0  0  0  0
  -21.9189   -4.6941   22.3408 C   0  0  0  0  0  0
  -22.7850  -13.5221   21.1882 C   0  0  0  0  0  0
  -22.1670   -4.2134   21.0992 F   0  0  0  0  0  0
  -21.5653   -3.4524   25.7740 F   0  0  0  0  0  0
  -30.0275  -13.4477   20.2375 N   0  0  0  0  0  0
  -26.3031  -12.9291   20.3526 N   0  0  0  0  0  0
  -25.9351  -11.6462   20.5984 N   0  0  0  0  0  0
  -22.0449  -12.8245   22.0418 N   0  0  0  0  0  0
  -25.4244  -15.1866   20.4256 N   0  0  0  0  0  0
  -32.0072  -14.4150   20.5098 O   0  0  0  0  0  0
  -21.6624   -6.8860   21.4238 O   0  0  0  0  0  0
  -22.3559  -14.5511   20.6683 O   0  0  0  0  0  0
  -24.6113  -31.8735   23.2088 C   0  0  0  0  0  0
  -25.9020  -32.4862   23.8377 C   0  0  1  0  0  0
  -27.2309  -27.4397   20.0899 C   0  0  0  0  0  0
  -25.5917  -33.8667   24.2312 N   0  0  0  0  0  0
  -23.3978  -30.4947   21.5504 C   0  0  2  0  0  0
  -24.8494  -28.9779   20.1117 C   0  0  0  0  0  0
  -22.7408  -29.4641   22.4987 C   0  0  0  0  0  0
  -18.0280  -28.1388   22.8436 C   0  0  0  0  0  0
  -24.1535  -36.7296   23.2630 C   0  0  0  0  0  0
  -25.9287  -30.8365   21.3727 C   0  0  0  0  0  0
  -26.0087  -29.4724   20.7216 C   0  0  0  0  0  0
  -27.2006  -28.7071   20.7219 C   0  0  0  0  0  0
  -26.0483  -26.9892   19.4457 C   0  0  0  0  0  0
  -24.8647  -27.7320   19.4738 C   0  0  0  0  0  0
  -23.6102  -29.8354   20.1624 C   0  0  0  0  0  0
  -25.4148  -36.3101   24.0300 C   0  0  1  0  0  0
  -20.5860  -28.3650   23.1315 C   0  0  2  0  0  0
  -20.6820  -26.9410   22.5380 C   0  0  0  0  0  0
  -19.5805  -26.6380   21.5180 C   0  0  0  0  0  0
  -18.1971  -26.7919   22.1569 C   0  0  0  0  0  0
  -19.1522  -28.8831   23.2884 C   0  0  0  0  0  0
  -18.9463  -30.1447   23.8894 C   0  0  0  0  0  0
  -17.6480  -30.6608   24.0567 C   0  0  0  0  0  0
  -25.9035  -34.9477   23.5045 C   0  0  0  0  0  0
  -16.5363  -29.9084   23.6364 C   0  0  0  0  0  0
  -16.7271  -28.6523   23.0311 C   0  0  0  0  0  0
  -26.4456  -31.6652   25.0708 C   0  0  0  0  0  0
  -25.3682  -31.3737   26.1433 C   0  0  0  0  0  0
  -27.0283  -30.3108   24.6025 C   0  0  0  0  0  0
  -27.6068  -32.4351   25.7452 C   0  0  0  0  0  0
  -27.5597  -37.1792   24.8468 C   0  0  0  0  0  0
  -21.4142  -29.3004   22.3744 N   0  0  0  0  0  0
  -26.4332  -37.3778   23.9388 N   0  0  0  0  0  0
  -24.6622  -31.0799   22.1007 N   0  0  0  0  0  0
  -23.4222  -28.8206   23.3015 O   0  0  0  0  0  0
  -28.3934  -26.6814   20.1244 O   0  0  0  0  0  0
  -26.5572  -34.8932   22.4602 O   0  0  0  0  0  0
  -23.5280  -32.1545   23.7416 O   0  0  0  0  0  0
  -29.7079  -18.7276   21.7258 C   0  0  0  0  0  0
  -29.1320  -19.1202   20.5480 C   0  0  0  0  0  0
  -29.9918  -17.0600   20.2626 C   0  0  0  0  0  0
  -31.2764  -17.4195   23.8705 C   0  0  0  0  0  0
  -29.7334  -15.6986   18.1177 C   0  0  0  0  0  0
  -28.4954  -20.4124   20.1176 C   0  0  0  0  0  0
  -29.3321  -21.6660   20.4843 C   0  0  0  0  0  0
  -28.8480  -22.8916   19.6813 C   0  0  0  0  0  0
  -29.2842  -24.2953   20.1870 C   0  0  0  0  0  0
  -31.0706  -16.7296   22.5132 C   0  0  0  0  0  0
  -31.9740  -16.4258   18.8539 C   0  0  0  0  0  0
  -28.2782  -25.3308   19.6523 C   0  0  0  0  0  0
  -30.5701  -15.9186   19.4129 C   0  0  2  0  0  0
  -30.2634  -17.4821   21.5258 N   0  0  0  0  0  0
  -29.2536  -18.0420   19.7142 N   0  3  0  0  0  0
  -31.9656  -17.5754   17.9069 N   0  3  0  0  0  0
  -31.4432  -12.3598   19.0517 H   0  0  0  0  0  0
  -30.3149  -11.3734   19.9552 H   0  0  0  0  0  0
  -29.6593  -11.4215   17.5744 H   0  0  0  0  0  0
  -29.6226  -13.1391   17.5267 H   0  0  0  0  0  0
  -27.8201  -11.2337   18.9527 H   0  0  0  0  0  0
  -27.3182  -12.4297   17.8019 H   0  0  0  0  0  0
  -27.5659  -14.2188   19.4486 H   0  0  0  0  0  0
  -28.7432  -12.2761   21.4578 H   0  0  0  0  0  0
  -28.5443  -14.0003   21.6492 H   0  0  0  0  0  0
  -25.2749   -9.5594   22.4807 H   0  0  0  0  0  0
  -23.9970   -7.4570   22.7478 H   0  0  0  0  0  0
  -21.0855   -8.8778   19.8949 H   0  0  0  0  0  0
  -22.3731  -10.9662   19.6227 H   0  0  0  0  0  0
  -21.1903   -7.6114   23.9709 H   0  0  0  0  0  0
  -21.1512   -6.0496   25.9089 H   0  0  0  0  0  0
  -22.0589   -2.7593   23.2868 H   0  0  0  0  0  0
  -22.4025  -11.9921   22.4906 H   0  0  0  0  0  0
  -21.1051  -13.1264   22.2499 H   0  0  0  0  0  0
  -24.6493  -15.8296   20.5449 H   0  0  0  0  0  0
  -26.2792  -15.6462   20.1418 H   0  0  0  0  0  0
  -26.7079  -32.5612   23.1141 H   0  0  0  0  0  0
  -25.0249  -33.9910   25.0559 H   0  0  0  0  0  0
  -22.6839  -31.3081   21.4038 H   0  0  0  0  0  0
  -23.3812  -35.9633   23.3323 H   0  0  0  0  0  0
  -24.3627  -36.8864   22.2050 H   0  0  0  0  0  0
  -23.7284  -37.6484   23.6633 H   0  0  0  0  0  0
  -26.0274  -31.6067   20.6073 H   0  0  0  0  0  0
  -26.8189  -30.8943   21.9865 H   0  0  0  0  0  0
  -28.0918  -29.0769   21.2151 H   0  0  0  0  0  0
  -25.9971  -26.0621   18.8960 H   0  0  0  0  0  0
  -23.9865  -27.3453   18.9799 H   0  0  0  0  0  0
  -23.7166  -30.6180   19.4089 H   0  0  0  0  0  0
  -22.7415  -29.2465   19.8547 H   0  0  0  0  0  0
  -25.1326  -36.1951   25.0782 H   0  0  0  0  0  0
  -20.9877  -28.3215   24.1464 H   0  0  0  0  0  0
  -20.5778  -26.2230   23.3519 H   0  0  0  0  0  0
  -21.6699  -26.7506   22.1155 H   0  0  0  0  0  0
  -19.6998  -25.6262   21.1267 H   0  0  0  0  0  0
  -19.6829  -27.3163   20.6691 H   0  0  0  0  0  0
  -17.4241  -26.6620   21.3992 H   0  0  0  0  0  0
  -18.0448  -26.0077   22.8975 H   0  0  0  0  0  0
  -19.7948  -30.7275   24.2257 H   0  0  0  0  0  0
  -17.5032  -31.6289   24.5133 H   0  0  0  0  0  0
  -15.5361  -30.2988   23.7697 H   0  0  0  0  0  0
  -15.8672  -28.0885   22.6941 H   0  0  0  0  0  0
  -24.5914  -30.7018   25.7728 H   0  0  0  0  0  0
  -24.8822  -32.2885   26.4854 H   0  0  0  0  0  0
  -25.8022  -30.8938   27.0225 H   0  0  0  0  0  0
  -26.2770  -29.6897   24.1111 H   0  0  0  0  0  0
  -27.4114  -29.7317   25.4433 H   0  0  0  0  0  0
  -27.8610  -30.4463   23.9117 H   0  0  0  0  0  0
  -27.2731  -33.3691   26.2025 H   0  0  0  0  0  0
  -28.3891  -32.6837   25.0254 H   0  0  0  0  0  0
  -28.0750  -31.8466   26.5369 H   0  0  0  0  0  0
  -28.2560  -38.0139   24.7502 H   0  0  0  0  0  0
  -28.1113  -36.2617   24.6300 H   0  0  0  0  0  0
  -27.2287  -37.1447   25.8868 H   0  0  0  0  0  0
  -20.9294  -29.8726   21.6982 H   0  0  0  0  0  0
  -26.0218  -38.2835   24.1441 H   0  0  0  0  0  0
  -29.7969  -19.2834   22.6484 H   0  0  0  0  0  0
  -31.8386  -16.7562   24.5288 H   0  0  0  0  0  0
  -30.3343  -17.6554   24.3695 H   0  0  0  0  0  0
  -31.8577  -18.3352   23.7747 H   0  0  0  0  0  0
  -29.5443  -16.6204   17.5711 H   0  0  0  0  0  0
  -28.7531  -15.2787   18.2689 H   0  0  0  0  0  0
  -30.2686  -15.0785   17.4003 H   0  0  0  0  0  0
  -27.5010  -20.4757   20.5637 H   0  0  0  0  0  0
  -28.3480  -20.3876   19.0337 H   0  0  0  0  0  0
  -30.3903  -21.5048   20.2666 H   0  0  0  0  0  0
  -29.2556  -21.8524   21.5565 H   0  0  0  0  0  0
  -29.1284  -22.7829   18.6305 H   0  0  0  0  0  0
  -27.7588  -22.8385   19.6882 H   0  0  0  0  0  0
  -30.2984  -24.5372   19.8691 H   0  0  0  0  0  0
  -29.2893  -24.3217   21.2762 H   0  0  0  0  0  0
  -30.5680  -15.7774   22.6923 H   0  0  0  0  0  0
  -32.0519  -16.5311   22.0802 H   0  0  0  0  0  0
  -32.4673  -15.6102   18.3226 H   0  0  0  0  0  0
  -32.6458  -16.6995   19.6676 H   0  0  0  0  0  0
  -27.3223  -24.9276   19.9855 H   0  0  0  0  0  0
  -28.2923  -25.3379   18.5615 H   0  0  0  0  0  0
  -28.8559  -18.0028   18.7810 H   0  0  0  0  0  0
  -31.5300  -17.3463   17.0294 H   0  0  0  0  0  0
  -32.9170  -17.8184   17.6865 H   0  0  0  0  0  0
  -31.5403  -18.3994   18.2912 H   0  0  0  0  0  0
  1 25  1  0  0  0
  1 30  2  0  0  0
  1 83  1  0  0  0
  2  3  1  0  0  0
  2 25  1  0  0  0
  2 87  1  0  0  0
  2 88  1  0  0  0
  3  4  1  0  0  0
  3 89  1  0  0  0
  3 90  1  0  0  0
  4  5  1  0  0  0
  4 91  1  0  0  0
  4 92  1  0  0  0
  5  6  1  0  0  0
  5 26  1  0  0  0
  5 93  1  0  0  0
  6 25  1  0  0  0
  6 94  1  0  0  0
  6 95  1  0  0  0
  7  8  2  0  0  0
  7 26  1  0  0  0
  7 29  1  0  0  0
  8  9  1  0  0  0
  8 22  1  0  0  0
  9 10  1  0  0  0
  9 27  2  0  0  0
 10 11  2  0  0  0
 10 15  1  0  0  0
 11 12  1  0  0  0
 11 96  1  0  0  0
 12 13  2  0  0  0
 12 97  1  0  0  0
 13 14  1  0  0  0
 13 31  1  0  0  0
 14 15  2  0  0  0
 14 98  1  0  0  0
 15 99  1  0  0  0
 16 17  2  0  0  0
 16 21  1  0  0  0
 16 31  1  0  0  0
 17 18  1  0  0  0
 17100  1  0  0  0
 18 19  2  0  0  0
 18101  1  0  0  0
 19 20  1  0  0  0
 19 24  1  0  0  0
 20 21  2  0  0  0
 20102  1  0  0  0
 21 23  1  0  0  0
 22 28  1  0  0  0
 22 32  2  0  0  0
 26 27  1  0  0  0
 28103  1  0  0  0
 28104  1  0  0  0
 29105  1  0  0  0
 29106  1  0  0  0
 33 34  1  0  0  0
 33 66  1  0  0  0
 33 70  2  0  0  0
 34 36  1  0  0  0
 34 59  1  0  0  0
 34107  1  0  0  0
 35 44  2  0  0  0
 35 45  1  0  0  0
 35 68  1  0  0  0
 36 56  1  0  0  0
 36108  1  0  0  0
 37 39  1  0  0  0
 37 47  1  0  0  0
 37 66  1  0  0  0
 37109  1  0  0  0
 38 43  2  0  0  0
 38 46  1  0  0  0
 38 47  1  0  0  0
 39 64  1  0  0  0
 39 67  2  0  0  0
 40 52  1  0  0  0
 40 53  2  0  0  0
 40 58  1  0  0  0
 41110  1  0  0  0
 41111  1  0  0  0
 41112  1  0  0  0
 41 48  1  0  0  0
 42 43  1  0  0  0
 42 66  1  0  0  0
 42113  1  0  0  0
 42114  1  0  0  0
 43 44  1  0  0  0
 44115  1  0  0  0
 45 46  2  0  0  0
 45116  1  0  0  0
 46117  1  0  0  0
 47118  1  0  0  0
 47119  1  0  0  0
 48 56  1  0  0  0
 48 65  1  0  0  0
 48120  1  0  0  0
 49 50  1  0  0  0
 49 53  1  0  0  0
 49 64  1  0  0  0
 49121  1  0  0  0
 50 51  1  0  0  0
 50122  1  0  0  0
 50123  1  0  0  0
 51 52  1  0  0  0
 51124  1  0  0  0
 51125  1  0  0  0
 52126  1  0  0  0
 52127  1  0  0  0
 53 54  1  0  0  0
 54 55  2  0  0  0
 54128  1  0  0  0
 55 57  1  0  0  0
 55129  1  0  0  0
 56 69  2  0  0  0
 57 58  2  0  0  0
 57130  1  0  0  0
 58131  1  0  0  0
 59 60  1  0  0  0
 59 61  1  0  0  0
 59 62  1  0  0  0
 60132  1  0  0  0
 60133  1  0  0  0
 60134  1  0  0  0
 61135  1  0  0  0
 61136  1  0  0  0
 61137  1  0  0  0
 62138  1  0  0  0
 62139  1  0  0  0
 62140  1  0  0  0
 63 65  1  0  0  0
 63141  1  0  0  0
 63142  1  0  0  0
 63143  1  0  0  0
 64144  1  0  0  0
 65145  1  0  0  0
 68 82  1  0  0  0
 71 72  2  0  0  0
 71 84  1  0  0  0
 71146  1  0  0  0
 72 76  1  0  0  0
 72 85  1  0  0  0
 73 83  1  0  0  0
 73 84  1  0  0  0
 73 85  2  0  0  0
 74 80  1  0  0  0
 74147  1  0  0  0
 74148  1  0  0  0
 74149  1  0  0  0
 75150  1  0  0  0
 75151  1  0  0  0
 75152  1  0  0  0
 75 83  1  0  0  0
 76 77  1  0  0  0
 76153  1  0  0  0
 76154  1  0  0  0
 77 78  1  0  0  0
 77155  1  0  0  0
 77156  1  0  0  0
 78 79  1  0  0  0
 78157  1  0  0  0
 78158  1  0  0  0
 79 82  1  0  0  0
 79159  1  0  0  0
 79160  1  0  0  0
 80 84  1  0  0  0
 80161  1  0  0  0
 80162  1  0  0  0
 81 83  1  0  0  0
 81 86  1  0  0  0
 81163  1  0  0  0
 81164  1  0  0  0
 82165  1  0  0  0
 82166  1  0  0  0
 85167  1  0  0  0
 86168  1  0  0  0
 86169  1  0  0  0
 86170  1  0  0  0
M  CHG  2  85   1  86   1
M  ISO  4   1 100  68 101  82 101  83 100
M  END
> <chiral flag>
0

> <version>
0

> <s_m_source_file>
/data/baiqing/PycharmProjects/Reinvent-master-3.2/result/LINK_invent/BTK/process_docking_weight1_custom_sum_contain_oxygen_bond_distance_aromatic_linkinvent_7_9_3/rearranged_h_0070.sdf

> <i_m_source_file_index>
92

> <r_mmod_Potential_Energy-OPLS-2005>
-18.8484878540039

> <r_mmod_Stretch_Energy-OPLS-2005>
55.2505874633789

> <r_mmod_Bend_Energy-OPLS-2005>
152.743576049805

> <r_mmod_Torsional_Energy-OPLS-2005>
298.003936767578

> <r_mmod_Improper_Torsional_Energy-OPLS-2005>
14.5574369430542

> <r_mmod_Van_der_Waal_Energy-OPLS-2005>
159.384307861328

> <r_mmod_Electrostatic_Energy-OPLS-2005>
197.457946777344

> <r_mmod_Solvation_Energy-OPLS-2005>
-989.496459960938

> <b_mmod_Minimization_Converged-OPLS-2005>
0

> <r_mmod_RMS_Derivative-OPLS-2005>
5.88913679122925

$$$$
93
                    3D
 Structure written by MMmdl.
161169  0  0  1  0            999 V2000
  -30.6082  -14.9185   20.2749 C   0  0  0  0  0  0
  -30.4402  -12.5417   19.4762 C   0  0  0  0  0  0
  -29.5180  -12.3598   18.2517 C   0  0  0  0  0  0
  -28.0391  -12.2307   18.6751 C   0  0  0  0  0  0
  -27.6165  -13.1956   19.8133 C   0  0  2  0  0  0
  -28.6796  -13.3316   20.9187 C   0  0  0  0  0  0
  -25.2529  -13.8066   20.5776 C   0  0  0  0  0  0
  -24.1790  -13.0383   20.9275 C   0  0  0  0  0  0
  -24.6334  -11.6842   20.8838 C   0  0  0  0  0  0
  -23.9015  -10.4249   21.0477 C   0  0  0  0  0  0
  -24.3576   -9.4166   21.9239 C   0  0  0  0  0  0
  -23.6267   -8.2199   22.0774 C   0  0  0  0  0  0
  -22.4258   -8.0244   21.3547 C   0  0  0  0  0  0
  -21.9886   -9.0228   20.4664 C   0  0  0  0  0  0
  -22.7206  -10.2113   20.3106 C   0  0  0  0  0  0
  -21.6835   -6.0721   22.5284 C   0  0  0  0  0  0
  -21.4000   -6.5636   23.8218 C   0  0  0  0  0  0
  -21.3664   -5.6795   24.9184 C   0  0  0  0  0  0
  -21.6053   -4.3060   24.7239 C   0  0  0  0  0  0
  -21.8815   -3.8146   23.4363 C   0  0  0  0  0  0
  -21.9186   -4.6953   22.3416 C   0  0  0  0  0  0
  -22.7825  -13.5224   21.1896 C   0  0  0  0  0  0
  -22.1650   -4.2139   21.0990 F   0  0  0  0  0  0
  -21.5639   -3.4555   25.7761 F   0  0  0  0  0  0
  -29.9428  -13.6961   20.2648 N   0  0  0  0  0  0
  -26.2858  -12.9176   20.3302 N   0  0  0  0  0  0
  -25.9245  -11.6381   20.5872 N   0  0  0  0  0  0
  -22.0427  -12.8236   22.0421 N   0  0  0  0  0  0
  -25.4321  -15.1776   20.4196 N   0  0  0  0  0  0
  -31.8296  -14.8248   20.4263 O   0  0  0  0  0  0
  -21.6619   -6.8846   21.4238 O   0  0  0  0  0  0
  -22.3565  -14.5549   20.6730 O   0  0  0  0  0  0
  -24.6355  -31.8499   23.1929 C   0  0  0  0  0  0
  -25.9157  -32.4732   23.8295 C   0  0  1  0  0  0
  -27.2254  -27.2200   20.1558 C   0  0  0  0  0  0
  -25.5936  -33.8535   24.2232 N   0  0  0  0  0  0
  -23.4349  -30.4695   21.5356 C   0  0  2  0  0  0
  -24.8867  -28.9044   20.1150 C   0  0  0  0  0  0
  -22.7519  -29.4578   22.4879 C   0  0  0  0  0  0
  -18.0314  -28.1383   22.8474 C   0  0  0  0  0  0
  -24.1492  -36.7274   23.2640 C   0  0  0  0  0  0
  -25.9825  -30.7543   21.3746 C   0  0  0  0  0  0
  -26.0592  -29.3686   20.7264 C   0  0  0  0  0  0
  -27.2335  -28.5417   20.7288 C   0  0  0  0  0  0
  -26.0317  -26.8278   19.5156 C   0  0  0  0  0  0
  -24.8802  -27.6434   19.4968 C   0  0  0  0  0  0
  -23.6581  -29.7966   20.1556 C   0  0  0  0  0  0
  -25.4121  -36.3051   24.0320 C   0  0  1  0  0  0
  -20.5917  -28.3706   23.1254 C   0  0  2  0  0  0
  -20.6804  -26.9419   22.5402 C   0  0  0  0  0  0
  -19.5779  -26.6380   21.5207 C   0  0  0  0  0  0
  -18.1957  -26.7926   22.1613 C   0  0  0  0  0  0
  -19.1565  -28.8855   23.2864 C   0  0  0  0  0  0
  -18.9476  -30.1446   23.8896 C   0  0  0  0  0  0
  -17.6476  -30.6576   24.0560 C   0  0  0  0  0  0
  -25.9065  -34.9425   23.5084 C   0  0  0  0  0  0
  -16.5369  -29.9073   23.6321 C   0  0  0  0  0  0
  -16.7296  -28.6495   23.0342 C   0  0  0  0  0  0
  -26.4519  -31.6568   25.0696 C   0  0  0  0  0  0
  -25.3737  -31.3717   26.1412 C   0  0  0  0  0  0
  -27.0376  -30.2981   24.6189 C   0  0  0  0  0  0
  -27.6066  -32.4303   25.7491 C   0  0  0  0  0  0
  -27.5579  -37.1789   24.8465 C   0  0  0  0  0  0
  -21.4220  -29.3058   22.3641 N   0  0  0  0  0  0
  -26.4286  -37.3756   23.9408 N   0  0  0  0  0  0
  -24.7033  -31.0434   22.0914 N   0  0  0  0  0  0
  -23.4191  -28.8111   23.2993 O   0  0  0  0  0  0
  -28.3126  -26.3051   20.1622 O   0  0  0  0  0  0
  -26.5639  -34.8905   22.4655 O   0  0  0  0  0  0
  -23.5491  -32.1333   23.7197 O   0  0  0  0  0  0
  -28.3334  -18.3109   20.0500 C   0  0  0  0  0  0
  -28.0444  -19.7093   20.2131 C   0  0  0  0  0  0
  -29.6500  -17.7678   20.2138 C   0  0  0  0  0  0
  -29.0798  -20.6160   20.5881 C   0  0  0  0  0  0
  -25.6581  -19.7976   21.0831 C   0  0  0  0  0  0
  -29.0772  -16.0337   18.4169 C   0  0  0  0  0  0
  -31.3427  -16.7487   18.6610 C   0  0  0  0  0  0
  -26.6230  -20.1885   19.9571 C   0  0  0  0  0  0
  -28.8064  -22.1512   21.0381 C   0  0  0  0  0  0
  -28.7260  -23.4961   20.0972 C   0  0  0  0  0  0
  -28.1321  -24.9026   20.7242 C   0  0  0  0  0  0
  -30.1100  -16.3409   19.5311 C   0  0  0  0  0  0
  -30.5861  -18.7050   20.6090 N   0  0  0  0  0  0
  -30.3140  -20.0400   20.7975 N   0  0  0  0  0  0
  -31.4688  -12.6871   19.1435 H   0  0  0  0  0  0
  -30.4480  -11.6382   20.0883 H   0  0  0  0  0  0
  -29.8113  -11.4529   17.7204 H   0  0  0  0  0  0
  -29.6607  -13.1516   17.5230 H   0  0  0  0  0  0
  -27.9035  -11.2024   19.0136 H   0  0  0  0  0  0
  -27.3830  -12.3493   17.8116 H   0  0  0  0  0  0
  -27.5188  -14.1449   19.3237 H   0  0  0  0  0  0
  -28.7828  -12.4039   21.4828 H   0  0  0  0  0  0
  -28.3920  -14.1045   21.6339 H   0  0  0  0  0  0
  -25.2710   -9.5642   22.4840 H   0  0  0  0  0  0
  -23.9982   -7.4577   22.7478 H   0  0  0  0  0  0
  -21.0823   -8.8753   19.8958 H   0  0  0  0  0  0
  -22.3666  -10.9676   19.6242 H   0  0  0  0  0  0
  -21.1975   -7.6144   23.9719 H   0  0  0  0  0  0
  -21.1499   -6.0529   25.9088 H   0  0  0  0  0  0
  -22.0589   -2.7611   23.2873 H   0  0  0  0  0  0
  -22.4008  -11.9869   22.4780 H   0  0  0  0  0  0
  -21.1070  -13.1327   22.2653 H   0  0  0  0  0  0
  -24.6783  -15.8433   20.5480 H   0  0  0  0  0  0
  -26.2976  -15.6069   20.1252 H   0  0  0  0  0  0
  -26.7226  -32.5385   23.1041 H   0  0  0  0  0  0
  -25.0083  -33.9665   25.0375 H   0  0  0  0  0  0
  -22.7339  -31.2926   21.3836 H   0  0  0  0  0  0
  -23.3747  -35.9614   23.3299 H   0  0  0  0  0  0
  -24.3578  -36.8905   22.2055 H   0  0  0  0  0  0
  -23.7255  -37.6471   23.6681 H   0  0  0  0  0  0
  -26.1177  -31.5053   20.5950 H   0  0  0  0  0  0
  -26.8612  -30.8159   22.0060 H   0  0  0  0  0  0
  -28.1349  -28.8965   21.2101 H   0  0  0  0  0  0
  -25.9812  -25.8591   19.0377 H   0  0  0  0  0  0
  -23.9847  -27.2815   19.0113 H   0  0  0  0  0  0
  -23.7908  -30.5694   19.3975 H   0  0  0  0  0  0
  -22.7764  -29.2324   19.8476 H   0  0  0  0  0  0
  -25.1305  -36.1892   25.0808 H   0  0  0  0  0  0
  -21.0023  -28.3289   24.1367 H   0  0  0  0  0  0
  -20.5695  -26.2309   23.3595 H   0  0  0  0  0  0
  -21.6664  -26.7438   22.1190 H   0  0  0  0  0  0
  -19.6933  -25.6293   21.1226 H   0  0  0  0  0  0
  -19.6713  -27.3200   20.6744 H   0  0  0  0  0  0
  -17.4226  -26.6667   21.4017 H   0  0  0  0  0  0
  -18.0372  -26.0068   22.9016 H   0  0  0  0  0  0
  -19.7954  -30.7261   24.2264 H   0  0  0  0  0  0
  -17.5033  -31.6257   24.5172 H   0  0  0  0  0  0
  -15.5374  -30.2977   23.7654 H   0  0  0  0  0  0
  -15.8693  -28.0821   22.7053 H   0  0  0  0  0  0
  -24.5926  -30.7058   25.7731 H   0  0  0  0  0  0
  -24.8914  -32.2888   26.4805 H   0  0  0  0  0  0
  -25.8041  -30.8910   27.0207 H   0  0  0  0  0  0
  -26.2965  -29.6711   24.1214 H   0  0  0  0  0  0
  -27.4070  -29.7259   25.4710 H   0  0  0  0  0  0
  -27.8839  -30.4254   23.9432 H   0  0  0  0  0  0
  -27.2676  -33.3610   26.2052 H   0  0  0  0  0  0
  -28.3903  -32.6836   25.0341 H   0  0  0  0  0  0
  -28.0715  -31.8430   26.5422 H   0  0  0  0  0  0
  -28.2580  -38.0095   24.7500 H   0  0  0  0  0  0
  -28.1079  -36.2618   24.6303 H   0  0  0  0  0  0
  -27.2289  -37.1460   25.8863 H   0  0  0  0  0  0
  -20.9404  -29.8763   21.6837 H   0  0  0  0  0  0
  -26.0157  -38.2821   24.1408 H   0  0  0  0  0  0
  -27.5154  -17.6917   19.7242 H   0  0  0  0  0  0
  -25.6510  -18.7188   21.2418 H   0  0  0  0  0  0
  -24.6382  -20.1011   20.8431 H   0  0  0  0  0  0
  -25.9325  -20.2723   22.0255 H   0  0  0  0  0  0
  -28.0619  -15.9668   18.7780 H   0  0  0  0  0  0
  -29.0459  -16.8264   17.6675 H   0  0  0  0  0  0
  -29.3066  -15.1306   17.8702 H   0  0  0  0  0  0
  -32.1856  -17.0710   19.2741 H   0  0  0  0  0  0
  -31.6989  -15.9231   18.0409 H   0  0  0  0  0  0
  -31.1216  -17.5804   17.9906 H   0  0  0  0  0  0
  -26.2786  -19.7597   19.0152 H   0  0  0  0  0  0
  -26.6037  -21.2669   19.8032 H   0  0  0  0  0  0
  -29.5569  -22.3623   21.7994 H   0  0  0  0  0  0
  -27.8783  -22.1153   21.6071 H   0  0  0  0  0  0
  -29.7268  -23.6815   19.7080 H   0  0  0  0  0  0
  -28.1182  -23.2553   19.2245 H   0  0  0  0  0  0
  -27.0708  -24.7397   20.9144 H   0  0  0  0  0  0
  -28.5620  -24.9786   21.7242 H   0  0  0  0  0  0
  1 25  1  0  0  0
  1 30  2  0  0  0
  1 82  1  0  0  0
  2  3  1  0  0  0
  2 25  1  0  0  0
  2 85  1  0  0  0
  2 86  1  0  0  0
  3  4  1  0  0  0
  3 87  1  0  0  0
  3 88  1  0  0  0
  4  5  1  0  0  0
  4 89  1  0  0  0
  4 90  1  0  0  0
  5  6  1  0  0  0
  5 26  1  0  0  0
  5 91  1  0  0  0
  6 25  1  0  0  0
  6 92  1  0  0  0
  6 93  1  0  0  0
  7  8  2  0  0  0
  7 26  1  0  0  0
  7 29  1  0  0  0
  8  9  1  0  0  0
  8 22  1  0  0  0
  9 10  1  0  0  0
  9 27  2  0  0  0
 10 11  2  0  0  0
 10 15  1  0  0  0
 11 12  1  0  0  0
 11 94  1  0  0  0
 12 13  2  0  0  0
 12 95  1  0  0  0
 13 14  1  0  0  0
 13 31  1  0  0  0
 14 15  2  0  0  0
 14 96  1  0  0  0
 15 97  1  0  0  0
 16 17  2  0  0  0
 16 21  1  0  0  0
 16 31  1  0  0  0
 17 18  1  0  0  0
 17 98  1  0  0  0
 18 19  2  0  0  0
 18 99  1  0  0  0
 19 20  1  0  0  0
 19 24  1  0  0  0
 20 21  2  0  0  0
 20100  1  0  0  0
 21 23  1  0  0  0
 22 28  1  0  0  0
 22 32  2  0  0  0
 26 27  1  0  0  0
 28101  1  0  0  0
 28102  1  0  0  0
 29103  1  0  0  0
 29104  1  0  0  0
 33 34  1  0  0  0
 33 66  1  0  0  0
 33 70  2  0  0  0
 34 36  1  0  0  0
 34 59  1  0  0  0
 34105  1  0  0  0
 35 44  2  0  0  0
 35 45  1  0  0  0
 35 68  1  0  0  0
 36 56  1  0  0  0
 36106  1  0  0  0
 37 39  1  0  0  0
 37 47  1  0  0  0
 37 66  1  0  0  0
 37107  1  0  0  0
 38 43  2  0  0  0
 38 46  1  0  0  0
 38 47  1  0  0  0
 39 64  1  0  0  0
 39 67  2  0  0  0
 40 52  1  0  0  0
 40 53  2  0  0  0
 40 58  1  0  0  0
 41108  1  0  0  0
 41109  1  0  0  0
 41110  1  0  0  0
 41 48  1  0  0  0
 42 43  1  0  0  0
 42 66  1  0  0  0
 42111  1  0  0  0
 42112  1  0  0  0
 43 44  1  0  0  0
 44113  1  0  0  0
 45 46  2  0  0  0
 45114  1  0  0  0
 46115  1  0  0  0
 47116  1  0  0  0
 47117  1  0  0  0
 48 56  1  0  0  0
 48 65  1  0  0  0
 48118  1  0  0  0
 49 50  1  0  0  0
 49 53  1  0  0  0
 49 64  1  0  0  0
 49119  1  0  0  0
 50 51  1  0  0  0
 50120  1  0  0  0
 50121  1  0  0  0
 51 52  1  0  0  0
 51122  1  0  0  0
 51123  1  0  0  0
 52124  1  0  0  0
 52125  1  0  0  0
 53 54  1  0  0  0
 54 55  2  0  0  0
 54126  1  0  0  0
 55 57  1  0  0  0
 55127  1  0  0  0
 56 69  2  0  0  0
 57 58  2  0  0  0
 57128  1  0  0  0
 58129  1  0  0  0
 59 60  1  0  0  0
 59 61  1  0  0  0
 59 62  1  0  0  0
 60130  1  0  0  0
 60131  1  0  0  0
 60132  1  0  0  0
 61133  1  0  0  0
 61134  1  0  0  0
 61135  1  0  0  0
 62136  1  0  0  0
 62137  1  0  0  0
 62138  1  0  0  0
 63 65  1  0  0  0
 63139  1  0  0  0
 63140  1  0  0  0
 63141  1  0  0  0
 64142  1  0  0  0
 65143  1  0  0  0
 68 81  1  0  0  0
 71 72  2  0  0  0
 71 73  1  0  0  0
 71144  1  0  0  0
 72 74  1  0  0  0
 72 78  1  0  0  0
 73 82  1  0  0  0
 73 83  2  0  0  0
 74 79  1  0  0  0
 74 84  2  0  0  0
 75 78  1  0  0  0
 75145  1  0  0  0
 75146  1  0  0  0
 75147  1  0  0  0
 76148  1  0  0  0
 76149  1  0  0  0
 76150  1  0  0  0
 76 82  1  0  0  0
 77 82  1  0  0  0
 77151  1  0  0  0
 77152  1  0  0  0
 77153  1  0  0  0
 78154  1  0  0  0
 78155  1  0  0  0
 79 80  1  0  0  0
 79156  1  0  0  0
 79157  1  0  0  0
 80 81  1  0  0  0
 80158  1  0  0  0
 80159  1  0  0  0
 81160  1  0  0  0
 81161  1  0  0  0
 83 84  1  0  0  0
M  ISO  4   1 100  68 101  81 101  82 100
M  END
> <chiral flag>
0

> <version>
0

> <s_m_source_file>
/data/baiqing/PycharmProjects/Reinvent-master-3.2/result/LINK_invent/BTK/process_docking_weight1_custom_sum_contain_oxygen_bond_distance_aromatic_linkinvent_7_9_3/rearranged_h_0070.sdf

> <i_m_source_file_index>
93

> <r_mmod_Potential_Energy-OPLS-2005>
594.407775878906

> <r_mmod_Stretch_Energy-OPLS-2005>
193.958541870117

> <r_mmod_Bend_Energy-OPLS-2005>
274.283721923828

> <r_mmod_Torsional_Energy-OPLS-2005>
261.535064697266

> <r_mmod_Improper_Torsional_Energy-OPLS-2005>
23.5901718139648

> <r_mmod_Van_der_Waal_Energy-OPLS-2005>
157.098022460938

> <r_mmod_Electrostatic_Energy-OPLS-2005>
-273.455963134766

> <r_mmod_Solvation_Energy-OPLS-2005>
-218.844100952148

> <b_mmod_Minimization_Converged-OPLS-2005>
0

> <r_mmod_RMS_Derivative-OPLS-2005>
2.0196487903595

$$$$
94
                    3D
 Structure written by MMmdl.
172180  0  0  1  0            999 V2000
  -30.5587  -14.7726   20.3592 C   0  0  0  0  0  0
  -30.4545  -12.4331   19.4975 C   0  0  0  0  0  0
  -29.5358  -12.4112   18.2523 C   0  0  0  0  0  0
  -28.0451  -12.2923   18.6481 C   0  0  0  0  0  0
  -27.6400  -13.2047   19.8387 C   0  0  2  0  0  0
  -28.6889  -13.1672   20.9700 C   0  0  0  0  0  0
  -25.2562  -13.8119   20.5671 C   0  0  0  0  0  0
  -24.1821  -13.0421   20.9190 C   0  0  0  0  0  0
  -24.6368  -11.6890   20.8757 C   0  0  0  0  0  0
  -23.9038  -10.4291   21.0417 C   0  0  0  0  0  0
  -24.3621   -9.4208   21.9178 C   0  0  0  0  0  0
  -23.6310   -8.2240   22.0742 C   0  0  0  0  0  0
  -22.4284   -8.0272   21.3541 C   0  0  0  0  0  0
  -21.9910   -9.0238   20.4642 C   0  0  0  0  0  0
  -22.7227  -10.2124   20.3051 C   0  0  0  0  0  0
  -21.6847   -6.0738   22.5286 C   0  0  0  0  0  0
  -21.4011   -6.5637   23.8214 C   0  0  0  0  0  0
  -21.3668   -5.6783   24.9178 C   0  0  0  0  0  0
  -21.6048   -4.3055   24.7218 C   0  0  0  0  0  0
  -21.8828   -3.8147   23.4334 C   0  0  0  0  0  0
  -21.9191   -4.6963   22.3398 C   0  0  0  0  0  0
  -22.7851  -13.5241   21.1832 C   0  0  0  0  0  0
  -22.1655   -4.2159   21.0973 F   0  0  0  0  0  0
  -21.5643   -3.4533   25.7718 F   0  0  0  0  0  0
  -29.9970  -13.5121   20.4001 N   0  0  0  0  0  0
  -26.2940  -12.9253   20.3244 N   0  0  0  0  0  0
  -25.9285  -11.6444   20.5766 N   0  0  0  0  0  0
  -22.0473  -12.8271   22.0401 N   0  0  0  0  0  0
  -25.4283  -15.1838   20.4118 N   0  0  0  0  0  0
  -31.7775  -14.8740   20.1855 O   0  0  0  0  0  0
  -21.6643   -6.8876   21.4246 O   0  0  0  0  0  0
  -22.3564  -14.5537   20.6636 O   0  0  0  0  0  0
  -24.6285  -31.8535   23.1959 C   0  0  0  0  0  0
  -25.9121  -32.4747   23.8300 C   0  0  1  0  0  0
  -27.2456  -27.2873   20.1292 C   0  0  0  0  0  0
  -25.5925  -33.8545   24.2225 N   0  0  0  0  0  0
  -23.4249  -30.4719   21.5368 C   0  0  2  0  0  0
  -24.8761  -28.9137   20.1089 C   0  0  0  0  0  0
  -22.7482  -29.4585   22.4902 C   0  0  0  0  0  0
  -18.0288  -28.1389   22.8470 C   0  0  0  0  0  0
  -24.1487  -36.7285   23.2638 C   0  0  0  0  0  0
  -25.9640  -30.7769   21.3670 C   0  0  0  0  0  0
  -26.0409  -29.3990   20.7137 C   0  0  0  0  0  0
  -27.2230  -28.5971   20.7100 C   0  0  0  0  0  0
  -26.0526  -26.8500   19.5099 C   0  0  0  0  0  0
  -24.8863  -27.6462   19.4977 C   0  0  0  0  0  0
  -23.6425  -29.7958   20.1552 C   0  0  0  0  0  0
  -25.4115  -36.3055   24.0313 C   0  0  1  0  0  0
  -20.5888  -28.3689   23.1269 C   0  0  2  0  0  0
  -20.6769  -26.9406   22.5409 C   0  0  0  0  0  0
  -19.5756  -26.6376   21.5201 C   0  0  0  0  0  0
  -18.1935  -26.7932   22.1606 C   0  0  0  0  0  0
  -19.1541  -28.8854   23.2868 C   0  0  0  0  0  0
  -18.9467  -30.1453   23.8888 C   0  0  0  0  0  0
  -17.6468  -30.6584   24.0561 C   0  0  0  0  0  0
  -25.9054  -34.9434   23.5071 C   0  0  0  0  0  0
  -16.5357  -29.9082   23.6329 C   0  0  0  0  0  0
  -16.7277  -28.6502   23.0342 C   0  0  0  0  0  0
  -26.4508  -31.6585   25.0695 C   0  0  0  0  0  0
  -25.3747  -31.3728   26.1433 C   0  0  0  0  0  0
  -27.0355  -30.3007   24.6164 C   0  0  0  0  0  0
  -27.6043  -32.4340   25.7481 C   0  0  0  0  0  0
  -27.5573  -37.1792   24.8454 C   0  0  0  0  0  0
  -21.4189  -29.3036   22.3653 N   0  0  0  0  0  0
  -26.4282  -37.3762   23.9406 N   0  0  0  0  0  0
  -24.6914  -31.0515   22.0914 N   0  0  0  0  0  0
  -23.4186  -28.8149   23.3016 O   0  0  0  0  0  0
  -28.4004  -26.4823   20.2061 O   0  0  0  0  0  0
  -26.5628  -34.8917   22.4640 O   0  0  0  0  0  0
  -23.5443  -32.1347   23.7267 O   0  0  0  0  0  0
  -30.3754  -19.4480   21.6732 C   0  0  0  0  0  0
  -29.5149  -19.7489   20.5794 C   0  0  0  0  0  0
  -30.5468  -18.0715   21.6957 C   0  0  0  0  0  0
  -30.4276  -16.6479   17.6623 C   0  0  0  0  0  0
  -30.9498  -17.7245   24.1597 C   0  0  0  0  0  0
  -32.7824  -17.2575   22.4908 C   0  0  0  0  0  0
  -29.1183  -21.2642   18.5899 C   0  0  0  0  0  0
  -27.3139  -20.9260   20.3174 C   0  0  0  0  0  0
  -29.2988  -16.1376   18.5785 C   0  0  0  0  0  0
  -28.3983  -23.8564   20.8212 C   0  0  0  0  0  0
  -29.2824  -22.4841   20.7875 C   0  0  0  0  0  0
  -28.5219  -25.0582   19.7630 C   0  0  0  0  0  0
  -31.2674  -17.2572   22.7293 C   0  0  0  0  0  0
  -29.6169  -16.0750   20.1108 C   0  0  2  0  0  0
  -28.8267  -21.1013   20.0923 C   0  0  0  0  0  0
  -29.2425  -18.5724   19.9765 N   0  0  0  0  0  0
  -29.9105  -17.5143   20.5834 N   0  0  0  0  0  0
  -31.4926  -12.5683   19.1895 H   0  0  0  0  0  0
  -30.4189  -11.4721   20.0133 H   0  0  0  0  0  0
  -29.8068  -11.5634   17.6215 H   0  0  0  0  0  0
  -29.7144  -13.2828   17.6297 H   0  0  0  0  0  0
  -27.8801  -11.2503   18.9222 H   0  0  0  0  0  0
  -27.4083  -12.4825   17.7841 H   0  0  0  0  0  0
  -27.5956  -14.2106   19.4422 H   0  0  0  0  0  0
  -28.7267  -12.1764   21.4245 H   0  0  0  0  0  0
  -28.4231  -13.8634   21.7684 H   0  0  0  0  0  0
  -25.2757   -9.5690   22.4762 H   0  0  0  0  0  0
  -24.0016   -7.4635   22.7464 H   0  0  0  0  0  0
  -21.0831   -8.8768   19.8965 H   0  0  0  0  0  0
  -22.3675  -10.9672   19.6181 H   0  0  0  0  0  0
  -21.1990   -7.6140   23.9722 H   0  0  0  0  0  0
  -21.1486   -6.0512   25.9085 H   0  0  0  0  0  0
  -22.0592   -2.7608   23.2828 H   0  0  0  0  0  0
  -22.4091  -11.9969   22.4839 H   0  0  0  0  0  0
  -21.1081  -13.1311   22.2569 H   0  0  0  0  0  0
  -24.6630  -15.8373   20.5359 H   0  0  0  0  0  0
  -26.2825  -15.6314   20.1071 H   0  0  0  0  0  0
  -26.7185  -32.5409   23.1043 H   0  0  0  0  0  0
  -25.0081  -33.9681   25.0374 H   0  0  0  0  0  0
  -22.7217  -31.2930   21.3862 H   0  0  0  0  0  0
  -23.3744  -35.9620   23.3287 H   0  0  0  0  0  0
  -24.3569  -36.8931   22.2053 H   0  0  0  0  0  0
  -23.7254  -37.6483   23.6687 H   0  0  0  0  0  0
  -26.0932  -31.5384   20.5962 H   0  0  0  0  0  0
  -26.8444  -30.8307   21.9964 H   0  0  0  0  0  0
  -28.1182  -28.9707   21.1866 H   0  0  0  0  0  0
  -25.9997  -25.8745   19.0497 H   0  0  0  0  0  0
  -23.9914  -27.2646   19.0248 H   0  0  0  0  0  0
  -23.7614  -30.5672   19.3939 H   0  0  0  0  0  0
  -22.7631  -29.2226   19.8552 H   0  0  0  0  0  0
  -25.1306  -36.1880   25.0804 H   0  0  0  0  0  0
  -20.9982  -28.3270   24.1390 H   0  0  0  0  0  0
  -20.5639  -26.2305   23.3616 H   0  0  0  0  0  0
  -21.6645  -26.7418   22.1223 H   0  0  0  0  0  0
  -19.6918  -25.6278   21.1248 H   0  0  0  0  0  0
  -19.6716  -27.3168   20.6717 H   0  0  0  0  0  0
  -17.4212  -26.6679   21.4004 H   0  0  0  0  0  0
  -18.0336  -26.0071   22.8997 H   0  0  0  0  0  0
  -19.7946  -30.7267   24.2257 H   0  0  0  0  0  0
  -17.5026  -31.6267   24.5162 H   0  0  0  0  0  0
  -15.5356  -30.2987   23.7658 H   0  0  0  0  0  0
  -15.8676  -28.0822   22.7061 H   0  0  0  0  0  0
  -24.5889  -30.7127   25.7760 H   0  0  0  0  0  0
  -24.9006  -32.2910   26.4909 H   0  0  0  0  0  0
  -25.8088  -30.8858   27.0178 H   0  0  0  0  0  0
  -26.2931  -29.6747   24.1216 H   0  0  0  0  0  0
  -27.4073  -29.7279   25.4670 H   0  0  0  0  0  0
  -27.8785  -30.4280   23.9371 H   0  0  0  0  0  0
  -27.2611  -33.3603   26.2102 H   0  0  0  0  0  0
  -28.3848  -32.6976   25.0329 H   0  0  0  0  0  0
  -28.0740  -31.8464   26.5382 H   0  0  0  0  0  0
  -28.2578  -38.0102   24.7507 H   0  0  0  0  0  0
  -28.1082  -36.2632   24.6269 H   0  0  0  0  0  0
  -27.2295  -37.1424   25.8858 H   0  0  0  0  0  0
  -20.9369  -29.8749   21.6852 H   0  0  0  0  0  0
  -26.0147  -38.2822   24.1443 H   0  0  0  0  0  0
  -30.7668  -20.1475   22.3989 H   0  0  0  0  0  0
  -30.1106  -16.6106   16.6189 H   0  0  0  0  0  0
  -31.3268  -16.0388   17.7531 H   0  0  0  0  0  0
  -30.6973  -17.6809   17.8865 H   0  0  0  0  0  0
  -29.8774  -17.6798   24.3560 H   0  0  0  0  0  0
  -31.2773  -18.7491   24.3367 H   0  0  0  0  0  0
  -31.4445  -17.0913   24.8967 H   0  0  0  0  0  0
  -33.0273  -16.8984   21.4918 H   0  0  0  0  0  0
  -33.2903  -16.6133   23.2087 H   0  0  0  0  0  0
  -33.1965  -18.2608   22.5914 H   0  0  0  0  0  0
  -28.7700  -20.4056   18.0142 H   0  0  0  0  0  0
  -30.1913  -21.3572   18.4156 H   0  0  0  0  0  0
  -28.6373  -22.1515   18.1781 H   0  0  0  0  0  0
  -26.9470  -20.0101   19.8513 H   0  0  0  0  0  0
  -26.7360  -21.7442   19.8923 H   0  0  0  0  0  0
  -27.0819  -20.8668   21.3810 H   0  0  0  0  0  0
  -29.0124  -15.1650   18.2034 H   0  0  0  0  0  0
  -28.4076  -16.7451   18.4113 H   0  0  0  0  0  0
  -28.6730  -24.3209   21.7689 H   0  0  0  0  0  0
  -27.3440  -23.6181   20.9532 H   0  0  0  0  0  0
  -29.3912  -22.2193   21.8397 H   0  0  0  0  0  0
  -30.3009  -22.7230   20.4768 H   0  0  0  0  0  0
  -27.9005  -24.8572   18.8909 H   0  0  0  0  0  0
  -29.5373  -25.0007   19.3690 H   0  0  0  0  0  0
  -30.9212  -16.2274   22.6663 H   0  0  0  0  0  0
  -28.6847  -15.8355   20.6172 H   0  0  0  0  0  0
  1 25  1  0  0  0
  1 30  2  0  0  0
  1 84  1  0  0  0
  2  3  1  0  0  0
  2 25  1  0  0  0
  2 88  1  0  0  0
  2 89  1  0  0  0
  3  4  1  0  0  0
  3 90  1  0  0  0
  3 91  1  0  0  0
  4  5  1  0  0  0
  4 92  1  0  0  0
  4 93  1  0  0  0
  5  6  1  0  0  0
  5 26  1  0  0  0
  5 94  1  0  0  0
  6 25  1  0  0  0
  6 95  1  0  0  0
  6 96  1  0  0  0
  7  8  2  0  0  0
  7 26  1  0  0  0
  7 29  1  0  0  0
  8  9  1  0  0  0
  8 22  1  0  0  0
  9 10  1  0  0  0
  9 27  2  0  0  0
 10 11  2  0  0  0
 10 15  1  0  0  0
 11 12  1  0  0  0
 11 97  1  0  0  0
 12 13  2  0  0  0
 12 98  1  0  0  0
 13 14  1  0  0  0
 13 31  1  0  0  0
 14 15  2  0  0  0
 14 99  1  0  0  0
 15100  1  0  0  0
 16 17  2  0  0  0
 16 21  1  0  0  0
 16 31  1  0  0  0
 17 18  1  0  0  0
 17101  1  0  0  0
 18 19  2  0  0  0
 18102  1  0  0  0
 19 20  1  0  0  0
 19 24  1  0  0  0
 20 21  2  0  0  0
 20103  1  0  0  0
 21 23  1  0  0  0
 22 28  1  0  0  0
 22 32  2  0  0  0
 26 27  1  0  0  0
 28104  1  0  0  0
 28105  1  0  0  0
 29106  1  0  0  0
 29107  1  0  0  0
 33 34  1  0  0  0
 33 66  1  0  0  0
 33 70  2  0  0  0
 34 36  1  0  0  0
 34 59  1  0  0  0
 34108  1  0  0  0
 35 44  2  0  0  0
 35 45  1  0  0  0
 35 68  1  0  0  0
 36 56  1  0  0  0
 36109  1  0  0  0
 37 39  1  0  0  0
 37 47  1  0  0  0
 37 66  1  0  0  0
 37110  1  0  0  0
 38 43  2  0  0  0
 38 46  1  0  0  0
 38 47  1  0  0  0
 39 64  1  0  0  0
 39 67  2  0  0  0
 40 52  1  0  0  0
 40 53  2  0  0  0
 40 58  1  0  0  0
 41111  1  0  0  0
 41112  1  0  0  0
 41113  1  0  0  0
 41 48  1  0  0  0
 42 43  1  0  0  0
 42 66  1  0  0  0
 42114  1  0  0  0
 42115  1  0  0  0
 43 44  1  0  0  0
 44116  1  0  0  0
 45 46  2  0  0  0
 45117  1  0  0  0
 46118  1  0  0  0
 47119  1  0  0  0
 47120  1  0  0  0
 48 56  1  0  0  0
 48 65  1  0  0  0
 48121  1  0  0  0
 49 50  1  0  0  0
 49 53  1  0  0  0
 49 64  1  0  0  0
 49122  1  0  0  0
 50 51  1  0  0  0
 50123  1  0  0  0
 50124  1  0  0  0
 51 52  1  0  0  0
 51125  1  0  0  0
 51126  1  0  0  0
 52127  1  0  0  0
 52128  1  0  0  0
 53 54  1  0  0  0
 54 55  2  0  0  0
 54129  1  0  0  0
 55 57  1  0  0  0
 55130  1  0  0  0
 56 69  2  0  0  0
 57 58  2  0  0  0
 57131  1  0  0  0
 58132  1  0  0  0
 59 60  1  0  0  0
 59 61  1  0  0  0
 59 62  1  0  0  0
 60133  1  0  0  0
 60134  1  0  0  0
 60135  1  0  0  0
 61136  1  0  0  0
 61137  1  0  0  0
 61138  1  0  0  0
 62139  1  0  0  0
 62140  1  0  0  0
 62141  1  0  0  0
 63 65  1  0  0  0
 63142  1  0  0  0
 63143  1  0  0  0
 63144  1  0  0  0
 64145  1  0  0  0
 65146  1  0  0  0
 68 82  1  0  0  0
 71 72  1  0  0  0
 71 73  2  0  0  0
 71147  1  0  0  0
 72 85  1  0  0  0
 72 86  2  0  0  0
 73 83  1  0  0  0
 73 87  1  0  0  0
 74 79  1  0  0  0
 74148  1  0  0  0
 74149  1  0  0  0
 74150  1  0  0  0
 75151  1  0  0  0
 75152  1  0  0  0
 75153  1  0  0  0
 75 83  1  0  0  0
 76 83  1  0  0  0
 76154  1  0  0  0
 76155  1  0  0  0
 76156  1  0  0  0
 77157  1  0  0  0
 77158  1  0  0  0
 77159  1  0  0  0
 77 85  1  0  0  0
 78 85  1  0  0  0
 78160  1  0  0  0
 78161  1  0  0  0
 78162  1  0  0  0
 79163  1  0  0  0
 79164  1  0  0  0
 79 84  1  0  0  0
 80 81  1  0  0  0
 80 82  1  0  0  0
 80165  1  0  0  0
 80166  1  0  0  0
 81 85  1  0  0  0
 81167  1  0  0  0
 81168  1  0  0  0
 82169  1  0  0  0
 82170  1  0  0  0
 83171  1  0  0  0
 84 87  1  0  0  0
 84172  1  0  0  0
 86 87  1  0  0  0
M  ISO  4   1 100  68 101  82 101  84 100
M  END
> <chiral flag>
0

> <version>
0

> <s_m_source_file>
/data/baiqing/PycharmProjects/Reinvent-master-3.2/result/LINK_invent/BTK/process_docking_weight1_custom_sum_contain_oxygen_bond_distance_aromatic_linkinvent_7_9_3/rearranged_h_0070.sdf

> <i_m_source_file_index>
94

> <r_mmod_Potential_Energy-OPLS-2005>
284.591644287109

> <r_mmod_Stretch_Energy-OPLS-2005>
125.689506530762

> <r_mmod_Bend_Energy-OPLS-2005>
221.541687011719

> <r_mmod_Torsional_Energy-OPLS-2005>
223.249816894531

> <r_mmod_Improper_Torsional_Energy-OPLS-2005>
11.4429264068604

> <r_mmod_Van_der_Waal_Energy-OPLS-2005>
112.727958679199

> <r_mmod_Electrostatic_Energy-OPLS-2005>
-319.404907226562

> <r_mmod_Solvation_Energy-OPLS-2005>
-179.643814086914

> <b_mmod_Minimization_Converged-OPLS-2005>
0

> <r_mmod_RMS_Derivative-OPLS-2005>
3.05880784988403

$$$$
95
                    3D
 Structure written by MMmdl.
164172  0  0  1  0            999 V2000
  -30.6858  -14.5123   20.5852 C   0  0  0  0  0  0
  -30.4188  -12.3253   19.4630 C   0  0  0  0  0  0
  -29.5219  -12.5525   18.2274 C   0  0  0  0  0  0
  -28.0329  -12.4176   18.6044 C   0  0  0  0  0  0
  -27.6619  -13.2276   19.8814 C   0  0  2  0  0  0
  -28.6927  -13.0154   21.0161 C   0  0  0  0  0  0
  -25.2560  -13.8181   20.5687 C   0  0  0  0  0  0
  -24.1843  -13.0414   20.9127 C   0  0  0  0  0  0
  -24.6421  -11.6892   20.8654 C   0  0  0  0  0  0
  -23.9085  -10.4272   21.0319 C   0  0  0  0  0  0
  -24.3641   -9.4219   21.9122 C   0  0  0  0  0  0
  -23.6328   -8.2256   22.0725 C   0  0  0  0  0  0
  -22.4302   -8.0268   21.3526 C   0  0  0  0  0  0
  -21.9919   -9.0216   20.4618 C   0  0  0  0  0  0
  -22.7237  -10.2104   20.2986 C   0  0  0  0  0  0
  -21.6859   -6.0724   22.5278 C   0  0  0  0  0  0
  -21.4034   -6.5646   23.8199 C   0  0  0  0  0  0
  -21.3676   -5.6795   24.9168 C   0  0  0  0  0  0
  -21.6033   -4.3057   24.7223 C   0  0  0  0  0  0
  -21.8821   -3.8137   23.4351 C   0  0  0  0  0  0
  -21.9210   -4.6951   22.3413 C   0  0  0  0  0  0
  -22.7884  -13.5194   21.1848 C   0  0  0  0  0  0
  -22.1661   -4.2146   21.0988 F   0  0  0  0  0  0
  -21.5627   -3.4541   25.7738 F   0  0  0  0  0  0
  -30.0333  -13.3177   20.4846 N   0  0  0  0  0  0
  -26.3010  -12.9394   20.3306 N   0  0  0  0  0  0
  -25.9354  -11.6527   20.5661 N   0  0  0  0  0  0
  -22.0566  -12.8144   22.0393 N   0  0  0  0  0  0
  -25.4221  -15.1900   20.4219 N   0  0  0  0  0  0
  -31.7913  -14.7091   20.0729 O   0  0  0  0  0  0
  -21.6659   -6.8866   21.4235 O   0  0  0  0  0  0
  -22.3567  -14.5531   20.6741 O   0  0  0  0  0  0
  -24.6148  -31.8628   23.2046 C   0  0  0  0  0  0
  -25.9007  -32.4806   23.8344 C   0  0  1  0  0  0
  -27.2346  -27.4128   20.1170 C   0  0  0  0  0  0
  -25.5862  -33.8617   24.2280 N   0  0  0  0  0  0
  -23.4036  -30.4868   21.5439 C   0  0  2  0  0  0
  -24.8528  -28.9495   20.1107 C   0  0  0  0  0  0
  -22.7417  -29.4622   22.4938 C   0  0  0  0  0  0
  -18.0248  -28.1391   22.8457 C   0  0  0  0  0  0
  -24.1484  -36.7303   23.2646 C   0  0  0  0  0  0
  -25.9312  -30.8311   21.3499 C   0  0  0  0  0  0
  -26.0132  -29.4606   20.7056 C   0  0  0  0  0  0
  -27.2103  -28.7025   20.7011 C   0  0  0  0  0  0
  -26.0616  -26.9238   19.5070 C   0  0  0  0  0  0
  -24.8752  -27.6822   19.5012 C   0  0  0  0  0  0
  -23.6110  -29.8132   20.1599 C   0  0  0  0  0  0
  -25.4099  -36.3100   24.0331 C   0  0  1  0  0  0
  -20.5846  -28.3654   23.1308 C   0  0  2  0  0  0
  -20.6737  -26.9384   22.5421 C   0  0  0  0  0  0
  -19.5731  -26.6367   21.5214 C   0  0  0  0  0  0
  -18.1897  -26.7942   22.1590 C   0  0  0  0  0  0
  -19.1504  -28.8845   23.2879 C   0  0  0  0  0  0
  -18.9444  -30.1452   23.8888 C   0  0  0  0  0  0
  -17.6464  -30.6603   24.0579 C   0  0  0  0  0  0
  -25.9011  -34.9464   23.5115 C   0  0  0  0  0  0
  -16.5344  -29.9102   23.6346 C   0  0  0  0  0  0
  -16.7244  -28.6541   23.0335 C   0  0  0  0  0  0
  -26.4432  -31.6606   25.0691 C   0  0  0  0  0  0
  -25.3726  -31.3748   26.1481 C   0  0  0  0  0  0
  -27.0270  -30.3071   24.6023 C   0  0  0  0  0  0
  -27.6008  -32.4339   25.7445 C   0  0  0  0  0  0
  -27.5570  -37.1781   24.8459 C   0  0  0  0  0  0
  -21.4139  -29.3044   22.3723 N   0  0  0  0  0  0
  -26.4276  -37.3796   23.9428 N   0  0  0  0  0  0
  -24.6699  -31.0735   22.0936 N   0  0  0  0  0  0
  -23.4193  -28.8158   23.2963 O   0  0  0  0  0  0
  -28.3671  -26.6180   20.1196 O   0  0  0  0  0  0
  -26.5603  -34.8935   22.4679 O   0  0  0  0  0  0
  -23.5335  -32.1319   23.7441 O   0  0  0  0  0  0
  -28.7843  -21.5065   20.8219 C   0  0  0  0  0  0
  -28.4837  -19.7035   19.8096 C   0  0  0  0  0  0
  -27.9240  -18.7115   18.8415 C   0  0  0  0  0  0
  -29.2339  -25.9008   22.2263 C   0  0  0  0  0  0
  -30.9579  -18.3348   22.3573 C   0  0  0  0  0  0
  -28.5154  -17.7266   22.5018 C   0  0  0  0  0  0
  -28.4801  -22.9012   21.3478 C   0  0  0  0  0  0
  -28.7167  -24.1253   20.4008 C   0  0  0  0  0  0
  -29.9766  -16.9140   20.5408 C   0  0  0  0  0  0
  -28.3301  -25.5021   21.0442 C   0  0  2  0  0  0
  -29.6621  -18.1067   21.5352 C   0  0  0  0  0  0
  -28.1884  -21.0041   19.7054 N   0  0  0  0  0  0
  -29.4464  -20.5973   21.5462 N   0  0  0  0  0  0
  -29.2602  -19.4060   20.8778 N   0  0  0  0  0  0
  -29.9693  -15.5369   21.1017 N   0  0  0  0  0  0
  -31.4758  -12.3936   19.1969 H   0  0  0  0  0  0
  -30.2732  -11.3164   19.8506 H   0  0  0  0  0  0
  -29.7815  -11.8432   17.4412 H   0  0  0  0  0  0
  -29.7114  -13.5470   17.8138 H   0  0  0  0  0  0
  -27.8241  -11.3585   18.7498 H   0  0  0  0  0  0
  -27.4111  -12.7383   17.7661 H   0  0  0  0  0  0
  -27.6971  -14.2797   19.6040 H   0  0  0  0  0  0
  -28.6625  -11.9804   21.3637 H   0  0  0  0  0  0
  -28.4410  -13.6220   21.8848 H   0  0  0  0  0  0
  -25.2782   -9.5732   22.4688 H   0  0  0  0  0  0
  -24.0035   -7.4674   22.7460 H   0  0  0  0  0  0
  -21.0833   -8.8718   19.8945 H   0  0  0  0  0  0
  -22.3660  -10.9627   19.6090 H   0  0  0  0  0  0
  -21.2016   -7.6164   23.9715 H   0  0  0  0  0  0
  -21.1499   -6.0529   25.9076 H   0  0  0  0  0  0
  -22.0586   -2.7598   23.2858 H   0  0  0  0  0  0
  -22.4265  -11.9796   22.4728 H   0  0  0  0  0  0
  -21.1158  -13.1112   22.2616 H   0  0  0  0  0  0
  -24.6466  -15.8340   20.5370 H   0  0  0  0  0  0
  -26.2722  -15.6451   20.1191 H   0  0  0  0  0  0
  -26.7075  -32.5518   23.1093 H   0  0  0  0  0  0
  -25.0065  -33.9782   25.0469 H   0  0  0  0  0  0
  -22.6919  -31.3008   21.4008 H   0  0  0  0  0  0
  -23.3758  -35.9622   23.3290 H   0  0  0  0  0  0
  -24.3593  -36.8944   22.2064 H   0  0  0  0  0  0
  -23.7218  -37.6493   23.6683 H   0  0  0  0  0  0
  -26.0233  -31.5913   20.5726 H   0  0  0  0  0  0
  -26.8280  -30.9007   21.9549 H   0  0  0  0  0  0
  -28.1053  -29.1004   21.1579 H   0  0  0  0  0  0
  -26.0663  -25.9455   19.0462 H   0  0  0  0  0  0
  -23.9874  -27.2810   19.0360 H   0  0  0  0  0  0
  -23.7067  -30.5855   19.3964 H   0  0  0  0  0  0
  -22.7369  -29.2251   19.8731 H   0  0  0  0  0  0
  -25.1270  -36.1927   25.0820 H   0  0  0  0  0  0
  -20.9908  -28.3210   24.1433 H   0  0  0  0  0  0
  -20.5612  -26.2263   23.3588 H   0  0  0  0  0  0
  -21.6599  -26.7397   22.1219 H   0  0  0  0  0  0
  -19.6895  -25.6281   21.1217 H   0  0  0  0  0  0
  -19.6703  -27.3191   20.6764 H   0  0  0  0  0  0
  -17.4159  -26.6682   21.3996 H   0  0  0  0  0  0
  -18.0286  -26.0103   22.8998 H   0  0  0  0  0  0
  -19.7958  -30.7270   24.2216 H   0  0  0  0  0  0
  -17.5044  -31.6282   24.5182 H   0  0  0  0  0  0
  -15.5355  -30.3023   23.7728 H   0  0  0  0  0  0
  -15.8621  -28.0900   22.7021 H   0  0  0  0  0  0
  -24.5943  -30.6981   25.7922 H   0  0  0  0  0  0
  -24.8853  -32.2929   26.4804 H   0  0  0  0  0  0
  -25.8125  -30.9093   27.0313 H   0  0  0  0  0  0
  -26.2804  -29.6826   24.1121 H   0  0  0  0  0  0
  -27.4168  -29.7282   25.4404 H   0  0  0  0  0  0
  -27.8552  -30.4447   23.9070 H   0  0  0  0  0  0
  -27.2633  -33.3685   26.1936 H   0  0  0  0  0  0
  -28.3871  -32.6819   25.0301 H   0  0  0  0  0  0
  -28.0606  -31.8516   26.5435 H   0  0  0  0  0  0
  -28.2570  -38.0103   24.7543 H   0  0  0  0  0  0
  -28.1079  -36.2629   24.6215 H   0  0  0  0  0  0
  -27.2302  -37.1351   25.8872 H   0  0  0  0  0  0
  -20.9232  -29.8839   21.7046 H   0  0  0  0  0  0
  -26.0138  -38.2853   24.1512 H   0  0  0  0  0  0
  -27.2183  -19.1914   18.1649 H   0  0  0  0  0  0
  -27.3811  -17.9242   19.3668 H   0  0  0  0  0  0
  -28.7201  -18.2904   18.2281 H   0  0  0  0  0  0
  -29.2118  -25.1734   23.0382 H   0  0  0  0  0  0
  -28.9068  -26.8519   22.6478 H   0  0  0  0  0  0
  -30.2725  -26.0222   21.9114 H   0  0  0  0  0  0
  -31.3115  -17.4124   22.8207 H   0  0  0  0  0  0
  -30.8286  -19.0622   23.1617 H   0  0  0  0  0  0
  -31.7618  -18.7047   21.7174 H   0  0  0  0  0  0
  -28.7459  -16.8515   23.1081 H   0  0  0  0  0  0
  -27.5860  -17.5297   21.9648 H   0  0  0  0  0  0
  -28.3052  -18.5392   23.2005 H   0  0  0  0  0  0
  -29.0315  -23.0458   22.2770 H   0  0  0  0  0  0
  -27.4281  -22.9046   21.6316 H   0  0  0  0  0  0
  -28.0988  -23.9776   19.5131 H   0  0  0  0  0  0
  -29.7474  -24.1476   20.0478 H   0  0  0  0  0  0
  -30.9065  -17.1228   20.0052 H   0  0  0  0  0  0
  -29.2165  -16.8204   19.7756 H   0  0  0  0  0  0
  -27.3215  -25.3887   21.4474 H   0  0  0  0  0  0
  -29.1332  -15.2660   21.5993 H   0  0  0  0  0  0
  1 25  1  0  0  0
  1 30  2  0  0  0
  1 85  1  0  0  0
  2  3  1  0  0  0
  2 25  1  0  0  0
  2 86  1  0  0  0
  2 87  1  0  0  0
  3  4  1  0  0  0
  3 88  1  0  0  0
  3 89  1  0  0  0
  4  5  1  0  0  0
  4 90  1  0  0  0
  4 91  1  0  0  0
  5  6  1  0  0  0
  5 26  1  0  0  0
  5 92  1  0  0  0
  6 25  1  0  0  0
  6 93  1  0  0  0
  6 94  1  0  0  0
  7  8  2  0  0  0
  7 26  1  0  0  0
  7 29  1  0  0  0
  8  9  1  0  0  0
  8 22  1  0  0  0
  9 10  1  0  0  0
  9 27  2  0  0  0
 10 11  2  0  0  0
 10 15  1  0  0  0
 11 12  1  0  0  0
 11 95  1  0  0  0
 12 13  2  0  0  0
 12 96  1  0  0  0
 13 14  1  0  0  0
 13 31  1  0  0  0
 14 15  2  0  0  0
 14 97  1  0  0  0
 15 98  1  0  0  0
 16 17  2  0  0  0
 16 21  1  0  0  0
 16 31  1  0  0  0
 17 18  1  0  0  0
 17 99  1  0  0  0
 18 19  2  0  0  0
 18100  1  0  0  0
 19 20  1  0  0  0
 19 24  1  0  0  0
 20 21  2  0  0  0
 20101  1  0  0  0
 21 23  1  0  0  0
 22 28  1  0  0  0
 22 32  2  0  0  0
 26 27  1  0  0  0
 28102  1  0  0  0
 28103  1  0  0  0
 29104  1  0  0  0
 29105  1  0  0  0
 33 34  1  0  0  0
 33 66  1  0  0  0
 33 70  2  0  0  0
 34 36  1  0  0  0
 34 59  1  0  0  0
 34106  1  0  0  0
 35 44  2  0  0  0
 35 45  1  0  0  0
 35 68  1  0  0  0
 36 56  1  0  0  0
 36107  1  0  0  0
 37 39  1  0  0  0
 37 47  1  0  0  0
 37 66  1  0  0  0
 37108  1  0  0  0
 38 43  2  0  0  0
 38 46  1  0  0  0
 38 47  1  0  0  0
 39 64  1  0  0  0
 39 67  2  0  0  0
 40 52  1  0  0  0
 40 53  2  0  0  0
 40 58  1  0  0  0
 41109  1  0  0  0
 41110  1  0  0  0
 41111  1  0  0  0
 41 48  1  0  0  0
 42 43  1  0  0  0
 42 66  1  0  0  0
 42112  1  0  0  0
 42113  1  0  0  0
 43 44  1  0  0  0
 44114  1  0  0  0
 45 46  2  0  0  0
 45115  1  0  0  0
 46116  1  0  0  0
 47117  1  0  0  0
 47118  1  0  0  0
 48 56  1  0  0  0
 48 65  1  0  0  0
 48119  1  0  0  0
 49 50  1  0  0  0
 49 53  1  0  0  0
 49 64  1  0  0  0
 49120  1  0  0  0
 50 51  1  0  0  0
 50121  1  0  0  0
 50122  1  0  0  0
 51 52  1  0  0  0
 51123  1  0  0  0
 51124  1  0  0  0
 52125  1  0  0  0
 52126  1  0  0  0
 53 54  1  0  0  0
 54 55  2  0  0  0
 54127  1  0  0  0
 55 57  1  0  0  0
 55128  1  0  0  0
 56 69  2  0  0  0
 57 58  2  0  0  0
 57129  1  0  0  0
 58130  1  0  0  0
 59 60  1  0  0  0
 59 61  1  0  0  0
 59 62  1  0  0  0
 60131  1  0  0  0
 60132  1  0  0  0
 60133  1  0  0  0
 61134  1  0  0  0
 61135  1  0  0  0
 61136  1  0  0  0
 62137  1  0  0  0
 62138  1  0  0  0
 62139  1  0  0  0
 63 65  1  0  0  0
 63140  1  0  0  0
 63141  1  0  0  0
 63142  1  0  0  0
 64143  1  0  0  0
 65144  1  0  0  0
 68 80  1  0  0  0
 71 77  1  0  0  0
 71 82  1  0  0  0
 71 83  2  0  0  0
 72 73  1  0  0  0
 72 82  2  0  0  0
 72 84  1  0  0  0
 73145  1  0  0  0
 73146  1  0  0  0
 73147  1  0  0  0
 74148  1  0  0  0
 74149  1  0  0  0
 74150  1  0  0  0
 74 80  1  0  0  0
 75151  1  0  0  0
 75152  1  0  0  0
 75153  1  0  0  0
 75 81  1  0  0  0
 76 81  1  0  0  0
 76154  1  0  0  0
 76155  1  0  0  0
 76156  1  0  0  0
 77 78  1  0  0  0
 77157  1  0  0  0
 77158  1  0  0  0
 78 80  1  0  0  0
 78159  1  0  0  0
 78160  1  0  0  0
 79 81  1  0  0  0
 79 85  1  0  0  0
 79161  1  0  0  0
 79162  1  0  0  0
 80163  1  0  0  0
 81 84  1  0  0  0
 83 84  1  0  0  0
 85164  1  0  0  0
M  ISO  4   1 100  68 101  80 101  85 100
M  END
> <chiral flag>
0

> <version>
0

> <s_m_source_file>
/data/baiqing/PycharmProjects/Reinvent-master-3.2/result/LINK_invent/BTK/process_docking_weight1_custom_sum_contain_oxygen_bond_distance_aromatic_linkinvent_7_9_3/rearranged_h_0070.sdf

> <i_m_source_file_index>
95

> <r_mmod_Potential_Energy-OPLS-2005>
-101.935264587402

> <r_mmod_Stretch_Energy-OPLS-2005>
54.3265609741211

> <r_mmod_Bend_Energy-OPLS-2005>
122.312545776367

> <r_mmod_Torsional_Energy-OPLS-2005>
278.088195800781

> <r_mmod_Improper_Torsional_Energy-OPLS-2005>
9.04733467102051

> <r_mmod_Van_der_Waal_Energy-OPLS-2005>
125.551605224609

> <r_mmod_Electrostatic_Energy-OPLS-2005>
-486.530487060547

> <r_mmod_Solvation_Energy-OPLS-2005>
-222.087554931641

> <b_mmod_Minimization_Converged-OPLS-2005>
0

> <r_mmod_RMS_Derivative-OPLS-2005>
5.20108985900879

$$$$
96
                    3D
 Structure written by MMmdl.
156164  0  0  1  0            999 V2000
  -30.6516  -14.7793   20.2930 C   0  0  0  0  0  0
  -30.4296  -12.4447   19.4862 C   0  0  0  0  0  0
  -29.5104  -12.3899   18.2476 C   0  0  0  0  0  0
  -28.0321  -12.2399   18.6727 C   0  0  0  0  0  0
  -27.6176  -13.1555   19.8550 C   0  0  2  0  0  0
  -28.6907  -13.2566   20.9593 C   0  0  0  0  0  0
  -25.2483  -13.7903   20.5873 C   0  0  0  0  0  0
  -24.1730  -13.0282   20.9369 C   0  0  0  0  0  0
  -24.6248  -11.6738   20.8909 C   0  0  0  0  0  0
  -23.8932  -10.4192   21.0513 C   0  0  0  0  0  0
  -24.3501   -9.4113   21.9290 C   0  0  0  0  0  0
  -23.6202   -8.2144   22.0789 C   0  0  0  0  0  0
  -22.4204   -8.0194   21.3543 C   0  0  0  0  0  0
  -21.9828   -9.0172   20.4646 C   0  0  0  0  0  0
  -22.7138  -10.2073   20.3113 C   0  0  0  0  0  0
  -21.6812   -6.0663   22.5290 C   0  0  0  0  0  0
  -21.3998   -6.5588   23.8229 C   0  0  0  0  0  0
  -21.3694   -5.6757   24.9204 C   0  0  0  0  0  0
  -21.6060   -4.3017   24.7252 C   0  0  0  0  0  0
  -21.8793   -3.8088   23.4373 C   0  0  0  0  0  0
  -21.9156   -4.6890   22.3417 C   0  0  0  0  0  0
  -22.7761  -13.5158   21.1941 C   0  0  0  0  0  0
  -22.1628   -4.2086   21.0996 F   0  0  0  0  0  0
  -21.5664   -3.4510   25.7768 F   0  0  0  0  0  0
  -29.9768  -13.5756   20.3212 N   0  0  0  0  0  0
  -26.2847  -12.8946   20.3563 N   0  0  0  0  0  0
  -25.9166  -11.6193   20.5996 N   0  0  0  0  0  0
  -22.0293  -12.8285   22.0502 N   0  0  0  0  0  0
  -25.4158  -15.1638   20.4184 N   0  0  0  0  0  0
  -31.8745  -14.7342   20.4459 O   0  0  0  0  0  0
  -21.6593   -6.8782   21.4244 O   0  0  0  0  0  0
  -22.3542  -14.5473   20.6661 O   0  0  0  0  0  0
  -24.6282  -31.8579   23.1992 C   0  0  0  0  0  0
  -25.9119  -32.4774   23.8340 C   0  0  1  0  0  0
  -27.2308  -27.3094   20.1162 C   0  0  0  0  0  0
  -25.5953  -33.8571   24.2316 N   0  0  0  0  0  0
  -23.4236  -30.4792   21.5399 C   0  0  2  0  0  0
  -24.8698  -28.9188   20.1171 C   0  0  0  0  0  0
  -22.7478  -29.4632   22.4906 C   0  0  0  0  0  0
  -18.0299  -28.1375   22.8485 C   0  0  0  0  0  0
  -24.1481  -36.7272   23.2641 C   0  0  0  0  0  0
  -25.9642  -30.7847   21.3674 C   0  0  0  0  0  0
  -26.0400  -29.4076   20.7143 C   0  0  0  0  0  0
  -27.2260  -28.6144   20.6995 C   0  0  0  0  0  0
  -26.0402  -26.8659   19.5044 C   0  0  0  0  0  0
  -24.8706  -27.6540   19.5037 C   0  0  0  0  0  0
  -23.6397  -29.8046   20.1594 C   0  0  0  0  0  0
  -25.4106  -36.3094   24.0354 C   0  0  1  0  0  0
  -20.5892  -28.3711   23.1254 C   0  0  2  0  0  0
  -20.6782  -26.9419   22.5400 C   0  0  0  0  0  0
  -19.5760  -26.6378   21.5193 C   0  0  0  0  0  0
  -18.1940  -26.7929   22.1611 C   0  0  0  0  0  0
  -19.1547  -28.8850   23.2875 C   0  0  0  0  0  0
  -18.9469  -30.1443   23.8904 C   0  0  0  0  0  0
  -17.6468  -30.6572   24.0560 C   0  0  0  0  0  0
  -25.9048  -34.9453   23.5135 C   0  0  0  0  0  0
  -16.5354  -29.9070   23.6320 C   0  0  0  0  0  0
  -16.7282  -28.6485   23.0355 C   0  0  0  0  0  0
  -26.4527  -31.6578   25.0702 C   0  0  0  0  0  0
  -25.3787  -31.3673   26.1443 C   0  0  0  0  0  0
  -27.0403  -30.3032   24.6132 C   0  0  0  0  0  0
  -27.6110  -32.4313   25.7454 C   0  0  0  0  0  0
  -27.5589  -37.1783   24.8478 C   0  0  0  0  0  0
  -21.4188  -29.3081   22.3656 N   0  0  0  0  0  0
  -26.4291  -37.3783   23.9441 N   0  0  0  0  0  0
  -24.6916  -31.0575   22.0933 N   0  0  0  0  0  0
  -23.4194  -28.8174   23.2997 O   0  0  0  0  0  0
  -28.3605  -26.4802   20.0954 O   0  0  0  0  0  0
  -26.5586  -34.8919   22.4682 O   0  0  0  0  0  0
  -23.5442  -32.1383   23.7321 O   0  0  0  0  0  0
  -30.2019  -18.7417   19.3822 C   0  0  0  0  0  0
  -30.0598  -17.5656   20.1013 C   0  0  0  0  0  0
  -28.7928  -15.9899   18.7763 C   0  0  0  0  0  0
  -31.1507  -16.1828   18.2928 C   0  0  0  0  0  0
  -28.8230  -22.3955   20.4869 C   0  0  0  0  0  0
  -28.6562  -23.8264   19.7602 C   0  0  0  0  0  0
  -29.5506  -21.2392   19.6571 C   0  0  0  0  0  0
  -28.2536  -25.1028   20.6375 C   0  0  0  0  0  0
  -30.1466  -16.1108   19.4792 C   0  0  0  0  0  0
  -29.4545  -17.9783   21.3053 N   0  0  0  0  0  0
  -29.2680  -19.2932   21.3182 N   0  0  0  0  0  0
  -29.6723  -19.7997   20.1208 N   0  0  0  0  0  0
  -31.4737  -12.5520   19.1893 H   0  0  0  0  0  0
  -30.3671  -11.5105   20.0481 H   0  0  0  0  0  0
  -29.7895  -11.5313   17.6388 H   0  0  0  0  0  0
  -29.6643  -13.2602   17.6115 H   0  0  0  0  0  0
  -27.8936  -11.1989   18.9629 H   0  0  0  0  0  0
  -27.3776  -12.4096   17.8210 H   0  0  0  0  0  0
  -27.4865  -14.0988   19.3900 H   0  0  0  0  0  0
  -28.7678  -12.3229   21.5187 H   0  0  0  0  0  0
  -28.4258  -14.0304   21.6814 H   0  0  0  0  0  0
  -25.2614   -9.5586   22.4923 H   0  0  0  0  0  0
  -23.9883   -7.4505   22.7495 H   0  0  0  0  0  0
  -21.0775   -8.8686   19.8914 H   0  0  0  0  0  0
  -22.3614  -10.9637   19.6230 H   0  0  0  0  0  0
  -21.2004   -7.6092   23.9723 H   0  0  0  0  0  0
  -21.1583   -6.0498   25.9124 H   0  0  0  0  0  0
  -22.0545   -2.7538   23.2897 H   0  0  0  0  0  0
  -22.3748  -12.0032   22.5174 H   0  0  0  0  0  0
  -21.0863  -13.1384   22.2474 H   0  0  0  0  0  0
  -24.6272  -15.7946   20.5062 H   0  0  0  0  0  0
  -26.2565  -15.6201   20.0906 H   0  0  0  0  0  0
  -26.7194  -32.5448   23.1085 H   0  0  0  0  0  0
  -25.0232  -33.9705   25.0556 H   0  0  0  0  0  0
  -22.7229  -31.3014   21.3914 H   0  0  0  0  0  0
  -23.3774  -35.9571   23.3299 H   0  0  0  0  0  0
  -24.3577  -36.8879   22.2060 H   0  0  0  0  0  0
  -23.7177  -37.6455   23.6636 H   0  0  0  0  0  0
  -26.0923  -31.5383   20.5908 H   0  0  0  0  0  0
  -26.8468  -30.8410   21.9945 H   0  0  0  0  0  0
  -28.1298  -28.9844   21.1582 H   0  0  0  0  0  0
  -26.0151  -25.8970   19.0236 H   0  0  0  0  0  0
  -23.9735  -27.2769   19.0334 H   0  0  0  0  0  0
  -23.7626  -30.5747   19.3982 H   0  0  0  0  0  0
  -22.7592  -29.2365   19.8597 H   0  0  0  0  0  0
  -25.1267  -36.1969   25.0845 H   0  0  0  0  0  0
  -21.0021  -28.3292   24.1358 H   0  0  0  0  0  0
  -20.5666  -26.2325   23.3614 H   0  0  0  0  0  0
  -21.6654  -26.7421   22.1197 H   0  0  0  0  0  0
  -19.6923  -25.6282   21.1235 H   0  0  0  0  0  0
  -19.6689  -27.3182   20.6717 H   0  0  0  0  0  0
  -17.4214  -26.6695   21.4001 H   0  0  0  0  0  0
  -18.0320  -26.0038   22.8988 H   0  0  0  0  0  0
  -19.7941  -30.7249   24.2296 H   0  0  0  0  0  0
  -17.5014  -31.6243   24.5177 H   0  0  0  0  0  0
  -15.5360  -30.2980   23.7605 H   0  0  0  0  0  0
  -15.8688  -28.0779   22.7092 H   0  0  0  0  0  0
  -24.5930  -30.7075   25.7757 H   0  0  0  0  0  0
  -24.9006  -32.2817   26.4966 H   0  0  0  0  0  0
  -25.8109  -30.8764   27.0171 H   0  0  0  0  0  0
  -26.2971  -29.6716   24.1257 H   0  0  0  0  0  0
  -27.4283  -29.7337   25.4587 H   0  0  0  0  0  0
  -27.8745  -30.4383   23.9241 H   0  0  0  0  0  0
  -27.2748  -33.3601   26.2067 H   0  0  0  0  0  0
  -28.3862  -32.6895   25.0231 H   0  0  0  0  0  0
  -28.0850  -31.8424   26.5318 H   0  0  0  0  0  0
  -28.2608  -38.0085   24.7557 H   0  0  0  0  0  0
  -28.1079  -36.2619   24.6259 H   0  0  0  0  0  0
  -27.2306  -37.1381   25.8878 H   0  0  0  0  0  0
  -20.9369  -29.8832   21.6879 H   0  0  0  0  0  0
  -26.0192  -38.2863   24.1450 H   0  0  0  0  0  0
  -30.5378  -18.8985   18.3664 H   0  0  0  0  0  0
  -28.5935  -16.8475   18.1325 H   0  0  0  0  0  0
  -27.9914  -16.0262   19.5079 H   0  0  0  0  0  0
  -28.7328  -15.1317   18.1146 H   0  0  0  0  0  0
  -30.8215  -16.8378   17.4879 H   0  0  0  0  0  0
  -31.2924  -15.2040   17.8304 H   0  0  0  0  0  0
  -32.1275  -16.5419   18.6203 H   0  0  0  0  0  0
  -29.3676  -22.5310   21.4204 H   0  0  0  0  0  0
  -27.8339  -22.0429   20.7794 H   0  0  0  0  0  0
  -27.9044  -23.7177   18.9754 H   0  0  0  0  0  0
  -29.5819  -24.0503   19.2313 H   0  0  0  0  0  0
  -30.5680  -21.5754   19.4475 H   0  0  0  0  0  0
  -29.0657  -21.1943   18.6808 H   0  0  0  0  0  0
  -28.9259  -25.1034   21.4955 H   0  0  0  0  0  0
  -27.2618  -24.9409   21.0573 H   0  0  0  0  0  0
  1 25  1  0  0  0
  1 30  2  0  0  0
  1 79  1  0  0  0
  2  3  1  0  0  0
  2 25  1  0  0  0
  2 83  1  0  0  0
  2 84  1  0  0  0
  3  4  1  0  0  0
  3 85  1  0  0  0
  3 86  1  0  0  0
  4  5  1  0  0  0
  4 87  1  0  0  0
  4 88  1  0  0  0
  5  6  1  0  0  0
  5 26  1  0  0  0
  5 89  1  0  0  0
  6 25  1  0  0  0
  6 90  1  0  0  0
  6 91  1  0  0  0
  7  8  2  0  0  0
  7 26  1  0  0  0
  7 29  1  0  0  0
  8  9  1  0  0  0
  8 22  1  0  0  0
  9 10  1  0  0  0
  9 27  2  0  0  0
 10 11  2  0  0  0
 10 15  1  0  0  0
 11 12  1  0  0  0
 11 92  1  0  0  0
 12 13  2  0  0  0
 12 93  1  0  0  0
 13 14  1  0  0  0
 13 31  1  0  0  0
 14 15  2  0  0  0
 14 94  1  0  0  0
 15 95  1  0  0  0
 16 17  2  0  0  0
 16 21  1  0  0  0
 16 31  1  0  0  0
 17 18  1  0  0  0
 17 96  1  0  0  0
 18 19  2  0  0  0
 18 97  1  0  0  0
 19 20  1  0  0  0
 19 24  1  0  0  0
 20 21  2  0  0  0
 20 98  1  0  0  0
 21 23  1  0  0  0
 22 28  1  0  0  0
 22 32  2  0  0  0
 26 27  1  0  0  0
 28 99  1  0  0  0
 28100  1  0  0  0
 29101  1  0  0  0
 29102  1  0  0  0
 33 34  1  0  0  0
 33 66  1  0  0  0
 33 70  2  0  0  0
 34 36  1  0  0  0
 34 59  1  0  0  0
 34103  1  0  0  0
 35 44  2  0  0  0
 35 45  1  0  0  0
 35 68  1  0  0  0
 36 56  1  0  0  0
 36104  1  0  0  0
 37 39  1  0  0  0
 37 47  1  0  0  0
 37 66  1  0  0  0
 37105  1  0  0  0
 38 43  2  0  0  0
 38 46  1  0  0  0
 38 47  1  0  0  0
 39 64  1  0  0  0
 39 67  2  0  0  0
 40 52  1  0  0  0
 40 53  2  0  0  0
 40 58  1  0  0  0
 41106  1  0  0  0
 41107  1  0  0  0
 41108  1  0  0  0
 41 48  1  0  0  0
 42 43  1  0  0  0
 42 66  1  0  0  0
 42109  1  0  0  0
 42110  1  0  0  0
 43 44  1  0  0  0
 44111  1  0  0  0
 45 46  2  0  0  0
 45112  1  0  0  0
 46113  1  0  0  0
 47114  1  0  0  0
 47115  1  0  0  0
 48 56  1  0  0  0
 48 65  1  0  0  0
 48116  1  0  0  0
 49 50  1  0  0  0
 49 53  1  0  0  0
 49 64  1  0  0  0
 49117  1  0  0  0
 50 51  1  0  0  0
 50118  1  0  0  0
 50119  1  0  0  0
 51 52  1  0  0  0
 51120  1  0  0  0
 51121  1  0  0  0
 52122  1  0  0  0
 52123  1  0  0  0
 53 54  1  0  0  0
 54 55  2  0  0  0
 54124  1  0  0  0
 55 57  1  0  0  0
 55125  1  0  0  0
 56 69  2  0  0  0
 57 58  2  0  0  0
 57126  1  0  0  0
 58127  1  0  0  0
 59 60  1  0  0  0
 59 61  1  0  0  0
 59 62  1  0  0  0
 60128  1  0  0  0
 60129  1  0  0  0
 60130  1  0  0  0
 61131  1  0  0  0
 61132  1  0  0  0
 61133  1  0  0  0
 62134  1  0  0  0
 62135  1  0  0  0
 62136  1  0  0  0
 63 65  1  0  0  0
 63137  1  0  0  0
 63138  1  0  0  0
 63139  1  0  0  0
 64140  1  0  0  0
 65141  1  0  0  0
 68 78  1  0  0  0
 71 72  2  0  0  0
 71 82  1  0  0  0
 71142  1  0  0  0
 72 79  1  0  0  0
 72 80  1  0  0  0
 73143  1  0  0  0
 73144  1  0  0  0
 73145  1  0  0  0
 73 79  1  0  0  0
 74 79  1  0  0  0
 74146  1  0  0  0
 74147  1  0  0  0
 74148  1  0  0  0
 75 76  1  0  0  0
 75 77  1  0  0  0
 75149  1  0  0  0
 75150  1  0  0  0
 76 78  1  0  0  0
 76151  1  0  0  0
 76152  1  0  0  0
 77 82  1  0  0  0
 77153  1  0  0  0
 77154  1  0  0  0
 78155  1  0  0  0
 78156  1  0  0  0
 80 81  2  0  0  0
 81 82  1  0  0  0
M  ISO  4   1 100  68 101  78 101  79 100
M  END
> <chiral flag>
0

> <version>
0

> <s_m_source_file>
/data/baiqing/PycharmProjects/Reinvent-master-3.2/result/LINK_invent/BTK/process_docking_weight1_custom_sum_contain_oxygen_bond_distance_aromatic_linkinvent_7_9_3/rearranged_h_0070.sdf

> <i_m_source_file_index>
96

> <r_mmod_Potential_Energy-OPLS-2005>
365.531219482422

> <r_mmod_Stretch_Energy-OPLS-2005>
107.216682434082

> <r_mmod_Bend_Energy-OPLS-2005>
218.393127441406

> <r_mmod_Torsional_Energy-OPLS-2005>
262.238159179688

> <r_mmod_Improper_Torsional_Energy-OPLS-2005>
22.6155586242676

> <r_mmod_Van_der_Waal_Energy-OPLS-2005>
135.252395629883

> <r_mmod_Electrostatic_Energy-OPLS-2005>
-286.72900390625

> <r_mmod_Solvation_Energy-OPLS-2005>
-204.297348022461

> <b_mmod_Minimization_Converged-OPLS-2005>
0

> <r_mmod_RMS_Derivative-OPLS-2005>
5.26841831207275

$$$$
97
                    3D
 Structure written by MMmdl.
163171  0  0  1  0            999 V2000
  -30.6261  -14.6767   20.4919 C   0  0  0  0  0  0
  -30.4233  -12.4053   19.4772 C   0  0  0  0  0  0
  -29.5049  -12.5111   18.2402 C   0  0  0  0  0  0
  -28.0292  -12.3343   18.6473 C   0  0  0  0  0  0
  -27.6453  -13.2128   19.8666 C   0  0  2  0  0  0
  -28.6870  -13.0977   20.9992 C   0  0  0  0  0  0
  -25.2558  -13.8148   20.5681 C   0  0  0  0  0  0
  -24.1802  -13.0450   20.9115 C   0  0  0  0  0  0
  -24.6354  -11.6895   20.8703 C   0  0  0  0  0  0
  -23.9020  -10.4298   21.0383 C   0  0  0  0  0  0
  -24.3590   -9.4227   21.9165 C   0  0  0  0  0  0
  -23.6292   -8.2258   22.0760 C   0  0  0  0  0  0
  -22.4279   -8.0283   21.3541 C   0  0  0  0  0  0
  -21.9888   -9.0226   20.4639 C   0  0  0  0  0  0
  -22.7193  -10.2121   20.3036 C   0  0  0  0  0  0
  -21.6874   -6.0717   22.5270 C   0  0  0  0  0  0
  -21.4034   -6.5628   23.8199 C   0  0  0  0  0  0
  -21.3667   -5.6777   24.9160 C   0  0  0  0  0  0
  -21.6056   -4.3043   24.7218 C   0  0  0  0  0  0
  -21.8839   -3.8129   23.4339 C   0  0  0  0  0  0
  -21.9205   -4.6947   22.3394 C   0  0  0  0  0  0
  -22.7836  -13.5243   21.1786 C   0  0  0  0  0  0
  -22.1676   -4.2126   21.0966 F   0  0  0  0  0  0
  -21.5628   -3.4523   25.7732 F   0  0  0  0  0  0
  -29.9925  -13.4543   20.4330 N   0  0  0  0  0  0
  -26.2962  -12.9301   20.3377 N   0  0  0  0  0  0
  -25.9284  -11.6449   20.5788 N   0  0  0  0  0  0
  -22.0494  -12.8227   22.0347 N   0  0  0  0  0  0
  -25.4452  -15.1863   20.4161 N   0  0  0  0  0  0
  -31.8115  -14.7462   20.1533 O   0  0  0  0  0  0
  -21.6678   -6.8861   21.4228 O   0  0  0  0  0  0
  -22.3506  -14.5562   20.6665 O   0  0  0  0  0  0
  -24.6283  -31.8649   23.2034 C   0  0  0  0  0  0
  -25.9144  -32.4799   23.8353 C   0  0  1  0  0  0
  -27.2032  -27.3097   20.1670 C   0  0  0  0  0  0
  -25.6004  -33.8588   24.2323 N   0  0  0  0  0  0
  -23.4173  -30.4917   21.5439 C   0  0  2  0  0  0
  -24.8625  -28.9394   20.1159 C   0  0  0  0  0  0
  -22.7462  -29.4689   22.4925 C   0  0  0  0  0  0
  -18.0300  -28.1376   22.8467 C   0  0  0  0  0  0
  -24.1507  -36.7292   23.2622 C   0  0  0  0  0  0
  -25.9568  -30.8001   21.3670 C   0  0  0  0  0  0
  -26.0308  -29.4215   20.7213 C   0  0  0  0  0  0
  -27.2099  -28.6203   20.7336 C   0  0  0  0  0  0
  -26.0269  -26.8860   19.5210 C   0  0  0  0  0  0
  -24.8635  -27.6774   19.5002 C   0  0  0  0  0  0
  -23.6334  -29.8237   20.1599 C   0  0  0  0  0  0
  -25.4130  -36.3101   24.0332 C   0  0  1  0  0  0
  -20.5891  -28.3716   23.1252 C   0  0  2  0  0  0
  -20.6818  -26.9450   22.5380 C   0  0  0  0  0  0
  -19.5793  -26.6382   21.5201 C   0  0  0  0  0  0
  -18.1959  -26.7927   22.1587 C   0  0  0  0  0  0
  -19.1542  -28.8853   23.2852 C   0  0  0  0  0  0
  -18.9461  -30.1460   23.8873 C   0  0  0  0  0  0
  -17.6465  -30.6587   24.0533 C   0  0  0  0  0  0
  -25.9066  -34.9462   23.5113 C   0  0  0  0  0  0
  -16.5364  -29.9075   23.6322 C   0  0  0  0  0  0
  -16.7294  -28.6481   23.0359 C   0  0  0  0  0  0
  -26.4519  -31.6559   25.0696 C   0  0  0  0  0  0
  -25.3759  -31.3621   26.1422 C   0  0  0  0  0  0
  -27.0353  -30.3007   24.6063 C   0  0  0  0  0  0
  -27.6110  -32.4235   25.7477 C   0  0  0  0  0  0
  -27.5590  -37.1820   24.8459 C   0  0  0  0  0  0
  -21.4184  -29.3076   22.3650 N   0  0  0  0  0  0
  -26.4311  -37.3801   23.9399 N   0  0  0  0  0  0
  -24.6861  -31.0694   22.0949 N   0  0  0  0  0  0
  -23.4195  -28.8236   23.2996 O   0  0  0  0  0  0
  -28.2911  -26.4330   20.2063 O   0  0  0  0  0  0
  -26.5581  -34.8933   22.4649 O   0  0  0  0  0  0
  -23.5461  -32.1432   23.7387 O   0  0  0  0  0  0
  -30.4563  -17.2996   20.8767 C   0  0  0  0  0  0
  -28.3377  -17.5842   21.0633 C   0  0  0  0  0  0
  -29.8709  -16.0267   20.7755 C   0  0  0  0  0  0
  -27.7947  -22.4061   22.4181 C   0  0  0  0  0  0
  -30.2098  -22.7327   21.9010 C   0  0  0  0  0  0
  -29.5343  -23.9609   19.2419 C   0  0  0  0  0  0
  -27.1397  -23.3428   19.4975 C   0  0  0  0  0  0
  -28.8790  -20.9582   20.6294 C   0  0  0  0  0  0
  -29.6723  -19.7777   21.3925 C   0  0  0  0  0  0
  -28.1378  -25.1577   20.9629 C   0  0  0  0  0  0
  -28.8250  -22.4597   21.2650 C   0  0  0  0  0  0
  -28.4203  -23.7153   20.2769 C   0  0  0  0  0  0
  -28.4910  -16.2602   20.8876 N   0  0  0  0  0  0
  -29.4735  -18.3062   21.0706 N   0  0  0  0  0  0
  -31.4682  -12.5068   19.1816 H   0  0  0  0  0  0
  -30.3387  -11.4159   19.9313 H   0  0  0  0  0  0
  -29.7757  -11.7647   17.4933 H   0  0  0  0  0  0
  -29.6464  -13.4868   17.7715 H   0  0  0  0  0  0
  -27.8708  -11.2825   18.8876 H   0  0  0  0  0  0
  -27.3734  -12.5615   17.8046 H   0  0  0  0  0  0
  -27.6522  -14.2376   19.5028 H   0  0  0  0  0  0
  -28.7091  -12.0782   21.3872 H   0  0  0  0  0  0
  -28.4321  -13.7300   21.8488 H   0  0  0  0  0  0
  -25.2739   -9.5739   22.4723 H   0  0  0  0  0  0
  -24.0018   -7.4676   22.7489 H   0  0  0  0  0  0
  -21.0827   -8.8722   19.8933 H   0  0  0  0  0  0
  -22.3632  -10.9653   19.6148 H   0  0  0  0  0  0
  -21.2026   -7.6136   23.9678 H   0  0  0  0  0  0
  -21.1476   -6.0521   25.9067 H   0  0  0  0  0  0
  -22.0607   -2.7583   23.2846 H   0  0  0  0  0  0
  -22.4155  -11.9911   22.4729 H   0  0  0  0  0  0
  -21.1124  -13.1263   22.2569 H   0  0  0  0  0  0
  -24.7157  -15.8755   20.5587 H   0  0  0  0  0  0
  -26.3740  -15.5902   20.3045 H   0  0  0  0  0  0
  -26.7207  -32.5507   23.1098 H   0  0  0  0  0  0
  -25.0310  -33.9704   25.0579 H   0  0  0  0  0  0
  -22.7134  -31.3149   21.4010 H   0  0  0  0  0  0
  -23.3800  -35.9594   23.3260 H   0  0  0  0  0  0
  -24.3603  -36.8933   22.2044 H   0  0  0  0  0  0
  -23.7226  -37.6472   23.6651 H   0  0  0  0  0  0
  -26.0780  -31.5593   20.5916 H   0  0  0  0  0  0
  -26.8423  -30.8608   21.9868 H   0  0  0  0  0  0
  -28.1047  -28.9879   21.2143 H   0  0  0  0  0  0
  -26.0017  -25.9224   19.0391 H   0  0  0  0  0  0
  -23.9700  -27.2998   19.0220 H   0  0  0  0  0  0
  -23.7591  -30.6010   19.4067 H   0  0  0  0  0  0
  -22.7521  -29.2606   19.8525 H   0  0  0  0  0  0
  -25.1311  -36.1952   25.0830 H   0  0  0  0  0  0
  -20.9981  -28.3320   24.1372 H   0  0  0  0  0  0
  -20.5772  -26.2343   23.3591 H   0  0  0  0  0  0
  -21.6690  -26.7529   22.1155 H   0  0  0  0  0  0
  -19.6974  -25.6279   21.1271 H   0  0  0  0  0  0
  -19.6718  -27.3156   20.6703 H   0  0  0  0  0  0
  -17.4255  -26.6692   21.3959 H   0  0  0  0  0  0
  -18.0325  -26.0039   22.8946 H   0  0  0  0  0  0
  -19.7953  -30.7283   24.2232 H   0  0  0  0  0  0
  -17.5025  -31.6265   24.5132 H   0  0  0  0  0  0
  -15.5362  -30.2969   23.7647 H   0  0  0  0  0  0
  -15.8686  -28.0788   22.7090 H   0  0  0  0  0  0
  -24.6018  -30.6874   25.7746 H   0  0  0  0  0  0
  -24.8843  -32.2738   26.4838 H   0  0  0  0  0  0
  -25.8141  -30.8843   27.0198 H   0  0  0  0  0  0
  -26.2897  -29.6748   24.1162 H   0  0  0  0  0  0
  -27.4183  -29.7261   25.4500 H   0  0  0  0  0  0
  -27.8705  -30.4333   23.9181 H   0  0  0  0  0  0
  -27.2790  -33.3555   26.2060 H   0  0  0  0  0  0
  -28.3957  -32.6738   25.0322 H   0  0  0  0  0  0
  -28.0734  -31.8316   26.5385 H   0  0  0  0  0  0
  -28.2611  -38.0120   24.7566 H   0  0  0  0  0  0
  -28.1095  -36.2666   24.6248 H   0  0  0  0  0  0
  -27.2294  -37.1424   25.8853 H   0  0  0  0  0  0
  -20.9386  -29.8767   21.6820 H   0  0  0  0  0  0
  -26.0195  -38.2880   24.1393 H   0  0  0  0  0  0
  -31.5091  -17.5494   20.8355 H   0  0  0  0  0  0
  -27.3668  -18.0286   21.2318 H   0  0  0  0  0  0
  -27.9978  -21.5830   23.1022 H   0  0  0  0  0  0
  -26.7781  -22.2587   22.0504 H   0  0  0  0  0  0
  -27.7974  -23.3197   23.0160 H   0  0  0  0  0  0
  -30.4198  -22.0428   22.7183 H   0  0  0  0  0  0
  -30.2914  -23.7321   22.3259 H   0  0  0  0  0  0
  -31.0157  -22.6189   21.1754 H   0  0  0  0  0  0
  -29.2194  -24.7078   18.5119 H   0  0  0  0  0  0
  -29.7955  -23.0603   18.6886 H   0  0  0  0  0  0
  -30.4349  -24.3570   19.7109 H   0  0  0  0  0  0
  -26.9578  -24.0488   18.6910 H   0  0  0  0  0  0
  -26.2555  -23.3606   20.1362 H   0  0  0  0  0  0
  -27.1970  -22.3581   19.0368 H   0  0  0  0  0  0
  -27.8567  -20.6200   20.4647 H   0  0  0  0  0  0
  -29.3185  -21.0281   19.6353 H   0  0  0  0  0  0
  -29.4894  -19.8754   22.4622 H   0  0  0  0  0  0
  -30.7390  -19.9756   21.2775 H   0  0  0  0  0  0
  -28.8219  -25.2741   21.8005 H   0  0  0  0  0  0
  -27.1541  -25.1328   21.4369 H   0  0  0  0  0  0
  1 25  1  0  0  0
  1 30  2  0  0  0
  1 73  1  0  0  0
  2  3  1  0  0  0
  2 25  1  0  0  0
  2 85  1  0  0  0
  2 86  1  0  0  0
  3  4  1  0  0  0
  3 87  1  0  0  0
  3 88  1  0  0  0
  4  5  1  0  0  0
  4 89  1  0  0  0
  4 90  1  0  0  0
  5  6  1  0  0  0
  5 26  1  0  0  0
  5 91  1  0  0  0
  6 25  1  0  0  0
  6 92  1  0  0  0
  6 93  1  0  0  0
  7  8  2  0  0  0
  7 26  1  0  0  0
  7 29  1  0  0  0
  8  9  1  0  0  0
  8 22  1  0  0  0
  9 10  1  0  0  0
  9 27  2  0  0  0
 10 11  2  0  0  0
 10 15  1  0  0  0
 11 12  1  0  0  0
 11 94  1  0  0  0
 12 13  2  0  0  0
 12 95  1  0  0  0
 13 14  1  0  0  0
 13 31  1  0  0  0
 14 15  2  0  0  0
 14 96  1  0  0  0
 15 97  1  0  0  0
 16 17  2  0  0  0
 16 21  1  0  0  0
 16 31  1  0  0  0
 17 18  1  0  0  0
 17 98  1  0  0  0
 18 19  2  0  0  0
 18 99  1  0  0  0
 19 20  1  0  0  0
 19 24  1  0  0  0
 20 21  2  0  0  0
 20100  1  0  0  0
 21 23  1  0  0  0
 22 28  1  0  0  0
 22 32  2  0  0  0
 26 27  1  0  0  0
 28101  1  0  0  0
 28102  1  0  0  0
 29103  1  0  0  0
 29104  1  0  0  0
 33 34  1  0  0  0
 33 66  1  0  0  0
 33 70  2  0  0  0
 34 36  1  0  0  0
 34 59  1  0  0  0
 34105  1  0  0  0
 35 44  2  0  0  0
 35 45  1  0  0  0
 35 68  1  0  0  0
 36 56  1  0  0  0
 36106  1  0  0  0
 37 39  1  0  0  0
 37 47  1  0  0  0
 37 66  1  0  0  0
 37107  1  0  0  0
 38 43  2  0  0  0
 38 46  1  0  0  0
 38 47  1  0  0  0
 39 64  1  0  0  0
 39 67  2  0  0  0
 40 52  1  0  0  0
 40 53  2  0  0  0
 40 58  1  0  0  0
 41108  1  0  0  0
 41109  1  0  0  0
 41110  1  0  0  0
 41 48  1  0  0  0
 42 43  1  0  0  0
 42 66  1  0  0  0
 42111  1  0  0  0
 42112  1  0  0  0
 43 44  1  0  0  0
 44113  1  0  0  0
 45 46  2  0  0  0
 45114  1  0  0  0
 46115  1  0  0  0
 47116  1  0  0  0
 47117  1  0  0  0
 48 56  1  0  0  0
 48 65  1  0  0  0
 48118  1  0  0  0
 49 50  1  0  0  0
 49 53  1  0  0  0
 49 64  1  0  0  0
 49119  1  0  0  0
 50 51  1  0  0  0
 50120  1  0  0  0
 50121  1  0  0  0
 51 52  1  0  0  0
 51122  1  0  0  0
 51123  1  0  0  0
 52124  1  0  0  0
 52125  1  0  0  0
 53 54  1  0  0  0
 54 55  2  0  0  0
 54126  1  0  0  0
 55 57  1  0  0  0
 55127  1  0  0  0
 56 69  2  0  0  0
 57 58  2  0  0  0
 57128  1  0  0  0
 58129  1  0  0  0
 59 60  1  0  0  0
 59 61  1  0  0  0
 59 62  1  0  0  0
 60130  1  0  0  0
 60131  1  0  0  0
 60132  1  0  0  0
 61133  1  0  0  0
 61134  1  0  0  0
 61135  1  0  0  0
 62136  1  0  0  0
 62137  1  0  0  0
 62138  1  0  0  0
 63 65  1  0  0  0
 63139  1  0  0  0
 63140  1  0  0  0
 63141  1  0  0  0
 64142  1  0  0  0
 65143  1  0  0  0
 68 80  1  0  0  0
 71 73  2  0  0  0
 71 84  1  0  0  0
 71144  1  0  0  0
 72 83  2  0  0  0
 72 84  1  0  0  0
 72145  1  0  0  0
 73 83  1  0  0  0
 74146  1  0  0  0
 74147  1  0  0  0
 74148  1  0  0  0
 74 81  1  0  0  0
 75 81  1  0  0  0
 75149  1  0  0  0
 75150  1  0  0  0
 75151  1  0  0  0
 76152  1  0  0  0
 76153  1  0  0  0
 76154  1  0  0  0
 76 82  1  0  0  0
 77 82  1  0  0  0
 77155  1  0  0  0
 77156  1  0  0  0
 77157  1  0  0  0
 78 79  1  0  0  0
 78 81  1  0  0  0
 78158  1  0  0  0
 78159  1  0  0  0
 79 84  1  0  0  0
 79160  1  0  0  0
 79161  1  0  0  0
 80 82  1  0  0  0
 80162  1  0  0  0
 80163  1  0  0  0
 81 82  1  0  0  0
M  ISO  4   1 100  68 101  73 100  80 101
M  END
> <chiral flag>
0

> <version>
0

> <s_m_source_file>
/data/baiqing/PycharmProjects/Reinvent-master-3.2/result/LINK_invent/BTK/process_docking_weight1_custom_sum_contain_oxygen_bond_distance_aromatic_linkinvent_7_9_3/rearranged_h_0070.sdf

> <i_m_source_file_index>
97

> <r_mmod_Potential_Energy-OPLS-2005>
294.107727050781

> <r_mmod_Stretch_Energy-OPLS-2005>
118.092803955078

> <r_mmod_Bend_Energy-OPLS-2005>
178.031921386719

> <r_mmod_Torsional_Energy-OPLS-2005>
266.835662841797

> <r_mmod_Improper_Torsional_Energy-OPLS-2005>
5.04416847229004

> <r_mmod_Van_der_Waal_Energy-OPLS-2005>
123.146560668945

> <r_mmod_Electrostatic_Energy-OPLS-2005>
-279.187805175781

> <r_mmod_Solvation_Energy-OPLS-2005>
-176.828155517578

> <b_mmod_Minimization_Converged-OPLS-2005>
0

> <r_mmod_RMS_Derivative-OPLS-2005>
4.03815460205078

$$$$
98
                    3D
 Structure written by MMmdl.
173181  0  0  1  0            999 V2000
  -30.8350  -14.5260   20.2306 C   0  0  0  0  0  0
  -30.3894  -12.2840   19.3797 C   0  0  0  0  0  0
  -29.4287  -12.3427   18.1686 C   0  0  0  0  0  0
  -27.9834  -12.2272   18.6654 C   0  0  0  0  0  0
  -27.6454  -13.2084   19.8167 C   0  0  2  0  0  0
  -28.7495  -13.2178   20.9062 C   0  0  0  0  0  0
  -25.2643  -13.8208   20.5744 C   0  0  0  0  0  0
  -24.1870  -13.0460   20.9185 C   0  0  0  0  0  0
  -24.6400  -11.6930   20.8743 C   0  0  0  0  0  0
  -23.9053  -10.4308   21.0322 C   0  0  0  0  0  0
  -24.3612   -9.4256   21.9114 C   0  0  0  0  0  0
  -23.6306   -8.2259   22.0686 C   0  0  0  0  0  0
  -22.4299   -8.0287   21.3459 C   0  0  0  0  0  0
  -21.9923   -9.0262   20.4564 C   0  0  0  0  0  0
  -22.7240  -10.2155   20.2953 C   0  0  0  0  0  0
  -21.6885   -6.0721   22.5254 C   0  0  0  0  0  0
  -21.4053   -6.5623   23.8190 C   0  0  0  0  0  0
  -21.3639   -5.6750   24.9119 C   0  0  0  0  0  0
  -21.5982   -4.3012   24.7158 C   0  0  0  0  0  0
  -21.8861   -3.8115   23.4291 C   0  0  0  0  0  0
  -21.9238   -4.6946   22.3351 C   0  0  0  0  0  0
  -22.7909  -13.5258   21.1838 C   0  0  0  0  0  0
  -22.1734   -4.2151   21.0917 F   0  0  0  0  0  0
  -21.5552   -3.4497   25.7661 F   0  0  0  0  0  0
  -30.0423  -13.4177   20.2336 N   0  0  0  0  0  0
  -26.3062  -12.9356   20.3409 N   0  0  0  0  0  0
  -25.9343  -11.6515   20.5901 N   0  0  0  0  0  0
  -22.0605  -12.8209   22.0419 N   0  0  0  0  0  0
  -25.4406  -15.1889   20.4191 N   0  0  0  0  0  0
  -32.0094  -14.4887   20.5635 O   0  0  0  0  0  0
  -21.6643   -6.8874   21.4210 O   0  0  0  0  0  0
  -22.3544  -14.5549   20.6727 O   0  0  0  0  0  0
  -24.6166  -31.8680   23.2075 C   0  0  0  0  0  0
  -25.9027  -32.4853   23.8380 C   0  0  1  0  0  0
  -27.2135  -27.4200   20.0848 C   0  0  0  0  0  0
  -25.5856  -33.8663   24.2294 N   0  0  0  0  0  0
  -23.4039  -30.4936   21.5514 C   0  0  2  0  0  0
  -24.8409  -28.9570   20.1128 C   0  0  0  0  0  0
  -22.7418  -29.4680   22.5013 C   0  0  0  0  0  0
  -18.0291  -28.1366   22.8516 C   0  0  0  0  0  0
  -24.1471  -36.7325   23.2650 C   0  0  0  0  0  0
  -25.9317  -30.8333   21.3521 C   0  0  0  0  0  0
  -26.0083  -29.4677   20.6956 C   0  0  0  0  0  0
  -27.2060  -28.7112   20.6628 C   0  0  0  0  0  0
  -26.0300  -26.9257   19.5009 C   0  0  0  0  0  0
  -24.8480  -27.6883   19.5104 C   0  0  0  0  0  0
  -23.6058  -29.8270   20.1653 C   0  0  0  0  0  0
  -25.4109  -36.3149   24.0332 C   0  0  1  0  0  0
  -20.5875  -28.3652   23.1318 C   0  0  2  0  0  0
  -20.6779  -26.9398   22.5406 C   0  0  0  0  0  0
  -19.5739  -26.6374   21.5224 C   0  0  0  0  0  0
  -18.1919  -26.7912   22.1650 C   0  0  0  0  0  0
  -19.1544  -28.8839   23.2912 C   0  0  0  0  0  0
  -18.9459  -30.1452   23.8911 C   0  0  0  0  0  0
  -17.6465  -30.6587   24.0561 C   0  0  0  0  0  0
  -25.9031  -34.9521   23.5126 C   0  0  0  0  0  0
  -16.5362  -29.9076   23.6328 C   0  0  0  0  0  0
  -16.7285  -28.6485   23.0369 C   0  0  0  0  0  0
  -26.4468  -31.6670   25.0730 C   0  0  0  0  0  0
  -25.3733  -31.3775   26.1483 C   0  0  0  0  0  0
  -27.0300  -30.3119   24.6097 C   0  0  0  0  0  0
  -27.6018  -32.4443   25.7486 C   0  0  0  0  0  0
  -27.5582  -37.1809   24.8473 C   0  0  0  0  0  0
  -21.4155  -29.3032   22.3722 N   0  0  0  0  0  0
  -26.4304  -37.3819   23.9400 N   0  0  0  0  0  0
  -24.6695  -31.0793   22.0953 N   0  0  0  0  0  0
  -23.4205  -28.8243   23.3066 O   0  0  0  0  0  0
  -28.3533  -26.6460   20.0870 O   0  0  0  0  0  0
  -26.5617  -34.8961   22.4709 O   0  0  0  0  0  0
  -23.5347  -32.1454   23.7437 O   0  0  0  0  0  0
  -28.0645  -19.0364   20.6905 C   0  0  0  0  0  0
  -29.4158  -17.5606   20.0393 C   0  0  0  0  0  0
  -29.8638  -17.1390   24.9945 C   0  0  0  0  0  0
  -31.4421  -17.8605   18.6414 C   0  0  0  0  0  0
  -31.1571  -15.2021   17.9581 C   0  0  0  0  0  0
  -27.5277  -20.3171   21.2772 C   0  0  0  0  0  0
  -29.8359  -17.4462   23.4947 C   0  0  0  0  0  0
  -27.7293  -21.5407   20.3412 C   0  0  0  0  0  0
  -28.0171  -22.8790   21.0673 C   0  0  0  0  0  0
  -30.2391  -18.9035   23.1925 C   0  0  0  0  0  0
  -28.1057  -24.1192   20.1325 C   0  0  0  0  0  0
  -30.3839  -19.2385   21.6935 C   0  0  0  0  0  0
  -28.2775  -25.4604   20.9047 C   0  0  0  0  0  0
  -30.7380  -16.9261   19.6791 C   0  0  2  0  0  0
  -27.3657  -18.2403   19.8729 N   0  0  0  0  0  0
  -28.2524  -17.2759   19.4420 N   0  0  0  0  0  0
  -29.3434  -18.6317   20.8660 N   0  0  0  0  0  0
  -30.5582  -15.4810   19.2927 N   0  0  0  0  0  0
  -31.4332  -12.3092   19.0612 H   0  0  0  0  0  0
  -30.2579  -11.3472   19.9234 H   0  0  0  0  0  0
  -29.6456  -11.5356   17.4717 H   0  0  0  0  0  0
  -29.4982  -13.2519   17.5756 H   0  0  0  0  0  0
  -27.8539  -11.1993   19.0122 H   0  0  0  0  0  0
  -27.2864  -12.3582   17.8385 H   0  0  0  0  0  0
  -27.6249  -14.2037   19.3678 H   0  0  0  0  0  0
  -28.7649  -12.2848   21.4691 H   0  0  0  0  0  0
  -28.5774  -14.0203   21.6257 H   0  0  0  0  0  0
  -25.2751   -9.5824   22.4708 H   0  0  0  0  0  0
  -23.9980   -7.4685   22.7473 H   0  0  0  0  0  0
  -21.0805   -8.8850   19.8883 H   0  0  0  0  0  0
  -22.3720  -10.9710   19.6086 H   0  0  0  0  0  0
  -21.2157   -7.6162   23.9699 H   0  0  0  0  0  0
  -21.1365   -6.0461   25.9009 H   0  0  0  0  0  0
  -22.0682   -2.7594   23.2785 H   0  0  0  0  0  0
  -22.4373  -11.9962   22.4846 H   0  0  0  0  0  0
  -21.1246  -13.1199   22.2631 H   0  0  0  0  0  0
  -24.6830  -15.8564   20.5144 H   0  0  0  0  0  0
  -26.3151  -15.6322   20.1451 H   0  0  0  0  0  0
  -26.7122  -32.5534   23.1155 H   0  0  0  0  0  0
  -24.9944  -33.9827   25.0397 H   0  0  0  0  0  0
  -22.6952  -31.3108   21.4165 H   0  0  0  0  0  0
  -23.3741  -35.9652   23.3348 H   0  0  0  0  0  0
  -24.3545  -36.8908   22.2057 H   0  0  0  0  0  0
  -23.7216  -37.6535   23.6655 H   0  0  0  0  0  0
  -26.0407  -31.6016   20.5859 H   0  0  0  0  0  0
  -26.8181  -30.8823   21.9710 H   0  0  0  0  0  0
  -28.1197  -29.1079   21.0824 H   0  0  0  0  0  0
  -26.0121  -25.9558   19.0276 H   0  0  0  0  0  0
  -23.9445  -27.2967   19.0628 H   0  0  0  0  0  0
  -23.7072  -30.6028   19.4047 H   0  0  0  0  0  0
  -22.7234  -29.2473   19.8848 H   0  0  0  0  0  0
  -25.1294  -36.2024   25.0823 H   0  0  0  0  0  0
  -20.9977  -28.3190   24.1434 H   0  0  0  0  0  0
  -20.5684  -26.2255   23.3575 H   0  0  0  0  0  0
  -21.6638  -26.7429   22.1192 H   0  0  0  0  0  0
  -19.6887  -25.6281   21.1247 H   0  0  0  0  0  0
  -19.6673  -27.3180   20.6738 H   0  0  0  0  0  0
  -17.4186  -26.6675   21.4057 H   0  0  0  0  0  0
  -18.0346  -26.0049   22.9037 H   0  0  0  0  0  0
  -19.7943  -30.7271   24.2264 H   0  0  0  0  0  0
  -17.5024  -31.6275   24.5143 H   0  0  0  0  0  0
  -15.5365  -30.2985   23.7651 H   0  0  0  0  0  0
  -15.8671  -28.0807   22.7084 H   0  0  0  0  0  0
  -24.5819  -30.7243   25.7796 H   0  0  0  0  0  0
  -24.9033  -32.2937   26.5072 H   0  0  0  0  0  0
  -25.8058  -30.8817   27.0171 H   0  0  0  0  0  0
  -26.2786  -29.6859   24.1256 H   0  0  0  0  0  0
  -27.4196  -29.7418   25.4540 H   0  0  0  0  0  0
  -27.8588  -30.4485   23.9143 H   0  0  0  0  0  0
  -27.2584  -33.3647   26.2228 H   0  0  0  0  0  0
  -28.3714  -32.7176   25.0261 H   0  0  0  0  0  0
  -28.0831  -31.8507   26.5273 H   0  0  0  0  0  0
  -28.2633  -38.0067   24.7485 H   0  0  0  0  0  0
  -28.1032  -36.2599   24.6348 H   0  0  0  0  0  0
  -27.2283  -37.1508   25.8869 H   0  0  0  0  0  0
  -20.9312  -29.8753   21.6937 H   0  0  0  0  0  0
  -26.0203  -38.2905   24.1386 H   0  0  0  0  0  0
  -29.6052  -16.0972   25.1871 H   0  0  0  0  0  0
  -29.1616  -17.7641   25.5449 H   0  0  0  0  0  0
  -30.8588  -17.3186   25.4039 H   0  0  0  0  0  0
  -31.4413  -18.9050   18.9579 H   0  0  0  0  0  0
  -30.9532  -17.8563   17.6649 H   0  0  0  0  0  0
  -32.4950  -17.6092   18.5083 H   0  0  0  0  0  0
  -32.1538  -15.6244   17.8350 H   0  0  0  0  0  0
  -30.5180  -15.5576   17.1486 H   0  0  0  0  0  0
  -31.3631  -14.1553   17.7617 H   0  0  0  0  0  0
  -27.9758  -20.4694   22.2594 H   0  0  0  0  0  0
  -26.4617  -20.1869   21.4723 H   0  0  0  0  0  0
  -28.8394  -17.2326   23.1005 H   0  0  0  0  0  0
  -30.5231  -16.7718   22.9827 H   0  0  0  0  0  0
  -26.8467  -21.6381   19.7033 H   0  0  0  0  0  0
  -28.5634  -21.3364   19.6689 H   0  0  0  0  0  0
  -28.9599  -22.7826   21.6136 H   0  0  0  0  0  0
  -27.2445  -23.0496   21.8167 H   0  0  0  0  0  0
  -31.1839  -19.1174   23.6881 H   0  0  0  0  0  0
  -29.5048  -19.5681   23.6493 H   0  0  0  0  0  0
  -28.9471  -23.9888   19.4493 H   0  0  0  0  0  0
  -27.2095  -24.1617   19.5064 H   0  0  0  0  0  0
  -31.3651  -18.9052   21.3566 H   0  0  0  0  0  0
  -30.3863  -20.3152   21.5284 H   0  0  0  0  0  0
  -27.4786  -25.5504   21.6442 H   0  0  0  0  0  0
  -29.2076  -25.4231   21.4756 H   0  0  0  0  0  0
  -31.3744  -16.9500   20.5650 H   0  0  0  0  0  0
  1 25  1  0  0  0
  1 30  2  0  0  0
  1 88  1  0  0  0
  2  3  1  0  0  0
  2 25  1  0  0  0
  2 89  1  0  0  0
  2 90  1  0  0  0
  3  4  1  0  0  0
  3 91  1  0  0  0
  3 92  1  0  0  0
  4  5  1  0  0  0
  4 93  1  0  0  0
  4 94  1  0  0  0
  5  6  1  0  0  0
  5 26  1  0  0  0
  5 95  1  0  0  0
  6 25  1  0  0  0
  6 96  1  0  0  0
  6 97  1  0  0  0
  7  8  2  0  0  0
  7 26  1  0  0  0
  7 29  1  0  0  0
  8  9  1  0  0  0
  8 22  1  0  0  0
  9 10  1  0  0  0
  9 27  2  0  0  0
 10 11  2  0  0  0
 10 15  1  0  0  0
 11 12  1  0  0  0
 11 98  1  0  0  0
 12 13  2  0  0  0
 12 99  1  0  0  0
 13 14  1  0  0  0
 13 31  1  0  0  0
 14 15  2  0  0  0
 14100  1  0  0  0
 15101  1  0  0  0
 16 17  2  0  0  0
 16 21  1  0  0  0
 16 31  1  0  0  0
 17 18  1  0  0  0
 17102  1  0  0  0
 18 19  2  0  0  0
 18103  1  0  0  0
 19 20  1  0  0  0
 19 24  1  0  0  0
 20 21  2  0  0  0
 20104  1  0  0  0
 21 23  1  0  0  0
 22 28  1  0  0  0
 22 32  2  0  0  0
 26 27  1  0  0  0
 28105  1  0  0  0
 28106  1  0  0  0
 29107  1  0  0  0
 29108  1  0  0  0
 33 34  1  0  0  0
 33 66  1  0  0  0
 33 70  2  0  0  0
 34 36  1  0  0  0
 34 59  1  0  0  0
 34109  1  0  0  0
 35 44  2  0  0  0
 35 45  1  0  0  0
 35 68  1  0  0  0
 36 56  1  0  0  0
 36110  1  0  0  0
 37 39  1  0  0  0
 37 47  1  0  0  0
 37 66  1  0  0  0
 37111  1  0  0  0
 38 43  2  0  0  0
 38 46  1  0  0  0
 38 47  1  0  0  0
 39 64  1  0  0  0
 39 67  2  0  0  0
 40 52  1  0  0  0
 40 53  2  0  0  0
 40 58  1  0  0  0
 41112  1  0  0  0
 41113  1  0  0  0
 41114  1  0  0  0
 41 48  1  0  0  0
 42 43  1  0  0  0
 42 66  1  0  0  0
 42115  1  0  0  0
 42116  1  0  0  0
 43 44  1  0  0  0
 44117  1  0  0  0
 45 46  2  0  0  0
 45118  1  0  0  0
 46119  1  0  0  0
 47120  1  0  0  0
 47121  1  0  0  0
 48 56  1  0  0  0
 48 65  1  0  0  0
 48122  1  0  0  0
 49 50  1  0  0  0
 49 53  1  0  0  0
 49 64  1  0  0  0
 49123  1  0  0  0
 50 51  1  0  0  0
 50124  1  0  0  0
 50125  1  0  0  0
 51 52  1  0  0  0
 51126  1  0  0  0
 51127  1  0  0  0
 52128  1  0  0  0
 52129  1  0  0  0
 53 54  1  0  0  0
 54 55  2  0  0  0
 54130  1  0  0  0
 55 57  1  0  0  0
 55131  1  0  0  0
 56 69  2  0  0  0
 57 58  2  0  0  0
 57132  1  0  0  0
 58133  1  0  0  0
 59 60  1  0  0  0
 59 61  1  0  0  0
 59 62  1  0  0  0
 60134  1  0  0  0
 60135  1  0  0  0
 60136  1  0  0  0
 61137  1  0  0  0
 61138  1  0  0  0
 61139  1  0  0  0
 62140  1  0  0  0
 62141  1  0  0  0
 62142  1  0  0  0
 63 65  1  0  0  0
 63143  1  0  0  0
 63144  1  0  0  0
 63145  1  0  0  0
 64146  1  0  0  0
 65147  1  0  0  0
 68 83  1  0  0  0
 71 76  1  0  0  0
 71 85  2  0  0  0
 71 87  1  0  0  0
 72 84  1  0  0  0
 72 86  2  0  0  0
 72 87  1  0  0  0
 73 77  1  0  0  0
 73148  1  0  0  0
 73149  1  0  0  0
 73150  1  0  0  0
 74151  1  0  0  0
 74152  1  0  0  0
 74153  1  0  0  0
 74 84  1  0  0  0
 75 88  1  0  0  0
 75154  1  0  0  0
 75155  1  0  0  0
 75156  1  0  0  0
 76 78  1  0  0  0
 76157  1  0  0  0
 76158  1  0  0  0
 77 80  1  0  0  0
 77159  1  0  0  0
 77160  1  0  0  0
 78 79  1  0  0  0
 78161  1  0  0  0
 78162  1  0  0  0
 79 81  1  0  0  0
 79163  1  0  0  0
 79164  1  0  0  0
 80 82  1  0  0  0
 80165  1  0  0  0
 80166  1  0  0  0
 81 83  1  0  0  0
 81167  1  0  0  0
 81168  1  0  0  0
 82 87  1  0  0  0
 82169  1  0  0  0
 82170  1  0  0  0
 83171  1  0  0  0
 83172  1  0  0  0
 84 88  1  0  0  0
 84173  1  0  0  0
 85 86  1  0  0  0
M  ISO  4   1 100  68 101  83 101  88 100
M  END
> <chiral flag>
0

> <version>
0

> <s_m_source_file>
/data/baiqing/PycharmProjects/Reinvent-master-3.2/result/LINK_invent/BTK/process_docking_weight1_custom_sum_contain_oxygen_bond_distance_aromatic_linkinvent_7_9_3/rearranged_h_0070.sdf

> <i_m_source_file_index>
98

> <r_mmod_Potential_Energy-OPLS-2005>
253.377944946289

> <r_mmod_Stretch_Energy-OPLS-2005>
47.1025428771973

> <r_mmod_Bend_Energy-OPLS-2005>
136.107650756836

> <r_mmod_Torsional_Energy-OPLS-2005>
359.597473144531

> <r_mmod_Improper_Torsional_Energy-OPLS-2005>
27.2532539367676

> <r_mmod_Van_der_Waal_Energy-OPLS-2005>
131.081161499023

> <r_mmod_Electrostatic_Energy-OPLS-2005>
-345.465240478516

> <r_mmod_Solvation_Energy-OPLS-2005>
-195.055252075195

> <b_mmod_Minimization_Converged-OPLS-2005>
0

> <r_mmod_RMS_Derivative-OPLS-2005>
7.39166784286499

$$$$
