0
                    3D
 Structure written by MMmdl.
158166  0  0  1  0            999 V2000
  -30.5525  -14.7624   20.4586 C   0  0  0  0  0  0
  -30.4496  -12.4670   19.4540 C   0  0  0  0  0  0
  -29.5126  -12.4926   18.2255 C   0  0  0  0  0  0
  -28.0386  -12.3043   18.6458 C   0  0  0  0  0  0
  -27.6369  -13.2119   19.8384 C   0  0  2  0  0  0
  -28.6858  -13.1316   20.9668 C   0  0  0  0  0  0
  -25.2504  -13.8130   20.5669 C   0  0  0  0  0  0
  -24.1787  -13.0417   20.9191 C   0  0  0  0  0  0
  -24.6347  -11.6879   20.8743 C   0  0  0  0  0  0
  -23.9017  -10.4273   21.0411 C   0  0  0  0  0  0
  -24.3584   -9.4186   21.9183 C   0  0  0  0  0  0
  -23.6265   -8.2222   22.0767 C   0  0  0  0  0  0
  -22.4255   -8.0247   21.3552 C   0  0  0  0  0  0
  -21.9875   -9.0212   20.4659 C   0  0  0  0  0  0
  -22.7191  -10.2097   20.3057 C   0  0  0  0  0  0
  -21.6829   -6.0704   22.5276 C   0  0  0  0  0  0
  -21.3994   -6.5622   23.8203 C   0  0  0  0  0  0
  -21.3676   -5.6792   24.9179 C   0  0  0  0  0  0
  -21.6054   -4.3049   24.7244 C   0  0  0  0  0  0
  -21.8815   -3.8130   23.4366 C   0  0  0  0  0  0
  -21.9182   -4.6933   22.3413 C   0  0  0  0  0  0
  -22.7807  -13.5209   21.1850 C   0  0  0  0  0  0
  -22.1639   -4.2112   21.0983 F   0  0  0  0  0  0
  -21.5666   -3.4543   25.7764 F   0  0  0  0  0  0
  -29.9790  -13.5135   20.3849 N   0  0  0  0  0  0
  -26.2900  -12.9301   20.3228 N   0  0  0  0  0  0
  -25.9267  -11.6473   20.5738 N   0  0  0  0  0  0
  -22.0455  -12.8218   22.0419 N   0  0  0  0  0  0
  -25.4213  -15.1865   20.4122 N   0  0  0  0  0  0
  -31.7616  -14.9085   20.2494 O   0  0  0  0  0  0
  -21.6622   -6.8842   21.4240 O   0  0  0  0  0  0
  -22.3492  -14.5515   20.6677 O   0  0  0  0  0  0
  -24.6356  -31.8524   23.1986 C   0  0  0  0  0  0
  -25.9159  -32.4745   23.8348 C   0  0  1  0  0  0
  -27.2195  -27.2503   20.1229 C   0  0  0  0  0  0
  -25.5927  -33.8554   24.2256 N   0  0  0  0  0  0
  -23.4322  -30.4765   21.5428 C   0  0  2  0  0  0
  -24.8799  -28.9253   20.1112 C   0  0  0  0  0  0
  -22.7516  -29.4578   22.4897 C   0  0  0  0  0  0
  -18.0271  -28.1384   22.8409 C   0  0  0  0  0  0
  -24.1494  -36.7299   23.2633 C   0  0  0  0  0  0
  -25.9822  -30.7658   21.3791 C   0  0  0  0  0  0
  -26.0555  -29.3886   20.7162 C   0  0  0  0  0  0
  -27.2296  -28.5637   20.7080 C   0  0  0  0  0  0
  -26.0158  -26.8608   19.4899 C   0  0  0  0  0  0
  -24.8657  -27.6708   19.4871 C   0  0  0  0  0  0
  -23.6516  -29.8149   20.1576 C   0  0  0  0  0  0
  -25.4107  -36.3065   24.0329 C   0  0  1  0  0  0
  -20.5872  -28.3693   23.1213 C   0  0  2  0  0  0
  -20.6773  -26.9414   22.5351 C   0  0  0  0  0  0
  -19.5764  -26.6373   21.5138 C   0  0  0  0  0  0
  -18.1939  -26.7913   22.1559 C   0  0  0  0  0  0
  -19.1526  -28.8856   23.2808 C   0  0  0  0  0  0
  -18.9462  -30.1447   23.8842 C   0  0  0  0  0  0
  -17.6472  -30.6582   24.0532 C   0  0  0  0  0  0
  -25.9046  -34.9441   23.5105 C   0  0  0  0  0  0
  -16.5355  -29.9077   23.6325 C   0  0  0  0  0  0
  -16.7260  -28.6504   23.0312 C   0  0  0  0  0  0
  -26.4509  -31.6592   25.0766 C   0  0  0  0  0  0
  -25.3715  -31.3749   26.1479 C   0  0  0  0  0  0
  -27.0364  -30.2990   24.6310 C   0  0  0  0  0  0
  -27.6060  -32.4357   25.7524 C   0  0  0  0  0  0
  -27.5581  -37.1801   24.8457 C   0  0  0  0  0  0
  -21.4213  -29.3047   22.3643 N   0  0  0  0  0  0
  -26.4281  -37.3766   23.9419 N   0  0  0  0  0  0
  -24.7034  -31.0486   22.0966 N   0  0  0  0  0  0
  -23.4206  -28.8076   23.2979 O   0  0  0  0  0  0
  -28.3114  -26.3473   20.1713 O   0  0  0  0  0  0
  -26.5616  -34.8909   22.4677 O   0  0  0  0  0  0
  -23.5494  -32.1352   23.7258 O   0  0  0  0  0  0
  -28.9676  -19.7156   22.1764 C   0  0  0  0  0  0
  -28.7872  -18.4995   22.8673 C   0  0  0  0  0  0
  -29.7576  -18.4481   20.2573 C   0  0  0  0  0  0
  -29.4295  -19.7417   20.8466 C   0  0  0  0  0  0
  -29.6052  -17.1801   20.9590 C   0  0  0  0  0  0
  -29.0682  -17.2432   22.2676 C   0  0  0  0  0  0
  -29.9997  -24.0646   21.5882 C   0  0  0  0  0  0
  -27.7741  -16.0422   23.8850 C   0  0  0  0  0  0
  -29.6456  -21.1683   20.1690 C   0  0  0  0  0  0
  -28.0353  -24.8630   20.1284 C   0  0  0  0  0  0
  -29.1753  -23.7266   20.3413 C   0  0  2  0  0  0
  -29.6687  -15.8266   20.3597 N   0  0  0  0  0  0
  -28.7990  -16.0476   22.8982 O   0  0  0  0  0  0
  -28.7379  -22.3038   20.5147 O   0  0  0  0  0  0
  -31.4818  -12.6370   19.1439 H   0  0  0  0  0  0
  -30.4346  -11.4909   19.9391 H   0  0  0  0  0  0
  -29.8024  -11.7146   17.5168 H   0  0  0  0  0  0
  -29.6266  -13.4423   17.7004 H   0  0  0  0  0  0
  -27.9094  -11.2579   18.9252 H   0  0  0  0  0  0
  -27.3756  -12.4721   17.7963 H   0  0  0  0  0  0
  -27.6270  -14.2290   19.4487 H   0  0  0  0  0  0
  -28.7364  -12.1223   21.3791 H   0  0  0  0  0  0
  -28.4158  -13.7846   21.7959 H   0  0  0  0  0  0
  -25.2732   -9.5661   22.4747 H   0  0  0  0  0  0
  -23.9979   -7.4612   22.7477 H   0  0  0  0  0  0
  -21.0813   -8.8699   19.8959 H   0  0  0  0  0  0
  -22.3631  -10.9619   19.6159 H   0  0  0  0  0  0
  -21.1953   -7.6122   23.9692 H   0  0  0  0  0  0
  -21.1519   -6.0525   25.9080 H   0  0  0  0  0  0
  -22.0586   -2.7585   23.2876 H   0  0  0  0  0  0
  -22.4093  -11.9884   22.4799 H   0  0  0  0  0  0
  -21.1068  -13.1230   22.2649 H   0  0  0  0  0  0
  -24.6539  -15.8377   20.5334 H   0  0  0  0  0  0
  -26.2671  -15.6339   20.0875 H   0  0  0  0  0  0
  -26.7254  -32.5370   23.1116 H   0  0  0  0  0  0
  -25.0044  -33.9683   25.0382 H   0  0  0  0  0  0
  -22.7304  -31.3004   21.3973 H   0  0  0  0  0  0
  -23.3737  -35.9651   23.3271 H   0  0  0  0  0  0
  -24.3556  -36.8959   22.2051 H   0  0  0  0  0  0
  -23.7281  -37.6508   23.6669 H   0  0  0  0  0  0
  -26.1248  -31.5305   20.6135 H   0  0  0  0  0  0
  -26.8588  -30.8095   22.0146 H   0  0  0  0  0  0
  -28.1333  -28.9082   21.1905 H   0  0  0  0  0  0
  -25.9226  -25.9050   18.9971 H   0  0  0  0  0  0
  -23.9660  -27.3124   19.0072 H   0  0  0  0  0  0
  -23.7858  -30.5945   19.4083 H   0  0  0  0  0  0
  -22.7693  -29.2556   19.8392 H   0  0  0  0  0  0
  -25.1297  -36.1908   25.0820 H   0  0  0  0  0  0
  -20.9939  -28.3292   24.1340 H   0  0  0  0  0  0
  -20.5634  -26.2321   23.3565 H   0  0  0  0  0  0
  -21.6655  -26.7415   22.1187 H   0  0  0  0  0  0
  -19.6946  -25.6272   21.1208 H   0  0  0  0  0  0
  -19.6724  -27.3138   20.6639 H   0  0  0  0  0  0
  -17.4193  -26.6549   21.4000 H   0  0  0  0  0  0
  -18.0412  -26.0074   22.8995 H   0  0  0  0  0  0
  -19.7955  -30.7236   24.2212 H   0  0  0  0  0  0
  -17.5038  -31.6247   24.5158 H   0  0  0  0  0  0
  -15.5356  -30.2978   23.7698 H   0  0  0  0  0  0
  -15.8639  -28.0843   22.7053 H   0  0  0  0  0  0
  -24.5896  -30.7083   25.7815 H   0  0  0  0  0  0
  -24.8878  -32.2922   26.4860 H   0  0  0  0  0  0
  -25.8012  -30.8964   27.0293 H   0  0  0  0  0  0
  -26.2968  -29.6719   24.1324 H   0  0  0  0  0  0
  -27.3978  -29.7296   25.4883 H   0  0  0  0  0  0
  -27.8886  -30.4218   23.9615 H   0  0  0  0  0  0
  -27.2668  -33.3688   26.2039 H   0  0  0  0  0  0
  -28.3885  -32.6888   25.0353 H   0  0  0  0  0  0
  -28.0721  -31.8538   26.5481 H   0  0  0  0  0  0
  -28.2580  -38.0122   24.7510 H   0  0  0  0  0  0
  -28.1102  -36.2648   24.6267 H   0  0  0  0  0  0
  -27.2292  -37.1451   25.8859 H   0  0  0  0  0  0
  -20.9407  -29.8822   21.6888 H   0  0  0  0  0  0
  -26.0152  -38.2838   24.1416 H   0  0  0  0  0  0
  -28.7362  -20.6457   22.6797 H   0  0  0  0  0  0
  -28.4093  -18.5598   23.8774 H   0  0  0  0  0  0
  -30.1089  -18.4323   19.2361 H   0  0  0  0  0  0
  -30.8137  -23.3563   21.7393 H   0  0  0  0  0  0
  -29.3755  -24.0496   22.4816 H   0  0  0  0  0  0
  -30.4354  -25.0617   21.5088 H   0  0  0  0  0  0
  -27.5215  -15.0115   24.1355 H   0  0  0  0  0  0
  -26.8659  -16.5280   23.5237 H   0  0  0  0  0  0
  -28.0955  -16.5277   24.8058 H   0  0  0  0  0  0
  -29.6486  -21.0525   19.0851 H   0  0  0  0  0  0
  -30.6636  -21.4598   20.4273 H   0  0  0  0  0  0
  -27.2605  -24.6811   20.8752 H   0  0  0  0  0  0
  -27.5878  -24.6237   19.1638 H   0  0  0  0  0  0
  -29.8395  -23.7664   19.4768 H   0  0  0  0  0  0
  -28.7418  -15.4529   20.2379 H   0  0  0  0  0  0
  1 25  1  0  0  0
  1 30  2  0  0  0
  1 82  1  0  0  0
  2  3  1  0  0  0
  2 25  1  0  0  0
  2 85  1  0  0  0
  2 86  1  0  0  0
  3  4  1  0  0  0
  3 87  1  0  0  0
  3 88  1  0  0  0
  4  5  1  0  0  0
  4 89  1  0  0  0
  4 90  1  0  0  0
  5  6  1  0  0  0
  5 26  1  0  0  0
  5 91  1  0  0  0
  6 25  1  0  0  0
  6 92  1  0  0  0
  6 93  1  0  0  0
  7  8  2  0  0  0
  7 26  1  0  0  0
  7 29  1  0  0  0
  8  9  1  0  0  0
  8 22  1  0  0  0
  9 10  1  0  0  0
  9 27  2  0  0  0
 10 11  2  0  0  0
 10 15  1  0  0  0
 11 12  1  0  0  0
 11 94  1  0  0  0
 12 13  2  0  0  0
 12 95  1  0  0  0
 13 14  1  0  0  0
 13 31  1  0  0  0
 14 15  2  0  0  0
 14 96  1  0  0  0
 15 97  1  0  0  0
 16 17  2  0  0  0
 16 21  1  0  0  0
 16 31  1  0  0  0
 17 18  1  0  0  0
 17 98  1  0  0  0
 18 19  2  0  0  0
 18 99  1  0  0  0
 19 20  1  0  0  0
 19 24  1  0  0  0
 20 21  2  0  0  0
 20100  1  0  0  0
 21 23  1  0  0  0
 22 28  1  0  0  0
 22 32  2  0  0  0
 26 27  1  0  0  0
 28101  1  0  0  0
 28102  1  0  0  0
 29103  1  0  0  0
 29104  1  0  0  0
 33 34  1  0  0  0
 33 66  1  0  0  0
 33 70  2  0  0  0
 34 36  1  0  0  0
 34 59  1  0  0  0
 34105  1  0  0  0
 35 44  2  0  0  0
 35 45  1  0  0  0
 35 68  1  0  0  0
 36 56  1  0  0  0
 36106  1  0  0  0
 37 39  1  0  0  0
 37 47  1  0  0  0
 37 66  1  0  0  0
 37107  1  0  0  0
 38 43  2  0  0  0
 38 46  1  0  0  0
 38 47  1  0  0  0
 39 64  1  0  0  0
 39 67  2  0  0  0
 40 52  1  0  0  0
 40 53  2  0  0  0
 40 58  1  0  0  0
 41108  1  0  0  0
 41109  1  0  0  0
 41110  1  0  0  0
 41 48  1  0  0  0
 42 43  1  0  0  0
 42 66  1  0  0  0
 42111  1  0  0  0
 42112  1  0  0  0
 43 44  1  0  0  0
 44113  1  0  0  0
 45 46  2  0  0  0
 45114  1  0  0  0
 46115  1  0  0  0
 47116  1  0  0  0
 47117  1  0  0  0
 48 56  1  0  0  0
 48 65  1  0  0  0
 48118  1  0  0  0
 49 50  1  0  0  0
 49 53  1  0  0  0
 49 64  1  0  0  0
 49119  1  0  0  0
 50 51  1  0  0  0
 50120  1  0  0  0
 50121  1  0  0  0
 51 52  1  0  0  0
 51122  1  0  0  0
 51123  1  0  0  0
 52124  1  0  0  0
 52125  1  0  0  0
 53 54  1  0  0  0
 54 55  2  0  0  0
 54126  1  0  0  0
 55 57  1  0  0  0
 55127  1  0  0  0
 56 69  2  0  0  0
 57 58  2  0  0  0
 57128  1  0  0  0
 58129  1  0  0  0
 59 60  1  0  0  0
 59 61  1  0  0  0
 59 62  1  0  0  0
 60130  1  0  0  0
 60131  1  0  0  0
 60132  1  0  0  0
 61133  1  0  0  0
 61134  1  0  0  0
 61135  1  0  0  0
 62136  1  0  0  0
 62137  1  0  0  0
 62138  1  0  0  0
 63 65  1  0  0  0
 63139  1  0  0  0
 63140  1  0  0  0
 63141  1  0  0  0
 64142  1  0  0  0
 65143  1  0  0  0
 68 80  1  0  0  0
 71 72  2  0  0  0
 71 74  1  0  0  0
 71144  1  0  0  0
 72 76  1  0  0  0
 72145  1  0  0  0
 73 74  2  0  0  0
 73 75  1  0  0  0
 73146  1  0  0  0
 74 79  1  0  0  0
 75 76  2  0  0  0
 75 82  1  0  0  0
 76 83  1  0  0  0
 77147  1  0  0  0
 77148  1  0  0  0
 77149  1  0  0  0
 77 81  1  0  0  0
 78 83  1  0  0  0
 78150  1  0  0  0
 78151  1  0  0  0
 78152  1  0  0  0
 79 84  1  0  0  0
 79153  1  0  0  0
 79154  1  0  0  0
 80 81  1  0  0  0
 80155  1  0  0  0
 80156  1  0  0  0
 81 84  1  0  0  0
 81157  1  0  0  0
 82158  1  0  0  0
M  ISO  4   1 100  68 101  80 101  82 100
M  END
> <chiral flag>
0

> <version>
0

> <s_m_source_file>
/data/baiqing/PycharmProjects/Reinvent-master-3.2/result/LINK_invent/BTK/process_docking_weight1_custom_sum_contain_oxygen_bond_distance_aromatic_linkinvent_7_9_3/rearranged_h_0005.sdf

> <i_m_source_file_index>
1

> <r_mmod_Potential_Energy-OPLS-2005>
201.313522338867

> <r_mmod_Stretch_Energy-OPLS-2005>
126.906028747559

> <r_mmod_Bend_Energy-OPLS-2005>
175.155227661133

> <r_mmod_Torsional_Energy-OPLS-2005>
274.769897460938

> <r_mmod_Improper_Torsional_Energy-OPLS-2005>
16.2902603149414

> <r_mmod_Van_der_Waal_Energy-OPLS-2005>
134.70426940918

> <r_mmod_Electrostatic_Energy-OPLS-2005>
-415.020629882812

> <r_mmod_Solvation_Energy-OPLS-2005>
-209.087829589844

> <b_mmod_Minimization_Converged-OPLS-2005>
0

> <r_mmod_RMS_Derivative-OPLS-2005>
2.80947184562683

$$$$
1
                    3D
 Structure written by MMmdl.
169178  0  0  1  0            999 V2000
  -30.7153  -14.4161   20.6938 C   0  0  0  0  0  0
  -30.4431  -12.3252   19.3870 C   0  0  0  0  0  0
  -29.4927  -12.5419   18.1911 C   0  0  0  0  0  0
  -28.0155  -12.3894   18.6074 C   0  0  0  0  0  0
  -27.6726  -13.1981   19.8854 C   0  0  2  0  0  0
  -28.7135  -12.9057   20.9878 C   0  0  0  0  0  0
  -25.2614  -13.8140   20.5620 C   0  0  0  0  0  0
  -24.1862  -13.0435   20.9154 C   0  0  0  0  0  0
  -24.6409  -11.6899   20.8731 C   0  0  0  0  0  0
  -23.9066  -10.4292   21.0407 C   0  0  0  0  0  0
  -24.3616   -9.4206   21.9184 C   0  0  0  0  0  0
  -23.6290   -8.2243   22.0757 C   0  0  0  0  0  0
  -22.4270   -8.0284   21.3549 C   0  0  0  0  0  0
  -21.9907   -9.0257   20.4648 C   0  0  0  0  0  0
  -22.7239  -10.2136   20.3055 C   0  0  0  0  0  0
  -21.6852   -6.0735   22.5280 C   0  0  0  0  0  0
  -21.4011   -6.5639   23.8213 C   0  0  0  0  0  0
  -21.3657   -5.6793   24.9174 C   0  0  0  0  0  0
  -21.6043   -4.3055   24.7225 C   0  0  0  0  0  0
  -21.8821   -3.8147   23.4347 C   0  0  0  0  0  0
  -21.9190   -4.6962   22.3402 C   0  0  0  0  0  0
  -22.7882  -13.5241   21.1820 C   0  0  0  0  0  0
  -22.1660   -4.2149   21.0980 F   0  0  0  0  0  0
  -21.5628   -3.4537   25.7737 F   0  0  0  0  0  0
  -30.0552  -13.2464   20.4658 N   0  0  0  0  0  0
  -26.3077  -12.9304   20.3394 N   0  0  0  0  0  0
  -25.9340  -11.6473   20.5779 N   0  0  0  0  0  0
  -22.0519  -12.8246   22.0385 N   0  0  0  0  0  0
  -25.4299  -15.1848   20.3942 N   0  0  0  0  0  0
  -31.7408  -14.7464   20.0865 O   0  0  0  0  0  0
  -21.6638   -6.8879   21.4242 O   0  0  0  0  0  0
  -22.3565  -14.5542   20.6664 O   0  0  0  0  0  0
  -24.6124  -31.8687   23.2130 C   0  0  0  0  0  0
  -25.9019  -32.4836   23.8419 C   0  0  1  0  0  0
  -27.2482  -27.4548   20.1013 C   0  0  0  0  0  0
  -25.5885  -33.8633   24.2344 N   0  0  0  0  0  0
  -23.4028  -30.4914   21.5514 C   0  0  2  0  0  0
  -24.8550  -28.9596   20.1200 C   0  0  0  0  0  0
  -22.7412  -29.4657   22.4991 C   0  0  0  0  0  0
  -18.0275  -28.1380   22.8504 C   0  0  0  0  0  0
  -24.1479  -36.7313   23.2639 C   0  0  0  0  0  0
  -25.9283  -30.8406   21.3655 C   0  0  0  0  0  0
  -26.0117  -29.4734   20.7220 C   0  0  0  0  0  0
  -27.2128  -28.7277   20.7193 C   0  0  0  0  0  0
  -26.0779  -26.9574   19.4940 C   0  0  0  0  0  0
  -24.8811  -27.6969   19.5054 C   0  0  0  0  0  0
  -23.6145  -29.8228   20.1663 C   0  0  0  0  0  0
  -25.4101  -36.3121   24.0345 C   0  0  1  0  0  0
  -20.5866  -28.3659   23.1322 C   0  0  2  0  0  0
  -20.6763  -26.9397   22.5422 C   0  0  0  0  0  0
  -19.5743  -26.6388   21.5218 C   0  0  0  0  0  0
  -18.1920  -26.7930   22.1629 C   0  0  0  0  0  0
  -19.1527  -28.8838   23.2911 C   0  0  0  0  0  0
  -18.9458  -30.1444   23.8919 C   0  0  0  0  0  0
  -17.6461  -30.6589   24.0575 C   0  0  0  0  0  0
  -25.9023  -34.9484   23.5142 C   0  0  0  0  0  0
  -16.5349  -29.9097   23.6330 C   0  0  0  0  0  0
  -16.7265  -28.6512   23.0354 C   0  0  0  0  0  0
  -26.4470  -31.6602   25.0731 C   0  0  0  0  0  0
  -25.3754  -31.3703   26.1495 C   0  0  0  0  0  0
  -27.0303  -30.3056   24.6075 C   0  0  0  0  0  0
  -27.6044  -32.4322   25.7488 C   0  0  0  0  0  0
  -27.5581  -37.1807   24.8471 C   0  0  0  0  0  0
  -21.4137  -29.3025   22.3728 N   0  0  0  0  0  0
  -26.4292  -37.3799   23.9420 N   0  0  0  0  0  0
  -24.6661  -31.0804   22.1026 N   0  0  0  0  0  0
  -23.4186  -28.8183   23.3018 O   0  0  0  0  0  0
  -28.3642  -26.6537   20.0078 O   0  0  0  0  0  0
  -26.5581  -34.8928   22.4699 O   0  0  0  0  0  0
  -23.5315  -32.1428   23.7525 O   0  0  0  0  0  0
  -34.2119  -21.5197   24.8210 C   0  0  0  0  0  0
  -34.1262  -20.1294   24.6615 C   0  0  0  0  0  0
  -33.5578  -22.3665   23.9099 C   0  0  0  0  0  0
  -28.8782  -18.3698   23.0019 C   0  0  0  0  0  0
  -33.3932  -19.5956   23.5882 C   0  0  0  0  0  0
  -29.8828  -19.2789   22.6381 C   0  0  0  0  0  0
  -31.1220  -17.4739   21.5504 C   0  0  0  0  0  0
  -32.7976  -21.8531   22.8269 C   0  0  0  0  0  0
  -28.9959  -17.0066   22.6688 C   0  0  0  0  0  0
  -31.0118  -18.8411   21.9205 C   0  0  0  0  0  0
  -32.7276  -20.4309   22.6599 C   0  0  0  0  0  0
  -30.1185  -16.5426   21.9364 C   0  0  0  0  0  0
  -32.1551  -22.8664   21.9032 C   0  0  0  0  0  0
  -27.8958  -16.0550   23.1140 C   0  0  0  0  0  0
  -29.8578  -25.2762   21.2744 C   0  0  0  0  0  0
  -31.2160  -25.2056   21.9977 C   0  0  0  0  0  0
  -29.3860  -26.7226   20.9966 C   0  0  0  0  0  0
  -32.0229  -19.7719   21.6369 N   0  0  0  0  0  0
  -30.1757  -15.1362   21.6919 N   0  0  0  0  0  0
  -31.5410  -23.8809   22.5362 N   0  0  0  0  0  0
  -32.2683  -22.8086   20.6766 O   0  0  0  0  0  0
  -31.4784  -12.4732   19.0740 H   0  0  0  0  0  0
  -30.3862  -11.2947   19.7402 H   0  0  0  0  0  0
  -29.7289  -11.8402   17.3902 H   0  0  0  0  0  0
  -29.6511  -13.5391   17.7771 H   0  0  0  0  0  0
  -27.8223  -11.3296   18.7768 H   0  0  0  0  0  0
  -27.3620  -12.6894   17.7877 H   0  0  0  0  0  0
  -27.7386  -14.2569   19.6331 H   0  0  0  0  0  0
  -28.6929  -11.8460   21.2474 H   0  0  0  0  0  0
  -28.4439  -13.4147   21.9119 H   0  0  0  0  0  0
  -25.2766   -9.5678   22.4753 H   0  0  0  0  0  0
  -23.9998   -7.4633   22.7478 H   0  0  0  0  0  0
  -21.0837   -8.8776   19.8956 H   0  0  0  0  0  0
  -22.3701  -10.9672   19.6159 H   0  0  0  0  0  0
  -21.2004   -7.6148   23.9716 H   0  0  0  0  0  0
  -21.1477   -6.0522   25.9079 H   0  0  0  0  0  0
  -22.0602   -2.7609   23.2846 H   0  0  0  0  0  0
  -22.4129  -11.9913   22.4786 H   0  0  0  0  0  0
  -21.1137  -13.1285   22.2583 H   0  0  0  0  0  0
  -24.6615  -15.8388   20.4948 H   0  0  0  0  0  0
  -26.2811  -15.6233   20.0659 H   0  0  0  0  0  0
  -26.7095  -32.5564   23.1193 H   0  0  0  0  0  0
  -25.0063  -33.9805   25.0514 H   0  0  0  0  0  0
  -22.6909  -31.3073   21.4105 H   0  0  0  0  0  0
  -23.3741  -35.9649   23.3318 H   0  0  0  0  0  0
  -24.3575  -36.8907   22.2052 H   0  0  0  0  0  0
  -23.7231  -37.6527   23.6634 H   0  0  0  0  0  0
  -26.0338  -31.6034   20.5927 H   0  0  0  0  0  0
  -26.8179  -30.9001   21.9798 H   0  0  0  0  0  0
  -28.1035  -29.1403   21.1734 H   0  0  0  0  0  0
  -26.0955  -25.9885   19.0140 H   0  0  0  0  0  0
  -23.9944  -27.2947   19.0349 H   0  0  0  0  0  0
  -23.7222  -30.5972   19.4059 H   0  0  0  0  0  0
  -22.7402  -29.2399   19.8697 H   0  0  0  0  0  0
  -25.1273  -36.1990   25.0840 H   0  0  0  0  0  0
  -20.9963  -28.3210   24.1443 H   0  0  0  0  0  0
  -20.5671  -26.2264   23.3603 H   0  0  0  0  0  0
  -21.6631  -26.7445   22.1208 H   0  0  0  0  0  0
  -19.6908  -25.6306   21.1231 H   0  0  0  0  0  0
  -19.6684  -27.3214   20.6762 H   0  0  0  0  0  0
  -17.4197  -26.6694   21.4024 H   0  0  0  0  0  0
  -18.0309  -26.0070   22.9020 H   0  0  0  0  0  0
  -19.7936  -30.7256   24.2290 H   0  0  0  0  0  0
  -17.5023  -31.6273   24.5167 H   0  0  0  0  0  0
  -15.5352  -30.3009   23.7645 H   0  0  0  0  0  0
  -15.8667  -28.0838   22.7055 H   0  0  0  0  0  0
  -24.5920  -30.7052   25.7841 H   0  0  0  0  0  0
  -24.8961  -32.2861   26.4957 H   0  0  0  0  0  0
  -25.8128  -30.8870   27.0240 H   0  0  0  0  0  0
  -26.2842  -29.6816   24.1142 H   0  0  0  0  0  0
  -27.4115  -29.7281   25.4506 H   0  0  0  0  0  0
  -27.8651  -30.4398   23.9194 H   0  0  0  0  0  0
  -27.2659  -33.3604   26.2098 H   0  0  0  0  0  0
  -28.3830  -32.6908   25.0300 H   0  0  0  0  0  0
  -28.0740  -31.8437   26.5379 H   0  0  0  0  0  0
  -28.2595  -38.0102   24.7507 H   0  0  0  0  0  0
  -28.1064  -36.2632   24.6291 H   0  0  0  0  0  0
  -27.2298  -37.1452   25.8873 H   0  0  0  0  0  0
  -20.9293  -29.8752   21.6957 H   0  0  0  0  0  0
  -26.0181  -38.2876   24.1436 H   0  0  0  0  0  0
  -34.7831  -21.9376   25.6391 H   0  0  0  0  0  0
  -34.6253  -19.4699   25.3579 H   0  0  0  0  0  0
  -33.6586  -23.4345   24.0473 H   0  0  0  0  0  0
  -28.0214  -18.7274   23.5552 H   0  0  0  0  0  0
  -33.3437  -18.5197   23.4870 H   0  0  0  0  0  0
  -29.7837  -20.3168   22.9241 H   0  0  0  0  0  0
  -31.9971  -17.1349   21.0151 H   0  0  0  0  0  0
  -27.1118  -16.5759   23.6640 H   0  0  0  0  0  0
  -28.2958  -15.2783   23.7663 H   0  0  0  0  0  0
  -27.4298  -15.5810   22.2512 H   0  0  0  0  0  0
  -29.0921  -24.7654   21.8592 H   0  0  0  0  0  0
  -29.9379  -24.7303   20.3337 H   0  0  0  0  0  0
  -31.2141  -25.9019   22.8376 H   0  0  0  0  0  0
  -32.0144  -25.5400   21.3320 H   0  0  0  0  0  0
  -30.2042  -27.3320   20.6107 H   0  0  0  0  0  0
  -29.0460  -27.1757   21.9291 H   0  0  0  0  0  0
  -32.6513  -19.4322   20.9137 H   0  0  0  0  0  0
  -29.4530  -14.6163   22.1638 H   0  0  0  0  0  0
  -31.4813  -23.7833   23.5413 H   0  0  0  0  0  0
  1 25  1  0  0  0
  1 30  2  0  0  0
  1 89  1  0  0  0
  2  3  1  0  0  0
  2 25  1  0  0  0
  2 92  1  0  0  0
  2 93  1  0  0  0
  3  4  1  0  0  0
  3 94  1  0  0  0
  3 95  1  0  0  0
  4  5  1  0  0  0
  4 96  1  0  0  0
  4 97  1  0  0  0
  5  6  1  0  0  0
  5 26  1  0  0  0
  5 98  1  0  0  0
  6 25  1  0  0  0
  6 99  1  0  0  0
  6100  1  0  0  0
  7  8  2  0  0  0
  7 26  1  0  0  0
  7 29  1  0  0  0
  8  9  1  0  0  0
  8 22  1  0  0  0
  9 10  1  0  0  0
  9 27  2  0  0  0
 10 11  2  0  0  0
 10 15  1  0  0  0
 11 12  1  0  0  0
 11101  1  0  0  0
 12 13  2  0  0  0
 12102  1  0  0  0
 13 14  1  0  0  0
 13 31  1  0  0  0
 14 15  2  0  0  0
 14103  1  0  0  0
 15104  1  0  0  0
 16 17  2  0  0  0
 16 21  1  0  0  0
 16 31  1  0  0  0
 17 18  1  0  0  0
 17105  1  0  0  0
 18 19  2  0  0  0
 18106  1  0  0  0
 19 20  1  0  0  0
 19 24  1  0  0  0
 20 21  2  0  0  0
 20107  1  0  0  0
 21 23  1  0  0  0
 22 28  1  0  0  0
 22 32  2  0  0  0
 26 27  1  0  0  0
 28108  1  0  0  0
 28109  1  0  0  0
 29110  1  0  0  0
 29111  1  0  0  0
 33 34  1  0  0  0
 33 66  1  0  0  0
 33 70  2  0  0  0
 34 36  1  0  0  0
 34 59  1  0  0  0
 34112  1  0  0  0
 35 44  2  0  0  0
 35 45  1  0  0  0
 35 68  1  0  0  0
 36 56  1  0  0  0
 36113  1  0  0  0
 37 39  1  0  0  0
 37 47  1  0  0  0
 37 66  1  0  0  0
 37114  1  0  0  0
 38 43  2  0  0  0
 38 46  1  0  0  0
 38 47  1  0  0  0
 39 64  1  0  0  0
 39 67  2  0  0  0
 40 52  1  0  0  0
 40 53  2  0  0  0
 40 58  1  0  0  0
 41115  1  0  0  0
 41116  1  0  0  0
 41117  1  0  0  0
 41 48  1  0  0  0
 42 43  1  0  0  0
 42 66  1  0  0  0
 42118  1  0  0  0
 42119  1  0  0  0
 43 44  1  0  0  0
 44120  1  0  0  0
 45 46  2  0  0  0
 45121  1  0  0  0
 46122  1  0  0  0
 47123  1  0  0  0
 47124  1  0  0  0
 48 56  1  0  0  0
 48 65  1  0  0  0
 48125  1  0  0  0
 49 50  1  0  0  0
 49 53  1  0  0  0
 49 64  1  0  0  0
 49126  1  0  0  0
 50 51  1  0  0  0
 50127  1  0  0  0
 50128  1  0  0  0
 51 52  1  0  0  0
 51129  1  0  0  0
 51130  1  0  0  0
 52131  1  0  0  0
 52132  1  0  0  0
 53 54  1  0  0  0
 54 55  2  0  0  0
 54133  1  0  0  0
 55 57  1  0  0  0
 55134  1  0  0  0
 56 69  2  0  0  0
 57 58  2  0  0  0
 57135  1  0  0  0
 58136  1  0  0  0
 59 60  1  0  0  0
 59 61  1  0  0  0
 59 62  1  0  0  0
 60137  1  0  0  0
 60138  1  0  0  0
 60139  1  0  0  0
 61140  1  0  0  0
 61141  1  0  0  0
 61142  1  0  0  0
 62143  1  0  0  0
 62144  1  0  0  0
 62145  1  0  0  0
 63 65  1  0  0  0
 63146  1  0  0  0
 63147  1  0  0  0
 63148  1  0  0  0
 64149  1  0  0  0
 65150  1  0  0  0
 68 87  1  0  0  0
 71 72  2  0  0  0
 71 73  1  0  0  0
 71151  1  0  0  0
 72 75  1  0  0  0
 72152  1  0  0  0
 73 78  2  0  0  0
 73153  1  0  0  0
 74 76  2  0  0  0
 74 79  1  0  0  0
 74154  1  0  0  0
 75 81  2  0  0  0
 75155  1  0  0  0
 76 80  1  0  0  0
 76156  1  0  0  0
 77 80  2  0  0  0
 77 82  1  0  0  0
 77157  1  0  0  0
 78 81  1  0  0  0
 78 83  1  0  0  0
 79 82  2  0  0  0
 79 84  1  0  0  0
 80 88  1  0  0  0
 81 88  1  0  0  0
 82 89  1  0  0  0
 83 90  1  0  0  0
 83 91  2  0  0  0
 84158  1  0  0  0
 84159  1  0  0  0
 84160  1  0  0  0
 85 86  1  0  0  0
 85 87  1  0  0  0
 85161  1  0  0  0
 85162  1  0  0  0
 86 90  1  0  0  0
 86163  1  0  0  0
 86164  1  0  0  0
 87165  1  0  0  0
 87166  1  0  0  0
 88167  1  0  0  0
 89168  1  0  0  0
 90169  1  0  0  0
M  ISO  4   1 100  68 101  87 101  89 100
M  END
> <chiral flag>
0

> <version>
0

> <s_m_source_file>
/data/baiqing/PycharmProjects/Reinvent-master-3.2/result/LINK_invent/BTK/process_docking_weight1_custom_sum_contain_oxygen_bond_distance_aromatic_linkinvent_7_9_3/rearranged_h_0005.sdf

> <i_m_source_file_index>
2

> <r_mmod_Potential_Energy-OPLS-2005>
17.8285522460938

> <r_mmod_Stretch_Energy-OPLS-2005>
40.3715515136719

> <r_mmod_Bend_Energy-OPLS-2005>
121.12939453125

> <r_mmod_Torsional_Energy-OPLS-2005>
273.2275390625

> <r_mmod_Improper_Torsional_Energy-OPLS-2005>
8.97822761535645

> <r_mmod_Van_der_Waal_Energy-OPLS-2005>
166.37385559082

> <r_mmod_Electrostatic_Energy-OPLS-2005>
-355.877868652344

> <r_mmod_Solvation_Energy-OPLS-2005>
-245.719085693359

> <b_mmod_Minimization_Converged-OPLS-2005>
0

> <r_mmod_RMS_Derivative-OPLS-2005>
1.28354644775391

$$$$
2
                    3D
 Structure written by MMmdl.
197205  0  0  1  0            999 V2000
  -30.7727  -14.3031   20.7429 C   0  0  0  0  0  0
  -30.4111  -12.2886   19.3595 C   0  0  0  0  0  0
  -29.4636  -12.5343   18.1722 C   0  0  0  0  0  0
  -27.9917  -12.3810   18.5941 C   0  0  0  0  0  0
  -27.6597  -13.1940   19.8717 C   0  0  2  0  0  0
  -28.6950  -12.9126   20.9802 C   0  0  0  0  0  0
  -25.2574  -13.8139   20.5661 C   0  0  0  0  0  0
  -24.1793  -13.0429   20.9169 C   0  0  0  0  0  0
  -24.6345  -11.6888   20.8709 C   0  0  0  0  0  0
  -23.9007  -10.4288   21.0393 C   0  0  0  0  0  0
  -24.3590   -9.4217   21.9171 C   0  0  0  0  0  0
  -23.6289   -8.2242   22.0741 C   0  0  0  0  0  0
  -22.4271   -8.0264   21.3527 C   0  0  0  0  0  0
  -21.9890   -9.0232   20.4631 C   0  0  0  0  0  0
  -22.7186  -10.2127   20.3044 C   0  0  0  0  0  0
  -21.6854   -6.0735   22.5291 C   0  0  0  0  0  0
  -21.4013   -6.5654   23.8208 C   0  0  0  0  0  0
  -21.3661   -5.6799   24.9184 C   0  0  0  0  0  0
  -21.6041   -4.3061   24.7222 C   0  0  0  0  0  0
  -21.8822   -3.8152   23.4353 C   0  0  0  0  0  0
  -21.9200   -4.6981   22.3399 C   0  0  0  0  0  0
  -22.7852  -13.5238   21.1873 C   0  0  0  0  0  0
  -22.1665   -4.2163   21.0984 F   0  0  0  0  0  0
  -21.5631   -3.4543   25.7737 F   0  0  0  0  0  0
  -30.0498  -13.1922   20.4591 N   0  0  0  0  0  0
  -26.2990  -12.9263   20.3332 N   0  0  0  0  0  0
  -25.9241  -11.6443   20.5721 N   0  0  0  0  0  0
  -22.0488  -12.8199   22.0460 N   0  0  0  0  0  0
  -25.4337  -15.1833   20.4078 N   0  0  0  0  0  0
  -31.7093  -14.7176   20.0523 O   0  0  0  0  0  0
  -21.6639   -6.8884   21.4231 O   0  0  0  0  0  0
  -22.3521  -14.5540   20.6774 O   0  0  0  0  0  0
  -24.6304  -31.8748   23.2328 C   0  0  0  0  0  0
  -25.9196  -32.4885   23.8529 C   0  0  1  0  0  0
  -27.1803  -27.4437   20.0327 C   0  0  0  0  0  0
  -25.6098  -33.8659   24.2438 N   0  0  0  0  0  0
  -23.4156  -30.5155   21.5819 C   0  0  2  0  0  0
  -24.8435  -29.0189   20.1235 C   0  0  0  0  0  0
  -22.7511  -29.4770   22.5155 C   0  0  0  0  0  0
  -18.0248  -28.1300   22.8574 C   0  0  0  0  0  0
  -24.1515  -36.7274   23.2647 C   0  0  0  0  0  0
  -25.9584  -30.8409   21.4006 C   0  0  0  0  0  0
  -26.0181  -29.4931   20.7158 C   0  0  0  0  0  0
  -27.1990  -28.7144   20.6635 C   0  0  0  0  0  0
  -25.9871  -27.0285   19.4018 C   0  0  0  0  0  0
  -24.8211  -27.7946   19.4656 C   0  0  0  0  0  0
  -23.6147  -29.8838   20.1859 C   0  0  0  0  0  0
  -25.4106  -36.3073   24.0384 C   0  0  1  0  0  0
  -20.5942  -28.3585   23.1229 C   0  0  2  0  0  0
  -20.6879  -26.9495   22.4974 C   0  0  0  0  0  0
  -19.5495  -26.6366   21.5209 C   0  0  0  0  0  0
  -18.1905  -26.7738   22.2010 C   0  0  0  0  0  0
  -19.1564  -28.8753   23.2864 C   0  0  0  0  0  0
  -18.9559  -30.1400   23.8756 C   0  0  0  0  0  0
  -17.6554  -30.6587   24.0398 C   0  0  0  0  0  0
  -25.9047  -34.9473   23.5128 C   0  0  0  0  0  0
  -16.5365  -29.9029   23.6364 C   0  0  0  0  0  0
  -16.7225  -28.6432   23.0442 C   0  0  0  0  0  0
  -26.4587  -31.6657   25.0847 C   0  0  0  0  0  0
  -25.3842  -31.3735   26.1552 C   0  0  0  0  0  0
  -27.0360  -30.3090   24.6260 C   0  0  0  0  0  0
  -27.6190  -32.4339   25.7585 C   0  0  0  0  0  0
  -27.5592  -37.1778   24.8483 C   0  0  0  0  0  0
  -21.4258  -29.3112   22.3793 N   0  0  0  0  0  0
  -26.4302  -37.3739   23.9424 N   0  0  0  0  0  0
  -24.6881  -31.0803   22.1290 N   0  0  0  0  0  0
  -23.4215  -28.8233   23.3175 O   0  0  0  0  0  0
  -28.3006  -26.6355   20.0520 O   0  0  0  0  0  0
  -26.5484  -34.8899   22.4609 O   0  0  0  0  0  0
  -23.5479  -32.1610   23.7662 O   0  0  0  0  0  0
  -31.1923  -17.7763   24.0792 C   0  0  0  0  0  0
  -29.9207  -18.4723   22.1177 C   0  0  0  0  0  0
  -31.2263  -16.4552   23.5870 C   0  0  0  0  0  0
  -29.9608  -17.1576   21.6194 C   0  0  0  0  0  0
  -30.5201  -18.7870   23.3557 C   0  0  0  0  0  0
  -30.5991  -16.1429   22.3615 C   0  0  0  0  0  0
  -29.0483  -20.4957   24.5240 C   0  0  0  0  0  0
  -24.6157  -24.1860   20.2382 C   0  0  0  0  0  0
  -20.3318  -24.1794   18.5190 C   0  0  0  0  0  0
  -29.0897  -22.7955   23.6502 C   0  0  0  0  0  0
  -30.4336  -20.2074   23.9042 C   0  0  0  0  0  0
  -26.0440  -23.6037   20.0999 C   0  0  0  0  0  0
  -21.6185  -24.6587   17.8498 C   0  0  0  0  0  0
  -27.1991  -24.4558   20.7033 C   0  0  0  0  0  0
  -23.6673  -19.9212   23.2145 C   0  0  0  0  0  0
  -22.8114  -20.5456   22.1046 C   0  0  0  0  0  0
  -24.5341  -20.9340   23.9927 C   0  0  0  0  0  0
  -23.6422  -20.9703   20.8994 C   0  0  0  0  0  0
  -26.0389  -20.7551   23.7141 C   0  0  0  0  0  0
  -22.7729  -21.5526   19.7795 C   0  0  0  0  0  0
  -22.7826  -24.9291   18.8328 C   0  0  0  0  0  0
  -26.9337  -21.7981   24.4243 C   0  0  0  0  0  0
  -23.5330  -22.4714   18.8020 C   0  0  0  0  0  0
  -28.0905  -25.2530   19.7014 C   0  0  0  0  0  0
  -30.5113  -14.7927   21.9608 N   0  0  0  0  0  0
  -28.3766  -21.6179   24.1551 N   0  0  0  0  0  0
  -23.6653  -23.8436   19.3250 N   0  0  0  0  0  0
  -28.5694  -19.6708   25.3086 O   0  0  0  0  0  0
  -24.3985  -25.0314   21.1073 O   0  0  0  0  0  0
  -31.4466  -12.4208   19.0397 H   0  0  0  0  0  0
  -30.3333  -11.2537   19.6975 H   0  0  0  0  0  0
  -29.6891  -11.8406   17.3606 H   0  0  0  0  0  0
  -29.6249  -13.5349   17.7676 H   0  0  0  0  0  0
  -27.7911  -11.3214   18.7594 H   0  0  0  0  0  0
  -27.3348  -12.6858   17.7783 H   0  0  0  0  0  0
  -27.7252  -14.2507   19.6117 H   0  0  0  0  0  0
  -28.6412  -11.8653   21.2829 H   0  0  0  0  0  0
  -28.4266  -13.4826   21.8704 H   0  0  0  0  0  0
  -25.2743   -9.5723   22.4729 H   0  0  0  0  0  0
  -24.0030   -7.4640   22.7441 H   0  0  0  0  0  0
  -21.0842   -8.8727   19.8924 H   0  0  0  0  0  0
  -22.3631  -10.9667   19.6162 H   0  0  0  0  0  0
  -21.1993   -7.6158   23.9725 H   0  0  0  0  0  0
  -21.1479   -6.0528   25.9082 H   0  0  0  0  0  0
  -22.0601   -2.7619   23.2839 H   0  0  0  0  0  0
  -22.4132  -11.9853   22.4799 H   0  0  0  0  0  0
  -21.1117  -13.1192   22.2687 H   0  0  0  0  0  0
  -24.6740  -15.8476   20.5132 H   0  0  0  0  0  0
  -26.3058  -15.6171   20.1313 H   0  0  0  0  0  0
  -26.7268  -32.5496   23.1269 H   0  0  0  0  0  0
  -25.0340  -33.9845   25.0621 H   0  0  0  0  0  0
  -22.7151  -31.3451   21.4605 H   0  0  0  0  0  0
  -23.3789  -35.9617   23.3278 H   0  0  0  0  0  0
  -24.3693  -36.8834   22.2094 H   0  0  0  0  0  0
  -23.7295  -37.6488   23.6614 H   0  0  0  0  0  0
  -26.1056  -31.6388   20.6701 H   0  0  0  0  0  0
  -26.8281  -30.8433   22.0433 H   0  0  0  0  0  0
  -28.1102  -29.0718   21.1166 H   0  0  0  0  0  0
  -25.8970  -26.1096   18.8504 H   0  0  0  0  0  0
  -23.9020  -27.4669   19.0137 H   0  0  0  0  0  0
  -23.7463  -30.6652   19.4397 H   0  0  0  0  0  0
  -22.7228  -29.3440   19.8687 H   0  0  0  0  0  0
  -25.1284  -36.1919   25.0905 H   0  0  0  0  0  0
  -20.9940  -28.2779   24.1394 H   0  0  0  0  0  0
  -20.6397  -26.2133   23.2983 H   0  0  0  0  0  0
  -21.6525  -26.7837   22.0146 H   0  0  0  0  0  0
  -19.6545  -25.6209   21.1536 H   0  0  0  0  0  0
  -19.6095  -27.3154   20.6726 H   0  0  0  0  0  0
  -17.3806  -26.5958   21.4918 H   0  0  0  0  0  0
  -18.0976  -26.0044   22.9727 H   0  0  0  0  0  0
  -19.8031  -30.7275   24.2014 H   0  0  0  0  0  0
  -17.5275  -31.6330   24.4847 H   0  0  0  0  0  0
  -15.5388  -30.2924   23.7839 H   0  0  0  0  0  0
  -15.8571  -28.0677   22.7308 H   0  0  0  0  0  0
  -24.6018  -30.7127   25.7837 H   0  0  0  0  0  0
  -24.9045  -32.2858   26.5085 H   0  0  0  0  0  0
  -25.8230  -30.8825   27.0238 H   0  0  0  0  0  0
  -26.2909  -29.6954   24.1220 H   0  0  0  0  0  0
  -27.3982  -29.7342   25.4783 H   0  0  0  0  0  0
  -27.8824  -30.4362   23.9523 H   0  0  0  0  0  0
  -27.2857  -33.3628   26.2227 H   0  0  0  0  0  0
  -28.3969  -32.6919   25.0386 H   0  0  0  0  0  0
  -28.0888  -31.8398   26.5410 H   0  0  0  0  0  0
  -28.2555  -38.0114   24.7471 H   0  0  0  0  0  0
  -28.1103  -36.2611   24.6299 H   0  0  0  0  0  0
  -27.2303  -37.1444   25.8889 H   0  0  0  0  0  0
  -20.9517  -29.8747   21.6842 H   0  0  0  0  0  0
  -26.0177  -38.2835   24.1341 H   0  0  0  0  0  0
  -31.6700  -18.0018   25.0226 H   0  0  0  0  0  0
  -29.4087  -19.2380   21.5520 H   0  0  0  0  0  0
  -31.7284  -15.6901   24.1594 H   0  0  0  0  0  0
  -29.4647  -16.9363   20.6836 H   0  0  0  0  0  0
  -19.5413  -23.9949   17.7931 H   0  0  0  0  0  0
  -19.9561  -24.9706   19.1606 H   0  0  0  0  0  0
  -20.4756  -23.2794   19.1125 H   0  0  0  0  0  0
  -30.0226  -22.9574   24.1971 H   0  0  0  0  0  0
  -28.5158  -23.7138   23.7635 H   0  0  0  0  0  0
  -29.3371  -22.6682   22.5946 H   0  0  0  0  0  0
  -30.6622  -20.8933   23.0897 H   0  0  0  0  0  0
  -31.1986  -20.3619   24.6641 H   0  0  0  0  0  0
  -26.2589  -23.4084   19.0508 H   0  0  0  0  0  0
  -26.0604  -22.6385   20.5997 H   0  0  0  0  0  0
  -21.3800  -25.6141   17.3751 H   0  0  0  0  0  0
  -21.8982  -24.0282   17.0131 H   0  0  0  0  0  0
  -27.8606  -23.7564   21.2139 H   0  0  0  0  0  0
  -26.8175  -25.0987   21.4993 H   0  0  0  0  0  0
  -24.2990  -19.1465   22.7798 H   0  0  0  0  0  0
  -23.0074  -19.4030   23.9112 H   0  0  0  0  0  0
  -22.2817  -21.4184   22.4865 H   0  0  0  0  0  0
  -22.0387  -19.8443   21.7882 H   0  0  0  0  0  0
  -24.3552  -20.7925   25.0624 H   0  0  0  0  0  0
  -24.2313  -21.9593   23.7619 H   0  0  0  0  0  0
  -24.2401  -20.1366   20.5191 H   0  0  0  0  0  0
  -24.3283  -21.7184   21.2669 H   0  0  0  0  0  0
  -26.2212  -20.7915   22.6397 H   0  0  0  0  0  0
  -26.3072  -19.7458   24.0255 H   0  0  0  0  0  0
  -21.9217  -22.0776   20.2082 H   0  0  0  0  0  0
  -22.3417  -20.7306   19.2126 H   0  0  0  0  0  0
  -22.3989  -25.5269   19.6603 H   0  0  0  0  0  0
  -23.4477  -25.5807   18.2778 H   0  0  0  0  0  0
  -26.7805  -21.7538   25.5024 H   0  0  0  0  0  0
  -26.6040  -22.7925   24.1160 H   0  0  0  0  0  0
  -23.0002  -22.4636   17.8575 H   0  0  0  0  0  0
  -24.5038  -22.0310   18.5585 H   0  0  0  0  0  0
  -27.7437  -25.1613   18.6669 H   0  0  0  0  0  0
  -29.0758  -24.7938   19.6763 H   0  0  0  0  0  0
  -29.9205  -14.2034   22.5280 H   0  0  0  0  0  0
  1 25  1  0  0  0
  1 30  2  0  0  0
  1 95  1  0  0  0
  2  3  1  0  0  0
  2 25  1  0  0  0
  2100  1  0  0  0
  2101  1  0  0  0
  3  4  1  0  0  0
  3102  1  0  0  0
  3103  1  0  0  0
  4  5  1  0  0  0
  4104  1  0  0  0
  4105  1  0  0  0
  5  6  1  0  0  0
  5 26  1  0  0  0
  5106  1  0  0  0
  6 25  1  0  0  0
  6107  1  0  0  0
  6108  1  0  0  0
  7  8  2  0  0  0
  7 26  1  0  0  0
  7 29  1  0  0  0
  8  9  1  0  0  0
  8 22  1  0  0  0
  9 10  1  0  0  0
  9 27  2  0  0  0
 10 11  2  0  0  0
 10 15  1  0  0  0
 11 12  1  0  0  0
 11109  1  0  0  0
 12 13  2  0  0  0
 12110  1  0  0  0
 13 14  1  0  0  0
 13 31  1  0  0  0
 14 15  2  0  0  0
 14111  1  0  0  0
 15112  1  0  0  0
 16 17  2  0  0  0
 16 21  1  0  0  0
 16 31  1  0  0  0
 17 18  1  0  0  0
 17113  1  0  0  0
 18 19  2  0  0  0
 18114  1  0  0  0
 19 20  1  0  0  0
 19 24  1  0  0  0
 20 21  2  0  0  0
 20115  1  0  0  0
 21 23  1  0  0  0
 22 28  1  0  0  0
 22 32  2  0  0  0
 26 27  1  0  0  0
 28116  1  0  0  0
 28117  1  0  0  0
 29118  1  0  0  0
 29119  1  0  0  0
 33 34  1  0  0  0
 33 66  1  0  0  0
 33 70  2  0  0  0
 34 36  1  0  0  0
 34 59  1  0  0  0
 34120  1  0  0  0
 35 44  2  0  0  0
 35 45  1  0  0  0
 35 68  1  0  0  0
 36 56  1  0  0  0
 36121  1  0  0  0
 37 39  1  0  0  0
 37 47  1  0  0  0
 37 66  1  0  0  0
 37122  1  0  0  0
 38 43  2  0  0  0
 38 46  1  0  0  0
 38 47  1  0  0  0
 39 64  1  0  0  0
 39 67  2  0  0  0
 40 52  1  0  0  0
 40 53  2  0  0  0
 40 58  1  0  0  0
 41123  1  0  0  0
 41124  1  0  0  0
 41125  1  0  0  0
 41 48  1  0  0  0
 42 43  1  0  0  0
 42 66  1  0  0  0
 42126  1  0  0  0
 42127  1  0  0  0
 43 44  1  0  0  0
 44128  1  0  0  0
 45 46  2  0  0  0
 45129  1  0  0  0
 46130  1  0  0  0
 47131  1  0  0  0
 47132  1  0  0  0
 48 56  1  0  0  0
 48 65  1  0  0  0
 48133  1  0  0  0
 49 50  1  0  0  0
 49 53  1  0  0  0
 49 64  1  0  0  0
 49134  1  0  0  0
 50 51  1  0  0  0
 50135  1  0  0  0
 50136  1  0  0  0
 51 52  1  0  0  0
 51137  1  0  0  0
 51138  1  0  0  0
 52139  1  0  0  0
 52140  1  0  0  0
 53 54  1  0  0  0
 54 55  2  0  0  0
 54141  1  0  0  0
 55 57  1  0  0  0
 55142  1  0  0  0
 56 69  2  0  0  0
 57 58  2  0  0  0
 57143  1  0  0  0
 58144  1  0  0  0
 59 60  1  0  0  0
 59 61  1  0  0  0
 59 62  1  0  0  0
 60145  1  0  0  0
 60146  1  0  0  0
 60147  1  0  0  0
 61148  1  0  0  0
 61149  1  0  0  0
 61150  1  0  0  0
 62151  1  0  0  0
 62152  1  0  0  0
 62153  1  0  0  0
 63 65  1  0  0  0
 63154  1  0  0  0
 63155  1  0  0  0
 63156  1  0  0  0
 64157  1  0  0  0
 65158  1  0  0  0
 68 94  1  0  0  0
 71 73  2  0  0  0
 71 75  1  0  0  0
 71159  1  0  0  0
 72 74  1  0  0  0
 72 75  2  0  0  0
 72160  1  0  0  0
 73 76  1  0  0  0
 73161  1  0  0  0
 74 76  2  0  0  0
 74162  1  0  0  0
 75 81  1  0  0  0
 76 95  1  0  0  0
 77 81  1  0  0  0
 77 96  1  0  0  0
 77 98  2  0  0  0
 78 82  1  0  0  0
 78 97  1  0  0  0
 78 99  2  0  0  0
 79 83  1  0  0  0
 79163  1  0  0  0
 79164  1  0  0  0
 79165  1  0  0  0
 80 96  1  0  0  0
 80166  1  0  0  0
 80167  1  0  0  0
 80168  1  0  0  0
 81169  1  0  0  0
 81170  1  0  0  0
 82 84  1  0  0  0
 82171  1  0  0  0
 82172  1  0  0  0
 83 91  1  0  0  0
 83173  1  0  0  0
 83174  1  0  0  0
 84 94  1  0  0  0
 84175  1  0  0  0
 84176  1  0  0  0
 85 86  1  0  0  0
 85 87  1  0  0  0
 85177  1  0  0  0
 85178  1  0  0  0
 86 88  1  0  0  0
 86179  1  0  0  0
 86180  1  0  0  0
 87 89  1  0  0  0
 87181  1  0  0  0
 87182  1  0  0  0
 88 90  1  0  0  0
 88183  1  0  0  0
 88184  1  0  0  0
 89 92  1  0  0  0
 89185  1  0  0  0
 89186  1  0  0  0
 90 93  1  0  0  0
 90187  1  0  0  0
 90188  1  0  0  0
 91 97  1  0  0  0
 91189  1  0  0  0
 91190  1  0  0  0
 92 96  1  0  0  0
 92191  1  0  0  0
 92192  1  0  0  0
 93 97  1  0  0  0
 93193  1  0  0  0
 93194  1  0  0  0
 94195  1  0  0  0
 94196  1  0  0  0
 95197  1  0  0  0
M  ISO  4   1 100  68 101  94 101  95 100
M  END
> <chiral flag>
0

> <version>
0

> <s_m_source_file>
/data/baiqing/PycharmProjects/Reinvent-master-3.2/result/LINK_invent/BTK/process_docking_weight1_custom_sum_contain_oxygen_bond_distance_aromatic_linkinvent_7_9_3/rearranged_h_0005.sdf

> <i_m_source_file_index>
3

> <r_mmod_Potential_Energy-OPLS-2005>
153.272979736328

> <r_mmod_Stretch_Energy-OPLS-2005>
43.8643798828125

> <r_mmod_Bend_Energy-OPLS-2005>
124.939598083496

> <r_mmod_Torsional_Energy-OPLS-2005>
364.877807617188

> <r_mmod_Improper_Torsional_Energy-OPLS-2005>
7.08797645568848

> <r_mmod_Van_der_Waal_Energy-OPLS-2005>
173.720611572266

> <r_mmod_Electrostatic_Energy-OPLS-2005>
-334.135528564453

> <r_mmod_Solvation_Energy-OPLS-2005>
-246.907211303711

> <b_mmod_Minimization_Converged-OPLS-2005>
0

> <r_mmod_RMS_Derivative-OPLS-2005>
9.17290019989014

$$$$
3
                    3D
 Structure written by MMmdl.
194202  0  0  1  0            999 V2000
  -30.6262  -14.5992   20.5578 C   0  0  0  0  0  0
  -30.4527  -12.3847   19.4322 C   0  0  0  0  0  0
  -29.5091  -12.5186   18.2142 C   0  0  0  0  0  0
  -28.0305  -12.3571   18.6266 C   0  0  0  0  0  0
  -27.6614  -13.2072   19.8704 C   0  0  2  0  0  0
  -28.7076  -13.0098   20.9920 C   0  0  0  0  0  0
  -25.2584  -13.8156   20.5666 C   0  0  0  0  0  0
  -24.1839  -13.0438   20.9177 C   0  0  0  0  0  0
  -24.6399  -11.6905   20.8736 C   0  0  0  0  0  0
  -23.9063  -10.4295   21.0407 C   0  0  0  0  0  0
  -24.3616   -9.4208   21.9184 C   0  0  0  0  0  0
  -23.6289   -8.2241   22.0748 C   0  0  0  0  0  0
  -22.4268   -8.0280   21.3541 C   0  0  0  0  0  0
  -21.9911   -9.0255   20.4642 C   0  0  0  0  0  0
  -22.7237  -10.2133   20.3054 C   0  0  0  0  0  0
  -21.6846   -6.0738   22.5279 C   0  0  0  0  0  0
  -21.4013   -6.5643   23.8213 C   0  0  0  0  0  0
  -21.3663   -5.6794   24.9178 C   0  0  0  0  0  0
  -21.6039   -4.3056   24.7228 C   0  0  0  0  0  0
  -21.8817   -3.8152   23.4349 C   0  0  0  0  0  0
  -21.9194   -4.6970   22.3403 C   0  0  0  0  0  0
  -22.7862  -13.5237   21.1849 C   0  0  0  0  0  0
  -22.1657   -4.2158   21.0980 F   0  0  0  0  0  0
  -21.5633   -3.4537   25.7739 F   0  0  0  0  0  0
  -30.0294  -13.3713   20.4403 N   0  0  0  0  0  0
  -26.3023  -12.9321   20.3334 N   0  0  0  0  0  0
  -25.9330  -11.6484   20.5756 N   0  0  0  0  0  0
  -22.0504  -12.8232   22.0408 N   0  0  0  0  0  0
  -25.4335  -15.1871   20.4058 N   0  0  0  0  0  0
  -31.7641  -14.8264   20.1330 O   0  0  0  0  0  0
  -21.6630   -6.8878   21.4239 O   0  0  0  0  0  0
  -22.3549  -14.5548   20.6709 O   0  0  0  0  0  0
  -24.6183  -31.8602   23.2054 C   0  0  0  0  0  0
  -25.9031  -32.4805   23.8358 C   0  0  1  0  0  0
  -27.2340  -27.3441   20.1189 C   0  0  0  0  0  0
  -25.5863  -33.8603   24.2296 N   0  0  0  0  0  0
  -23.4150  -30.4837   21.5443 C   0  0  2  0  0  0
  -24.8666  -28.9402   20.1111 C   0  0  0  0  0  0
  -22.7462  -29.4576   22.4894 C   0  0  0  0  0  0
  -18.0298  -28.1383   22.8431 C   0  0  0  0  0  0
  -24.1486  -36.7299   23.2646 C   0  0  0  0  0  0
  -25.9528  -30.8016   21.3695 C   0  0  0  0  0  0
  -26.0312  -29.4304   20.7130 C   0  0  0  0  0  0
  -27.2183  -28.6449   20.7045 C   0  0  0  0  0  0
  -26.0438  -26.8984   19.4976 C   0  0  0  0  0  0
  -24.8725  -27.6781   19.4962 C   0  0  0  0  0  0
  -23.6325  -29.8191   20.1576 C   0  0  0  0  0  0
  -25.4108  -36.3104   24.0351 C   0  0  1  0  0  0
  -20.5886  -28.3631   23.1273 C   0  0  2  0  0  0
  -20.6779  -26.9348   22.5389 C   0  0  0  0  0  0
  -19.5781  -26.6350   21.5168 C   0  0  0  0  0  0
  -18.1958  -26.7940   22.1579 C   0  0  0  0  0  0
  -19.1552  -28.8820   23.2864 C   0  0  0  0  0  0
  -18.9496  -30.1446   23.8841 C   0  0  0  0  0  0
  -17.6501  -30.6572   24.0542 C   0  0  0  0  0  0
  -25.9013  -34.9465   23.5129 C   0  0  0  0  0  0
  -16.5377  -29.9070   23.6323 C   0  0  0  0  0  0
  -16.7296  -28.6513   23.0280 C   0  0  0  0  0  0
  -26.4407  -31.6626   25.0720 C   0  0  0  0  0  0
  -25.3633  -31.3783   26.1454 C   0  0  0  0  0  0
  -27.0268  -30.3075   24.6139 C   0  0  0  0  0  0
  -27.6018  -32.4299   25.7473 C   0  0  0  0  0  0
  -27.5587  -37.1803   24.8472 C   0  0  0  0  0  0
  -21.4177  -29.3006   22.3694 N   0  0  0  0  0  0
  -26.4297  -37.3788   23.9406 N   0  0  0  0  0  0
  -24.6818  -31.0631   22.0981 N   0  0  0  0  0  0
  -23.4211  -28.8068   23.2916 O   0  0  0  0  0  0
  -28.3694  -26.5258   20.1733 O   0  0  0  0  0  0
  -26.5589  -34.8942   22.4696 O   0  0  0  0  0  0
  -23.5337  -32.1354   23.7355 O   0  0  0  0  0  0
  -29.1558  -17.3161   22.5243 C   0  0  0  0  0  0
  -29.6062  -19.6938   22.1925 C   0  0  0  0  0  0
  -30.4526  -18.0364   20.6014 C   0  0  0  0  0  0
  -29.0272  -18.6498   22.9530 C   0  0  0  0  0  0
  -29.8719  -16.9686   21.3644 C   0  0  0  0  0  0
  -30.3255  -19.4231   21.0004 C   0  0  0  0  0  0
  -28.2242  -18.9259   24.1938 C   0  0  0  0  0  0
  -30.7381  -21.8550   20.1419 C   0  0  0  0  0  0
  -35.8348  -20.9046   32.8292 C   0  0  0  0  0  0
  -34.1608  -19.8036   18.0806 C   0  0  0  0  0  0
  -29.3502  -22.5724   20.3644 C   0  0  0  0  0  0
  -34.3880  -20.4636   32.5723 C   0  0  0  0  0  0
  -32.6725  -19.9322   18.4378 C   0  0  0  0  0  0
  -29.4072  -24.1727   20.5410 C   0  0  0  0  0  0
  -34.0340  -20.4539   31.0759 C   0  0  0  0  0  0
  -32.6005  -19.9640   30.8145 C   0  0  0  0  0  0
  -32.1442  -20.1798   29.3611 C   0  0  0  0  0  0
  -30.6958  -19.7179   29.1206 C   0  0  0  0  0  0
  -30.1567  -20.1304   27.7381 C   0  0  0  0  0  0
  -28.7014  -19.6816   27.5081 C   0  0  0  0  0  0
  -32.4508  -20.1265   19.9555 C   0  0  0  0  0  0
  -28.0463  -20.2983   26.2555 C   0  0  0  0  0  0
  -28.1970  -25.0652   20.0577 C   0  0  0  0  0  0
  -29.7917  -15.5572   21.0424 N   0  0  0  0  0  0
  -28.6917  -19.8782   25.0116 N   0  0  0  0  0  0
  -31.0579  -20.5032   20.3299 N   0  0  0  0  0  0
  -27.2215  -18.2549   24.4494 O   0  0  0  0  0  0
  -31.6165  -22.6243   19.7308 O   0  0  0  0  0  0
  -31.4881  -12.5389   19.1231 H   0  0  0  0  0  0
  -30.4071  -11.3757   19.8452 H   0  0  0  0  0  0
  -29.7679  -11.7787   17.4545 H   0  0  0  0  0  0
  -29.6523  -13.4959   17.7485 H   0  0  0  0  0  0
  -27.8618  -11.3011   18.8397 H   0  0  0  0  0  0
  -27.3776  -12.6088   17.7908 H   0  0  0  0  0  0
  -27.6929  -14.2513   19.5568 H   0  0  0  0  0  0
  -28.7138  -11.9711   21.3249 H   0  0  0  0  0  0
  -28.4454  -13.5910   21.8777 H   0  0  0  0  0  0
  -25.2763   -9.5682   22.4752 H   0  0  0  0  0  0
  -24.0007   -7.4628   22.7461 H   0  0  0  0  0  0
  -21.0846   -8.8771   19.8938 H   0  0  0  0  0  0
  -22.3702  -10.9674   19.6158 H   0  0  0  0  0  0
  -21.1994   -7.6152   23.9725 H   0  0  0  0  0  0
  -21.1484   -6.0521   25.9082 H   0  0  0  0  0  0
  -22.0595   -2.7614   23.2840 H   0  0  0  0  0  0
  -22.4099  -11.9885   22.4802 H   0  0  0  0  0  0
  -21.1107  -13.1249   22.2598 H   0  0  0  0  0  0
  -24.6691  -15.8464   20.5038 H   0  0  0  0  0  0
  -26.2883  -15.6223   20.0830 H   0  0  0  0  0  0
  -26.7074  -32.5501   23.1092 H   0  0  0  0  0  0
  -25.0061  -33.9767   25.0467 H   0  0  0  0  0  0
  -22.7086  -31.3028   21.3986 H   0  0  0  0  0  0
  -23.3785  -35.9590   23.3316 H   0  0  0  0  0  0
  -24.3583  -36.8890   22.2055 H   0  0  0  0  0  0
  -23.7215  -37.6501   23.6622 H   0  0  0  0  0  0
  -26.0760  -31.5667   20.6009 H   0  0  0  0  0  0
  -26.8351  -30.8523   21.9950 H   0  0  0  0  0  0
  -28.1161  -29.0181   21.1746 H   0  0  0  0  0  0
  -25.9961  -25.9324   19.0167 H   0  0  0  0  0  0
  -23.9817  -27.2958   19.0186 H   0  0  0  0  0  0
  -23.7564  -30.5991   19.4070 H   0  0  0  0  0  0
  -22.7562  -29.2499   19.8448 H   0  0  0  0  0  0
  -25.1286  -36.1974   25.0845 H   0  0  0  0  0  0
  -20.9967  -28.3142   24.1399 H   0  0  0  0  0  0
  -20.5588  -26.2189   23.3537 H   0  0  0  0  0  0
  -21.6664  -26.7329   22.1226 H   0  0  0  0  0  0
  -19.6934  -25.6235   21.1229 H   0  0  0  0  0  0
  -19.6807  -27.3122   20.6669 H   0  0  0  0  0  0
  -17.4214  -26.6594   21.4012 H   0  0  0  0  0  0
  -18.0424  -26.0128   22.9020 H   0  0  0  0  0  0
  -19.7974  -30.7280   24.2152 H   0  0  0  0  0  0
  -17.5064  -31.6254   24.5149 H   0  0  0  0  0  0
  -15.5378  -30.2952   23.7731 H   0  0  0  0  0  0
  -15.8687  -28.0875   22.6931 H   0  0  0  0  0  0
  -24.5848  -30.7084   25.7800 H   0  0  0  0  0  0
  -24.8767  -32.2949   26.4801 H   0  0  0  0  0  0
  -25.7943  -30.9045   27.0297 H   0  0  0  0  0  0
  -26.2862  -29.6860   24.1096 H   0  0  0  0  0  0
  -27.3988  -29.7277   25.4616 H   0  0  0  0  0  0
  -27.8680  -30.4471   23.9348 H   0  0  0  0  0  0
  -27.2721  -33.3647   26.2033 H   0  0  0  0  0  0
  -28.3823  -32.6774   25.0261 H   0  0  0  0  0  0
  -28.0649  -31.8401   26.5406 H   0  0  0  0  0  0
  -28.2586  -38.0111   24.7514 H   0  0  0  0  0  0
  -28.1108  -36.2658   24.6291 H   0  0  0  0  0  0
  -27.2309  -37.1415   25.8872 H   0  0  0  0  0  0
  -20.9300  -29.8820   21.7014 H   0  0  0  0  0  0
  -26.0229  -38.2865   24.1458 H   0  0  0  0  0  0
  -28.6906  -16.5370   23.1141 H   0  0  0  0  0  0
  -29.5282  -20.7030   22.5638 H   0  0  0  0  0  0
  -30.9937  -17.7835   19.6992 H   0  0  0  0  0  0
  -36.0364  -20.9770   33.8992 H   0  0  0  0  0  0
  -36.0363  -21.8818   32.3880 H   0  0  0  0  0  0
  -36.5461  -20.1925   32.4071 H   0  0  0  0  0  0
  -34.2900  -19.6681   17.0059 H   0  0  0  0  0  0
  -34.6233  -18.9517   18.5808 H   0  0  0  0  0  0
  -34.7144  -20.6982   18.3725 H   0  0  0  0  0  0
  -28.8030  -22.1393   21.1954 H   0  0  0  0  0  0
  -28.7560  -22.3483   19.4798 H   0  0  0  0  0  0
  -33.7109  -21.1380   33.1007 H   0  0  0  0  0  0
  -34.2303  -19.4722   33.0015 H   0  0  0  0  0  0
  -32.1412  -19.0442   18.0982 H   0  0  0  0  0  0
  -32.2530  -20.7660   17.8742 H   0  0  0  0  0  0
  -30.2825  -24.5860   20.0407 H   0  0  0  0  0  0
  -29.5691  -24.3809   21.6010 H   0  0  0  0  0  0
  -34.7392  -19.8232   30.5316 H   0  0  0  0  0  0
  -34.1547  -21.4633   30.6789 H   0  0  0  0  0  0
  -31.9161  -20.4902   31.4807 H   0  0  0  0  0  0
  -32.5265  -18.9059   31.0729 H   0  0  0  0  0  0
  -32.8138  -19.6545   28.6783 H   0  0  0  0  0  0
  -32.2278  -21.2394   29.1164 H   0  0  0  0  0  0
  -30.0515  -20.1419   29.8931 H   0  0  0  0  0  0
  -30.6347  -18.6354   29.2365 H   0  0  0  0  0  0
  -30.7958  -19.7227   26.9547 H   0  0  0  0  0  0
  -30.2135  -21.2162   27.6489 H   0  0  0  0  0  0
  -28.1035  -19.9676   28.3750 H   0  0  0  0  0  0
  -28.6506  -18.5921   27.4588 H   0  0  0  0  0  0
  -33.1497  -20.8722   20.3399 H   0  0  0  0  0  0
  -32.7671  -19.2225   20.4758 H   0  0  0  0  0  0
  -28.0866  -21.3864   26.3143 H   0  0  0  0  0  0
  -26.9838  -20.0456   26.2429 H   0  0  0  0  0  0
  -27.3102  -24.7575   20.6160 H   0  0  0  0  0  0
  -27.9997  -24.8335   19.0105 H   0  0  0  0  0  0
  -28.9367  -15.1293   21.3646 H   0  0  0  0  0  0
  -29.5443  -20.3491   24.7435 H   0  0  0  0  0  0
  1 25  1  0  0  0
  1 30  2  0  0  0
  1 94  1  0  0  0
  2  3  1  0  0  0
  2 25  1  0  0  0
  2 99  1  0  0  0
  2100  1  0  0  0
  3  4  1  0  0  0
  3101  1  0  0  0
  3102  1  0  0  0
  4  5  1  0  0  0
  4103  1  0  0  0
  4104  1  0  0  0
  5  6  1  0  0  0
  5 26  1  0  0  0
  5105  1  0  0  0
  6 25  1  0  0  0
  6106  1  0  0  0
  6107  1  0  0  0
  7  8  2  0  0  0
  7 26  1  0  0  0
  7 29  1  0  0  0
  8  9  1  0  0  0
  8 22  1  0  0  0
  9 10  1  0  0  0
  9 27  2  0  0  0
 10 11  2  0  0  0
 10 15  1  0  0  0
 11 12  1  0  0  0
 11108  1  0  0  0
 12 13  2  0  0  0
 12109  1  0  0  0
 13 14  1  0  0  0
 13 31  1  0  0  0
 14 15  2  0  0  0
 14110  1  0  0  0
 15111  1  0  0  0
 16 17  2  0  0  0
 16 21  1  0  0  0
 16 31  1  0  0  0
 17 18  1  0  0  0
 17112  1  0  0  0
 18 19  2  0  0  0
 18113  1  0  0  0
 19 20  1  0  0  0
 19 24  1  0  0  0
 20 21  2  0  0  0
 20114  1  0  0  0
 21 23  1  0  0  0
 22 28  1  0  0  0
 22 32  2  0  0  0
 26 27  1  0  0  0
 28115  1  0  0  0
 28116  1  0  0  0
 29117  1  0  0  0
 29118  1  0  0  0
 33 34  1  0  0  0
 33 66  1  0  0  0
 33 70  2  0  0  0
 34 36  1  0  0  0
 34 59  1  0  0  0
 34119  1  0  0  0
 35 44  2  0  0  0
 35 45  1  0  0  0
 35 68  1  0  0  0
 36 56  1  0  0  0
 36120  1  0  0  0
 37 39  1  0  0  0
 37 47  1  0  0  0
 37 66  1  0  0  0
 37121  1  0  0  0
 38 43  2  0  0  0
 38 46  1  0  0  0
 38 47  1  0  0  0
 39 64  1  0  0  0
 39 67  2  0  0  0
 40 52  1  0  0  0
 40 53  2  0  0  0
 40 58  1  0  0  0
 41122  1  0  0  0
 41123  1  0  0  0
 41124  1  0  0  0
 41 48  1  0  0  0
 42 43  1  0  0  0
 42 66  1  0  0  0
 42125  1  0  0  0
 42126  1  0  0  0
 43 44  1  0  0  0
 44127  1  0  0  0
 45 46  2  0  0  0
 45128  1  0  0  0
 46129  1  0  0  0
 47130  1  0  0  0
 47131  1  0  0  0
 48 56  1  0  0  0
 48 65  1  0  0  0
 48132  1  0  0  0
 49 50  1  0  0  0
 49 53  1  0  0  0
 49 64  1  0  0  0
 49133  1  0  0  0
 50 51  1  0  0  0
 50134  1  0  0  0
 50135  1  0  0  0
 51 52  1  0  0  0
 51136  1  0  0  0
 51137  1  0  0  0
 52138  1  0  0  0
 52139  1  0  0  0
 53 54  1  0  0  0
 54 55  2  0  0  0
 54140  1  0  0  0
 55 57  1  0  0  0
 55141  1  0  0  0
 56 69  2  0  0  0
 57 58  2  0  0  0
 57142  1  0  0  0
 58143  1  0  0  0
 59 60  1  0  0  0
 59 61  1  0  0  0
 59 62  1  0  0  0
 60144  1  0  0  0
 60145  1  0  0  0
 60146  1  0  0  0
 61147  1  0  0  0
 61148  1  0  0  0
 61149  1  0  0  0
 62150  1  0  0  0
 62151  1  0  0  0
 62152  1  0  0  0
 63 65  1  0  0  0
 63153  1  0  0  0
 63154  1  0  0  0
 63155  1  0  0  0
 64156  1  0  0  0
 65157  1  0  0  0
 68 93  1  0  0  0
 71 74  2  0  0  0
 71 75  1  0  0  0
 71158  1  0  0  0
 72 74  1  0  0  0
 72 76  2  0  0  0
 72159  1  0  0  0
 73 75  2  0  0  0
 73 76  1  0  0  0
 73160  1  0  0  0
 74 77  1  0  0  0
 75 94  1  0  0  0
 76 96  1  0  0  0
 77 95  1  0  0  0
 77 97  2  0  0  0
 78 81  1  0  0  0
 78 96  1  0  0  0
 78 98  2  0  0  0
 79 82  1  0  0  0
 79161  1  0  0  0
 79162  1  0  0  0
 79163  1  0  0  0
 80 83  1  0  0  0
 80164  1  0  0  0
 80165  1  0  0  0
 80166  1  0  0  0
 81 84  1  0  0  0
 81167  1  0  0  0
 81168  1  0  0  0
 82 85  1  0  0  0
 82169  1  0  0  0
 82170  1  0  0  0
 83 91  1  0  0  0
 83171  1  0  0  0
 83172  1  0  0  0
 84 93  1  0  0  0
 84173  1  0  0  0
 84174  1  0  0  0
 85 86  1  0  0  0
 85175  1  0  0  0
 85176  1  0  0  0
 86 87  1  0  0  0
 86177  1  0  0  0
 86178  1  0  0  0
 87 88  1  0  0  0
 87179  1  0  0  0
 87180  1  0  0  0
 88 89  1  0  0  0
 88181  1  0  0  0
 88182  1  0  0  0
 89 90  1  0  0  0
 89183  1  0  0  0
 89184  1  0  0  0
 90 92  1  0  0  0
 90185  1  0  0  0
 90186  1  0  0  0
 91 96  1  0  0  0
 91187  1  0  0  0
 91188  1  0  0  0
 92 95  1  0  0  0
 92189  1  0  0  0
 92190  1  0  0  0
 93191  1  0  0  0
 93192  1  0  0  0
 94193  1  0  0  0
 95194  1  0  0  0
M  ISO  4   1 100  68 101  93 101  94 100
M  END
> <chiral flag>
0

> <version>
0

> <s_m_source_file>
/data/baiqing/PycharmProjects/Reinvent-master-3.2/result/LINK_invent/BTK/process_docking_weight1_custom_sum_contain_oxygen_bond_distance_aromatic_linkinvent_7_9_3/rearranged_h_0005.sdf

> <i_m_source_file_index>
4

> <r_mmod_Potential_Energy-OPLS-2005>
100.843017578125

> <r_mmod_Stretch_Energy-OPLS-2005>
89.3316421508789

> <r_mmod_Bend_Energy-OPLS-2005>
181.585021972656

> <r_mmod_Torsional_Energy-OPLS-2005>
278.716033935547

> <r_mmod_Improper_Torsional_Energy-OPLS-2005>
5.46786880493164

> <r_mmod_Van_der_Waal_Energy-OPLS-2005>
161.025451660156

> <r_mmod_Electrostatic_Energy-OPLS-2005>
-421.329254150391

> <r_mmod_Solvation_Energy-OPLS-2005>
-231.414642333984

> <b_mmod_Minimization_Converged-OPLS-2005>
0

> <r_mmod_RMS_Derivative-OPLS-2005>
3.76339960098267

$$$$
4
                    3D
 Structure written by MMmdl.
161168  0  0  1  0            999 V2000
  -30.7016  -14.4782   20.5502 C   0  0  0  0  0  0
  -30.4192  -12.3045   19.4306 C   0  0  0  0  0  0
  -29.5011  -12.5045   18.2073 C   0  0  0  0  0  0
  -28.0194  -12.3679   18.6136 C   0  0  0  0  0  0
  -27.6613  -13.2110   19.8678 C   0  0  2  0  0  0
  -28.7009  -13.0073   20.9948 C   0  0  0  0  0  0
  -25.2579  -13.8187   20.5637 C   0  0  0  0  0  0
  -24.1847  -13.0467   20.9182 C   0  0  0  0  0  0
  -24.6417  -11.6940   20.8743 C   0  0  0  0  0  0
  -23.9093  -10.4317   21.0428 C   0  0  0  0  0  0
  -24.3644   -9.4241   21.9197 C   0  0  0  0  0  0
  -23.6331   -8.2261   22.0768 C   0  0  0  0  0  0
  -22.4289   -8.0315   21.3573 C   0  0  0  0  0  0
  -21.9936   -9.0295   20.4665 C   0  0  0  0  0  0
  -22.7279  -10.2170   20.3074 C   0  0  0  0  0  0
  -21.6850   -6.0775   22.5300 C   0  0  0  0  0  0
  -21.4009   -6.5667   23.8242 C   0  0  0  0  0  0
  -21.3649   -5.6802   24.9198 C   0  0  0  0  0  0
  -21.6034   -4.3062   24.7231 C   0  0  0  0  0  0
  -21.8809   -3.8179   23.4346 C   0  0  0  0  0  0
  -21.9185   -4.7002   22.3407 C   0  0  0  0  0  0
  -22.7856  -13.5266   21.1828 C   0  0  0  0  0  0
  -22.1645   -4.2193   21.0978 F   0  0  0  0  0  0
  -21.5642   -3.4540   25.7744 F   0  0  0  0  0  0
  -30.0321  -13.3004   20.4408 N   0  0  0  0  0  0
  -26.3022  -12.9361   20.3310 N   0  0  0  0  0  0
  -25.9334  -11.6521   20.5739 N   0  0  0  0  0  0
  -22.0453  -12.8296   22.0379 N   0  0  0  0  0  0
  -25.4310  -15.1908   20.4001 N   0  0  0  0  0  0
  -31.8420  -14.6394   20.1075 O   0  0  0  0  0  0
  -21.6642   -6.8923   21.4263 O   0  0  0  0  0  0
  -22.3540  -14.5568   20.6666 O   0  0  0  0  0  0
  -24.6123  -31.8686   23.2119 C   0  0  0  0  0  0
  -25.9035  -32.4818   23.8387 C   0  0  1  0  0  0
  -27.2411  -27.4457   20.1071 C   0  0  0  0  0  0
  -25.5903  -33.8614   24.2329 N   0  0  0  0  0  0
  -23.4016  -30.4913   21.5508 C   0  0  2  0  0  0
  -24.8509  -28.9600   20.1148 C   0  0  0  0  0  0
  -22.7395  -29.4649   22.4979 C   0  0  0  0  0  0
  -18.0276  -28.1366   22.8471 C   0  0  0  0  0  0
  -24.1496  -36.7315   23.2636 C   0  0  0  0  0  0
  -25.9290  -30.8399   21.3623 C   0  0  0  0  0  0
  -26.0090  -29.4755   20.7098 C   0  0  0  0  0  0
  -27.2081  -28.7264   20.7009 C   0  0  0  0  0  0
  -26.0696  -26.9485   19.4938 C   0  0  0  0  0  0
  -24.8760  -27.6952   19.5029 C   0  0  0  0  0  0
  -23.6109  -29.8237   20.1647 C   0  0  0  0  0  0
  -25.4108  -36.3103   24.0336 C   0  0  1  0  0  0
  -20.5861  -28.3649   23.1317 C   0  0  2  0  0  0
  -20.6765  -26.9381   22.5423 C   0  0  0  0  0  0
  -19.5758  -26.6369   21.5207 C   0  0  0  0  0  0
  -18.1926  -26.7920   22.1597 C   0  0  0  0  0  0
  -19.1523  -28.8826   23.2895 C   0  0  0  0  0  0
  -18.9450  -30.1436   23.8892 C   0  0  0  0  0  0
  -17.6449  -30.6575   24.0562 C   0  0  0  0  0  0
  -25.9026  -34.9469   23.5123 C   0  0  0  0  0  0
  -16.5345  -29.9060   23.6328 C   0  0  0  0  0  0
  -16.7268  -28.6497   23.0332 C   0  0  0  0  0  0
  -26.4482  -31.6593   25.0702 C   0  0  0  0  0  0
  -25.3773  -31.3708   26.1479 C   0  0  0  0  0  0
  -27.0301  -30.3032   24.6061 C   0  0  0  0  0  0
  -27.6063  -32.4303   25.7455 C   0  0  0  0  0  0
  -27.5592  -37.1793   24.8445 C   0  0  0  0  0  0
  -21.4130  -29.3025   22.3728 N   0  0  0  0  0  0
  -26.4285  -37.3791   23.9420 N   0  0  0  0  0  0
  -24.6663  -31.0788   22.1005 N   0  0  0  0  0  0
  -23.4177  -28.8185   23.3012 O   0  0  0  0  0  0
  -28.4007  -26.7017   20.1200 O   0  0  0  0  0  0
  -26.5567  -34.8920   22.4673 O   0  0  0  0  0  0
  -23.5320  -32.1417   23.7512 O   0  0  0  0  0  0
  -31.1556  -25.0128   22.1698 C   0  0  0  0  0  0
  -29.7477  -19.4117   20.4715 C   0  0  0  0  0  0
  -29.3983  -24.2356   18.8677 C   0  0  0  0  0  0
  -29.3391  -18.0262   21.0286 C   0  0  0  0  0  0
  -29.0110  -22.9971   21.0254 C   0  0  0  0  0  0
  -30.4310  -16.9376   20.8017 C   0  0  0  0  0  0
  -30.0616  -21.8599   20.8783 C   0  0  0  0  0  0
  -28.2933  -25.4351   20.7972 C   0  0  0  0  0  0
  -29.3923  -24.3967   20.4119 C   0  0  2  0  0  0
  -29.5527  -20.5155   21.2226 N   0  0  0  0  0  0
  -29.9864  -15.5365   20.9838 N   0  0  0  0  0  0
  -30.7196  -24.8538   20.9025 N   0  0  0  0  0  0
  -30.6180  -24.5237   23.1637 O   0  0  0  0  0  0
  -30.2530  -19.4787   19.3492 O   0  0  0  0  0  0
  -31.3601  -25.7564   20.0114 O   0  0  0  0  0  0
  -31.4677  -12.3870   19.1402 H   0  0  0  0  0  0
  -30.3073  -11.2980   19.8381 H   0  0  0  0  0  0
  -29.7513  -11.7807   17.4307 H   0  0  0  0  0  0
  -29.6760  -13.4880   17.7670 H   0  0  0  0  0  0
  -27.8244  -11.3139   18.8084 H   0  0  0  0  0  0
  -27.3749  -12.6454   17.7786 H   0  0  0  0  0  0
  -27.7024  -14.2563   19.5604 H   0  0  0  0  0  0
  -28.6724  -11.9787   21.3587 H   0  0  0  0  0  0
  -28.4728  -13.6292   21.8598 H   0  0  0  0  0  0
  -25.2807   -9.5706   22.4762 H   0  0  0  0  0  0
  -24.0057   -7.4634   22.7462 H   0  0  0  0  0  0
  -21.0889   -8.8846   19.8943 H   0  0  0  0  0  0
  -22.3792  -10.9722   19.6171 H   0  0  0  0  0  0
  -21.1999   -7.6171   23.9771 H   0  0  0  0  0  0
  -21.1468   -6.0519   25.9101 H   0  0  0  0  0  0
  -22.0592   -2.7648   23.2827 H   0  0  0  0  0  0
  -22.4029  -11.9995   22.4866 H   0  0  0  0  0  0
  -21.1066  -13.1372   22.2500 H   0  0  0  0  0  0
  -24.6686  -15.8520   20.5062 H   0  0  0  0  0  0
  -26.2868  -15.6262   20.0780 H   0  0  0  0  0  0
  -26.7096  -32.5537   23.1140 H   0  0  0  0  0  0
  -25.0117  -33.9790   25.0515 H   0  0  0  0  0  0
  -22.6885  -31.3066   21.4120 H   0  0  0  0  0  0
  -23.3760  -35.9644   23.3269 H   0  0  0  0  0  0
  -24.3614  -36.8952   22.2055 H   0  0  0  0  0  0
  -23.7242  -37.6508   23.6666 H   0  0  0  0  0  0
  -26.0358  -31.6092   20.5967 H   0  0  0  0  0  0
  -26.8174  -30.8935   21.9792 H   0  0  0  0  0  0
  -28.1017  -29.1200   21.1639 H   0  0  0  0  0  0
  -26.0770  -25.9836   19.0062 H   0  0  0  0  0  0
  -23.9865  -27.2925   19.0380 H   0  0  0  0  0  0
  -23.7184  -30.5989   19.4052 H   0  0  0  0  0  0
  -22.7360  -29.2415   19.8687 H   0  0  0  0  0  0
  -25.1281  -36.1959   25.0828 H   0  0  0  0  0  0
  -20.9959  -28.3225   24.1439 H   0  0  0  0  0  0
  -20.5672  -26.2245   23.3606 H   0  0  0  0  0  0
  -21.6643  -26.7431   22.1230 H   0  0  0  0  0  0
  -19.6926  -25.6287   21.1227 H   0  0  0  0  0  0
  -19.6723  -27.3184   20.6743 H   0  0  0  0  0  0
  -17.4214  -26.6686   21.3976 H   0  0  0  0  0  0
  -18.0310  -26.0054   22.8984 H   0  0  0  0  0  0
  -19.7925  -30.7260   24.2246 H   0  0  0  0  0  0
  -17.5008  -31.6254   24.5156 H   0  0  0  0  0  0
  -15.5341  -30.2962   23.7671 H   0  0  0  0  0  0
  -15.8669  -28.0833   22.7011 H   0  0  0  0  0  0
  -24.5926  -30.7067   25.7847 H   0  0  0  0  0  0
  -24.8992  -32.2871   26.4941 H   0  0  0  0  0  0
  -25.8156  -30.8878   27.0219 H   0  0  0  0  0  0
  -26.2824  -29.6780   24.1167 H   0  0  0  0  0  0
  -27.4136  -29.7280   25.4495 H   0  0  0  0  0  0
  -27.8632  -30.4349   23.9155 H   0  0  0  0  0  0
  -27.2690  -33.3589   26.2068 H   0  0  0  0  0  0
  -28.3851  -32.6881   25.0269 H   0  0  0  0  0  0
  -28.0759  -31.8404   26.5335 H   0  0  0  0  0  0
  -28.2567  -38.0128   24.7544 H   0  0  0  0  0  0
  -28.1123  -36.2663   24.6189 H   0  0  0  0  0  0
  -27.2329  -37.1351   25.8847 H   0  0  0  0  0  0
  -20.9271  -29.8737   21.6956 H   0  0  0  0  0  0
  -26.0171  -38.2858   24.1453 H   0  0  0  0  0  0
  -32.0475  -25.6599   22.2149 H   0  0  0  0  0  0
  -28.4632  -23.8003   18.5132 H   0  0  0  0  0  0
  -30.2143  -23.6064   18.5175 H   0  0  0  0  0  0
  -29.5066  -25.1934   18.3594 H   0  0  0  0  0  0
  -28.4244  -17.7384   20.5067 H   0  0  0  0  0  0
  -29.0845  -18.1012   22.0875 H   0  0  0  0  0  0
  -28.7685  -23.1161   22.0813 H   0  0  0  0  0  0
  -28.0796  -22.6669   20.5675 H   0  0  0  0  0  0
  -31.2869  -17.1358   21.4525 H   0  0  0  0  0  0
  -30.8039  -17.0316   19.7784 H   0  0  0  0  0  0
  -30.9178  -22.0635   21.5221 H   0  0  0  0  0  0
  -30.4546  -21.8649   19.8625 H   0  0  0  0  0  0
  -28.3136  -25.6280   21.8709 H   0  0  0  0  0  0
  -27.3225  -24.9775   20.6103 H   0  0  0  0  0  0
  -29.1205  -20.3953   22.1306 H   0  0  0  0  0  0
  -29.0519  -15.3630   21.3300 H   0  0  0  0  0  0
  -31.7730  -26.3882   20.5895 H   0  0  0  0  0  0
  1 25  1  0  0  0
  1 30  2  0  0  0
  1 81  1  0  0  0
  2  3  1  0  0  0
  2 25  1  0  0  0
  2 86  1  0  0  0
  2 87  1  0  0  0
  3  4  1  0  0  0
  3 88  1  0  0  0
  3 89  1  0  0  0
  4  5  1  0  0  0
  4 90  1  0  0  0
  4 91  1  0  0  0
  5  6  1  0  0  0
  5 26  1  0  0  0
  5 92  1  0  0  0
  6 25  1  0  0  0
  6 93  1  0  0  0
  6 94  1  0  0  0
  7  8  2  0  0  0
  7 26  1  0  0  0
  7 29  1  0  0  0
  8  9  1  0  0  0
  8 22  1  0  0  0
  9 10  1  0  0  0
  9 27  2  0  0  0
 10 11  2  0  0  0
 10 15  1  0  0  0
 11 12  1  0  0  0
 11 95  1  0  0  0
 12 13  2  0  0  0
 12 96  1  0  0  0
 13 14  1  0  0  0
 13 31  1  0  0  0
 14 15  2  0  0  0
 14 97  1  0  0  0
 15 98  1  0  0  0
 16 17  2  0  0  0
 16 21  1  0  0  0
 16 31  1  0  0  0
 17 18  1  0  0  0
 17 99  1  0  0  0
 18 19  2  0  0  0
 18100  1  0  0  0
 19 20  1  0  0  0
 19 24  1  0  0  0
 20 21  2  0  0  0
 20101  1  0  0  0
 21 23  1  0  0  0
 22 28  1  0  0  0
 22 32  2  0  0  0
 26 27  1  0  0  0
 28102  1  0  0  0
 28103  1  0  0  0
 29104  1  0  0  0
 29105  1  0  0  0
 33 34  1  0  0  0
 33 66  1  0  0  0
 33 70  2  0  0  0
 34 36  1  0  0  0
 34 59  1  0  0  0
 34106  1  0  0  0
 35 44  2  0  0  0
 35 45  1  0  0  0
 35 68  1  0  0  0
 36 56  1  0  0  0
 36107  1  0  0  0
 37 39  1  0  0  0
 37 47  1  0  0  0
 37 66  1  0  0  0
 37108  1  0  0  0
 38 43  2  0  0  0
 38 46  1  0  0  0
 38 47  1  0  0  0
 39 64  1  0  0  0
 39 67  2  0  0  0
 40 52  1  0  0  0
 40 53  2  0  0  0
 40 58  1  0  0  0
 41109  1  0  0  0
 41110  1  0  0  0
 41111  1  0  0  0
 41 48  1  0  0  0
 42 43  1  0  0  0
 42 66  1  0  0  0
 42112  1  0  0  0
 42113  1  0  0  0
 43 44  1  0  0  0
 44114  1  0  0  0
 45 46  2  0  0  0
 45115  1  0  0  0
 46116  1  0  0  0
 47117  1  0  0  0
 47118  1  0  0  0
 48 56  1  0  0  0
 48 65  1  0  0  0
 48119  1  0  0  0
 49 50  1  0  0  0
 49 53  1  0  0  0
 49 64  1  0  0  0
 49120  1  0  0  0
 50 51  1  0  0  0
 50121  1  0  0  0
 50122  1  0  0  0
 51 52  1  0  0  0
 51123  1  0  0  0
 51124  1  0  0  0
 52125  1  0  0  0
 52126  1  0  0  0
 53 54  1  0  0  0
 54 55  2  0  0  0
 54127  1  0  0  0
 55 57  1  0  0  0
 55128  1  0  0  0
 56 69  2  0  0  0
 57 58  2  0  0  0
 57129  1  0  0  0
 58130  1  0  0  0
 59 60  1  0  0  0
 59 61  1  0  0  0
 59 62  1  0  0  0
 60131  1  0  0  0
 60132  1  0  0  0
 60133  1  0  0  0
 61134  1  0  0  0
 61135  1  0  0  0
 61136  1  0  0  0
 62137  1  0  0  0
 62138  1  0  0  0
 62139  1  0  0  0
 63 65  1  0  0  0
 63140  1  0  0  0
 63141  1  0  0  0
 63142  1  0  0  0
 64143  1  0  0  0
 65144  1  0  0  0
 68 78  1  0  0  0
 71 82  1  0  0  0
 71 83  2  0  0  0
 71145  1  0  0  0
 72 74  1  0  0  0
 72 80  1  0  0  0
 72 84  2  0  0  0
 73146  1  0  0  0
 73147  1  0  0  0
 73148  1  0  0  0
 73 79  1  0  0  0
 74 76  1  0  0  0
 74149  1  0  0  0
 74150  1  0  0  0
 75 77  1  0  0  0
 75 79  1  0  0  0
 75151  1  0  0  0
 75152  1  0  0  0
 76 81  1  0  0  0
 76153  1  0  0  0
 76154  1  0  0  0
 77 80  1  0  0  0
 77155  1  0  0  0
 77156  1  0  0  0
 78 79  1  0  0  0
 78157  1  0  0  0
 78158  1  0  0  0
 79 82  1  0  0  0
 80159  1  0  0  0
 81160  1  0  0  0
 82 85  1  0  0  0
 85161  1  0  0  0
M  ISO  4   1 100  68 101  78 101  81 100
M  END
> <chiral flag>
0

> <version>
0

> <s_m_source_file>
/data/baiqing/PycharmProjects/Reinvent-master-3.2/result/LINK_invent/BTK/process_docking_weight1_custom_sum_contain_oxygen_bond_distance_aromatic_linkinvent_7_9_3/rearranged_h_0005.sdf

> <i_m_source_file_index>
5

> <r_mmod_Potential_Energy-OPLS-2005>
-49.667049407959

> <r_mmod_Stretch_Energy-OPLS-2005>
43.714958190918

> <r_mmod_Bend_Energy-OPLS-2005>
102.576927185059

> <r_mmod_Torsional_Energy-OPLS-2005>
269.895385742188

> <r_mmod_Improper_Torsional_Energy-OPLS-2005>
6.88710355758667

> <r_mmod_Van_der_Waal_Energy-OPLS-2005>
145.139358520508

> <r_mmod_Electrostatic_Energy-OPLS-2005>
-369.699188232422

> <r_mmod_Solvation_Energy-OPLS-2005>
-261.676971435547

> <b_mmod_Minimization_Converged-OPLS-2005>
0

> <r_mmod_RMS_Derivative-OPLS-2005>
3.43361926078796

$$$$
5
                    3D
 Structure written by MMmdl.
163171  0  0  1  0            999 V2000
  -30.7120  -14.4261   20.6121 C   0  0  0  0  0  0
  -30.4225  -12.2938   19.4079 C   0  0  0  0  0  0
  -29.4900  -12.5174   18.2002 C   0  0  0  0  0  0
  -28.0116  -12.3772   18.6131 C   0  0  0  0  0  0
  -27.6652  -13.2008   19.8817 C   0  0  2  0  0  0
  -28.7048  -12.9479   20.9964 C   0  0  0  0  0  0
  -25.2599  -13.8153   20.5677 C   0  0  0  0  0  0
  -24.1841  -13.0437   20.9163 C   0  0  0  0  0  0
  -24.6387  -11.6899   20.8727 C   0  0  0  0  0  0
  -23.9050  -10.4289   21.0400 C   0  0  0  0  0  0
  -24.3605   -9.4208   21.9181 C   0  0  0  0  0  0
  -23.6286   -8.2243   22.0753 C   0  0  0  0  0  0
  -22.4269   -8.0276   21.3542 C   0  0  0  0  0  0
  -21.9900   -9.0250   20.4645 C   0  0  0  0  0  0
  -22.7223  -10.2130   20.3052 C   0  0  0  0  0  0
  -21.6851   -6.0731   22.5279 C   0  0  0  0  0  0
  -21.4011   -6.5637   23.8211 C   0  0  0  0  0  0
  -21.3656   -5.6791   24.9174 C   0  0  0  0  0  0
  -21.6046   -4.3053   24.7228 C   0  0  0  0  0  0
  -21.8822   -3.8144   23.4349 C   0  0  0  0  0  0
  -21.9192   -4.6958   22.3402 C   0  0  0  0  0  0
  -22.7863  -13.5237   21.1832 C   0  0  0  0  0  0
  -22.1662   -4.2144   21.0981 F   0  0  0  0  0  0
  -21.5630   -3.4539   25.7741 F   0  0  0  0  0  0
  -30.0415  -13.2542   20.4539 N   0  0  0  0  0  0
  -26.3035  -12.9312   20.3390 N   0  0  0  0  0  0
  -25.9312  -11.6474   20.5763 N   0  0  0  0  0  0
  -22.0507  -12.8235   22.0393 N   0  0  0  0  0  0
  -25.4340  -15.1870   20.4093 N   0  0  0  0  0  0
  -31.8059  -14.6536   20.0844 O   0  0  0  0  0  0
  -21.6635   -6.8873   21.4239 O   0  0  0  0  0  0
  -22.3549  -14.5545   20.6684 O   0  0  0  0  0  0
  -24.6106  -31.8700   23.2121 C   0  0  0  0  0  0
  -25.9016  -32.4836   23.8406 C   0  0  1  0  0  0
  -27.2534  -27.4652   20.1027 C   0  0  0  0  0  0
  -25.5880  -33.8633   24.2335 N   0  0  0  0  0  0
  -23.3986  -30.4918   21.5499 C   0  0  2  0  0  0
  -24.8517  -28.9594   20.1174 C   0  0  0  0  0  0
  -22.7390  -29.4669   22.4994 C   0  0  0  0  0  0
  -18.0266  -28.1386   22.8496 C   0  0  0  0  0  0
  -24.1479  -36.7319   23.2639 C   0  0  0  0  0  0
  -25.9218  -30.8464   21.3610 C   0  0  0  0  0  0
  -26.0045  -29.4786   20.7195 C   0  0  0  0  0  0
  -27.2054  -28.7380   20.7214 C   0  0  0  0  0  0
  -26.0883  -26.9620   19.4895 C   0  0  0  0  0  0
  -24.8859  -27.6957   19.5012 C   0  0  0  0  0  0
  -23.6090  -29.8201   20.1650 C   0  0  0  0  0  0
  -25.4100  -36.3122   24.0341 C   0  0  1  0  0  0
  -20.5851  -28.3668   23.1324 C   0  0  2  0  0  0
  -20.6756  -26.9405   22.5428 C   0  0  0  0  0  0
  -19.5743  -26.6394   21.5213 C   0  0  0  0  0  0
  -18.1916  -26.7935   22.1614 C   0  0  0  0  0  0
  -19.1515  -28.8840   23.2911 C   0  0  0  0  0  0
  -18.9447  -30.1442   23.8931 C   0  0  0  0  0  0
  -17.6455  -30.6595   24.0574 C   0  0  0  0  0  0
  -25.9023  -34.9487   23.5137 C   0  0  0  0  0  0
  -16.5344  -29.9104   23.6323 C   0  0  0  0  0  0
  -16.7258  -28.6515   23.0349 C   0  0  0  0  0  0
  -26.4465  -31.6602   25.0718 C   0  0  0  0  0  0
  -25.3745  -31.3705   26.1478 C   0  0  0  0  0  0
  -27.0273  -30.3042   24.6061 C   0  0  0  0  0  0
  -27.6057  -32.4301   25.7474 C   0  0  0  0  0  0
  -27.5577  -37.1813   24.8467 C   0  0  0  0  0  0
  -21.4122  -29.3034   22.3728 N   0  0  0  0  0  0
  -26.4292  -37.3800   23.9408 N   0  0  0  0  0  0
  -24.6615  -31.0831   22.1004 N   0  0  0  0  0  0
  -23.4171  -28.8220   23.3036 O   0  0  0  0  0  0
  -28.3830  -26.6789   20.0415 O   0  0  0  0  0  0
  -26.5592  -34.8938   22.4703 O   0  0  0  0  0  0
  -23.5308  -32.1435   23.7529 O   0  0  0  0  0  0
  -30.4289  -18.9831   20.4075 C   0  0  0  0  0  0
  -31.3076  -18.6314   22.6472 C   0  0  0  0  0  0
  -31.0491  -19.4968   21.5638 C   0  0  0  0  0  0
  -30.0915  -17.6143   20.3154 C   0  0  0  0  0  0
  -30.9748  -17.2610   22.5724 C   0  0  0  0  0  0
  -30.3912  -16.7393   21.3927 C   0  0  0  0  0  0
  -29.4157  -17.1090   19.0512 C   0  0  0  0  0  0
  -31.2680  -16.3566   23.7577 C   0  0  0  0  0  0
  -31.5098  -20.9484   21.6100 C   0  0  0  0  0  0
  -30.3904  -25.6936   20.9868 C   0  0  0  0  0  0
  -29.8477  -24.2689   21.2311 C   0  0  0  0  0  0
  -29.3395  -26.8143   21.0876 C   0  0  0  0  0  0
  -30.9746  -23.2201   21.2649 C   0  0  0  0  0  0
  -30.0606  -15.3589   21.3264 N   0  0  0  0  0  0
  -30.4620  -21.8948   21.3975 O   0  0  0  0  0  0
  -31.4656  -12.3981   19.1045 H   0  0  0  0  0  0
  -30.3247  -11.2746   19.7847 H   0  0  0  0  0  0
  -29.7242  -11.8069   17.4064 H   0  0  0  0  0  0
  -29.6606  -13.5107   17.7816 H   0  0  0  0  0  0
  -27.8158  -11.3197   18.7934 H   0  0  0  0  0  0
  -27.3614  -12.6692   17.7874 H   0  0  0  0  0  0
  -27.7198  -14.2531   19.6049 H   0  0  0  0  0  0
  -28.6741  -11.9031   21.3092 H   0  0  0  0  0  0
  -28.4608  -13.5193   21.8926 H   0  0  0  0  0  0
  -25.2754   -9.5686   22.4750 H   0  0  0  0  0  0
  -23.9997   -7.4635   22.7473 H   0  0  0  0  0  0
  -21.0831   -8.8765   19.8949 H   0  0  0  0  0  0
  -22.3682  -10.9668   19.6157 H   0  0  0  0  0  0
  -21.2001   -7.6144   23.9711 H   0  0  0  0  0  0
  -21.1476   -6.0522   25.9078 H   0  0  0  0  0  0
  -22.0603   -2.7605   23.2851 H   0  0  0  0  0  0
  -22.4117  -11.9892   22.4777 H   0  0  0  0  0  0
  -21.1125  -13.1261   22.2603 H   0  0  0  0  0  0
  -24.6717  -15.8468   20.5206 H   0  0  0  0  0  0
  -26.2959  -15.6253   20.1106 H   0  0  0  0  0  0
  -26.7098  -32.5577   23.1190 H   0  0  0  0  0  0
  -25.0040  -33.9794   25.0486 H   0  0  0  0  0  0
  -22.6861  -31.3072   21.4086 H   0  0  0  0  0  0
  -23.3746  -35.9647   23.3302 H   0  0  0  0  0  0
  -24.3574  -36.8931   22.2054 H   0  0  0  0  0  0
  -23.7224  -37.6520   23.6652 H   0  0  0  0  0  0
  -26.0224  -31.6076   20.5863 H   0  0  0  0  0  0
  -26.8136  -30.9120   21.9717 H   0  0  0  0  0  0
  -28.0840  -29.1609   21.1865 H   0  0  0  0  0  0
  -26.1153  -25.9945   19.0078 H   0  0  0  0  0  0
  -24.0019  -27.2879   19.0298 H   0  0  0  0  0  0
  -23.7118  -30.5930   19.4020 H   0  0  0  0  0  0
  -22.7366  -29.2327   19.8738 H   0  0  0  0  0  0
  -25.1275  -36.1999   25.0834 H   0  0  0  0  0  0
  -20.9944  -28.3246   24.1444 H   0  0  0  0  0  0
  -20.5653  -26.2281   23.3618 H   0  0  0  0  0  0
  -21.6633  -26.7452   22.1231 H   0  0  0  0  0  0
  -19.6910  -25.6309   21.1238 H   0  0  0  0  0  0
  -19.6690  -27.3208   20.6745 H   0  0  0  0  0  0
  -17.4190  -26.6687   21.4011 H   0  0  0  0  0  0
  -18.0311  -26.0072   22.9004 H   0  0  0  0  0  0
  -19.7926  -30.7236   24.2333 H   0  0  0  0  0  0
  -17.5020  -31.6279   24.5175 H   0  0  0  0  0  0
  -15.5351  -30.3030   23.7625 H   0  0  0  0  0  0
  -15.8651  -28.0849   22.7055 H   0  0  0  0  0  0
  -24.5918  -30.7048   25.7824 H   0  0  0  0  0  0
  -24.8941  -32.2863   26.4937 H   0  0  0  0  0  0
  -25.8117  -30.8874   27.0226 H   0  0  0  0  0  0
  -26.2791  -29.6816   24.1144 H   0  0  0  0  0  0
  -27.4072  -29.7269   25.4501 H   0  0  0  0  0  0
  -27.8621  -30.4349   23.9171 H   0  0  0  0  0  0
  -27.2704  -33.3605   26.2070 H   0  0  0  0  0  0
  -28.3874  -32.6844   25.0302 H   0  0  0  0  0  0
  -28.0721  -31.8404   26.5377 H   0  0  0  0  0  0
  -28.2623  -38.0085   24.7502 H   0  0  0  0  0  0
  -28.1044  -36.2622   24.6307 H   0  0  0  0  0  0
  -27.2298  -37.1495   25.8871 H   0  0  0  0  0  0
  -20.9281  -29.8750   21.6941 H   0  0  0  0  0  0
  -26.0188  -38.2879   24.1412 H   0  0  0  0  0  0
  -30.2273  -19.6489   19.5800 H   0  0  0  0  0  0
  -31.7818  -19.0215   23.5372 H   0  0  0  0  0  0
  -29.1051  -17.9332   18.4086 H   0  0  0  0  0  0
  -28.5264  -16.5281   19.2937 H   0  0  0  0  0  0
  -30.0968  -16.4780   18.4802 H   0  0  0  0  0  0
  -31.7209  -16.9082   24.5820 H   0  0  0  0  0  0
  -31.9550  -15.5606   23.4692 H   0  0  0  0  0  0
  -30.3488  -15.9000   24.1256 H   0  0  0  0  0  0
  -32.2798  -21.0682   20.8459 H   0  0  0  0  0  0
  -31.9880  -21.1495   22.5699 H   0  0  0  0  0  0
  -30.8708  -25.7390   20.0086 H   0  0  0  0  0  0
  -31.1762  -25.9002   21.7148 H   0  0  0  0  0  0
  -29.1311  -24.0154   20.4494 H   0  0  0  0  0  0
  -29.3020  -24.2401   22.1752 H   0  0  0  0  0  0
  -29.8442  -27.7779   21.0046 H   0  0  0  0  0  0
  -28.8499  -26.7811   22.0627 H   0  0  0  0  0  0
  -31.6457  -23.4459   22.0960 H   0  0  0  0  0  0
  -31.5668  -23.2848   20.3501 H   0  0  0  0  0  0
  -29.2041  -15.0689   21.7726 H   0  0  0  0  0  0
  1 25  1  0  0  0
  1 30  2  0  0  0
  1 84  1  0  0  0
  2  3  1  0  0  0
  2 25  1  0  0  0
  2 86  1  0  0  0
  2 87  1  0  0  0
  3  4  1  0  0  0
  3 88  1  0  0  0
  3 89  1  0  0  0
  4  5  1  0  0  0
  4 90  1  0  0  0
  4 91  1  0  0  0
  5  6  1  0  0  0
  5 26  1  0  0  0
  5 92  1  0  0  0
  6 25  1  0  0  0
  6 93  1  0  0  0
  6 94  1  0  0  0
  7  8  2  0  0  0
  7 26  1  0  0  0
  7 29  1  0  0  0
  8  9  1  0  0  0
  8 22  1  0  0  0
  9 10  1  0  0  0
  9 27  2  0  0  0
 10 11  2  0  0  0
 10 15  1  0  0  0
 11 12  1  0  0  0
 11 95  1  0  0  0
 12 13  2  0  0  0
 12 96  1  0  0  0
 13 14  1  0  0  0
 13 31  1  0  0  0
 14 15  2  0  0  0
 14 97  1  0  0  0
 15 98  1  0  0  0
 16 17  2  0  0  0
 16 21  1  0  0  0
 16 31  1  0  0  0
 17 18  1  0  0  0
 17 99  1  0  0  0
 18 19  2  0  0  0
 18100  1  0  0  0
 19 20  1  0  0  0
 19 24  1  0  0  0
 20 21  2  0  0  0
 20101  1  0  0  0
 21 23  1  0  0  0
 22 28  1  0  0  0
 22 32  2  0  0  0
 26 27  1  0  0  0
 28102  1  0  0  0
 28103  1  0  0  0
 29104  1  0  0  0
 29105  1  0  0  0
 33 34  1  0  0  0
 33 66  1  0  0  0
 33 70  2  0  0  0
 34 36  1  0  0  0
 34 59  1  0  0  0
 34106  1  0  0  0
 35 44  2  0  0  0
 35 45  1  0  0  0
 35 68  1  0  0  0
 36 56  1  0  0  0
 36107  1  0  0  0
 37 39  1  0  0  0
 37 47  1  0  0  0
 37 66  1  0  0  0
 37108  1  0  0  0
 38 43  2  0  0  0
 38 46  1  0  0  0
 38 47  1  0  0  0
 39 64  1  0  0  0
 39 67  2  0  0  0
 40 52  1  0  0  0
 40 53  2  0  0  0
 40 58  1  0  0  0
 41109  1  0  0  0
 41110  1  0  0  0
 41111  1  0  0  0
 41 48  1  0  0  0
 42 43  1  0  0  0
 42 66  1  0  0  0
 42112  1  0  0  0
 42113  1  0  0  0
 43 44  1  0  0  0
 44114  1  0  0  0
 45 46  2  0  0  0
 45115  1  0  0  0
 46116  1  0  0  0
 47117  1  0  0  0
 47118  1  0  0  0
 48 56  1  0  0  0
 48 65  1  0  0  0
 48119  1  0  0  0
 49 50  1  0  0  0
 49 53  1  0  0  0
 49 64  1  0  0  0
 49120  1  0  0  0
 50 51  1  0  0  0
 50121  1  0  0  0
 50122  1  0  0  0
 51 52  1  0  0  0
 51123  1  0  0  0
 51124  1  0  0  0
 52125  1  0  0  0
 52126  1  0  0  0
 53 54  1  0  0  0
 54 55  2  0  0  0
 54127  1  0  0  0
 55 57  1  0  0  0
 55128  1  0  0  0
 56 69  2  0  0  0
 57 58  2  0  0  0
 57129  1  0  0  0
 58130  1  0  0  0
 59 60  1  0  0  0
 59 61  1  0  0  0
 59 62  1  0  0  0
 60131  1  0  0  0
 60132  1  0  0  0
 60133  1  0  0  0
 61134  1  0  0  0
 61135  1  0  0  0
 61136  1  0  0  0
 62137  1  0  0  0
 62138  1  0  0  0
 62139  1  0  0  0
 63 65  1  0  0  0
 63140  1  0  0  0
 63141  1  0  0  0
 63142  1  0  0  0
 64143  1  0  0  0
 65144  1  0  0  0
 68 82  1  0  0  0
 71 73  2  0  0  0
 71 74  1  0  0  0
 71145  1  0  0  0
 72 73  1  0  0  0
 72 75  2  0  0  0
 72146  1  0  0  0
 73 79  1  0  0  0
 74 76  2  0  0  0
 74 77  1  0  0  0
 75 76  1  0  0  0
 75 78  1  0  0  0
 76 84  1  0  0  0
 77147  1  0  0  0
 77148  1  0  0  0
 77149  1  0  0  0
 78150  1  0  0  0
 78151  1  0  0  0
 78152  1  0  0  0
 79 85  1  0  0  0
 79153  1  0  0  0
 79154  1  0  0  0
 80 81  1  0  0  0
 80 82  1  0  0  0
 80155  1  0  0  0
 80156  1  0  0  0
 81 83  1  0  0  0
 81157  1  0  0  0
 81158  1  0  0  0
 82159  1  0  0  0
 82160  1  0  0  0
 83 85  1  0  0  0
 83161  1  0  0  0
 83162  1  0  0  0
 84163  1  0  0  0
M  ISO  4   1 100  68 101  82 101  84 100
M  END
> <chiral flag>
0

> <version>
0

> <s_m_source_file>
/data/baiqing/PycharmProjects/Reinvent-master-3.2/result/LINK_invent/BTK/process_docking_weight1_custom_sum_contain_oxygen_bond_distance_aromatic_linkinvent_7_9_3/rearranged_h_0005.sdf

> <i_m_source_file_index>
6

> <r_mmod_Potential_Energy-OPLS-2005>
-91.7846603393555

> <r_mmod_Stretch_Energy-OPLS-2005>
33.9582939147949

> <r_mmod_Bend_Energy-OPLS-2005>
88.7879867553711

> <r_mmod_Torsional_Energy-OPLS-2005>
241.420166015625

> <r_mmod_Improper_Torsional_Energy-OPLS-2005>
2.59197545051575

> <r_mmod_Van_der_Waal_Energy-OPLS-2005>
150.498229980469

> <r_mmod_Electrostatic_Energy-OPLS-2005>
-406.171966552734

> <r_mmod_Solvation_Energy-OPLS-2005>
-210.505676269531

> <b_mmod_Minimization_Converged-OPLS-2005>
0

> <r_mmod_RMS_Derivative-OPLS-2005>
0.782904446125031

$$$$
6
                    3D
 Structure written by MMmdl.
182190  0  0  1  0            999 V2000
  -30.7990  -14.3267   20.7195 C   0  0  0  0  0  0
  -30.4094  -12.2836   19.3859 C   0  0  0  0  0  0
  -29.4791  -12.5335   18.1857 C   0  0  0  0  0  0
  -28.0068  -12.3820   18.6068 C   0  0  0  0  0  0
  -27.6679  -13.2005   19.8793 C   0  0  2  0  0  0
  -28.7045  -12.9408   20.9949 C   0  0  0  0  0  0
  -25.2630  -13.8148   20.5686 C   0  0  0  0  0  0
  -24.1856  -13.0436   20.9165 C   0  0  0  0  0  0
  -24.6397  -11.6901   20.8707 C   0  0  0  0  0  0
  -23.9050  -10.4290   21.0390 C   0  0  0  0  0  0
  -24.3600   -9.4211   21.9173 C   0  0  0  0  0  0
  -23.6288   -8.2245   22.0750 C   0  0  0  0  0  0
  -22.4271   -8.0272   21.3536 C   0  0  0  0  0  0
  -21.9898   -9.0248   20.4645 C   0  0  0  0  0  0
  -22.7219  -10.2133   20.3050 C   0  0  0  0  0  0
  -21.6861   -6.0727   22.5281 C   0  0  0  0  0  0
  -21.4012   -6.5635   23.8206 C   0  0  0  0  0  0
  -21.3660   -5.6788   24.9172 C   0  0  0  0  0  0
  -21.6046   -4.3054   24.7230 C   0  0  0  0  0  0
  -21.8817   -3.8141   23.4352 C   0  0  0  0  0  0
  -21.9195   -4.6961   22.3401 C   0  0  0  0  0  0
  -22.7885  -13.5252   21.1833 C   0  0  0  0  0  0
  -22.1665   -4.2138   21.0984 F   0  0  0  0  0  0
  -21.5634   -3.4538   25.7744 F   0  0  0  0  0  0
  -30.0519  -13.2209   20.4623 N   0  0  0  0  0  0
  -26.3063  -12.9307   20.3384 N   0  0  0  0  0  0
  -25.9319  -11.6465   20.5730 N   0  0  0  0  0  0
  -22.0517  -12.8236   22.0401 N   0  0  0  0  0  0
  -25.4368  -15.1864   20.4101 N   0  0  0  0  0  0
  -31.7780  -14.6424   20.0363 O   0  0  0  0  0  0
  -21.6643   -6.8871   21.4237 O   0  0  0  0  0  0
  -22.3578  -14.5562   20.6716 O   0  0  0  0  0  0
  -24.6064  -31.8685   23.2074 C   0  0  0  0  0  0
  -25.8959  -32.4820   23.8387 C   0  0  1  0  0  0
  -27.2605  -27.4788   20.0849 C   0  0  0  0  0  0
  -25.5811  -33.8623   24.2314 N   0  0  0  0  0  0
  -23.3978  -30.4880   21.5413 C   0  0  2  0  0  0
  -24.8558  -28.9525   20.1233 C   0  0  0  0  0  0
  -22.7423  -29.4630   22.4951 C   0  0  0  0  0  0
  -18.0312  -28.1378   22.8542 C   0  0  0  0  0  0
  -24.1464  -36.7336   23.2647 C   0  0  0  0  0  0
  -25.9214  -30.8500   21.3563 C   0  0  0  0  0  0
  -26.0107  -29.4832   20.7114 C   0  0  0  0  0  0
  -27.2164  -28.7532   20.6924 C   0  0  0  0  0  0
  -26.0860  -26.9392   19.5253 C   0  0  0  0  0  0
  -24.8835  -27.6738   19.5369 C   0  0  0  0  0  0
  -23.6129  -29.8089   20.1601 C   0  0  0  0  0  0
  -25.4069  -36.3101   24.0351 C   0  0  1  0  0  0
  -20.5887  -28.3622   23.1353 C   0  0  2  0  0  0
  -20.6768  -26.9360   22.5428 C   0  0  0  0  0  0
  -19.5714  -26.6386   21.5232 C   0  0  0  0  0  0
  -18.1905  -26.7938   22.1660 C   0  0  0  0  0  0
  -19.1561  -28.8833   23.2936 C   0  0  0  0  0  0
  -18.9467  -30.1468   23.8918 C   0  0  0  0  0  0
  -17.6456  -30.6574   24.0579 C   0  0  0  0  0  0
  -25.9008  -34.9480   23.5147 C   0  0  0  0  0  0
  -16.5353  -29.9074   23.6314 C   0  0  0  0  0  0
  -16.7304  -28.6499   23.0351 C   0  0  0  0  0  0
  -26.4414  -31.6588   25.0698 C   0  0  0  0  0  0
  -25.3706  -31.3711   26.1461 C   0  0  0  0  0  0
  -27.0241  -30.3034   24.6059 C   0  0  0  0  0  0
  -27.5981  -32.4311   25.7455 C   0  0  0  0  0  0
  -27.5553  -37.1825   24.8470 C   0  0  0  0  0  0
  -21.4152  -29.3002   22.3747 N   0  0  0  0  0  0
  -26.4263  -37.3773   23.9415 N   0  0  0  0  0  0
  -24.6582  -31.0839   22.0924 N   0  0  0  0  0  0
  -23.4242  -28.8189   23.2971 O   0  0  0  0  0  0
  -28.4568  -26.8160   19.9667 O   0  0  0  0  0  0
  -26.5563  -34.8938   22.4697 O   0  0  0  0  0  0
  -23.5265  -32.1420   23.7480 O   0  0  0  0  0  0
  -32.4481  -16.3354   22.3931 C   0  0  0  0  0  0
  -30.8176  -18.3799   23.3958 C   0  0  0  0  0  0
  -33.0339  -17.5059   22.9196 C   0  0  0  0  0  0
  -30.2284  -17.1950   22.9069 C   0  0  0  0  0  0
  -31.0424  -16.1808   22.3533 C   0  0  0  0  0  0
  -32.2196  -18.5513   23.4081 C   0  0  0  0  0  0
  -28.8275  -24.8406   23.1596 C   0  0  0  0  0  0
  -34.5457  -17.6080   22.9926 C   0  0  0  0  0  0
  -28.7193  -17.0384   22.9910 C   0  0  0  0  0  0
  -29.4189  -23.2828   26.2147 C   0  0  0  0  0  0
  -29.0812  -25.9150   22.0842 C   0  0  0  0  0  0
  -32.7034  -24.1920   24.5026 C   0  0  0  0  0  0
  -32.2325  -22.7552   24.2012 C   0  0  0  0  0  0
  -31.9109  -25.2899   23.7809 C   0  0  0  0  0  0
  -32.8284  -21.7436   25.1973 C   0  0  0  0  0  0
  -28.7889  -24.5434   25.6063 C   0  0  0  0  0  0
  -30.6573  -25.7986   24.5474 C   0  0  0  0  0  0
  -28.5751  -25.5860   20.6700 C   0  0  0  0  0  0
  -32.2998  -20.3091   25.0385 C   0  0  0  0  0  0
  -30.4347  -15.0106   21.8177 N   0  0  0  0  0  0
  -29.4493  -24.9749   24.3577 N   0  0  0  0  0  0
  -27.9824  -23.9633   22.9555 O   0  0  0  0  0  0
  -32.8185  -19.7123   23.8517 O   0  0  0  0  0  0
  -31.4540  -12.3730   19.0806 H   0  0  0  0  0  0
  -30.2951  -11.2569   19.7402 H   0  0  0  0  0  0
  -29.7093  -11.8375   17.3779 H   0  0  0  0  0  0
  -29.6501  -13.5338   17.7861 H   0  0  0  0  0  0
  -27.8188  -11.3214   18.7847 H   0  0  0  0  0  0
  -27.3505  -12.6708   17.7863 H   0  0  0  0  0  0
  -27.7287  -14.2548   19.6092 H   0  0  0  0  0  0
  -28.6608  -11.8988   21.3155 H   0  0  0  0  0  0
  -28.4503  -13.5257   21.8782 H   0  0  0  0  0  0
  -25.2743   -9.5704   22.4743 H   0  0  0  0  0  0
  -24.0006   -7.4643   22.7468 H   0  0  0  0  0  0
  -21.0828   -8.8753   19.8958 H   0  0  0  0  0  0
  -22.3659  -10.9663   19.6162 H   0  0  0  0  0  0
  -21.1992   -7.6138   23.9705 H   0  0  0  0  0  0
  -21.1493   -6.0521   25.9073 H   0  0  0  0  0  0
  -22.0596   -2.7604   23.2855 H   0  0  0  0  0  0
  -22.4127  -11.9902   22.4780 H   0  0  0  0  0  0
  -21.1137  -13.1265   22.2586 H   0  0  0  0  0  0
  -24.6715  -15.8431   20.5191 H   0  0  0  0  0  0
  -26.2948  -15.6256   20.1014 H   0  0  0  0  0  0
  -26.7059  -32.5596   23.1193 H   0  0  0  0  0  0
  -24.9958  -33.9785   25.0457 H   0  0  0  0  0  0
  -22.6787  -31.2968   21.3909 H   0  0  0  0  0  0
  -23.3694  -35.9702   23.3325 H   0  0  0  0  0  0
  -24.3590  -36.8919   22.2066 H   0  0  0  0  0  0
  -23.7266  -37.6574   23.6647 H   0  0  0  0  0  0
  -26.0316  -31.6209   20.5905 H   0  0  0  0  0  0
  -26.8062  -30.9050   21.9787 H   0  0  0  0  0  0
  -28.1140  -29.1704   21.1316 H   0  0  0  0  0  0
  -26.1096  -25.9630   19.0631 H   0  0  0  0  0  0
  -23.9916  -27.2532   19.0941 H   0  0  0  0  0  0
  -23.7162  -30.5692   19.3855 H   0  0  0  0  0  0
  -22.7468  -29.2152   19.8638 H   0  0  0  0  0  0
  -25.1255  -36.1965   25.0855 H   0  0  0  0  0  0
  -21.0027  -28.3140   24.1451 H   0  0  0  0  0  0
  -20.5624  -26.2217   23.3601 H   0  0  0  0  0  0
  -21.6630  -26.7371   22.1203 H   0  0  0  0  0  0
  -19.6798  -25.6308   21.1212 H   0  0  0  0  0  0
  -19.6614  -27.3246   20.6801 H   0  0  0  0  0  0
  -17.4169  -26.6773   21.4063 H   0  0  0  0  0  0
  -18.0255  -26.0075   22.9046 H   0  0  0  0  0  0
  -19.7942  -30.7306   24.2233 H   0  0  0  0  0  0
  -17.5009  -31.6250   24.5183 H   0  0  0  0  0  0
  -15.5359  -30.2957   23.7623 H   0  0  0  0  0  0
  -15.8729  -28.0817   22.7007 H   0  0  0  0  0  0
  -24.5874  -30.7031   25.7834 H   0  0  0  0  0  0
  -24.8911  -32.2905   26.4869 H   0  0  0  0  0  0
  -25.8095  -30.8942   27.0239 H   0  0  0  0  0  0
  -26.2791  -29.6819   24.1083 H   0  0  0  0  0  0
  -27.3988  -29.7229   25.4497 H   0  0  0  0  0  0
  -27.8631  -30.4332   23.9205 H   0  0  0  0  0  0
  -27.2565  -33.3595   26.2039 H   0  0  0  0  0  0
  -28.3801  -32.6892   25.0301 H   0  0  0  0  0  0
  -28.0629  -31.8447   26.5392 H   0  0  0  0  0  0
  -28.2590  -38.0099   24.7473 H   0  0  0  0  0  0
  -28.1026  -36.2648   24.6326 H   0  0  0  0  0  0
  -27.2297  -37.1501   25.8878 H   0  0  0  0  0  0
  -20.9251  -29.8809   21.7079 H   0  0  0  0  0  0
  -26.0147  -38.2841   24.1428 H   0  0  0  0  0  0
  -33.0867  -15.5423   22.0341 H   0  0  0  0  0  0
  -30.1649  -19.1606   23.7514 H   0  0  0  0  0  0
  -35.0226  -16.7084   22.6001 H   0  0  0  0  0  0
  -34.8610  -17.7267   24.0311 H   0  0  0  0  0  0
  -34.9093  -18.4615   22.4199 H   0  0  0  0  0  0
  -28.2441  -17.9341   23.3897 H   0  0  0  0  0  0
  -28.4707  -16.2186   23.6651 H   0  0  0  0  0  0
  -28.2826  -16.8347   22.0126 H   0  0  0  0  0  0
  -30.4950  -23.4029   26.3428 H   0  0  0  0  0  0
  -29.2416  -22.4036   25.5937 H   0  0  0  0  0  0
  -29.0047  -23.0702   27.1997 H   0  0  0  0  0  0
  -30.1279  -26.1952   22.0011 H   0  0  0  0  0  0
  -28.5744  -26.8083   22.4450 H   0  0  0  0  0  0
  -33.7525  -24.2683   24.2100 H   0  0  0  0  0  0
  -32.6932  -24.3955   25.5731 H   0  0  0  0  0  0
  -32.4997  -22.4831   23.1808 H   0  0  0  0  0  0
  -31.1457  -22.6938   24.2338 H   0  0  0  0  0  0
  -31.6874  -24.9504   22.7720 H   0  0  0  0  0  0
  -32.5793  -26.1434   23.6504 H   0  0  0  0  0  0
  -32.5698  -22.0769   26.2030 H   0  0  0  0  0  0
  -33.9190  -21.7449   25.1416 H   0  0  0  0  0  0
  -28.8260  -25.3570   26.3337 H   0  0  0  0  0  0
  -27.7225  -24.3643   25.4495 H   0  0  0  0  0  0
  -30.4357  -26.8260   24.2572 H   0  0  0  0  0  0
  -30.9041  -25.8629   25.6087 H   0  0  0  0  0  0
  -27.6488  -25.0120   20.6562 H   0  0  0  0  0  0
  -29.3203  -24.9827   20.1490 H   0  0  0  0  0  0
  -31.2134  -20.3406   25.0924 H   0  0  0  0  0  0
  -32.6352  -19.7070   25.8847 H   0  0  0  0  0  0
  -29.5780  -14.7032   22.2494 H   0  0  0  0  0  0
  1 25  1  0  0  0
  1 30  2  0  0  0
  1 90  1  0  0  0
  2  3  1  0  0  0
  2 25  1  0  0  0
  2 94  1  0  0  0
  2 95  1  0  0  0
  3  4  1  0  0  0
  3 96  1  0  0  0
  3 97  1  0  0  0
  4  5  1  0  0  0
  4 98  1  0  0  0
  4 99  1  0  0  0
  5  6  1  0  0  0
  5 26  1  0  0  0
  5100  1  0  0  0
  6 25  1  0  0  0
  6101  1  0  0  0
  6102  1  0  0  0
  7  8  2  0  0  0
  7 26  1  0  0  0
  7 29  1  0  0  0
  8  9  1  0  0  0
  8 22  1  0  0  0
  9 10  1  0  0  0
  9 27  2  0  0  0
 10 11  2  0  0  0
 10 15  1  0  0  0
 11 12  1  0  0  0
 11103  1  0  0  0
 12 13  2  0  0  0
 12104  1  0  0  0
 13 14  1  0  0  0
 13 31  1  0  0  0
 14 15  2  0  0  0
 14105  1  0  0  0
 15106  1  0  0  0
 16 17  2  0  0  0
 16 21  1  0  0  0
 16 31  1  0  0  0
 17 18  1  0  0  0
 17107  1  0  0  0
 18 19  2  0  0  0
 18108  1  0  0  0
 19 20  1  0  0  0
 19 24  1  0  0  0
 20 21  2  0  0  0
 20109  1  0  0  0
 21 23  1  0  0  0
 22 28  1  0  0  0
 22 32  2  0  0  0
 26 27  1  0  0  0
 28110  1  0  0  0
 28111  1  0  0  0
 29112  1  0  0  0
 29113  1  0  0  0
 33 34  1  0  0  0
 33 66  1  0  0  0
 33 70  2  0  0  0
 34 36  1  0  0  0
 34 59  1  0  0  0
 34114  1  0  0  0
 35 44  2  0  0  0
 35 45  1  0  0  0
 35 68  1  0  0  0
 36 56  1  0  0  0
 36115  1  0  0  0
 37 39  1  0  0  0
 37 47  1  0  0  0
 37 66  1  0  0  0
 37116  1  0  0  0
 38 43  2  0  0  0
 38 46  1  0  0  0
 38 47  1  0  0  0
 39 64  1  0  0  0
 39 67  2  0  0  0
 40 52  1  0  0  0
 40 53  2  0  0  0
 40 58  1  0  0  0
 41117  1  0  0  0
 41118  1  0  0  0
 41119  1  0  0  0
 41 48  1  0  0  0
 42 43  1  0  0  0
 42 66  1  0  0  0
 42120  1  0  0  0
 42121  1  0  0  0
 43 44  1  0  0  0
 44122  1  0  0  0
 45 46  2  0  0  0
 45123  1  0  0  0
 46124  1  0  0  0
 47125  1  0  0  0
 47126  1  0  0  0
 48 56  1  0  0  0
 48 65  1  0  0  0
 48127  1  0  0  0
 49 50  1  0  0  0
 49 53  1  0  0  0
 49 64  1  0  0  0
 49128  1  0  0  0
 50 51  1  0  0  0
 50129  1  0  0  0
 50130  1  0  0  0
 51 52  1  0  0  0
 51131  1  0  0  0
 51132  1  0  0  0
 52133  1  0  0  0
 52134  1  0  0  0
 53 54  1  0  0  0
 54 55  2  0  0  0
 54135  1  0  0  0
 55 57  1  0  0  0
 55136  1  0  0  0
 56 69  2  0  0  0
 57 58  2  0  0  0
 57137  1  0  0  0
 58138  1  0  0  0
 59 60  1  0  0  0
 59 61  1  0  0  0
 59 62  1  0  0  0
 60139  1  0  0  0
 60140  1  0  0  0
 60141  1  0  0  0
 61142  1  0  0  0
 61143  1  0  0  0
 61144  1  0  0  0
 62145  1  0  0  0
 62146  1  0  0  0
 62147  1  0  0  0
 63 65  1  0  0  0
 63148  1  0  0  0
 63149  1  0  0  0
 63150  1  0  0  0
 64151  1  0  0  0
 65152  1  0  0  0
 68 88  1  0  0  0
 71 73  2  0  0  0
 71 75  1  0  0  0
 71153  1  0  0  0
 72 74  1  0  0  0
 72 76  2  0  0  0
 72154  1  0  0  0
 73 76  1  0  0  0
 73 78  1  0  0  0
 74 75  2  0  0  0
 74 79  1  0  0  0
 75 90  1  0  0  0
 76 93  1  0  0  0
 77 81  1  0  0  0
 77 91  1  0  0  0
 77 92  2  0  0  0
 78155  1  0  0  0
 78156  1  0  0  0
 78157  1  0  0  0
 79158  1  0  0  0
 79159  1  0  0  0
 79160  1  0  0  0
 80 86  1  0  0  0
 80161  1  0  0  0
 80162  1  0  0  0
 80163  1  0  0  0
 81 88  1  0  0  0
 81164  1  0  0  0
 81165  1  0  0  0
 82 83  1  0  0  0
 82 84  1  0  0  0
 82166  1  0  0  0
 82167  1  0  0  0
 83 85  1  0  0  0
 83168  1  0  0  0
 83169  1  0  0  0
 84 87  1  0  0  0
 84170  1  0  0  0
 84171  1  0  0  0
 85 89  1  0  0  0
 85172  1  0  0  0
 85173  1  0  0  0
 86 91  1  0  0  0
 86174  1  0  0  0
 86175  1  0  0  0
 87 91  1  0  0  0
 87176  1  0  0  0
 87177  1  0  0  0
 88178  1  0  0  0
 88179  1  0  0  0
 89 93  1  0  0  0
 89180  1  0  0  0
 89181  1  0  0  0
 90182  1  0  0  0
M  ISO  4   1 100  68 101  88 101  90 100
M  END
> <chiral flag>
0

> <version>
0

> <s_m_source_file>
/data/baiqing/PycharmProjects/Reinvent-master-3.2/result/LINK_invent/BTK/process_docking_weight1_custom_sum_contain_oxygen_bond_distance_aromatic_linkinvent_7_9_3/rearranged_h_0005.sdf

> <i_m_source_file_index>
7

> <r_mmod_Potential_Energy-OPLS-2005>
0.0288948584347963

> <r_mmod_Stretch_Energy-OPLS-2005>
37.3141174316406

> <r_mmod_Bend_Energy-OPLS-2005>
106.36848449707

> <r_mmod_Torsional_Energy-OPLS-2005>
303.701416015625

> <r_mmod_Improper_Torsional_Energy-OPLS-2005>
3.98336315155029

> <r_mmod_Van_der_Waal_Energy-OPLS-2005>
162.998046875

> <r_mmod_Electrostatic_Energy-OPLS-2005>
-403.311981201172

> <r_mmod_Solvation_Energy-OPLS-2005>
-218.960021972656

> <b_mmod_Minimization_Converged-OPLS-2005>
0

> <r_mmod_RMS_Derivative-OPLS-2005>
4.60271263122559

$$$$
7
                    3D
 Structure written by MMmdl.
189197  0  0  1  0            999 V2000
  -30.7499  -14.3896   20.6385 C   0  0  0  0  0  0
  -30.4168  -12.2829   19.4046 C   0  0  0  0  0  0
  -29.4883  -12.5202   18.1981 C   0  0  0  0  0  0
  -28.0109  -12.3822   18.6114 C   0  0  0  0  0  0
  -27.6679  -13.2040   19.8823 C   0  0  2  0  0  0
  -28.7069  -12.9505   20.9986 C   0  0  0  0  0  0
  -25.2613  -13.8155   20.5681 C   0  0  0  0  0  0
  -24.1852  -13.0439   20.9160 C   0  0  0  0  0  0
  -24.6401  -11.6896   20.8725 C   0  0  0  0  0  0
  -23.9061  -10.4290   21.0399 C   0  0  0  0  0  0
  -24.3616   -9.4210   21.9183 C   0  0  0  0  0  0
  -23.6290   -8.2244   22.0755 C   0  0  0  0  0  0
  -22.4274   -8.0285   21.3544 C   0  0  0  0  0  0
  -21.9907   -9.0251   20.4638 C   0  0  0  0  0  0
  -22.7232  -10.2132   20.3046 C   0  0  0  0  0  0
  -21.6853   -6.0737   22.5278 C   0  0  0  0  0  0
  -21.4012   -6.5635   23.8209 C   0  0  0  0  0  0
  -21.3659   -5.6792   24.9172 C   0  0  0  0  0  0
  -21.6043   -4.3052   24.7223 C   0  0  0  0  0  0
  -21.8820   -3.8142   23.4341 C   0  0  0  0  0  0
  -21.9194   -4.6965   22.3401 C   0  0  0  0  0  0
  -22.7872  -13.5241   21.1823 C   0  0  0  0  0  0
  -22.1660   -4.2150   21.0980 F   0  0  0  0  0  0
  -21.5633   -3.4540   25.7734 F   0  0  0  0  0  0
  -30.0480  -13.2417   20.4566 N   0  0  0  0  0  0
  -26.3055  -12.9324   20.3398 N   0  0  0  0  0  0
  -25.9335  -11.6482   20.5770 N   0  0  0  0  0  0
  -22.0514  -12.8224   22.0376 N   0  0  0  0  0  0
  -25.4338  -15.1880   20.4105 N   0  0  0  0  0  0
  -31.8100  -14.6343   20.0556 O   0  0  0  0  0  0
  -21.6640   -6.8882   21.4238 O   0  0  0  0  0  0
  -22.3552  -14.5554   20.6690 O   0  0  0  0  0  0
  -24.6112  -31.8702   23.2114 C   0  0  0  0  0  0
  -25.9018  -32.4845   23.8384 C   0  0  1  0  0  0
  -27.2331  -27.4798   20.0855 C   0  0  0  0  0  0
  -25.5877  -33.8640   24.2327 N   0  0  0  0  0  0
  -23.3962  -30.4952   21.5515 C   0  0  2  0  0  0
  -24.8424  -28.9659   20.1126 C   0  0  0  0  0  0
  -22.7401  -29.4672   22.4998 C   0  0  0  0  0  0
  -18.0281  -28.1385   22.8494 C   0  0  0  0  0  0
  -24.1490  -36.7302   23.2638 C   0  0  0  0  0  0
  -25.9192  -30.8515   21.3539 C   0  0  0  0  0  0
  -26.0000  -29.4884   20.7045 C   0  0  0  0  0  0
  -27.2015  -28.7505   20.6918 C   0  0  0  0  0  0
  -26.0661  -26.9600   19.4894 C   0  0  0  0  0  0
  -24.8677  -27.6982   19.5035 C   0  0  0  0  0  0
  -23.6009  -29.8261   20.1657 C   0  0  0  0  0  0
  -25.4102  -36.3112   24.0346 C   0  0  1  0  0  0
  -20.5873  -28.3651   23.1336 C   0  0  2  0  0  0
  -20.6785  -26.9390   22.5421 C   0  0  0  0  0  0
  -19.5755  -26.6383   21.5228 C   0  0  0  0  0  0
  -18.1930  -26.7935   22.1622 C   0  0  0  0  0  0
  -19.1531  -28.8829   23.2922 C   0  0  0  0  0  0
  -18.9459  -30.1444   23.8925 C   0  0  0  0  0  0
  -17.6462  -30.6583   24.0582 C   0  0  0  0  0  0
  -25.9016  -34.9491   23.5126 C   0  0  0  0  0  0
  -16.5353  -29.9090   23.6341 C   0  0  0  0  0  0
  -16.7271  -28.6524   23.0329 C   0  0  0  0  0  0
  -26.4459  -31.6617   25.0699 C   0  0  0  0  0  0
  -25.3734  -31.3706   26.1456 C   0  0  0  0  0  0
  -27.0284  -30.3081   24.5992 C   0  0  0  0  0  0
  -27.6037  -32.4328   25.7455 C   0  0  0  0  0  0
  -27.5586  -37.1796   24.8464 C   0  0  0  0  0  0
  -21.4133  -29.3031   22.3754 N   0  0  0  0  0  0
  -26.4293  -37.3797   23.9420 N   0  0  0  0  0  0
  -24.6611  -31.0842   22.0998 N   0  0  0  0  0  0
  -23.4207  -28.8213   23.3012 O   0  0  0  0  0  0
  -28.3848  -26.7426   20.0856 O   0  0  0  0  0  0
  -26.5586  -34.8941   22.4692 O   0  0  0  0  0  0
  -23.5319  -32.1424   23.7543 O   0  0  0  0  0  0
  -28.4809  -17.7299   24.3284 C   0  0  0  0  0  0
  -27.7498  -18.8112   24.8467 C   0  0  0  0  0  0
  -29.7001  -19.5217   26.1478 C   0  0  0  0  0  0
  -29.8201  -17.5249   24.7094 C   0  0  0  0  0  0
  -28.3461  -19.6912   25.7662 C   0  0  0  0  0  0
  -30.4456  -18.4420   25.6008 C   0  0  0  0  0  0
  -29.5735  -24.8079   20.9569 C   0  0  0  0  0  0
  -30.4053  -26.5964   28.7037 C   0  0  0  0  0  0
  -30.8232  -15.3871   25.2030 C   0  0  0  0  0  0
  -30.3120  -20.4660   27.1876 C   0  0  0  0  0  0
  -28.3640  -25.7357   21.0961 C   0  0  0  0  0  0
  -30.8169  -25.1278   28.8690 C   0  0  0  0  0  0
  -31.3128  -22.5807   23.0317 C   0  0  0  0  0  0
  -30.3898  -24.2422   27.6862 C   0  0  0  0  0  0
  -30.4347  -22.2844   24.2628 C   0  0  0  0  0  0
  -30.5355  -22.6267   21.7049 C   0  0  0  0  0  0
  -30.7089  -16.6187   21.7470 C   0  0  0  0  0  0
  -31.4097  -16.6441   23.1116 C   0  0  0  0  0  0
  -30.8135  -22.7715   27.8848 C   0  0  0  0  0  0
  -31.2717  -22.0845   25.5411 C   0  0  0  0  0  0
  -29.5380  -23.6929   21.6975 N   0  0  0  0  0  0
  -30.1911  -15.2819   21.4632 N   0  0  0  0  0  0
  -30.4673  -16.3853   24.1983 N   0  0  0  0  0  0
  -30.4222  -21.8881   26.7516 N   0  3  1  0  0  0
  -30.5062  -25.0809   20.1955 O   0  0  0  0  0  0
  -27.4010  -20.9928   26.4012 Cl  0  0  0  0  0  0
  -32.1181  -18.2381   26.0209 Cl  0  0  0  0  0  0
  -31.4626  -12.3714   19.1036 H   0  0  0  0  0  0
  -30.3051  -11.2631   19.7768 H   0  0  0  0  0  0
  -29.7199  -11.8147   17.3996 H   0  0  0  0  0  0
  -29.6623  -13.5159   17.7883 H   0  0  0  0  0  0
  -27.8123  -11.3244   18.7870 H   0  0  0  0  0  0
  -27.3609  -12.6782   17.7867 H   0  0  0  0  0  0
  -27.7226  -14.2583   19.6093 H   0  0  0  0  0  0
  -28.6698  -11.9081   21.3162 H   0  0  0  0  0  0
  -28.4627  -13.5291   21.8901 H   0  0  0  0  0  0
  -25.2768   -9.5689   22.4746 H   0  0  0  0  0  0
  -24.0001   -7.4641   22.7477 H   0  0  0  0  0  0
  -21.0840   -8.8762   19.8942 H   0  0  0  0  0  0
  -22.3695  -10.9669   19.6148 H   0  0  0  0  0  0
  -21.1995   -7.6141   23.9713 H   0  0  0  0  0  0
  -21.1480   -6.0520   25.9076 H   0  0  0  0  0  0
  -22.0599   -2.7608   23.2843 H   0  0  0  0  0  0
  -22.4111  -11.9874   22.4749 H   0  0  0  0  0  0
  -21.1129  -13.1250   22.2581 H   0  0  0  0  0  0
  -24.6702  -15.8467   20.5174 H   0  0  0  0  0  0
  -26.2950  -15.6268   20.1060 H   0  0  0  0  0  0
  -26.7094  -32.5573   23.1157 H   0  0  0  0  0  0
  -25.0094  -33.9810   25.0513 H   0  0  0  0  0  0
  -22.6831  -31.3105   21.4119 H   0  0  0  0  0  0
  -23.3773  -35.9620   23.3305 H   0  0  0  0  0  0
  -24.3593  -36.8901   22.2053 H   0  0  0  0  0  0
  -23.7220  -37.6500   23.6646 H   0  0  0  0  0  0
  -26.0136  -31.6168   20.5825 H   0  0  0  0  0  0
  -26.8157  -30.9136   21.9598 H   0  0  0  0  0  0
  -28.0983  -29.1465   21.1471 H   0  0  0  0  0  0
  -26.0848  -25.9862   19.0203 H   0  0  0  0  0  0
  -23.9766  -27.2899   19.0466 H   0  0  0  0  0  0
  -23.7017  -30.6012   19.4046 H   0  0  0  0  0  0
  -22.7274  -29.2420   19.8713 H   0  0  0  0  0  0
  -25.1287  -36.1978   25.0845 H   0  0  0  0  0  0
  -20.9966  -28.3206   24.1454 H   0  0  0  0  0  0
  -20.5715  -26.2243   23.3596 H   0  0  0  0  0  0
  -21.6645  -26.7446   22.1181 H   0  0  0  0  0  0
  -19.6919  -25.6308   21.1226 H   0  0  0  0  0  0
  -19.6714  -27.3236   20.6804 H   0  0  0  0  0  0
  -17.4210  -26.6722   21.4011 H   0  0  0  0  0  0
  -18.0287  -26.0057   22.8983 H   0  0  0  0  0  0
  -19.7939  -30.7267   24.2283 H   0  0  0  0  0  0
  -17.5016  -31.6270   24.5175 H   0  0  0  0  0  0
  -15.5361  -30.2998   23.7654 H   0  0  0  0  0  0
  -15.8669  -28.0871   22.6981 H   0  0  0  0  0  0
  -24.5930  -30.7014   25.7811 H   0  0  0  0  0  0
  -24.8890  -32.2862   26.4880 H   0  0  0  0  0  0
  -25.8099  -30.8915   27.0228 H   0  0  0  0  0  0
  -26.2799  -29.6837   24.1105 H   0  0  0  0  0  0
  -27.4187  -29.7305   25.4379 H   0  0  0  0  0  0
  -27.8562  -30.4452   23.9029 H   0  0  0  0  0  0
  -27.2669  -33.3643   26.2022 H   0  0  0  0  0  0
  -28.3860  -32.6867   25.0289 H   0  0  0  0  0  0
  -28.0686  -31.8451   26.5379 H   0  0  0  0  0  0
  -28.2590  -38.0112   24.7547 H   0  0  0  0  0  0
  -28.1103  -36.2646   24.6251 H   0  0  0  0  0  0
  -27.2311  -37.1381   25.8869 H   0  0  0  0  0  0
  -20.9279  -29.8742   21.6978 H   0  0  0  0  0  0
  -26.0190  -38.2877   24.1452 H   0  0  0  0  0  0
  -28.0038  -17.0456   23.6409 H   0  0  0  0  0  0
  -26.7192  -18.9538   24.5536 H   0  0  0  0  0  0
  -30.7902  -27.2007   29.5268 H   0  0  0  0  0  0
  -29.3206  -26.7075   28.6971 H   0  0  0  0  0  0
  -30.7930  -27.0183   27.7756 H   0  0  0  0  0  0
  -30.2025  -15.4716   26.0976 H   0  0  0  0  0  0
  -31.8675  -15.4768   25.5066 H   0  0  0  0  0  0
  -30.6801  -14.3852   24.7963 H   0  0  0  0  0  0
  -31.2854  -20.1266   27.5383 H   0  0  0  0  0  0
  -29.6687  -20.4070   28.0668 H   0  0  0  0  0  0
  -28.3776  -26.1947   22.0859 H   0  0  0  0  0  0
  -27.4547  -25.1364   21.0277 H   0  0  0  0  0  0
  -30.3867  -24.7409   29.7938 H   0  0  0  0  0  0
  -31.8997  -25.0730   28.9925 H   0  0  0  0  0  0
  -32.0815  -21.8109   22.9465 H   0  0  0  0  0  0
  -31.8463  -23.5220   23.1763 H   0  0  0  0  0  0
  -30.8191  -24.6448   26.7687 H   0  0  0  0  0  0
  -29.3063  -24.2977   27.5679 H   0  0  0  0  0  0
  -29.8397  -21.3942   24.0618 H   0  0  0  0  0  0
  -29.7281  -23.1031   24.4096 H   0  0  0  0  0  0
  -30.0264  -21.6755   21.5423 H   0  0  0  0  0  0
  -31.2340  -22.7377   20.8740 H   0  0  0  0  0  0
  -31.4080  -16.9439   20.9736 H   0  0  0  0  0  0
  -29.8853  -17.3329   21.7202 H   0  0  0  0  0  0
  -31.8843  -17.6176   23.2482 H   0  0  0  0  0  0
  -32.2181  -15.9114   23.1299 H   0  0  0  0  0  0
  -30.3416  -22.4182   28.8021 H   0  0  0  0  0  0
  -31.8893  -22.6988   28.0568 H   0  0  0  0  0  0
  -31.9131  -22.9571   25.6669 H   0  0  0  0  0  0
  -31.9601  -21.2471   25.4160 H   0  0  0  0  0  0
  -28.7218  -23.5630   22.2800 H   0  0  0  0  0  0
  -29.3465  -15.0080   21.9423 H   0  0  0  0  0  0
  -29.4797  -22.1600   26.5100 H   0  0  0  0  0  0
  1 25  1  0  0  0
  1 30  2  0  0  0
  1 92  1  0  0  0
  2  3  1  0  0  0
  2 25  1  0  0  0
  2 98  1  0  0  0
  2 99  1  0  0  0
  3  4  1  0  0  0
  3100  1  0  0  0
  3101  1  0  0  0
  4  5  1  0  0  0
  4102  1  0  0  0
  4103  1  0  0  0
  5  6  1  0  0  0
  5 26  1  0  0  0
  5104  1  0  0  0
  6 25  1  0  0  0
  6105  1  0  0  0
  6106  1  0  0  0
  7  8  2  0  0  0
  7 26  1  0  0  0
  7 29  1  0  0  0
  8  9  1  0  0  0
  8 22  1  0  0  0
  9 10  1  0  0  0
  9 27  2  0  0  0
 10 11  2  0  0  0
 10 15  1  0  0  0
 11 12  1  0  0  0
 11107  1  0  0  0
 12 13  2  0  0  0
 12108  1  0  0  0
 13 14  1  0  0  0
 13 31  1  0  0  0
 14 15  2  0  0  0
 14109  1  0  0  0
 15110  1  0  0  0
 16 17  2  0  0  0
 16 21  1  0  0  0
 16 31  1  0  0  0
 17 18  1  0  0  0
 17111  1  0  0  0
 18 19  2  0  0  0
 18112  1  0  0  0
 19 20  1  0  0  0
 19 24  1  0  0  0
 20 21  2  0  0  0
 20113  1  0  0  0
 21 23  1  0  0  0
 22 28  1  0  0  0
 22 32  2  0  0  0
 26 27  1  0  0  0
 28114  1  0  0  0
 28115  1  0  0  0
 29116  1  0  0  0
 29117  1  0  0  0
 33 34  1  0  0  0
 33 66  1  0  0  0
 33 70  2  0  0  0
 34 36  1  0  0  0
 34 59  1  0  0  0
 34118  1  0  0  0
 35 44  2  0  0  0
 35 45  1  0  0  0
 35 68  1  0  0  0
 36 56  1  0  0  0
 36119  1  0  0  0
 37 39  1  0  0  0
 37 47  1  0  0  0
 37 66  1  0  0  0
 37120  1  0  0  0
 38 43  2  0  0  0
 38 46  1  0  0  0
 38 47  1  0  0  0
 39 64  1  0  0  0
 39 67  2  0  0  0
 40 52  1  0  0  0
 40 53  2  0  0  0
 40 58  1  0  0  0
 41121  1  0  0  0
 41122  1  0  0  0
 41123  1  0  0  0
 41 48  1  0  0  0
 42 43  1  0  0  0
 42 66  1  0  0  0
 42124  1  0  0  0
 42125  1  0  0  0
 43 44  1  0  0  0
 44126  1  0  0  0
 45 46  2  0  0  0
 45127  1  0  0  0
 46128  1  0  0  0
 47129  1  0  0  0
 47130  1  0  0  0
 48 56  1  0  0  0
 48 65  1  0  0  0
 48131  1  0  0  0
 49 50  1  0  0  0
 49 53  1  0  0  0
 49 64  1  0  0  0
 49132  1  0  0  0
 50 51  1  0  0  0
 50133  1  0  0  0
 50134  1  0  0  0
 51 52  1  0  0  0
 51135  1  0  0  0
 51136  1  0  0  0
 52137  1  0  0  0
 52138  1  0  0  0
 53 54  1  0  0  0
 54 55  2  0  0  0
 54139  1  0  0  0
 55 57  1  0  0  0
 55140  1  0  0  0
 56 69  2  0  0  0
 57 58  2  0  0  0
 57141  1  0  0  0
 58142  1  0  0  0
 59 60  1  0  0  0
 59 61  1  0  0  0
 59 62  1  0  0  0
 60143  1  0  0  0
 60144  1  0  0  0
 60145  1  0  0  0
 61146  1  0  0  0
 61147  1  0  0  0
 61148  1  0  0  0
 62149  1  0  0  0
 62150  1  0  0  0
 62151  1  0  0  0
 63 65  1  0  0  0
 63152  1  0  0  0
 63153  1  0  0  0
 63154  1  0  0  0
 64155  1  0  0  0
 65156  1  0  0  0
 68 81  1  0  0  0
 71 72  2  0  0  0
 71 74  1  0  0  0
 71157  1  0  0  0
 72 75  1  0  0  0
 72158  1  0  0  0
 73 75  2  0  0  0
 73 76  1  0  0  0
 73 80  1  0  0  0
 74 76  2  0  0  0
 74 93  1  0  0  0
 75 96  1  0  0  0
 76 97  1  0  0  0
 77 81  1  0  0  0
 77 91  1  0  0  0
 77 95  2  0  0  0
 78 82  1  0  0  0
 78159  1  0  0  0
 78160  1  0  0  0
 78161  1  0  0  0
 79 93  1  0  0  0
 79162  1  0  0  0
 79163  1  0  0  0
 79164  1  0  0  0
 80165  1  0  0  0
 80166  1  0  0  0
 80 94  1  0  0  0
 81167  1  0  0  0
 81168  1  0  0  0
 82 84  1  0  0  0
 82169  1  0  0  0
 82170  1  0  0  0
 83 85  1  0  0  0
 83 86  1  0  0  0
 83171  1  0  0  0
 83172  1  0  0  0
 84 89  1  0  0  0
 84173  1  0  0  0
 84174  1  0  0  0
 85 90  1  0  0  0
 85175  1  0  0  0
 85176  1  0  0  0
 86 91  1  0  0  0
 86177  1  0  0  0
 86178  1  0  0  0
 87 88  1  0  0  0
 87 92  1  0  0  0
 87179  1  0  0  0
 87180  1  0  0  0
 88 93  1  0  0  0
 88181  1  0  0  0
 88182  1  0  0  0
 89 94  1  0  0  0
 89183  1  0  0  0
 89184  1  0  0  0
 90 94  1  0  0  0
 90185  1  0  0  0
 90186  1  0  0  0
 91187  1  0  0  0
 92188  1  0  0  0
 94189  1  0  0  0
M  CHG  1  94   1
M  ISO  4   1 100  68 101  81 101  92 100
M  END
> <chiral flag>
0

> <version>
0

> <s_m_source_file>
/data/baiqing/PycharmProjects/Reinvent-master-3.2/result/LINK_invent/BTK/process_docking_weight1_custom_sum_contain_oxygen_bond_distance_aromatic_linkinvent_7_9_3/rearranged_h_0005.sdf

> <i_m_source_file_index>
8

> <r_mmod_Potential_Energy-OPLS-2005>
-251.833435058594

> <r_mmod_Stretch_Energy-OPLS-2005>
36.2404975891113

> <r_mmod_Bend_Energy-OPLS-2005>
96.6646194458008

> <r_mmod_Torsional_Energy-OPLS-2005>
271.26220703125

> <r_mmod_Improper_Torsional_Energy-OPLS-2005>
5.19474363327026

> <r_mmod_Van_der_Waal_Energy-OPLS-2005>
151.3671875

> <r_mmod_Electrostatic_Energy-OPLS-2005>
-325.632873535156

> <r_mmod_Solvation_Energy-OPLS-2005>
-494.009674072266

> <b_mmod_Minimization_Converged-OPLS-2005>
0

> <r_mmod_RMS_Derivative-OPLS-2005>
2.01160669326782

$$$$
8
                    3D
 Structure written by MMmdl.
192200  0  0  1  0            999 V2000
  -30.8439  -14.2932   20.7470 C   0  0  0  0  0  0
  -30.4173  -12.2952   19.3712 C   0  0  0  0  0  0
  -29.4766  -12.5530   18.1810 C   0  0  0  0  0  0
  -28.0043  -12.4088   18.6015 C   0  0  0  0  0  0
  -27.6772  -13.2020   19.8922 C   0  0  2  0  0  0
  -28.7214  -12.8989   20.9905 C   0  0  0  0  0  0
  -25.2649  -13.8100   20.5740 C   0  0  0  0  0  0
  -24.1879  -13.0388   20.9169 C   0  0  0  0  0  0
  -24.6436  -11.6871   20.8733 C   0  0  0  0  0  0
  -23.9085  -10.4270   21.0406 C   0  0  0  0  0  0
  -24.3610   -9.4186   21.9206 C   0  0  0  0  0  0
  -23.6270   -8.2232   22.0779 C   0  0  0  0  0  0
  -22.4256   -8.0271   21.3568 C   0  0  0  0  0  0
  -21.9896   -9.0252   20.4669 C   0  0  0  0  0  0
  -22.7242  -10.2123   20.3072 C   0  0  0  0  0  0
  -21.6848   -6.0715   22.5277 C   0  0  0  0  0  0
  -21.4015   -6.5636   23.8208 C   0  0  0  0  0  0
  -21.3661   -5.6810   24.9173 C   0  0  0  0  0  0
  -21.6038   -4.3062   24.7244 C   0  0  0  0  0  0
  -21.8820   -3.8142   23.4358 C   0  0  0  0  0  0
  -21.9186   -4.6943   22.3411 C   0  0  0  0  0  0
  -22.7886  -13.5216   21.1832 C   0  0  0  0  0  0
  -22.1663   -4.2126   21.0979 F   0  0  0  0  0  0
  -21.5618   -3.4546   25.7749 F   0  0  0  0  0  0
  -30.0648  -13.2103   20.4684 N   0  0  0  0  0  0
  -26.3131  -12.9302   20.3486 N   0  0  0  0  0  0
  -25.9369  -11.6454   20.5770 N   0  0  0  0  0  0
  -22.0510  -12.8233   22.0384 N   0  0  0  0  0  0
  -25.4410  -15.1800   20.4251 N   0  0  0  0  0  0
  -31.7639  -14.6674   20.0166 O   0  0  0  0  0  0
  -21.6635   -6.8856   21.4243 O   0  0  0  0  0  0
  -22.3559  -14.5502   20.6665 O   0  0  0  0  0  0
  -24.6091  -31.8701   23.2123 C   0  0  0  0  0  0
  -25.9004  -32.4841   23.8409 C   0  0  1  0  0  0
  -27.2554  -27.4778   20.1074 C   0  0  0  0  0  0
  -25.5875  -33.8635   24.2347 N   0  0  0  0  0  0
  -23.3959  -30.4910   21.5502 C   0  0  2  0  0  0
  -24.8470  -28.9587   20.1202 C   0  0  0  0  0  0
  -22.7384  -29.4660   22.5009 C   0  0  0  0  0  0
  -18.0266  -28.1380   22.8495 C   0  0  0  0  0  0
  -24.1485  -36.7327   23.2637 C   0  0  0  0  0  0
  -25.9158  -30.8549   21.3535 C   0  0  0  0  0  0
  -25.9989  -29.4869   20.7138 C   0  0  0  0  0  0
  -27.2042  -28.7586   20.7047 C   0  0  0  0  0  0
  -26.0901  -26.9606   19.5042 C   0  0  0  0  0  0
  -24.8846  -27.6905   19.5133 C   0  0  0  0  0  0
  -23.6039  -29.8167   20.1664 C   0  0  0  0  0  0
  -25.4103  -36.3121   24.0342 C   0  0  1  0  0  0
  -20.5851  -28.3653   23.1339 C   0  0  2  0  0  0
  -20.6755  -26.9395   22.5426 C   0  0  0  0  0  0
  -19.5736  -26.6391   21.5215 C   0  0  0  0  0  0
  -18.1914  -26.7930   22.1626 C   0  0  0  0  0  0
  -19.1515  -28.8832   23.2916 C   0  0  0  0  0  0
  -18.9444  -30.1440   23.8925 C   0  0  0  0  0  0
  -17.6447  -30.6584   24.0570 C   0  0  0  0  0  0
  -25.9019  -34.9484   23.5141 C   0  0  0  0  0  0
  -16.5337  -29.9090   23.6321 C   0  0  0  0  0  0
  -16.7257  -28.6508   23.0341 C   0  0  0  0  0  0
  -26.4466  -31.6604   25.0712 C   0  0  0  0  0  0
  -25.3759  -31.3685   26.1480 C   0  0  0  0  0  0
  -27.0283  -30.3057   24.6029 C   0  0  0  0  0  0
  -27.6058  -32.4309   25.7463 C   0  0  0  0  0  0
  -27.5579  -37.1816   24.8466 C   0  0  0  0  0  0
  -21.4117  -29.3025   22.3751 N   0  0  0  0  0  0
  -26.4294  -37.3800   23.9408 N   0  0  0  0  0  0
  -24.6583  -31.0850   22.0991 N   0  0  0  0  0  0
  -23.4174  -28.8204   23.3040 O   0  0  0  0  0  0
  -28.4043  -26.7231   20.0317 O   0  0  0  0  0  0
  -26.5579  -34.8927   22.4702 O   0  0  0  0  0  0
  -23.5296  -32.1426   23.7553 O   0  0  0  0  0  0
  -27.3885  -16.9102   23.4688 C   0  0  0  0  0  0
  -27.9645  -15.8590   24.2157 C   0  0  0  0  0  0
  -29.0833  -16.6045   21.7446 C   0  0  0  0  0  0
  -27.9597  -17.2927   22.2341 C   0  0  0  0  0  0
  -29.6335  -15.5339   22.4745 C   0  0  0  0  0  0
  -29.1067  -15.1733   23.7318 C   0  0  0  0  0  0
  -26.2134  -18.5149   21.0154 C   0  0  0  0  0  0
  -29.1360  -25.3941   21.9055 C   0  0  0  0  0  0
  -28.6828  -10.5298   26.6330 C   0  0  0  0  0  0
  -26.0766  -19.1754   19.6429 C   0  0  0  0  0  0
  -29.2924  -26.7196   21.1556 C   0  0  0  0  0  0
  -27.6278  -11.5548   26.1833 C   0  0  0  0  0  0
  -26.6148  -18.2334   18.5384 C   0  0  0  0  0  0
  -26.6224  -18.8098   17.1101 C   0  0  0  0  0  0
  -27.9174  -19.5304   16.6742 C   0  0  0  0  0  0
  -28.1989  -20.8634   17.3848 C   0  0  0  0  0  0
  -29.1373  -20.7463   18.5975 C   0  0  0  0  0  0
  -29.0545  -21.9936   19.4879 C   0  0  0  0  0  0
  -29.9158  -21.9069   20.7584 C   0  0  0  0  0  0
  -28.1069  -12.4988   25.0655 C   0  0  0  0  0  0
  -29.5218  -22.9458   21.8197 C   0  0  0  0  0  0
  -29.1616  -13.5234   25.5190 C   0  0  0  0  0  0
  -27.4739  -18.3523   21.4361 N   0  0  0  0  0  0
  -30.7470  -14.8249   21.9708 N   0  0  0  0  0  0
  -29.6222  -24.3045   21.3019 N   0  0  0  0  0  0
  -25.2127  -18.1956   21.6609 O   0  0  0  0  0  0
  -28.5825  -25.3513   23.0065 O   0  0  0  0  0  0
  -29.7601  -14.1545   24.3947 O   0  0  0  0  0  0
  -31.4583  -12.4008   19.0602 H   0  0  0  0  0  0
  -30.3232  -11.2623   19.7068 H   0  0  0  0  0  0
  -29.6986  -11.8652   17.3639 H   0  0  0  0  0  0
  -29.6507  -13.5568   17.7912 H   0  0  0  0  0  0
  -27.8030  -11.3470   18.7533 H   0  0  0  0  0  0
  -27.3481  -12.7318   17.7929 H   0  0  0  0  0  0
  -27.7480  -14.2641   19.6510 H   0  0  0  0  0  0
  -28.6876  -11.8423   21.2551 H   0  0  0  0  0  0
  -28.4639  -13.4131   21.9073 H   0  0  0  0  0  0
  -25.2756   -9.5635   22.4789 H   0  0  0  0  0  0
  -23.9960   -7.4619   22.7506 H   0  0  0  0  0  0
  -21.0824   -8.8762   19.8983 H   0  0  0  0  0  0
  -22.3703  -10.9651   19.6169 H   0  0  0  0  0  0
  -21.2025   -7.6146   23.9692 H   0  0  0  0  0  0
  -21.1490   -6.0547   25.9073 H   0  0  0  0  0  0
  -22.0602   -2.7604   23.2876 H   0  0  0  0  0  0
  -22.4078  -11.9888   22.4797 H   0  0  0  0  0  0
  -21.1134  -13.1305   22.2576 H   0  0  0  0  0  0
  -24.7118  -15.8465   20.6543 H   0  0  0  0  0  0
  -26.3368  -15.6181   20.2648 H   0  0  0  0  0  0
  -26.7082  -32.5586   23.1190 H   0  0  0  0  0  0
  -25.0040  -33.9804   25.0500 H   0  0  0  0  0  0
  -22.6824  -31.3053   21.4094 H   0  0  0  0  0  0
  -23.3734  -35.9675   23.3323 H   0  0  0  0  0  0
  -24.3576  -36.8916   22.2046 H   0  0  0  0  0  0
  -23.7256  -37.6549   23.6633 H   0  0  0  0  0  0
  -26.0093  -31.6179   20.5791 H   0  0  0  0  0  0
  -26.8097  -30.9226   21.9616 H   0  0  0  0  0  0
  -28.0863  -29.2109   21.1327 H   0  0  0  0  0  0
  -26.1186  -25.9893   19.0293 H   0  0  0  0  0  0
  -24.0000  -27.2769   19.0485 H   0  0  0  0  0  0
  -23.7059  -30.5875   19.4018 H   0  0  0  0  0  0
  -22.7327  -29.2274   19.8745 H   0  0  0  0  0  0
  -25.1279  -36.1993   25.0835 H   0  0  0  0  0  0
  -20.9940  -28.3214   24.1460 H   0  0  0  0  0  0
  -20.5655  -26.2258   23.3603 H   0  0  0  0  0  0
  -21.6629  -26.7444   22.1220 H   0  0  0  0  0  0
  -19.6896  -25.6307   21.1229 H   0  0  0  0  0  0
  -19.6677  -27.3215   20.6755 H   0  0  0  0  0  0
  -17.4183  -26.6677   21.4029 H   0  0  0  0  0  0
  -18.0317  -26.0068   22.9018 H   0  0  0  0  0  0
  -19.7919  -30.7251   24.2308 H   0  0  0  0  0  0
  -17.5001  -31.6266   24.5171 H   0  0  0  0  0  0
  -15.5339  -30.3001   23.7631 H   0  0  0  0  0  0
  -15.8657  -28.0836   22.7042 H   0  0  0  0  0  0
  -24.5915  -30.7052   25.7821 H   0  0  0  0  0  0
  -24.8971  -32.2833   26.4979 H   0  0  0  0  0  0
  -25.8136  -30.8816   27.0203 H   0  0  0  0  0  0
  -26.2794  -29.6822   24.1129 H   0  0  0  0  0  0
  -27.4131  -29.7284   25.4448 H   0  0  0  0  0  0
  -27.8595  -30.4399   23.9101 H   0  0  0  0  0  0
  -27.2688  -33.3584   26.2100 H   0  0  0  0  0  0
  -28.3832  -32.6905   25.0267 H   0  0  0  0  0  0
  -28.0766  -31.8396   26.5327 H   0  0  0  0  0  0
  -28.2616  -38.0094   24.7495 H   0  0  0  0  0  0
  -28.1054  -36.2628   24.6310 H   0  0  0  0  0  0
  -27.2296  -37.1496   25.8868 H   0  0  0  0  0  0
  -20.9270  -29.8739   21.6971 H   0  0  0  0  0  0
  -26.0188  -38.2882   24.1404 H   0  0  0  0  0  0
  -26.5164  -17.4186   23.8574 H   0  0  0  0  0  0
  -27.5116  -15.6039   25.1628 H   0  0  0  0  0  0
  -29.5140  -16.8902   20.7973 H   0  0  0  0  0  0
  -28.2661   -9.8429   27.3709 H   0  0  0  0  0  0
  -29.5501  -11.0060   27.0931 H   0  0  0  0  0  0
  -29.0398   -9.9285   25.7945 H   0  0  0  0  0  0
  -26.6018  -20.1256   19.6577 H   0  0  0  0  0  0
  -25.0294  -19.4094   19.4614 H   0  0  0  0  0  0
  -30.3171  -26.8027   20.7931 H   0  0  0  0  0  0
  -29.1526  -27.5330   21.8650 H   0  0  0  0  0  0
  -27.2858  -12.1304   27.0431 H   0  0  0  0  0  0
  -26.7550  -11.0076   25.8253 H   0  0  0  0  0  0
  -25.9794  -17.3465   18.5379 H   0  0  0  0  0  0
  -27.6117  -17.8631   18.7803 H   0  0  0  0  0  0
  -25.7511  -19.4465   16.9580 H   0  0  0  0  0  0
  -26.4841  -17.9692   16.4268 H   0  0  0  0  0  0
  -27.8160  -19.7458   15.6100 H   0  0  0  0  0  0
  -28.7784  -18.8660   16.7484 H   0  0  0  0  0  0
  -27.2550  -21.3299   17.6653 H   0  0  0  0  0  0
  -28.6613  -21.5528   16.6775 H   0  0  0  0  0  0
  -30.1632  -20.5940   18.2571 H   0  0  0  0  0  0
  -28.8875  -19.8654   19.1855 H   0  0  0  0  0  0
  -28.0132  -22.1449   19.7758 H   0  0  0  0  0  0
  -29.3450  -22.8702   18.9081 H   0  0  0  0  0  0
  -30.9701  -22.0155   20.4992 H   0  0  0  0  0  0
  -29.8137  -20.9155   21.2007 H   0  0  0  0  0  0
  -27.2474  -13.0291   24.6570 H   0  0  0  0  0  0
  -28.5044  -11.9040   24.2406 H   0  0  0  0  0  0
  -30.1550  -22.8409   22.7008 H   0  0  0  0  0  0
  -28.4986  -22.7574   22.1491 H   0  0  0  0  0  0
  -29.9716  -13.0070   26.0353 H   0  0  0  0  0  0
  -28.7674  -14.2360   26.2419 H   0  0  0  0  0  0
  -28.1612  -18.7653   20.8216 H   0  0  0  0  0  0
  -31.6206  -15.2457   22.2509 H   0  0  0  0  0  0
  -30.0702  -24.4381   20.4060 H   0  0  0  0  0  0
  1 25  1  0  0  0
  1 30  2  0  0  0
  1 94  1  0  0  0
  2  3  1  0  0  0
  2 25  1  0  0  0
  2 99  1  0  0  0
  2100  1  0  0  0
  3  4  1  0  0  0
  3101  1  0  0  0
  3102  1  0  0  0
  4  5  1  0  0  0
  4103  1  0  0  0
  4104  1  0  0  0
  5  6  1  0  0  0
  5 26  1  0  0  0
  5105  1  0  0  0
  6 25  1  0  0  0
  6106  1  0  0  0
  6107  1  0  0  0
  7  8  2  0  0  0
  7 26  1  0  0  0
  7 29  1  0  0  0
  8  9  1  0  0  0
  8 22  1  0  0  0
  9 10  1  0  0  0
  9 27  2  0  0  0
 10 11  2  0  0  0
 10 15  1  0  0  0
 11 12  1  0  0  0
 11108  1  0  0  0
 12 13  2  0  0  0
 12109  1  0  0  0
 13 14  1  0  0  0
 13 31  1  0  0  0
 14 15  2  0  0  0
 14110  1  0  0  0
 15111  1  0  0  0
 16 17  2  0  0  0
 16 21  1  0  0  0
 16 31  1  0  0  0
 17 18  1  0  0  0
 17112  1  0  0  0
 18 19  2  0  0  0
 18113  1  0  0  0
 19 20  1  0  0  0
 19 24  1  0  0  0
 20 21  2  0  0  0
 20114  1  0  0  0
 21 23  1  0  0  0
 22 28  1  0  0  0
 22 32  2  0  0  0
 26 27  1  0  0  0
 28115  1  0  0  0
 28116  1  0  0  0
 29117  1  0  0  0
 29118  1  0  0  0
 33 34  1  0  0  0
 33 66  1  0  0  0
 33 70  2  0  0  0
 34 36  1  0  0  0
 34 59  1  0  0  0
 34119  1  0  0  0
 35 44  2  0  0  0
 35 45  1  0  0  0
 35 68  1  0  0  0
 36 56  1  0  0  0
 36120  1  0  0  0
 37 39  1  0  0  0
 37 47  1  0  0  0
 37 66  1  0  0  0
 37121  1  0  0  0
 38 43  2  0  0  0
 38 46  1  0  0  0
 38 47  1  0  0  0
 39 64  1  0  0  0
 39 67  2  0  0  0
 40 52  1  0  0  0
 40 53  2  0  0  0
 40 58  1  0  0  0
 41122  1  0  0  0
 41123  1  0  0  0
 41124  1  0  0  0
 41 48  1  0  0  0
 42 43  1  0  0  0
 42 66  1  0  0  0
 42125  1  0  0  0
 42126  1  0  0  0
 43 44  1  0  0  0
 44127  1  0  0  0
 45 46  2  0  0  0
 45128  1  0  0  0
 46129  1  0  0  0
 47130  1  0  0  0
 47131  1  0  0  0
 48 56  1  0  0  0
 48 65  1  0  0  0
 48132  1  0  0  0
 49 50  1  0  0  0
 49 53  1  0  0  0
 49 64  1  0  0  0
 49133  1  0  0  0
 50 51  1  0  0  0
 50134  1  0  0  0
 50135  1  0  0  0
 51 52  1  0  0  0
 51136  1  0  0  0
 51137  1  0  0  0
 52138  1  0  0  0
 52139  1  0  0  0
 53 54  1  0  0  0
 54 55  2  0  0  0
 54140  1  0  0  0
 55 57  1  0  0  0
 55141  1  0  0  0
 56 69  2  0  0  0
 57 58  2  0  0  0
 57142  1  0  0  0
 58143  1  0  0  0
 59 60  1  0  0  0
 59 61  1  0  0  0
 59 62  1  0  0  0
 60144  1  0  0  0
 60145  1  0  0  0
 60146  1  0  0  0
 61147  1  0  0  0
 61148  1  0  0  0
 61149  1  0  0  0
 62150  1  0  0  0
 62151  1  0  0  0
 62152  1  0  0  0
 63 65  1  0  0  0
 63153  1  0  0  0
 63154  1  0  0  0
 63155  1  0  0  0
 64156  1  0  0  0
 65157  1  0  0  0
 68 81  1  0  0  0
 71 72  2  0  0  0
 71 74  1  0  0  0
 71158  1  0  0  0
 72 76  1  0  0  0
 72159  1  0  0  0
 73 74  2  0  0  0
 73 75  1  0  0  0
 73160  1  0  0  0
 74 93  1  0  0  0
 75 76  2  0  0  0
 75 94  1  0  0  0
 76 98  1  0  0  0
 77 80  1  0  0  0
 77 93  1  0  0  0
 77 96  2  0  0  0
 78 81  1  0  0  0
 78 95  1  0  0  0
 78 97  2  0  0  0
 79 82  1  0  0  0
 79161  1  0  0  0
 79162  1  0  0  0
 79163  1  0  0  0
 80 83  1  0  0  0
 80164  1  0  0  0
 80165  1  0  0  0
 81166  1  0  0  0
 81167  1  0  0  0
 82 90  1  0  0  0
 82168  1  0  0  0
 82169  1  0  0  0
 83 84  1  0  0  0
 83170  1  0  0  0
 83171  1  0  0  0
 84 85  1  0  0  0
 84172  1  0  0  0
 84173  1  0  0  0
 85 86  1  0  0  0
 85174  1  0  0  0
 85175  1  0  0  0
 86 87  1  0  0  0
 86176  1  0  0  0
 86177  1  0  0  0
 87 88  1  0  0  0
 87178  1  0  0  0
 87179  1  0  0  0
 88 89  1  0  0  0
 88180  1  0  0  0
 88181  1  0  0  0
 89 91  1  0  0  0
 89182  1  0  0  0
 89183  1  0  0  0
 90 92  1  0  0  0
 90184  1  0  0  0
 90185  1  0  0  0
 91 95  1  0  0  0
 91186  1  0  0  0
 91187  1  0  0  0
 92 98  1  0  0  0
 92188  1  0  0  0
 92189  1  0  0  0
 93190  1  0  0  0
 94191  1  0  0  0
 95192  1  0  0  0
M  ISO  4   1 100  68 101  81 101  94 100
M  END
> <chiral flag>
0

> <version>
0

> <s_m_source_file>
/data/baiqing/PycharmProjects/Reinvent-master-3.2/result/LINK_invent/BTK/process_docking_weight1_custom_sum_contain_oxygen_bond_distance_aromatic_linkinvent_7_9_3/rearranged_h_0005.sdf

> <i_m_source_file_index>
9

> <r_mmod_Potential_Energy-OPLS-2005>
-54.9446182250977

> <r_mmod_Stretch_Energy-OPLS-2005>
34.3703651428223

> <r_mmod_Bend_Energy-OPLS-2005>
132.61083984375

> <r_mmod_Torsional_Energy-OPLS-2005>
328.602081298828

> <r_mmod_Improper_Torsional_Energy-OPLS-2005>
10.4369201660156

> <r_mmod_Van_der_Waal_Energy-OPLS-2005>
127.407150268555

> <r_mmod_Electrostatic_Energy-OPLS-2005>
-459.396850585938

> <r_mmod_Solvation_Energy-OPLS-2005>
-237.000534057617

> <b_mmod_Minimization_Converged-OPLS-2005>
0

> <r_mmod_RMS_Derivative-OPLS-2005>
3.36819005012512

$$$$
9
                    3D
 Structure written by MMmdl.
209217  0  0  1  0            999 V2000
  -30.6604  -14.5716   20.1744 C   0  0  0  0  0  0
  -31.3253  -12.6619   19.1107 C   0  0  0  0  0  0
  -30.4574  -12.2069   17.4992 C   0  0  0  0  0  0
  -28.6246  -11.8819   17.3627 C   0  0  0  0  0  0
  -27.4979  -12.7481   20.2794 C   0  0  2  0  0  0
  -29.0110  -13.1538   21.3015 C   0  0  0  0  0  0
  -25.1614  -13.7935   20.7072 C   0  0  0  0  0  0
  -24.0376  -13.1012   21.0025 C   0  0  0  0  0  0
  -24.3915  -11.7394   21.0902 C   0  0  0  0  0  0
  -23.6381  -10.5152   21.2281 C   0  0  0  0  0  0
  -23.9253   -9.6221   22.2728 C   0  0  0  0  0  0
  -23.3868   -8.3345   22.2756 C   0  0  0  0  0  0
  -22.3604   -8.0252   21.3553 C   0  0  0  0  0  0
  -21.9946   -8.9683   20.3661 C   0  0  0  0  0  0
  -22.6464  -10.2103   20.2805 C   0  0  0  0  0  0
  -21.6641   -6.0481   22.5100 C   0  0  0  0  0  0
  -21.3582   -6.5526   23.7987 C   0  0  0  0  0  0
  -21.3628   -5.6852   24.9058 C   0  0  0  0  0  0
  -21.6137   -4.3129   24.7238 C   0  0  0  0  0  0
  -21.8851   -3.8095   23.4443 C   0  0  0  0  0  0
  -21.9186   -4.6745   22.3401 C   0  0  0  0  0  0
  -22.6743  -13.6234   21.1836 C   0  0  0  0  0  0
  -22.1798   -4.1796   21.1087 F   0  0  0  0  0  0
  -21.5826   -3.4798   25.7888 F   0  0  0  0  0  0
  -30.5581  -13.3396   20.5343 N   0  0  0  0  0  0
  -26.1350  -12.8049   20.7299 N   0  0  0  0  0  0
  -25.6634  -11.6321   21.0988 N   0  0  0  0  0  0
  -21.9458  -12.9811   22.0781 N   0  0  0  0  0  0
  -25.4215  -15.1436   20.4361 N   0  0  0  0  0  0
  -31.7176  -15.1915   20.2009 O   0  0  0  0  0  0
  -21.6722   -6.8406   21.3875 O   0  0  0  0  0  0
  -22.2910  -14.6405   20.6068 O   0  0  0  0  0  0
  -24.6174  -31.8640   23.2056 C   0  0  0  0  0  0
  -25.9077  -32.4780   23.8369 C   0  0  1  0  0  0
  -27.1882  -27.3234   20.1724 C   0  0  0  0  0  0
  -25.5893  -33.8582   24.2277 N   0  0  0  0  0  0
  -23.4099  -30.4911   21.5398 C   0  0  2  0  0  0
  -24.8606  -28.9633   20.0941 C   0  0  0  0  0  0
  -22.7432  -29.4683   22.4857 C   0  0  0  0  0  0
  -18.0267  -28.1377   22.8487 C   0  0  0  0  0  0
  -24.1513  -36.7307   23.2643 C   0  0  0  0  0  0
  -25.9500  -30.8077   21.3762 C   0  0  0  0  0  0
  -26.0245  -29.4424   20.7133 C   0  0  0  0  0  0
  -27.1991  -28.6295   20.7463 C   0  0  0  0  0  0
  -26.0281  -26.9163   19.4875 C   0  0  0  0  0  0
  -24.8683  -27.7080   19.4742 C   0  0  0  0  0  0
  -23.6252  -29.8390   20.1480 C   0  0  0  0  0  0
  -25.4127  -36.3069   24.0328 C   0  0  1  0  0  0
  -20.5878  -28.3714   23.1263 C   0  0  2  0  0  0
  -20.6765  -26.9425   22.5441 C   0  0  0  0  0  0
  -19.5776  -26.6373   21.5207 C   0  0  0  0  0  0
  -18.1951  -26.7927   22.1600 C   0  0  0  0  0  0
  -19.1523  -28.8828   23.2896 C   0  0  0  0  0  0
  -18.9468  -30.1433   23.8910 C   0  0  0  0  0  0
  -17.6476  -30.6584   24.0584 C   0  0  0  0  0  0
  -25.9038  -34.9447   23.5088 C   0  0  0  0  0  0
  -16.5361  -29.9091   23.6347 C   0  0  0  0  0  0
  -16.7263  -28.6509   23.0359 C   0  0  0  0  0  0
  -26.4453  -31.6577   25.0729 C   0  0  0  0  0  0
  -25.3707  -31.3818   26.1487 C   0  0  0  0  0  0
  -27.0231  -30.2941   24.6253 C   0  0  0  0  0  0
  -27.6013  -32.4327   25.7502 C   0  0  0  0  0  0
  -27.5588  -37.1802   24.8445 C   0  0  0  0  0  0
  -21.4150  -29.3056   22.3630 N   0  0  0  0  0  0
  -26.4302  -37.3762   23.9386 N   0  0  0  0  0  0
  -24.6772  -31.0696   22.0964 N   0  0  0  0  0  0
  -23.4223  -28.8223   23.2934 O   0  0  0  0  0  0
  -28.2078  -26.3867   20.3381 O   0  0  0  0  0  0
  -26.5637  -34.8903   22.4677 O   0  0  0  0  0  0
  -23.5360  -32.1493   23.7320 O   0  0  0  0  0  0
  -28.2032  -10.5529   19.2935 C   0  0  0  0  0  0
  -29.2234  -11.6046   19.4763 C   0  0  0  0  0  0
  -27.3885  -13.7001   18.1313 C   0  0  0  0  0  0
  -26.8408  -10.8932   18.7350 C   0  0  0  0  0  0
  -28.9296  -13.5405   18.8101 C   0  0  0  0  0  0
  -26.4061  -12.3504   18.1211 C   0  0  0  0  0  0
  -25.8703  -10.5786   25.0872 C   0  0  0  0  0  0
  -26.8023  -10.8532   24.1509 C   0  0  0  0  0  0
  -26.9839  -13.6765   24.4121 C   0  0  0  0  0  0
  -25.8864   -5.9990   27.6556 C   0  0  0  0  0  0
  -27.6680   -4.5530   28.4811 C   0  0  0  0  0  0
  -26.1191   -9.6019   19.2235 C   0  0  0  0  0  0
  -27.4373  -12.2535   23.8885 C   0  0  0  0  0  0
  -26.6109   -8.9725   20.7061 C   0  0  0  0  0  0
  -27.7042  -19.8940   22.4955 C   0  0  0  0  0  0
  -28.3925  -21.0686   21.6469 C   0  0  0  0  0  0
  -28.4096  -18.4639   22.5299 C   0  0  0  0  0  0
  -27.9464  -22.5828   21.9135 C   0  0  0  0  0  0
  -27.5969  -17.0961   22.7179 C   0  0  0  0  0  0
  -28.4447   -7.5425   24.3378 C   0  0  0  0  0  0
  -28.0358   -7.3439   25.8252 C   0  0  0  0  0  0
  -28.2745  -23.7440   20.8457 C   0  0  0  0  0  0
  -27.8167  -16.1961   24.0137 C   0  0  0  0  0  0
  -27.6157   -9.6734   21.8171 C   0  0  0  0  0  0
  -28.5674   -9.0642   24.0151 C   0  0  0  0  0  0
  -28.0256   -5.8967   26.4010 C   0  0  0  0  0  0
  -27.8411  -25.2387   21.2119 C   0  0  0  0  0  0
  -29.6931  -14.7146   19.2399 N   0  0  0  0  0  0
  -27.6375  -14.7173   23.8199 N   0  0  0  0  0  0
  -27.3737   -9.6400   23.3257 N   0  3  1  0  0  0
  -27.3523   -5.7941   27.7291 N   0  3  0  0  0  0
  -26.1119  -13.8136   25.2792 O   0  0  0  0  0  0
  -25.1321  -12.5028   17.6808 F   0  0  0  0  0  0
  -32.2014  -13.2443   18.7984 H   0  0  0  0  0  0
  -31.8557  -11.7732   19.4768 H   0  0  0  0  0  0
  -30.9903  -11.3750   17.0223 H   0  0  0  0  0  0
  -30.6333  -13.0591   16.8427 H   0  0  0  0  0  0
  -28.5030  -10.8617   16.9818 H   0  0  0  0  0  0
  -28.2948  -12.3791   16.4348 H   0  0  0  0  0  0
  -27.4410  -13.8318   20.4308 H   0  0  0  0  0  0
  -29.2587  -12.3872   22.0271 H   0  0  0  0  0  0
  -28.8458  -14.0638   21.8607 H   0  0  0  0  0  0
  -24.6225   -9.9150   23.0437 H   0  0  0  0  0  0
  -23.6660   -7.6238   23.0457 H   0  0  0  0  0  0
  -21.2232   -8.7439   19.6400 H   0  0  0  0  0  0
  -22.3742  -10.9198   19.5094 H   0  0  0  0  0  0
  -21.1205   -7.5985   23.9418 H   0  0  0  0  0  0
  -21.1543   -6.0585   25.8914 H   0  0  0  0  0  0
  -22.0598   -2.7554   23.2989 H   0  0  0  0  0  0
  -22.3230  -12.2283   22.6387 H   0  0  0  0  0  0
  -21.0337  -13.3520   22.2917 H   0  0  0  0  0  0
  -24.7047  -15.8546   20.4869 H   0  0  0  0  0  0
  -26.3296  -15.5574   20.3083 H   0  0  0  0  0  0
  -26.7186  -32.5465   23.1175 H   0  0  0  0  0  0
  -24.9984  -33.9799   25.0360 H   0  0  0  0  0  0
  -22.7055  -31.3132   21.4006 H   0  0  0  0  0  0
  -23.3753  -35.9653   23.3280 H   0  0  0  0  0  0
  -24.3611  -36.8957   22.2061 H   0  0  0  0  0  0
  -23.7315  -37.6524   23.6681 H   0  0  0  0  0  0
  -26.0932  -31.5895   20.6261 H   0  0  0  0  0  0
  -26.8220  -30.8384   22.0189 H   0  0  0  0  0  0
  -28.0678  -28.9796   21.2793 H   0  0  0  0  0  0
  -25.9961  -25.9369   19.0274 H   0  0  0  0  0  0
  -23.9701  -27.3330   19.0018 H   0  0  0  0  0  0
  -23.7440  -30.6260   19.4027 H   0  0  0  0  0  0
  -22.7431  -29.2724   19.8371 H   0  0  0  0  0  0
  -25.1324  -36.1933   25.0828 H   0  0  0  0  0  0
  -21.0007  -28.3271   24.1359 H   0  0  0  0  0  0
  -20.5622  -26.2323   23.3665 H   0  0  0  0  0  0
  -21.6663  -26.7449   22.1287 H   0  0  0  0  0  0
  -19.7000  -25.6275   21.1262 H   0  0  0  0  0  0
  -19.6709  -27.3163   20.6727 H   0  0  0  0  0  0
  -17.4246  -26.6656   21.3999 H   0  0  0  0  0  0
  -18.0367  -26.0050   22.8968 H   0  0  0  0  0  0
  -19.7942  -30.7240   24.2312 H   0  0  0  0  0  0
  -17.5033  -31.6277   24.5184 H   0  0  0  0  0  0
  -15.5380  -30.3031   23.7606 H   0  0  0  0  0  0
  -15.8663  -28.0836   22.7072 H   0  0  0  0  0  0
  -24.6021  -30.6930   25.7983 H   0  0  0  0  0  0
  -24.8731  -32.2991   26.4641 H   0  0  0  0  0  0
  -25.8079  -30.9369   27.0438 H   0  0  0  0  0  0
  -26.2774  -29.6747   24.1260 H   0  0  0  0  0  0
  -27.3793  -29.7194   25.4819 H   0  0  0  0  0  0
  -27.8729  -30.4119   23.9531 H   0  0  0  0  0  0
  -27.2614  -33.3689   26.1982 H   0  0  0  0  0  0
  -28.3865  -32.6808   25.0335 H   0  0  0  0  0  0
  -28.0633  -31.8529   26.5529 H   0  0  0  0  0  0
  -28.2601  -38.0098   24.7432 H   0  0  0  0  0  0
  -28.1081  -36.2617   24.6303 H   0  0  0  0  0  0
  -27.2293  -37.1500   25.8848 H   0  0  0  0  0  0
  -20.9263  -29.8779   21.6864 H   0  0  0  0  0  0
  -26.0172  -38.2835   24.1362 H   0  0  0  0  0  0
  -28.5374   -9.5566   19.5173 H   0  0  0  0  0  0
  -29.9997  -11.1137   20.0513 H   0  0  0  0  0  0
  -26.9954  -14.6533   17.7978 H   0  0  0  0  0  0
  -25.4038  -11.3332   25.7089 H   0  0  0  0  0  0
  -25.5507   -9.5631   25.2709 H   0  0  0  0  0  0
  -25.4354   -5.9464   28.6461 H   0  0  0  0  0  0
  -25.4288   -5.2302   27.0344 H   0  0  0  0  0  0
  -25.6182   -6.9711   27.2434 H   0  0  0  0  0  0
  -27.1615   -4.5716   29.4538 H   0  0  0  0  0  0
  -28.7415   -4.4581   28.6710 H   0  0  0  0  0  0
  -27.3176   -3.6723   27.9385 H   0  0  0  0  0  0
  -26.2394   -8.8409   18.4516 H   0  0  0  0  0  0
  -25.0459   -9.7564   19.2112 H   0  0  0  0  0  0
  -27.2614  -12.3866   22.8458 H   0  0  0  0  0  0
  -28.5167  -12.1516   24.0273 H   0  0  0  0  0  0
  -26.8605   -7.9043   20.6074 H   0  0  0  0  0  0
  -25.7238   -8.8488   21.2392 H   0  0  0  0  0  0
  -26.6789  -19.7823   22.1458 H   0  0  0  0  0  0
  -27.6306  -20.2262   23.5305 H   0  0  0  0  0  0
  -28.2445  -20.8547   20.5892 H   0  0  0  0  0  0
  -29.4725  -21.0107   21.7890 H   0  0  0  0  0  0
  -29.2100  -18.5039   23.2706 H   0  0  0  0  0  0
  -28.9410  -18.3589   21.5809 H   0  0  0  0  0  0
  -28.3903  -22.8734   22.8692 H   0  0  0  0  0  0
  -26.8711  -22.5856   22.1055 H   0  0  0  0  0  0
  -27.8948  -16.4642   21.8763 H   0  0  0  0  0  0
  -26.5312  -17.2572   22.5578 H   0  0  0  0  0  0
  -27.7617   -7.0184   23.6557 H   0  0  0  0  0  0
  -29.4238   -7.0834   24.1677 H   0  0  0  0  0  0
  -27.0683   -7.8134   25.9610 H   0  0  0  0  0  0
  -28.7288   -7.9261   26.4363 H   0  0  0  0  0  0
  -27.7885  -23.4712   19.9007 H   0  0  0  0  0  0
  -29.3531  -23.7409   20.6565 H   0  0  0  0  0  0
  -27.2574  -16.5447   24.8800 H   0  0  0  0  0  0
  -28.8733  -16.3075   24.2679 H   0  0  0  0  0  0
  -27.7918  -10.7157   21.6525 H   0  0  0  0  0  0
  -28.5901   -9.2269   21.5813 H   0  0  0  0  0  0
  -29.4627   -9.2475   23.4204 H   0  0  0  0  0  0
  -28.7833   -9.6158   24.9341 H   0  0  0  0  0  0
  -29.0596   -5.5686   26.5088 H   0  0  0  0  0  0
  -27.5633   -5.1895   25.7168 H   0  0  0  0  0  0
  -28.2449  -25.4785   22.1963 H   0  0  0  0  0  0
  -26.7604  -25.2215   21.3687 H   0  0  0  0  0  0
  -29.5783  -15.6084   18.7863 H   0  0  0  0  0  0
  -28.2673  -14.3782   23.1107 H   0  0  0  0  0  0
  -26.6740   -8.9263   23.4187 H   0  0  0  0  0  0
  -27.7240   -6.5438   28.2902 H   0  0  0  0  0  0
  1 25  1  0  0  0
  1 30  2  0  0  0
  1 98  1  0  0  0
  2  3  1  0  0  0
  2 25  1  0  0  0
  2104  1  0  0  0
  2105  1  0  0  0
  3  4  1  0  0  0
  3106  1  0  0  0
  3107  1  0  0  0
  4  5  1  0  0  0
  4108  1  0  0  0
  4109  1  0  0  0
  5  6  1  0  0  0
  5 26  1  0  0  0
  5110  1  0  0  0
  6 25  1  0  0  0
  6111  1  0  0  0
  6112  1  0  0  0
  7  8  2  0  0  0
  7 26  1  0  0  0
  7 29  1  0  0  0
  8  9  1  0  0  0
  8 22  1  0  0  0
  9 10  1  0  0  0
  9 27  2  0  0  0
 10 11  2  0  0  0
 10 15  1  0  0  0
 11 12  1  0  0  0
 11113  1  0  0  0
 12 13  2  0  0  0
 12114  1  0  0  0
 13 14  1  0  0  0
 13 31  1  0  0  0
 14 15  2  0  0  0
 14115  1  0  0  0
 15116  1  0  0  0
 16 17  2  0  0  0
 16 21  1  0  0  0
 16 31  1  0  0  0
 17 18  1  0  0  0
 17117  1  0  0  0
 18 19  2  0  0  0
 18118  1  0  0  0
 19 20  1  0  0  0
 19 24  1  0  0  0
 20 21  2  0  0  0
 20119  1  0  0  0
 21 23  1  0  0  0
 22 28  1  0  0  0
 22 32  2  0  0  0
 26 27  1  0  0  0
 28120  1  0  0  0
 28121  1  0  0  0
 29122  1  0  0  0
 29123  1  0  0  0
 33 34  1  0  0  0
 33 66  1  0  0  0
 33 70  2  0  0  0
 34 36  1  0  0  0
 34 59  1  0  0  0
 34124  1  0  0  0
 35 44  2  0  0  0
 35 45  1  0  0  0
 35 68  1  0  0  0
 36 56  1  0  0  0
 36125  1  0  0  0
 37 39  1  0  0  0
 37 47  1  0  0  0
 37 66  1  0  0  0
 37126  1  0  0  0
 38 43  2  0  0  0
 38 46  1  0  0  0
 38 47  1  0  0  0
 39 64  1  0  0  0
 39 67  2  0  0  0
 40 52  1  0  0  0
 40 53  2  0  0  0
 40 58  1  0  0  0
 41127  1  0  0  0
 41128  1  0  0  0
 41129  1  0  0  0
 41 48  1  0  0  0
 42 43  1  0  0  0
 42 66  1  0  0  0
 42130  1  0  0  0
 42131  1  0  0  0
 43 44  1  0  0  0
 44132  1  0  0  0
 45 46  2  0  0  0
 45133  1  0  0  0
 46134  1  0  0  0
 47135  1  0  0  0
 47136  1  0  0  0
 48 56  1  0  0  0
 48 65  1  0  0  0
 48137  1  0  0  0
 49 50  1  0  0  0
 49 53  1  0  0  0
 49 64  1  0  0  0
 49138  1  0  0  0
 50 51  1  0  0  0
 50139  1  0  0  0
 50140  1  0  0  0
 51 52  1  0  0  0
 51141  1  0  0  0
 51142  1  0  0  0
 52143  1  0  0  0
 52144  1  0  0  0
 53 54  1  0  0  0
 54 55  2  0  0  0
 54145  1  0  0  0
 55 57  1  0  0  0
 55146  1  0  0  0
 56 69  2  0  0  0
 57 58  2  0  0  0
 57147  1  0  0  0
 58148  1  0  0  0
 59 60  1  0  0  0
 59 61  1  0  0  0
 59 62  1  0  0  0
 60149  1  0  0  0
 60150  1  0  0  0
 60151  1  0  0  0
 61152  1  0  0  0
 61153  1  0  0  0
 61154  1  0  0  0
 62155  1  0  0  0
 62156  1  0  0  0
 62157  1  0  0  0
 63 65  1  0  0  0
 63158  1  0  0  0
 63159  1  0  0  0
 63160  1  0  0  0
 64161  1  0  0  0
 65162  1  0  0  0
 68 97  1  0  0  0
 71 72  2  0  0  0
 71 74  1  0  0  0
 71163  1  0  0  0
 72 75  1  0  0  0
 72164  1  0  0  0
 73 75  2  0  0  0
 73 76  1  0  0  0
 73165  1  0  0  0
 74 76  2  0  0  0
 74 82  1  0  0  0
 75 98  1  0  0  0
 76103  1  0  0  0
 77 78  2  0  0  0
 77166  1  0  0  0
 77167  1  0  0  0
 78 83  1  0  0  0
 78100  1  0  0  0
 79 83  1  0  0  0
 79 99  1  0  0  0
 79102  2  0  0  0
 80168  1  0  0  0
 80169  1  0  0  0
 80170  1  0  0  0
 80101  1  0  0  0
 81101  1  0  0  0
 81171  1  0  0  0
 81172  1  0  0  0
 81173  1  0  0  0
 82 84  1  0  0  0
 82174  1  0  0  0
 82175  1  0  0  0
 83176  1  0  0  0
 83177  1  0  0  0
 84 94  1  0  0  0
 84178  1  0  0  0
 84179  1  0  0  0
 85 86  1  0  0  0
 85 87  1  0  0  0
 85180  1  0  0  0
 85181  1  0  0  0
 86 88  1  0  0  0
 86182  1  0  0  0
 86183  1  0  0  0
 87 89  1  0  0  0
 87184  1  0  0  0
 87185  1  0  0  0
 88 92  1  0  0  0
 88186  1  0  0  0
 88187  1  0  0  0
 89 93  1  0  0  0
 89188  1  0  0  0
 89189  1  0  0  0
 90 91  1  0  0  0
 90 95  1  0  0  0
 90190  1  0  0  0
 90191  1  0  0  0
 91 96  1  0  0  0
 91192  1  0  0  0
 91193  1  0  0  0
 92 97  1  0  0  0
 92194  1  0  0  0
 92195  1  0  0  0
 93 99  1  0  0  0
 93196  1  0  0  0
 93197  1  0  0  0
 94198  1  0  0  0
 94199  1  0  0  0
 94100  1  0  0  0
 95100  1  0  0  0
 95200  1  0  0  0
 95201  1  0  0  0
 96101  1  0  0  0
 96202  1  0  0  0
 96203  1  0  0  0
 97204  1  0  0  0
 97205  1  0  0  0
 98206  1  0  0  0
 99207  1  0  0  0
100208  1  0  0  0
101209  1  0  0  0
M  CHG  2 100   1 101   1
M  ISO  4   1 100  68 101  97 101  98 100
M  END
> <chiral flag>
0

> <version>
0

> <s_m_source_file>
/data/baiqing/PycharmProjects/Reinvent-master-3.2/result/LINK_invent/BTK/process_docking_weight1_custom_sum_contain_oxygen_bond_distance_aromatic_linkinvent_7_9_3/rearranged_h_0005.sdf

> <i_m_source_file_index>
10

> <r_mmod_Potential_Energy-OPLS-2005>
9616.4970703125

> <r_mmod_Stretch_Energy-OPLS-2005>
5468.0908203125

> <r_mmod_Bend_Energy-OPLS-2005>
716.068115234375

> <r_mmod_Torsional_Energy-OPLS-2005>
453.316009521484

> <r_mmod_Improper_Torsional_Energy-OPLS-2005>
36.3798866271973

> <r_mmod_Van_der_Waal_Energy-OPLS-2005>
2966.26025390625

> <r_mmod_Electrostatic_Energy-OPLS-2005>
101.851615905762

> <r_mmod_Solvation_Energy-OPLS-2005>
-936.447937011719

> <b_mmod_Minimization_Converged-OPLS-2005>
0

> <r_mmod_RMS_Derivative-OPLS-2005>
21.0493354797363

$$$$
10
                    3D
 Structure written by MMmdl.
225233  0  0  1  0            999 V2000
  -30.0346  -13.0011   20.1772 C   0  0  0  0  0  0
  -31.2116  -12.5989   19.2143 C   0  0  0  0  0  0
  -29.8718  -12.9814   17.8433 C   0  0  0  0  0  0
  -28.1634  -13.0860   18.3560 C   0  0  0  0  0  0
  -27.6895  -13.4216   20.0103 C   0  0  2  0  0  0
  -28.9243  -13.1665   21.3727 C   0  0  0  0  0  0
  -25.2291  -13.8656   20.5764 C   0  0  0  0  0  0
  -24.1782  -13.0680   20.9350 C   0  0  0  0  0  0
  -24.6543  -11.7309   20.8952 C   0  0  0  0  0  0
  -23.9129  -10.4551   21.0556 C   0  0  0  0  0  0
  -24.3662   -9.4238   21.9092 C   0  0  0  0  0  0
  -23.6464   -8.2146   22.0370 C   0  0  0  0  0  0
  -22.4264   -8.0393   21.3433 C   0  0  0  0  0  0
  -21.9721   -9.0607   20.4900 C   0  0  0  0  0  0
  -22.7121  -10.2534   20.3494 C   0  0  0  0  0  0
  -21.6868   -6.0875   22.5243 C   0  0  0  0  0  0
  -21.4013   -6.5707   23.8234 C   0  0  0  0  0  0
  -21.3592   -5.6796   24.9132 C   0  0  0  0  0  0
  -21.6086   -4.3065   24.7183 C   0  0  0  0  0  0
  -21.8841   -3.8251   23.4254 C   0  0  0  0  0  0
  -21.9270   -4.7124   22.3359 C   0  0  0  0  0  0
  -22.7745  -13.5239   21.2118 C   0  0  0  0  0  0
  -22.1761   -4.2297   21.0953 F   0  0  0  0  0  0
  -21.5686   -3.4503   25.7611 F   0  0  0  0  0  0
  -30.5984  -12.7567   20.9233 N   0  0  0  0  0  0
  -26.3123  -13.0313   20.3860 N   0  0  0  0  0  0
  -25.9597  -11.7415   20.6162 N   0  0  0  0  0  0
  -22.0548  -12.8094   22.0695 N   0  0  0  0  0  0
  -25.3693  -15.2402   20.4109 N   0  0  0  0  0  0
  -30.1827  -14.3784   19.9195 O   0  0  0  0  0  0
  -21.6662   -6.8955   21.4117 O   0  0  0  0  0  0
  -22.3322  -14.5403   20.6896 O   0  0  0  0  0  0
  -24.6056  -31.8696   23.2171 C   0  0  0  0  0  0
  -25.8995  -32.4836   23.8394 C   0  0  1  0  0  0
  -27.2493  -27.4853   20.0825 C   0  0  0  0  0  0
  -25.5861  -33.8648   24.2288 N   0  0  0  0  0  0
  -23.3912  -30.4932   21.5576 C   0  0  2  0  0  0
  -24.8470  -28.9776   20.1127 C   0  0  0  0  0  0
  -22.7401  -29.4581   22.5010 C   0  0  0  0  0  0
  -18.0249  -28.1364   22.8500 C   0  0  0  0  0  0
  -24.1503  -36.7374   23.2616 C   0  0  0  0  0  0
  -25.9199  -30.8388   21.3824 C   0  0  0  0  0  0
  -26.0010  -29.4808   20.7274 C   0  0  0  0  0  0
  -27.2002  -28.7372   20.7247 C   0  0  0  0  0  0
  -26.0979  -27.0208   19.4116 C   0  0  0  0  0  0
  -24.8876  -27.7381   19.4518 C   0  0  0  0  0  0
  -23.6013  -29.8351   20.1673 C   0  0  0  0  0  0
  -25.4122  -36.3140   24.0290 C   0  0  1  0  0  0
  -20.5864  -28.3537   23.1356 C   0  0  2  0  0  0
  -20.6689  -26.9312   22.5363 C   0  0  0  0  0  0
  -19.5693  -26.6507   21.5078 C   0  0  0  0  0  0
  -18.1879  -26.7949   22.1541 C   0  0  0  0  0  0
  -19.1542  -28.8747   23.2941 C   0  0  0  0  0  0
  -18.9553  -30.1356   23.8949 C   0  0  0  0  0  0
  -17.6601  -30.6581   24.0630 C   0  0  0  0  0  0
  -25.9025  -34.9496   23.5088 C   0  0  0  0  0  0
  -16.5436  -29.9140   23.6430 C   0  0  0  0  0  0
  -16.7268  -28.6554   23.0412 C   0  0  0  0  0  0
  -26.4447  -31.6636   25.0736 C   0  0  0  0  0  0
  -25.3718  -31.3764   26.1489 C   0  0  0  0  0  0
  -27.0233  -30.3031   24.6190 C   0  0  0  0  0  0
  -27.5998  -32.4384   25.7517 C   0  0  0  0  0  0
  -27.5595  -37.1842   24.8445 C   0  0  0  0  0  0
  -21.4127  -29.2979   22.3823 N   0  0  0  0  0  0
  -26.4312  -37.3820   23.9376 N   0  0  0  0  0  0
  -24.6548  -31.0815   22.1084 N   0  0  0  0  0  0
  -23.4247  -28.8068   23.2952 O   0  0  0  0  0  0
  -28.4209  -26.7644   20.0412 O   0  0  0  0  0  0
  -26.5632  -34.8951   22.4689 O   0  0  0  0  0  0
  -23.5265  -32.1433   23.7607 O   0  0  0  0  0  0
  -29.8334  -10.2328   17.7117 C   0  0  0  0  0  0
  -27.7754   -9.6953   16.5222 C   0  0  0  0  0  0
  -29.1575   -9.9348   16.5004 C   0  0  0  0  0  0
  -27.8345   -9.8215   18.9568 C   0  0  0  0  0  0
  -29.0839  -10.4907   18.9015 C   0  0  0  0  0  0
  -27.1016   -9.5855   17.7497 C   0  0  0  0  0  0
  -27.6900  -24.4751   20.4884 C   0  0  0  0  0  0
  -29.8497  -10.0128   15.1512 C   0  0  0  0  0  0
  -27.3633   -9.2597   20.2797 C   0  0  0  0  0  0
  -25.3305   -7.2464   16.2141 C   0  0  0  0  0  0
  -24.4569   -7.2524   18.5835 C   0  0  0  0  0  0
  -19.3253  -10.1853   17.6290 C   0  0  0  0  0  0
  -19.1815  -12.2557   16.2340 C   0  0  0  0  0  0
  -20.1465  -10.1555   15.2606 C   0  0  0  0  0  0
  -25.9666  -24.8638   22.2412 C   0  0  0  0  0  0
  -28.5275  -25.6712   20.9705 C   0  0  0  0  0  0
  -22.9252  -19.7802   18.2816 C   0  0  0  0  0  0
  -22.5139  -18.3103   18.5218 C   0  0  0  0  0  0
  -23.5465  -20.4355   19.5260 C   0  0  0  0  0  0
  -22.7190  -17.4092   17.2840 C   0  0  0  0  0  0
  -24.0093  -21.8740   19.2642 C   0  0  0  0  0  0
  -22.8279  -15.8961   17.5964 C   0  0  0  0  0  0
  -24.9756  -22.3981   20.3407 C   0  0  0  0  0  0
  -23.0414  -15.0434   16.3192 C   0  0  0  0  0  0
  -21.4464  -11.4036   17.0981 C   0  0  0  0  0  0
  -25.3529  -23.8537   20.0666 C   0  0  0  0  0  0
  -24.7156  -10.0878   17.0954 C   0  0  0  0  0  0
  -24.1089  -13.8936   16.3429 C   0  0  0  0  0  0
  -22.5428  -11.9176   16.1264 C   0  0  0  0  0  0
  -24.9029  -11.6505   17.1011 C   0  0  0  0  0  0
  -25.5595   -7.7534   17.6518 C   0  0  0  0  0  0
  -20.0435  -11.0113   16.5371 C   0  0  0  0  0  0
  -29.4553  -11.4652   19.9776 N   0  0  0  0  0  0
  -25.7367   -9.2166   17.7388 N   0  0  0  0  0  0
  -26.4221  -24.3358   20.9501 N   0  0  0  0  0  0
  -23.6970  -12.5429   16.8636 N   0  3  1  0  0  0
  -28.1388  -23.7808   19.5658 O   0  0  0  0  0  0
  -32.1116  -13.2186   19.0445 H   0  0  0  0  0  0
  -31.7218  -11.6313   19.0879 H   0  0  0  0  0  0
  -30.0296  -12.4985   16.8810 H   0  0  0  0  0  0
  -30.0784  -14.0070   17.5188 H   0  0  0  0  0  0
  -27.6189  -12.2233   17.9958 H   0  0  0  0  0  0
  -27.6996  -13.8428   17.7265 H   0  0  0  0  0  0
  -27.6583  -14.5079   19.9666 H   0  0  0  0  0  0
  -28.5123  -12.4043   22.0503 H   0  0  0  0  0  0
  -28.8751  -14.0423   22.0392 H   0  0  0  0  0  0
  -25.2940   -9.5543   22.4414 H   0  0  0  0  0  0
  -24.0477   -7.4210   22.6522 H   0  0  0  0  0  0
  -21.0453   -8.9302   19.9468 H   0  0  0  0  0  0
  -22.3362  -11.0454   19.7201 H   0  0  0  0  0  0
  -21.2017   -7.6195   23.9829 H   0  0  0  0  0  0
  -21.1419   -6.0499   25.8980 H   0  0  0  0  0  0
  -22.0696   -2.7726   23.2686 H   0  0  0  0  0  0
  -22.4418  -12.0073   22.5406 H   0  0  0  0  0  0
  -21.1037  -13.0878   22.2831 H   0  0  0  0  0  0
  -24.5991  -15.8868   20.5234 H   0  0  0  0  0  0
  -26.2265  -15.6967   20.1256 H   0  0  0  0  0  0
  -26.7053  -32.5541   23.1134 H   0  0  0  0  0  0
  -25.0022  -33.9847   25.0430 H   0  0  0  0  0  0
  -22.6685  -31.2999   21.4260 H   0  0  0  0  0  0
  -23.3745  -35.9736   23.3329 H   0  0  0  0  0  0
  -24.3560  -36.8975   22.2018 H   0  0  0  0  0  0
  -23.7317  -37.6599   23.6648 H   0  0  0  0  0  0
  -26.0430  -31.6118   20.6226 H   0  0  0  0  0  0
  -26.7983  -30.8786   22.0127 H   0  0  0  0  0  0
  -28.0906  -29.1253   21.2011 H   0  0  0  0  0  0
  -26.1441  -26.1163   18.8294 H   0  0  0  0  0  0
  -24.0220  -27.3579   18.9304 H   0  0  0  0  0  0
  -23.7012  -30.6150   19.4120 H   0  0  0  0  0  0
  -22.7270  -29.2527   19.8698 H   0  0  0  0  0  0
  -25.1328  -36.1989   25.0777 H   0  0  0  0  0  0
  -20.9957  -28.2974   24.1477 H   0  0  0  0  0  0
  -20.5415  -26.2132   23.3485 H   0  0  0  0  0  0
  -21.6571  -26.7265   22.1239 H   0  0  0  0  0  0
  -19.6876  -25.6532   21.0829 H   0  0  0  0  0  0
  -19.6639  -27.3559   20.6801 H   0  0  0  0  0  0
  -17.4139  -26.6723   21.3958 H   0  0  0  0  0  0
  -18.0304  -26.0025   22.8866 H   0  0  0  0  0  0
  -19.8106  -30.7060   24.2317 H   0  0  0  0  0  0
  -17.5275  -31.6270   24.5252 H   0  0  0  0  0  0
  -15.5480  -30.3126   23.7815 H   0  0  0  0  0  0
  -15.8602  -28.0954   22.7158 H   0  0  0  0  0  0
  -24.5814  -30.7212   25.7818 H   0  0  0  0  0  0
  -24.9012  -32.2935   26.5037 H   0  0  0  0  0  0
  -25.8048  -30.8817   27.0185 H   0  0  0  0  0  0
  -26.2746  -29.6840   24.1228 H   0  0  0  0  0  0
  -27.3851  -29.7271   25.4719 H   0  0  0  0  0  0
  -27.8693  -30.4247   23.9421 H   0  0  0  0  0  0
  -27.2540  -33.3603   26.2216 H   0  0  0  0  0  0
  -28.3767  -32.7100   25.0359 H   0  0  0  0  0  0
  -28.0744  -31.8467   26.5354 H   0  0  0  0  0  0
  -28.2632  -38.0124   24.7495 H   0  0  0  0  0  0
  -28.1073  -36.2662   24.6286 H   0  0  0  0  0  0
  -27.2301  -37.1513   25.8842 H   0  0  0  0  0  0
  -20.9182  -29.8897   21.7289 H   0  0  0  0  0  0
  -26.0211  -38.2899   24.1380 H   0  0  0  0  0  0
  -30.8725  -10.4900   17.6207 H   0  0  0  0  0  0
  -27.2410   -9.5431   15.5940 H   0  0  0  0  0  0
  -30.9359  -10.0425   15.2125 H   0  0  0  0  0  0
  -29.5345  -10.9201   14.6305 H   0  0  0  0  0  0
  -29.5609   -9.1556   14.5362 H   0  0  0  0  0  0
  -27.7445   -8.2517   20.3941 H   0  0  0  0  0  0
  -26.2883   -9.1672   20.2888 H   0  0  0  0  0  0
  -27.6903   -9.8410   21.1430 H   0  0  0  0  0  0
  -25.3082   -6.1563   16.1761 H   0  0  0  0  0  0
  -26.1189   -7.5624   15.5265 H   0  0  0  0  0  0
  -24.3782   -7.5805   15.8062 H   0  0  0  0  0  0
  -24.4499   -6.1577   18.5873 H   0  0  0  0  0  0
  -23.4585   -7.5872   18.2981 H   0  0  0  0  0  0
  -24.6533   -7.5759   19.6032 H   0  0  0  0  0  0
  -18.2920   -9.9590   17.3620 H   0  0  0  0  0  0
  -19.2919  -10.7138   18.5844 H   0  0  0  0  0  0
  -19.8236   -9.2308   17.8050 H   0  0  0  0  0  0
  -18.1571  -11.9619   15.9920 H   0  0  0  0  0  0
  -19.5636  -12.8160   15.3796 H   0  0  0  0  0  0
  -19.1173  -12.9375   17.0870 H   0  0  0  0  0  0
  -19.1610   -9.8216   14.9303 H   0  0  0  0  0  0
  -20.7589   -9.2630   15.4068 H   0  0  0  0  0  0
  -20.5796  -10.7186   14.4322 H   0  0  0  0  0  0
  -25.8229  -25.9435   22.2033 H   0  0  0  0  0  0
  -26.6831  -24.6321   23.0289 H   0  0  0  0  0  0
  -25.0202  -24.4167   22.5409 H   0  0  0  0  0  0
  -29.5731  -25.3599   21.0051 H   0  0  0  0  0  0
  -28.2849  -25.9846   21.9872 H   0  0  0  0  0  0
  -22.0643  -20.3590   17.9377 H   0  0  0  0  0  0
  -23.6616  -19.8442   17.4804 H   0  0  0  0  0  0
  -21.4690  -18.2723   18.8387 H   0  0  0  0  0  0
  -23.0905  -17.9042   19.3554 H   0  0  0  0  0  0
  -24.3981  -19.8362   19.8453 H   0  0  0  0  0  0
  -22.8404  -20.4215   20.3571 H   0  0  0  0  0  0
  -23.6361  -17.7033   16.7733 H   0  0  0  0  0  0
  -21.9192  -17.5985   16.5698 H   0  0  0  0  0  0
  -23.1386  -22.5289   19.1848 H   0  0  0  0  0  0
  -24.5182  -21.9307   18.2987 H   0  0  0  0  0  0
  -21.9272  -15.5778   18.1137 H   0  0  0  0  0  0
  -23.6495  -15.7319   18.2955 H   0  0  0  0  0  0
  -25.8858  -21.7974   20.3521 H   0  0  0  0  0  0
  -24.5330  -22.3262   21.3356 H   0  0  0  0  0  0
  -23.3911  -15.7374   15.5535 H   0  0  0  0  0  0
  -22.0762  -14.7212   15.9417 H   0  0  0  0  0  0
  -21.3009  -12.1504   17.8742 H   0  0  0  0  0  0
  -21.8367  -10.5361   17.6164 H   0  0  0  0  0  0
  -24.4757  -24.4965   20.1643 H   0  0  0  0  0  0
  -25.6542  -23.9469   19.0197 H   0  0  0  0  0  0
  -24.6299   -9.7836   16.0538 H   0  0  0  0  0  0
  -23.7726   -9.8231   17.5553 H   0  0  0  0  0  0
  -24.9928  -14.2511   16.8826 H   0  0  0  0  0  0
  -24.4537  -13.7326   15.3158 H   0  0  0  0  0  0
  -22.0832  -12.6373   15.4509 H   0  0  0  0  0  0
  -22.8927  -11.1190   15.4722 H   0  0  0  0  0  0
  -25.6246  -11.8799   16.3146 H   0  0  0  0  0  0
  -25.3814  -11.9867   18.0148 H   0  0  0  0  0  0
  -26.4798   -7.2676   17.9867 H   0  0  0  0  0  0
  -29.6360  -10.9693   20.8423 H   0  0  0  0  0  0
  -23.3486  -12.7421   17.7840 H   0  0  0  0  0  0
  1 25  1  0  0  0
  1 30  2  0  0  0
  1103  1  0  0  0
  2  3  1  0  0  0
  2 25  1  0  0  0
  2108  1  0  0  0
  2109  1  0  0  0
  3  4  1  0  0  0
  3110  1  0  0  0
  3111  1  0  0  0
  4  5  1  0  0  0
  4112  1  0  0  0
  4113  1  0  0  0
  5  6  1  0  0  0
  5 26  1  0  0  0
  5114  1  0  0  0
  6 25  1  0  0  0
  6115  1  0  0  0
  6116  1  0  0  0
  7  8  2  0  0  0
  7 26  1  0  0  0
  7 29  1  0  0  0
  8  9  1  0  0  0
  8 22  1  0  0  0
  9 10  1  0  0  0
  9 27  2  0  0  0
 10 11  2  0  0  0
 10 15  1  0  0  0
 11 12  1  0  0  0
 11117  1  0  0  0
 12 13  2  0  0  0
 12118  1  0  0  0
 13 14  1  0  0  0
 13 31  1  0  0  0
 14 15  2  0  0  0
 14119  1  0  0  0
 15120  1  0  0  0
 16 17  2  0  0  0
 16 21  1  0  0  0
 16 31  1  0  0  0
 17 18  1  0  0  0
 17121  1  0  0  0
 18 19  2  0  0  0
 18122  1  0  0  0
 19 20  1  0  0  0
 19 24  1  0  0  0
 20 21  2  0  0  0
 20123  1  0  0  0
 21 23  1  0  0  0
 22 28  1  0  0  0
 22 32  2  0  0  0
 26 27  1  0  0  0
 28124  1  0  0  0
 28125  1  0  0  0
 29126  1  0  0  0
 29127  1  0  0  0
 33 34  1  0  0  0
 33 66  1  0  0  0
 33 70  2  0  0  0
 34 36  1  0  0  0
 34 59  1  0  0  0
 34128  1  0  0  0
 35 44  2  0  0  0
 35 45  1  0  0  0
 35 68  1  0  0  0
 36 56  1  0  0  0
 36129  1  0  0  0
 37 39  1  0  0  0
 37 47  1  0  0  0
 37 66  1  0  0  0
 37130  1  0  0  0
 38 43  2  0  0  0
 38 46  1  0  0  0
 38 47  1  0  0  0
 39 64  1  0  0  0
 39 67  2  0  0  0
 40 52  1  0  0  0
 40 53  2  0  0  0
 40 58  1  0  0  0
 41131  1  0  0  0
 41132  1  0  0  0
 41133  1  0  0  0
 41 48  1  0  0  0
 42 43  1  0  0  0
 42 66  1  0  0  0
 42134  1  0  0  0
 42135  1  0  0  0
 43 44  1  0  0  0
 44136  1  0  0  0
 45 46  2  0  0  0
 45137  1  0  0  0
 46138  1  0  0  0
 47139  1  0  0  0
 47140  1  0  0  0
 48 56  1  0  0  0
 48 65  1  0  0  0
 48141  1  0  0  0
 49 50  1  0  0  0
 49 53  1  0  0  0
 49 64  1  0  0  0
 49142  1  0  0  0
 50 51  1  0  0  0
 50143  1  0  0  0
 50144  1  0  0  0
 51 52  1  0  0  0
 51145  1  0  0  0
 51146  1  0  0  0
 52147  1  0  0  0
 52148  1  0  0  0
 53 54  1  0  0  0
 54 55  2  0  0  0
 54149  1  0  0  0
 55 57  1  0  0  0
 55150  1  0  0  0
 56 69  2  0  0  0
 57 58  2  0  0  0
 57151  1  0  0  0
 58152  1  0  0  0
 59 60  1  0  0  0
 59 61  1  0  0  0
 59 62  1  0  0  0
 60153  1  0  0  0
 60154  1  0  0  0
 60155  1  0  0  0
 61156  1  0  0  0
 61157  1  0  0  0
 61158  1  0  0  0
 62159  1  0  0  0
 62160  1  0  0  0
 62161  1  0  0  0
 63 65  1  0  0  0
 63162  1  0  0  0
 63163  1  0  0  0
 63164  1  0  0  0
 64165  1  0  0  0
 65166  1  0  0  0
 68 86  1  0  0  0
 71 73  2  0  0  0
 71 75  1  0  0  0
 71167  1  0  0  0
 72 73  1  0  0  0
 72 76  2  0  0  0
 72168  1  0  0  0
 73 78  1  0  0  0
 74 75  2  0  0  0
 74 76  1  0  0  0
 74 79  1  0  0  0
 75103  1  0  0  0
 76104  1  0  0  0
 77 86  1  0  0  0
 77105  1  0  0  0
 77107  2  0  0  0
 78169  1  0  0  0
 78170  1  0  0  0
 78171  1  0  0  0
 79172  1  0  0  0
 79173  1  0  0  0
 79174  1  0  0  0
 80175  1  0  0  0
 80176  1  0  0  0
 80177  1  0  0  0
 80101  1  0  0  0
 81101  1  0  0  0
 81178  1  0  0  0
 81179  1  0  0  0
 81180  1  0  0  0
 82181  1  0  0  0
 82182  1  0  0  0
 82183  1  0  0  0
 82102  1  0  0  0
 83102  1  0  0  0
 83184  1  0  0  0
 83185  1  0  0  0
 83186  1  0  0  0
 84102  1  0  0  0
 84187  1  0  0  0
 84188  1  0  0  0
 84189  1  0  0  0
 85105  1  0  0  0
 85190  1  0  0  0
 85191  1  0  0  0
 85192  1  0  0  0
 86193  1  0  0  0
 86194  1  0  0  0
 87 88  1  0  0  0
 87 89  1  0  0  0
 87195  1  0  0  0
 87196  1  0  0  0
 88 90  1  0  0  0
 88197  1  0  0  0
 88198  1  0  0  0
 89 91  1  0  0  0
 89199  1  0  0  0
 89200  1  0  0  0
 90 92  1  0  0  0
 90201  1  0  0  0
 90202  1  0  0  0
 91 93  1  0  0  0
 91203  1  0  0  0
 91204  1  0  0  0
 92 94  1  0  0  0
 92205  1  0  0  0
 92206  1  0  0  0
 93 96  1  0  0  0
 93207  1  0  0  0
 93208  1  0  0  0
 94 98  1  0  0  0
 94209  1  0  0  0
 94210  1  0  0  0
 95 99  1  0  0  0
 95102  1  0  0  0
 95211  1  0  0  0
 95212  1  0  0  0
 96105  1  0  0  0
 96213  1  0  0  0
 96214  1  0  0  0
 97100  1  0  0  0
 97104  1  0  0  0
 97215  1  0  0  0
 97216  1  0  0  0
 98217  1  0  0  0
 98218  1  0  0  0
 98106  1  0  0  0
 99106  1  0  0  0
 99219  1  0  0  0
 99220  1  0  0  0
100106  1  0  0  0
100221  1  0  0  0
100222  1  0  0  0
101104  1  0  0  0
101223  1  0  0  0
103224  1  0  0  0
106225  1  0  0  0
M  CHG  1 106   1
M  ISO  4   1 100  68 101  86 101 103 100
M  END
> <chiral flag>
0

> <version>
0

> <s_m_source_file>
/data/baiqing/PycharmProjects/Reinvent-master-3.2/result/LINK_invent/BTK/process_docking_weight1_custom_sum_contain_oxygen_bond_distance_aromatic_linkinvent_7_9_3/rearranged_h_0005.sdf

> <i_m_source_file_index>
11

> <r_mmod_Potential_Energy-OPLS-2005>
4017.70043945312

> <r_mmod_Stretch_Energy-OPLS-2005>
1442.13745117188

> <r_mmod_Bend_Energy-OPLS-2005>
886.201843261719

> <r_mmod_Torsional_Energy-OPLS-2005>
562.662353515625

> <r_mmod_Improper_Torsional_Energy-OPLS-2005>
9.5311393737793

> <r_mmod_Van_der_Waal_Energy-OPLS-2005>
964.655578613281

> <r_mmod_Electrostatic_Energy-OPLS-2005>
-279.012298583984

> <r_mmod_Solvation_Energy-OPLS-2005>
-391.319183349609

> <b_mmod_Minimization_Converged-OPLS-2005>
0

> <r_mmod_RMS_Derivative-OPLS-2005>
12.6951713562012

$$$$
11
                    3D
 Structure written by MMmdl.
187195  0  0  1  0            999 V2000
  -30.6760  -14.4607   20.5239 C   0  0  0  0  0  0
  -30.4385  -12.2847   19.4173 C   0  0  0  0  0  0
  -29.5037  -12.4612   18.2013 C   0  0  0  0  0  0
  -28.0116  -12.3816   18.5939 C   0  0  0  0  0  0
  -27.6652  -13.1962   19.8711 C   0  0  2  0  0  0
  -28.7129  -12.9522   20.9820 C   0  0  0  0  0  0
  -25.2603  -13.8124   20.5616 C   0  0  0  0  0  0
  -24.1853  -13.0443   20.9129 C   0  0  0  0  0  0
  -24.6366  -11.6882   20.8722 C   0  0  0  0  0  0
  -23.9020  -10.4292   21.0370 C   0  0  0  0  0  0
  -24.3591   -9.4231   21.9151 C   0  0  0  0  0  0
  -23.6281   -8.2260   22.0730 C   0  0  0  0  0  0
  -22.4273   -8.0266   21.3525 C   0  0  0  0  0  0
  -21.9892   -9.0220   20.4622 C   0  0  0  0  0  0
  -22.7193  -10.2105   20.3022 C   0  0  0  0  0  0
  -21.6872   -6.0716   22.5256 C   0  0  0  0  0  0
  -21.4030   -6.5610   23.8194 C   0  0  0  0  0  0
  -21.3685   -5.6767   24.9158 C   0  0  0  0  0  0
  -21.6057   -4.3033   24.7211 C   0  0  0  0  0  0
  -21.8824   -3.8118   23.4339 C   0  0  0  0  0  0
  -21.9201   -4.6930   22.3391 C   0  0  0  0  0  0
  -22.7866  -13.5261   21.1787 C   0  0  0  0  0  0
  -22.1660   -4.2110   21.0973 F   0  0  0  0  0  0
  -21.5648   -3.4537   25.7737 F   0  0  0  0  0  0
  -30.0379  -13.2671   20.4294 N   0  0  0  0  0  0
  -26.3050  -12.9273   20.3342 N   0  0  0  0  0  0
  -25.9306  -11.6449   20.5775 N   0  0  0  0  0  0
  -22.0474  -12.8284   22.0308 N   0  0  0  0  0  0
  -25.4336  -15.1845   20.3961 N   0  0  0  0  0  0
  -31.8316  -14.6490   20.1373 O   0  0  0  0  0  0
  -21.6652   -6.8846   21.4207 O   0  0  0  0  0  0
  -22.3580  -14.5572   20.6590 O   0  0  0  0  0  0
  -24.6142  -31.8740   23.2151 C   0  0  0  0  0  0
  -25.9078  -32.4891   23.8355 C   0  0  1  0  0  0
  -27.1990  -27.4895   20.0582 C   0  0  0  0  0  0
  -25.5929  -33.8663   24.2343 N   0  0  0  0  0  0
  -23.3907  -30.5120   21.5595 C   0  0  2  0  0  0
  -24.8221  -29.0040   20.0978 C   0  0  0  0  0  0
  -22.7349  -29.4723   22.4986 C   0  0  0  0  0  0
  -18.0261  -28.1395   22.8519 C   0  0  0  0  0  0
  -24.1442  -36.7341   23.2647 C   0  0  0  0  0  0
  -25.9082  -30.8766   21.3351 C   0  0  0  0  0  0
  -25.9864  -29.5110   20.6903 C   0  0  0  0  0  0
  -27.1821  -28.7581   20.6762 C   0  0  0  0  0  0
  -26.0286  -27.0193   19.4197 C   0  0  0  0  0  0
  -24.8365  -27.7529   19.4615 C   0  0  0  0  0  0
  -23.5849  -29.8679   20.1644 C   0  0  0  0  0  0
  -25.4084  -36.3160   24.0328 C   0  0  1  0  0  0
  -20.5854  -28.3644   23.1366 C   0  0  2  0  0  0
  -20.6763  -26.9360   22.5508 C   0  0  0  0  0  0
  -19.5722  -26.6305   21.5320 C   0  0  0  0  0  0
  -18.1893  -26.7919   22.1712 C   0  0  0  0  0  0
  -19.1521  -28.8839   23.2937 C   0  0  0  0  0  0
  -18.9443  -30.1467   23.8900 C   0  0  0  0  0  0
  -17.6453  -30.6610   24.0554 C   0  0  0  0  0  0
  -25.8998  -34.9525   23.5123 C   0  0  0  0  0  0
  -16.5338  -29.9118   23.6310 C   0  0  0  0  0  0
  -16.7270  -28.6540   23.0333 C   0  0  0  0  0  0
  -26.4499  -31.6594   25.0620 C   0  0  0  0  0  0
  -25.3782  -31.3602   26.1352 C   0  0  0  0  0  0
  -27.0207  -30.3058   24.5788 C   0  0  0  0  0  0
  -27.6089  -32.4212   25.7458 C   0  0  0  0  0  0
  -27.5536  -37.1836   24.8466 C   0  0  0  0  0  0
  -21.4084  -29.3019   22.3740 N   0  0  0  0  0  0
  -26.4261  -37.3853   23.9422 N   0  0  0  0  0  0
  -24.6609  -31.0894   22.1040 N   0  0  0  0  0  0
  -23.4170  -28.8259   23.2994 O   0  0  0  0  0  0
  -28.3302  -26.7120   20.1044 O   0  0  0  0  0  0
  -26.5530  -34.8971   22.4666 O   0  0  0  0  0  0
  -23.5366  -32.1430   23.7639 O   0  0  0  0  0  0
  -30.7868  -19.0994   21.0293 C   0  0  0  0  0  0
  -30.5549  -17.7680   21.4163 C   0  0  0  0  0  0
  -30.5091  -19.5309   19.7156 C   0  0  0  0  0  0
  -30.0715  -16.8318   20.4789 C   0  0  0  0  0  0
  -29.9517  -18.6207   18.7769 C   0  0  0  0  0  0
  -29.7520  -17.2591   19.1619 C   0  0  0  0  0  0
  -23.2139  -20.8441   17.0585 C   0  0  0  0  0  0
  -27.8504  -20.0822   16.1361 C   0  0  0  0  0  0
  -30.8419  -20.9735   19.3454 C   0  0  0  0  0  0
  -22.8771  -20.9852   15.5743 C   0  0  0  0  0  0
  -28.2873  -18.8891   16.9887 C   0  0  0  0  0  0
  -24.0151  -20.4973   14.6488 C   0  0  0  0  0  0
  -25.8974  -23.1562   18.9353 C   0  0  0  0  0  0
  -27.3999  -23.1041   19.3110 C   0  0  0  0  0  0
  -25.2382  -21.4435   14.6087 C   0  0  0  0  0  0
  -25.0823  -21.9643   19.4865 C   0  0  0  0  0  0
  -28.1548  -24.4424   19.1484 C   0  0  0  0  0  0
  -26.5381  -20.7733   14.1274 C   0  0  0  0  0  0
  -23.5670  -22.0523   19.2019 C   0  0  0  0  0  0
  -28.0662  -25.3355   20.3960 C   0  0  0  0  0  0
  -29.8818  -15.4798   20.8920 N   0  0  0  0  0  0
  -29.6445  -19.0998   17.4882 N   0  0  0  0  0  0
  -23.2647  -21.9720   17.7746 N   0  0  0  0  0  0
  -27.0450  -19.8109   15.1036 N   0  0  0  0  0  0
  -23.4217  -19.7286   17.5403 O   0  0  0  0  0  0
  -28.2602  -21.2139   16.4021 O   0  0  0  0  0  0
  -29.1516  -16.0938   18.0250 Cl  0  0  0  0  0  0
  -31.4796  -12.4032   19.1057 H   0  0  0  0  0  0
  -30.3645  -11.2777   19.8269 H   0  0  0  0  0  0
  -29.7286  -11.7004   17.4521 H   0  0  0  0  0  0
  -29.7095  -13.4180   17.7244 H   0  0  0  0  0  0
  -27.7555  -11.3331   18.7392 H   0  0  0  0  0  0
  -27.4005  -12.7303   17.7619 H   0  0  0  0  0  0
  -27.7089  -14.2471   19.5906 H   0  0  0  0  0  0
  -28.6970  -11.9050   21.2937 H   0  0  0  0  0  0
  -28.4949  -13.5325   21.8780 H   0  0  0  0  0  0
  -25.2714   -9.5755   22.4744 H   0  0  0  0  0  0
  -23.9992   -7.4684   22.7488 H   0  0  0  0  0  0
  -21.0810   -8.8710   19.8960 H   0  0  0  0  0  0
  -22.3596  -10.9630   19.6152 H   0  0  0  0  0  0
  -21.2013   -7.6123   23.9670 H   0  0  0  0  0  0
  -21.1522   -6.0509   25.9053 H   0  0  0  0  0  0
  -22.0588   -2.7571   23.2844 H   0  0  0  0  0  0
  -22.4044  -11.9968   22.4798 H   0  0  0  0  0  0
  -21.1059  -13.1294   22.2418 H   0  0  0  0  0  0
  -24.6534  -15.8289   20.4577 H   0  0  0  0  0  0
  -26.2745  -15.6140   20.0347 H   0  0  0  0  0  0
  -26.7164  -32.5597   23.1114 H   0  0  0  0  0  0
  -25.0070  -33.9785   25.0482 H   0  0  0  0  0  0
  -22.6850  -31.3347   21.4400 H   0  0  0  0  0  0
  -23.3689  -35.9672   23.3338 H   0  0  0  0  0  0
  -24.3569  -36.8929   22.2059 H   0  0  0  0  0  0
  -23.7145  -37.6551   23.6617 H   0  0  0  0  0  0
  -25.9497  -31.6411   20.5583 H   0  0  0  0  0  0
  -26.8263  -30.9691   21.9048 H   0  0  0  0  0  0
  -28.0727  -29.1463   21.1495 H   0  0  0  0  0  0
  -26.0157  -26.0923   18.8730 H   0  0  0  0  0  0
  -23.9463  -27.3676   18.9815 H   0  0  0  0  0  0
  -23.6776  -30.6578   19.4162 H   0  0  0  0  0  0
  -22.7048  -29.2951   19.8754 H   0  0  0  0  0  0
  -25.1253  -36.2038   25.0808 H   0  0  0  0  0  0
  -20.9923  -28.3236   24.1488 H   0  0  0  0  0  0
  -20.5666  -26.2235   23.3713 H   0  0  0  0  0  0
  -21.6621  -26.7359   22.1308 H   0  0  0  0  0  0
  -19.6794  -25.6163   21.1461 H   0  0  0  0  0  0
  -19.6706  -27.3054   20.6808 H   0  0  0  0  0  0
  -17.4152  -26.6611   21.4137 H   0  0  0  0  0  0
  -18.0288  -26.0111   22.9161 H   0  0  0  0  0  0
  -19.7928  -30.7320   24.2215 H   0  0  0  0  0  0
  -17.5024  -31.6308   24.5127 H   0  0  0  0  0  0
  -15.5342  -30.3057   23.7600 H   0  0  0  0  0  0
  -15.8678  -28.0898   22.6977 H   0  0  0  0  0  0
  -24.6180  -30.6689   25.7712 H   0  0  0  0  0  0
  -24.8697  -32.2663   26.4623 H   0  0  0  0  0  0
  -25.8214  -30.8992   27.0182 H   0  0  0  0  0  0
  -26.2668  -29.7031   24.0721 H   0  0  0  0  0  0
  -27.3903  -29.7082   25.4123 H   0  0  0  0  0  0
  -27.8531  -30.4429   23.8895 H   0  0  0  0  0  0
  -27.2813  -33.3619   26.1890 H   0  0  0  0  0  0
  -28.4065  -32.6547   25.0399 H   0  0  0  0  0  0
  -28.0513  -31.8318   26.5503 H   0  0  0  0  0  0
  -28.2577  -38.0115   24.7535 H   0  0  0  0  0  0
  -28.0981  -36.2645   24.6258 H   0  0  0  0  0  0
  -27.2247  -37.1485   25.8865 H   0  0  0  0  0  0
  -20.9150  -29.8785   21.7059 H   0  0  0  0  0  0
  -26.0133  -38.2903   24.1495 H   0  0  0  0  0  0
  -31.1941  -19.7951   21.7492 H   0  0  0  0  0  0
  -30.7745  -17.4591   22.4283 H   0  0  0  0  0  0
  -30.7567  -21.6213   20.2196 H   0  0  0  0  0  0
  -30.1848  -21.3862   18.5787 H   0  0  0  0  0  0
  -31.8696  -21.0360   18.9808 H   0  0  0  0  0  0
  -22.6039  -22.0161   15.3445 H   0  0  0  0  0  0
  -21.9814  -20.3876   15.4022 H   0  0  0  0  0  0
  -28.2597  -17.9949   16.3668 H   0  0  0  0  0  0
  -27.5746  -18.7525   17.8054 H   0  0  0  0  0  0
  -23.6265  -20.3820   13.6354 H   0  0  0  0  0  0
  -24.3072  -19.4927   14.9552 H   0  0  0  0  0  0
  -25.7969  -23.2088   17.8504 H   0  0  0  0  0  0
  -25.4490  -24.0698   19.3218 H   0  0  0  0  0  0
  -27.8949  -22.3504   18.6980 H   0  0  0  0  0  0
  -27.5125  -22.7701   20.3438 H   0  0  0  0  0  0
  -25.4193  -21.8897   15.5876 H   0  0  0  0  0  0
  -25.0073  -22.2804   13.9482 H   0  0  0  0  0  0
  -25.2156  -21.9113   20.5706 H   0  0  0  0  0  0
  -25.4738  -21.0253   19.0929 H   0  0  0  0  0  0
  -27.8005  -24.9552   18.2548 H   0  0  0  0  0  0
  -29.2148  -24.2585   18.9736 H   0  0  0  0  0  0
  -27.2978  -21.5316   13.9255 H   0  0  0  0  0  0
  -26.3746  -20.2563   13.1799 H   0  0  0  0  0  0
  -23.1633  -22.9886   19.5903 H   0  0  0  0  0  0
  -23.0435  -21.2579   19.7402 H   0  0  0  0  0  0
  -28.8034  -24.9980   21.1238 H   0  0  0  0  0  0
  -27.1019  -25.1991   20.8943 H   0  0  0  0  0  0
  -28.9424  -15.2134   21.1419 H   0  0  0  0  0  0
  -29.8977  -20.0738   17.3414 H   0  0  0  0  0  0
  -23.0769  -22.8371   17.2827 H   0  0  0  0  0  0
  -26.7968  -18.8395   14.9654 H   0  0  0  0  0  0
  1 25  1  0  0  0
  1 30  2  0  0  0
  1 91  1  0  0  0
  2  3  1  0  0  0
  2 25  1  0  0  0
  2 98  1  0  0  0
  2 99  1  0  0  0
  3  4  1  0  0  0
  3100  1  0  0  0
  3101  1  0  0  0
  4  5  1  0  0  0
  4102  1  0  0  0
  4103  1  0  0  0
  5  6  1  0  0  0
  5 26  1  0  0  0
  5104  1  0  0  0
  6 25  1  0  0  0
  6105  1  0  0  0
  6106  1  0  0  0
  7  8  2  0  0  0
  7 26  1  0  0  0
  7 29  1  0  0  0
  8  9  1  0  0  0
  8 22  1  0  0  0
  9 10  1  0  0  0
  9 27  2  0  0  0
 10 11  2  0  0  0
 10 15  1  0  0  0
 11 12  1  0  0  0
 11107  1  0  0  0
 12 13  2  0  0  0
 12108  1  0  0  0
 13 14  1  0  0  0
 13 31  1  0  0  0
 14 15  2  0  0  0
 14109  1  0  0  0
 15110  1  0  0  0
 16 17  2  0  0  0
 16 21  1  0  0  0
 16 31  1  0  0  0
 17 18  1  0  0  0
 17111  1  0  0  0
 18 19  2  0  0  0
 18112  1  0  0  0
 19 20  1  0  0  0
 19 24  1  0  0  0
 20 21  2  0  0  0
 20113  1  0  0  0
 21 23  1  0  0  0
 22 28  1  0  0  0
 22 32  2  0  0  0
 26 27  1  0  0  0
 28114  1  0  0  0
 28115  1  0  0  0
 29116  1  0  0  0
 29117  1  0  0  0
 33 34  1  0  0  0
 33 66  1  0  0  0
 33 70  2  0  0  0
 34 36  1  0  0  0
 34 59  1  0  0  0
 34118  1  0  0  0
 35 44  2  0  0  0
 35 45  1  0  0  0
 35 68  1  0  0  0
 36 56  1  0  0  0
 36119  1  0  0  0
 37 39  1  0  0  0
 37 47  1  0  0  0
 37 66  1  0  0  0
 37120  1  0  0  0
 38 43  2  0  0  0
 38 46  1  0  0  0
 38 47  1  0  0  0
 39 64  1  0  0  0
 39 67  2  0  0  0
 40 52  1  0  0  0
 40 53  2  0  0  0
 40 58  1  0  0  0
 41121  1  0  0  0
 41122  1  0  0  0
 41123  1  0  0  0
 41 48  1  0  0  0
 42 43  1  0  0  0
 42 66  1  0  0  0
 42124  1  0  0  0
 42125  1  0  0  0
 43 44  1  0  0  0
 44126  1  0  0  0
 45 46  2  0  0  0
 45127  1  0  0  0
 46128  1  0  0  0
 47129  1  0  0  0
 47130  1  0  0  0
 48 56  1  0  0  0
 48 65  1  0  0  0
 48131  1  0  0  0
 49 50  1  0  0  0
 49 53  1  0  0  0
 49 64  1  0  0  0
 49132  1  0  0  0
 50 51  1  0  0  0
 50133  1  0  0  0
 50134  1  0  0  0
 51 52  1  0  0  0
 51135  1  0  0  0
 51136  1  0  0  0
 52137  1  0  0  0
 52138  1  0  0  0
 53 54  1  0  0  0
 54 55  2  0  0  0
 54139  1  0  0  0
 55 57  1  0  0  0
 55140  1  0  0  0
 56 69  2  0  0  0
 57 58  2  0  0  0
 57141  1  0  0  0
 58142  1  0  0  0
 59 60  1  0  0  0
 59 61  1  0  0  0
 59 62  1  0  0  0
 60143  1  0  0  0
 60144  1  0  0  0
 60145  1  0  0  0
 61146  1  0  0  0
 61147  1  0  0  0
 61148  1  0  0  0
 62149  1  0  0  0
 62150  1  0  0  0
 62151  1  0  0  0
 63 65  1  0  0  0
 63152  1  0  0  0
 63153  1  0  0  0
 63154  1  0  0  0
 64155  1  0  0  0
 65156  1  0  0  0
 68 90  1  0  0  0
 71 72  2  0  0  0
 71 73  1  0  0  0
 71157  1  0  0  0
 72 74  1  0  0  0
 72158  1  0  0  0
 73 75  2  0  0  0
 73 79  1  0  0  0
 74 76  2  0  0  0
 74 91  1  0  0  0
 75 76  1  0  0  0
 75 92  1  0  0  0
 76 97  1  0  0  0
 77 80  1  0  0  0
 77 93  1  0  0  0
 77 95  2  0  0  0
 78 81  1  0  0  0
 78 94  1  0  0  0
 78 96  2  0  0  0
 79159  1  0  0  0
 79160  1  0  0  0
 79161  1  0  0  0
 80 82  1  0  0  0
 80162  1  0  0  0
 80163  1  0  0  0
 81 92  1  0  0  0
 81164  1  0  0  0
 81165  1  0  0  0
 82 85  1  0  0  0
 82166  1  0  0  0
 82167  1  0  0  0
 83 84  1  0  0  0
 83 86  1  0  0  0
 83168  1  0  0  0
 83169  1  0  0  0
 84 87  1  0  0  0
 84170  1  0  0  0
 84171  1  0  0  0
 85 88  1  0  0  0
 85172  1  0  0  0
 85173  1  0  0  0
 86 89  1  0  0  0
 86174  1  0  0  0
 86175  1  0  0  0
 87 90  1  0  0  0
 87176  1  0  0  0
 87177  1  0  0  0
 88 94  1  0  0  0
 88178  1  0  0  0
 88179  1  0  0  0
 89 93  1  0  0  0
 89180  1  0  0  0
 89181  1  0  0  0
 90182  1  0  0  0
 90183  1  0  0  0
 91184  1  0  0  0
 92185  1  0  0  0
 93186  1  0  0  0
 94187  1  0  0  0
M  ISO  4   1 100  68 101  90 101  91 100
M  END
> <chiral flag>
0

> <version>
0

> <s_m_source_file>
/data/baiqing/PycharmProjects/Reinvent-master-3.2/result/LINK_invent/BTK/process_docking_weight1_custom_sum_contain_oxygen_bond_distance_aromatic_linkinvent_7_9_3/rearranged_h_0005.sdf

> <i_m_source_file_index>
12

> <r_mmod_Potential_Energy-OPLS-2005>
-170.595153808594

> <r_mmod_Stretch_Energy-OPLS-2005>
37.214298248291

> <r_mmod_Bend_Energy-OPLS-2005>
98.1616516113281

> <r_mmod_Torsional_Energy-OPLS-2005>
279.017303466797

> <r_mmod_Improper_Torsional_Energy-OPLS-2005>
11.3797941207886

> <r_mmod_Van_der_Waal_Energy-OPLS-2005>
147.123229980469

> <r_mmod_Electrostatic_Energy-OPLS-2005>
-498.473175048828

> <r_mmod_Solvation_Energy-OPLS-2005>
-262.164154052734

> <b_mmod_Minimization_Converged-OPLS-2005>
0

> <r_mmod_RMS_Derivative-OPLS-2005>
5.62084007263184

$$$$
12
                    3D
 Structure written by MMmdl.
151159  0  0  1  0            999 V2000
  -30.6225  -14.6233   20.5083 C   0  0  0  0  0  0
  -30.4418  -12.3822   19.4494 C   0  0  0  0  0  0
  -29.5096  -12.5061   18.2229 C   0  0  0  0  0  0
  -28.0318  -12.3445   18.6342 C   0  0  0  0  0  0
  -27.6567  -13.2123   19.8657 C   0  0  2  0  0  0
  -28.7008  -13.0502   20.9940 C   0  0  0  0  0  0
  -25.2577  -13.8162   20.5679 C   0  0  0  0  0  0
  -24.1839  -13.0434   20.9190 C   0  0  0  0  0  0
  -24.6398  -11.6903   20.8739 C   0  0  0  0  0  0
  -23.9060  -10.4291   21.0410 C   0  0  0  0  0  0
  -24.3613   -9.4210   21.9188 C   0  0  0  0  0  0
  -23.6292   -8.2241   22.0754 C   0  0  0  0  0  0
  -22.4275   -8.0276   21.3542 C   0  0  0  0  0  0
  -21.9906   -9.0253   20.4649 C   0  0  0  0  0  0
  -22.7232  -10.2135   20.3062 C   0  0  0  0  0  0
  -21.6848   -6.0738   22.5282 C   0  0  0  0  0  0
  -21.4009   -6.5641   23.8217 C   0  0  0  0  0  0
  -21.3661   -5.6789   24.9178 C   0  0  0  0  0  0
  -21.6043   -4.3053   24.7224 C   0  0  0  0  0  0
  -21.8819   -3.8147   23.4347 C   0  0  0  0  0  0
  -21.9191   -4.6965   22.3405 C   0  0  0  0  0  0
  -22.7863  -13.5237   21.1853 C   0  0  0  0  0  0
  -22.1662   -4.2155   21.0982 F   0  0  0  0  0  0
  -21.5630   -3.4532   25.7736 F   0  0  0  0  0  0
  -30.0198  -13.3948   20.4368 N   0  0  0  0  0  0
  -26.3004  -12.9336   20.3314 N   0  0  0  0  0  0
  -25.9321  -11.6495   20.5748 N   0  0  0  0  0  0
  -22.0494  -12.8238   22.0409 N   0  0  0  0  0  0
  -25.4295  -15.1884   20.4095 N   0  0  0  0  0  0
  -31.7781  -14.7966   20.1076 O   0  0  0  0  0  0
  -21.6635   -6.8879   21.4244 O   0  0  0  0  0  0
  -22.3554  -14.5543   20.6698 O   0  0  0  0  0  0
  -24.6259  -31.8615   23.2045 C   0  0  0  0  0  0
  -25.9110  -32.4786   23.8371 C   0  0  1  0  0  0
  -27.2178  -27.3267   20.1079 C   0  0  0  0  0  0
  -25.5929  -33.8586   24.2300 N   0  0  0  0  0  0
  -23.4182  -30.4886   21.5476 C   0  0  2  0  0  0
  -24.8621  -28.9486   20.1097 C   0  0  0  0  0  0
  -22.7472  -29.4639   22.4933 C   0  0  0  0  0  0
  -18.0289  -28.1385   22.8491 C   0  0  0  0  0  0
  -24.1488  -36.7292   23.2638 C   0  0  0  0  0  0
  -25.9606  -30.7946   21.3745 C   0  0  0  0  0  0
  -26.0329  -29.4239   20.7142 C   0  0  0  0  0  0
  -27.2142  -28.6248   20.7038 C   0  0  0  0  0  0
  -26.0216  -26.9067   19.4781 C   0  0  0  0  0  0
  -24.8583  -27.6951   19.4830 C   0  0  0  0  0  0
  -23.6315  -29.8295   20.1609 C   0  0  0  0  0  0
  -25.4110  -36.3087   24.0338 C   0  0  1  0  0  0
  -20.5892  -28.3687   23.1285 C   0  0  2  0  0  0
  -20.6777  -26.9412   22.5408 C   0  0  0  0  0  0
  -19.5752  -26.6390   21.5213 C   0  0  0  0  0  0
  -18.1934  -26.7929   22.1632 C   0  0  0  0  0  0
  -19.1541  -28.8851   23.2887 C   0  0  0  0  0  0
  -18.9462  -30.1455   23.8904 C   0  0  0  0  0  0
  -17.6461  -30.6589   24.0565 C   0  0  0  0  0  0
  -25.9050  -34.9454   23.5121 C   0  0  0  0  0  0
  -16.5353  -29.9089   23.6329 C   0  0  0  0  0  0
  -16.7276  -28.6505   23.0355 C   0  0  0  0  0  0
  -26.4492  -31.6584   25.0730 C   0  0  0  0  0  0
  -25.3730  -31.3730   26.1464 C   0  0  0  0  0  0
  -27.0317  -30.3006   24.6169 C   0  0  0  0  0  0
  -27.6076  -32.4293   25.7487 C   0  0  0  0  0  0
  -27.5581  -37.1800   24.8467 C   0  0  0  0  0  0
  -21.4186  -29.3045   22.3679 N   0  0  0  0  0  0
  -26.4289  -37.3779   23.9418 N   0  0  0  0  0  0
  -24.6875  -31.0639   22.0992 N   0  0  0  0  0  0
  -23.4198  -28.8169   23.3001 O   0  0  0  0  0  0
  -28.3324  -26.4737   20.1583 O   0  0  0  0  0  0
  -26.5610  -34.8915   22.4682 O   0  0  0  0  0  0
  -23.5422  -32.1408   23.7377 O   0  0  0  0  0  0
  -30.8900  -19.2621   20.0720 C   0  0  0  0  0  0
  -28.6856  -19.2877   21.0333 C   0  0  0  0  0  0
  -30.9401  -17.8400   20.1881 C   0  0  0  0  0  0
  -28.7393  -17.8687   21.1589 C   0  0  0  0  0  0
  -29.7645  -20.0285   20.4845 C   0  0  0  0  0  0
  -29.8612  -17.1018   20.7420 C   0  0  0  0  0  0
  -28.8226  -22.4378   20.3658 C   0  0  0  0  0  0
  -29.2124  -23.9702   20.3851 C   0  0  0  0  0  0
  -28.0842  -25.0211   20.0070 C   0  0  0  0  0  0
  -29.8105  -21.4895   20.3935 N   0  0  0  0  0  0
  -29.8109  -15.6499   20.9078 N   0  0  0  0  0  0
  -27.6301  -22.1276   20.3149 O   0  0  0  0  0  0
  -31.4830  -12.5093   19.1474 H   0  0  0  0  0  0
  -30.3772  -11.3830   19.8827 H   0  0  0  0  0  0
  -29.7730  -11.7585   17.4735 H   0  0  0  0  0  0
  -29.6529  -13.4779   17.7470 H   0  0  0  0  0  0
  -27.8679  -11.2908   18.8638 H   0  0  0  0  0  0
  -27.3769  -12.5764   17.7937 H   0  0  0  0  0  0
  -27.6803  -14.2501   19.5320 H   0  0  0  0  0  0
  -28.7081  -12.0226   21.3613 H   0  0  0  0  0  0
  -28.4453  -13.6671   21.8566 H   0  0  0  0  0  0
  -25.2760   -9.5681   22.4757 H   0  0  0  0  0  0
  -24.0004   -7.4629   22.7464 H   0  0  0  0  0  0
  -21.0837   -8.8770   19.8953 H   0  0  0  0  0  0
  -22.3692  -10.9671   19.6166 H   0  0  0  0  0  0
  -21.1999   -7.6149   23.9722 H   0  0  0  0  0  0
  -21.1484   -6.0519   25.9081 H   0  0  0  0  0  0
  -22.0598   -2.7608   23.2840 H   0  0  0  0  0  0
  -22.4096  -11.9898   22.4808 H   0  0  0  0  0  0
  -21.1113  -13.1276   22.2610 H   0  0  0  0  0  0
  -24.6577  -15.8384   20.5118 H   0  0  0  0  0  0
  -26.2703  -15.6250   20.0532 H   0  0  0  0  0  0
  -26.7178  -32.5454   23.1120 H   0  0  0  0  0  0
  -25.0075  -33.9729   25.0445 H   0  0  0  0  0  0
  -22.7129  -31.3109   21.4093 H   0  0  0  0  0  0
  -23.3756  -35.9617   23.3289 H   0  0  0  0  0  0
  -24.3591  -36.8916   22.2055 H   0  0  0  0  0  0
  -23.7228  -37.6490   23.6655 H   0  0  0  0  0  0
  -26.0939  -31.5600   20.6084 H   0  0  0  0  0  0
  -26.8407  -30.8406   22.0039 H   0  0  0  0  0  0
  -28.1123  -28.9845   21.1866 H   0  0  0  0  0  0
  -25.9485  -25.9523   18.9794 H   0  0  0  0  0  0
  -23.9617  -27.3275   19.0026 H   0  0  0  0  0  0
  -23.7517  -30.6094   19.4082 H   0  0  0  0  0  0
  -22.7492  -29.2629   19.8564 H   0  0  0  0  0  0
  -25.1285  -36.1945   25.0829 H   0  0  0  0  0  0
  -20.9999  -28.3257   24.1400 H   0  0  0  0  0  0
  -20.5692  -26.2292   23.3604 H   0  0  0  0  0  0
  -21.6646  -26.7449   22.1191 H   0  0  0  0  0  0
  -19.6909  -25.6303   21.1242 H   0  0  0  0  0  0
  -19.6685  -27.3204   20.6747 H   0  0  0  0  0  0
  -17.4201  -26.6676   21.4037 H   0  0  0  0  0  0
  -18.0338  -26.0074   22.9034 H   0  0  0  0  0  0
  -19.7934  -30.7271   24.2277 H   0  0  0  0  0  0
  -17.5015  -31.6271   24.5164 H   0  0  0  0  0  0
  -15.5352  -30.2994   23.7647 H   0  0  0  0  0  0
  -15.8680  -28.0829   22.7065 H   0  0  0  0  0  0
  -24.5873  -30.7121   25.7786 H   0  0  0  0  0  0
  -24.8955  -32.2901   26.4923 H   0  0  0  0  0  0
  -25.8046  -30.8865   27.0220 H   0  0  0  0  0  0
  -26.2877  -29.6765   24.1202 H   0  0  0  0  0  0
  -27.4031  -29.7254   25.4659 H   0  0  0  0  0  0
  -27.8747  -30.4296   23.9378 H   0  0  0  0  0  0
  -27.2732  -33.3616   26.2052 H   0  0  0  0  0  0
  -28.3890  -32.6809   25.0302 H   0  0  0  0  0  0
  -28.0733  -31.8408   26.5402 H   0  0  0  0  0  0
  -28.2599  -38.0098   24.7520 H   0  0  0  0  0  0
  -28.1079  -36.2633   24.6283 H   0  0  0  0  0  0
  -27.2303  -37.1432   25.8870 H   0  0  0  0  0  0
  -20.9357  -29.8774   21.6902 H   0  0  0  0  0  0
  -26.0175  -38.2857   24.1416 H   0  0  0  0  0  0
  -31.7477  -19.7682   19.6520 H   0  0  0  0  0  0
  -27.8046  -19.8023   21.3894 H   0  0  0  0  0  0
  -31.8293  -17.3304   19.8462 H   0  0  0  0  0  0
  -27.8869  -17.3668   21.5952 H   0  0  0  0  0  0
  -30.0681  -24.1163   19.7263 H   0  0  0  0  0  0
  -29.5639  -24.1927   21.3921 H   0  0  0  0  0  0
  -27.2039  -24.7700   20.6018 H   0  0  0  0  0  0
  -27.8172  -24.8330   18.9663 H   0  0  0  0  0  0
  -30.7424  -21.8769   20.3285 H   0  0  0  0  0  0
  -28.9344  -15.3091   21.2715 H   0  0  0  0  0  0
  1 25  1  0  0  0
  1 30  2  0  0  0
  1 81  1  0  0  0
  2  3  1  0  0  0
  2 25  1  0  0  0
  2 83  1  0  0  0
  2 84  1  0  0  0
  3  4  1  0  0  0
  3 85  1  0  0  0
  3 86  1  0  0  0
  4  5  1  0  0  0
  4 87  1  0  0  0
  4 88  1  0  0  0
  5  6  1  0  0  0
  5 26  1  0  0  0
  5 89  1  0  0  0
  6 25  1  0  0  0
  6 90  1  0  0  0
  6 91  1  0  0  0
  7  8  2  0  0  0
  7 26  1  0  0  0
  7 29  1  0  0  0
  8  9  1  0  0  0
  8 22  1  0  0  0
  9 10  1  0  0  0
  9 27  2  0  0  0
 10 11  2  0  0  0
 10 15  1  0  0  0
 11 12  1  0  0  0
 11 92  1  0  0  0
 12 13  2  0  0  0
 12 93  1  0  0  0
 13 14  1  0  0  0
 13 31  1  0  0  0
 14 15  2  0  0  0
 14 94  1  0  0  0
 15 95  1  0  0  0
 16 17  2  0  0  0
 16 21  1  0  0  0
 16 31  1  0  0  0
 17 18  1  0  0  0
 17 96  1  0  0  0
 18 19  2  0  0  0
 18 97  1  0  0  0
 19 20  1  0  0  0
 19 24  1  0  0  0
 20 21  2  0  0  0
 20 98  1  0  0  0
 21 23  1  0  0  0
 22 28  1  0  0  0
 22 32  2  0  0  0
 26 27  1  0  0  0
 28 99  1  0  0  0
 28100  1  0  0  0
 29101  1  0  0  0
 29102  1  0  0  0
 33 34  1  0  0  0
 33 66  1  0  0  0
 33 70  2  0  0  0
 34 36  1  0  0  0
 34 59  1  0  0  0
 34103  1  0  0  0
 35 44  2  0  0  0
 35 45  1  0  0  0
 35 68  1  0  0  0
 36 56  1  0  0  0
 36104  1  0  0  0
 37 39  1  0  0  0
 37 47  1  0  0  0
 37 66  1  0  0  0
 37105  1  0  0  0
 38 43  2  0  0  0
 38 46  1  0  0  0
 38 47  1  0  0  0
 39 64  1  0  0  0
 39 67  2  0  0  0
 40 52  1  0  0  0
 40 53  2  0  0  0
 40 58  1  0  0  0
 41106  1  0  0  0
 41107  1  0  0  0
 41108  1  0  0  0
 41 48  1  0  0  0
 42 43  1  0  0  0
 42 66  1  0  0  0
 42109  1  0  0  0
 42110  1  0  0  0
 43 44  1  0  0  0
 44111  1  0  0  0
 45 46  2  0  0  0
 45112  1  0  0  0
 46113  1  0  0  0
 47114  1  0  0  0
 47115  1  0  0  0
 48 56  1  0  0  0
 48 65  1  0  0  0
 48116  1  0  0  0
 49 50  1  0  0  0
 49 53  1  0  0  0
 49 64  1  0  0  0
 49117  1  0  0  0
 50 51  1  0  0  0
 50118  1  0  0  0
 50119  1  0  0  0
 51 52  1  0  0  0
 51120  1  0  0  0
 51121  1  0  0  0
 52122  1  0  0  0
 52123  1  0  0  0
 53 54  1  0  0  0
 54 55  2  0  0  0
 54124  1  0  0  0
 55 57  1  0  0  0
 55125  1  0  0  0
 56 69  2  0  0  0
 57 58  2  0  0  0
 57126  1  0  0  0
 58127  1  0  0  0
 59 60  1  0  0  0
 59 61  1  0  0  0
 59 62  1  0  0  0
 60128  1  0  0  0
 60129  1  0  0  0
 60130  1  0  0  0
 61131  1  0  0  0
 61132  1  0  0  0
 61133  1  0  0  0
 62134  1  0  0  0
 62135  1  0  0  0
 62136  1  0  0  0
 63 65  1  0  0  0
 63137  1  0  0  0
 63138  1  0  0  0
 63139  1  0  0  0
 64140  1  0  0  0
 65141  1  0  0  0
 68 79  1  0  0  0
 71 73  2  0  0  0
 71 75  1  0  0  0
 71142  1  0  0  0
 72 74  1  0  0  0
 72 75  2  0  0  0
 72143  1  0  0  0
 73 76  1  0  0  0
 73144  1  0  0  0
 74 76  2  0  0  0
 74145  1  0  0  0
 75 80  1  0  0  0
 76 81  1  0  0  0
 77 78  1  0  0  0
 77 80  1  0  0  0
 77 82  2  0  0  0
 78 79  1  0  0  0
 78146  1  0  0  0
 78147  1  0  0  0
 79148  1  0  0  0
 79149  1  0  0  0
 80150  1  0  0  0
 81151  1  0  0  0
M  ISO  4   1 100  68 101  79 101  81 100
M  END
> <chiral flag>
0

> <version>
0

> <s_m_source_file>
/data/baiqing/PycharmProjects/Reinvent-master-3.2/result/LINK_invent/BTK/process_docking_weight1_custom_sum_contain_oxygen_bond_distance_aromatic_linkinvent_7_9_3/rearranged_h_0005.sdf

> <i_m_source_file_index>
13

> <r_mmod_Potential_Energy-OPLS-2005>
-22.6337127685547

> <r_mmod_Stretch_Energy-OPLS-2005>
74.1388244628906

> <r_mmod_Bend_Energy-OPLS-2005>
136.268478393555

> <r_mmod_Torsional_Energy-OPLS-2005>
219.131301879883

> <r_mmod_Improper_Torsional_Energy-OPLS-2005>
3.96359419822693

> <r_mmod_Van_der_Waal_Energy-OPLS-2005>
148.799301147461

> <r_mmod_Electrostatic_Energy-OPLS-2005>
-419.957763671875

> <r_mmod_Solvation_Energy-OPLS-2005>
-229.819793701172

> <b_mmod_Minimization_Converged-OPLS-2005>
0

> <r_mmod_RMS_Derivative-OPLS-2005>
0.986919105052948

$$$$
13
                    3D
 Structure written by MMmdl.
165172  0  0  1  0            999 V2000
  -30.6860  -14.4064   20.4981 C   0  0  0  0  0  0
  -30.4090  -12.2292   19.4280 C   0  0  0  0  0  0
  -29.4933  -12.4715   18.2098 C   0  0  0  0  0  0
  -28.0113  -12.3466   18.6141 C   0  0  0  0  0  0
  -27.6559  -13.1872   19.8696 C   0  0  2  0  0  0
  -28.6960  -12.9566   20.9945 C   0  0  0  0  0  0
  -25.2573  -13.8138   20.5682 C   0  0  0  0  0  0
  -24.1819  -13.0413   20.9213 C   0  0  0  0  0  0
  -24.6361  -11.6885   20.8738 C   0  0  0  0  0  0
  -23.9012  -10.4293   21.0416 C   0  0  0  0  0  0
  -24.3593   -9.4215   21.9194 C   0  0  0  0  0  0
  -23.6302   -8.2216   22.0751 C   0  0  0  0  0  0
  -22.4260   -8.0279   21.3533 C   0  0  0  0  0  0
  -21.9896   -9.0234   20.4618 C   0  0  0  0  0  0
  -22.7201  -10.2137   20.3052 C   0  0  0  0  0  0
  -21.6837   -6.0737   22.5299 C   0  0  0  0  0  0
  -21.3999   -6.5650   23.8226 C   0  0  0  0  0  0
  -21.3652   -5.6805   24.9188 C   0  0  0  0  0  0
  -21.6033   -4.3065   24.7231 C   0  0  0  0  0  0
  -21.8816   -3.8159   23.4356 C   0  0  0  0  0  0
  -21.9184   -4.6972   22.3408 C   0  0  0  0  0  0
  -22.7841  -13.5241   21.1864 C   0  0  0  0  0  0
  -22.1661   -4.2166   21.0975 F   0  0  0  0  0  0
  -21.5623   -3.4537   25.7729 F   0  0  0  0  0  0
  -30.0377  -13.2184   20.4474 N   0  0  0  0  0  0
  -26.2959  -12.9255   20.3343 N   0  0  0  0  0  0
  -25.9261  -11.6418   20.5756 N   0  0  0  0  0  0
  -22.0459  -12.8235   22.0427 N   0  0  0  0  0  0
  -25.4243  -15.1861   20.4079 N   0  0  0  0  0  0
  -31.8476  -14.5813   20.1230 O   0  0  0  0  0  0
  -21.6614   -6.8881   21.4263 O   0  0  0  0  0  0
  -22.3522  -14.5534   20.6732 O   0  0  0  0  0  0
  -24.6105  -31.8725   23.2143 C   0  0  0  0  0  0
  -25.9015  -32.4849   23.8425 C   0  0  1  0  0  0
  -27.2406  -27.4708   20.0780 C   0  0  0  0  0  0
  -25.5895  -33.8641   24.2353 N   0  0  0  0  0  0
  -23.3962  -30.4975   21.5552 C   0  0  2  0  0  0
  -24.8412  -28.9643   20.1186 C   0  0  0  0  0  0
  -22.7388  -29.4673   22.5009 C   0  0  0  0  0  0
  -18.0265  -28.1384   22.8496 C   0  0  0  0  0  0
  -24.1487  -36.7325   23.2642 C   0  0  0  0  0  0
  -25.9218  -30.8448   21.3659 C   0  0  0  0  0  0
  -25.9973  -29.4810   20.7138 C   0  0  0  0  0  0
  -27.1942  -28.7367   20.6987 C   0  0  0  0  0  0
  -26.0594  -26.9548   19.4901 C   0  0  0  0  0  0
  -24.8633  -27.6963   19.5116 C   0  0  0  0  0  0
  -23.6035  -29.8310   20.1680 C   0  0  0  0  0  0
  -25.4112  -36.3121   24.0339 C   0  0  1  0  0  0
  -20.5855  -28.3661   23.1335 C   0  0  2  0  0  0
  -20.6759  -26.9402   22.5425 C   0  0  0  0  0  0
  -19.5737  -26.6389   21.5221 C   0  0  0  0  0  0
  -18.1914  -26.7930   22.1625 C   0  0  0  0  0  0
  -19.1513  -28.8836   23.2916 C   0  0  0  0  0  0
  -18.9445  -30.1448   23.8923 C   0  0  0  0  0  0
  -17.6448  -30.6592   24.0570 C   0  0  0  0  0  0
  -25.9028  -34.9481   23.5151 C   0  0  0  0  0  0
  -16.5343  -29.9097   23.6322 C   0  0  0  0  0  0
  -16.7258  -28.6514   23.0343 C   0  0  0  0  0  0
  -26.4460  -31.6625   25.0742 C   0  0  0  0  0  0
  -25.3738  -31.3713   26.1499 C   0  0  0  0  0  0
  -27.0290  -30.3071   24.6101 C   0  0  0  0  0  0
  -27.6046  -32.4337   25.7497 C   0  0  0  0  0  0
  -27.5577  -37.1825   24.8468 C   0  0  0  0  0  0
  -21.4119  -29.3039   22.3751 N   0  0  0  0  0  0
  -26.4299  -37.3804   23.9394 N   0  0  0  0  0  0
  -24.6612  -31.0842   22.1050 N   0  0  0  0  0  0
  -23.4174  -28.8216   23.3039 O   0  0  0  0  0  0
  -28.4464  -26.8068   20.0720 O   0  0  0  0  0  0
  -26.5584  -34.8933   22.4698 O   0  0  0  0  0  0
  -23.5309  -32.1454   23.7562 O   0  0  0  0  0  0
  -29.9916  -25.0900   19.3995 C   0  0  0  0  0  0
  -28.5596  -25.6187   19.2976 C   0  0  0  0  0  0
  -28.4241  -20.4258   17.6337 C   0  0  0  0  0  0
  -29.7432  -20.7777   18.3486 C   0  0  0  0  0  0
  -27.6087  -19.3040   18.3020 C   0  0  0  0  0  0
  -30.5220  -21.8686   17.5939 C   0  0  0  0  0  0
  -28.3624  -17.9625   18.3214 C   0  0  0  0  0  0
  -31.6441  -22.5269   18.4245 C   0  0  0  0  0  0
  -28.7637  -17.5017   19.7339 C   0  0  0  0  0  0
  -31.8525  -24.0281   18.1241 C   0  0  0  0  0  0
  -30.0111  -16.6043   19.7326 C   0  0  0  0  0  0
  -30.6043  -24.7780   18.2521 N   0  0  0  0  0  0
  -29.8531  -15.4439   20.6026 N   0  0  0  0  0  0
  -30.5260  -24.9400   20.5009 O   0  0  0  0  0  0
  -31.4592  -12.3015   19.1357 H   0  0  0  0  0  0
  -30.2728  -11.2180   19.8182 H   0  0  0  0  0  0
  -29.7250  -11.7605   17.4146 H   0  0  0  0  0  0
  -29.6752  -13.4647   17.7985 H   0  0  0  0  0  0
  -27.8174  -11.2925   18.8158 H   0  0  0  0  0  0
  -27.3650  -12.6206   17.7800 H   0  0  0  0  0  0
  -27.6988  -14.2318   19.5659 H   0  0  0  0  0  0
  -28.6411  -11.9275   21.3534 H   0  0  0  0  0  0
  -28.4872  -13.5821   21.8626 H   0  0  0  0  0  0
  -25.2739   -9.5685   22.4766 H   0  0  0  0  0  0
  -23.9999   -7.4608   22.7473 H   0  0  0  0  0  0
  -21.0820   -8.8744   19.8937 H   0  0  0  0  0  0
  -22.3656  -10.9671   19.6153 H   0  0  0  0  0  0
  -21.1997   -7.6157   23.9739 H   0  0  0  0  0  0
  -21.1470   -6.0525   25.9092 H   0  0  0  0  0  0
  -22.0599   -2.7626   23.2835 H   0  0  0  0  0  0
  -22.4064  -11.9911   22.4844 H   0  0  0  0  0  0
  -21.1088  -13.1244   22.2621 H   0  0  0  0  0  0
  -24.6428  -15.8269   20.5151 H   0  0  0  0  0  0
  -26.2598  -15.6321   20.0554 H   0  0  0  0  0  0
  -26.7093  -32.5564   23.1200 H   0  0  0  0  0  0
  -25.0065  -33.9823   25.0512 H   0  0  0  0  0  0
  -22.6824  -31.3126   21.4196 H   0  0  0  0  0  0
  -23.3735  -35.9673   23.3348 H   0  0  0  0  0  0
  -24.3570  -36.8893   22.2043 H   0  0  0  0  0  0
  -23.7252  -37.6555   23.6624 H   0  0  0  0  0  0
  -26.0314  -31.6105   20.5966 H   0  0  0  0  0  0
  -26.8119  -30.8976   21.9813 H   0  0  0  0  0  0
  -28.0908  -29.1356   21.1533 H   0  0  0  0  0  0
  -26.0363  -25.9880   19.0109 H   0  0  0  0  0  0
  -23.9699  -27.2904   19.0582 H   0  0  0  0  0  0
  -23.7149  -30.6098   19.4123 H   0  0  0  0  0  0
  -22.7259  -29.2554   19.8683 H   0  0  0  0  0  0
  -25.1286  -36.2012   25.0833 H   0  0  0  0  0  0
  -20.9942  -28.3225   24.1458 H   0  0  0  0  0  0
  -20.5679  -26.2266   23.3606 H   0  0  0  0  0  0
  -21.6627  -26.7463   22.1212 H   0  0  0  0  0  0
  -19.6899  -25.6303   21.1244 H   0  0  0  0  0  0
  -19.6682  -27.3203   20.6759 H   0  0  0  0  0  0
  -17.4189  -26.6690   21.4024 H   0  0  0  0  0  0
  -18.0305  -26.0073   22.9017 H   0  0  0  0  0  0
  -19.7918  -30.7254   24.2303 H   0  0  0  0  0  0
  -17.5007  -31.6270   24.5168 H   0  0  0  0  0  0
  -15.5345  -30.3011   23.7631 H   0  0  0  0  0  0
  -15.8654  -28.0847   22.7037 H   0  0  0  0  0  0
  -24.5900  -30.7075   25.7836 H   0  0  0  0  0  0
  -24.8939  -32.2865   26.4977 H   0  0  0  0  0  0
  -25.8098  -30.8860   27.0241 H   0  0  0  0  0  0
  -26.2829  -29.6841   24.1148 H   0  0  0  0  0  0
  -27.4070  -29.7294   25.4552 H   0  0  0  0  0  0
  -27.8665  -30.4406   23.9240 H   0  0  0  0  0  0
  -27.2673  -33.3622   26.2111 H   0  0  0  0  0  0
  -28.3830  -32.6919   25.0306 H   0  0  0  0  0  0
  -28.0744  -31.8440   26.5381 H   0  0  0  0  0  0
  -28.2632  -38.0093   24.7481 H   0  0  0  0  0  0
  -28.1044  -36.2618   24.6347 H   0  0  0  0  0  0
  -27.2289  -37.1545   25.8877 H   0  0  0  0  0  0
  -20.9268  -29.8770   21.6990 H   0  0  0  0  0  0
  -26.0200  -38.2896   24.1372 H   0  0  0  0  0  0
  -27.8887  -24.8454   19.6739 H   0  0  0  0  0  0
  -28.3067  -25.8152   18.2553 H   0  0  0  0  0  0
  -28.6323  -20.1406   16.6032 H   0  0  0  0  0  0
  -27.7997  -21.3174   17.5736 H   0  0  0  0  0  0
  -30.3746  -19.8937   18.4551 H   0  0  0  0  0  0
  -29.5140  -21.1067   19.3626 H   0  0  0  0  0  0
  -26.6842  -19.1770   17.7406 H   0  0  0  0  0  0
  -27.2991  -19.5943   19.3054 H   0  0  0  0  0  0
  -29.8042  -22.6143   17.2639 H   0  0  0  0  0  0
  -30.9434  -21.4570   16.6761 H   0  0  0  0  0  0
  -29.2437  -18.0317   17.6821 H   0  0  0  0  0  0
  -27.7492  -17.1915   17.8553 H   0  0  0  0  0  0
  -32.5813  -21.9936   18.2621 H   0  0  0  0  0  0
  -31.4341  -22.4203   19.4900 H   0  0  0  0  0  0
  -27.9142  -16.9941   20.1908 H   0  0  0  0  0  0
  -28.9660  -18.3665   20.3672 H   0  0  0  0  0  0
  -32.2292  -24.1571   17.1074 H   0  0  0  0  0  0
  -32.6095  -24.4507   18.7910 H   0  0  0  0  0  0
  -30.8934  -17.1780   20.0222 H   0  0  0  0  0  0
  -30.2094  -16.2416   18.7212 H   0  0  0  0  0  0
  -30.0987  -24.9697   17.3964 H   0  0  0  0  0  0
  -28.9133  -15.2065   20.8833 H   0  0  0  0  0  0
  1 25  1  0  0  0
  1 30  2  0  0  0
  1 83  1  0  0  0
  2  3  1  0  0  0
  2 25  1  0  0  0
  2 85  1  0  0  0
  2 86  1  0  0  0
  3  4  1  0  0  0
  3 87  1  0  0  0
  3 88  1  0  0  0
  4  5  1  0  0  0
  4 89  1  0  0  0
  4 90  1  0  0  0
  5  6  1  0  0  0
  5 26  1  0  0  0
  5 91  1  0  0  0
  6 25  1  0  0  0
  6 92  1  0  0  0
  6 93  1  0  0  0
  7  8  2  0  0  0
  7 26  1  0  0  0
  7 29  1  0  0  0
  8  9  1  0  0  0
  8 22  1  0  0  0
  9 10  1  0  0  0
  9 27  2  0  0  0
 10 11  2  0  0  0
 10 15  1  0  0  0
 11 12  1  0  0  0
 11 94  1  0  0  0
 12 13  2  0  0  0
 12 95  1  0  0  0
 13 14  1  0  0  0
 13 31  1  0  0  0
 14 15  2  0  0  0
 14 96  1  0  0  0
 15 97  1  0  0  0
 16 17  2  0  0  0
 16 21  1  0  0  0
 16 31  1  0  0  0
 17 18  1  0  0  0
 17 98  1  0  0  0
 18 19  2  0  0  0
 18 99  1  0  0  0
 19 20  1  0  0  0
 19 24  1  0  0  0
 20 21  2  0  0  0
 20100  1  0  0  0
 21 23  1  0  0  0
 22 28  1  0  0  0
 22 32  2  0  0  0
 26 27  1  0  0  0
 28101  1  0  0  0
 28102  1  0  0  0
 29103  1  0  0  0
 29104  1  0  0  0
 33 34  1  0  0  0
 33 66  1  0  0  0
 33 70  2  0  0  0
 34 36  1  0  0  0
 34 59  1  0  0  0
 34105  1  0  0  0
 35 44  2  0  0  0
 35 45  1  0  0  0
 35 68  1  0  0  0
 36 56  1  0  0  0
 36106  1  0  0  0
 37 39  1  0  0  0
 37 47  1  0  0  0
 37 66  1  0  0  0
 37107  1  0  0  0
 38 43  2  0  0  0
 38 46  1  0  0  0
 38 47  1  0  0  0
 39 64  1  0  0  0
 39 67  2  0  0  0
 40 52  1  0  0  0
 40 53  2  0  0  0
 40 58  1  0  0  0
 41108  1  0  0  0
 41109  1  0  0  0
 41110  1  0  0  0
 41 48  1  0  0  0
 42 43  1  0  0  0
 42 66  1  0  0  0
 42111  1  0  0  0
 42112  1  0  0  0
 43 44  1  0  0  0
 44113  1  0  0  0
 45 46  2  0  0  0
 45114  1  0  0  0
 46115  1  0  0  0
 47116  1  0  0  0
 47117  1  0  0  0
 48 56  1  0  0  0
 48 65  1  0  0  0
 48118  1  0  0  0
 49 50  1  0  0  0
 49 53  1  0  0  0
 49 64  1  0  0  0
 49119  1  0  0  0
 50 51  1  0  0  0
 50120  1  0  0  0
 50121  1  0  0  0
 51 52  1  0  0  0
 51122  1  0  0  0
 51123  1  0  0  0
 52124  1  0  0  0
 52125  1  0  0  0
 53 54  1  0  0  0
 54 55  2  0  0  0
 54126  1  0  0  0
 55 57  1  0  0  0
 55127  1  0  0  0
 56 69  2  0  0  0
 57 58  2  0  0  0
 57128  1  0  0  0
 58129  1  0  0  0
 59 60  1  0  0  0
 59 61  1  0  0  0
 59 62  1  0  0  0
 60130  1  0  0  0
 60131  1  0  0  0
 60132  1  0  0  0
 61133  1  0  0  0
 61134  1  0  0  0
 61135  1  0  0  0
 62136  1  0  0  0
 62137  1  0  0  0
 62138  1  0  0  0
 63 65  1  0  0  0
 63139  1  0  0  0
 63140  1  0  0  0
 63141  1  0  0  0
 64142  1  0  0  0
 65143  1  0  0  0
 68 72  1  0  0  0
 71 72  1  0  0  0
 71 82  1  0  0  0
 71 84  2  0  0  0
 72144  1  0  0  0
 72145  1  0  0  0
 73 74  1  0  0  0
 73 75  1  0  0  0
 73146  1  0  0  0
 73147  1  0  0  0
 74 76  1  0  0  0
 74148  1  0  0  0
 74149  1  0  0  0
 75 77  1  0  0  0
 75150  1  0  0  0
 75151  1  0  0  0
 76 78  1  0  0  0
 76152  1  0  0  0
 76153  1  0  0  0
 77 79  1  0  0  0
 77154  1  0  0  0
 77155  1  0  0  0
 78 80  1  0  0  0
 78156  1  0  0  0
 78157  1  0  0  0
 79 81  1  0  0  0
 79158  1  0  0  0
 79159  1  0  0  0
 80 82  1  0  0  0
 80160  1  0  0  0
 80161  1  0  0  0
 81 83  1  0  0  0
 81162  1  0  0  0
 81163  1  0  0  0
 82164  1  0  0  0
 83165  1  0  0  0
M  ISO  4   1 100  68 101  72 101  83 100
M  END
> <chiral flag>
0

> <version>
0

> <s_m_source_file>
/data/baiqing/PycharmProjects/Reinvent-master-3.2/result/LINK_invent/BTK/process_docking_weight1_custom_sum_contain_oxygen_bond_distance_aromatic_linkinvent_7_9_3/rearranged_h_0005.sdf

> <i_m_source_file_index>
14

> <r_mmod_Potential_Energy-OPLS-2005>
-66.6205215454102

> <r_mmod_Stretch_Energy-OPLS-2005>
30.2361679077148

> <r_mmod_Bend_Energy-OPLS-2005>
92.1136245727539

> <r_mmod_Torsional_Energy-OPLS-2005>
255.324172973633

> <r_mmod_Improper_Torsional_Energy-OPLS-2005>
13.7988767623901

> <r_mmod_Van_der_Waal_Energy-OPLS-2005>
141.822113037109

> <r_mmod_Electrostatic_Energy-OPLS-2005>
-372.909118652344

> <r_mmod_Solvation_Energy-OPLS-2005>
-240.586563110352

> <b_mmod_Minimization_Converged-OPLS-2005>
0

> <r_mmod_RMS_Derivative-OPLS-2005>
4.37796878814697

$$$$
14
                    3D
 Structure written by MMmdl.
154162  0  0  1  0            999 V2000
  -30.6128  -14.8187   20.3685 C   0  0  0  0  0  0
  -30.4420  -12.4777   19.4804 C   0  0  0  0  0  0
  -29.5174  -12.3983   18.2452 C   0  0  0  0  0  0
  -28.0373  -12.2655   18.6655 C   0  0  0  0  0  0
  -27.6268  -13.2008   19.8350 C   0  0  2  0  0  0
  -28.6866  -13.2431   20.9573 C   0  0  0  0  0  0
  -25.2522  -13.8095   20.5763 C   0  0  0  0  0  0
  -24.1775  -13.0388   20.9241 C   0  0  0  0  0  0
  -24.6338  -11.6857   20.8807 C   0  0  0  0  0  0
  -23.9015  -10.4257   21.0451 C   0  0  0  0  0  0
  -24.3578   -9.4169   21.9212 C   0  0  0  0  0  0
  -23.6263   -8.2202   22.0760 C   0  0  0  0  0  0
  -22.4246   -8.0252   21.3545 C   0  0  0  0  0  0
  -21.9880   -9.0230   20.4653 C   0  0  0  0  0  0
  -22.7203  -10.2113   20.3082 C   0  0  0  0  0  0
  -21.6834   -6.0724   22.5282 C   0  0  0  0  0  0
  -21.4001   -6.5632   23.8214 C   0  0  0  0  0  0
  -21.3658   -5.6789   24.9178 C   0  0  0  0  0  0
  -21.6044   -4.3051   24.7231 C   0  0  0  0  0  0
  -21.8816   -3.8141   23.4352 C   0  0  0  0  0  0
  -21.9182   -4.6954   22.3407 C   0  0  0  0  0  0
  -22.7809  -13.5215   21.1868 C   0  0  0  0  0  0
  -22.1652   -4.2140   21.0984 F   0  0  0  0  0  0
  -21.5634   -3.4537   25.7745 F   0  0  0  0  0  0
  -29.9698  -13.5929   20.3346 N   0  0  0  0  0  0
  -26.2888  -12.9215   20.3337 N   0  0  0  0  0  0
  -25.9256  -11.6404   20.5845 N   0  0  0  0  0  0
  -22.0420  -12.8241   22.0425 N   0  0  0  0  0  0
  -25.4258  -15.1821   20.4220 N   0  0  0  0  0  0
  -31.8385  -14.8414   20.2236 O   0  0  0  0  0  0
  -21.6609   -6.8856   21.4240 O   0  0  0  0  0  0
  -22.3521  -14.5519   20.6691 O   0  0  0  0  0  0
  -24.6310  -31.8531   23.1971 C   0  0  0  0  0  0
  -25.9133  -32.4737   23.8319 C   0  0  1  0  0  0
  -27.2319  -27.2644   20.1293 C   0  0  0  0  0  0
  -25.5936  -33.8544   24.2253 N   0  0  0  0  0  0
  -23.4287  -30.4744   21.5378 C   0  0  2  0  0  0
  -24.8775  -28.9157   20.1068 C   0  0  0  0  0  0
  -22.7502  -29.4594   22.4891 C   0  0  0  0  0  0
  -18.0294  -28.1388   22.8477 C   0  0  0  0  0  0
  -24.1488  -36.7273   23.2642 C   0  0  0  0  0  0
  -25.9726  -30.7659   21.3767 C   0  0  0  0  0  0
  -26.0445  -29.3882   20.7184 C   0  0  0  0  0  0
  -27.2185  -28.5731   20.7197 C   0  0  0  0  0  0
  -26.0395  -26.8486   19.4969 C   0  0  0  0  0  0
  -24.8804  -27.6547   19.4856 C   0  0  0  0  0  0
  -23.6480  -29.8036   20.1538 C   0  0  0  0  0  0
  -25.4114  -36.3062   24.0330 C   0  0  1  0  0  0
  -20.5899  -28.3704   23.1254 C   0  0  2  0  0  0
  -20.6781  -26.9422   22.5396 C   0  0  0  0  0  0
  -19.5753  -26.6387   21.5202 C   0  0  0  0  0  0
  -18.1938  -26.7927   22.1621 C   0  0  0  0  0  0
  -19.1548  -28.8862   23.2863 C   0  0  0  0  0  0
  -18.9470  -30.1459   23.8888 C   0  0  0  0  0  0
  -17.6469  -30.6585   24.0563 C   0  0  0  0  0  0
  -25.9057  -34.9433   23.5095 C   0  0  0  0  0  0
  -16.5360  -29.9084   23.6328 C   0  0  0  0  0  0
  -16.7282  -28.6501   23.0352 C   0  0  0  0  0  0
  -26.4518  -31.6561   25.0707 C   0  0  0  0  0  0
  -25.3755  -31.3695   26.1434 C   0  0  0  0  0  0
  -27.0372  -30.2974   24.6199 C   0  0  0  0  0  0
  -27.6067  -32.4320   25.7475 C   0  0  0  0  0  0
  -27.5578  -37.1795   24.8469 C   0  0  0  0  0  0
  -21.4209  -29.3054   22.3642 N   0  0  0  0  0  0
  -26.4290  -37.3762   23.9411 N   0  0  0  0  0  0
  -24.6961  -31.0506   22.0933 N   0  0  0  0  0  0
  -23.4198  -28.8136   23.2995 O   0  0  0  0  0  0
  -28.3583  -26.4172   20.2305 O   0  0  0  0  0  0
  -26.5631  -34.8912   22.4664 O   0  0  0  0  0  0
  -23.5464  -32.1349   23.7271 O   0  0  0  0  0  0
  -31.5745  -19.0575   21.7550 C   0  0  0  0  0  0
  -30.7217  -20.1349   21.4178 C   0  0  0  0  0  0
  -31.2808  -17.7190   21.3977 C   0  0  0  0  0  0
  -29.2472  -18.5301   20.3621 C   0  0  0  0  0  0
  -29.5190  -19.9114   20.7206 C   0  0  0  0  0  0
  -30.1193  -17.3936   20.6581 C   0  0  0  0  0  0
  -28.2746  -23.7351   20.4390 C   0  0  0  0  0  0
  -29.1217  -16.0552   18.8908 C   0  0  0  0  0  0
  -28.4979  -21.1141   20.4821 C   0  0  0  0  0  0
  -28.5014  -25.0712   19.5788 C   0  0  0  0  0  0
  -28.9146  -22.5410   20.1273 N   0  0  0  0  0  0
  -29.8679  -16.0025   20.1574 N   0  0  0  0  0  0
  -27.4477  -23.7691   21.3531 O   0  0  0  0  0  0
  -30.4209  -11.5407   20.0391 H   0  0  0  0  0  0
  -31.4768  -12.6121   19.1606 H   0  0  0  0  0  0
  -29.7961  -11.5346   17.6393 H   0  0  0  0  0  0
  -29.6663  -13.2526   17.5897 H   0  0  0  0  0  0
  -27.8909  -11.2284   18.9680 H   0  0  0  0  0  0
  -27.3837  -12.4211   17.8069 H   0  0  0  0  0  0
  -27.5526  -14.1826   19.3951 H   0  0  0  0  0  0
  -28.4168  -13.9879   21.7080 H   0  0  0  0  0  0
  -28.7533  -12.2841   21.4726 H   0  0  0  0  0  0
  -25.2725   -9.5639   22.4785 H   0  0  0  0  0  0
  -23.9968   -7.4586   22.7473 H   0  0  0  0  0  0
  -21.0809   -8.8762   19.8957 H   0  0  0  0  0  0
  -22.3675  -10.9662   19.6195 H   0  0  0  0  0  0
  -21.1990   -7.6140   23.9720 H   0  0  0  0  0  0
  -21.1485   -6.0518   25.9083 H   0  0  0  0  0  0
  -22.0596   -2.7602   23.2858 H   0  0  0  0  0  0
  -22.4011  -11.9917   22.4862 H   0  0  0  0  0  0
  -21.1042  -13.1300   22.2601 H   0  0  0  0  0  0
  -24.6644  -15.8401   20.5494 H   0  0  0  0  0  0
  -26.2951  -15.6262   20.1566 H   0  0  0  0  0  0
  -26.7192  -32.5390   23.1053 H   0  0  0  0  0  0
  -25.0096  -33.9674   25.0410 H   0  0  0  0  0  0
  -22.7255  -31.2968   21.3892 H   0  0  0  0  0  0
  -23.3754  -35.9601   23.3305 H   0  0  0  0  0  0
  -24.3570  -36.8893   22.2055 H   0  0  0  0  0  0
  -23.7239  -37.6475   23.6664 H   0  0  0  0  0  0
  -26.1166  -31.5272   20.6084 H   0  0  0  0  0  0
  -26.8476  -30.8121   22.0136 H   0  0  0  0  0  0
  -28.1122  -28.9296   21.2122 H   0  0  0  0  0  0
  -25.9668  -25.8745   19.0382 H   0  0  0  0  0  0
  -23.9839  -27.2847   19.0073 H   0  0  0  0  0  0
  -23.7740  -30.5786   19.3968 H   0  0  0  0  0  0
  -22.7661  -29.2378   19.8489 H   0  0  0  0  0  0
  -25.1297  -36.1908   25.0824 H   0  0  0  0  0  0
  -21.0000  -28.3294   24.1371 H   0  0  0  0  0  0
  -20.5667  -26.2329   23.3609 H   0  0  0  0  0  0
  -21.6647  -26.7436   22.1198 H   0  0  0  0  0  0
  -19.6915  -25.6297   21.1237 H   0  0  0  0  0  0
  -19.6681  -27.3188   20.6722 H   0  0  0  0  0  0
  -17.4204  -26.6673   21.4029 H   0  0  0  0  0  0
  -18.0345  -26.0072   22.9020 H   0  0  0  0  0  0
  -19.7947  -30.7274   24.2260 H   0  0  0  0  0  0
  -17.5023  -31.6260   24.5173 H   0  0  0  0  0  0
  -15.5360  -30.2987   23.7647 H   0  0  0  0  0  0
  -15.8686  -28.0815   22.7072 H   0  0  0  0  0  0
  -24.5926  -30.7048   25.7759 H   0  0  0  0  0  0
  -24.8952  -32.2860   26.4870 H   0  0  0  0  0  0
  -25.8086  -30.8870   27.0205 H   0  0  0  0  0  0
  -26.2960  -29.6720   24.1207 H   0  0  0  0  0  0
  -27.4026  -29.7233   25.4724 H   0  0  0  0  0  0
  -27.8851  -30.4245   23.9461 H   0  0  0  0  0  0
  -27.2661  -33.3622   26.2036 H   0  0  0  0  0  0
  -28.3879  -32.6882   25.0305 H   0  0  0  0  0  0
  -28.0738  -31.8467   26.5405 H   0  0  0  0  0  0
  -28.2601  -38.0087   24.7509 H   0  0  0  0  0  0
  -28.1073  -36.2620   24.6307 H   0  0  0  0  0  0
  -27.2296  -37.1454   25.8873 H   0  0  0  0  0  0
  -20.9401  -29.8788   21.6852 H   0  0  0  0  0  0
  -26.0170  -38.2837   24.1410 H   0  0  0  0  0  0
  -32.4835  -19.2633   22.3035 H   0  0  0  0  0  0
  -30.9811  -21.1385   21.7289 H   0  0  0  0  0  0
  -31.9937  -16.9541   21.6713 H   0  0  0  0  0  0
  -28.3220  -18.3510   19.8349 H   0  0  0  0  0  0
  -29.5108  -16.8483   18.2501 H   0  0  0  0  0  0
  -29.1935  -15.1600   18.2851 H   0  0  0  0  0  0
  -28.0674  -16.2652   19.0659 H   0  0  0  0  0  0
  -27.8819  -21.1614   21.3819 H   0  0  0  0  0  0
  -27.8126  -20.7933   19.6966 H   0  0  0  0  0  0
  -27.9021  -25.0087   18.6714 H   0  0  0  0  0  0
  -29.5317  -25.0289   19.2238 H   0  0  0  0  0  0
  -29.6105  -22.6045   19.3959 H   0  0  0  0  0  0
  1 25  1  0  0  0
  1 30  2  0  0  0
  1 82  1  0  0  0
  2  3  1  0  0  0
  2 25  1  0  0  0
  2 84  1  0  0  0
  2 85  1  0  0  0
  3  4  1  0  0  0
  3 86  1  0  0  0
  3 87  1  0  0  0
  4  5  1  0  0  0
  4 88  1  0  0  0
  4 89  1  0  0  0
  5  6  1  0  0  0
  5 26  1  0  0  0
  5 90  1  0  0  0
  6 25  1  0  0  0
  6 91  1  0  0  0
  6 92  1  0  0  0
  7  8  2  0  0  0
  7 26  1  0  0  0
  7 29  1  0  0  0
  8  9  1  0  0  0
  8 22  1  0  0  0
  9 10  1  0  0  0
  9 27  2  0  0  0
 10 11  2  0  0  0
 10 15  1  0  0  0
 11 12  1  0  0  0
 11 93  1  0  0  0
 12 13  2  0  0  0
 12 94  1  0  0  0
 13 14  1  0  0  0
 13 31  1  0  0  0
 14 15  2  0  0  0
 14 95  1  0  0  0
 15 96  1  0  0  0
 16 17  2  0  0  0
 16 21  1  0  0  0
 16 31  1  0  0  0
 17 18  1  0  0  0
 17 97  1  0  0  0
 18 19  2  0  0  0
 18 98  1  0  0  0
 19 20  1  0  0  0
 19 24  1  0  0  0
 20 21  2  0  0  0
 20 99  1  0  0  0
 21 23  1  0  0  0
 22 28  1  0  0  0
 22 32  2  0  0  0
 26 27  1  0  0  0
 28100  1  0  0  0
 28101  1  0  0  0
 29102  1  0  0  0
 29103  1  0  0  0
 33 34  1  0  0  0
 33 66  1  0  0  0
 33 70  2  0  0  0
 34 36  1  0  0  0
 34 59  1  0  0  0
 34104  1  0  0  0
 35 44  2  0  0  0
 35 45  1  0  0  0
 35 68  1  0  0  0
 36 56  1  0  0  0
 36105  1  0  0  0
 37 39  1  0  0  0
 37 47  1  0  0  0
 37 66  1  0  0  0
 37106  1  0  0  0
 38 43  2  0  0  0
 38 46  1  0  0  0
 38 47  1  0  0  0
 39 64  1  0  0  0
 39 67  2  0  0  0
 40 52  1  0  0  0
 40 53  2  0  0  0
 40 58  1  0  0  0
 41107  1  0  0  0
 41108  1  0  0  0
 41109  1  0  0  0
 41 48  1  0  0  0
 42 43  1  0  0  0
 42 66  1  0  0  0
 42110  1  0  0  0
 42111  1  0  0  0
 43 44  1  0  0  0
 44112  1  0  0  0
 45 46  2  0  0  0
 45113  1  0  0  0
 46114  1  0  0  0
 47115  1  0  0  0
 47116  1  0  0  0
 48 56  1  0  0  0
 48 65  1  0  0  0
 48117  1  0  0  0
 49 50  1  0  0  0
 49 53  1  0  0  0
 49 64  1  0  0  0
 49118  1  0  0  0
 50 51  1  0  0  0
 50119  1  0  0  0
 50120  1  0  0  0
 51 52  1  0  0  0
 51121  1  0  0  0
 51122  1  0  0  0
 52123  1  0  0  0
 52124  1  0  0  0
 53 54  1  0  0  0
 54 55  2  0  0  0
 54125  1  0  0  0
 55 57  1  0  0  0
 55126  1  0  0  0
 56 69  2  0  0  0
 57 58  2  0  0  0
 57127  1  0  0  0
 58128  1  0  0  0
 59 60  1  0  0  0
 59 61  1  0  0  0
 59 62  1  0  0  0
 60129  1  0  0  0
 60130  1  0  0  0
 60131  1  0  0  0
 61132  1  0  0  0
 61133  1  0  0  0
 61134  1  0  0  0
 62135  1  0  0  0
 62136  1  0  0  0
 62137  1  0  0  0
 63 65  1  0  0  0
 63138  1  0  0  0
 63139  1  0  0  0
 63140  1  0  0  0
 64141  1  0  0  0
 65142  1  0  0  0
 68 80  1  0  0  0
 71 72  2  0  0  0
 71 73  1  0  0  0
 71143  1  0  0  0
 72 75  1  0  0  0
 72144  1  0  0  0
 73 76  2  0  0  0
 73145  1  0  0  0
 74 75  2  0  0  0
 74 76  1  0  0  0
 74146  1  0  0  0
 75 79  1  0  0  0
 76 82  1  0  0  0
 77 80  1  0  0  0
 77 81  1  0  0  0
 77 83  2  0  0  0
 78 82  1  0  0  0
 78147  1  0  0  0
 78148  1  0  0  0
 78149  1  0  0  0
 79 81  1  0  0  0
 79150  1  0  0  0
 79151  1  0  0  0
 80152  1  0  0  0
 80153  1  0  0  0
 81154  1  0  0  0
M  ISO  4   1 100  68 101  80 101  82 100
M  END
> <chiral flag>
0

> <version>
0

> <s_m_source_file>
/data/baiqing/PycharmProjects/Reinvent-master-3.2/result/LINK_invent/BTK/process_docking_weight1_custom_sum_contain_oxygen_bond_distance_aromatic_linkinvent_7_9_3/rearranged_h_0005.sdf

> <i_m_source_file_index>
15

> <r_mmod_Potential_Energy-OPLS-2005>
321.801239013672

> <r_mmod_Stretch_Energy-OPLS-2005>
131.311935424805

> <r_mmod_Bend_Energy-OPLS-2005>
186.711761474609

> <r_mmod_Torsional_Energy-OPLS-2005>
290.407806396484

> <r_mmod_Improper_Torsional_Energy-OPLS-2005>
14.5497484207153

> <r_mmod_Van_der_Waal_Energy-OPLS-2005>
148.837982177734

> <r_mmod_Electrostatic_Energy-OPLS-2005>
-328.451995849609

> <r_mmod_Solvation_Energy-OPLS-2005>
-233.631774902344

> <b_mmod_Minimization_Converged-OPLS-2005>
0

> <r_mmod_RMS_Derivative-OPLS-2005>
1.01264953613281

$$$$
15
                    3D
 Structure written by MMmdl.
155163  0  0  1  0            999 V2000
  -30.6951  -14.4835   20.5378 C   0  0  0  0  0  0
  -30.4142  -12.2925   19.4590 C   0  0  0  0  0  0
  -29.5103  -12.4887   18.2244 C   0  0  0  0  0  0
  -28.0223  -12.3645   18.6116 C   0  0  0  0  0  0
  -27.6556  -13.2130   19.8606 C   0  0  2  0  0  0
  -28.6857  -13.0108   20.9908 C   0  0  0  0  0  0
  -25.2566  -13.8179   20.5601 C   0  0  0  0  0  0
  -24.1826  -13.0445   20.9151 C   0  0  0  0  0  0
  -24.6378  -11.6930   20.8711 C   0  0  0  0  0  0
  -23.9040  -10.4315   21.0394 C   0  0  0  0  0  0
  -24.3601   -9.4235   21.9175 C   0  0  0  0  0  0
  -23.6291   -8.2255   22.0754 C   0  0  0  0  0  0
  -22.4270   -8.0284   21.3555 C   0  0  0  0  0  0
  -21.9893   -9.0244   20.4648 C   0  0  0  0  0  0
  -22.7209  -10.2141   20.3051 C   0  0  0  0  0  0
  -21.6858   -6.0751   22.5293 C   0  0  0  0  0  0
  -21.4017   -6.5640   23.8232 C   0  0  0  0  0  0
  -21.3672   -5.6783   24.9186 C   0  0  0  0  0  0
  -21.6032   -4.3050   24.7225 C   0  0  0  0  0  0
  -21.8817   -3.8163   23.4346 C   0  0  0  0  0  0
  -21.9187   -4.6984   22.3407 C   0  0  0  0  0  0
  -22.7861  -13.5254   21.1824 C   0  0  0  0  0  0
  -22.1650   -4.2191   21.0979 F   0  0  0  0  0  0
  -21.5636   -3.4507   25.7728 F   0  0  0  0  0  0
  -30.0218  -13.3028   20.4589 N   0  0  0  0  0  0
  -26.2973  -12.9339   20.3228 N   0  0  0  0  0  0
  -25.9300  -11.6505   20.5713 N   0  0  0  0  0  0
  -22.0462  -12.8307   22.0412 N   0  0  0  0  0  0
  -25.4269  -15.1895   20.4050 N   0  0  0  0  0  0
  -31.8409  -14.6070   20.0965 O   0  0  0  0  0  0
  -21.6634   -6.8890   21.4262 O   0  0  0  0  0  0
  -22.3559  -14.5540   20.6652 O   0  0  0  0  0  0
  -24.6113  -31.8685   23.2077 C   0  0  0  0  0  0
  -25.9020  -32.4819   23.8386 C   0  0  1  0  0  0
  -27.2222  -27.4309   20.1115 C   0  0  0  0  0  0
  -25.5897  -33.8618   24.2359 N   0  0  0  0  0  0
  -23.4002  -30.4878   21.5492 C   0  0  2  0  0  0
  -24.8469  -28.9588   20.1121 C   0  0  0  0  0  0
  -22.7383  -29.4643   22.4996 C   0  0  0  0  0  0
  -18.0276  -28.1395   22.8485 C   0  0  0  0  0  0
  -24.1482  -36.7296   23.2635 C   0  0  0  0  0  0
  -25.9247  -30.8338   21.3632 C   0  0  0  0  0  0
  -26.0040  -29.4663   20.7159 C   0  0  0  0  0  0
  -27.1985  -28.7090   20.7186 C   0  0  0  0  0  0
  -26.0604  -26.9477   19.4776 C   0  0  0  0  0  0
  -24.8700  -27.6997   19.4847 C   0  0  0  0  0  0
  -23.6064  -29.8208   20.1628 C   0  0  0  0  0  0
  -25.4111  -36.3102   24.0321 C   0  0  1  0  0  0
  -20.5859  -28.3651   23.1335 C   0  0  2  0  0  0
  -20.6738  -26.9391   22.5417 C   0  0  0  0  0  0
  -19.5727  -26.6372   21.5207 C   0  0  0  0  0  0
  -18.1914  -26.7946   22.1608 C   0  0  0  0  0  0
  -19.1529  -28.8834   23.2912 C   0  0  0  0  0  0
  -18.9461  -30.1451   23.8924 C   0  0  0  0  0  0
  -17.6466  -30.6603   24.0582 C   0  0  0  0  0  0
  -25.9010  -34.9470   23.5131 C   0  0  0  0  0  0
  -16.5358  -29.9096   23.6361 C   0  0  0  0  0  0
  -16.7263  -28.6505   23.0379 C   0  0  0  0  0  0
  -26.4472  -31.6567   25.0698 C   0  0  0  0  0  0
  -25.3766  -31.3668   26.1473 C   0  0  0  0  0  0
  -27.0289  -30.3013   24.6040 C   0  0  0  0  0  0
  -27.6096  -32.4241   25.7422 C   0  0  0  0  0  0
  -27.5580  -37.1806   24.8481 C   0  0  0  0  0  0
  -21.4113  -29.3013   22.3740 N   0  0  0  0  0  0
  -26.4317  -37.3774   23.9391 N   0  0  0  0  0  0
  -24.6633  -31.0784   22.0999 N   0  0  0  0  0  0
  -23.4155  -28.8224   23.3066 O   0  0  0  0  0  0
  -28.3407  -26.6311   20.1345 O   0  0  0  0  0  0
  -26.5583  -34.8911   22.4720 O   0  0  0  0  0  0
  -23.5298  -32.1444   23.7462 O   0  0  0  0  0  0
  -29.4491  -16.0313   22.1929 C   0  0  0  0  0  0
  -29.9749  -16.8346   19.9728 C   0  0  0  0  0  0
  -28.9251  -17.3100   22.5139 C   0  0  0  0  0  0
  -29.4585  -18.1085   20.2935 C   0  0  0  0  0  0
  -29.9852  -15.7729   20.9112 C   0  0  0  0  0  0
  -28.9207  -18.3700   21.5763 C   0  0  0  0  0  0
  -28.4829  -23.3104   21.2486 C   0  0  0  0  0  0
  -27.7298  -21.9852   21.6067 C   0  0  0  0  0  0
  -27.7286  -24.6312   21.5708 C   0  0  0  0  0  0
  -28.3953  -20.6972   21.0382 C   0  0  0  0  0  0
  -28.5466  -25.9503   21.3840 C   0  0  0  0  0  0
  -28.3881  -19.5953   21.9669 O   0  0  0  0  0  0
  -31.4629  -12.3596   19.1709 H   0  0  0  0  0  0
  -30.2875  -11.2900   19.8701 H   0  0  0  0  0  0
  -29.7631  -11.7587   17.4550 H   0  0  0  0  0  0
  -29.6964  -13.4720   17.7908 H   0  0  0  0  0  0
  -27.8178  -11.3124   18.8051 H   0  0  0  0  0  0
  -27.3920  -12.6398   17.7655 H   0  0  0  0  0  0
  -27.6959  -14.2586   19.5568 H   0  0  0  0  0  0
  -28.6576  -11.9773   21.3427 H   0  0  0  0  0  0
  -28.4335  -13.6208   21.8572 H   0  0  0  0  0  0
  -25.2745   -9.5723   22.4762 H   0  0  0  0  0  0
  -24.0018   -7.4643   22.7459 H   0  0  0  0  0  0
  -21.0812   -8.8728   19.8962 H   0  0  0  0  0  0
  -22.3623  -10.9662   19.6175 H   0  0  0  0  0  0
  -21.2006   -7.6152   23.9754 H   0  0  0  0  0  0
  -21.1507   -6.0508   25.9091 H   0  0  0  0  0  0
  -22.0595   -2.7630   23.2810 H   0  0  0  0  0  0
  -22.3977  -11.9969   22.4877 H   0  0  0  0  0  0
  -21.1104  -13.1447   22.2568 H   0  0  0  0  0  0
  -24.6674  -15.8493   20.5292 H   0  0  0  0  0  0
  -26.2947  -15.6366   20.1317 H   0  0  0  0  0  0
  -26.7108  -32.5523   23.1154 H   0  0  0  0  0  0
  -25.0077  -33.9789   25.0508 H   0  0  0  0  0  0
  -22.6892  -31.3028   21.4089 H   0  0  0  0  0  0
  -23.3727  -35.9649   23.3340 H   0  0  0  0  0  0
  -24.3618  -36.8885   22.2060 H   0  0  0  0  0  0
  -23.7250  -37.6516   23.6609 H   0  0  0  0  0  0
  -26.0376  -31.5963   20.5922 H   0  0  0  0  0  0
  -26.8132  -30.8931   21.9795 H   0  0  0  0  0  0
  -28.0882  -29.0916   21.1989 H   0  0  0  0  0  0
  -26.0685  -25.9762   19.0012 H   0  0  0  0  0  0
  -23.9822  -27.3086   19.0068 H   0  0  0  0  0  0
  -23.7064  -30.5941   19.3995 H   0  0  0  0  0  0
  -22.7311  -29.2360   19.8711 H   0  0  0  0  0  0
  -25.1286  -36.1992   25.0806 H   0  0  0  0  0  0
  -20.9950  -28.3187   24.1462 H   0  0  0  0  0  0
  -20.5658  -26.2237   23.3574 H   0  0  0  0  0  0
  -21.6605  -26.7433   22.1237 H   0  0  0  0  0  0
  -19.6884  -25.6264   21.1260 H   0  0  0  0  0  0
  -19.6714  -27.3161   20.6719 H   0  0  0  0  0  0
  -17.4213  -26.6752   21.3978 H   0  0  0  0  0  0
  -18.0331  -26.0081   22.8983 H   0  0  0  0  0  0
  -19.7947  -30.7243   24.2317 H   0  0  0  0  0  0
  -17.5023  -31.6275   24.5178 H   0  0  0  0  0  0
  -15.5362  -30.3004   23.7653 H   0  0  0  0  0  0
  -15.8664  -28.0801   22.7153 H   0  0  0  0  0  0
  -24.5990  -30.6937   25.7842 H   0  0  0  0  0  0
  -24.8857  -32.2787   26.4838 H   0  0  0  0  0  0
  -25.8153  -30.8920   27.0265 H   0  0  0  0  0  0
  -26.2812  -29.6798   24.1103 H   0  0  0  0  0  0
  -27.4108  -29.7217   25.4462 H   0  0  0  0  0  0
  -27.8602  -30.4349   23.9142 H   0  0  0  0  0  0
  -27.2802  -33.3571   26.2000 H   0  0  0  0  0  0
  -28.3872  -32.6786   25.0204 H   0  0  0  0  0  0
  -28.0793  -31.8358   26.5309 H   0  0  0  0  0  0
  -28.2630  -38.0067   24.7500 H   0  0  0  0  0  0
  -28.1058  -36.2619   24.6350 H   0  0  0  0  0  0
  -27.2303  -37.1503   25.8887 H   0  0  0  0  0  0
  -20.9249  -29.8700   21.6936 H   0  0  0  0  0  0
  -26.0204  -38.2849   24.1395 H   0  0  0  0  0  0
  -29.4619  -15.2605   22.9522 H   0  0  0  0  0  0
  -30.3910  -16.6746   18.9874 H   0  0  0  0  0  0
  -28.5364  -17.4786   23.5056 H   0  0  0  0  0  0
  -29.4962  -18.8755   19.5353 H   0  0  0  0  0  0
  -28.7573  -23.3173   20.1937 H   0  0  0  0  0  0
  -29.4293  -23.3149   21.7932 H   0  0  0  0  0  0
  -26.6986  -22.0237   21.2481 H   0  0  0  0  0  0
  -27.6447  -21.9050   22.6952 H   0  0  0  0  0  0
  -27.4058  -24.5841   22.6121 H   0  0  0  0  0  0
  -26.8083  -24.6753   20.9912 H   0  0  0  0  0  0
  -29.4222  -20.9307   20.7589 H   0  0  0  0  0  0
  -27.8741  -20.4101   20.1234 H   0  0  0  0  0  0
  -29.6135  -25.7490   21.4907 H   0  0  0  0  0  0
  -28.3133  -26.6302   22.2082 H   0  0  0  0  0  0
  1 25  1  0  0  0
  1 30  2  0  0  0
  1 75  1  0  0  0
  2  3  1  0  0  0
  2 25  1  0  0  0
  2 83  1  0  0  0
  2 84  1  0  0  0
  3  4  1  0  0  0
  3 85  1  0  0  0
  3 86  1  0  0  0
  4  5  1  0  0  0
  4 87  1  0  0  0
  4 88  1  0  0  0
  5  6  1  0  0  0
  5 26  1  0  0  0
  5 89  1  0  0  0
  6 25  1  0  0  0
  6 90  1  0  0  0
  6 91  1  0  0  0
  7  8  2  0  0  0
  7 26  1  0  0  0
  7 29  1  0  0  0
  8  9  1  0  0  0
  8 22  1  0  0  0
  9 10  1  0  0  0
  9 27  2  0  0  0
 10 11  2  0  0  0
 10 15  1  0  0  0
 11 12  1  0  0  0
 11 92  1  0  0  0
 12 13  2  0  0  0
 12 93  1  0  0  0
 13 14  1  0  0  0
 13 31  1  0  0  0
 14 15  2  0  0  0
 14 94  1  0  0  0
 15 95  1  0  0  0
 16 17  2  0  0  0
 16 21  1  0  0  0
 16 31  1  0  0  0
 17 18  1  0  0  0
 17 96  1  0  0  0
 18 19  2  0  0  0
 18 97  1  0  0  0
 19 20  1  0  0  0
 19 24  1  0  0  0
 20 21  2  0  0  0
 20 98  1  0  0  0
 21 23  1  0  0  0
 22 28  1  0  0  0
 22 32  2  0  0  0
 26 27  1  0  0  0
 28 99  1  0  0  0
 28100  1  0  0  0
 29101  1  0  0  0
 29102  1  0  0  0
 33 34  1  0  0  0
 33 66  1  0  0  0
 33 70  2  0  0  0
 34 36  1  0  0  0
 34 59  1  0  0  0
 34103  1  0  0  0
 35 44  2  0  0  0
 35 45  1  0  0  0
 35 68  1  0  0  0
 36 56  1  0  0  0
 36104  1  0  0  0
 37 39  1  0  0  0
 37 47  1  0  0  0
 37 66  1  0  0  0
 37105  1  0  0  0
 38 43  2  0  0  0
 38 46  1  0  0  0
 38 47  1  0  0  0
 39 64  1  0  0  0
 39 67  2  0  0  0
 40 52  1  0  0  0
 40 53  2  0  0  0
 40 58  1  0  0  0
 41106  1  0  0  0
 41107  1  0  0  0
 41108  1  0  0  0
 41 48  1  0  0  0
 42 43  1  0  0  0
 42 66  1  0  0  0
 42109  1  0  0  0
 42110  1  0  0  0
 43 44  1  0  0  0
 44111  1  0  0  0
 45 46  2  0  0  0
 45112  1  0  0  0
 46113  1  0  0  0
 47114  1  0  0  0
 47115  1  0  0  0
 48 56  1  0  0  0
 48 65  1  0  0  0
 48116  1  0  0  0
 49 50  1  0  0  0
 49 53  1  0  0  0
 49 64  1  0  0  0
 49117  1  0  0  0
 50 51  1  0  0  0
 50118  1  0  0  0
 50119  1  0  0  0
 51 52  1  0  0  0
 51120  1  0  0  0
 51121  1  0  0  0
 52122  1  0  0  0
 52123  1  0  0  0
 53 54  1  0  0  0
 54 55  2  0  0  0
 54124  1  0  0  0
 55 57  1  0  0  0
 55125  1  0  0  0
 56 69  2  0  0  0
 57 58  2  0  0  0
 57126  1  0  0  0
 58127  1  0  0  0
 59 60  1  0  0  0
 59 61  1  0  0  0
 59 62  1  0  0  0
 60128  1  0  0  0
 60129  1  0  0  0
 60130  1  0  0  0
 61131  1  0  0  0
 61132  1  0  0  0
 61133  1  0  0  0
 62134  1  0  0  0
 62135  1  0  0  0
 62136  1  0  0  0
 63 65  1  0  0  0
 63137  1  0  0  0
 63138  1  0  0  0
 63139  1  0  0  0
 64140  1  0  0  0
 65141  1  0  0  0
 68 81  1  0  0  0
 71 73  2  0  0  0
 71 75  1  0  0  0
 71142  1  0  0  0
 72 74  1  0  0  0
 72 75  2  0  0  0
 72143  1  0  0  0
 73 76  1  0  0  0
 73144  1  0  0  0
 74 76  2  0  0  0
 74145  1  0  0  0
 76 82  1  0  0  0
 77 78  1  0  0  0
 77 79  1  0  0  0
 77146  1  0  0  0
 77147  1  0  0  0
 78 80  1  0  0  0
 78148  1  0  0  0
 78149  1  0  0  0
 79 81  1  0  0  0
 79150  1  0  0  0
 79151  1  0  0  0
 80 82  1  0  0  0
 80152  1  0  0  0
 80153  1  0  0  0
 81154  1  0  0  0
 81155  1  0  0  0
M  ISO  4   1 100  68 101  75 100  81 101
M  END
> <chiral flag>
0

> <version>
0

> <s_m_source_file>
/data/baiqing/PycharmProjects/Reinvent-master-3.2/result/LINK_invent/BTK/process_docking_weight1_custom_sum_contain_oxygen_bond_distance_aromatic_linkinvent_7_9_3/rearranged_h_0005.sdf

> <i_m_source_file_index>
16

> <r_mmod_Potential_Energy-OPLS-2005>
75.3414459228516

> <r_mmod_Stretch_Energy-OPLS-2005>
41.6021041870117

> <r_mmod_Bend_Energy-OPLS-2005>
106.594116210938

> <r_mmod_Torsional_Energy-OPLS-2005>
235.538818359375

> <r_mmod_Improper_Torsional_Energy-OPLS-2005>
6.10781383514404

> <r_mmod_Van_der_Waal_Energy-OPLS-2005>
143.978500366211

> <r_mmod_Electrostatic_Energy-OPLS-2005>
-288.068664550781

> <r_mmod_Solvation_Energy-OPLS-2005>
-187.569274902344

> <b_mmod_Minimization_Converged-OPLS-2005>
0

> <r_mmod_RMS_Derivative-OPLS-2005>
5.53265810012817

$$$$
16
                    3D
 Structure written by MMmdl.
174182  0  0  1  0            999 V2000
  -30.7580  -14.3668   20.7028 C   0  0  0  0  0  0
  -30.4193  -12.2994   19.3923 C   0  0  0  0  0  0
  -29.4817  -12.5408   18.1942 C   0  0  0  0  0  0
  -28.0066  -12.3865   18.6092 C   0  0  0  0  0  0
  -27.6649  -13.2015   19.8834 C   0  0  2  0  0  0
  -28.7028  -12.9330   20.9951 C   0  0  0  0  0  0
  -25.2604  -13.8169   20.5693 C   0  0  0  0  0  0
  -24.1839  -13.0451   20.9173 C   0  0  0  0  0  0
  -24.6383  -11.6910   20.8733 C   0  0  0  0  0  0
  -23.9053  -10.4299   21.0414 C   0  0  0  0  0  0
  -24.3602   -9.4214   21.9199 C   0  0  0  0  0  0
  -23.6285   -8.2254   22.0763 C   0  0  0  0  0  0
  -22.4273   -8.0284   21.3552 C   0  0  0  0  0  0
  -21.9907   -9.0253   20.4642 C   0  0  0  0  0  0
  -22.7233  -10.2133   20.3055 C   0  0  0  0  0  0
  -21.6855   -6.0744   22.5277 C   0  0  0  0  0  0
  -21.4017   -6.5637   23.8216 C   0  0  0  0  0  0
  -21.3652   -5.6789   24.9172 C   0  0  0  0  0  0
  -21.6048   -4.3052   24.7224 C   0  0  0  0  0  0
  -21.8812   -3.8145   23.4342 C   0  0  0  0  0  0
  -21.9189   -4.6973   22.3401 C   0  0  0  0  0  0
  -22.7859  -13.5254   21.1840 C   0  0  0  0  0  0
  -22.1653   -4.2151   21.0983 F   0  0  0  0  0  0
  -21.5631   -3.4536   25.7739 F   0  0  0  0  0  0
  -30.0455  -13.2369   20.4603 N   0  0  0  0  0  0
  -26.3033  -12.9313   20.3406 N   0  0  0  0  0  0
  -25.9300  -11.6469   20.5779 N   0  0  0  0  0  0
  -22.0484  -12.8232   22.0364 N   0  0  0  0  0  0
  -25.4369  -15.1893   20.4077 N   0  0  0  0  0  0
  -31.7801  -14.6765   20.0828 O   0  0  0  0  0  0
  -21.6636   -6.8885   21.4242 O   0  0  0  0  0  0
  -22.3554  -14.5579   20.6718 O   0  0  0  0  0  0
  -24.6094  -31.8688   23.2122 C   0  0  0  0  0  0
  -25.9010  -32.4833   23.8396 C   0  0  1  0  0  0
  -27.2473  -27.4684   20.0756 C   0  0  0  0  0  0
  -25.5897  -33.8637   24.2318 N   0  0  0  0  0  0
  -23.3974  -30.4917   21.5524 C   0  0  2  0  0  0
  -24.8486  -28.9590   20.1209 C   0  0  0  0  0  0
  -22.7407  -29.4627   22.5004 C   0  0  0  0  0  0
  -18.0257  -28.1301   22.8507 C   0  0  0  0  0  0
  -24.1504  -36.7309   23.2629 C   0  0  0  0  0  0
  -25.9212  -30.8453   21.3582 C   0  0  0  0  0  0
  -26.0055  -29.4773   20.7146 C   0  0  0  0  0  0
  -27.2082  -28.7341   20.6970 C   0  0  0  0  0  0
  -26.0683  -26.9464   19.5015 C   0  0  0  0  0  0
  -24.8726  -27.6895   19.5164 C   0  0  0  0  0  0
  -23.6048  -29.8201   20.1679 C   0  0  0  0  0  0
  -25.4116  -36.3110   24.0325 C   0  0  1  0  0  0
  -20.5851  -28.3607   23.1309 C   0  0  2  0  0  0
  -20.6757  -26.9346   22.5385 C   0  0  0  0  0  0
  -19.5729  -26.6343   21.5186 C   0  0  0  0  0  0
  -18.1904  -26.7864   22.1600 C   0  0  0  0  0  0
  -19.1511  -28.8778   23.2912 C   0  0  0  0  0  0
  -18.9430  -30.1400   23.8901 C   0  0  0  0  0  0
  -17.6441  -30.6532   24.0552 C   0  0  0  0  0  0
  -25.9025  -34.9481   23.5110 C   0  0  0  0  0  0
  -16.5331  -29.9020   23.6341 C   0  0  0  0  0  0
  -16.7251  -28.6437   23.0368 C   0  0  0  0  0  0
  -26.4453  -31.6607   25.0706 C   0  0  0  0  0  0
  -25.3713  -31.3662   26.1455 C   0  0  0  0  0  0
  -27.0313  -30.3081   24.6012 C   0  0  0  0  0  0
  -27.6028  -32.4350   25.7447 C   0  0  0  0  0  0
  -27.5599  -37.1780   24.8443 C   0  0  0  0  0  0
  -21.4136  -29.3005   22.3771 N   0  0  0  0  0  0
  -26.4286  -37.3812   23.9427 N   0  0  0  0  0  0
  -24.6605  -31.0813   22.1004 N   0  0  0  0  0  0
  -23.4202  -28.8142   23.2999 O   0  0  0  0  0  0
  -28.4199  -26.7473   20.0384 O   0  0  0  0  0  0
  -26.5574  -34.8950   22.4651 O   0  0  0  0  0  0
  -23.5291  -32.1410   23.7520 O   0  0  0  0  0  0
  -30.2044  -19.5231   17.4981 C   0  0  0  0  0  0
  -29.5873  -18.9539   18.6291 C   0  0  0  0  0  0
  -30.5080  -20.8978   17.4685 C   0  0  0  0  0  0
  -29.5972  -21.1361   19.7079 C   0  0  0  0  0  0
  -29.2679  -19.7532   19.7550 C   0  0  0  0  0  0
  -30.1888  -21.7215   18.5650 C   0  0  0  0  0  0
  -27.7809  -19.9450   21.7163 C   0  0  0  0  0  0
  -27.3082  -21.2245   25.6142 C   0  0  0  0  0  0
  -29.4353  -21.4436   24.2519 C   0  0  0  0  0  0
  -30.5167  -17.6179   21.6235 C   0  0  0  0  0  0
  -30.0165  -25.4268   18.6822 C   0  0  0  0  0  0
  -30.9042  -16.2908   22.3114 C   0  0  0  0  0  0
  -29.0105  -17.7790   21.3106 C   0  0  0  0  0  0
  -28.9178  -26.5052   18.7229 C   0  0  0  0  0  0
  -29.5457  -23.9940   19.0056 C   0  0  0  0  0  0
  -27.9312  -21.1358   24.2139 C   0  0  0  0  0  0
  -30.2877  -15.1103   21.7132 N   0  0  0  0  0  0
  -28.6574  -19.1672   20.9272 N   0  0  0  0  0  0
  -27.1286  -20.9161   21.3165 O   0  0  0  0  0  0
  -30.5011  -23.0636   18.4848 O   0  0  0  0  0  0
  -27.6520  -19.4914   23.4743 S   0  0  0  0  0  0
  -31.4616  -12.4104   19.0885 H   0  0  0  0  0  0
  -30.3247  -11.2744   19.7539 H   0  0  0  0  0  0
  -29.7174  -11.8520   17.3837 H   0  0  0  0  0  0
  -29.6413  -13.5469   17.8021 H   0  0  0  0  0  0
  -27.8134  -11.3264   18.7812 H   0  0  0  0  0  0
  -27.3516  -12.6865   17.7911 H   0  0  0  0  0  0
  -27.7254  -14.2583   19.6195 H   0  0  0  0  0  0
  -28.6695  -11.8827   21.2921 H   0  0  0  0  0  0
  -28.4423  -13.4883   21.8958 H   0  0  0  0  0  0
  -25.2742   -9.5706   22.4776 H   0  0  0  0  0  0
  -23.9996   -7.4651   22.7483 H   0  0  0  0  0  0
  -21.0855   -8.8770   19.8933 H   0  0  0  0  0  0
  -22.3709  -10.9675   19.6160 H   0  0  0  0  0  0
  -21.2001   -7.6147   23.9728 H   0  0  0  0  0  0
  -21.1482   -6.0514   25.9080 H   0  0  0  0  0  0
  -22.0591   -2.7607   23.2842 H   0  0  0  0  0  0
  -22.4057  -11.9843   22.4692 H   0  0  0  0  0  0
  -21.1103  -13.1277   22.2586 H   0  0  0  0  0  0
  -24.6786  -15.8537   20.5196 H   0  0  0  0  0  0
  -26.2933  -15.6147   20.0774 H   0  0  0  0  0  0
  -26.7065  -32.5611   23.1150 H   0  0  0  0  0  0
  -25.0207  -33.9826   25.0568 H   0  0  0  0  0  0
  -22.6843  -31.3067   21.4146 H   0  0  0  0  0  0
  -23.3800  -35.9598   23.3214 H   0  0  0  0  0  0
  -24.3643  -36.9011   22.2070 H   0  0  0  0  0  0
  -23.7213  -37.6469   23.6698 H   0  0  0  0  0  0
  -26.0131  -31.6040   20.5809 H   0  0  0  0  0  0
  -26.8172  -30.9158   21.9628 H   0  0  0  0  0  0
  -28.1102  -29.1375   21.1372 H   0  0  0  0  0  0
  -26.0737  -25.9670   19.0438 H   0  0  0  0  0  0
  -23.9792  -27.2838   19.0659 H   0  0  0  0  0  0
  -23.7011  -30.5961   19.4080 H   0  0  0  0  0  0
  -22.7319  -29.2317   19.8796 H   0  0  0  0  0  0
  -25.1265  -36.1947   25.0809 H   0  0  0  0  0  0
  -20.9934  -28.3121   24.1422 H   0  0  0  0  0  0
  -20.5667  -26.2175   23.3546 H   0  0  0  0  0  0
  -21.6616  -26.7358   22.1154 H   0  0  0  0  0  0
  -19.6903  -25.6259   21.1195 H   0  0  0  0  0  0
  -19.6663  -27.3176   20.6730 H   0  0  0  0  0  0
  -17.4178  -26.6649   21.3991 H   0  0  0  0  0  0
  -18.0289  -25.9924   22.8908 H   0  0  0  0  0  0
  -19.7915  -30.7238   24.2217 H   0  0  0  0  0  0
  -17.4980  -31.6226   24.5127 H   0  0  0  0  0  0
  -15.5333  -30.2921   23.7628 H   0  0  0  0  0  0
  -15.8658  -28.0757   22.7044 H   0  0  0  0  0  0
  -24.5889  -30.7015   25.7769 H   0  0  0  0  0  0
  -24.8896  -32.2806   26.4954 H   0  0  0  0  0  0
  -25.8069  -30.8791   27.0192 H   0  0  0  0  0  0
  -26.2846  -29.6821   24.1125 H   0  0  0  0  0  0
  -27.4233  -29.7329   25.4412 H   0  0  0  0  0  0
  -27.8593  -30.4478   23.9047 H   0  0  0  0  0  0
  -27.2656  -33.3679   26.1980 H   0  0  0  0  0  0
  -28.3853  -32.6874   25.0270 H   0  0  0  0  0  0
  -28.0678  -31.8502   26.5401 H   0  0  0  0  0  0
  -28.2474  -38.0205   24.7686 H   0  0  0  0  0  0
  -28.1242  -36.2761   24.6025 H   0  0  0  0  0  0
  -27.2365  -37.1133   25.8846 H   0  0  0  0  0  0
  -20.9292  -29.8769   21.7027 H   0  0  0  0  0  0
  -26.0159  -38.2855   24.1543 H   0  0  0  0  0  0
  -30.4395  -18.9033   16.6440 H   0  0  0  0  0  0
  -29.3599  -17.8981   18.6080 H   0  0  0  0  0  0
  -30.9739  -21.3205   16.5898 H   0  0  0  0  0  0
  -29.4111  -21.7577   20.5687 H   0  0  0  0  0  0
  -27.5325  -22.1876   26.0753 H   0  0  0  0  0  0
  -27.6810  -20.4461   26.2804 H   0  0  0  0  0  0
  -26.2217  -21.1350   25.5673 H   0  0  0  0  0  0
  -29.6278  -22.4008   24.7376 H   0  0  0  0  0  0
  -29.8578  -21.4988   23.2470 H   0  0  0  0  0  0
  -29.9798  -20.6733   24.7990 H   0  0  0  0  0  0
  -31.0907  -17.7180   20.7019 H   0  0  0  0  0  0
  -30.8411  -18.4405   22.2644 H   0  0  0  0  0  0
  -30.8395  -25.7067   19.3386 H   0  0  0  0  0  0
  -30.4260  -25.4263   17.6719 H   0  0  0  0  0  0
  -30.5936  -16.3231   23.3567 H   0  0  0  0  0  0
  -31.9892  -16.1814   22.3283 H   0  0  0  0  0  0
  -28.4208  -17.4028   22.1440 H   0  0  0  0  0  0
  -28.7284  -17.1060   20.5015 H   0  0  0  0  0  0
  -28.1304  -26.2375   18.0182 H   0  0  0  0  0  0
  -29.3408  -27.4444   18.3633 H   0  0  0  0  0  0
  -28.5787  -23.7993   18.5430 H   0  0  0  0  0  0
  -29.4242  -23.8915   20.0824 H   0  0  0  0  0  0
  -27.4382  -21.8942   23.6050 H   0  0  0  0  0  0
  -29.4594  -14.7488   22.1649 H   0  0  0  0  0  0
  1 25  1  0  0  0
  1 30  2  0  0  0
  1 87  1  0  0  0
  2  3  1  0  0  0
  2 25  1  0  0  0
  2 92  1  0  0  0
  2 93  1  0  0  0
  3  4  1  0  0  0
  3 94  1  0  0  0
  3 95  1  0  0  0
  4  5  1  0  0  0
  4 96  1  0  0  0
  4 97  1  0  0  0
  5  6  1  0  0  0
  5 26  1  0  0  0
  5 98  1  0  0  0
  6 25  1  0  0  0
  6 99  1  0  0  0
  6100  1  0  0  0
  7  8  2  0  0  0
  7 26  1  0  0  0
  7 29  1  0  0  0
  8  9  1  0  0  0
  8 22  1  0  0  0
  9 10  1  0  0  0
  9 27  2  0  0  0
 10 11  2  0  0  0
 10 15  1  0  0  0
 11 12  1  0  0  0
 11101  1  0  0  0
 12 13  2  0  0  0
 12102  1  0  0  0
 13 14  1  0  0  0
 13 31  1  0  0  0
 14 15  2  0  0  0
 14103  1  0  0  0
 15104  1  0  0  0
 16 17  2  0  0  0
 16 21  1  0  0  0
 16 31  1  0  0  0
 17 18  1  0  0  0
 17105  1  0  0  0
 18 19  2  0  0  0
 18106  1  0  0  0
 19 20  1  0  0  0
 19 24  1  0  0  0
 20 21  2  0  0  0
 20107  1  0  0  0
 21 23  1  0  0  0
 22 28  1  0  0  0
 22 32  2  0  0  0
 26 27  1  0  0  0
 28108  1  0  0  0
 28109  1  0  0  0
 29110  1  0  0  0
 29111  1  0  0  0
 33 34  1  0  0  0
 33 66  1  0  0  0
 33 70  2  0  0  0
 34 36  1  0  0  0
 34 59  1  0  0  0
 34112  1  0  0  0
 35 44  2  0  0  0
 35 45  1  0  0  0
 35 68  1  0  0  0
 36 56  1  0  0  0
 36113  1  0  0  0
 37 39  1  0  0  0
 37 47  1  0  0  0
 37 66  1  0  0  0
 37114  1  0  0  0
 38 43  2  0  0  0
 38 46  1  0  0  0
 38 47  1  0  0  0
 39 64  1  0  0  0
 39 67  2  0  0  0
 40 52  1  0  0  0
 40 53  2  0  0  0
 40 58  1  0  0  0
 41115  1  0  0  0
 41116  1  0  0  0
 41117  1  0  0  0
 41 48  1  0  0  0
 42 43  1  0  0  0
 42 66  1  0  0  0
 42118  1  0  0  0
 42119  1  0  0  0
 43 44  1  0  0  0
 44120  1  0  0  0
 45 46  2  0  0  0
 45121  1  0  0  0
 46122  1  0  0  0
 47123  1  0  0  0
 47124  1  0  0  0
 48 56  1  0  0  0
 48 65  1  0  0  0
 48125  1  0  0  0
 49 50  1  0  0  0
 49 53  1  0  0  0
 49 64  1  0  0  0
 49126  1  0  0  0
 50 51  1  0  0  0
 50127  1  0  0  0
 50128  1  0  0  0
 51 52  1  0  0  0
 51129  1  0  0  0
 51130  1  0  0  0
 52131  1  0  0  0
 52132  1  0  0  0
 53 54  1  0  0  0
 54 55  2  0  0  0
 54133  1  0  0  0
 55 57  1  0  0  0
 55134  1  0  0  0
 56 69  2  0  0  0
 57 58  2  0  0  0
 57135  1  0  0  0
 58136  1  0  0  0
 59 60  1  0  0  0
 59 61  1  0  0  0
 59 62  1  0  0  0
 60137  1  0  0  0
 60138  1  0  0  0
 60139  1  0  0  0
 61140  1  0  0  0
 61141  1  0  0  0
 61142  1  0  0  0
 62143  1  0  0  0
 62144  1  0  0  0
 62145  1  0  0  0
 63 65  1  0  0  0
 63146  1  0  0  0
 63147  1  0  0  0
 63148  1  0  0  0
 64149  1  0  0  0
 65150  1  0  0  0
 68 84  1  0  0  0
 71 72  2  0  0  0
 71 73  1  0  0  0
 71151  1  0  0  0
 72 75  1  0  0  0
 72152  1  0  0  0
 73 76  2  0  0  0
 73153  1  0  0  0
 74 75  2  0  0  0
 74 76  1  0  0  0
 74154  1  0  0  0
 75 88  1  0  0  0
 76 90  1  0  0  0
 77 88  1  0  0  0
 77 89  2  0  0  0
 77 91  1  0  0  0
 78155  1  0  0  0
 78156  1  0  0  0
 78157  1  0  0  0
 78 86  1  0  0  0
 79 86  1  0  0  0
 79158  1  0  0  0
 79159  1  0  0  0
 79160  1  0  0  0
 80 82  1  0  0  0
 80 83  1  0  0  0
 80161  1  0  0  0
 80162  1  0  0  0
 81 84  1  0  0  0
 81 85  1  0  0  0
 81163  1  0  0  0
 81164  1  0  0  0
 82 87  1  0  0  0
 82165  1  0  0  0
 82166  1  0  0  0
 83 88  1  0  0  0
 83167  1  0  0  0
 83168  1  0  0  0
 84169  1  0  0  0
 84170  1  0  0  0
 85 90  1  0  0  0
 85171  1  0  0  0
 85172  1  0  0  0
 86 91  1  0  0  0
 86173  1  0  0  0
 87174  1  0  0  0
M  ISO  4   1 100  68 101  84 101  87 100
M  END
> <chiral flag>
0

> <version>
0

> <s_m_source_file>
/data/baiqing/PycharmProjects/Reinvent-master-3.2/result/LINK_invent/BTK/process_docking_weight1_custom_sum_contain_oxygen_bond_distance_aromatic_linkinvent_7_9_3/rearranged_h_0005.sdf

> <i_m_source_file_index>
17

> <r_mmod_Potential_Energy-OPLS-2005>
22.5481281280518

> <r_mmod_Stretch_Energy-OPLS-2005>
40.8961067199707

> <r_mmod_Bend_Energy-OPLS-2005>
100.798698425293

> <r_mmod_Torsional_Energy-OPLS-2005>
290.960601806641

> <r_mmod_Improper_Torsional_Energy-OPLS-2005>
2.00896382331848

> <r_mmod_Van_der_Waal_Energy-OPLS-2005>
160.485702514648

> <r_mmod_Electrostatic_Energy-OPLS-2005>
-353.467712402344

> <r_mmod_Solvation_Energy-OPLS-2005>
-225.738861083984

> <b_mmod_Minimization_Converged-OPLS-2005>
0

> <r_mmod_RMS_Derivative-OPLS-2005>
3.67422008514404

$$$$
17
                    3D
 Structure written by MMmdl.
154162  0  0  1  0            999 V2000
  -30.6213  -14.6271   20.5098 C   0  0  0  0  0  0
  -30.4410  -12.3855   19.4486 C   0  0  0  0  0  0
  -29.5075  -12.5077   18.2227 C   0  0  0  0  0  0
  -28.0303  -12.3466   18.6352 C   0  0  0  0  0  0
  -27.6565  -13.2129   19.8671 C   0  0  2  0  0  0
  -28.7011  -13.0517   20.9952 C   0  0  0  0  0  0
  -25.2580  -13.8165   20.5688 C   0  0  0  0  0  0
  -24.1839  -13.0439   20.9194 C   0  0  0  0  0  0
  -24.6398  -11.6906   20.8746 C   0  0  0  0  0  0
  -23.9063  -10.4293   21.0411 C   0  0  0  0  0  0
  -24.3618   -9.4207   21.9186 C   0  0  0  0  0  0
  -23.6294   -8.2242   22.0753 C   0  0  0  0  0  0
  -22.4275   -8.0283   21.3546 C   0  0  0  0  0  0
  -21.9911   -9.0255   20.4647 C   0  0  0  0  0  0
  -22.7238  -10.2135   20.3057 C   0  0  0  0  0  0
  -21.6851   -6.0738   22.5280 C   0  0  0  0  0  0
  -21.4012   -6.5643   23.8214 C   0  0  0  0  0  0
  -21.3659   -5.6793   24.9176 C   0  0  0  0  0  0
  -21.6043   -4.3056   24.7225 C   0  0  0  0  0  0
  -21.8820   -3.8150   23.4345 C   0  0  0  0  0  0
  -21.9193   -4.6967   22.3403 C   0  0  0  0  0  0
  -22.7861  -13.5236   21.1856 C   0  0  0  0  0  0
  -22.1662   -4.2154   21.0980 F   0  0  0  0  0  0
  -21.5629   -3.4538   25.7736 F   0  0  0  0  0  0
  -30.0190  -13.3978   20.4368 N   0  0  0  0  0  0
  -26.3007  -12.9337   20.3335 N   0  0  0  0  0  0
  -25.9327  -11.6495   20.5765 N   0  0  0  0  0  0
  -22.0499  -12.8228   22.0411 N   0  0  0  0  0  0
  -25.4303  -15.1882   20.4089 N   0  0  0  0  0  0
  -31.7757  -14.8014   20.1079 O   0  0  0  0  0  0
  -21.6638   -6.8879   21.4242 O   0  0  0  0  0  0
  -22.3550  -14.5545   20.6706 O   0  0  0  0  0  0
  -24.6246  -31.8612   23.2045 C   0  0  0  0  0  0
  -25.9097  -32.4787   23.8370 C   0  0  1  0  0  0
  -27.2223  -27.3283   20.1153 C   0  0  0  0  0  0
  -25.5925  -33.8589   24.2300 N   0  0  0  0  0  0
  -23.4182  -30.4863   21.5461 C   0  0  2  0  0  0
  -24.8646  -28.9443   20.1119 C   0  0  0  0  0  0
  -22.7472  -29.4635   22.4937 C   0  0  0  0  0  0
  -18.0292  -28.1377   22.8484 C   0  0  0  0  0  0
  -24.1491  -36.7289   23.2640 C   0  0  0  0  0  0
  -25.9593  -30.7936   21.3767 C   0  0  0  0  0  0
  -26.0332  -29.4222   20.7189 C   0  0  0  0  0  0
  -27.2160  -28.6253   20.7125 C   0  0  0  0  0  0
  -26.0357  -26.9115   19.4696 C   0  0  0  0  0  0
  -24.8674  -27.6936   19.4782 C   0  0  0  0  0  0
  -23.6327  -29.8234   20.1607 C   0  0  0  0  0  0
  -25.4115  -36.3087   24.0336 C   0  0  1  0  0  0
  -20.5892  -28.3681   23.1278 C   0  0  2  0  0  0
  -20.6782  -26.9407   22.5403 C   0  0  0  0  0  0
  -19.5760  -26.6377   21.5203 C   0  0  0  0  0  0
  -18.1940  -26.7923   22.1614 C   0  0  0  0  0  0
  -19.1545  -28.8843   23.2878 C   0  0  0  0  0  0
  -18.9469  -30.1446   23.8891 C   0  0  0  0  0  0
  -17.6470  -30.6580   24.0560 C   0  0  0  0  0  0
  -25.9046  -34.9455   23.5115 C   0  0  0  0  0  0
  -16.5359  -29.9080   23.6328 C   0  0  0  0  0  0
  -16.7279  -28.6498   23.0347 C   0  0  0  0  0  0
  -26.4489  -31.6593   25.0733 C   0  0  0  0  0  0
  -25.3729  -31.3724   26.1464 C   0  0  0  0  0  0
  -27.0341  -30.3027   24.6173 C   0  0  0  0  0  0
  -27.6055  -32.4320   25.7495 C   0  0  0  0  0  0
  -27.5581  -37.1802   24.8468 C   0  0  0  0  0  0
  -21.4187  -29.3042   22.3677 N   0  0  0  0  0  0
  -26.4294  -37.3779   23.9410 N   0  0  0  0  0  0
  -24.6859  -31.0637   22.0991 N   0  0  0  0  0  0
  -23.4201  -28.8175   23.3011 O   0  0  0  0  0  0
  -28.3375  -26.4783   20.1418 O   0  0  0  0  0  0
  -26.5607  -34.8918   22.4675 O   0  0  0  0  0  0
  -23.5411  -32.1405   23.7378 O   0  0  0  0  0  0
  -30.9266  -17.8507   20.2018 C   0  0  0  0  0  0
  -30.8488  -19.2686   20.0680 C   0  0  0  0  0  0
  -28.7210  -17.8673   21.1405 C   0  0  0  0  0  0
  -28.6320  -19.2897   21.0079 C   0  0  0  0  0  0
  -29.8522  -17.1053   20.7449 C   0  0  0  0  0  0
  -29.7188  -20.0427   20.4550 C   0  0  0  0  0  0
  -27.3362  -19.9310   21.4781 C   0  0  0  0  0  0
  -29.1941  -23.9568   20.1819 C   0  0  0  0  0  0
  -28.0922  -25.0573   20.4854 C   0  0  0  0  0  0
  -28.8155  -22.4519   20.5453 C   0  0  0  0  0  0
  -29.8099  -15.6526   20.9151 N   0  0  0  0  0  0
  -29.8276  -21.4398   20.2390 O   0  0  0  0  0  0
  -31.4815  -12.5139   19.1453 H   0  0  0  0  0  0
  -30.3785  -11.3860   19.8816 H   0  0  0  0  0  0
  -29.7692  -11.7590   17.4739 H   0  0  0  0  0  0
  -29.6508  -13.4788   17.7459 H   0  0  0  0  0  0
  -27.8651  -11.2928   18.8626 H   0  0  0  0  0  0
  -27.3747  -12.5806   17.7956 H   0  0  0  0  0  0
  -27.6800  -14.2507   19.5341 H   0  0  0  0  0  0
  -28.7101  -12.0245   21.3627 H   0  0  0  0  0  0
  -28.4455  -13.6688   21.8577 H   0  0  0  0  0  0
  -25.2763   -9.5681   22.4761 H   0  0  0  0  0  0
  -24.0005   -7.4629   22.7468 H   0  0  0  0  0  0
  -21.0844   -8.8773   19.8950 H   0  0  0  0  0  0
  -22.3699  -10.9675   19.6168 H   0  0  0  0  0  0
  -21.2003   -7.6150   23.9720 H   0  0  0  0  0  0
  -21.1480   -6.0522   25.9078 H   0  0  0  0  0  0
  -22.0600   -2.7612   23.2842 H   0  0  0  0  0  0
  -22.4112  -11.9886   22.4794 H   0  0  0  0  0  0
  -21.1118  -13.1256   22.2617 H   0  0  0  0  0  0
  -24.6594  -15.8400   20.5062 H   0  0  0  0  0  0
  -26.2712  -15.6219   20.0503 H   0  0  0  0  0  0
  -26.7164  -32.5458   23.1119 H   0  0  0  0  0  0
  -25.0103  -33.9745   25.0467 H   0  0  0  0  0  0
  -22.7117  -31.3069   21.4049 H   0  0  0  0  0  0
  -23.3755  -35.9618   23.3302 H   0  0  0  0  0  0
  -24.3591  -36.8901   22.2055 H   0  0  0  0  0  0
  -23.7241  -37.6493   23.6654 H   0  0  0  0  0  0
  -26.0941  -31.5591   20.6113 H   0  0  0  0  0  0
  -26.8383  -30.8390   22.0077 H   0  0  0  0  0  0
  -28.1124  -28.9870   21.1967 H   0  0  0  0  0  0
  -25.9883  -25.9730   18.9389 H   0  0  0  0  0  0
  -23.9766  -27.3278   18.9858 H   0  0  0  0  0  0
  -23.7523  -30.6005   19.4048 H   0  0  0  0  0  0
  -22.7524  -29.2533   19.8571 H   0  0  0  0  0  0
  -25.1298  -36.1939   25.0830 H   0  0  0  0  0  0
  -20.9986  -28.3245   24.1396 H   0  0  0  0  0  0
  -20.5679  -26.2292   23.3602 H   0  0  0  0  0  0
  -21.6653  -26.7436   22.1199 H   0  0  0  0  0  0
  -19.6923  -25.6287   21.1234 H   0  0  0  0  0  0
  -19.6693  -27.3186   20.6732 H   0  0  0  0  0  0
  -17.4213  -26.6659   21.4016 H   0  0  0  0  0  0
  -18.0343  -26.0069   22.9014 H   0  0  0  0  0  0
  -19.7948  -30.7262   24.2252 H   0  0  0  0  0  0
  -17.5030  -31.6263   24.5158 H   0  0  0  0  0  0
  -15.5362  -30.2980   23.7661 H   0  0  0  0  0  0
  -15.8679  -28.0817   22.7058 H   0  0  0  0  0  0
  -24.5904  -30.7072   25.7796 H   0  0  0  0  0  0
  -24.8919  -32.2888   26.4891 H   0  0  0  0  0  0
  -25.8060  -30.8905   27.0238 H   0  0  0  0  0  0
  -26.2924  -29.6768   24.1201 H   0  0  0  0  0  0
  -27.4069  -29.7286   25.4664 H   0  0  0  0  0  0
  -27.8773  -30.4336   23.9388 H   0  0  0  0  0  0
  -27.2679  -33.3623   26.2074 H   0  0  0  0  0  0
  -28.3861  -32.6867   25.0315 H   0  0  0  0  0  0
  -28.0724  -31.8442   26.5408 H   0  0  0  0  0  0
  -28.2599  -38.0098   24.7517 H   0  0  0  0  0  0
  -28.1079  -36.2632   24.6293 H   0  0  0  0  0  0
  -27.2303  -37.1449   25.8872 H   0  0  0  0  0  0
  -20.9357  -29.8775   21.6902 H   0  0  0  0  0  0
  -26.0174  -38.2854   24.1407 H   0  0  0  0  0  0
  -31.8272  -17.3502   19.8760 H   0  0  0  0  0  0
  -31.6993  -19.7836   19.6447 H   0  0  0  0  0  0
  -27.8769  -17.3384   21.5610 H   0  0  0  0  0  0
  -26.6440  -19.1860   21.8713 H   0  0  0  0  0  0
  -26.8213  -20.4256   20.6561 H   0  0  0  0  0  0
  -27.5159  -20.6403   22.2842 H   0  0  0  0  0  0
  -30.1099  -24.2260   20.7081 H   0  0  0  0  0  0
  -29.4370  -24.0011   19.1203 H   0  0  0  0  0  0
  -27.8834  -25.0333   21.5555 H   0  0  0  0  0  0
  -27.1846  -24.6847   20.0185 H   0  0  0  0  0  0
  -27.9017  -22.2050   20.0075 H   0  0  0  0  0  0
  -28.5972  -22.4168   21.6113 H   0  0  0  0  0  0
  -28.9350  -15.3089   21.2800 H   0  0  0  0  0  0
  1 25  1  0  0  0
  1 30  2  0  0  0
  1 81  1  0  0  0
  2  3  1  0  0  0
  2 25  1  0  0  0
  2 83  1  0  0  0
  2 84  1  0  0  0
  3  4  1  0  0  0
  3 85  1  0  0  0
  3 86  1  0  0  0
  4  5  1  0  0  0
  4 87  1  0  0  0
  4 88  1  0  0  0
  5  6  1  0  0  0
  5 26  1  0  0  0
  5 89  1  0  0  0
  6 25  1  0  0  0
  6 90  1  0  0  0
  6 91  1  0  0  0
  7  8  2  0  0  0
  7 26  1  0  0  0
  7 29  1  0  0  0
  8  9  1  0  0  0
  8 22  1  0  0  0
  9 10  1  0  0  0
  9 27  2  0  0  0
 10 11  2  0  0  0
 10 15  1  0  0  0
 11 12  1  0  0  0
 11 92  1  0  0  0
 12 13  2  0  0  0
 12 93  1  0  0  0
 13 14  1  0  0  0
 13 31  1  0  0  0
 14 15  2  0  0  0
 14 94  1  0  0  0
 15 95  1  0  0  0
 16 17  2  0  0  0
 16 21  1  0  0  0
 16 31  1  0  0  0
 17 18  1  0  0  0
 17 96  1  0  0  0
 18 19  2  0  0  0
 18 97  1  0  0  0
 19 20  1  0  0  0
 19 24  1  0  0  0
 20 21  2  0  0  0
 20 98  1  0  0  0
 21 23  1  0  0  0
 22 28  1  0  0  0
 22 32  2  0  0  0
 26 27  1  0  0  0
 28 99  1  0  0  0
 28100  1  0  0  0
 29101  1  0  0  0
 29102  1  0  0  0
 33 34  1  0  0  0
 33 66  1  0  0  0
 33 70  2  0  0  0
 34 36  1  0  0  0
 34 59  1  0  0  0
 34103  1  0  0  0
 35 44  2  0  0  0
 35 45  1  0  0  0
 35 68  1  0  0  0
 36 56  1  0  0  0
 36104  1  0  0  0
 37 39  1  0  0  0
 37 47  1  0  0  0
 37 66  1  0  0  0
 37105  1  0  0  0
 38 43  2  0  0  0
 38 46  1  0  0  0
 38 47  1  0  0  0
 39 64  1  0  0  0
 39 67  2  0  0  0
 40 52  1  0  0  0
 40 53  2  0  0  0
 40 58  1  0  0  0
 41106  1  0  0  0
 41107  1  0  0  0
 41108  1  0  0  0
 41 48  1  0  0  0
 42 43  1  0  0  0
 42 66  1  0  0  0
 42109  1  0  0  0
 42110  1  0  0  0
 43 44  1  0  0  0
 44111  1  0  0  0
 45 46  2  0  0  0
 45112  1  0  0  0
 46113  1  0  0  0
 47114  1  0  0  0
 47115  1  0  0  0
 48 56  1  0  0  0
 48 65  1  0  0  0
 48116  1  0  0  0
 49 50  1  0  0  0
 49 53  1  0  0  0
 49 64  1  0  0  0
 49117  1  0  0  0
 50 51  1  0  0  0
 50118  1  0  0  0
 50119  1  0  0  0
 51 52  1  0  0  0
 51120  1  0  0  0
 51121  1  0  0  0
 52122  1  0  0  0
 52123  1  0  0  0
 53 54  1  0  0  0
 54 55  2  0  0  0
 54124  1  0  0  0
 55 57  1  0  0  0
 55125  1  0  0  0
 56 69  2  0  0  0
 57 58  2  0  0  0
 57126  1  0  0  0
 58127  1  0  0  0
 59 60  1  0  0  0
 59 61  1  0  0  0
 59 62  1  0  0  0
 60128  1  0  0  0
 60129  1  0  0  0
 60130  1  0  0  0
 61131  1  0  0  0
 61132  1  0  0  0
 61133  1  0  0  0
 62134  1  0  0  0
 62135  1  0  0  0
 62136  1  0  0  0
 63 65  1  0  0  0
 63137  1  0  0  0
 63138  1  0  0  0
 63139  1  0  0  0
 64140  1  0  0  0
 65141  1  0  0  0
 68 79  1  0  0  0
 71 72  2  0  0  0
 71 75  1  0  0  0
 71142  1  0  0  0
 72 76  1  0  0  0
 72143  1  0  0  0
 73 74  1  0  0  0
 73 75  2  0  0  0
 73144  1  0  0  0
 74 76  2  0  0  0
 74 77  1  0  0  0
 75 81  1  0  0  0
 76 82  1  0  0  0
 77145  1  0  0  0
 77146  1  0  0  0
 77147  1  0  0  0
 78 79  1  0  0  0
 78 80  1  0  0  0
 78148  1  0  0  0
 78149  1  0  0  0
 79150  1  0  0  0
 79151  1  0  0  0
 80 82  1  0  0  0
 80152  1  0  0  0
 80153  1  0  0  0
 81154  1  0  0  0
M  ISO  4   1 100  68 101  79 101  81 100
M  END
> <chiral flag>
0

> <version>
0

> <s_m_source_file>
/data/baiqing/PycharmProjects/Reinvent-master-3.2/result/LINK_invent/BTK/process_docking_weight1_custom_sum_contain_oxygen_bond_distance_aromatic_linkinvent_7_9_3/rearranged_h_0005.sdf

> <i_m_source_file_index>
18

> <r_mmod_Potential_Energy-OPLS-2005>
50.58642578125

> <r_mmod_Stretch_Energy-OPLS-2005>
77.116455078125

> <r_mmod_Bend_Energy-OPLS-2005>
161.402847290039

> <r_mmod_Torsional_Energy-OPLS-2005>
217.915832519531

> <r_mmod_Improper_Torsional_Energy-OPLS-2005>
3.7882080078125

> <r_mmod_Van_der_Waal_Energy-OPLS-2005>
149.665542602539

> <r_mmod_Electrostatic_Energy-OPLS-2005>
-391.825958251953

> <r_mmod_Solvation_Energy-OPLS-2005>
-211.656326293945

> <b_mmod_Minimization_Converged-OPLS-2005>
0

> <r_mmod_RMS_Derivative-OPLS-2005>
0.548246562480927

$$$$
18
                    3D
 Structure written by MMmdl.
193202  0  0  1  0            999 V2000
  -31.1831  -14.0020   20.3886 C   0  0  0  0  0  0
  -30.3265  -12.0546   19.2934 C   0  0  0  0  0  0
  -29.4155  -12.4718   18.1421 C   0  0  0  0  0  0
  -27.9711  -12.3570   18.6173 C   0  0  0  0  0  0
  -27.7071  -13.2138   19.8783 C   0  0  2  0  0  0
  -28.8329  -13.0559   20.9590 C   0  0  0  0  0  0
  -25.2874  -13.8223   20.5809 C   0  0  0  0  0  0
  -24.2042  -13.0491   20.9221 C   0  0  0  0  0  0
  -24.6616  -11.6950   20.8812 C   0  0  0  0  0  0
  -23.9193  -10.4337   21.0412 C   0  0  0  0  0  0
  -24.3692   -9.4238   21.9209 C   0  0  0  0  0  0
  -23.6350   -8.2273   22.0761 C   0  0  0  0  0  0
  -22.4326   -8.0330   21.3538 C   0  0  0  0  0  0
  -22.0017   -9.0315   20.4632 C   0  0  0  0  0  0
  -22.7376  -10.2190   20.3049 C   0  0  0  0  0  0
  -21.6853   -6.0797   22.5289 C   0  0  0  0  0  0
  -21.4024   -6.5685   23.8234 C   0  0  0  0  0  0
  -21.3635   -5.6819   24.9185 C   0  0  0  0  0  0
  -21.6022   -4.3084   24.7229 C   0  0  0  0  0  0
  -21.8814   -3.8195   23.4340 C   0  0  0  0  0  0
  -21.9199   -4.7019   22.3406 C   0  0  0  0  0  0
  -22.8047  -13.5269   21.1808 C   0  0  0  0  0  0
  -22.1673   -4.2215   21.0979 F   0  0  0  0  0  0
  -21.5588   -3.4548   25.7725 F   0  0  0  0  0  0
  -30.2086  -13.0422   20.3737 N   0  0  0  0  0  0
  -26.3444  -12.9447   20.3760 N   0  0  0  0  0  0
  -25.9610  -11.6575   20.6041 N   0  0  0  0  0  0
  -22.0631  -12.8243   22.0339 N   0  0  0  0  0  0
  -25.4478  -15.1925   20.4059 N   0  0  0  0  0  0
  -31.0041  -15.1981   20.3928 O   0  0  0  0  0  0
  -21.6637   -6.8948   21.4260 O   0  0  0  0  0  0
  -22.3687  -14.5573   20.6690 O   0  0  0  0  0  0
  -24.6070  -31.8733   23.2180 C   0  0  0  0  0  0
  -25.9002  -32.4839   23.8465 C   0  0  1  0  0  0
  -27.2646  -27.5040   20.1101 C   0  0  0  0  0  0
  -25.5882  -33.8638   24.2381 N   0  0  0  0  0  0
  -23.3912  -30.4892   21.5598 C   0  0  2  0  0  0
  -24.8404  -28.9597   20.1265 C   0  0  0  0  0  0
  -22.7392  -29.4637   22.5134 C   0  0  0  0  0  0
  -18.0245  -28.1382   22.8485 C   0  0  0  0  0  0
  -24.1414  -36.7281   23.2610 C   0  0  0  0  0  0
  -25.9087  -30.8606   21.3609 C   0  0  0  0  0  0
  -25.9898  -29.4994   20.7125 C   0  0  0  0  0  0
  -27.1966  -28.7848   20.7050 C   0  0  0  0  0  0
  -26.0958  -26.9624   19.5343 C   0  0  0  0  0  0
  -24.8828  -27.6824   19.5407 C   0  0  0  0  0  0
  -23.5969  -29.8109   20.1763 C   0  0  0  0  0  0
  -25.4035  -36.3115   24.0332 C   0  0  1  0  0  0
  -20.5827  -28.3606   23.1402 C   0  0  2  0  0  0
  -20.6757  -26.9359   22.5463 C   0  0  0  0  0  0
  -19.5729  -26.6381   21.5256 C   0  0  0  0  0  0
  -18.1894  -26.7930   22.1641 C   0  0  0  0  0  0
  -19.1495  -28.8820   23.2920 C   0  0  0  0  0  0
  -18.9423  -30.1437   23.8912 C   0  0  0  0  0  0
  -17.6430  -30.6564   24.0544 C   0  0  0  0  0  0
  -25.8993  -34.9491   23.5158 C   0  0  0  0  0  0
  -16.5324  -29.9071   23.6302 C   0  0  0  0  0  0
  -16.7242  -28.6497   23.0308 C   0  0  0  0  0  0
  -26.4462  -31.6601   25.0778 C   0  0  0  0  0  0
  -25.3740  -31.3572   26.1487 C   0  0  0  0  0  0
  -27.0316  -30.3073   24.6149 C   0  0  0  0  0  0
  -27.6049  -32.4303   25.7558 C   0  0  0  0  0  0
  -27.5521  -37.1794   24.8431 C   0  0  0  0  0  0
  -21.4131  -29.2967   22.3830 N   0  0  0  0  0  0
  -26.4201  -37.3828   23.9419 N   0  0  0  0  0  0
  -24.6514  -31.0908   22.1043 N   0  0  0  0  0  0
  -23.4216  -28.8206   23.3155 O   0  0  0  0  0  0
  -28.4173  -26.7490   20.0614 O   0  0  0  0  0  0
  -26.5551  -34.8943   22.4713 O   0  0  0  0  0  0
  -23.5292  -32.1467   23.7627 O   0  0  0  0  0  0
  -32.9109   -9.1668   22.0609 C   0  0  0  0  0  0
  -33.3480   -8.5347   20.8864 C   0  0  0  0  0  0
  -35.0729  -25.1798   18.5090 C   0  0  0  0  0  0
  -32.8145  -10.5697   22.1026 C   0  0  0  0  0  0
  -34.7967  -23.8120   18.3191 C   0  0  0  0  0  0
  -33.6995   -9.3037   19.7552 C   0  0  0  0  0  0
  -34.4633  -25.8861   19.5625 C   0  0  0  0  0  0
  -33.3384  -23.8435   20.2698 C   0  0  0  0  0  0
  -33.1457  -11.3553   20.9767 C   0  0  0  0  0  0
  -33.9207  -23.1355   19.1924 C   0  0  0  0  0  0
  -33.5829  -25.2194   20.4379 C   0  0  0  0  0  0
  -33.6165  -10.7183   19.7931 C   0  0  0  0  0  0
  -33.0904  -12.8566   21.1234 C   0  0  0  0  0  0
  -34.9167  -11.0327   17.7657 C   0  0  0  0  0  0
  -32.8777  -17.5854   18.0916 C   0  0  0  0  0  0
  -32.9592  -16.8269   16.7624 C   0  0  0  0  0  0
  -32.5942  -19.0828   17.9138 C   0  0  0  0  0  0
  -33.5634  -15.4154   16.9111 C   0  0  0  0  0  0
  -32.2502  -19.7672   19.2487 C   0  0  0  0  0  0
  -32.7654  -14.4625   17.8188 C   0  0  0  0  0  0
  -30.7489  -26.3286   20.5653 C   0  0  0  0  0  0
  -32.3017  -21.2965   19.2034 C   0  0  0  0  0  0
  -33.3006  -14.4148   19.2779 C   0  0  0  0  0  0
  -29.6222  -27.3603   20.5236 C   0  0  0  0  0  0
  -32.0823  -26.9287   21.0475 C   0  0  0  0  0  0
  -33.6587  -21.7792   18.9641 N   0  0  0  0  0  0
  -32.4590  -13.5811   20.1747 N   0  0  0  0  0  0
  -33.6429  -13.3858   22.0957 O   0  0  0  0  0  0
  -33.9762  -11.5079   18.7212 O   0  0  0  0  0  0
  -32.9557  -25.8826   21.4588 O   0  0  0  0  0  0
  -31.3175  -11.9256   18.8615 H   0  0  0  0  0  0
  -30.0606  -11.0619   19.6633 H   0  0  0  0  0  0
  -29.5752  -11.8182   17.2827 H   0  0  0  0  0  0
  -29.6300  -13.4907   17.8156 H   0  0  0  0  0  0
  -27.7821  -11.3036   18.8361 H   0  0  0  0  0  0
  -27.2741  -12.6246   17.8221 H   0  0  0  0  0  0
  -27.7391  -14.2517   19.5507 H   0  0  0  0  0  0
  -28.6943  -12.1211   21.5034 H   0  0  0  0  0  0
  -28.7441  -13.8439   21.7072 H   0  0  0  0  0  0
  -25.2813   -9.5688   22.4843 H   0  0  0  0  0  0
  -24.0034   -7.4649   22.7493 H   0  0  0  0  0  0
  -21.0959   -8.8870   19.8921 H   0  0  0  0  0  0
  -22.3870  -10.9746   19.6158 H   0  0  0  0  0  0
  -21.2047   -7.6196   23.9767 H   0  0  0  0  0  0
  -21.1423   -6.0536   25.9089 H   0  0  0  0  0  0
  -22.0615   -2.7665   23.2813 H   0  0  0  0  0  0
  -22.4222  -11.9919   22.4771 H   0  0  0  0  0  0
  -21.1218  -13.1236   22.2399 H   0  0  0  0  0  0
  -24.6764  -15.8424   20.5058 H   0  0  0  0  0  0
  -26.3149  -15.6444   20.1416 H   0  0  0  0  0  0
  -26.7107  -32.5588   23.1271 H   0  0  0  0  0  0
  -25.0050  -33.9806   25.0545 H   0  0  0  0  0  0
  -22.6725  -31.2990   21.4238 H   0  0  0  0  0  0
  -23.3732  -35.9560   23.3259 H   0  0  0  0  0  0
  -24.3505  -36.8907   22.2021 H   0  0  0  0  0  0
  -23.7119  -37.6466   23.6641 H   0  0  0  0  0  0
  -26.0196  -31.6281   20.5936 H   0  0  0  0  0  0
  -26.7931  -30.9181   21.9813 H   0  0  0  0  0  0
  -28.0580  -29.2537   21.1566 H   0  0  0  0  0  0
  -26.1257  -25.9796   19.0857 H   0  0  0  0  0  0
  -23.9923  -27.2494   19.1038 H   0  0  0  0  0  0
  -23.7070  -30.5767   19.4091 H   0  0  0  0  0  0
  -22.7246  -29.2183   19.8894 H   0  0  0  0  0  0
  -25.1208  -36.1989   25.0830 H   0  0  0  0  0  0
  -20.9874  -28.3137   24.1542 H   0  0  0  0  0  0
  -20.5696  -26.2194   23.3620 H   0  0  0  0  0  0
  -21.6624  -26.7426   22.1213 H   0  0  0  0  0  0
  -19.6856  -25.6307   21.1213 H   0  0  0  0  0  0
  -19.6712  -27.3237   20.6823 H   0  0  0  0  0  0
  -17.4202  -26.6674   21.4007 H   0  0  0  0  0  0
  -18.0249  -26.0110   22.9069 H   0  0  0  0  0  0
  -19.7899  -30.7235   24.2308 H   0  0  0  0  0  0
  -17.4966  -31.6231   24.5145 H   0  0  0  0  0  0
  -15.5313  -30.2941   23.7639 H   0  0  0  0  0  0
  -15.8653  -28.0808   22.7004 H   0  0  0  0  0  0
  -24.5971  -30.6904   25.7743 H   0  0  0  0  0  0
  -24.8900  -32.2687   26.4993 H   0  0  0  0  0  0
  -25.8072  -30.8652   27.0206 H   0  0  0  0  0  0
  -26.2803  -29.6782   24.1352 H   0  0  0  0  0  0
  -27.4216  -29.7392   25.4611 H   0  0  0  0  0  0
  -27.8635  -30.4381   23.9227 H   0  0  0  0  0  0
  -27.2758  -33.3649   26.2112 H   0  0  0  0  0  0
  -28.3922  -32.6737   25.0411 H   0  0  0  0  0  0
  -28.0666  -31.8423   26.5500 H   0  0  0  0  0  0
  -28.2519  -38.0102   24.7496 H   0  0  0  0  0  0
  -28.1028  -36.2645   24.6222 H   0  0  0  0  0  0
  -27.2258  -37.1401   25.8834 H   0  0  0  0  0  0
  -20.9331  -29.8679   21.7010 H   0  0  0  0  0  0
  -26.0081  -38.2865   24.1612 H   0  0  0  0  0  0
  -32.6613   -8.5802   22.9363 H   0  0  0  0  0  0
  -33.4229   -7.4568   20.8556 H   0  0  0  0  0  0
  -35.7560  -25.6905   17.8463 H   0  0  0  0  0  0
  -32.4915  -11.0509   23.0154 H   0  0  0  0  0  0
  -35.2701  -23.2913   17.4970 H   0  0  0  0  0  0
  -34.0395   -8.7882   18.8679 H   0  0  0  0  0  0
  -34.6763  -26.9370   19.7034 H   0  0  0  0  0  0
  -32.6850  -23.3555   20.9769 H   0  0  0  0  0  0
  -34.4222  -10.6030   16.8954 H   0  0  0  0  0  0
  -35.6473  -10.3213   18.1525 H   0  0  0  0  0  0
  -35.4746  -11.9051   17.4200 H   0  0  0  0  0  0
  -33.8233  -17.4656   18.6218 H   0  0  0  0  0  0
  -32.1082  -17.1366   18.7236 H   0  0  0  0  0  0
  -33.5819  -17.3910   16.0668 H   0  0  0  0  0  0
  -31.9713  -16.7757   16.2960 H   0  0  0  0  0  0
  -31.7707  -19.2344   17.2139 H   0  0  0  0  0  0
  -33.4691  -19.5483   17.4631 H   0  0  0  0  0  0
  -34.5901  -15.4919   17.2742 H   0  0  0  0  0  0
  -33.6324  -14.9745   15.9152 H   0  0  0  0  0  0
  -32.9128  -19.4169   20.0401 H   0  0  0  0  0  0
  -31.2446  -19.4637   19.5478 H   0  0  0  0  0  0
  -32.8036  -13.4567   17.3971 H   0  0  0  0  0  0
  -31.7133  -14.7483   17.7809 H   0  0  0  0  0  0
  -30.8687  -25.8621   19.5859 H   0  0  0  0  0  0
  -30.4553  -25.5381   21.2555 H   0  0  0  0  0  0
  -31.9052  -21.6588   20.1501 H   0  0  0  0  0  0
  -31.6436  -21.6915   18.4283 H   0  0  0  0  0  0
  -33.3943  -15.4244   19.6792 H   0  0  0  0  0  0
  -34.3187  -14.0255   19.2433 H   0  0  0  0  0  0
  -29.8869  -28.1902   19.8673 H   0  0  0  0  0  0
  -29.5055  -27.7551   21.5337 H   0  0  0  0  0  0
  -31.9058  -27.5671   21.9135 H   0  0  0  0  0  0
  -32.5279  -27.5655   20.2779 H   0  0  0  0  0  0
  -34.0826  -21.4106   18.1178 H   0  0  0  0  0  0
  1 25  1  0  0  0
  1 30  2  0  0  0
  1 97  1  0  0  0
  2  3  1  0  0  0
  2 25  1  0  0  0
  2101  1  0  0  0
  2102  1  0  0  0
  3  4  1  0  0  0
  3103  1  0  0  0
  3104  1  0  0  0
  4  5  1  0  0  0
  4105  1  0  0  0
  4106  1  0  0  0
  5  6  1  0  0  0
  5 26  1  0  0  0
  5107  1  0  0  0
  6 25  1  0  0  0
  6108  1  0  0  0
  6109  1  0  0  0
  7  8  2  0  0  0
  7 26  1  0  0  0
  7 29  1  0  0  0
  8  9  1  0  0  0
  8 22  1  0  0  0
  9 10  1  0  0  0
  9 27  2  0  0  0
 10 11  2  0  0  0
 10 15  1  0  0  0
 11 12  1  0  0  0
 11110  1  0  0  0
 12 13  2  0  0  0
 12111  1  0  0  0
 13 14  1  0  0  0
 13 31  1  0  0  0
 14 15  2  0  0  0
 14112  1  0  0  0
 15113  1  0  0  0
 16 17  2  0  0  0
 16 21  1  0  0  0
 16 31  1  0  0  0
 17 18  1  0  0  0
 17114  1  0  0  0
 18 19  2  0  0  0
 18115  1  0  0  0
 19 20  1  0  0  0
 19 24  1  0  0  0
 20 21  2  0  0  0
 20116  1  0  0  0
 21 23  1  0  0  0
 22 28  1  0  0  0
 22 32  2  0  0  0
 26 27  1  0  0  0
 28117  1  0  0  0
 28118  1  0  0  0
 29119  1  0  0  0
 29120  1  0  0  0
 33 34  1  0  0  0
 33 66  1  0  0  0
 33 70  2  0  0  0
 34 36  1  0  0  0
 34 59  1  0  0  0
 34121  1  0  0  0
 35 44  2  0  0  0
 35 45  1  0  0  0
 35 68  1  0  0  0
 36 56  1  0  0  0
 36122  1  0  0  0
 37 39  1  0  0  0
 37 47  1  0  0  0
 37 66  1  0  0  0
 37123  1  0  0  0
 38 43  2  0  0  0
 38 46  1  0  0  0
 38 47  1  0  0  0
 39 64  1  0  0  0
 39 67  2  0  0  0
 40 52  1  0  0  0
 40 53  2  0  0  0
 40 58  1  0  0  0
 41124  1  0  0  0
 41125  1  0  0  0
 41126  1  0  0  0
 41 48  1  0  0  0
 42 43  1  0  0  0
 42 66  1  0  0  0
 42127  1  0  0  0
 42128  1  0  0  0
 43 44  1  0  0  0
 44129  1  0  0  0
 45 46  2  0  0  0
 45130  1  0  0  0
 46131  1  0  0  0
 47132  1  0  0  0
 47133  1  0  0  0
 48 56  1  0  0  0
 48 65  1  0  0  0
 48134  1  0  0  0
 49 50  1  0  0  0
 49 53  1  0  0  0
 49 64  1  0  0  0
 49135  1  0  0  0
 50 51  1  0  0  0
 50136  1  0  0  0
 50137  1  0  0  0
 51 52  1  0  0  0
 51138  1  0  0  0
 51139  1  0  0  0
 52140  1  0  0  0
 52141  1  0  0  0
 53 54  1  0  0  0
 54 55  2  0  0  0
 54142  1  0  0  0
 55 57  1  0  0  0
 55143  1  0  0  0
 56 69  2  0  0  0
 57 58  2  0  0  0
 57144  1  0  0  0
 58145  1  0  0  0
 59 60  1  0  0  0
 59 61  1  0  0  0
 59 62  1  0  0  0
 60146  1  0  0  0
 60147  1  0  0  0
 60148  1  0  0  0
 61149  1  0  0  0
 61150  1  0  0  0
 61151  1  0  0  0
 62152  1  0  0  0
 62153  1  0  0  0
 62154  1  0  0  0
 63 65  1  0  0  0
 63155  1  0  0  0
 63156  1  0  0  0
 63157  1  0  0  0
 64158  1  0  0  0
 65159  1  0  0  0
 68 94  1  0  0  0
 71 72  2  0  0  0
 71 74  1  0  0  0
 71160  1  0  0  0
 72 76  1  0  0  0
 72161  1  0  0  0
 73 75  2  0  0  0
 73 77  1  0  0  0
 73162  1  0  0  0
 74 79  2  0  0  0
 74163  1  0  0  0
 75 80  1  0  0  0
 75164  1  0  0  0
 76 82  2  0  0  0
 76165  1  0  0  0
 77 81  2  0  0  0
 77166  1  0  0  0
 78 80  2  0  0  0
 78 81  1  0  0  0
 78167  1  0  0  0
 79 82  1  0  0  0
 79 83  1  0  0  0
 80 96  1  0  0  0
 81100  1  0  0  0
 82 99  1  0  0  0
 83 97  1  0  0  0
 83 98  2  0  0  0
 84 99  1  0  0  0
 84168  1  0  0  0
 84169  1  0  0  0
 84170  1  0  0  0
 85 86  1  0  0  0
 85 87  1  0  0  0
 85171  1  0  0  0
 85172  1  0  0  0
 86 88  1  0  0  0
 86173  1  0  0  0
 86174  1  0  0  0
 87 89  1  0  0  0
 87175  1  0  0  0
 87176  1  0  0  0
 88 90  1  0  0  0
 88177  1  0  0  0
 88178  1  0  0  0
 89 92  1  0  0  0
 89179  1  0  0  0
 89180  1  0  0  0
 90 93  1  0  0  0
 90181  1  0  0  0
 90182  1  0  0  0
 91 94  1  0  0  0
 91 95  1  0  0  0
 91183  1  0  0  0
 91184  1  0  0  0
 92 96  1  0  0  0
 92185  1  0  0  0
 92186  1  0  0  0
 93 97  1  0  0  0
 93187  1  0  0  0
 93188  1  0  0  0
 94189  1  0  0  0
 94190  1  0  0  0
 95100  1  0  0  0
 95191  1  0  0  0
 95192  1  0  0  0
 96193  1  0  0  0
M  ISO  4   1 100  68 101  94 101  97 100
M  END
> <chiral flag>
0

> <version>
0

> <s_m_source_file>
/data/baiqing/PycharmProjects/Reinvent-master-3.2/result/LINK_invent/BTK/process_docking_weight1_custom_sum_contain_oxygen_bond_distance_aromatic_linkinvent_7_9_3/rearranged_h_0005.sdf

> <i_m_source_file_index>
19

> <r_mmod_Potential_Energy-OPLS-2005>
432.914306640625

> <r_mmod_Stretch_Energy-OPLS-2005>
46.3284034729004

> <r_mmod_Bend_Energy-OPLS-2005>
134.818023681641

> <r_mmod_Torsional_Energy-OPLS-2005>
403.345947265625

> <r_mmod_Improper_Torsional_Energy-OPLS-2005>
10.9104499816895

> <r_mmod_Van_der_Waal_Energy-OPLS-2005>
189.165893554688

> <r_mmod_Electrostatic_Energy-OPLS-2005>
-308.242401123047

> <r_mmod_Solvation_Energy-OPLS-2005>
-205.746124267578

> <b_mmod_Minimization_Converged-OPLS-2005>
0

> <r_mmod_RMS_Derivative-OPLS-2005>
5.8433051109314

$$$$
19
                    3D
 Structure written by MMmdl.
175183  0  0  1  0            999 V2000
  -30.8101  -14.4097   20.5743 C   0  0  0  0  0  0
  -30.4032  -12.2235   19.4602 C   0  0  0  0  0  0
  -29.4981  -12.3679   18.2234 C   0  0  0  0  0  0
  -28.0185  -12.2714   18.6391 C   0  0  0  0  0  0
  -27.6593  -13.1963   19.8381 C   0  0  2  0  0  0
  -28.7030  -13.0414   20.9709 C   0  0  0  0  0  0
  -25.2648  -13.8119   20.5659 C   0  0  0  0  0  0
  -24.1904  -13.0417   20.9155 C   0  0  0  0  0  0
  -24.6395  -11.6872   20.8687 C   0  0  0  0  0  0
  -23.9053  -10.4260   21.0322 C   0  0  0  0  0  0
  -24.3608   -9.4185   21.9116 C   0  0  0  0  0  0
  -23.6298   -8.2216   22.0704 C   0  0  0  0  0  0
  -22.4295   -8.0206   21.3485 C   0  0  0  0  0  0
  -21.9910   -9.0173   20.4609 C   0  0  0  0  0  0
  -22.7206  -10.2054   20.2993 C   0  0  0  0  0  0
  -21.6854   -6.0663   22.5240 C   0  0  0  0  0  0
  -21.3989   -6.5579   23.8171 C   0  0  0  0  0  0
  -21.3693   -5.6763   24.9151 C   0  0  0  0  0  0
  -21.6076   -4.3008   24.7215 C   0  0  0  0  0  0
  -21.8854   -3.8088   23.4358 C   0  0  0  0  0  0
  -21.9186   -4.6904   22.3390 C   0  0  0  0  0  0
  -22.7906  -13.5208   21.1858 C   0  0  0  0  0  0
  -22.1688   -4.2086   21.0973 F   0  0  0  0  0  0
  -21.5650   -3.4512   25.7749 F   0  0  0  0  0  0
  -30.0489  -13.2827   20.4231 N   0  0  0  0  0  0
  -26.3052  -12.9289   20.3239 N   0  0  0  0  0  0
  -25.9325  -11.6452   20.5741 N   0  0  0  0  0  0
  -22.0635  -12.8149   22.0423 N   0  0  0  0  0  0
  -25.4415  -15.1850   20.4052 N   0  0  0  0  0  0
  -31.9156  -14.5435   20.0428 O   0  0  0  0  0  0
  -21.6658   -6.8791   21.4193 O   0  0  0  0  0  0
  -22.3572  -14.5528   20.6744 O   0  0  0  0  0  0
  -24.6133  -31.8722   23.2067 C   0  0  0  0  0  0
  -25.9088  -32.4796   23.8316 C   0  0  1  0  0  0
  -27.2260  -27.4595   20.0707 C   0  0  0  0  0  0
  -25.6008  -33.8592   24.2280 N   0  0  0  0  0  0
  -23.3946  -30.4999   21.5442 C   0  0  2  0  0  0
  -24.8367  -28.9600   20.1077 C   0  0  0  0  0  0
  -22.7402  -29.4721   22.4898 C   0  0  0  0  0  0
  -18.0324  -28.1407   22.8499 C   0  0  0  0  0  0
  -24.1540  -36.7281   23.2606 C   0  0  0  0  0  0
  -25.9241  -30.8428   21.3509 C   0  0  0  0  0  0
  -25.9961  -29.4786   20.6978 C   0  0  0  0  0  0
  -27.1940  -28.7328   20.6768 C   0  0  0  0  0  0
  -26.0557  -26.9618   19.4553 C   0  0  0  0  0  0
  -24.8613  -27.6998   19.4817 C   0  0  0  0  0  0
  -23.5985  -29.8223   20.1591 C   0  0  0  0  0  0
  -25.4145  -36.3044   24.0293 C   0  0  1  0  0  0
  -20.5909  -28.3689   23.1273 C   0  0  2  0  0  0
  -20.6770  -26.9403   22.5421 C   0  0  0  0  0  0
  -19.5738  -26.6395   21.5219 C   0  0  0  0  0  0
  -18.1939  -26.7942   22.1637 C   0  0  0  0  0  0
  -19.1581  -28.8846   23.2907 C   0  0  0  0  0  0
  -18.9509  -30.1439   23.8905 C   0  0  0  0  0  0
  -17.6507  -30.6594   24.0590 C   0  0  0  0  0  0
  -25.9050  -34.9418   23.5054 C   0  0  0  0  0  0
  -16.5405  -29.9106   23.6339 C   0  0  0  0  0  0
  -16.7304  -28.6548   23.0325 C   0  0  0  0  0  0
  -26.4539  -31.6527   25.0603 C   0  0  0  0  0  0
  -25.3850  -31.3616   26.1358 C   0  0  0  0  0  0
  -27.0354  -30.2944   24.5952 C   0  0  0  0  0  0
  -27.6101  -32.4203   25.7411 C   0  0  0  0  0  0
  -27.5590  -37.1792   24.8457 C   0  0  0  0  0  0
  -21.4113  -29.3069   22.3648 N   0  0  0  0  0  0
  -26.4339  -37.3713   23.9345 N   0  0  0  0  0  0
  -24.6628  -31.0880   22.0884 N   0  0  0  0  0  0
  -23.4197  -28.8257   23.2925 O   0  0  0  0  0  0
  -28.4180  -26.7781   20.0875 O   0  0  0  0  0  0
  -26.5550  -34.8917   22.4574 O   0  0  0  0  0  0
  -23.5368  -32.1442   23.7524 O   0  0  0  0  0  0
  -29.6893  -18.2128   18.6789 C   0  0  0  0  0  0
  -30.3310  -17.9607   21.3776 C   0  0  0  0  0  0
  -29.8723  -19.3792   19.4399 C   0  0  0  0  0  0
  -30.1568  -16.7649   20.6181 C   0  0  0  0  0  0
  -29.8476  -16.9166   19.2272 C   0  0  0  0  0  0
  -30.2001  -19.2416   20.8035 C   0  0  0  0  0  0
  -29.6106  -24.7701   20.6166 C   0  0  0  0  0  0
  -30.3213  -15.3328   22.7308 C   0  0  0  0  0  0
  -28.3993  -20.8045   18.1838 C   0  0  0  0  0  0
  -30.0224  -15.9482   17.0293 C   0  0  0  0  0  0
  -28.4081  -25.3680   19.8745 C   0  0  0  0  0  0
  -31.8090  -23.6732   17.7381 C   0  0  0  0  0  0
  -31.2450  -25.1166   17.7038 C   0  0  0  0  0  0
  -30.6318  -22.6781   17.8134 C   0  0  0  0  0  0
  -31.2532  -25.8705   19.0538 C   0  0  0  0  0  0
  -30.8796  -21.2069   18.2024 C   0  0  0  0  0  0
  -30.8537  -25.0454   20.1983 N   0  0  0  0  0  0
  -30.2843  -15.4589   21.2566 N   0  0  0  0  0  0
  -29.6898  -20.6498   18.8600 N   0  0  0  0  0  0
  -29.4311  -24.0497   21.5971 O   0  0  0  0  0  0
  -29.6561  -15.8180   18.4120 O   0  0  0  0  0  0
  -30.3559  -20.3394   21.5814 F   0  0  0  0  0  0
  -31.4562  -12.2407   19.1710 H   0  0  0  0  0  0
  -30.2388  -11.2382   19.9150 H   0  0  0  0  0  0
  -29.7292  -11.5711   17.5125 H   0  0  0  0  0  0
  -29.7068  -13.2987   17.7115 H   0  0  0  0  0  0
  -27.8626  -11.2299   18.9340 H   0  0  0  0  0  0
  -27.3499  -12.4315   17.7935 H   0  0  0  0  0  0
  -27.6892  -14.2234   19.4703 H   0  0  0  0  0  0
  -28.6587  -12.0353   21.3927 H   0  0  0  0  0  0
  -28.4612  -13.7128   21.7910 H   0  0  0  0  0  0
  -25.2747   -9.5698   22.4661 H   0  0  0  0  0  0
  -24.0003   -7.4644   22.7441 H   0  0  0  0  0  0
  -21.0827   -8.8634   19.8964 H   0  0  0  0  0  0
  -22.3619  -10.9526   19.6069 H   0  0  0  0  0  0
  -21.1978   -7.6089   23.9646 H   0  0  0  0  0  0
  -21.1496   -6.0488   25.9048 H   0  0  0  0  0  0
  -22.0627   -2.7548   23.2865 H   0  0  0  0  0  0
  -22.4418  -11.9858   22.4795 H   0  0  0  0  0  0
  -21.1202  -13.0982   22.2616 H   0  0  0  0  0  0
  -24.6747  -15.8365   20.5105 H   0  0  0  0  0  0
  -26.3090  -15.6198   20.1182 H   0  0  0  0  0  0
  -26.7126  -32.5442   23.1036 H   0  0  0  0  0  0
  -25.0313  -33.9713   25.0527 H   0  0  0  0  0  0
  -22.6752  -31.3110   21.3987 H   0  0  0  0  0  0
  -23.3782  -35.9643   23.3276 H   0  0  0  0  0  0
  -24.3673  -36.8880   22.2027 H   0  0  0  0  0  0
  -23.7337  -37.6503   23.6599 H   0  0  0  0  0  0
  -26.0355  -31.6028   20.5807 H   0  0  0  0  0  0
  -26.8105  -30.8843   21.9710 H   0  0  0  0  0  0
  -28.0910  -29.1187   21.1325 H   0  0  0  0  0  0
  -26.0641  -26.0155   18.9372 H   0  0  0  0  0  0
  -23.9796  -27.3035   18.9972 H   0  0  0  0  0  0
  -23.6896  -30.5868   19.3897 H   0  0  0  0  0  0
  -22.7229  -29.2377   19.8748 H   0  0  0  0  0  0
  -25.1363  -36.1860   25.0793 H   0  0  0  0  0  0
  -21.0062  -28.3284   24.1366 H   0  0  0  0  0  0
  -20.5599  -26.2349   23.3662 H   0  0  0  0  0  0
  -21.6643  -26.7346   22.1236 H   0  0  0  0  0  0
  -19.6912  -25.6347   21.1179 H   0  0  0  0  0  0
  -19.6668  -27.3199   20.6773 H   0  0  0  0  0  0
  -17.4178  -26.6678   21.4080 H   0  0  0  0  0  0
  -18.0388  -26.0098   22.9052 H   0  0  0  0  0  0
  -19.7988  -30.7278   24.2212 H   0  0  0  0  0  0
  -17.5085  -31.6240   24.5272 H   0  0  0  0  0  0
  -15.5413  -30.3014   23.7683 H   0  0  0  0  0  0
  -15.8713  -28.0910   22.6940 H   0  0  0  0  0  0
  -24.6079  -30.6889   25.7696 H   0  0  0  0  0  0
  -24.9030  -32.2791   26.4723 H   0  0  0  0  0  0
  -25.8272  -30.8856   27.0131 H   0  0  0  0  0  0
  -26.2879  -29.6623   24.1170 H   0  0  0  0  0  0
  -27.4325  -29.7222   25.4337 H   0  0  0  0  0  0
  -27.8623  -30.4193   23.8970 H   0  0  0  0  0  0
  -27.2744  -33.3483   26.2049 H   0  0  0  0  0  0
  -28.3962  -32.6795   25.0290 H   0  0  0  0  0  0
  -28.0755  -31.8283   26.5314 H   0  0  0  0  0  0
  -28.2596  -38.0090   24.7512 H   0  0  0  0  0  0
  -28.1114  -36.2636   24.6321 H   0  0  0  0  0  0
  -27.2323  -37.1497   25.8864 H   0  0  0  0  0  0
  -20.9232  -29.8941   21.7027 H   0  0  0  0  0  0
  -26.0211  -38.2792   24.1298 H   0  0  0  0  0  0
  -29.3923  -18.3374   17.6523 H   0  0  0  0  0  0
  -30.5779  -17.9598   22.4261 H   0  0  0  0  0  0
  -30.9143  -16.0954   23.2299 H   0  0  0  0  0  0
  -30.7733  -14.3922   23.0567 H   0  0  0  0  0  0
  -29.3079  -15.3598   23.1427 H   0  0  0  0  0  0
  -27.6471  -20.1304   18.5926 H   0  0  0  0  0  0
  -28.4979  -20.6100   17.1116 H   0  0  0  0  0  0
  -28.0086  -21.8138   18.3227 H   0  0  0  0  0  0
  -29.8952  -15.0084   16.5017 H   0  0  0  0  0  0
  -31.0710  -16.2267   16.9196 H   0  0  0  0  0  0
  -29.4090  -16.6512   16.4671 H   0  0  0  0  0  0
  -27.4984  -24.9077   20.2688 H   0  0  0  0  0  0
  -28.4615  -25.1364   18.8114 H   0  0  0  0  0  0
  -32.4994  -23.5543   18.5759 H   0  0  0  0  0  0
  -32.3969  -23.4835   16.8367 H   0  0  0  0  0  0
  -30.2200  -25.0868   17.3252 H   0  0  0  0  0  0
  -31.7805  -25.7175   16.9672 H   0  0  0  0  0  0
  -30.0929  -22.7208   16.8666 H   0  0  0  0  0  0
  -29.9495  -23.0818   18.5487 H   0  0  0  0  0  0
  -30.6153  -26.7547   18.9955 H   0  0  0  0  0  0
  -32.2552  -26.2561   19.2396 H   0  0  0  0  0  0
  -31.7319  -21.1336   18.8783 H   0  0  0  0  0  0
  -31.1147  -20.6066   17.3206 H   0  0  0  0  0  0
  -31.5990  -24.6534   20.7559 H   0  0  0  0  0  0
  1 25  1  0  0  0
  1 30  2  0  0  0
  1 88  1  0  0  0
  2  3  1  0  0  0
  2 25  1  0  0  0
  2 93  1  0  0  0
  2 94  1  0  0  0
  3  4  1  0  0  0
  3 95  1  0  0  0
  3 96  1  0  0  0
  4  5  1  0  0  0
  4 97  1  0  0  0
  4 98  1  0  0  0
  5  6  1  0  0  0
  5 26  1  0  0  0
  5 99  1  0  0  0
  6 25  1  0  0  0
  6100  1  0  0  0
  6101  1  0  0  0
  7  8  2  0  0  0
  7 26  1  0  0  0
  7 29  1  0  0  0
  8  9  1  0  0  0
  8 22  1  0  0  0
  9 10  1  0  0  0
  9 27  2  0  0  0
 10 11  2  0  0  0
 10 15  1  0  0  0
 11 12  1  0  0  0
 11102  1  0  0  0
 12 13  2  0  0  0
 12103  1  0  0  0
 13 14  1  0  0  0
 13 31  1  0  0  0
 14 15  2  0  0  0
 14104  1  0  0  0
 15105  1  0  0  0
 16 17  2  0  0  0
 16 21  1  0  0  0
 16 31  1  0  0  0
 17 18  1  0  0  0
 17106  1  0  0  0
 18 19  2  0  0  0
 18107  1  0  0  0
 19 20  1  0  0  0
 19 24  1  0  0  0
 20 21  2  0  0  0
 20108  1  0  0  0
 21 23  1  0  0  0
 22 28  1  0  0  0
 22 32  2  0  0  0
 26 27  1  0  0  0
 28109  1  0  0  0
 28110  1  0  0  0
 29111  1  0  0  0
 29112  1  0  0  0
 33 34  1  0  0  0
 33 66  1  0  0  0
 33 70  2  0  0  0
 34 36  1  0  0  0
 34 59  1  0  0  0
 34113  1  0  0  0
 35 44  2  0  0  0
 35 45  1  0  0  0
 35 68  1  0  0  0
 36 56  1  0  0  0
 36114  1  0  0  0
 37 39  1  0  0  0
 37 47  1  0  0  0
 37 66  1  0  0  0
 37115  1  0  0  0
 38 43  2  0  0  0
 38 46  1  0  0  0
 38 47  1  0  0  0
 39 64  1  0  0  0
 39 67  2  0  0  0
 40 52  1  0  0  0
 40 53  2  0  0  0
 40 58  1  0  0  0
 41116  1  0  0  0
 41117  1  0  0  0
 41118  1  0  0  0
 41 48  1  0  0  0
 42 43  1  0  0  0
 42 66  1  0  0  0
 42119  1  0  0  0
 42120  1  0  0  0
 43 44  1  0  0  0
 44121  1  0  0  0
 45 46  2  0  0  0
 45122  1  0  0  0
 46123  1  0  0  0
 47124  1  0  0  0
 47125  1  0  0  0
 48 56  1  0  0  0
 48 65  1  0  0  0
 48126  1  0  0  0
 49 50  1  0  0  0
 49 53  1  0  0  0
 49 64  1  0  0  0
 49127  1  0  0  0
 50 51  1  0  0  0
 50128  1  0  0  0
 50129  1  0  0  0
 51 52  1  0  0  0
 51130  1  0  0  0
 51131  1  0  0  0
 52132  1  0  0  0
 52133  1  0  0  0
 53 54  1  0  0  0
 54 55  2  0  0  0
 54134  1  0  0  0
 55 57  1  0  0  0
 55135  1  0  0  0
 56 69  2  0  0  0
 57 58  2  0  0  0
 57136  1  0  0  0
 58137  1  0  0  0
 59 60  1  0  0  0
 59 61  1  0  0  0
 59 62  1  0  0  0
 60138  1  0  0  0
 60139  1  0  0  0
 60140  1  0  0  0
 61141  1  0  0  0
 61142  1  0  0  0
 61143  1  0  0  0
 62144  1  0  0  0
 62145  1  0  0  0
 62146  1  0  0  0
 63 65  1  0  0  0
 63147  1  0  0  0
 63148  1  0  0  0
 63149  1  0  0  0
 64150  1  0  0  0
 65151  1  0  0  0
 68 81  1  0  0  0
 71 73  2  0  0  0
 71 75  1  0  0  0
 71152  1  0  0  0
 72 74  1  0  0  0
 72 76  2  0  0  0
 72153  1  0  0  0
 73 76  1  0  0  0
 73 89  1  0  0  0
 74 75  2  0  0  0
 74 88  1  0  0  0
 75 91  1  0  0  0
 76 92  1  0  0  0
 77 81  1  0  0  0
 77 87  1  0  0  0
 77 90  2  0  0  0
 78 88  1  0  0  0
 78154  1  0  0  0
 78155  1  0  0  0
 78156  1  0  0  0
 79 89  1  0  0  0
 79157  1  0  0  0
 79158  1  0  0  0
 79159  1  0  0  0
 80 91  1  0  0  0
 80160  1  0  0  0
 80161  1  0  0  0
 80162  1  0  0  0
 81163  1  0  0  0
 81164  1  0  0  0
 82 83  1  0  0  0
 82 84  1  0  0  0
 82165  1  0  0  0
 82166  1  0  0  0
 83 85  1  0  0  0
 83167  1  0  0  0
 83168  1  0  0  0
 84 86  1  0  0  0
 84169  1  0  0  0
 84170  1  0  0  0
 85 87  1  0  0  0
 85171  1  0  0  0
 85172  1  0  0  0
 86 89  1  0  0  0
 86173  1  0  0  0
 86174  1  0  0  0
 87175  1  0  0  0
M  ISO  4   1 100  68 101  81 101  88 100
M  END
> <chiral flag>
0

> <version>
0

> <s_m_source_file>
/data/baiqing/PycharmProjects/Reinvent-master-3.2/result/LINK_invent/BTK/process_docking_weight1_custom_sum_contain_oxygen_bond_distance_aromatic_linkinvent_7_9_3/rearranged_h_0005.sdf

> <i_m_source_file_index>
20

> <r_mmod_Potential_Energy-OPLS-2005>
180.909973144531

> <r_mmod_Stretch_Energy-OPLS-2005>
48.2969665527344

> <r_mmod_Bend_Energy-OPLS-2005>
127.819458007812

> <r_mmod_Torsional_Energy-OPLS-2005>
339.26416015625

> <r_mmod_Improper_Torsional_Energy-OPLS-2005>
6.78564596176147

> <r_mmod_Van_der_Waal_Energy-OPLS-2005>
178.861343383789

> <r_mmod_Electrostatic_Energy-OPLS-2005>
-310.935546875

> <r_mmod_Solvation_Energy-OPLS-2005>
-229.238861083984

> <b_mmod_Minimization_Converged-OPLS-2005>
0

> <r_mmod_RMS_Derivative-OPLS-2005>
9.17554092407227

$$$$
20
                    3D
 Structure written by MMmdl.
155163  0  0  1  0            999 V2000
  -30.6257  -14.6300   20.5104 C   0  0  0  0  0  0
  -30.4398  -12.3888   19.4505 C   0  0  0  0  0  0
  -29.5070  -12.5100   18.2245 C   0  0  0  0  0  0
  -28.0292  -12.3501   18.6361 C   0  0  0  0  0  0
  -27.6553  -13.2161   19.8684 C   0  0  2  0  0  0
  -28.7007  -13.0601   20.9962 C   0  0  0  0  0  0
  -25.2546  -13.8145   20.5645 C   0  0  0  0  0  0
  -24.1815  -13.0420   20.9165 C   0  0  0  0  0  0
  -24.6398  -11.6898   20.8739 C   0  0  0  0  0  0
  -23.9066  -10.4285   21.0404 C   0  0  0  0  0  0
  -24.3613   -9.4202   21.9185 C   0  0  0  0  0  0
  -23.6289   -8.2236   22.0755 C   0  0  0  0  0  0
  -22.4270   -8.0276   21.3544 C   0  0  0  0  0  0
  -21.9906   -9.0250   20.4645 C   0  0  0  0  0  0
  -22.7237  -10.2130   20.3057 C   0  0  0  0  0  0
  -21.6851   -6.0733   22.5280 C   0  0  0  0  0  0
  -21.4013   -6.5639   23.8213 C   0  0  0  0  0  0
  -21.3659   -5.6790   24.9174 C   0  0  0  0  0  0
  -21.6045   -4.3054   24.7226 C   0  0  0  0  0  0
  -21.8819   -3.8146   23.4346 C   0  0  0  0  0  0
  -21.9193   -4.6961   22.3401 C   0  0  0  0  0  0
  -22.7845  -13.5223   21.1841 C   0  0  0  0  0  0
  -22.1661   -4.2147   21.0979 F   0  0  0  0  0  0
  -21.5628   -3.4538   25.7740 F   0  0  0  0  0  0
  -30.0181  -13.4040   20.4357 N   0  0  0  0  0  0
  -26.3001  -12.9342   20.3353 N   0  0  0  0  0  0
  -25.9336  -11.6499   20.5788 N   0  0  0  0  0  0
  -22.0491  -12.8218   22.0402 N   0  0  0  0  0  0
  -25.4217  -15.1849   20.3996 N   0  0  0  0  0  0
  -31.7804  -14.8002   20.1088 O   0  0  0  0  0  0
  -21.6637   -6.8873   21.4240 O   0  0  0  0  0  0
  -22.3534  -14.5537   20.6703 O   0  0  0  0  0  0
  -24.6259  -31.8609   23.2047 C   0  0  0  0  0  0
  -25.9110  -32.4782   23.8370 C   0  0  1  0  0  0
  -27.2254  -27.3300   20.1108 C   0  0  0  0  0  0
  -25.5931  -33.8584   24.2298 N   0  0  0  0  0  0
  -23.4185  -30.4866   21.5468 C   0  0  2  0  0  0
  -24.8646  -28.9458   20.1105 C   0  0  0  0  0  0
  -22.7471  -29.4631   22.4936 C   0  0  0  0  0  0
  -18.0284  -28.1385   22.8484 C   0  0  0  0  0  0
  -24.1490  -36.7298   23.2640 C   0  0  0  0  0  0
  -25.9602  -30.7955   21.3746 C   0  0  0  0  0  0
  -26.0341  -29.4247   20.7146 C   0  0  0  0  0  0
  -27.2173  -28.6290   20.7046 C   0  0  0  0  0  0
  -26.0294  -26.9041   19.4845 C   0  0  0  0  0  0
  -24.8639  -27.6902   19.4873 C   0  0  0  0  0  0
  -23.6329  -29.8253   20.1604 C   0  0  0  0  0  0
  -25.4113  -36.3088   24.0333 C   0  0  1  0  0  0
  -20.5882  -28.3689   23.1284 C   0  0  2  0  0  0
  -20.6777  -26.9416   22.5411 C   0  0  0  0  0  0
  -19.5754  -26.6385   21.5213 C   0  0  0  0  0  0
  -18.1930  -26.7926   22.1622 C   0  0  0  0  0  0
  -19.1537  -28.8853   23.2878 C   0  0  0  0  0  0
  -18.9461  -30.1453   23.8895 C   0  0  0  0  0  0
  -17.6462  -30.6586   24.0562 C   0  0  0  0  0  0
  -25.9048  -34.9454   23.5113 C   0  0  0  0  0  0
  -16.5351  -29.9087   23.6329 C   0  0  0  0  0  0
  -16.7271  -28.6506   23.0348 C   0  0  0  0  0  0
  -26.4501  -31.6584   25.0730 C   0  0  0  0  0  0
  -25.3744  -31.3715   26.1462 C   0  0  0  0  0  0
  -27.0345  -30.3010   24.6174 C   0  0  0  0  0  0
  -27.6060  -32.4318   25.7501 C   0  0  0  0  0  0
  -27.5576  -37.1807   24.8465 C   0  0  0  0  0  0
  -21.4184  -29.3045   22.3681 N   0  0  0  0  0  0
  -26.4291  -37.3780   23.9406 N   0  0  0  0  0  0
  -24.6869  -31.0639   22.0990 N   0  0  0  0  0  0
  -23.4200  -28.8164   23.3003 O   0  0  0  0  0  0
  -28.3458  -26.4844   20.1606 O   0  0  0  0  0  0
  -26.5611  -34.8916   22.4675 O   0  0  0  0  0  0
  -23.5424  -32.1400   23.7384 O   0  0  0  0  0  0
  -28.7106  -19.2945   21.0449 C   0  0  0  0  0  0
  -30.9818  -17.8554   20.2465 C   0  0  0  0  0  0
  -29.8024  -20.0376   20.5220 C   0  0  0  0  0  0
  -29.8860  -17.1161   20.7637 C   0  0  0  0  0  0
  -28.7460  -17.8652   21.1693 C   0  0  0  0  0  0
  -30.9425  -19.2771   20.1363 C   0  0  0  0  0  0
  -28.8631  -22.4571   20.4461 C   0  0  0  0  0  0
  -26.5577  -17.8198   22.1764 C   0  0  0  0  0  0
  -29.2555  -23.9884   20.3944 C   0  0  0  0  0  0
  -28.1057  -25.0278   20.0424 C   0  0  0  0  0  0
  -29.8434  -21.5008   20.4146 N   0  0  0  0  0  0
  -29.8232  -15.6617   20.9127 N   0  0  0  0  0  0
  -27.6697  -22.1553   20.5110 O   0  0  0  0  0  0
  -27.6983  -17.1264   21.6827 O   0  0  0  0  0  0
  -32.3338  -20.0930   19.5131 Cl  0  0  0  0  0  0
  -31.4801  -12.5167   19.1464 H   0  0  0  0  0  0
  -30.3773  -11.3907   19.8867 H   0  0  0  0  0  0
  -29.7684  -11.7610   17.4758 H   0  0  0  0  0  0
  -29.6506  -13.4811   17.7479 H   0  0  0  0  0  0
  -27.8617  -11.2964   18.8617 H   0  0  0  0  0  0
  -27.3754  -12.5878   17.7958 H   0  0  0  0  0  0
  -27.6756  -14.2537   19.5341 H   0  0  0  0  0  0
  -28.7102  -12.0352   21.3702 H   0  0  0  0  0  0
  -28.4458  -13.6843   21.8540 H   0  0  0  0  0  0
  -25.2759   -9.5677   22.4760 H   0  0  0  0  0  0
  -23.9999   -7.4626   22.7475 H   0  0  0  0  0  0
  -21.0838   -8.8767   19.8952 H   0  0  0  0  0  0
  -22.3694  -10.9666   19.6165 H   0  0  0  0  0  0
  -21.2005   -7.6149   23.9715 H   0  0  0  0  0  0
  -21.1481   -6.0523   25.9077 H   0  0  0  0  0  0
  -22.0600   -2.7609   23.2848 H   0  0  0  0  0  0
  -22.4102  -11.9874   22.4780 H   0  0  0  0  0  0
  -21.1117  -13.1251   22.2621 H   0  0  0  0  0  0
  -24.6531  -15.8364   20.5085 H   0  0  0  0  0  0
  -26.2906  -15.6357   20.1417 H   0  0  0  0  0  0
  -26.7175  -32.5458   23.1117 H   0  0  0  0  0  0
  -25.0086  -33.9734   25.0448 H   0  0  0  0  0  0
  -22.7113  -31.3068   21.4065 H   0  0  0  0  0  0
  -23.3748  -35.9633   23.3308 H   0  0  0  0  0  0
  -24.3582  -36.8911   22.2052 H   0  0  0  0  0  0
  -23.7248  -37.6505   23.6654 H   0  0  0  0  0  0
  -26.0917  -31.5606   20.6083 H   0  0  0  0  0  0
  -26.8416  -30.8426   22.0030 H   0  0  0  0  0  0
  -28.1141  -28.9927   21.1862 H   0  0  0  0  0  0
  -25.9599  -25.9469   18.9911 H   0  0  0  0  0  0
  -23.9682  -27.3180   19.0088 H   0  0  0  0  0  0
  -23.7529  -30.6050   19.4073 H   0  0  0  0  0  0
  -22.7527  -29.2559   19.8559 H   0  0  0  0  0  0
  -25.1292  -36.1943   25.0826 H   0  0  0  0  0  0
  -20.9978  -28.3267   24.1402 H   0  0  0  0  0  0
  -20.5688  -26.2298   23.3608 H   0  0  0  0  0  0
  -21.6645  -26.7448   22.1199 H   0  0  0  0  0  0
  -19.6918  -25.6298   21.1237 H   0  0  0  0  0  0
  -19.6691  -27.3201   20.6747 H   0  0  0  0  0  0
  -17.4203  -26.6668   21.4023 H   0  0  0  0  0  0
  -18.0329  -26.0069   22.9020 H   0  0  0  0  0  0
  -19.7939  -30.7265   24.2268 H   0  0  0  0  0  0
  -17.5019  -31.6267   24.5166 H   0  0  0  0  0  0
  -15.5355  -30.2991   23.7656 H   0  0  0  0  0  0
  -15.8668  -28.0829   22.7062 H   0  0  0  0  0  0
  -24.5918  -30.7060   25.7798 H   0  0  0  0  0  0
  -24.8939  -32.2881   26.4893 H   0  0  0  0  0  0
  -25.8085  -30.8893   27.0230 H   0  0  0  0  0  0
  -26.2916  -29.6755   24.1206 H   0  0  0  0  0  0
  -27.4057  -29.7261   25.4669 H   0  0  0  0  0  0
  -27.8778  -30.4297   23.9386 H   0  0  0  0  0  0
  -27.2665  -33.3614   26.2078 H   0  0  0  0  0  0
  -28.3872  -32.6883   25.0334 H   0  0  0  0  0  0
  -28.0721  -31.8441   26.5419 H   0  0  0  0  0  0
  -28.2600  -38.0097   24.7501 H   0  0  0  0  0  0
  -28.1064  -36.2627   24.6305 H   0  0  0  0  0  0
  -27.2290  -37.1473   25.8868 H   0  0  0  0  0  0
  -20.9358  -29.8776   21.6901 H   0  0  0  0  0  0
  -26.0173  -38.2855   24.1404 H   0  0  0  0  0  0
  -27.8403  -19.8419   21.3691 H   0  0  0  0  0  0
  -31.8768  -17.3424   19.9289 H   0  0  0  0  0  0
  -25.8432  -17.1011   22.5780 H   0  0  0  0  0  0
  -26.0532  -18.3740   21.3833 H   0  0  0  0  0  0
  -26.8208  -18.5036   22.9848 H   0  0  0  0  0  0
  -30.0749  -24.1119   19.6868 H   0  0  0  0  0  0
  -29.6603  -24.2427   21.3735 H   0  0  0  0  0  0
  -27.8089  -24.8190   19.0143 H   0  0  0  0  0  0
  -27.2459  -24.7846   20.6692 H   0  0  0  0  0  0
  -30.7748  -21.8661   20.2634 H   0  0  0  0  0  0
  -28.9323  -15.3467   21.2672 H   0  0  0  0  0  0
  1 25  1  0  0  0
  1 30  2  0  0  0
  1 82  1  0  0  0
  2  3  1  0  0  0
  2 25  1  0  0  0
  2 86  1  0  0  0
  2 87  1  0  0  0
  3  4  1  0  0  0
  3 88  1  0  0  0
  3 89  1  0  0  0
  4  5  1  0  0  0
  4 90  1  0  0  0
  4 91  1  0  0  0
  5  6  1  0  0  0
  5 26  1  0  0  0
  5 92  1  0  0  0
  6 25  1  0  0  0
  6 93  1  0  0  0
  6 94  1  0  0  0
  7  8  2  0  0  0
  7 26  1  0  0  0
  7 29  1  0  0  0
  8  9  1  0  0  0
  8 22  1  0  0  0
  9 10  1  0  0  0
  9 27  2  0  0  0
 10 11  2  0  0  0
 10 15  1  0  0  0
 11 12  1  0  0  0
 11 95  1  0  0  0
 12 13  2  0  0  0
 12 96  1  0  0  0
 13 14  1  0  0  0
 13 31  1  0  0  0
 14 15  2  0  0  0
 14 97  1  0  0  0
 15 98  1  0  0  0
 16 17  2  0  0  0
 16 21  1  0  0  0
 16 31  1  0  0  0
 17 18  1  0  0  0
 17 99  1  0  0  0
 18 19  2  0  0  0
 18100  1  0  0  0
 19 20  1  0  0  0
 19 24  1  0  0  0
 20 21  2  0  0  0
 20101  1  0  0  0
 21 23  1  0  0  0
 22 28  1  0  0  0
 22 32  2  0  0  0
 26 27  1  0  0  0
 28102  1  0  0  0
 28103  1  0  0  0
 29104  1  0  0  0
 29105  1  0  0  0
 33 34  1  0  0  0
 33 66  1  0  0  0
 33 70  2  0  0  0
 34 36  1  0  0  0
 34 59  1  0  0  0
 34106  1  0  0  0
 35 44  2  0  0  0
 35 45  1  0  0  0
 35 68  1  0  0  0
 36 56  1  0  0  0
 36107  1  0  0  0
 37 39  1  0  0  0
 37 47  1  0  0  0
 37 66  1  0  0  0
 37108  1  0  0  0
 38 43  2  0  0  0
 38 46  1  0  0  0
 38 47  1  0  0  0
 39 64  1  0  0  0
 39 67  2  0  0  0
 40 52  1  0  0  0
 40 53  2  0  0  0
 40 58  1  0  0  0
 41109  1  0  0  0
 41110  1  0  0  0
 41111  1  0  0  0
 41 48  1  0  0  0
 42 43  1  0  0  0
 42 66  1  0  0  0
 42112  1  0  0  0
 42113  1  0  0  0
 43 44  1  0  0  0
 44114  1  0  0  0
 45 46  2  0  0  0
 45115  1  0  0  0
 46116  1  0  0  0
 47117  1  0  0  0
 47118  1  0  0  0
 48 56  1  0  0  0
 48 65  1  0  0  0
 48119  1  0  0  0
 49 50  1  0  0  0
 49 53  1  0  0  0
 49 64  1  0  0  0
 49120  1  0  0  0
 50 51  1  0  0  0
 50121  1  0  0  0
 50122  1  0  0  0
 51 52  1  0  0  0
 51123  1  0  0  0
 51124  1  0  0  0
 52125  1  0  0  0
 52126  1  0  0  0
 53 54  1  0  0  0
 54 55  2  0  0  0
 54127  1  0  0  0
 55 57  1  0  0  0
 55128  1  0  0  0
 56 69  2  0  0  0
 57 58  2  0  0  0
 57129  1  0  0  0
 58130  1  0  0  0
 59 60  1  0  0  0
 59 61  1  0  0  0
 59 62  1  0  0  0
 60131  1  0  0  0
 60132  1  0  0  0
 60133  1  0  0  0
 61134  1  0  0  0
 61135  1  0  0  0
 61136  1  0  0  0
 62137  1  0  0  0
 62138  1  0  0  0
 62139  1  0  0  0
 63 65  1  0  0  0
 63140  1  0  0  0
 63141  1  0  0  0
 63142  1  0  0  0
 64143  1  0  0  0
 65144  1  0  0  0
 68 80  1  0  0  0
 71 73  2  0  0  0
 71 75  1  0  0  0
 71145  1  0  0  0
 72 74  1  0  0  0
 72 76  2  0  0  0
 72146  1  0  0  0
 73 76  1  0  0  0
 73 81  1  0  0  0
 74 75  2  0  0  0
 74 82  1  0  0  0
 75 84  1  0  0  0
 76 85  1  0  0  0
 77 79  1  0  0  0
 77 81  1  0  0  0
 77 83  2  0  0  0
 78 84  1  0  0  0
 78147  1  0  0  0
 78148  1  0  0  0
 78149  1  0  0  0
 79 80  1  0  0  0
 79150  1  0  0  0
 79151  1  0  0  0
 80152  1  0  0  0
 80153  1  0  0  0
 81154  1  0  0  0
 82155  1  0  0  0
M  ISO  4   1 100  68 101  80 101  82 100
M  END
> <chiral flag>
0

> <version>
0

> <s_m_source_file>
/data/baiqing/PycharmProjects/Reinvent-master-3.2/result/LINK_invent/BTK/process_docking_weight1_custom_sum_contain_oxygen_bond_distance_aromatic_linkinvent_7_9_3/rearranged_h_0005.sdf

> <i_m_source_file_index>
21

> <r_mmod_Potential_Energy-OPLS-2005>
-60.6372261047363

> <r_mmod_Stretch_Energy-OPLS-2005>
77.1169815063477

> <r_mmod_Bend_Energy-OPLS-2005>
145.945999145508

> <r_mmod_Torsional_Energy-OPLS-2005>
216.961990356445

> <r_mmod_Improper_Torsional_Energy-OPLS-2005>
3.65526342391968

> <r_mmod_Van_der_Waal_Energy-OPLS-2005>
153.710647583008

> <r_mmod_Electrostatic_Energy-OPLS-2005>
-482.721710205078

> <r_mmod_Solvation_Energy-OPLS-2005>
-219.916763305664

> <b_mmod_Minimization_Converged-OPLS-2005>
0

> <r_mmod_RMS_Derivative-OPLS-2005>
0.650587320327759

$$$$
21
                    3D
 Structure written by MMmdl.
162170  0  0  1  0            999 V2000
  -30.7364  -14.4970   20.2973 C   0  0  0  0  0  0
  -30.4134  -12.2512   19.4258 C   0  0  0  0  0  0
  -29.4790  -12.3393   18.2019 C   0  0  0  0  0  0
  -27.9955  -12.3108   18.6171 C   0  0  0  0  0  0
  -27.6523  -13.2131   19.8352 C   0  0  2  0  0  0
  -28.7183  -13.1172   20.9495 C   0  0  0  0  0  0
  -25.2607  -13.8217   20.5664 C   0  0  0  0  0  0
  -24.1874  -13.0485   20.9199 C   0  0  0  0  0  0
  -24.6425  -11.6938   20.8766 C   0  0  0  0  0  0
  -23.9086  -10.4320   21.0423 C   0  0  0  0  0  0
  -24.3630   -9.4218   21.9191 C   0  0  0  0  0  0
  -23.6304   -8.2249   22.0762 C   0  0  0  0  0  0
  -22.4285   -8.0301   21.3547 C   0  0  0  0  0  0
  -21.9929   -9.0288   20.4652 C   0  0  0  0  0  0
  -22.7267  -10.2155   20.3069 C   0  0  0  0  0  0
  -21.6855   -6.0762   22.5275 C   0  0  0  0  0  0
  -21.4038   -6.5664   23.8223 C   0  0  0  0  0  0
  -21.3649   -5.6803   24.9176 C   0  0  0  0  0  0
  -21.6034   -4.3074   24.7219 C   0  0  0  0  0  0
  -21.8813   -3.8165   23.4342 C   0  0  0  0  0  0
  -21.9205   -4.6988   22.3393 C   0  0  0  0  0  0
  -22.7885  -13.5272   21.1853 C   0  0  0  0  0  0
  -22.1656   -4.2168   21.0978 F   0  0  0  0  0  0
  -21.5612   -3.4547   25.7735 F   0  0  0  0  0  0
  -30.0352  -13.3358   20.3357 N   0  0  0  0  0  0
  -26.3022  -12.9375   20.3293 N   0  0  0  0  0  0
  -25.9371  -11.6525   20.5834 N   0  0  0  0  0  0
  -22.0521  -12.8244   22.0380 N   0  0  0  0  0  0
  -25.4356  -15.1938   20.4121 N   0  0  0  0  0  0
  -31.9471  -14.5474   20.5000 O   0  0  0  0  0  0
  -21.6651   -6.8893   21.4238 O   0  0  0  0  0  0
  -22.3522  -14.5559   20.6690 O   0  0  0  0  0  0
  -24.6116  -31.8698   23.2129 C   0  0  0  0  0  0
  -25.9014  -32.4850   23.8432 C   0  0  1  0  0  0
  -27.2422  -27.4537   20.1093 C   0  0  0  0  0  0
  -25.5888  -33.8648   24.2379 N   0  0  0  0  0  0
  -23.4000  -30.4926   21.5506 C   0  0  2  0  0  0
  -24.8538  -28.9603   20.1194 C   0  0  0  0  0  0
  -22.7394  -29.4676   22.5009 C   0  0  0  0  0  0
  -18.0273  -28.1389   22.8468 C   0  0  0  0  0  0
  -24.1481  -36.7317   23.2646 C   0  0  0  0  0  0
  -25.9265  -30.8431   21.3646 C   0  0  0  0  0  0
  -26.0090  -29.4751   20.7209 C   0  0  0  0  0  0
  -27.2087  -28.7293   20.7152 C   0  0  0  0  0  0
  -26.0770  -26.9558   19.4900 C   0  0  0  0  0  0
  -24.8815  -27.6980   19.5022 C   0  0  0  0  0  0
  -23.6110  -29.8212   20.1673 C   0  0  0  0  0  0
  -25.4102  -36.3132   24.0354 C   0  0  1  0  0  0
  -20.5864  -28.3698   23.1379 C   0  0  2  0  0  0
  -20.6757  -26.9450   22.5466 C   0  0  0  0  0  0
  -19.5775  -26.6462   21.5190 C   0  0  0  0  0  0
  -18.1917  -26.7994   22.1514 C   0  0  0  0  0  0
  -19.1502  -28.8855   23.2944 C   0  0  0  0  0  0
  -18.9411  -30.1423   23.8992 C   0  0  0  0  0  0
  -17.6409  -30.6564   24.0620 C   0  0  0  0  0  0
  -25.9026  -34.9488   23.5162 C   0  0  0  0  0  0
  -16.5323  -29.9096   23.6318 C   0  0  0  0  0  0
  -16.7259  -28.6529   23.0309 C   0  0  0  0  0  0
  -26.4458  -31.6614   25.0745 C   0  0  0  0  0  0
  -25.3751  -31.3675   26.1508 C   0  0  0  0  0  0
  -27.0292  -30.3070   24.6091 C   0  0  0  0  0  0
  -27.6056  -32.4320   25.7489 C   0  0  0  0  0  0
  -27.5581  -37.1815   24.8471 C   0  0  0  0  0  0
  -21.4120  -29.3103   22.3817 N   0  0  0  0  0  0
  -26.4290  -37.3808   23.9425 N   0  0  0  0  0  0
  -24.6636  -31.0808   22.1020 N   0  0  0  0  0  0
  -23.4174  -28.8193   23.3025 O   0  0  0  0  0  0
  -28.4098  -26.7280   20.0542 O   0  0  0  0  0  0
  -26.5578  -34.8926   22.4722 O   0  0  0  0  0  0
  -23.5313  -32.1434   23.7551 O   0  0  0  0  0  0
  -28.4558  -18.5469   18.5843 C   0  0  0  0  0  0
  -28.0681  -18.9703   19.8594 C   0  0  0  0  0  0
  -29.1523  -17.3420   18.4330 C   0  0  0  0  0  0
  -29.0511  -16.9515   20.8343 C   0  0  0  0  0  0
  -28.3629  -18.1842   20.9949 C   0  0  0  0  0  0
  -29.4853  -16.5239   19.5491 C   0  0  0  0  0  0
  -27.1591  -22.2327   21.6665 C   0  0  0  0  0  0
  -31.0985  -15.3411   18.0879 C   0  0  0  0  0  0
  -27.9683  -18.6472   22.3950 C   0  0  0  0  0  0
  -27.0552  -19.8975   22.4990 C   0  0  0  0  0  0
  -27.5805  -24.5086   20.8173 C   0  0  0  0  0  0
  -28.5620  -25.6847   21.0252 C   0  0  0  0  0  0
  -27.7508  -21.1514   22.1869 N   0  0  0  0  0  0
  -27.9877  -23.2676   21.4843 N   0  0  0  0  0  0
  -30.2819  -15.3402   19.3272 N   0  0  0  0  0  0
  -25.9690  -22.2702   21.3629 O   0  0  0  0  0  0
  -31.4558  -12.3290   19.1093 H   0  0  0  0  0  0
  -30.3145  -11.2882   19.9289 H   0  0  0  0  0  0
  -29.6824  -11.5109   17.5227 H   0  0  0  0  0  0
  -29.6727  -13.2329   17.6188 H   0  0  0  0  0  0
  -27.7493  -11.2733   18.8465 H   0  0  0  0  0  0
  -27.3671  -12.5868   17.7680 H   0  0  0  0  0  0
  -27.6560  -14.2383   19.4633 H   0  0  0  0  0  0
  -28.6891  -12.1392   21.4324 H   0  0  0  0  0  0
  -28.5267  -13.8612   21.7255 H   0  0  0  0  0  0
  -25.2775   -9.5702   22.4751 H   0  0  0  0  0  0
  -24.0026   -7.4649   22.7488 H   0  0  0  0  0  0
  -21.0842   -8.8823   19.8956 H   0  0  0  0  0  0
  -22.3737  -10.9708   19.6170 H   0  0  0  0  0  0
  -21.2042   -7.6168   23.9729 H   0  0  0  0  0  0
  -21.1466   -6.0533   25.9076 H   0  0  0  0  0  0
  -22.0602   -2.7623   23.2840 H   0  0  0  0  0  0
  -22.4160  -11.9903   22.4757 H   0  0  0  0  0  0
  -21.1161  -13.1274   22.2599 H   0  0  0  0  0  0
  -24.6803  -15.8600   20.5395 H   0  0  0  0  0  0
  -26.3029  -15.6331   20.1242 H   0  0  0  0  0  0
  -26.7103  -32.5588   23.1222 H   0  0  0  0  0  0
  -25.0050  -33.9814   25.0524 H   0  0  0  0  0  0
  -22.6875  -31.3096   21.4104 H   0  0  0  0  0  0
  -23.3745  -35.9642   23.3316 H   0  0  0  0  0  0
  -24.3575  -36.8915   22.2058 H   0  0  0  0  0  0
  -23.7212  -37.6522   23.6635 H   0  0  0  0  0  0
  -26.0364  -31.6068   20.5931 H   0  0  0  0  0  0
  -26.8147  -30.9021   21.9813 H   0  0  0  0  0  0
  -28.1051  -29.1307   21.1677 H   0  0  0  0  0  0
  -26.0939  -25.9995   18.9864 H   0  0  0  0  0  0
  -23.9988  -27.3006   19.0204 H   0  0  0  0  0  0
  -23.7137  -30.5927   19.4043 H   0  0  0  0  0  0
  -22.7371  -29.2353   19.8777 H   0  0  0  0  0  0
  -25.1270  -36.2019   25.0839 H   0  0  0  0  0  0
  -20.9962  -28.3252   24.1495 H   0  0  0  0  0  0
  -20.5596  -26.2312   23.3629 H   0  0  0  0  0  0
  -21.6651  -26.7480   22.1317 H   0  0  0  0  0  0
  -19.6959  -25.6403   21.1168 H   0  0  0  0  0  0
  -19.6762  -27.3323   20.6778 H   0  0  0  0  0  0
  -17.4234  -26.6885   21.3855 H   0  0  0  0  0  0
  -18.0187  -26.0067   22.8812 H   0  0  0  0  0  0
  -19.7871  -30.7210   24.2477 H   0  0  0  0  0  0
  -17.4939  -31.6216   24.5301 H   0  0  0  0  0  0
  -15.5313  -30.2993   23.7588 H   0  0  0  0  0  0
  -15.8658  -28.0860   22.6995 H   0  0  0  0  0  0
  -24.5932  -30.7016   25.7843 H   0  0  0  0  0  0
  -24.8921  -32.2799   26.5009 H   0  0  0  0  0  0
  -25.8130  -30.8814   27.0242 H   0  0  0  0  0  0
  -26.2825  -29.6840   24.1161 H   0  0  0  0  0  0
  -27.4101  -29.7300   25.4533 H   0  0  0  0  0  0
  -27.8640  -30.4419   23.9217 H   0  0  0  0  0  0
  -27.2707  -33.3615   26.2110 H   0  0  0  0  0  0
  -28.3827  -32.6907   25.0281 H   0  0  0  0  0  0
  -28.0771  -31.8426   26.5363 H   0  0  0  0  0  0
  -28.2618  -38.0100   24.7521 H   0  0  0  0  0  0
  -28.1066  -36.2636   24.6292 H   0  0  0  0  0  0
  -27.2307  -37.1460   25.8879 H   0  0  0  0  0  0
  -20.9254  -29.8944   21.7168 H   0  0  0  0  0  0
  -26.0196  -38.2896   24.1413 H   0  0  0  0  0  0
  -28.2384  -19.1610   17.7206 H   0  0  0  0  0  0
  -27.5517  -19.9146   19.9320 H   0  0  0  0  0  0
  -29.4408  -17.0951   17.4230 H   0  0  0  0  0  0
  -29.2760  -16.3749   21.7222 H   0  0  0  0  0  0
  -30.4765  -15.2525   17.1983 H   0  0  0  0  0  0
  -31.8149  -14.5187   18.0201 H   0  0  0  0  0  0
  -31.6768  -16.2609   18.0004 H   0  0  0  0  0  0
  -28.8797  -18.7982   22.9726 H   0  0  0  0  0  0
  -27.4545  -17.8154   22.8715 H   0  0  0  0  0  0
  -26.6799  -19.9851   23.5189 H   0  0  0  0  0  0
  -26.1725  -19.7557   21.8733 H   0  0  0  0  0  0
  -27.5023  -24.2894   19.7522 H   0  0  0  0  0  0
  -26.5885  -24.8029   21.1667 H   0  0  0  0  0  0
  -29.5887  -25.3247   20.9386 H   0  0  0  0  0  0
  -28.4640  -26.0947   22.0320 H   0  0  0  0  0  0
  -28.7418  -21.1859   22.3789 H   0  0  0  0  0  0
  -28.9578  -23.1762   21.7519 H   0  0  0  0  0  0
  1 25  1  0  0  0
  1 30  2  0  0  0
  1 85  1  0  0  0
  2  3  1  0  0  0
  2 25  1  0  0  0
  2 87  1  0  0  0
  2 88  1  0  0  0
  3  4  1  0  0  0
  3 89  1  0  0  0
  3 90  1  0  0  0
  4  5  1  0  0  0
  4 91  1  0  0  0
  4 92  1  0  0  0
  5  6  1  0  0  0
  5 26  1  0  0  0
  5 93  1  0  0  0
  6 25  1  0  0  0
  6 94  1  0  0  0
  6 95  1  0  0  0
  7  8  2  0  0  0
  7 26  1  0  0  0
  7 29  1  0  0  0
  8  9  1  0  0  0
  8 22  1  0  0  0
  9 10  1  0  0  0
  9 27  2  0  0  0
 10 11  2  0  0  0
 10 15  1  0  0  0
 11 12  1  0  0  0
 11 96  1  0  0  0
 12 13  2  0  0  0
 12 97  1  0  0  0
 13 14  1  0  0  0
 13 31  1  0  0  0
 14 15  2  0  0  0
 14 98  1  0  0  0
 15 99  1  0  0  0
 16 17  2  0  0  0
 16 21  1  0  0  0
 16 31  1  0  0  0
 17 18  1  0  0  0
 17100  1  0  0  0
 18 19  2  0  0  0
 18101  1  0  0  0
 19 20  1  0  0  0
 19 24  1  0  0  0
 20 21  2  0  0  0
 20102  1  0  0  0
 21 23  1  0  0  0
 22 28  1  0  0  0
 22 32  2  0  0  0
 26 27  1  0  0  0
 28103  1  0  0  0
 28104  1  0  0  0
 29105  1  0  0  0
 29106  1  0  0  0
 33 34  1  0  0  0
 33 66  1  0  0  0
 33 70  2  0  0  0
 34 36  1  0  0  0
 34 59  1  0  0  0
 34107  1  0  0  0
 35 44  2  0  0  0
 35 45  1  0  0  0
 35 68  1  0  0  0
 36 56  1  0  0  0
 36108  1  0  0  0
 37 39  1  0  0  0
 37 47  1  0  0  0
 37 66  1  0  0  0
 37109  1  0  0  0
 38 43  2  0  0  0
 38 46  1  0  0  0
 38 47  1  0  0  0
 39 64  1  0  0  0
 39 67  2  0  0  0
 40 52  1  0  0  0
 40 53  2  0  0  0
 40 58  1  0  0  0
 41110  1  0  0  0
 41111  1  0  0  0
 41112  1  0  0  0
 41 48  1  0  0  0
 42 43  1  0  0  0
 42 66  1  0  0  0
 42113  1  0  0  0
 42114  1  0  0  0
 43 44  1  0  0  0
 44115  1  0  0  0
 45 46  2  0  0  0
 45116  1  0  0  0
 46117  1  0  0  0
 47118  1  0  0  0
 47119  1  0  0  0
 48 56  1  0  0  0
 48 65  1  0  0  0
 48120  1  0  0  0
 49 50  1  0  0  0
 49 53  1  0  0  0
 49 64  1  0  0  0
 49121  1  0  0  0
 50 51  1  0  0  0
 50122  1  0  0  0
 50123  1  0  0  0
 51 52  1  0  0  0
 51124  1  0  0  0
 51125  1  0  0  0
 52126  1  0  0  0
 52127  1  0  0  0
 53 54  1  0  0  0
 54 55  2  0  0  0
 54128  1  0  0  0
 55 57  1  0  0  0
 55129  1  0  0  0
 56 69  2  0  0  0
 57 58  2  0  0  0
 57130  1  0  0  0
 58131  1  0  0  0
 59 60  1  0  0  0
 59 61  1  0  0  0
 59 62  1  0  0  0
 60132  1  0  0  0
 60133  1  0  0  0
 60134  1  0  0  0
 61135  1  0  0  0
 61136  1  0  0  0
 61137  1  0  0  0
 62138  1  0  0  0
 62139  1  0  0  0
 62140  1  0  0  0
 63 65  1  0  0  0
 63141  1  0  0  0
 63142  1  0  0  0
 63143  1  0  0  0
 64144  1  0  0  0
 65145  1  0  0  0
 68 82  1  0  0  0
 71 72  2  0  0  0
 71 73  1  0  0  0
 71146  1  0  0  0
 72 75  1  0  0  0
 72147  1  0  0  0
 73 76  2  0  0  0
 73148  1  0  0  0
 74 75  2  0  0  0
 74 76  1  0  0  0
 74149  1  0  0  0
 75 79  1  0  0  0
 76 85  1  0  0  0
 77 83  1  0  0  0
 77 84  1  0  0  0
 77 86  2  0  0  0
 78 85  1  0  0  0
 78150  1  0  0  0
 78151  1  0  0  0
 78152  1  0  0  0
 79 80  1  0  0  0
 79153  1  0  0  0
 79154  1  0  0  0
 80 83  1  0  0  0
 80155  1  0  0  0
 80156  1  0  0  0
 81 82  1  0  0  0
 81 84  1  0  0  0
 81157  1  0  0  0
 81158  1  0  0  0
 82159  1  0  0  0
 82160  1  0  0  0
 83161  1  0  0  0
 84162  1  0  0  0
M  ISO  4   1 100  68 101  82 101  85 100
M  END
> <chiral flag>
0

> <version>
0

> <s_m_source_file>
/data/baiqing/PycharmProjects/Reinvent-master-3.2/result/LINK_invent/BTK/process_docking_weight1_custom_sum_contain_oxygen_bond_distance_aromatic_linkinvent_7_9_3/rearranged_h_0005.sdf

> <i_m_source_file_index>
22

> <r_mmod_Potential_Energy-OPLS-2005>
34.807559967041

> <r_mmod_Stretch_Energy-OPLS-2005>
40.7596549987793

> <r_mmod_Bend_Energy-OPLS-2005>
107.063034057617

> <r_mmod_Torsional_Energy-OPLS-2005>
331.667907714844

> <r_mmod_Improper_Torsional_Energy-OPLS-2005>
30.7873287200928

> <r_mmod_Van_der_Waal_Energy-OPLS-2005>
162.489929199219

> <r_mmod_Electrostatic_Energy-OPLS-2005>
-458.88330078125

> <r_mmod_Solvation_Energy-OPLS-2005>
-236.035980224609

> <b_mmod_Minimization_Converged-OPLS-2005>
0

> <r_mmod_RMS_Derivative-OPLS-2005>
4.89620876312256

$$$$
22
                    3D
 Structure written by MMmdl.
163171  0  0  1  0            999 V2000
  -30.7900  -14.3846   20.6981 C   0  0  0  0  0  0
  -30.4200  -12.3140   19.3982 C   0  0  0  0  0  0
  -29.4861  -12.5504   18.1965 C   0  0  0  0  0  0
  -28.0092  -12.4035   18.6091 C   0  0  0  0  0  0
  -27.6713  -13.2145   19.8870 C   0  0  2  0  0  0
  -28.7150  -12.9666   21.0008 C   0  0  0  0  0  0
  -25.2624  -13.8190   20.5677 C   0  0  0  0  0  0
  -24.1865  -13.0463   20.9165 C   0  0  0  0  0  0
  -24.6452  -11.6927   20.8752 C   0  0  0  0  0  0
  -23.9134  -10.4310   21.0420 C   0  0  0  0  0  0
  -24.3665   -9.4214   21.9192 C   0  0  0  0  0  0
  -23.6314   -8.2265   22.0776 C   0  0  0  0  0  0
  -22.4288   -8.0327   21.3578 C   0  0  0  0  0  0
  -21.9959   -9.0309   20.4674 C   0  0  0  0  0  0
  -22.7322  -10.2162   20.3049 C   0  0  0  0  0  0
  -21.6851   -6.0787   22.5334 C   0  0  0  0  0  0
  -21.4017   -6.5687   23.8277 C   0  0  0  0  0  0
  -21.3635   -5.6838   24.9241 C   0  0  0  0  0  0
  -21.6020   -4.3099   24.7287 C   0  0  0  0  0  0
  -21.8800   -3.8192   23.4409 C   0  0  0  0  0  0
  -21.9184   -4.7008   22.3465 C   0  0  0  0  0  0
  -22.7879  -13.5248   21.1837 C   0  0  0  0  0  0
  -22.1634   -4.2181   21.1040 F   0  0  0  0  0  0
  -21.5594   -3.4578   25.7796 F   0  0  0  0  0  0
  -30.0585  -13.2593   20.4675 N   0  0  0  0  0  0
  -26.3104  -12.9385   20.3454 N   0  0  0  0  0  0
  -25.9389  -11.6535   20.5798 N   0  0  0  0  0  0
  -22.0509  -12.8248   22.0378 N   0  0  0  0  0  0
  -25.4394  -15.1915   20.4059 N   0  0  0  0  0  0
  -31.7924  -14.6692   20.0339 O   0  0  0  0  0  0
  -21.6629   -6.8933   21.4291 O   0  0  0  0  0  0
  -22.3579  -14.5589   20.6749 O   0  0  0  0  0  0
  -24.6105  -31.8711   23.2105 C   0  0  0  0  0  0
  -25.9022  -32.4836   23.8384 C   0  0  1  0  0  0
  -27.2383  -27.4659   20.0742 C   0  0  0  0  0  0
  -25.5905  -33.8637   24.2305 N   0  0  0  0  0  0
  -23.3946  -30.4942   21.5513 C   0  0  2  0  0  0
  -24.8390  -28.9585   20.1198 C   0  0  0  0  0  0
  -22.7368  -29.4682   22.5002 C   0  0  0  0  0  0
  -18.0265  -28.1393   22.8478 C   0  0  0  0  0  0
  -24.1502  -36.7317   23.2627 C   0  0  0  0  0  0
  -25.9200  -30.8420   21.3594 C   0  0  0  0  0  0
  -25.9966  -29.4764   20.7118 C   0  0  0  0  0  0
  -27.1946  -28.7328   20.6935 C   0  0  0  0  0  0
  -26.0562  -26.9508   19.4892 C   0  0  0  0  0  0
  -24.8600  -27.6914   19.5144 C   0  0  0  0  0  0
  -23.5997  -29.8209   20.1679 C   0  0  0  0  0  0
  -25.4125  -36.3114   24.0321 C   0  0  1  0  0  0
  -20.5845  -28.3670   23.1333 C   0  0  2  0  0  0
  -20.6755  -26.9406   22.5433 C   0  0  0  0  0  0
  -19.5753  -26.6398   21.5210 C   0  0  0  0  0  0
  -18.1920  -26.7948   22.1593 C   0  0  0  0  0  0
  -19.1511  -28.8846   23.2908 C   0  0  0  0  0  0
  -18.9443  -30.1450   23.8918 C   0  0  0  0  0  0
  -17.6451  -30.6594   24.0574 C   0  0  0  0  0  0
  -25.9050  -34.9485   23.5108 C   0  0  0  0  0  0
  -16.5339  -29.9097   23.6336 C   0  0  0  0  0  0
  -16.7255  -28.6522   23.0334 C   0  0  0  0  0  0
  -26.4464  -31.6617   25.0704 C   0  0  0  0  0  0
  -25.3731  -31.3740   26.1453 C   0  0  0  0  0  0
  -27.0270  -30.3054   24.6067 C   0  0  0  0  0  0
  -27.6050  -32.4333   25.7457 C   0  0  0  0  0  0
  -27.5600  -37.1802   24.8449 C   0  0  0  0  0  0
  -21.4105  -29.3035   22.3736 N   0  0  0  0  0  0
  -26.4306  -37.3802   23.9406 N   0  0  0  0  0  0
  -24.6598  -31.0831   22.0995 N   0  0  0  0  0  0
  -23.4159  -28.8229   23.3035 O   0  0  0  0  0  0
  -28.4437  -26.7998   20.0636 O   0  0  0  0  0  0
  -26.5601  -34.8932   22.4661 O   0  0  0  0  0  0
  -23.5308  -32.1458   23.7520 O   0  0  0  0  0  0
  -31.6156  -17.7118   24.1573 C   0  0  0  0  0  0
  -31.0657  -16.5321   23.6231 C   0  0  0  0  0  0
  -32.0993  -18.7148   23.2966 C   0  0  0  0  0  0
  -31.5003  -17.3555   21.3670 C   0  0  0  0  0  0
  -31.0067  -16.3375   22.2266 C   0  0  0  0  0  0
  -32.0557  -18.5491   21.8977 C   0  0  0  0  0  0
  -31.5063  -22.9951   19.2054 C   0  0  0  0  0  0
  -30.0801  -23.5544   19.0797 C   0  0  0  0  0  0
  -31.5322  -21.4709   19.0061 C   0  0  0  0  0  0
  -29.9396  -24.9851   19.6159 C   0  0  0  0  0  0
  -32.9301  -20.8458   19.1602 C   0  0  0  0  0  0
  -28.5082  -25.5122   19.4662 C   0  0  0  0  0  0
  -32.8760  -19.4379   19.7765 C   0  0  0  0  0  0
  -30.3999  -15.1378   21.7419 N   0  0  0  0  0  0
  -32.5370  -19.6066   21.1531 O   0  0  0  0  0  0
  -31.4643  -12.4134   19.0912 H   0  0  0  0  0  0
  -30.3196  -11.2900   19.7602 H   0  0  0  0  0  0
  -29.7240  -11.8537   17.3913 H   0  0  0  0  0  0
  -29.6523  -13.5523   17.7960 H   0  0  0  0  0  0
  -27.8056  -11.3450   18.7700 H   0  0  0  0  0  0
  -27.3576  -12.7178   17.7927 H   0  0  0  0  0  0
  -27.7271  -14.2677   19.6136 H   0  0  0  0  0  0
  -28.6788  -11.9236   21.3207 H   0  0  0  0  0  0
  -28.4672  -13.5549   21.8840 H   0  0  0  0  0  0
  -25.2816   -9.5673   22.4764 H   0  0  0  0  0  0
  -24.0023   -7.4649   22.7494 H   0  0  0  0  0  0
  -21.0890   -8.8859   19.8973 H   0  0  0  0  0  0
  -22.3829  -10.9702   19.6131 H   0  0  0  0  0  0
  -21.2003   -7.6197   23.9817 H   0  0  0  0  0  0
  -21.1432   -6.0557   25.9148 H   0  0  0  0  0  0
  -22.0570   -2.7656   23.2930 H   0  0  0  0  0  0
  -22.4092  -11.9879   22.4741 H   0  0  0  0  0  0
  -21.1150  -13.1332   22.2607 H   0  0  0  0  0  0
  -24.6848  -15.8630   20.5013 H   0  0  0  0  0  0
  -26.3172  -15.6229   20.1424 H   0  0  0  0  0  0
  -26.7081  -32.5550   23.1140 H   0  0  0  0  0  0
  -25.0095  -33.9824   25.0473 H   0  0  0  0  0  0
  -22.6823  -31.3097   21.4103 H   0  0  0  0  0  0
  -23.3776  -35.9639   23.3279 H   0  0  0  0  0  0
  -24.3593  -36.8950   22.2045 H   0  0  0  0  0  0
  -23.7253  -37.6512   23.6658 H   0  0  0  0  0  0
  -26.0242  -31.6063   20.5872 H   0  0  0  0  0  0
  -26.8114  -30.8994   21.9728 H   0  0  0  0  0  0
  -28.0912  -29.1315   21.1469 H   0  0  0  0  0  0
  -26.0341  -25.9874   19.0012 H   0  0  0  0  0  0
  -23.9649  -27.2850   19.0632 H   0  0  0  0  0  0
  -23.7003  -30.5886   19.4000 H   0  0  0  0  0  0
  -22.7262  -29.2326   19.8807 H   0  0  0  0  0  0
  -25.1313  -36.1963   25.0816 H   0  0  0  0  0  0
  -20.9942  -28.3244   24.1453 H   0  0  0  0  0  0
  -20.5649  -26.2276   23.3618 H   0  0  0  0  0  0
  -21.6635  -26.7461   22.1237 H   0  0  0  0  0  0
  -19.6919  -25.6314   21.1235 H   0  0  0  0  0  0
  -19.6728  -27.3212   20.6750 H   0  0  0  0  0  0
  -17.4211  -26.6718   21.3969 H   0  0  0  0  0  0
  -18.0294  -26.0078   22.8973 H   0  0  0  0  0  0
  -19.7923  -30.7253   24.2293 H   0  0  0  0  0  0
  -17.5013  -31.6277   24.5178 H   0  0  0  0  0  0
  -15.5335  -30.3006   23.7677 H   0  0  0  0  0  0
  -15.8647  -28.0866   22.7020 H   0  0  0  0  0  0
  -24.5954  -30.7013   25.7818 H   0  0  0  0  0  0
  -24.8859  -32.2897   26.4813 H   0  0  0  0  0  0
  -25.8096  -30.9009   27.0256 H   0  0  0  0  0  0
  -26.2794  -29.6830   24.1133 H   0  0  0  0  0  0
  -27.4045  -29.7280   25.4517 H   0  0  0  0  0  0
  -27.8634  -30.4356   23.9192 H   0  0  0  0  0  0
  -27.2669  -33.3610   26.2086 H   0  0  0  0  0  0
  -28.3832  -32.6934   25.0270 H   0  0  0  0  0  0
  -28.0752  -31.8432   26.5330 H   0  0  0  0  0  0
  -28.2608  -38.0110   24.7524 H   0  0  0  0  0  0
  -28.1107  -36.2648   24.6235 H   0  0  0  0  0  0
  -27.2321  -37.1405   25.8849 H   0  0  0  0  0  0
  -20.9253  -29.8736   21.6948 H   0  0  0  0  0  0
  -26.0191  -38.2872   24.1437 H   0  0  0  0  0  0
  -31.6671  -17.8510   25.2284 H   0  0  0  0  0  0
  -30.7013  -15.7695   24.3002 H   0  0  0  0  0  0
  -32.5102  -19.6233   23.7172 H   0  0  0  0  0  0
  -31.4212  -17.2166   20.3011 H   0  0  0  0  0  0
  -31.9047  -23.2254   20.1949 H   0  0  0  0  0  0
  -32.1636  -23.4937   18.4895 H   0  0  0  0  0  0
  -29.3845  -22.9136   19.6242 H   0  0  0  0  0  0
  -29.7651  -23.5198   18.0357 H   0  0  0  0  0  0
  -31.1208  -21.2041   18.0314 H   0  0  0  0  0  0
  -30.8607  -21.0273   19.7419 H   0  0  0  0  0  0
  -30.6326  -25.6491   19.0975 H   0  0  0  0  0  0
  -30.2171  -25.0074   20.6709 H   0  0  0  0  0  0
  -33.5642  -21.4792   19.7817 H   0  0  0  0  0  0
  -33.4135  -20.8053   18.1831 H   0  0  0  0  0  0
  -27.8118  -24.8313   19.9583 H   0  0  0  0  0  0
  -28.2425  -25.5667   18.4083 H   0  0  0  0  0  0
  -33.8543  -18.9608   19.7044 H   0  0  0  0  0  0
  -32.1671  -18.8340   19.2142 H   0  0  0  0  0  0
  -29.6453  -14.7593   22.2938 H   0  0  0  0  0  0
  1 25  1  0  0  0
  1 30  2  0  0  0
  1 84  1  0  0  0
  2  3  1  0  0  0
  2 25  1  0  0  0
  2 86  1  0  0  0
  2 87  1  0  0  0
  3  4  1  0  0  0
  3 88  1  0  0  0
  3 89  1  0  0  0
  4  5  1  0  0  0
  4 90  1  0  0  0
  4 91  1  0  0  0
  5  6  1  0  0  0
  5 26  1  0  0  0
  5 92  1  0  0  0
  6 25  1  0  0  0
  6 93  1  0  0  0
  6 94  1  0  0  0
  7  8  2  0  0  0
  7 26  1  0  0  0
  7 29  1  0  0  0
  8  9  1  0  0  0
  8 22  1  0  0  0
  9 10  1  0  0  0
  9 27  2  0  0  0
 10 11  2  0  0  0
 10 15  1  0  0  0
 11 12  1  0  0  0
 11 95  1  0  0  0
 12 13  2  0  0  0
 12 96  1  0  0  0
 13 14  1  0  0  0
 13 31  1  0  0  0
 14 15  2  0  0  0
 14 97  1  0  0  0
 15 98  1  0  0  0
 16 17  2  0  0  0
 16 21  1  0  0  0
 16 31  1  0  0  0
 17 18  1  0  0  0
 17 99  1  0  0  0
 18 19  2  0  0  0
 18100  1  0  0  0
 19 20  1  0  0  0
 19 24  1  0  0  0
 20 21  2  0  0  0
 20101  1  0  0  0
 21 23  1  0  0  0
 22 28  1  0  0  0
 22 32  2  0  0  0
 26 27  1  0  0  0
 28102  1  0  0  0
 28103  1  0  0  0
 29104  1  0  0  0
 29105  1  0  0  0
 33 34  1  0  0  0
 33 66  1  0  0  0
 33 70  2  0  0  0
 34 36  1  0  0  0
 34 59  1  0  0  0
 34106  1  0  0  0
 35 44  2  0  0  0
 35 45  1  0  0  0
 35 68  1  0  0  0
 36 56  1  0  0  0
 36107  1  0  0  0
 37 39  1  0  0  0
 37 47  1  0  0  0
 37 66  1  0  0  0
 37108  1  0  0  0
 38 43  2  0  0  0
 38 46  1  0  0  0
 38 47  1  0  0  0
 39 64  1  0  0  0
 39 67  2  0  0  0
 40 52  1  0  0  0
 40 53  2  0  0  0
 40 58  1  0  0  0
 41109  1  0  0  0
 41110  1  0  0  0
 41111  1  0  0  0
 41 48  1  0  0  0
 42 43  1  0  0  0
 42 66  1  0  0  0
 42112  1  0  0  0
 42113  1  0  0  0
 43 44  1  0  0  0
 44114  1  0  0  0
 45 46  2  0  0  0
 45115  1  0  0  0
 46116  1  0  0  0
 47117  1  0  0  0
 47118  1  0  0  0
 48 56  1  0  0  0
 48 65  1  0  0  0
 48119  1  0  0  0
 49 50  1  0  0  0
 49 53  1  0  0  0
 49 64  1  0  0  0
 49120  1  0  0  0
 50 51  1  0  0  0
 50121  1  0  0  0
 50122  1  0  0  0
 51 52  1  0  0  0
 51123  1  0  0  0
 51124  1  0  0  0
 52125  1  0  0  0
 52126  1  0  0  0
 53 54  1  0  0  0
 54 55  2  0  0  0
 54127  1  0  0  0
 55 57  1  0  0  0
 55128  1  0  0  0
 56 69  2  0  0  0
 57 58  2  0  0  0
 57129  1  0  0  0
 58130  1  0  0  0
 59 60  1  0  0  0
 59 61  1  0  0  0
 59 62  1  0  0  0
 60131  1  0  0  0
 60132  1  0  0  0
 60133  1  0  0  0
 61134  1  0  0  0
 61135  1  0  0  0
 61136  1  0  0  0
 62137  1  0  0  0
 62138  1  0  0  0
 62139  1  0  0  0
 63 65  1  0  0  0
 63140  1  0  0  0
 63141  1  0  0  0
 63142  1  0  0  0
 64143  1  0  0  0
 65144  1  0  0  0
 68 82  1  0  0  0
 71 72  2  0  0  0
 71 73  1  0  0  0
 71145  1  0  0  0
 72 75  1  0  0  0
 72146  1  0  0  0
 73 76  2  0  0  0
 73147  1  0  0  0
 74 75  2  0  0  0
 74 76  1  0  0  0
 74148  1  0  0  0
 75 84  1  0  0  0
 76 85  1  0  0  0
 77 78  1  0  0  0
 77 79  1  0  0  0
 77149  1  0  0  0
 77150  1  0  0  0
 78 80  1  0  0  0
 78151  1  0  0  0
 78152  1  0  0  0
 79 81  1  0  0  0
 79153  1  0  0  0
 79154  1  0  0  0
 80 82  1  0  0  0
 80155  1  0  0  0
 80156  1  0  0  0
 81 83  1  0  0  0
 81157  1  0  0  0
 81158  1  0  0  0
 82159  1  0  0  0
 82160  1  0  0  0
 83 85  1  0  0  0
 83161  1  0  0  0
 83162  1  0  0  0
 84163  1  0  0  0
M  ISO  4   1 100  68 101  82 101  84 100
M  END
> <chiral flag>
0

> <version>
0

> <s_m_source_file>
/data/baiqing/PycharmProjects/Reinvent-master-3.2/result/LINK_invent/BTK/process_docking_weight1_custom_sum_contain_oxygen_bond_distance_aromatic_linkinvent_7_9_3/rearranged_h_0005.sdf

> <i_m_source_file_index>
23

> <r_mmod_Potential_Energy-OPLS-2005>
-27.0656814575195

> <r_mmod_Stretch_Energy-OPLS-2005>
34.2996292114258

> <r_mmod_Bend_Energy-OPLS-2005>
107.41625213623

> <r_mmod_Torsional_Energy-OPLS-2005>
215.505645751953

> <r_mmod_Improper_Torsional_Energy-OPLS-2005>
2.13263487815857

> <r_mmod_Van_der_Waal_Energy-OPLS-2005>
160.311874389648

> <r_mmod_Electrostatic_Energy-OPLS-2005>
-350.037384033203

> <r_mmod_Solvation_Energy-OPLS-2005>
-205.154434204102

> <b_mmod_Minimization_Converged-OPLS-2005>
0

> <r_mmod_RMS_Derivative-OPLS-2005>
3.02061295509338

$$$$
23
                    3D
 Structure written by MMmdl.
148156  0  0  1  0            999 V2000
  -30.5066  -14.9122   20.4364 C   0  0  0  0  0  0
  -30.4572  -12.5594   19.4935 C   0  0  0  0  0  0
  -29.5282  -12.5199   18.2554 C   0  0  0  0  0  0
  -28.0576  -12.3117   18.6710 C   0  0  0  0  0  0
  -27.6394  -13.2328   19.8459 C   0  0  2  0  0  0
  -28.6827  -13.2097   20.9842 C   0  0  0  0  0  0
  -25.2503  -13.8179   20.5680 C   0  0  0  0  0  0
  -24.1804  -13.0432   20.9234 C   0  0  0  0  0  0
  -24.6391  -11.6909   20.8755 C   0  0  0  0  0  0
  -23.9061  -10.4290   21.0411 C   0  0  0  0  0  0
  -24.3611   -9.4205   21.9186 C   0  0  0  0  0  0
  -23.6288   -8.2238   22.0750 C   0  0  0  0  0  0
  -22.4271   -8.0275   21.3541 C   0  0  0  0  0  0
  -21.9904   -9.0252   20.4648 C   0  0  0  0  0  0
  -22.7230  -10.2135   20.3062 C   0  0  0  0  0  0
  -21.6854   -6.0729   22.5277 C   0  0  0  0  0  0
  -21.4013   -6.5632   23.8208 C   0  0  0  0  0  0
  -21.3661   -5.6786   24.9171 C   0  0  0  0  0  0
  -21.6045   -4.3047   24.7224 C   0  0  0  0  0  0
  -21.8820   -3.8140   23.4344 C   0  0  0  0  0  0
  -21.9192   -4.6957   22.3400 C   0  0  0  0  0  0
  -22.7825  -13.5222   21.1889 C   0  0  0  0  0  0
  -22.1662   -4.2144   21.0978 F   0  0  0  0  0  0
  -21.5632   -3.4531   25.7736 F   0  0  0  0  0  0
  -29.9671  -13.6300   20.4031 N   0  0  0  0  0  0
  -26.2923  -12.9383   20.3242 N   0  0  0  0  0  0
  -25.9319  -11.6532   20.5738 N   0  0  0  0  0  0
  -22.0468  -12.8219   22.0447 N   0  0  0  0  0  0
  -25.4177  -15.1897   20.4031 N   0  0  0  0  0  0
  -31.6939  -15.0568   20.1209 O   0  0  0  0  0  0
  -21.6638   -6.8871   21.4237 O   0  0  0  0  0  0
  -22.3514  -14.5527   20.6726 O   0  0  0  0  0  0
  -24.6416  -31.8453   23.1901 C   0  0  0  0  0  0
  -25.9200  -32.4701   23.8277 C   0  0  1  0  0  0
  -27.2194  -27.1518   20.1453 C   0  0  0  0  0  0
  -25.5965  -33.8506   24.2202 N   0  0  0  0  0  0
  -23.4439  -30.4666   21.5351 C   0  0  2  0  0  0
  -24.8937  -28.8974   20.1099 C   0  0  0  0  0  0
  -22.7560  -29.4552   22.4860 C   0  0  0  0  0  0
  -18.0312  -28.1393   22.8469 C   0  0  0  0  0  0
  -24.1494  -36.7247   23.2641 C   0  0  0  0  0  0
  -25.9996  -30.7244   21.3866 C   0  0  0  0  0  0
  -26.0718  -29.3381   20.7263 C   0  0  0  0  0  0
  -27.2360  -28.4820   20.7257 C   0  0  0  0  0  0
  -26.0120  -26.8101   19.4939 C   0  0  0  0  0  0
  -24.8768  -27.6464   19.4781 C   0  0  0  0  0  0
  -23.6696  -29.7981   20.1537 C   0  0  0  0  0  0
  -25.4127  -36.3034   24.0317 C   0  0  1  0  0  0
  -20.5919  -28.3710   23.1237 C   0  0  2  0  0  0
  -20.6792  -26.9413   22.5410 C   0  0  0  0  0  0
  -19.5774  -26.6379   21.5205 C   0  0  0  0  0  0
  -18.1953  -26.7936   22.1610 C   0  0  0  0  0  0
  -19.1566  -28.8871   23.2846 C   0  0  0  0  0  0
  -18.9483  -30.1470   23.8866 C   0  0  0  0  0  0
  -17.6479  -30.6586   24.0558 C   0  0  0  0  0  0
  -25.9073  -34.9409   23.5067 C   0  0  0  0  0  0
  -16.5370  -29.9077   23.6341 C   0  0  0  0  0  0
  -16.7296  -28.6502   23.0351 C   0  0  0  0  0  0
  -26.4529  -31.6562   25.0707 C   0  0  0  0  0  0
  -25.3724  -31.3768   26.1419 C   0  0  0  0  0  0
  -27.0377  -30.2956   24.6276 C   0  0  0  0  0  0
  -27.6086  -32.4308   25.7471 C   0  0  0  0  0  0
  -27.5583  -37.1776   24.8464 C   0  0  0  0  0  0
  -21.4255  -29.3039   22.3609 N   0  0  0  0  0  0
  -26.4289  -37.3749   23.9414 N   0  0  0  0  0  0
  -24.7147  -31.0329   22.0924 N   0  0  0  0  0  0
  -23.4217  -28.8100   23.2999 O   0  0  0  0  0  0
  -28.2775  -26.1735   20.2098 O   0  0  0  0  0  0
  -26.5645  -34.8903   22.4634 O   0  0  0  0  0  0
  -23.5543  -32.1324   23.7138 O   0  0  0  0  0  0
  -28.2153  -18.0953   20.7491 C   0  0  0  0  0  0
  -30.4833  -18.5413   20.2926 C   0  0  0  0  0  0
  -27.9193  -19.5039   20.6778 C   0  0  0  0  0  0
  -30.1796  -19.9799   20.2323 C   0  0  0  0  0  0
  -29.5053  -17.5105   20.5545 C   0  0  0  0  0  0
  -28.8633  -20.5436   20.4177 C   0  0  0  0  0  0
  -28.9684  -23.3056   20.2949 C   0  0  0  0  0  0
  -27.9754  -24.6526   20.0919 C   0  0  0  0  0  0
  -29.6169  -15.9865   20.6674 N   0  0  0  0  0  0
  -28.3409  -21.9105   20.3531 O   0  0  0  0  0  0
  -31.4885  -12.7346   19.1825 H   0  0  0  0  0  0
  -30.4604  -11.5956   20.0058 H   0  0  0  0  0  0
  -29.8405  -11.7242   17.5774 H   0  0  0  0  0  0
  -29.6216  -13.4520   17.6963 H   0  0  0  0  0  0
  -27.9473  -11.2684   18.9696 H   0  0  0  0  0  0
  -27.3947  -12.4547   17.8166 H   0  0  0  0  0  0
  -27.6179  -14.2430   19.4364 H   0  0  0  0  0  0
  -28.7602  -12.2129   21.4208 H   0  0  0  0  0  0
  -28.3848  -13.8728   21.7977 H   0  0  0  0  0  0
  -25.2756   -9.5682   22.4757 H   0  0  0  0  0  0
  -24.0001   -7.4627   22.7461 H   0  0  0  0  0  0
  -21.0838   -8.8770   19.8954 H   0  0  0  0  0  0
  -22.3684  -10.9672   19.6174 H   0  0  0  0  0  0
  -21.2003   -7.6140   23.9709 H   0  0  0  0  0  0
  -21.1487   -6.0516   25.9075 H   0  0  0  0  0  0
  -22.0599   -2.7601   23.2843 H   0  0  0  0  0  0
  -22.4081  -11.9886   22.4849 H   0  0  0  0  0  0
  -21.1085  -13.1247   22.2656 H   0  0  0  0  0  0
  -24.6341  -15.8285   20.4849 H   0  0  0  0  0  0
  -26.2245  -15.6094   19.9608 H   0  0  0  0  0  0
  -26.7255  -32.5312   23.0996 H   0  0  0  0  0  0
  -25.0126  -33.9625   25.0360 H   0  0  0  0  0  0
  -22.7454  -31.2921   21.3833 H   0  0  0  0  0  0
  -23.3765  -35.9568   23.3292 H   0  0  0  0  0  0
  -24.3585  -36.8891   22.2059 H   0  0  0  0  0  0
  -23.7234  -37.6436   23.6677 H   0  0  0  0  0  0
  -26.1556  -31.4817   20.6172 H   0  0  0  0  0  0
  -26.8696  -30.7724   22.0293 H   0  0  0  0  0  0
  -28.1328  -28.8166   21.2280 H   0  0  0  0  0  0
  -25.9048  -25.8561   19.0019 H   0  0  0  0  0  0
  -23.9779  -27.3044   18.9838 H   0  0  0  0  0  0
  -23.8045  -30.5736   19.3988 H   0  0  0  0  0  0
  -22.7847  -29.2399   19.8437 H   0  0  0  0  0  0
  -25.1317  -36.1861   25.0809 H   0  0  0  0  0  0
  -21.0016  -28.3300   24.1354 H   0  0  0  0  0  0
  -20.5666  -26.2323   23.3628 H   0  0  0  0  0  0
  -21.6663  -26.7413   22.1221 H   0  0  0  0  0  0
  -19.6932  -25.6284   21.1253 H   0  0  0  0  0  0
  -19.6722  -27.3173   20.6721 H   0  0  0  0  0  0
  -17.4228  -26.6678   21.4008 H   0  0  0  0  0  0
  -18.0350  -26.0083   22.9011 H   0  0  0  0  0  0
  -19.7958  -30.7296   24.2215 H   0  0  0  0  0  0
  -17.5033  -31.6263   24.5169 H   0  0  0  0  0  0
  -15.5368  -30.2966   23.7685 H   0  0  0  0  0  0
  -15.8700  -28.0816   22.7066 H   0  0  0  0  0  0
  -24.5925  -30.7071   25.7773 H   0  0  0  0  0  0
  -24.8874  -32.2948   26.4746 H   0  0  0  0  0  0
  -25.8030  -30.9039   27.0255 H   0  0  0  0  0  0
  -26.2979  -29.6681   24.1289 H   0  0  0  0  0  0
  -27.4002  -29.7261   25.4844 H   0  0  0  0  0  0
  -27.8892  -30.4194   23.9579 H   0  0  0  0  0  0
  -27.2718  -33.3642   26.1990 H   0  0  0  0  0  0
  -28.3920  -32.6807   25.0300 H   0  0  0  0  0  0
  -28.0715  -31.8451   26.5425 H   0  0  0  0  0  0
  -28.2603  -38.0072   24.7518 H   0  0  0  0  0  0
  -28.1082  -36.2608   24.6283 H   0  0  0  0  0  0
  -27.2305  -37.1418   25.8868 H   0  0  0  0  0  0
  -20.9454  -29.8756   21.6799 H   0  0  0  0  0  0
  -26.0160  -38.2816   24.1435 H   0  0  0  0  0  0
  -27.3841  -17.4389   20.9640 H   0  0  0  0  0  0
  -31.5080  -18.2375   20.1325 H   0  0  0  0  0  0
  -26.8912  -19.7983   20.8356 H   0  0  0  0  0  0
  -30.9941  -20.6580   20.0223 H   0  0  0  0  0  0
  -29.5285  -23.4334   21.2214 H   0  0  0  0  0  0
  -29.7148  -23.2995   19.5002 H   0  0  0  0  0  0
  -27.1411  -24.4904   20.7758 H   0  0  0  0  0  0
  -27.5573  -24.5134   19.0959 H   0  0  0  0  0  0
  -28.7281  -15.5826   20.9203 H   0  0  0  0  0  0
  1 25  1  0  0  0
  1 30  2  0  0  0
  1 79  1  0  0  0
  2  3  1  0  0  0
  2 25  1  0  0  0
  2 81  1  0  0  0
  2 82  1  0  0  0
  3  4  1  0  0  0
  3 83  1  0  0  0
  3 84  1  0  0  0
  4  5  1  0  0  0
  4 85  1  0  0  0
  4 86  1  0  0  0
  5  6  1  0  0  0
  5 26  1  0  0  0
  5 87  1  0  0  0
  6 25  1  0  0  0
  6 88  1  0  0  0
  6 89  1  0  0  0
  7  8  2  0  0  0
  7 26  1  0  0  0
  7 29  1  0  0  0
  8  9  1  0  0  0
  8 22  1  0  0  0
  9 10  1  0  0  0
  9 27  2  0  0  0
 10 11  2  0  0  0
 10 15  1  0  0  0
 11 12  1  0  0  0
 11 90  1  0  0  0
 12 13  2  0  0  0
 12 91  1  0  0  0
 13 14  1  0  0  0
 13 31  1  0  0  0
 14 15  2  0  0  0
 14 92  1  0  0  0
 15 93  1  0  0  0
 16 17  2  0  0  0
 16 21  1  0  0  0
 16 31  1  0  0  0
 17 18  1  0  0  0
 17 94  1  0  0  0
 18 19  2  0  0  0
 18 95  1  0  0  0
 19 20  1  0  0  0
 19 24  1  0  0  0
 20 21  2  0  0  0
 20 96  1  0  0  0
 21 23  1  0  0  0
 22 28  1  0  0  0
 22 32  2  0  0  0
 26 27  1  0  0  0
 28 97  1  0  0  0
 28 98  1  0  0  0
 29 99  1  0  0  0
 29100  1  0  0  0
 33 34  1  0  0  0
 33 66  1  0  0  0
 33 70  2  0  0  0
 34 36  1  0  0  0
 34 59  1  0  0  0
 34101  1  0  0  0
 35 44  2  0  0  0
 35 45  1  0  0  0
 35 68  1  0  0  0
 36 56  1  0  0  0
 36102  1  0  0  0
 37 39  1  0  0  0
 37 47  1  0  0  0
 37 66  1  0  0  0
 37103  1  0  0  0
 38 43  2  0  0  0
 38 46  1  0  0  0
 38 47  1  0  0  0
 39 64  1  0  0  0
 39 67  2  0  0  0
 40 52  1  0  0  0
 40 53  2  0  0  0
 40 58  1  0  0  0
 41104  1  0  0  0
 41105  1  0  0  0
 41106  1  0  0  0
 41 48  1  0  0  0
 42 43  1  0  0  0
 42 66  1  0  0  0
 42107  1  0  0  0
 42108  1  0  0  0
 43 44  1  0  0  0
 44109  1  0  0  0
 45 46  2  0  0  0
 45110  1  0  0  0
 46111  1  0  0  0
 47112  1  0  0  0
 47113  1  0  0  0
 48 56  1  0  0  0
 48 65  1  0  0  0
 48114  1  0  0  0
 49 50  1  0  0  0
 49 53  1  0  0  0
 49 64  1  0  0  0
 49115  1  0  0  0
 50 51  1  0  0  0
 50116  1  0  0  0
 50117  1  0  0  0
 51 52  1  0  0  0
 51118  1  0  0  0
 51119  1  0  0  0
 52120  1  0  0  0
 52121  1  0  0  0
 53 54  1  0  0  0
 54 55  2  0  0  0
 54122  1  0  0  0
 55 57  1  0  0  0
 55123  1  0  0  0
 56 69  2  0  0  0
 57 58  2  0  0  0
 57124  1  0  0  0
 58125  1  0  0  0
 59 60  1  0  0  0
 59 61  1  0  0  0
 59 62  1  0  0  0
 60126  1  0  0  0
 60127  1  0  0  0
 60128  1  0  0  0
 61129  1  0  0  0
 61130  1  0  0  0
 61131  1  0  0  0
 62132  1  0  0  0
 62133  1  0  0  0
 62134  1  0  0  0
 63 65  1  0  0  0
 63135  1  0  0  0
 63136  1  0  0  0
 63137  1  0  0  0
 64138  1  0  0  0
 65139  1  0  0  0
 68 78  1  0  0  0
 71 73  2  0  0  0
 71 75  1  0  0  0
 71140  1  0  0  0
 72 74  1  0  0  0
 72 75  2  0  0  0
 72141  1  0  0  0
 73 76  1  0  0  0
 73142  1  0  0  0
 74 76  2  0  0  0
 74143  1  0  0  0
 75 79  1  0  0  0
 76 80  1  0  0  0
 77 78  1  0  0  0
 77 80  1  0  0  0
 77144  1  0  0  0
 77145  1  0  0  0
 78146  1  0  0  0
 78147  1  0  0  0
 79148  1  0  0  0
M  ISO  4   1 100  68 101  78 101  79 100
M  END
> <chiral flag>
0

> <version>
0

> <s_m_source_file>
/data/baiqing/PycharmProjects/Reinvent-master-3.2/result/LINK_invent/BTK/process_docking_weight1_custom_sum_contain_oxygen_bond_distance_aromatic_linkinvent_7_9_3/rearranged_h_0005.sdf

> <i_m_source_file_index>
24

> <r_mmod_Potential_Energy-OPLS-2005>
453.292022705078

> <r_mmod_Stretch_Energy-OPLS-2005>
216.148208618164

> <r_mmod_Bend_Energy-OPLS-2005>
303.559814453125

> <r_mmod_Torsional_Energy-OPLS-2005>
210.8935546875

> <r_mmod_Improper_Torsional_Energy-OPLS-2005>
4.47378873825073

> <r_mmod_Van_der_Waal_Energy-OPLS-2005>
131.151794433594

> <r_mmod_Electrostatic_Energy-OPLS-2005>
-373.256744384766

> <r_mmod_Solvation_Energy-OPLS-2005>
-214.08235168457

> <b_mmod_Minimization_Converged-OPLS-2005>
0

> <r_mmod_RMS_Derivative-OPLS-2005>
0.848834156990051

$$$$
24
                    3D
 Structure written by MMmdl.
158166  0  0  1  0            999 V2000
  -30.6705  -14.5183   20.5454 C   0  0  0  0  0  0
  -30.4326  -12.3258   19.4427 C   0  0  0  0  0  0
  -29.5044  -12.5155   18.2249 C   0  0  0  0  0  0
  -28.0231  -12.3719   18.6309 C   0  0  0  0  0  0
  -27.6617  -13.2118   19.8855 C   0  0  2  0  0  0
  -28.7039  -13.0008   21.0088 C   0  0  0  0  0  0
  -25.2577  -13.8192   20.5732 C   0  0  0  0  0  0
  -24.1822  -13.0457   20.9137 C   0  0  0  0  0  0
  -24.6379  -11.6923   20.8694 C   0  0  0  0  0  0
  -23.9047  -10.4320   21.0382 C   0  0  0  0  0  0
  -24.3606   -9.4242   21.9162 C   0  0  0  0  0  0
  -23.6285   -8.2277   22.0758 C   0  0  0  0  0  0
  -22.4260   -8.0308   21.3558 C   0  0  0  0  0  0
  -21.9887   -9.0274   20.4653 C   0  0  0  0  0  0
  -22.7216  -10.2149   20.3047 C   0  0  0  0  0  0
  -21.6854   -6.0743   22.5282 C   0  0  0  0  0  0
  -21.4009   -6.5643   23.8213 C   0  0  0  0  0  0
  -21.3655   -5.6795   24.9174 C   0  0  0  0  0  0
  -21.6052   -4.3057   24.7231 C   0  0  0  0  0  0
  -21.8814   -3.8153   23.4346 C   0  0  0  0  0  0
  -21.9190   -4.6971   22.3404 C   0  0  0  0  0  0
  -22.7834  -13.5238   21.1805 C   0  0  0  0  0  0
  -22.1651   -4.2155   21.0974 F   0  0  0  0  0  0
  -21.5639   -3.4543   25.7745 F   0  0  0  0  0  0
  -30.0353  -13.3136   20.4615 N   0  0  0  0  0  0
  -26.3024  -12.9368   20.3427 N   0  0  0  0  0  0
  -25.9316  -11.6518   20.5783 N   0  0  0  0  0  0
  -22.0489  -12.8243   22.0369 N   0  0  0  0  0  0
  -25.4303  -15.1928   20.4267 N   0  0  0  0  0  0
  -31.7905  -14.7134   20.0631 O   0  0  0  0  0  0
  -21.6645   -6.8889   21.4242 O   0  0  0  0  0  0
  -22.3519  -14.5545   20.6650 O   0  0  0  0  0  0
  -24.6191  -31.8652   23.2090 C   0  0  0  0  0  0
  -25.9051  -32.4807   23.8413 C   0  0  1  0  0  0
  -27.2314  -27.3906   20.1180 C   0  0  0  0  0  0
  -25.5893  -33.8607   24.2339 N   0  0  0  0  0  0
  -23.4124  -30.4861   21.5493 C   0  0  2  0  0  0
  -24.8614  -28.9521   20.1123 C   0  0  0  0  0  0
  -22.7463  -29.4616   22.4975 C   0  0  0  0  0  0
  -18.0304  -28.1362   22.8516 C   0  0  0  0  0  0
  -24.1482  -36.7337   23.2632 C   0  0  0  0  0  0
  -25.9451  -30.8155   21.3712 C   0  0  0  0  0  0
  -26.0218  -29.4462   20.7219 C   0  0  0  0  0  0
  -27.2111  -28.6729   20.7239 C   0  0  0  0  0  0
  -26.0583  -26.9359   19.4750 C   0  0  0  0  0  0
  -24.8763  -27.6976   19.4827 C   0  0  0  0  0  0
  -23.6248  -29.8202   20.1633 C   0  0  0  0  0  0
  -25.4104  -36.3121   24.0336 C   0  0  1  0  0  0
  -20.5896  -28.3652   23.1320 C   0  0  2  0  0  0
  -20.6775  -26.9372   22.5428 C   0  0  0  0  0  0
  -19.5735  -26.6370   21.5238 C   0  0  0  0  0  0
  -18.1924  -26.7917   22.1650 C   0  0  0  0  0  0
  -19.1550  -28.8834   23.2913 C   0  0  0  0  0  0
  -18.9451  -30.1457   23.8892 C   0  0  0  0  0  0
  -17.6437  -30.6555   24.0578 C   0  0  0  0  0  0
  -25.9033  -34.9472   23.5147 C   0  0  0  0  0  0
  -16.5348  -29.9053   23.6306 C   0  0  0  0  0  0
  -16.7293  -28.6483   23.0328 C   0  0  0  0  0  0
  -26.4454  -31.6579   25.0753 C   0  0  0  0  0  0
  -25.3692  -31.3667   26.1479 C   0  0  0  0  0  0
  -27.0298  -30.3027   24.6139 C   0  0  0  0  0  0
  -27.6076  -32.4265   25.7479 C   0  0  0  0  0  0
  -27.5597  -37.1797   24.8442 C   0  0  0  0  0  0
  -21.4185  -29.3023   22.3726 N   0  0  0  0  0  0
  -26.4294  -37.3806   23.9413 N   0  0  0  0  0  0
  -24.6776  -31.0706   22.1020 N   0  0  0  0  0  0
  -23.4216  -28.8145   23.3023 O   0  0  0  0  0  0
  -28.3639  -26.5904   20.1497 O   0  0  0  0  0  0
  -26.5605  -34.8927   22.4715 O   0  0  0  0  0  0
  -23.5362  -32.1429   23.7430 O   0  0  0  0  0  0
  -29.1801  -16.8442   19.1674 C   0  0  0  0  0  0
  -28.7630  -18.0621   18.6015 C   0  0  0  0  0  0
  -29.8827  -18.0340   21.1640 C   0  0  0  0  0  0
  -29.7208  -16.8039   20.4691 C   0  0  0  0  0  0
  -28.8727  -19.2843   19.3107 C   0  0  0  0  0  0
  -29.5003  -19.2835   20.5893 C   0  0  0  0  0  0
  -27.6092  -20.4617   17.6136 C   0  0  0  0  0  0
  -29.2882  -24.2192   20.3894 C   0  0  0  0  0  0
  -28.9559  -22.7969   20.9468 C   0  0  0  0  0  0
  -28.1499  -25.2450   20.6571 C   0  0  0  0  0  0
  -30.0316  -21.6943   20.7243 C   0  0  0  0  0  0
  -29.9593  -15.5301   21.0913 N   0  0  0  0  0  0
  -28.3466  -20.4670   18.8316 O   0  0  0  0  0  0
  -29.6806  -20.4366   21.3483 O   0  0  0  0  0  0
  -31.4772  -12.4304   19.1406 H   0  0  0  0  0  0
  -30.3415  -11.3152   19.8444 H   0  0  0  0  0  0
  -29.7475  -11.7933   17.4447 H   0  0  0  0  0  0
  -29.6775  -13.5037   17.7941 H   0  0  0  0  0  0
  -27.8359  -11.3165   18.8307 H   0  0  0  0  0  0
  -27.3776  -12.6436   17.7935 H   0  0  0  0  0  0
  -27.6974  -14.2596   19.5877 H   0  0  0  0  0  0
  -28.6829  -11.9657   21.3514 H   0  0  0  0  0  0
  -28.4645  -13.6016   21.8871 H   0  0  0  0  0  0
  -25.2762   -9.5743   22.4713 H   0  0  0  0  0  0
  -24.0015   -7.4683   22.7476 H   0  0  0  0  0  0
  -21.0823   -8.8788   19.8943 H   0  0  0  0  0  0
  -22.3673  -10.9686   19.6157 H   0  0  0  0  0  0
  -21.1976   -7.6145   23.9707 H   0  0  0  0  0  0
  -21.1476   -6.0533   25.9073 H   0  0  0  0  0  0
  -22.0576   -2.7618   23.2860 H   0  0  0  0  0  0
  -22.4117  -11.9913   22.4767 H   0  0  0  0  0  0
  -21.1103  -13.1272   22.2575 H   0  0  0  0  0  0
  -24.6719  -15.8521   20.5691 H   0  0  0  0  0  0
  -26.2985  -15.6446   20.1699 H   0  0  0  0  0  0
  -26.7143  -32.5504   23.1196 H   0  0  0  0  0  0
  -25.0009  -33.9763   25.0460 H   0  0  0  0  0  0
  -22.7046  -31.3050   21.4071 H   0  0  0  0  0  0
  -23.3758  -35.9647   23.3242 H   0  0  0  0  0  0
  -24.3582  -36.9016   22.2056 H   0  0  0  0  0  0
  -23.7201  -37.6515   23.6684 H   0  0  0  0  0  0
  -26.0616  -31.5741   20.5954 H   0  0  0  0  0  0
  -26.8333  -30.8755   21.9889 H   0  0  0  0  0  0
  -28.1026  -29.0393   21.2142 H   0  0  0  0  0  0
  -26.0451  -25.9873   18.9590 H   0  0  0  0  0  0
  -23.9898  -27.3175   18.9944 H   0  0  0  0  0  0
  -23.7374  -30.5948   19.4046 H   0  0  0  0  0  0
  -22.7510  -29.2380   19.8657 H   0  0  0  0  0  0
  -25.1260  -36.2013   25.0825 H   0  0  0  0  0  0
  -21.0012  -28.3214   24.1432 H   0  0  0  0  0  0
  -20.5707  -26.2237   23.3620 H   0  0  0  0  0  0
  -21.6634  -26.7393   22.1201 H   0  0  0  0  0  0
  -19.6873  -25.6294   21.1231 H   0  0  0  0  0  0
  -19.6669  -27.3218   20.6801 H   0  0  0  0  0  0
  -17.4201  -26.6734   21.4034 H   0  0  0  0  0  0
  -18.0273  -26.0044   22.9021 H   0  0  0  0  0  0
  -19.7918  -30.7315   24.2219 H   0  0  0  0  0  0
  -17.4965  -31.6216   24.5209 H   0  0  0  0  0  0
  -15.5338  -30.2935   23.7590 H   0  0  0  0  0  0
  -15.8724  -28.0803   22.6972 H   0  0  0  0  0  0
  -24.5861  -30.7047   25.7753 H   0  0  0  0  0  0
  -24.8881  -32.2810   26.4968 H   0  0  0  0  0  0
  -25.8002  -30.8766   27.0219 H   0  0  0  0  0  0
  -26.2867  -29.6779   24.1173 H   0  0  0  0  0  0
  -27.4060  -29.7261   25.4598 H   0  0  0  0  0  0
  -27.8694  -30.4367   23.9318 H   0  0  0  0  0  0
  -27.2774  -33.3561   26.2118 H   0  0  0  0  0  0
  -28.3825  -32.6810   25.0235 H   0  0  0  0  0  0
  -28.0814  -31.8336   26.5312 H   0  0  0  0  0  0
  -28.2552  -38.0157   24.7591 H   0  0  0  0  0  0
  -28.1164  -36.2696   24.6144 H   0  0  0  0  0  0
  -27.2331  -37.1307   25.8846 H   0  0  0  0  0  0
  -20.9348  -29.8791   21.6982 H   0  0  0  0  0  0
  -26.0195  -38.2876   24.1472 H   0  0  0  0  0  0
  -29.0342  -15.9371   18.5985 H   0  0  0  0  0  0
  -28.3251  -18.0206   17.6157 H   0  0  0  0  0  0
  -30.2987  -18.0260   22.1621 H   0  0  0  0  0  0
  -27.0735  -21.4074   17.5160 H   0  0  0  0  0  0
  -26.8554  -19.6739   17.5750 H   0  0  0  0  0  0
  -28.2775  -20.3640   16.7578 H   0  0  0  0  0  0
  -29.4568  -24.1519   19.3147 H   0  0  0  0  0  0
  -30.2209  -24.5798   20.8244 H   0  0  0  0  0  0
  -28.0140  -22.4625   20.5121 H   0  0  0  0  0  0
  -28.7741  -22.8824   22.0190 H   0  0  0  0  0  0
  -27.9808  -25.3155   21.7337 H   0  0  0  0  0  0
  -27.2446  -24.7981   20.2513 H   0  0  0  0  0  0
  -30.9569  -22.0229   21.1986 H   0  0  0  0  0  0
  -30.2842  -21.5921   19.6696 H   0  0  0  0  0  0
  -29.1934  -15.2068   21.6643 H   0  0  0  0  0  0
  1 25  1  0  0  0
  1 30  2  0  0  0
  1 82  1  0  0  0
  2  3  1  0  0  0
  2 25  1  0  0  0
  2 85  1  0  0  0
  2 86  1  0  0  0
  3  4  1  0  0  0
  3 87  1  0  0  0
  3 88  1  0  0  0
  4  5  1  0  0  0
  4 89  1  0  0  0
  4 90  1  0  0  0
  5  6  1  0  0  0
  5 26  1  0  0  0
  5 91  1  0  0  0
  6 25  1  0  0  0
  6 92  1  0  0  0
  6 93  1  0  0  0
  7  8  2  0  0  0
  7 26  1  0  0  0
  7 29  1  0  0  0
  8  9  1  0  0  0
  8 22  1  0  0  0
  9 10  1  0  0  0
  9 27  2  0  0  0
 10 11  2  0  0  0
 10 15  1  0  0  0
 11 12  1  0  0  0
 11 94  1  0  0  0
 12 13  2  0  0  0
 12 95  1  0  0  0
 13 14  1  0  0  0
 13 31  1  0  0  0
 14 15  2  0  0  0
 14 96  1  0  0  0
 15 97  1  0  0  0
 16 17  2  0  0  0
 16 21  1  0  0  0
 16 31  1  0  0  0
 17 18  1  0  0  0
 17 98  1  0  0  0
 18 19  2  0  0  0
 18 99  1  0  0  0
 19 20  1  0  0  0
 19 24  1  0  0  0
 20 21  2  0  0  0
 20100  1  0  0  0
 21 23  1  0  0  0
 22 28  1  0  0  0
 22 32  2  0  0  0
 26 27  1  0  0  0
 28101  1  0  0  0
 28102  1  0  0  0
 29103  1  0  0  0
 29104  1  0  0  0
 33 34  1  0  0  0
 33 66  1  0  0  0
 33 70  2  0  0  0
 34 36  1  0  0  0
 34 59  1  0  0  0
 34105  1  0  0  0
 35 44  2  0  0  0
 35 45  1  0  0  0
 35 68  1  0  0  0
 36 56  1  0  0  0
 36106  1  0  0  0
 37 39  1  0  0  0
 37 47  1  0  0  0
 37 66  1  0  0  0
 37107  1  0  0  0
 38 43  2  0  0  0
 38 46  1  0  0  0
 38 47  1  0  0  0
 39 64  1  0  0  0
 39 67  2  0  0  0
 40 52  1  0  0  0
 40 53  2  0  0  0
 40 58  1  0  0  0
 41108  1  0  0  0
 41109  1  0  0  0
 41110  1  0  0  0
 41 48  1  0  0  0
 42 43  1  0  0  0
 42 66  1  0  0  0
 42111  1  0  0  0
 42112  1  0  0  0
 43 44  1  0  0  0
 44113  1  0  0  0
 45 46  2  0  0  0
 45114  1  0  0  0
 46115  1  0  0  0
 47116  1  0  0  0
 47117  1  0  0  0
 48 56  1  0  0  0
 48 65  1  0  0  0
 48118  1  0  0  0
 49 50  1  0  0  0
 49 53  1  0  0  0
 49 64  1  0  0  0
 49119  1  0  0  0
 50 51  1  0  0  0
 50120  1  0  0  0
 50121  1  0  0  0
 51 52  1  0  0  0
 51122  1  0  0  0
 51123  1  0  0  0
 52124  1  0  0  0
 52125  1  0  0  0
 53 54  1  0  0  0
 54 55  2  0  0  0
 54126  1  0  0  0
 55 57  1  0  0  0
 55127  1  0  0  0
 56 69  2  0  0  0
 57 58  2  0  0  0
 57128  1  0  0  0
 58129  1  0  0  0
 59 60  1  0  0  0
 59 61  1  0  0  0
 59 62  1  0  0  0
 60130  1  0  0  0
 60131  1  0  0  0
 60132  1  0  0  0
 61133  1  0  0  0
 61134  1  0  0  0
 61135  1  0  0  0
 62136  1  0  0  0
 62137  1  0  0  0
 62138  1  0  0  0
 63 65  1  0  0  0
 63139  1  0  0  0
 63140  1  0  0  0
 63141  1  0  0  0
 64142  1  0  0  0
 65143  1  0  0  0
 68 80  1  0  0  0
 71 72  2  0  0  0
 71 74  1  0  0  0
 71144  1  0  0  0
 72 75  1  0  0  0
 72145  1  0  0  0
 73 74  2  0  0  0
 73 76  1  0  0  0
 73146  1  0  0  0
 74 82  1  0  0  0
 75 76  2  0  0  0
 75 83  1  0  0  0
 76 84  1  0  0  0
 77 83  1  0  0  0
 77147  1  0  0  0
 77148  1  0  0  0
 77149  1  0  0  0
 78 79  1  0  0  0
 78 80  1  0  0  0
 78150  1  0  0  0
 78151  1  0  0  0
 79 81  1  0  0  0
 79152  1  0  0  0
 79153  1  0  0  0
 80154  1  0  0  0
 80155  1  0  0  0
 81 84  1  0  0  0
 81156  1  0  0  0
 81157  1  0  0  0
 82158  1  0  0  0
M  ISO  4   1 100  68 101  80 101  82 100
M  END
> <chiral flag>
0

> <version>
0

> <s_m_source_file>
/data/baiqing/PycharmProjects/Reinvent-master-3.2/result/LINK_invent/BTK/process_docking_weight1_custom_sum_contain_oxygen_bond_distance_aromatic_linkinvent_7_9_3/rearranged_h_0005.sdf

> <i_m_source_file_index>
25

> <r_mmod_Potential_Energy-OPLS-2005>
27.7407493591309

> <r_mmod_Stretch_Energy-OPLS-2005>
48.307445526123

> <r_mmod_Bend_Energy-OPLS-2005>
115.130981445312

> <r_mmod_Torsional_Energy-OPLS-2005>
272.204528808594

> <r_mmod_Improper_Torsional_Energy-OPLS-2005>
6.04540824890137

> <r_mmod_Van_der_Waal_Energy-OPLS-2005>
154.700302124023

> <r_mmod_Electrostatic_Energy-OPLS-2005>
-373.145538330078

> <r_mmod_Solvation_Energy-OPLS-2005>
-216.597213745117

> <b_mmod_Minimization_Converged-OPLS-2005>
0

> <r_mmod_RMS_Derivative-OPLS-2005>
2.53554105758667

$$$$
25
                    3D
 Structure written by MMmdl.
154162  0  0  1  0            999 V2000
  -30.6755  -14.4856   20.5768 C   0  0  0  0  0  0
  -30.4342  -12.3171   19.4176 C   0  0  0  0  0  0
  -29.4979  -12.5126   18.2056 C   0  0  0  0  0  0
  -28.0186  -12.3671   18.6170 C   0  0  0  0  0  0
  -27.6648  -13.1978   19.8787 C   0  0  2  0  0  0
  -28.7076  -12.9625   20.9954 C   0  0  0  0  0  0
  -25.2602  -13.8130   20.5673 C   0  0  0  0  0  0
  -24.1842  -13.0423   20.9167 C   0  0  0  0  0  0
  -24.6385  -11.6887   20.8730 C   0  0  0  0  0  0
  -23.9043  -10.4283   21.0398 C   0  0  0  0  0  0
  -24.3599   -9.4204   21.9179 C   0  0  0  0  0  0
  -23.6282   -8.2238   22.0750 C   0  0  0  0  0  0
  -22.4265   -8.0274   21.3540 C   0  0  0  0  0  0
  -21.9891   -9.0244   20.4642 C   0  0  0  0  0  0
  -22.7215  -10.2127   20.3049 C   0  0  0  0  0  0
  -21.6847   -6.0734   22.5281 C   0  0  0  0  0  0
  -21.4010   -6.5638   23.8215 C   0  0  0  0  0  0
  -21.3657   -5.6790   24.9177 C   0  0  0  0  0  0
  -21.6046   -4.3054   24.7227 C   0  0  0  0  0  0
  -21.8819   -3.8146   23.4348 C   0  0  0  0  0  0
  -21.9189   -4.6963   22.3404 C   0  0  0  0  0  0
  -22.7867  -13.5235   21.1838 C   0  0  0  0  0  0
  -22.1658   -4.2149   21.0981 F   0  0  0  0  0  0
  -21.5629   -3.4536   25.7739 F   0  0  0  0  0  0
  -30.0402  -13.2864   20.4518 N   0  0  0  0  0  0
  -26.3039  -12.9284   20.3378 N   0  0  0  0  0  0
  -25.9314  -11.6454   20.5768 N   0  0  0  0  0  0
  -22.0499  -12.8240   22.0398 N   0  0  0  0  0  0
  -25.4309  -15.1846   20.4077 N   0  0  0  0  0  0
  -31.7868  -14.7150   20.0889 O   0  0  0  0  0  0
  -21.6629   -6.8873   21.4241 O   0  0  0  0  0  0
  -22.3561  -14.5548   20.6692 O   0  0  0  0  0  0
  -24.6151  -31.8672   23.2098 C   0  0  0  0  0  0
  -25.9041  -32.4819   23.8398 C   0  0  1  0  0  0
  -27.2388  -27.4345   20.0997 C   0  0  0  0  0  0
  -25.5895  -33.8618   24.2330 N   0  0  0  0  0  0
  -23.4050  -30.4890   21.5488 C   0  0  2  0  0  0
  -24.8559  -28.9546   20.1136 C   0  0  0  0  0  0
  -22.7418  -29.4648   22.4978 C   0  0  0  0  0  0
  -18.0273  -28.1376   22.8491 C   0  0  0  0  0  0
  -24.1485  -36.7316   23.2637 C   0  0  0  0  0  0
  -25.9338  -30.8323   21.3646 C   0  0  0  0  0  0
  -26.0148  -29.4661   20.7128 C   0  0  0  0  0  0
  -27.2123  -28.7122   20.7056 C   0  0  0  0  0  0
  -26.0685  -26.9379   19.4924 C   0  0  0  0  0  0
  -24.8772  -27.6891   19.5001 C   0  0  0  0  0  0
  -23.6163  -29.8202   20.1638 C   0  0  0  0  0  0
  -25.4103  -36.3112   24.0340 C   0  0  1  0  0  0
  -20.5865  -28.3664   23.1313 C   0  0  2  0  0  0
  -20.6760  -26.9399   22.5417 C   0  0  0  0  0  0
  -19.5740  -26.6384   21.5212 C   0  0  0  0  0  0
  -18.1920  -26.7923   22.1622 C   0  0  0  0  0  0
  -19.1523  -28.8836   23.2899 C   0  0  0  0  0  0
  -18.9451  -30.1442   23.8910 C   0  0  0  0  0  0
  -17.6454  -30.6584   24.0563 C   0  0  0  0  0  0
  -25.9033  -34.9476   23.5134 C   0  0  0  0  0  0
  -16.5344  -29.9087   23.6323 C   0  0  0  0  0  0
  -16.7261  -28.6501   23.0347 C   0  0  0  0  0  0
  -26.4474  -31.6595   25.0723 C   0  0  0  0  0  0
  -25.3747  -31.3694   26.1476 C   0  0  0  0  0  0
  -27.0307  -30.3037   24.6097 C   0  0  0  0  0  0
  -27.6053  -32.4313   25.7484 C   0  0  0  0  0  0
  -27.5587  -37.1801   24.8456 C   0  0  0  0  0  0
  -21.4145  -29.3031   22.3720 N   0  0  0  0  0  0
  -26.4285  -37.3801   23.9423 N   0  0  0  0  0  0
  -24.6693  -31.0768   22.0998 N   0  0  0  0  0  0
  -23.4184  -28.8193   23.3028 O   0  0  0  0  0  0
  -28.3688  -26.6472   20.1027 O   0  0  0  0  0  0
  -26.5596  -34.8928   22.4695 O   0  0  0  0  0  0
  -23.5340  -32.1421   23.7489 O   0  0  0  0  0  0
  -28.8313  -17.2028   19.9449 C   0  0  0  0  0  0
  -30.6632  -17.8086   21.4193 C   0  0  0  0  0  0
  -28.6050  -18.5670   19.6701 C   0  0  0  0  0  0
  -30.4286  -19.1810   21.1450 C   0  0  0  0  0  0
  -29.8580  -16.8071   20.8280 C   0  0  0  0  0  0
  -29.3791  -19.5781   20.2763 C   0  0  0  0  0  0
  -28.8315  -23.2801   20.3855 C   0  0  0  0  0  0
  -29.3915  -24.5523   21.0758 C   0  0  0  0  0  0
  -29.6401  -21.9813   20.6659 C   0  0  0  0  0  0
  -28.4049  -25.7441   21.2175 C   0  0  0  0  0  0
  -29.9575  -15.4355   21.2065 N   0  0  0  0  0  0
  -29.0320  -20.8859   19.9737 O   0  0  0  0  0  0
  -31.4757  -12.4372   19.1133 H   0  0  0  0  0  0
  -30.3545  -11.3010   19.8065 H   0  0  0  0  0  0
  -29.7398  -11.7918   17.4231 H   0  0  0  0  0  0
  -29.6606  -13.5003   17.7710 H   0  0  0  0  0  0
  -27.8282  -11.3100   18.8058 H   0  0  0  0  0  0
  -27.3681  -12.6487   17.7880 H   0  0  0  0  0  0
  -27.7112  -14.2455   19.5883 H   0  0  0  0  0  0
  -28.6895  -11.9185   21.3125 H   0  0  0  0  0  0
  -28.4599  -13.5349   21.8901 H   0  0  0  0  0  0
  -25.2743   -9.5684   22.4755 H   0  0  0  0  0  0
  -23.9992   -7.4627   22.7466 H   0  0  0  0  0  0
  -21.0821   -8.8758   19.8950 H   0  0  0  0  0  0
  -22.3669  -10.9663   19.6158 H   0  0  0  0  0  0
  -21.2003   -7.6145   23.9723 H   0  0  0  0  0  0
  -21.1479   -6.0517   25.9082 H   0  0  0  0  0  0
  -22.0603   -2.7608   23.2846 H   0  0  0  0  0  0
  -22.4096  -11.9892   22.4784 H   0  0  0  0  0  0
  -21.1127  -13.1289   22.2612 H   0  0  0  0  0  0
  -24.6616  -15.8368   20.5163 H   0  0  0  0  0  0
  -26.2840  -15.6286   20.0960 H   0  0  0  0  0  0
  -26.7115  -32.5537   23.1169 H   0  0  0  0  0  0
  -25.0047  -33.9783   25.0475 H   0  0  0  0  0  0
  -22.6937  -31.3056   21.4079 H   0  0  0  0  0  0
  -23.3751  -35.9643   23.3285 H   0  0  0  0  0  0
  -24.3588  -36.8946   22.2055 H   0  0  0  0  0  0
  -23.7226  -37.6513   23.6658 H   0  0  0  0  0  0
  -26.0464  -31.5983   20.5961 H   0  0  0  0  0  0
  -26.8208  -30.8871   21.9834 H   0  0  0  0  0  0
  -28.1067  -29.0996   21.1735 H   0  0  0  0  0  0
  -26.0792  -25.9628   19.0255 H   0  0  0  0  0  0
  -23.9870  -27.2886   19.0350 H   0  0  0  0  0  0
  -23.7247  -30.5947   19.4035 H   0  0  0  0  0  0
  -22.7412  -29.2391   19.8674 H   0  0  0  0  0  0
  -25.1275  -36.1974   25.0832 H   0  0  0  0  0  0
  -20.9956  -28.3229   24.1433 H   0  0  0  0  0  0
  -20.5657  -26.2274   23.3606 H   0  0  0  0  0  0
  -21.6632  -26.7437   22.1211 H   0  0  0  0  0  0
  -19.6901  -25.6298   21.1232 H   0  0  0  0  0  0
  -19.6681  -27.3200   20.6748 H   0  0  0  0  0  0
  -17.4190  -26.6672   21.4024 H   0  0  0  0  0  0
  -18.0320  -26.0061   22.9015 H   0  0  0  0  0  0
  -19.7929  -30.7252   24.2285 H   0  0  0  0  0  0
  -17.5012  -31.6266   24.5161 H   0  0  0  0  0  0
  -15.5346  -30.2994   23.7641 H   0  0  0  0  0  0
  -15.8659  -28.0827   22.7054 H   0  0  0  0  0  0
  -24.5910  -30.7058   25.7810 H   0  0  0  0  0  0
  -24.8955  -32.2848   26.4957 H   0  0  0  0  0  0
  -25.8108  -30.8834   27.0214 H   0  0  0  0  0  0
  -26.2851  -29.6793   24.1161 H   0  0  0  0  0  0
  -27.4090  -29.7277   25.4554 H   0  0  0  0  0  0
  -27.8680  -30.4358   23.9241 H   0  0  0  0  0  0
  -27.2673  -33.3596   26.2100 H   0  0  0  0  0  0
  -28.3841  -32.6899   25.0298 H   0  0  0  0  0  0
  -28.0745  -31.8413   26.5367 H   0  0  0  0  0  0
  -28.2574  -38.0131   24.7559 H   0  0  0  0  0  0
  -28.1116  -36.2668   24.6205 H   0  0  0  0  0  0
  -27.2318  -37.1356   25.8860 H   0  0  0  0  0  0
  -20.9305  -29.8761   21.6948 H   0  0  0  0  0  0
  -26.0173  -38.2872   24.1458 H   0  0  0  0  0  0
  -28.1911  -16.4684   19.4806 H   0  0  0  0  0  0
  -31.4452  -17.5332   22.1133 H   0  0  0  0  0  0
  -27.8028  -18.8432   19.0003 H   0  0  0  0  0  0
  -31.0561  -19.9164   21.6268 H   0  0  0  0  0  0
  -28.7664  -23.4536   19.3107 H   0  0  0  0  0  0
  -27.8085  -23.1144   20.7249 H   0  0  0  0  0  0
  -30.3134  -24.8783   20.5932 H   0  0  0  0  0  0
  -29.6789  -24.2650   22.0882 H   0  0  0  0  0  0
  -29.6517  -21.7891   21.7399 H   0  0  0  0  0  0
  -30.6738  -22.0941   20.3368 H   0  0  0  0  0  0
  -28.7055  -26.3349   22.0844 H   0  0  0  0  0  0
  -27.4089  -25.3630   21.4531 H   0  0  0  0  0  0
  -29.1125  -15.0532   21.6036 H   0  0  0  0  0  0
  1 25  1  0  0  0
  1 30  2  0  0  0
  1 81  1  0  0  0
  2  3  1  0  0  0
  2 25  1  0  0  0
  2 83  1  0  0  0
  2 84  1  0  0  0
  3  4  1  0  0  0
  3 85  1  0  0  0
  3 86  1  0  0  0
  4  5  1  0  0  0
  4 87  1  0  0  0
  4 88  1  0  0  0
  5  6  1  0  0  0
  5 26  1  0  0  0
  5 89  1  0  0  0
  6 25  1  0  0  0
  6 90  1  0  0  0
  6 91  1  0  0  0
  7  8  2  0  0  0
  7 26  1  0  0  0
  7 29  1  0  0  0
  8  9  1  0  0  0
  8 22  1  0  0  0
  9 10  1  0  0  0
  9 27  2  0  0  0
 10 11  2  0  0  0
 10 15  1  0  0  0
 11 12  1  0  0  0
 11 92  1  0  0  0
 12 13  2  0  0  0
 12 93  1  0  0  0
 13 14  1  0  0  0
 13 31  1  0  0  0
 14 15  2  0  0  0
 14 94  1  0  0  0
 15 95  1  0  0  0
 16 17  2  0  0  0
 16 21  1  0  0  0
 16 31  1  0  0  0
 17 18  1  0  0  0
 17 96  1  0  0  0
 18 19  2  0  0  0
 18 97  1  0  0  0
 19 20  1  0  0  0
 19 24  1  0  0  0
 20 21  2  0  0  0
 20 98  1  0  0  0
 21 23  1  0  0  0
 22 28  1  0  0  0
 22 32  2  0  0  0
 26 27  1  0  0  0
 28 99  1  0  0  0
 28100  1  0  0  0
 29101  1  0  0  0
 29102  1  0  0  0
 33 34  1  0  0  0
 33 66  1  0  0  0
 33 70  2  0  0  0
 34 36  1  0  0  0
 34 59  1  0  0  0
 34103  1  0  0  0
 35 44  2  0  0  0
 35 45  1  0  0  0
 35 68  1  0  0  0
 36 56  1  0  0  0
 36104  1  0  0  0
 37 39  1  0  0  0
 37 47  1  0  0  0
 37 66  1  0  0  0
 37105  1  0  0  0
 38 43  2  0  0  0
 38 46  1  0  0  0
 38 47  1  0  0  0
 39 64  1  0  0  0
 39 67  2  0  0  0
 40 52  1  0  0  0
 40 53  2  0  0  0
 40 58  1  0  0  0
 41106  1  0  0  0
 41107  1  0  0  0
 41108  1  0  0  0
 41 48  1  0  0  0
 42 43  1  0  0  0
 42 66  1  0  0  0
 42109  1  0  0  0
 42110  1  0  0  0
 43 44  1  0  0  0
 44111  1  0  0  0
 45 46  2  0  0  0
 45112  1  0  0  0
 46113  1  0  0  0
 47114  1  0  0  0
 47115  1  0  0  0
 48 56  1  0  0  0
 48 65  1  0  0  0
 48116  1  0  0  0
 49 50  1  0  0  0
 49 53  1  0  0  0
 49 64  1  0  0  0
 49117  1  0  0  0
 50 51  1  0  0  0
 50118  1  0  0  0
 50119  1  0  0  0
 51 52  1  0  0  0
 51120  1  0  0  0
 51121  1  0  0  0
 52122  1  0  0  0
 52123  1  0  0  0
 53 54  1  0  0  0
 54 55  2  0  0  0
 54124  1  0  0  0
 55 57  1  0  0  0
 55125  1  0  0  0
 56 69  2  0  0  0
 57 58  2  0  0  0
 57126  1  0  0  0
 58127  1  0  0  0
 59 60  1  0  0  0
 59 61  1  0  0  0
 59 62  1  0  0  0
 60128  1  0  0  0
 60129  1  0  0  0
 60130  1  0  0  0
 61131  1  0  0  0
 61132  1  0  0  0
 61133  1  0  0  0
 62134  1  0  0  0
 62135  1  0  0  0
 62136  1  0  0  0
 63 65  1  0  0  0
 63137  1  0  0  0
 63138  1  0  0  0
 63139  1  0  0  0
 64140  1  0  0  0
 65141  1  0  0  0
 68 80  1  0  0  0
 71 73  2  0  0  0
 71 75  1  0  0  0
 71142  1  0  0  0
 72 74  1  0  0  0
 72 75  2  0  0  0
 72143  1  0  0  0
 73 76  1  0  0  0
 73144  1  0  0  0
 74 76  2  0  0  0
 74145  1  0  0  0
 75 81  1  0  0  0
 76 82  1  0  0  0
 77 78  1  0  0  0
 77 79  1  0  0  0
 77146  1  0  0  0
 77147  1  0  0  0
 78 80  1  0  0  0
 78148  1  0  0  0
 78149  1  0  0  0
 79 82  1  0  0  0
 79150  1  0  0  0
 79151  1  0  0  0
 80152  1  0  0  0
 80153  1  0  0  0
 81154  1  0  0  0
M  ISO  4   1 100  68 101  80 101  81 100
M  END
> <chiral flag>
0

> <version>
0

> <s_m_source_file>
/data/baiqing/PycharmProjects/Reinvent-master-3.2/result/LINK_invent/BTK/process_docking_weight1_custom_sum_contain_oxygen_bond_distance_aromatic_linkinvent_7_9_3/rearranged_h_0005.sdf

> <i_m_source_file_index>
26

> <r_mmod_Potential_Energy-OPLS-2005>
-26.1432418823242

> <r_mmod_Stretch_Energy-OPLS-2005>
38.0520858764648

> <r_mmod_Bend_Energy-OPLS-2005>
103.493583679199

> <r_mmod_Torsional_Energy-OPLS-2005>
269.066009521484

> <r_mmod_Improper_Torsional_Energy-OPLS-2005>
5.56116437911987

> <r_mmod_Van_der_Waal_Energy-OPLS-2005>
142.235061645508

> <r_mmod_Electrostatic_Energy-OPLS-2005>
-386.073486328125

> <r_mmod_Solvation_Energy-OPLS-2005>
-212.002868652344

> <b_mmod_Minimization_Converged-OPLS-2005>
0

> <r_mmod_RMS_Derivative-OPLS-2005>
0.609314560890198

$$$$
26
                    3D
 Structure written by MMmdl.
184192  0  0  1  0            999 V2000
  -30.5740  -14.7477   20.4751 C   0  0  0  0  0  0
  -30.4489  -12.4584   19.4638 C   0  0  0  0  0  0
  -29.5168  -12.5112   18.2308 C   0  0  0  0  0  0
  -28.0412  -12.3301   18.6431 C   0  0  0  0  0  0
  -27.6450  -13.2198   19.8516 C   0  0  2  0  0  0
  -28.6919  -13.1263   20.9845 C   0  0  0  0  0  0
  -25.2532  -13.8175   20.5685 C   0  0  0  0  0  0
  -24.1809  -13.0438   20.9190 C   0  0  0  0  0  0
  -24.6378  -11.6907   20.8715 C   0  0  0  0  0  0
  -23.9046  -10.4294   21.0404 C   0  0  0  0  0  0
  -24.3611   -9.4216   21.9179 C   0  0  0  0  0  0
  -23.6282   -8.2251   22.0754 C   0  0  0  0  0  0
  -22.4265   -8.0283   21.3539 C   0  0  0  0  0  0
  -21.9890   -9.0261   20.4636 C   0  0  0  0  0  0
  -22.7219  -10.2148   20.3046 C   0  0  0  0  0  0
  -21.6862   -6.0720   22.5261 C   0  0  0  0  0  0
  -21.4025   -6.5618   23.8197 C   0  0  0  0  0  0
  -21.3650   -5.6777   24.9159 C   0  0  0  0  0  0
  -21.6050   -4.3039   24.7212 C   0  0  0  0  0  0
  -21.8821   -3.8121   23.4334 C   0  0  0  0  0  0
  -21.9198   -4.6941   22.3386 C   0  0  0  0  0  0
  -22.7832  -13.5236   21.1855 C   0  0  0  0  0  0
  -22.1661   -4.2123   21.0961 F   0  0  0  0  0  0
  -21.5619   -3.4525   25.7723 F   0  0  0  0  0  0
  -29.9960  -13.4978   20.4124 N   0  0  0  0  0  0
  -26.2945  -12.9344   20.3254 N   0  0  0  0  0  0
  -25.9305  -11.6507   20.5729 N   0  0  0  0  0  0
  -22.0459  -12.8246   22.0409 N   0  0  0  0  0  0
  -25.4252  -15.1902   20.4141 N   0  0  0  0  0  0
  -31.7577  -14.9104   20.1598 O   0  0  0  0  0  0
  -21.6644   -6.8874   21.4233 O   0  0  0  0  0  0
  -22.3535  -14.5553   20.6709 O   0  0  0  0  0  0
  -24.6318  -31.8550   23.2008 C   0  0  0  0  0  0
  -25.9145  -32.4738   23.8341 C   0  0  1  0  0  0
  -27.2273  -27.2703   20.1093 C   0  0  0  0  0  0
  -25.5958  -33.8547   24.2271 N   0  0  0  0  0  0
  -23.4281  -30.4809   21.5419 C   0  0  2  0  0  0
  -24.8763  -28.9349   20.1057 C   0  0  0  0  0  0
  -22.7504  -29.4611   22.4879 C   0  0  0  0  0  0
  -18.0311  -28.1400   22.8483 C   0  0  0  0  0  0
  -24.1488  -36.7279   23.2627 C   0  0  0  0  0  0
  -25.9756  -30.7676   21.3827 C   0  0  0  0  0  0
  -26.0480  -29.3930   20.7205 C   0  0  0  0  0  0
  -27.2251  -28.5743   20.7142 C   0  0  0  0  0  0
  -26.0267  -26.8869   19.4628 C   0  0  0  0  0  0
  -24.8709  -27.6889   19.4663 C   0  0  0  0  0  0
  -23.6457  -29.8203   20.1566 C   0  0  0  0  0  0
  -25.4115  -36.3060   24.0320 C   0  0  1  0  0  0
  -20.5915  -28.3711   23.1253 C   0  0  2  0  0  0
  -20.6788  -26.9417   22.5400 C   0  0  0  0  0  0
  -19.5765  -26.6388   21.5197 C   0  0  0  0  0  0
  -18.1950  -26.7950   22.1614 C   0  0  0  0  0  0
  -19.1563  -28.8874   23.2871 C   0  0  0  0  0  0
  -18.9477  -30.1473   23.8896 C   0  0  0  0  0  0
  -17.6470  -30.6590   24.0570 C   0  0  0  0  0  0
  -25.9065  -34.9421   23.5093 C   0  0  0  0  0  0
  -16.5363  -29.9088   23.6326 C   0  0  0  0  0  0
  -16.7298  -28.6510   23.0347 C   0  0  0  0  0  0
  -26.4522  -31.6559   25.0722 C   0  0  0  0  0  0
  -25.3754  -31.3728   26.1449 C   0  0  0  0  0  0
  -27.0336  -30.2958   24.6217 C   0  0  0  0  0  0
  -27.6093  -32.4283   25.7494 C   0  0  0  0  0  0
  -27.5590  -37.1791   24.8459 C   0  0  0  0  0  0
  -21.4215  -29.3054   22.3629 N   0  0  0  0  0  0
  -26.4290  -37.3754   23.9411 N   0  0  0  0  0  0
  -24.6969  -31.0520   22.0974 N   0  0  0  0  0  0
  -23.4197  -28.8133   23.2966 O   0  0  0  0  0  0
  -28.3244  -26.3684   20.1643 O   0  0  0  0  0  0
  -26.5620  -34.8897   22.4655 O   0  0  0  0  0  0
  -23.5463  -32.1372   23.7310 O   0  0  0  0  0  0
  -30.7473  -18.1223   21.1786 C   0  0  0  0  0  0
  -30.5604  -19.5417   21.3382 C   0  0  0  0  0  0
  -28.5851  -17.9845   20.1764 C   0  0  0  0  0  0
  -28.3958  -19.4012   20.3216 C   0  0  0  0  0  0
  -29.7342  -17.2799   20.6373 C   0  0  0  0  0  0
  -29.3648  -20.2324   20.9585 C   0  0  0  0  0  0
  -28.9512  -22.8673   21.3899 C   0  0  0  0  0  0
  -27.0691  -19.9984   19.8882 C   0  0  0  0  0  0
  -28.9798  -25.9042   27.5290 C   0  0  0  0  0  0
  -26.6339  -18.5536   27.2843 C   0  0  0  0  0  0
  -29.0695  -23.6473   20.0342 C   0  0  0  0  0  0
  -29.5542  -24.4817   27.5045 C   0  0  0  0  0  0
  -27.0818  -19.9577   26.8590 C   0  0  0  0  0  0
  -28.9164  -23.6012   26.4196 C   0  0  0  0  0  0
  -28.3867  -21.1527   22.9861 C   0  0  0  0  0  0
  -28.3321  -19.9405   25.9530 C   0  0  0  0  0  0
  -29.3785  -22.1319   26.4927 C   0  0  0  0  0  0
  -29.3859  -21.3100   24.1588 C   0  0  0  0  0  0
  -28.0788  -24.9222   19.8224 C   0  0  0  0  0  0
  -29.6953  -15.7959   20.6800 N   0  0  0  0  0  0
  -28.9634  -21.4804   21.6590 N   0  0  0  0  0  0
  -28.6877  -21.3008   25.4711 N   0  3  1  0  0  0
  -28.8143  -23.6522   22.3365 O   0  0  0  0  0  0
  -31.4848  -12.6128   19.1582 H   0  0  0  0  0  0
  -30.4141  -11.4743   19.9356 H   0  0  0  0  0  0
  -29.8000  -11.7403   17.5124 H   0  0  0  0  0  0
  -29.6382  -13.4667   17.7167 H   0  0  0  0  0  0
  -27.8995  -11.2795   18.8988 H   0  0  0  0  0  0
  -27.3852  -12.5249   17.7931 H   0  0  0  0  0  0
  -27.6421  -14.2441   19.4804 H   0  0  0  0  0  0
  -28.7304  -12.1154   21.3924 H   0  0  0  0  0  0
  -28.4222  -13.7745   21.8198 H   0  0  0  0  0  0
  -25.2772   -9.5684   22.4742 H   0  0  0  0  0  0
  -23.9978   -7.4655   22.7492 H   0  0  0  0  0  0
  -21.0805   -8.8793   19.8967 H   0  0  0  0  0  0
  -22.3680  -10.9687   19.6149 H   0  0  0  0  0  0
  -21.2033   -7.6132   23.9701 H   0  0  0  0  0  0
  -21.1466   -6.0498   25.9059 H   0  0  0  0  0  0
  -22.0612   -2.7583   23.2856 H   0  0  0  0  0  0
  -22.4060  -11.9911   22.4816 H   0  0  0  0  0  0
  -21.1083  -13.1323   22.2597 H   0  0  0  0  0  0
  -24.6619  -15.8458   20.5378 H   0  0  0  0  0  0
  -26.2654  -15.6285   20.0618 H   0  0  0  0  0  0
  -26.7210  -32.5390   23.1078 H   0  0  0  0  0  0
  -25.0105  -33.9671   25.0418 H   0  0  0  0  0  0
  -22.7232  -31.3028   21.3992 H   0  0  0  0  0  0
  -23.3737  -35.9624   23.3283 H   0  0  0  0  0  0
  -24.3568  -36.8905   22.2040 H   0  0  0  0  0  0
  -23.7248  -37.6481   23.6657 H   0  0  0  0  0  0
  -26.1156  -31.5268   20.6125 H   0  0  0  0  0  0
  -26.8533  -30.8137   22.0164 H   0  0  0  0  0  0
  -28.1205  -28.9216   21.2111 H   0  0  0  0  0  0
  -25.9332  -25.9431   18.9488 H   0  0  0  0  0  0
  -23.9793  -27.3351   18.9673 H   0  0  0  0  0  0
  -23.7685  -30.6005   19.4052 H   0  0  0  0  0  0
  -22.7641  -29.2569   19.8476 H   0  0  0  0  0  0
  -25.1284  -36.1910   25.0810 H   0  0  0  0  0  0
  -21.0017  -28.3302   24.1368 H   0  0  0  0  0  0
  -20.5666  -26.2317   23.3609 H   0  0  0  0  0  0
  -21.6656  -26.7418   22.1205 H   0  0  0  0  0  0
  -19.6915  -25.6294   21.1237 H   0  0  0  0  0  0
  -19.6714  -27.3188   20.6718 H   0  0  0  0  0  0
  -17.4207  -26.6698   21.4025 H   0  0  0  0  0  0
  -18.0363  -26.0098   22.9019 H   0  0  0  0  0  0
  -19.7940  -30.7302   24.2252 H   0  0  0  0  0  0
  -17.5012  -31.6257   24.5180 H   0  0  0  0  0  0
  -15.5366  -30.2981   23.7638 H   0  0  0  0  0  0
  -15.8708  -28.0820   22.7055 H   0  0  0  0  0  0
  -24.5951  -30.7038   25.7794 H   0  0  0  0  0  0
  -24.8921  -32.2899   26.4830 H   0  0  0  0  0  0
  -25.8083  -30.8949   27.0246 H   0  0  0  0  0  0
  -26.2893  -29.6723   24.1243 H   0  0  0  0  0  0
  -27.3986  -29.7213   25.4743 H   0  0  0  0  0  0
  -27.8805  -30.4184   23.9459 H   0  0  0  0  0  0
  -27.2722  -33.3588   26.2072 H   0  0  0  0  0  0
  -28.3918  -32.6825   25.0329 H   0  0  0  0  0  0
  -28.0746  -31.8396   26.5411 H   0  0  0  0  0  0
  -28.2588  -38.0103   24.7505 H   0  0  0  0  0  0
  -28.1105  -36.2634   24.6279 H   0  0  0  0  0  0
  -27.2311  -37.1421   25.8860 H   0  0  0  0  0  0
  -20.9393  -29.8778   21.6845 H   0  0  0  0  0  0
  -26.0170  -38.2822   24.1437 H   0  0  0  0  0  0
  -31.6455  -17.6718   21.5751 H   0  0  0  0  0  0
  -31.3229  -20.0842   21.8788 H   0  0  0  0  0  0
  -27.7762  -17.4071   19.7522 H   0  0  0  0  0  0
  -26.4907  -19.2953   19.2887 H   0  0  0  0  0  0
  -27.2327  -20.8912   19.2836 H   0  0  0  0  0  0
  -26.4687  -20.2721   20.7564 H   0  0  0  0  0  0
  -29.4634  -26.5029   28.3017 H   0  0  0  0  0  0
  -27.9104  -25.8943   27.7433 H   0  0  0  0  0  0
  -29.1252  -26.4123   26.5753 H   0  0  0  0  0  0
  -25.7620  -18.6082   27.9383 H   0  0  0  0  0  0
  -27.4220  -18.0326   27.8291 H   0  0  0  0  0  0
  -26.3602  -17.9461   26.4212 H   0  0  0  0  0  0
  -28.8568  -22.9140   19.2560 H   0  0  0  0  0  0
  -30.1066  -23.9460   19.8831 H   0  0  0  0  0  0
  -29.4054  -24.0236   28.4830 H   0  0  0  0  0  0
  -30.6330  -24.5267   27.3502 H   0  0  0  0  0  0
  -27.2690  -20.5455   27.7576 H   0  0  0  0  0  0
  -26.2551  -20.4475   26.3420 H   0  0  0  0  0  0
  -29.1397  -24.0209   25.4370 H   0  0  0  0  0  0
  -27.8313  -23.6399   26.5288 H   0  0  0  0  0  0
  -27.4932  -21.7563   23.1641 H   0  0  0  0  0  0
  -28.0055  -20.1311   22.9813 H   0  0  0  0  0  0
  -28.1237  -19.2900   25.1034 H   0  0  0  0  0  0
  -29.1829  -19.4939   26.4694 H   0  0  0  0  0  0
  -29.1679  -21.7559   27.4941 H   0  0  0  0  0  0
  -30.4608  -22.0510   26.3784 H   0  0  0  0  0  0
  -29.9405  -22.2420   24.0564 H   0  0  0  0  0  0
  -30.1435  -20.5256   24.1361 H   0  0  0  0  0  0
  -27.1372  -24.6371   20.2945 H   0  0  0  0  0  0
  -27.8764  -24.9251   18.7509 H   0  0  0  0  0  0
  -28.7608  -15.4356   20.7998 H   0  0  0  0  0  0
  -27.8082  -21.7670   25.3060 H   0  0  0  0  0  0
  1 25  1  0  0  0
  1 30  2  0  0  0
  1 90  1  0  0  0
  2  3  1  0  0  0
  2 25  1  0  0  0
  2 94  1  0  0  0
  2 95  1  0  0  0
  3  4  1  0  0  0
  3 96  1  0  0  0
  3 97  1  0  0  0
  4  5  1  0  0  0
  4 98  1  0  0  0
  4 99  1  0  0  0
  5  6  1  0  0  0
  5 26  1  0  0  0
  5100  1  0  0  0
  6 25  1  0  0  0
  6101  1  0  0  0
  6102  1  0  0  0
  7  8  2  0  0  0
  7 26  1  0  0  0
  7 29  1  0  0  0
  8  9  1  0  0  0
  8 22  1  0  0  0
  9 10  1  0  0  0
  9 27  2  0  0  0
 10 11  2  0  0  0
 10 15  1  0  0  0
 11 12  1  0  0  0
 11103  1  0  0  0
 12 13  2  0  0  0
 12104  1  0  0  0
 13 14  1  0  0  0
 13 31  1  0  0  0
 14 15  2  0  0  0
 14105  1  0  0  0
 15106  1  0  0  0
 16 17  2  0  0  0
 16 21  1  0  0  0
 16 31  1  0  0  0
 17 18  1  0  0  0
 17107  1  0  0  0
 18 19  2  0  0  0
 18108  1  0  0  0
 19 20  1  0  0  0
 19 24  1  0  0  0
 20 21  2  0  0  0
 20109  1  0  0  0
 21 23  1  0  0  0
 22 28  1  0  0  0
 22 32  2  0  0  0
 26 27  1  0  0  0
 28110  1  0  0  0
 28111  1  0  0  0
 29112  1  0  0  0
 29113  1  0  0  0
 33 34  1  0  0  0
 33 66  1  0  0  0
 33 70  2  0  0  0
 34 36  1  0  0  0
 34 59  1  0  0  0
 34114  1  0  0  0
 35 44  2  0  0  0
 35 45  1  0  0  0
 35 68  1  0  0  0
 36 56  1  0  0  0
 36115  1  0  0  0
 37 39  1  0  0  0
 37 47  1  0  0  0
 37 66  1  0  0  0
 37116  1  0  0  0
 38 43  2  0  0  0
 38 46  1  0  0  0
 38 47  1  0  0  0
 39 64  1  0  0  0
 39 67  2  0  0  0
 40 52  1  0  0  0
 40 53  2  0  0  0
 40 58  1  0  0  0
 41117  1  0  0  0
 41118  1  0  0  0
 41119  1  0  0  0
 41 48  1  0  0  0
 42 43  1  0  0  0
 42 66  1  0  0  0
 42120  1  0  0  0
 42121  1  0  0  0
 43 44  1  0  0  0
 44122  1  0  0  0
 45 46  2  0  0  0
 45123  1  0  0  0
 46124  1  0  0  0
 47125  1  0  0  0
 47126  1  0  0  0
 48 56  1  0  0  0
 48 65  1  0  0  0
 48127  1  0  0  0
 49 50  1  0  0  0
 49 53  1  0  0  0
 49 64  1  0  0  0
 49128  1  0  0  0
 50 51  1  0  0  0
 50129  1  0  0  0
 50130  1  0  0  0
 51 52  1  0  0  0
 51131  1  0  0  0
 51132  1  0  0  0
 52133  1  0  0  0
 52134  1  0  0  0
 53 54  1  0  0  0
 54 55  2  0  0  0
 54135  1  0  0  0
 55 57  1  0  0  0
 55136  1  0  0  0
 56 69  2  0  0  0
 57 58  2  0  0  0
 57137  1  0  0  0
 58138  1  0  0  0
 59 60  1  0  0  0
 59 61  1  0  0  0
 59 62  1  0  0  0
 60139  1  0  0  0
 60140  1  0  0  0
 60141  1  0  0  0
 61142  1  0  0  0
 61143  1  0  0  0
 61144  1  0  0  0
 62145  1  0  0  0
 62146  1  0  0  0
 62147  1  0  0  0
 63 65  1  0  0  0
 63148  1  0  0  0
 63149  1  0  0  0
 63150  1  0  0  0
 64151  1  0  0  0
 65152  1  0  0  0
 68 89  1  0  0  0
 71 72  2  0  0  0
 71 75  1  0  0  0
 71153  1  0  0  0
 72 76  1  0  0  0
 72154  1  0  0  0
 73 74  1  0  0  0
 73 75  2  0  0  0
 73155  1  0  0  0
 74 76  2  0  0  0
 74 78  1  0  0  0
 75 90  1  0  0  0
 76 91  1  0  0  0
 77 81  1  0  0  0
 77 91  1  0  0  0
 77 93  2  0  0  0
 78156  1  0  0  0
 78157  1  0  0  0
 78158  1  0  0  0
 79 82  1  0  0  0
 79159  1  0  0  0
 79160  1  0  0  0
 79161  1  0  0  0
 80 83  1  0  0  0
 80162  1  0  0  0
 80163  1  0  0  0
 80164  1  0  0  0
 81 89  1  0  0  0
 81165  1  0  0  0
 81166  1  0  0  0
 82 84  1  0  0  0
 82167  1  0  0  0
 82168  1  0  0  0
 83 86  1  0  0  0
 83169  1  0  0  0
 83170  1  0  0  0
 84 87  1  0  0  0
 84171  1  0  0  0
 84172  1  0  0  0
 85 88  1  0  0  0
 85 91  1  0  0  0
 85173  1  0  0  0
 85174  1  0  0  0
 86175  1  0  0  0
 86176  1  0  0  0
 86 92  1  0  0  0
 87 92  1  0  0  0
 87177  1  0  0  0
 87178  1  0  0  0
 88 92  1  0  0  0
 88179  1  0  0  0
 88180  1  0  0  0
 89181  1  0  0  0
 89182  1  0  0  0
 90183  1  0  0  0
 92184  1  0  0  0
M  CHG  1  92   1
M  ISO  4   1 100  68 101  89 101  90 100
M  END
> <chiral flag>
0

> <version>
0

> <s_m_source_file>
/data/baiqing/PycharmProjects/Reinvent-master-3.2/result/LINK_invent/BTK/process_docking_weight1_custom_sum_contain_oxygen_bond_distance_aromatic_linkinvent_7_9_3/rearranged_h_0005.sdf

> <i_m_source_file_index>
27

> <r_mmod_Potential_Energy-OPLS-2005>
236.963806152344

> <r_mmod_Stretch_Energy-OPLS-2005>
124.089599609375

> <r_mmod_Bend_Energy-OPLS-2005>
236.00813293457

> <r_mmod_Torsional_Energy-OPLS-2005>
327.1337890625

> <r_mmod_Improper_Torsional_Energy-OPLS-2005>
13.075080871582

> <r_mmod_Van_der_Waal_Energy-OPLS-2005>
145.226043701172

> <r_mmod_Electrostatic_Energy-OPLS-2005>
-259.152038574219

> <r_mmod_Solvation_Energy-OPLS-2005>
-434.471710205078

> <b_mmod_Minimization_Converged-OPLS-2005>
0

> <r_mmod_RMS_Derivative-OPLS-2005>
2.69341993331909

$$$$
27
                    3D
 Structure written by MMmdl.
174182  0  0  1  0            999 V2000
  -30.7824  -14.3104   20.7834 C   0  0  0  0  0  0
  -30.4252  -12.3093   19.3783 C   0  0  0  0  0  0
  -29.4771  -12.5538   18.1916 C   0  0  0  0  0  0
  -28.0083  -12.3866   18.6158 C   0  0  0  0  0  0
  -27.6697  -13.1964   19.8914 C   0  0  2  0  0  0
  -28.7019  -12.9165   21.0031 C   0  0  0  0  0  0
  -25.2617  -13.8135   20.5688 C   0  0  0  0  0  0
  -24.1842  -13.0430   20.9157 C   0  0  0  0  0  0
  -24.6376  -11.6890   20.8712 C   0  0  0  0  0  0
  -23.9022  -10.4289   21.0401 C   0  0  0  0  0  0
  -24.3581   -9.4217   21.9190 C   0  0  0  0  0  0
  -23.6274   -8.2246   22.0760 C   0  0  0  0  0  0
  -22.4258   -8.0275   21.3556 C   0  0  0  0  0  0
  -21.9883   -9.0231   20.4653 C   0  0  0  0  0  0
  -22.7185  -10.2125   20.3066 C   0  0  0  0  0  0
  -21.6864   -6.0719   22.5268 C   0  0  0  0  0  0
  -21.4025   -6.5639   23.8191 C   0  0  0  0  0  0
  -21.3654   -5.6799   24.9157 C   0  0  0  0  0  0
  -21.6040   -4.3059   24.7220 C   0  0  0  0  0  0
  -21.8822   -3.8140   23.4347 C   0  0  0  0  0  0
  -21.9199   -4.6948   22.3399 C   0  0  0  0  0  0
  -22.7874  -13.5254   21.1803 C   0  0  0  0  0  0
  -22.1674   -4.2133   21.0978 F   0  0  0  0  0  0
  -21.5610   -3.4548   25.7736 F   0  0  0  0  0  0
  -30.0540  -13.2072   20.4814 N   0  0  0  0  0  0
  -26.3056  -12.9286   20.3429 N   0  0  0  0  0  0
  -25.9309  -11.6452   20.5777 N   0  0  0  0  0  0
  -22.0508  -12.8272   22.0374 N   0  0  0  0  0  0
  -25.4365  -15.1845   20.4092 N   0  0  0  0  0  0
  -31.7308  -14.7036   20.0931 O   0  0  0  0  0  0
  -21.6652   -6.8856   21.4233 O   0  0  0  0  0  0
  -22.3576  -14.5548   20.6620 O   0  0  0  0  0  0
  -24.6093  -31.8718   23.2114 C   0  0  0  0  0  0
  -25.9002  -32.4836   23.8390 C   0  0  1  0  0  0
  -27.2418  -27.4547   20.1176 C   0  0  0  0  0  0
  -25.5901  -33.8646   24.2344 N   0  0  0  0  0  0
  -23.4025  -30.4862   21.5519 C   0  0  2  0  0  0
  -24.8543  -28.9601   20.1126 C   0  0  0  0  0  0
  -22.7397  -29.4610   22.5005 C   0  0  0  0  0  0
  -18.0278  -28.1336   22.8484 C   0  0  0  0  0  0
  -24.1504  -36.7286   23.2643 C   0  0  0  0  0  0
  -25.9250  -30.8427   21.3646 C   0  0  0  0  0  0
  -26.0098  -29.4811   20.7099 C   0  0  0  0  0  0
  -27.2100  -28.7383   20.7014 C   0  0  0  0  0  0
  -26.0753  -26.9464   19.5071 C   0  0  0  0  0  0
  -24.8805  -27.6911   19.5057 C   0  0  0  0  0  0
  -23.6131  -29.8194   20.1661 C   0  0  0  0  0  0
  -25.4131  -36.3108   24.0354 C   0  0  1  0  0  0
  -20.5885  -28.3604   23.1344 C   0  0  2  0  0  0
  -20.6775  -26.9352   22.5416 C   0  0  0  0  0  0
  -19.5764  -26.6367   21.5205 C   0  0  0  0  0  0
  -18.1942  -26.7881   22.1623 C   0  0  0  0  0  0
  -19.1537  -28.8786   23.2911 C   0  0  0  0  0  0
  -18.9483  -30.1409   23.8884 C   0  0  0  0  0  0
  -17.6483  -30.6545   24.0539 C   0  0  0  0  0  0
  -25.9048  -34.9482   23.5152 C   0  0  0  0  0  0
  -16.5375  -29.9048   23.6313 C   0  0  0  0  0  0
  -16.7277  -28.6467   23.0341 C   0  0  0  0  0  0
  -26.4446  -31.6611   25.0710 C   0  0  0  0  0  0
  -25.3694  -31.3753   26.1434 C   0  0  0  0  0  0
  -27.0287  -30.3079   24.6031 C   0  0  0  0  0  0
  -27.6029  -32.4336   25.7455 C   0  0  0  0  0  0
  -27.5594  -37.1800   24.8482 C   0  0  0  0  0  0
  -21.4120  -29.2994   22.3739 N   0  0  0  0  0  0
  -26.4314  -37.3794   23.9431 N   0  0  0  0  0  0
  -24.6627  -31.0794   22.1024 N   0  0  0  0  0  0
  -23.4160  -28.8138   23.3053 O   0  0  0  0  0  0
  -28.3654  -26.6692   20.2193 O   0  0  0  0  0  0
  -26.5599  -34.8923   22.4694 O   0  0  0  0  0  0
  -23.5303  -32.1469   23.7518 O   0  0  0  0  0  0
  -31.8370  -18.2593   22.5191 C   0  0  0  0  0  0
  -31.8013  -18.3436   23.9166 C   0  0  0  0  0  0
  -31.3967  -17.0959   21.8810 C   0  0  0  0  0  0
  -31.3025  -17.2948   24.7359 C   0  0  0  0  0  0
  -30.9103  -16.0835   24.0684 C   0  0  0  0  0  0
  -30.9494  -15.9977   22.6432 C   0  0  0  0  0  0
  -30.2679  -22.6052   24.5651 C   0  0  0  0  0  0
  -30.4639  -14.8482   24.8457 C   0  0  0  0  0  0
  -30.9724  -20.1266   26.4311 C   0  0  0  0  0  0
  -31.8335  -18.8729   26.7580 C   0  0  0  0  0  0
  -29.4248  -24.9089   21.6687 C   0  0  0  0  0  0
  -31.7789  -21.4276   26.1953 C   0  0  0  0  0  0
  -29.1027  -23.9052   22.8064 C   0  0  0  0  0  0
  -28.1424  -25.5546   21.1007 C   0  0  0  0  0  0
  -31.2509  -17.4992   26.2888 C   0  0  1  0  0  0
  -29.8437  -17.2809   26.9551 C   0  0  0  0  0  0
  -30.4736  -14.8234   21.9902 N   0  0  0  0  0  0
  -31.4618  -22.1203   24.9368 N   0  0  0  0  0  0
  -30.2901  -23.2842   23.4089 N   0  0  0  0  0  0
  -29.2422  -22.4469   25.2282 O   0  0  0  0  0  0
  -32.1073  -16.6179   26.8190 F   0  0  0  0  0  0
  -29.5351  -16.0011   27.1501 F   0  0  0  0  0  0
  -29.7812  -17.8538   28.1587 F   0  0  0  0  0  0
  -28.8866  -17.8188   26.1981 F   0  0  0  0  0  0
  -31.4605  -12.4548   19.0632 H   0  0  0  0  0  0
  -30.3630  -11.2737   19.7133 H   0  0  0  0  0  0
  -29.7102  -11.8686   17.3771 H   0  0  0  0  0  0
  -29.6316  -13.5619   17.7994 H   0  0  0  0  0  0
  -27.8292  -11.3251   18.7929 H   0  0  0  0  0  0
  -27.3406  -12.6782   17.8036 H   0  0  0  0  0  0
  -27.7359  -14.2546   19.6374 H   0  0  0  0  0  0
  -28.6578  -11.8695   21.3127 H   0  0  0  0  0  0
  -28.4275  -13.4890   21.8896 H   0  0  0  0  0  0
  -25.2714   -9.5722   22.4778 H   0  0  0  0  0  0
  -23.9981   -7.4662   22.7507 H   0  0  0  0  0  0
  -21.0802   -8.8735   19.8981 H   0  0  0  0  0  0
  -22.3608  -10.9664   19.6191 H   0  0  0  0  0  0
  -21.2037   -7.6154   23.9687 H   0  0  0  0  0  0
  -21.1468   -6.0535   25.9051 H   0  0  0  0  0  0
  -22.0605   -2.7603   23.2850 H   0  0  0  0  0  0
  -22.4112  -11.9929   22.4767 H   0  0  0  0  0  0
  -21.1133  -13.1328   22.2570 H   0  0  0  0  0  0
  -24.6760  -15.8454   20.5245 H   0  0  0  0  0  0
  -26.2972  -15.6209   20.1021 H   0  0  0  0  0  0
  -26.7048  -32.5540   23.1150 H   0  0  0  0  0  0
  -25.0036  -33.9821   25.0482 H   0  0  0  0  0  0
  -22.6904  -31.2986   21.4042 H   0  0  0  0  0  0
  -23.3780  -35.9588   23.3325 H   0  0  0  0  0  0
  -24.3585  -36.8862   22.2038 H   0  0  0  0  0  0
  -23.7238  -37.6501   23.6639 H   0  0  0  0  0  0
  -26.0355  -31.6135   20.6008 H   0  0  0  0  0  0
  -26.8137  -30.8941   21.9796 H   0  0  0  0  0  0
  -28.0991  -29.1262   21.1805 H   0  0  0  0  0  0
  -26.0850  -25.9624   19.0626 H   0  0  0  0  0  0
  -23.9921  -27.2790   19.0479 H   0  0  0  0  0  0
  -23.7184  -30.5951   19.4065 H   0  0  0  0  0  0
  -22.7397  -29.2314   19.8758 H   0  0  0  0  0  0
  -25.1307  -36.1971   25.0847 H   0  0  0  0  0  0
  -20.9974  -28.3156   24.1474 H   0  0  0  0  0  0
  -20.5714  -26.2192   23.3584 H   0  0  0  0  0  0
  -21.6634  -26.7392   22.1204 H   0  0  0  0  0  0
  -19.6947  -25.6298   21.1212 H   0  0  0  0  0  0
  -19.6746  -27.3149   20.6718 H   0  0  0  0  0  0
  -17.4240  -26.6652   21.3999 H   0  0  0  0  0  0
  -18.0324  -25.9980   22.8970 H   0  0  0  0  0  0
  -19.7960  -30.7210   24.2243 H   0  0  0  0  0  0
  -17.5056  -31.6231   24.5118 H   0  0  0  0  0  0
  -15.5373  -30.2961   23.7645 H   0  0  0  0  0  0
  -15.8672  -28.0785   22.7079 H   0  0  0  0  0  0
  -24.5876  -30.7080   25.7792 H   0  0  0  0  0  0
  -24.8838  -32.2910   26.4816 H   0  0  0  0  0  0
  -25.8011  -30.8965   27.0230 H   0  0  0  0  0  0
  -26.2828  -29.6844   24.1076 H   0  0  0  0  0  0
  -27.4105  -29.7306   25.4460 H   0  0  0  0  0  0
  -27.8635  -30.4449   23.9153 H   0  0  0  0  0  0
  -27.2668  -33.3671   26.1984 H   0  0  0  0  0  0
  -28.3848  -32.6841   25.0279 H   0  0  0  0  0  0
  -28.0662  -31.8466   26.5394 H   0  0  0  0  0  0
  -28.2621  -38.0088   24.7531 H   0  0  0  0  0  0
  -28.1086  -36.2628   24.6324 H   0  0  0  0  0  0
  -27.2302  -37.1445   25.8877 H   0  0  0  0  0  0
  -20.9291  -29.8676   21.6925 H   0  0  0  0  0  0
  -26.0212  -38.2876   24.1423 H   0  0  0  0  0  0
  -32.1903  -19.0958   21.9348 H   0  0  0  0  0  0
  -32.1785  -19.2626   24.3322 H   0  0  0  0  0  0
  -31.4122  -17.0651   20.8013 H   0  0  0  0  0  0
  -31.0327  -14.7191   25.7650 H   0  0  0  0  0  0
  -30.6132  -13.9187   24.2987 H   0  0  0  0  0  0
  -29.3996  -14.9085   25.0727 H   0  0  0  0  0  0
  -30.2836  -20.2991   27.2601 H   0  0  0  0  0  0
  -30.3242  -19.9213   25.5800 H   0  0  0  0  0  0
  -31.9719  -18.8432   27.8398 H   0  0  0  0  0  0
  -32.8483  -18.9693   26.3726 H   0  0  0  0  0  0
  -29.9768  -24.4124   20.8694 H   0  0  0  0  0  0
  -30.0797  -25.6855   22.0595 H   0  0  0  0  0  0
  -32.8502  -21.2181   26.1962 H   0  0  0  0  0  0
  -31.6247  -22.1170   27.0268 H   0  0  0  0  0  0
  -28.4425  -23.1195   22.4369 H   0  0  0  0  0  0
  -28.5488  -24.4196   23.5969 H   0  0  0  0  0  0
  -27.5675  -24.7869   20.5826 H   0  0  0  0  0  0
  -27.5285  -25.8794   21.9451 H   0  0  0  0  0  0
  -29.8027  -14.2721   22.5041 H   0  0  0  0  0  0
  -32.2563  -22.3255   24.3449 H   0  0  0  0  0  0
  -31.1677  -23.3749   22.9157 H   0  0  0  0  0  0
  1 25  1  0  0  0
  1 30  2  0  0  0
  1 87  1  0  0  0
  2  3  1  0  0  0
  2 25  1  0  0  0
  2 95  1  0  0  0
  2 96  1  0  0  0
  3  4  1  0  0  0
  3 97  1  0  0  0
  3 98  1  0  0  0
  4  5  1  0  0  0
  4 99  1  0  0  0
  4100  1  0  0  0
  5  6  1  0  0  0
  5 26  1  0  0  0
  5101  1  0  0  0
  6 25  1  0  0  0
  6102  1  0  0  0
  6103  1  0  0  0
  7  8  2  0  0  0
  7 26  1  0  0  0
  7 29  1  0  0  0
  8  9  1  0  0  0
  8 22  1  0  0  0
  9 10  1  0  0  0
  9 27  2  0  0  0
 10 11  2  0  0  0
 10 15  1  0  0  0
 11 12  1  0  0  0
 11104  1  0  0  0
 12 13  2  0  0  0
 12105  1  0  0  0
 13 14  1  0  0  0
 13 31  1  0  0  0
 14 15  2  0  0  0
 14106  1  0  0  0
 15107  1  0  0  0
 16 17  2  0  0  0
 16 21  1  0  0  0
 16 31  1  0  0  0
 17 18  1  0  0  0
 17108  1  0  0  0
 18 19  2  0  0  0
 18109  1  0  0  0
 19 20  1  0  0  0
 19 24  1  0  0  0
 20 21  2  0  0  0
 20110  1  0  0  0
 21 23  1  0  0  0
 22 28  1  0  0  0
 22 32  2  0  0  0
 26 27  1  0  0  0
 28111  1  0  0  0
 28112  1  0  0  0
 29113  1  0  0  0
 29114  1  0  0  0
 33 34  1  0  0  0
 33 66  1  0  0  0
 33 70  2  0  0  0
 34 36  1  0  0  0
 34 59  1  0  0  0
 34115  1  0  0  0
 35 44  2  0  0  0
 35 45  1  0  0  0
 35 68  1  0  0  0
 36 56  1  0  0  0
 36116  1  0  0  0
 37 39  1  0  0  0
 37 47  1  0  0  0
 37 66  1  0  0  0
 37117  1  0  0  0
 38 43  2  0  0  0
 38 46  1  0  0  0
 38 47  1  0  0  0
 39 64  1  0  0  0
 39 67  2  0  0  0
 40 52  1  0  0  0
 40 53  2  0  0  0
 40 58  1  0  0  0
 41118  1  0  0  0
 41119  1  0  0  0
 41120  1  0  0  0
 41 48  1  0  0  0
 42 43  1  0  0  0
 42 66  1  0  0  0
 42121  1  0  0  0
 42122  1  0  0  0
 43 44  1  0  0  0
 44123  1  0  0  0
 45 46  2  0  0  0
 45124  1  0  0  0
 46125  1  0  0  0
 47126  1  0  0  0
 47127  1  0  0  0
 48 56  1  0  0  0
 48 65  1  0  0  0
 48128  1  0  0  0
 49 50  1  0  0  0
 49 53  1  0  0  0
 49 64  1  0  0  0
 49129  1  0  0  0
 50 51  1  0  0  0
 50130  1  0  0  0
 50131  1  0  0  0
 51 52  1  0  0  0
 51132  1  0  0  0
 51133  1  0  0  0
 52134  1  0  0  0
 52135  1  0  0  0
 53 54  1  0  0  0
 54 55  2  0  0  0
 54136  1  0  0  0
 55 57  1  0  0  0
 55137  1  0  0  0
 56 69  2  0  0  0
 57 58  2  0  0  0
 57138  1  0  0  0
 58139  1  0  0  0
 59 60  1  0  0  0
 59 61  1  0  0  0
 59 62  1  0  0  0
 60140  1  0  0  0
 60141  1  0  0  0
 60142  1  0  0  0
 61143  1  0  0  0
 61144  1  0  0  0
 61145  1  0  0  0
 62146  1  0  0  0
 62147  1  0  0  0
 62148  1  0  0  0
 63 65  1  0  0  0
 63149  1  0  0  0
 63150  1  0  0  0
 63151  1  0  0  0
 64152  1  0  0  0
 65153  1  0  0  0
 68 84  1  0  0  0
 71 72  2  0  0  0
 71 73  1  0  0  0
 71154  1  0  0  0
 72 74  1  0  0  0
 72155  1  0  0  0
 73 76  2  0  0  0
 73156  1  0  0  0
 74 75  2  0  0  0
 74 85  1  0  0  0
 75 76  1  0  0  0
 75 78  1  0  0  0
 76 87  1  0  0  0
 77 88  1  0  0  0
 77 89  1  0  0  0
 77 90  2  0  0  0
 78157  1  0  0  0
 78158  1  0  0  0
 78159  1  0  0  0
 79 80  1  0  0  0
 79 82  1  0  0  0
 79160  1  0  0  0
 79161  1  0  0  0
 80 85  1  0  0  0
 80162  1  0  0  0
 80163  1  0  0  0
 81 83  1  0  0  0
 81 84  1  0  0  0
 81164  1  0  0  0
 81165  1  0  0  0
 82 88  1  0  0  0
 82166  1  0  0  0
 82167  1  0  0  0
 83 89  1  0  0  0
 83168  1  0  0  0
 83169  1  0  0  0
 84170  1  0  0  0
 84171  1  0  0  0
 85 86  1  0  0  0
 85 91  1  0  0  0
 86 92  1  0  0  0
 86 93  1  0  0  0
 86 94  1  0  0  0
 87172  1  0  0  0
 88173  1  0  0  0
 89174  1  0  0  0
M  ISO  4   1 100  68 101  84 101  87 100
M  END
> <chiral flag>
0

> <version>
0

> <s_m_source_file>
/data/baiqing/PycharmProjects/Reinvent-master-3.2/result/LINK_invent/BTK/process_docking_weight1_custom_sum_contain_oxygen_bond_distance_aromatic_linkinvent_7_9_3/rearranged_h_0005.sdf

> <i_m_source_file_index>
28

> <r_mmod_Potential_Energy-OPLS-2005>
-42.4052085876465

> <r_mmod_Stretch_Energy-OPLS-2005>
47.3669509887695

> <r_mmod_Bend_Energy-OPLS-2005>
108.384963989258

> <r_mmod_Torsional_Energy-OPLS-2005>
260.920196533203

> <r_mmod_Improper_Torsional_Energy-OPLS-2005>
3.72023630142212

> <r_mmod_Van_der_Waal_Energy-OPLS-2005>
184.670562744141

> <r_mmod_Electrostatic_Energy-OPLS-2005>
-415.538238525391

> <r_mmod_Solvation_Energy-OPLS-2005>
-245.658157348633

> <b_mmod_Minimization_Converged-OPLS-2005>
0

> <r_mmod_RMS_Derivative-OPLS-2005>
4.49805688858032

$$$$
28
                    3D
 Structure written by MMmdl.
161169  0  0  1  0            999 V2000
  -30.7666  -14.3485   20.6957 C   0  0  0  0  0  0
  -30.4218  -12.2823   19.3888 C   0  0  0  0  0  0
  -29.4872  -12.5312   18.1904 C   0  0  0  0  0  0
  -28.0112  -12.3854   18.6064 C   0  0  0  0  0  0
  -27.6709  -13.1983   19.8829 C   0  0  2  0  0  0
  -28.7077  -12.9187   20.9932 C   0  0  0  0  0  0
  -25.2634  -13.8148   20.5668 C   0  0  0  0  0  0
  -24.1863  -13.0440   20.9155 C   0  0  0  0  0  0
  -24.6399  -11.6901   20.8716 C   0  0  0  0  0  0
  -23.9059  -10.4295   21.0399 C   0  0  0  0  0  0
  -24.3608   -9.4208   21.9182 C   0  0  0  0  0  0
  -23.6284   -8.2243   22.0753 C   0  0  0  0  0  0
  -22.4267   -8.0282   21.3544 C   0  0  0  0  0  0
  -21.9901   -9.0254   20.4645 C   0  0  0  0  0  0
  -22.7229  -10.2135   20.3051 C   0  0  0  0  0  0
  -21.6850   -6.0734   22.5280 C   0  0  0  0  0  0
  -21.4010   -6.5638   23.8211 C   0  0  0  0  0  0
  -21.3656   -5.6791   24.9172 C   0  0  0  0  0  0
  -21.6044   -4.3055   24.7226 C   0  0  0  0  0  0
  -21.8819   -3.8146   23.4346 C   0  0  0  0  0  0
  -21.9192   -4.6961   22.3401 C   0  0  0  0  0  0
  -22.7887  -13.5251   21.1823 C   0  0  0  0  0  0
  -22.1662   -4.2147   21.0981 F   0  0  0  0  0  0
  -21.5628   -3.4539   25.7737 F   0  0  0  0  0  0
  -30.0548  -13.2150   20.4644 N   0  0  0  0  0  0
  -26.3071  -12.9303   20.3383 N   0  0  0  0  0  0
  -25.9327  -11.6468   20.5747 N   0  0  0  0  0  0
  -22.0511  -12.8256   22.0373 N   0  0  0  0  0  0
  -25.4386  -15.1860   20.4082 N   0  0  0  0  0  0
  -31.7725  -14.6501   20.0458 O   0  0  0  0  0  0
  -21.6634   -6.8876   21.4240 O   0  0  0  0  0  0
  -22.3579  -14.5555   20.6665 O   0  0  0  0  0  0
  -24.6086  -31.8723   23.2128 C   0  0  0  0  0  0
  -25.8992  -32.4854   23.8413 C   0  0  1  0  0  0
  -27.2420  -27.4828   20.0977 C   0  0  0  0  0  0
  -25.5852  -33.8649   24.2342 N   0  0  0  0  0  0
  -23.3954  -30.4936   21.5517 C   0  0  2  0  0  0
  -24.8442  -28.9643   20.1135 C   0  0  0  0  0  0
  -22.7385  -29.4670   22.5009 C   0  0  0  0  0  0
  -18.0259  -28.1394   22.8508 C   0  0  0  0  0  0
  -24.1477  -36.7330   23.2641 C   0  0  0  0  0  0
  -25.9157  -30.8564   21.3544 C   0  0  0  0  0  0
  -25.9973  -29.4917   20.7075 C   0  0  0  0  0  0
  -27.1997  -28.7595   20.6993 C   0  0  0  0  0  0
  -26.0818  -26.9622   19.4932 C   0  0  0  0  0  0
  -24.8783  -27.6960   19.5036 C   0  0  0  0  0  0
  -23.6023  -29.8235   20.1656 C   0  0  0  0  0  0
  -25.4102  -36.3139   24.0343 C   0  0  1  0  0  0
  -20.5851  -28.3656   23.1345 C   0  0  2  0  0  0
  -20.6755  -26.9397   22.5436 C   0  0  0  0  0  0
  -19.5737  -26.6401   21.5232 C   0  0  0  0  0  0
  -18.1911  -26.7943   22.1635 C   0  0  0  0  0  0
  -19.1515  -28.8840   23.2926 C   0  0  0  0  0  0
  -18.9448  -30.1448   23.8938 C   0  0  0  0  0  0
  -17.6457  -30.6604   24.0583 C   0  0  0  0  0  0
  -25.9021  -34.9497   23.5144 C   0  0  0  0  0  0
  -16.5342  -29.9117   23.6326 C   0  0  0  0  0  0
  -16.7256  -28.6529   23.0353 C   0  0  0  0  0  0
  -26.4446  -31.6624   25.0717 C   0  0  0  0  0  0
  -25.3725  -31.3713   26.1470 C   0  0  0  0  0  0
  -27.0262  -30.3073   24.6040 C   0  0  0  0  0  0
  -27.6034  -32.4330   25.7474 C   0  0  0  0  0  0
  -27.5580  -37.1821   24.8466 C   0  0  0  0  0  0
  -21.4120  -29.3028   22.3751 N   0  0  0  0  0  0
  -26.4297  -37.3810   23.9404 N   0  0  0  0  0  0
  -24.6581  -31.0868   22.0996 N   0  0  0  0  0  0
  -23.4182  -28.8218   23.3037 O   0  0  0  0  0  0
  -28.3940  -26.7401   20.0816 O   0  0  0  0  0  0
  -26.5598  -34.8940   22.4714 O   0  0  0  0  0  0
  -23.5291  -32.1446   23.7553 O   0  0  0  0  0  0
  -31.7069  -17.1633   21.6470 C   0  0  0  0  0  0
  -31.8699  -18.5017   22.0528 C   0  0  0  0  0  0
  -29.8578  -18.3395   23.4079 C   0  0  0  0  0  0
  -30.5992  -16.4104   22.1038 C   0  0  0  0  0  0
  -30.9348  -19.1091   22.9259 C   0  0  0  0  0  0
  -29.6881  -17.0041   22.9990 C   0  0  0  0  0  0
  -30.3089  -25.9262   21.3544 C   0  0  0  0  0  0
  -28.8470  -26.3818   21.3890 C   0  0  0  0  0  0
  -32.5073  -23.7464   22.3570 C   0  0  0  0  0  0
  -31.6128  -22.7254   23.0815 C   0  0  0  0  0  0
  -32.2354  -25.2046   22.7700 C   0  0  0  0  0  0
  -31.9040  -21.2847   22.6519 C   0  0  0  0  0  0
  -30.3210  -15.0694   21.7332 N   0  0  0  0  0  0
  -30.8509  -25.6067   22.5364 N   0  0  0  0  0  0
  -30.9403  -25.8754   20.2948 O   0  0  0  0  0  0
  -31.0061  -20.4216   23.3390 O   0  0  0  0  0  0
  -28.6330  -16.2842   23.4539 F   0  0  0  0  0  0
  -31.4653  -12.3842   19.0839 H   0  0  0  0  0  0
  -30.3196  -11.2551   19.7423 H   0  0  0  0  0  0
  -29.7189  -11.8375   17.3810 H   0  0  0  0  0  0
  -29.6591  -13.5330   17.7930 H   0  0  0  0  0  0
  -27.8158  -11.3262   18.7784 H   0  0  0  0  0  0
  -27.3582  -12.6838   17.7857 H   0  0  0  0  0  0
  -27.7366  -14.2551   19.6234 H   0  0  0  0  0  0
  -28.6675  -11.8675   21.2835 H   0  0  0  0  0  0
  -28.4497  -13.4698   21.8977 H   0  0  0  0  0  0
  -25.2754   -9.5685   22.4752 H   0  0  0  0  0  0
  -23.9991   -7.4638   22.7478 H   0  0  0  0  0  0
  -21.0828   -8.8771   19.8957 H   0  0  0  0  0  0
  -22.3686  -10.9667   19.6156 H   0  0  0  0  0  0
  -21.1999   -7.6146   23.9712 H   0  0  0  0  0  0
  -21.1477   -6.0523   25.9076 H   0  0  0  0  0  0
  -22.0601   -2.7610   23.2846 H   0  0  0  0  0  0
  -22.4109  -11.9919   22.4772 H   0  0  0  0  0  0
  -21.1129  -13.1296   22.2555 H   0  0  0  0  0  0
  -24.6821  -15.8499   20.5326 H   0  0  0  0  0  0
  -26.3053  -15.6217   20.1169 H   0  0  0  0  0  0
  -26.7068  -32.5599   23.1197 H   0  0  0  0  0  0
  -24.9972  -33.9820   25.0464 H   0  0  0  0  0  0
  -22.6818  -31.3084   21.4140 H   0  0  0  0  0  0
  -23.3736  -35.9665   23.3335 H   0  0  0  0  0  0
  -24.3571  -36.8909   22.2047 H   0  0  0  0  0  0
  -23.7231  -37.6545   23.6633 H   0  0  0  0  0  0
  -26.0121  -31.6219   20.5831 H   0  0  0  0  0  0
  -26.8086  -30.9199   21.9638 H   0  0  0  0  0  0
  -28.0897  -29.1781   21.1477 H   0  0  0  0  0  0
  -26.1085  -25.9873   19.0274 H   0  0  0  0  0  0
  -23.9913  -27.2844   19.0424 H   0  0  0  0  0  0
  -23.7019  -30.5983   19.4045 H   0  0  0  0  0  0
  -22.7290  -29.2367   19.8748 H   0  0  0  0  0  0
  -25.1284  -36.2021   25.0837 H   0  0  0  0  0  0
  -20.9943  -28.3225   24.1467 H   0  0  0  0  0  0
  -20.5677  -26.2262   23.3622 H   0  0  0  0  0  0
  -21.6623  -26.7468   22.1211 H   0  0  0  0  0  0
  -19.6889  -25.6320   21.1240 H   0  0  0  0  0  0
  -19.6678  -27.3232   20.6780 H   0  0  0  0  0  0
  -17.4184  -26.6705   21.4026 H   0  0  0  0  0  0
  -18.0295  -26.0095   22.9040 H   0  0  0  0  0  0
  -19.7928  -30.7257   24.2322 H   0  0  0  0  0  0
  -17.5016  -31.6288   24.5186 H   0  0  0  0  0  0
  -15.5345  -30.3043   23.7629 H   0  0  0  0  0  0
  -15.8657  -28.0875   22.7037 H   0  0  0  0  0  0
  -24.5887  -30.7080   25.7796 H   0  0  0  0  0  0
  -24.8934  -32.2865   26.4952 H   0  0  0  0  0  0
  -25.8085  -30.8852   27.0206 H   0  0  0  0  0  0
  -26.2782  -29.6857   24.1099 H   0  0  0  0  0  0
  -27.4053  -29.7285   25.4474 H   0  0  0  0  0  0
  -27.8608  -30.4408   23.9154 H   0  0  0  0  0  0
  -27.2653  -33.3607   26.2107 H   0  0  0  0  0  0
  -28.3810  -32.6931   25.0280 H   0  0  0  0  0  0
  -28.0739  -31.8425   26.5346 H   0  0  0  0  0  0
  -28.2621  -38.0098   24.7507 H   0  0  0  0  0  0
  -28.1052  -36.2632   24.6306 H   0  0  0  0  0  0
  -27.2297  -37.1488   25.8869 H   0  0  0  0  0  0
  -20.9271  -29.8772   21.7001 H   0  0  0  0  0  0
  -26.0203  -38.2891   24.1410 H   0  0  0  0  0  0
  -32.4458  -16.7454   20.9814 H   0  0  0  0  0  0
  -32.7254  -19.0418   21.6737 H   0  0  0  0  0  0
  -29.1405  -18.7824   24.0830 H   0  0  0  0  0  0
  -28.7731  -27.2061   22.1000 H   0  0  0  0  0  0
  -28.2232  -25.5719   21.7703 H   0  0  0  0  0  0
  -32.3799  -23.6455   21.2784 H   0  0  0  0  0  0
  -33.5548  -23.5147   22.5557 H   0  0  0  0  0  0
  -30.5629  -22.9421   22.8799 H   0  0  0  0  0  0
  -31.7486  -22.8177   24.1602 H   0  0  0  0  0  0
  -32.9119  -25.8793   22.2412 H   0  0  0  0  0  0
  -32.4500  -25.3306   23.8317 H   0  0  0  0  0  0
  -32.9366  -21.0217   22.8868 H   0  0  0  0  0  0
  -31.7658  -21.1979   21.5725 H   0  0  0  0  0  0
  -29.5319  -14.6635   22.2154 H   0  0  0  0  0  0
  -30.2542  -25.6862   23.3506 H   0  0  0  0  0  0
  1 25  1  0  0  0
  1 30  2  0  0  0
  1 83  1  0  0  0
  2  3  1  0  0  0
  2 25  1  0  0  0
  2 88  1  0  0  0
  2 89  1  0  0  0
  3  4  1  0  0  0
  3 90  1  0  0  0
  3 91  1  0  0  0
  4  5  1  0  0  0
  4 92  1  0  0  0
  4 93  1  0  0  0
  5  6  1  0  0  0
  5 26  1  0  0  0
  5 94  1  0  0  0
  6 25  1  0  0  0
  6 95  1  0  0  0
  6 96  1  0  0  0
  7  8  2  0  0  0
  7 26  1  0  0  0
  7 29  1  0  0  0
  8  9  1  0  0  0
  8 22  1  0  0  0
  9 10  1  0  0  0
  9 27  2  0  0  0
 10 11  2  0  0  0
 10 15  1  0  0  0
 11 12  1  0  0  0
 11 97  1  0  0  0
 12 13  2  0  0  0
 12 98  1  0  0  0
 13 14  1  0  0  0
 13 31  1  0  0  0
 14 15  2  0  0  0
 14 99  1  0  0  0
 15100  1  0  0  0
 16 17  2  0  0  0
 16 21  1  0  0  0
 16 31  1  0  0  0
 17 18  1  0  0  0
 17101  1  0  0  0
 18 19  2  0  0  0
 18102  1  0  0  0
 19 20  1  0  0  0
 19 24  1  0  0  0
 20 21  2  0  0  0
 20103  1  0  0  0
 21 23  1  0  0  0
 22 28  1  0  0  0
 22 32  2  0  0  0
 26 27  1  0  0  0
 28104  1  0  0  0
 28105  1  0  0  0
 29106  1  0  0  0
 29107  1  0  0  0
 33 34  1  0  0  0
 33 66  1  0  0  0
 33 70  2  0  0  0
 34 36  1  0  0  0
 34 59  1  0  0  0
 34108  1  0  0  0
 35 44  2  0  0  0
 35 45  1  0  0  0
 35 68  1  0  0  0
 36 56  1  0  0  0
 36109  1  0  0  0
 37 39  1  0  0  0
 37 47  1  0  0  0
 37 66  1  0  0  0
 37110  1  0  0  0
 38 43  2  0  0  0
 38 46  1  0  0  0
 38 47  1  0  0  0
 39 64  1  0  0  0
 39 67  2  0  0  0
 40 52  1  0  0  0
 40 53  2  0  0  0
 40 58  1  0  0  0
 41111  1  0  0  0
 41112  1  0  0  0
 41113  1  0  0  0
 41 48  1  0  0  0
 42 43  1  0  0  0
 42 66  1  0  0  0
 42114  1  0  0  0
 42115  1  0  0  0
 43 44  1  0  0  0
 44116  1  0  0  0
 45 46  2  0  0  0
 45117  1  0  0  0
 46118  1  0  0  0
 47119  1  0  0  0
 47120  1  0  0  0
 48 56  1  0  0  0
 48 65  1  0  0  0
 48121  1  0  0  0
 49 50  1  0  0  0
 49 53  1  0  0  0
 49 64  1  0  0  0
 49122  1  0  0  0
 50 51  1  0  0  0
 50123  1  0  0  0
 50124  1  0  0  0
 51 52  1  0  0  0
 51125  1  0  0  0
 51126  1  0  0  0
 52127  1  0  0  0
 52128  1  0  0  0
 53 54  1  0  0  0
 54 55  2  0  0  0
 54129  1  0  0  0
 55 57  1  0  0  0
 55130  1  0  0  0
 56 69  2  0  0  0
 57 58  2  0  0  0
 57131  1  0  0  0
 58132  1  0  0  0
 59 60  1  0  0  0
 59 61  1  0  0  0
 59 62  1  0  0  0
 60133  1  0  0  0
 60134  1  0  0  0
 60135  1  0  0  0
 61136  1  0  0  0
 61137  1  0  0  0
 61138  1  0  0  0
 62139  1  0  0  0
 62140  1  0  0  0
 62141  1  0  0  0
 63 65  1  0  0  0
 63142  1  0  0  0
 63143  1  0  0  0
 63144  1  0  0  0
 64145  1  0  0  0
 65146  1  0  0  0
 68 78  1  0  0  0
 71 72  2  0  0  0
 71 74  1  0  0  0
 71147  1  0  0  0
 72 75  1  0  0  0
 72148  1  0  0  0
 73 75  2  0  0  0
 73 76  1  0  0  0
 73149  1  0  0  0
 74 76  2  0  0  0
 74 83  1  0  0  0
 75 86  1  0  0  0
 76 87  1  0  0  0
 77 78  1  0  0  0
 77 84  1  0  0  0
 77 85  2  0  0  0
 78150  1  0  0  0
 78151  1  0  0  0
 79 80  1  0  0  0
 79 81  1  0  0  0
 79152  1  0  0  0
 79153  1  0  0  0
 80 82  1  0  0  0
 80154  1  0  0  0
 80155  1  0  0  0
 81 84  1  0  0  0
 81156  1  0  0  0
 81157  1  0  0  0
 82 86  1  0  0  0
 82158  1  0  0  0
 82159  1  0  0  0
 83160  1  0  0  0
 84161  1  0  0  0
M  ISO  4   1 100  68 101  78 101  83 100
M  END
> <chiral flag>
0

> <version>
0

> <s_m_source_file>
/data/baiqing/PycharmProjects/Reinvent-master-3.2/result/LINK_invent/BTK/process_docking_weight1_custom_sum_contain_oxygen_bond_distance_aromatic_linkinvent_7_9_3/rearranged_h_0005.sdf

> <i_m_source_file_index>
29

> <r_mmod_Potential_Energy-OPLS-2005>
-151.659561157227

> <r_mmod_Stretch_Energy-OPLS-2005>
31.9238433837891

> <r_mmod_Bend_Energy-OPLS-2005>
99.6001281738281

> <r_mmod_Torsional_Energy-OPLS-2005>
223.923385620117

> <r_mmod_Improper_Torsional_Energy-OPLS-2005>
2.46660685539246

> <r_mmod_Van_der_Waal_Energy-OPLS-2005>
164.625579833984

> <r_mmod_Electrostatic_Energy-OPLS-2005>
-440.248779296875

> <r_mmod_Solvation_Energy-OPLS-2005>
-240.305435180664

> <b_mmod_Minimization_Converged-OPLS-2005>
0

> <r_mmod_RMS_Derivative-OPLS-2005>
1.4900461435318

$$$$
29
                    3D
 Structure written by MMmdl.
170178  0  0  1  0            999 V2000
  -30.7449  -14.3784   20.6898 C   0  0  0  0  0  0
  -30.4206  -12.2984   19.3904 C   0  0  0  0  0  0
  -29.4852  -12.5350   18.1897 C   0  0  0  0  0  0
  -28.0092  -12.3873   18.6050 C   0  0  0  0  0  0
  -27.6667  -13.1989   19.8817 C   0  0  2  0  0  0
  -28.7042  -12.9243   20.9918 C   0  0  0  0  0  0
  -25.2612  -13.8143   20.5669 C   0  0  0  0  0  0
  -24.1852  -13.0435   20.9146 C   0  0  0  0  0  0
  -24.6391  -11.6892   20.8711 C   0  0  0  0  0  0
  -23.9054  -10.4284   21.0401 C   0  0  0  0  0  0
  -24.3612   -9.4203   21.9183 C   0  0  0  0  0  0
  -23.6283   -8.2243   22.0757 C   0  0  0  0  0  0
  -22.4263   -8.0282   21.3546 C   0  0  0  0  0  0
  -21.9905   -9.0254   20.4650 C   0  0  0  0  0  0
  -22.7226  -10.2126   20.3055 C   0  0  0  0  0  0
  -21.6857   -6.0729   22.5276 C   0  0  0  0  0  0
  -21.4017   -6.5641   23.8205 C   0  0  0  0  0  0
  -21.3656   -5.6796   24.9173 C   0  0  0  0  0  0
  -21.6045   -4.3055   24.7227 C   0  0  0  0  0  0
  -21.8820   -3.8142   23.4348 C   0  0  0  0  0  0
  -21.9193   -4.6958   22.3400 C   0  0  0  0  0  0
  -22.7877  -13.5237   21.1818 C   0  0  0  0  0  0
  -22.1662   -4.2144   21.0978 F   0  0  0  0  0  0
  -21.5629   -3.4534   25.7739 F   0  0  0  0  0  0
  -30.0452  -13.2356   20.4602 N   0  0  0  0  0  0
  -26.3044  -12.9299   20.3373 N   0  0  0  0  0  0
  -25.9316  -11.6461   20.5737 N   0  0  0  0  0  0
  -22.0518  -12.8243   22.0383 N   0  0  0  0  0  0
  -25.4350  -15.1862   20.4094 N   0  0  0  0  0  0
  -31.7778  -14.6622   20.0746 O   0  0  0  0  0  0
  -21.6636   -6.8871   21.4234 O   0  0  0  0  0  0
  -22.3574  -14.5554   20.6673 O   0  0  0  0  0  0
  -24.6120  -31.8724   23.2105 C   0  0  0  0  0  0
  -25.9019  -32.4848   23.8417 C   0  0  1  0  0  0
  -27.2470  -27.4745   20.0849 C   0  0  0  0  0  0
  -25.5866  -33.8651   24.2329 N   0  0  0  0  0  0
  -23.3994  -30.4926   21.5498 C   0  0  2  0  0  0
  -24.8477  -28.9565   20.1219 C   0  0  0  0  0  0
  -22.7401  -29.4678   22.4997 C   0  0  0  0  0  0
  -18.0260  -28.1347   22.8486 C   0  0  0  0  0  0
  -24.1492  -36.7319   23.2639 C   0  0  0  0  0  0
  -25.9242  -30.8434   21.3657 C   0  0  0  0  0  0
  -26.0036  -29.4780   20.7181 C   0  0  0  0  0  0
  -27.2051  -28.7402   20.7068 C   0  0  0  0  0  0
  -26.0800  -26.9561   19.4900 C   0  0  0  0  0  0
  -24.8784  -27.6890   19.5107 C   0  0  0  0  0  0
  -23.6084  -29.8219   20.1666 C   0  0  0  0  0  0
  -25.4102  -36.3137   24.0353 C   0  0  1  0  0  0
  -20.5839  -28.3664   23.1301 C   0  0  2  0  0  0
  -20.6739  -26.9403   22.5395 C   0  0  0  0  0  0
  -19.5734  -26.6356   21.5172 C   0  0  0  0  0  0
  -18.1909  -26.7892   22.1603 C   0  0  0  0  0  0
  -19.1505  -28.8815   23.2899 C   0  0  0  0  0  0
  -18.9452  -30.1408   23.8919 C   0  0  0  0  0  0
  -17.6463  -30.6574   24.0535 C   0  0  0  0  0  0
  -25.9025  -34.9503   23.5142 C   0  0  0  0  0  0
  -16.5354  -29.9072   23.6303 C   0  0  0  0  0  0
  -16.7247  -28.6475   23.0346 C   0  0  0  0  0  0
  -26.4463  -31.6604   25.0725 C   0  0  0  0  0  0
  -25.3746  -31.3705   26.1483 C   0  0  0  0  0  0
  -27.0282  -30.3043   24.6087 C   0  0  0  0  0  0
  -27.6048  -32.4319   25.7480 C   0  0  0  0  0  0
  -27.5593  -37.1833   24.8472 C   0  0  0  0  0  0
  -21.4127  -29.3035   22.3716 N   0  0  0  0  0  0
  -26.4294  -37.3823   23.9425 N   0  0  0  0  0  0
  -24.6617  -31.0862   22.0981 N   0  0  0  0  0  0
  -23.4174  -28.8247   23.3059 O   0  0  0  0  0  0
  -28.4051  -26.7426   20.0159 O   0  0  0  0  0  0
  -26.5605  -34.8952   22.4712 O   0  0  0  0  0  0
  -23.5329  -32.1469   23.7506 O   0  0  0  0  0  0
  -30.1203  -16.8451   23.3980 C   0  0  0  0  0  0
  -30.4750  -18.0945   23.9494 C   0  0  0  0  0  0
  -31.5247  -17.2914   21.4628 C   0  0  0  0  0  0
  -30.6482  -16.4233   22.1569 C   0  0  0  0  0  0
  -31.3458  -18.9627   23.2480 C   0  0  0  0  0  0
  -31.8661  -18.5438   22.0048 C   0  0  0  0  0  0
  -29.8376  -26.8694   23.4609 C   0  0  0  0  0  0
  -29.9419  -26.8590   21.9310 C   0  0  0  0  0  0
  -32.0126  -24.3550   26.2578 C   0  0  0  0  0  0
  -31.6950  -22.8481   26.3550 C   0  0  0  0  0  0
  -30.7555  -25.2402   26.1629 C   0  0  0  0  0  0
  -31.6524  -22.1898   24.9657 C   0  0  0  0  0  0
  -31.0366  -26.6598   25.6261 C   0  0  0  0  0  0
  -28.7811  -26.1099   21.2371 C   0  0  0  0  0  0
  -31.3444  -20.6836   24.9681 C   0  0  0  0  0  0
  -30.2292  -15.1531   21.6624 N   0  0  0  0  0  0
  -30.9661  -26.7018   24.1653 N   0  0  0  0  0  0
  -28.7481  -27.0434   24.0103 O   0  0  0  0  0  0
  -31.7171  -20.2195   23.6763 O   0  0  0  0  0  0
  -32.7025  -19.3597   21.3165 F   0  0  0  0  0  0
  -31.4632  -12.4074   19.0863 H   0  0  0  0  0  0
  -30.3254  -11.2728   19.7493 H   0  0  0  0  0  0
  -29.7194  -11.8364   17.3854 H   0  0  0  0  0  0
  -29.6537  -13.5342   17.7837 H   0  0  0  0  0  0
  -27.8153  -11.3277   18.7757 H   0  0  0  0  0  0
  -27.3569  -12.6863   17.7844 H   0  0  0  0  0  0
  -27.7297  -14.2556   19.6194 H   0  0  0  0  0  0
  -28.6724  -11.8727   21.2806 H   0  0  0  0  0  0
  -28.4430  -13.4705   21.8981 H   0  0  0  0  0  0
  -25.2758   -9.5684   22.4749 H   0  0  0  0  0  0
  -23.9992   -7.4643   22.7485 H   0  0  0  0  0  0
  -21.0836   -8.8772   19.8962 H   0  0  0  0  0  0
  -22.3687  -10.9670   19.6164 H   0  0  0  0  0  0
  -21.2013   -7.6150   23.9709 H   0  0  0  0  0  0
  -21.1480   -6.0525   25.9074 H   0  0  0  0  0  0
  -22.0602   -2.7606   23.2849 H   0  0  0  0  0  0
  -22.4127  -11.9890   22.4761 H   0  0  0  0  0  0
  -21.1142  -13.1279   22.2590 H   0  0  0  0  0  0
  -24.6722  -15.8447   20.5204 H   0  0  0  0  0  0
  -26.2987  -15.6250   20.1154 H   0  0  0  0  0  0
  -26.7092  -32.5564   23.1185 H   0  0  0  0  0  0
  -25.0012  -33.9820   25.0470 H   0  0  0  0  0  0
  -22.6856  -31.3061   21.4074 H   0  0  0  0  0  0
  -23.3770  -35.9638   23.3319 H   0  0  0  0  0  0
  -24.3615  -36.8911   22.2057 H   0  0  0  0  0  0
  -23.7249  -37.6524   23.6650 H   0  0  0  0  0  0
  -26.0439  -31.6143   20.6042 H   0  0  0  0  0  0
  -26.8056  -30.8887   21.9926 H   0  0  0  0  0  0
  -28.0974  -29.1508   21.1578 H   0  0  0  0  0  0
  -26.1048  -25.9861   19.0113 H   0  0  0  0  0  0
  -23.9922  -27.2780   19.0471 H   0  0  0  0  0  0
  -23.7208  -30.5970   19.4078 H   0  0  0  0  0  0
  -22.7336  -29.2420   19.8673 H   0  0  0  0  0  0
  -25.1279  -36.2010   25.0858 H   0  0  0  0  0  0
  -20.9942  -28.3217   24.1420 H   0  0  0  0  0  0
  -20.5600  -26.2298   23.3597 H   0  0  0  0  0  0
  -21.6621  -26.7403   22.1242 H   0  0  0  0  0  0
  -19.6913  -25.6254   21.1218 H   0  0  0  0  0  0
  -19.6645  -27.3160   20.6694 H   0  0  0  0  0  0
  -17.4170  -26.6622   21.4012 H   0  0  0  0  0  0
  -18.0330  -26.0005   22.8983 H   0  0  0  0  0  0
  -19.7949  -30.7164   24.2349 H   0  0  0  0  0  0
  -17.5045  -31.6268   24.5118 H   0  0  0  0  0  0
  -15.5367  -30.2992   23.7602 H   0  0  0  0  0  0
  -15.8650  -28.0784   22.7084 H   0  0  0  0  0  0
  -24.5883  -30.7082   25.7842 H   0  0  0  0  0  0
  -24.8975  -32.2845   26.5024 H   0  0  0  0  0  0
  -25.8112  -30.8819   27.0194 H   0  0  0  0  0  0
  -26.2812  -29.6820   24.1124 H   0  0  0  0  0  0
  -27.4022  -29.7260   25.4549 H   0  0  0  0  0  0
  -27.8675  -30.4332   23.9237 H   0  0  0  0  0  0
  -27.2659  -33.3591   26.2129 H   0  0  0  0  0  0
  -28.3827  -32.6941   25.0287 H   0  0  0  0  0  0
  -28.0751  -31.8395   26.5348 H   0  0  0  0  0  0
  -28.2633  -38.0111   24.7540 H   0  0  0  0  0  0
  -28.1076  -36.2662   24.6269 H   0  0  0  0  0  0
  -27.2336  -37.1457   25.8880 H   0  0  0  0  0  0
  -20.9301  -29.8814   21.6967 H   0  0  0  0  0  0
  -26.0190  -38.2920   24.1367 H   0  0  0  0  0  0
  -29.4345  -16.2119   23.9432 H   0  0  0  0  0  0
  -30.0501  -18.3656   24.9048 H   0  0  0  0  0  0
  -31.9407  -17.0345   20.5010 H   0  0  0  0  0  0
  -30.8926  -26.4317   21.6085 H   0  0  0  0  0  0
  -29.9570  -27.8987   21.6093 H   0  0  0  0  0  0
  -32.6723  -24.5348   25.4070 H   0  0  0  0  0  0
  -32.5804  -24.6642   27.1374 H   0  0  0  0  0  0
  -30.7578  -22.6830   26.8899 H   0  0  0  0  0  0
  -32.4702  -22.3555   26.9439 H   0  0  0  0  0  0
  -30.3249  -25.3206   27.1618 H   0  0  0  0  0  0
  -29.9927  -24.7576   25.5498 H   0  0  0  0  0  0
  -32.6233  -22.3435   24.4917 H   0  0  0  0  0  0
  -30.9198  -22.6991   24.3371 H   0  0  0  0  0  0
  -32.0168  -27.0138   25.9512 H   0  0  0  0  0  0
  -30.3168  -27.3667   26.0454 H   0  0  0  0  0  0
  -27.9126  -25.9776   21.8871 H   0  0  0  0  0  0
  -29.1106  -25.0987   20.9953 H   0  0  0  0  0  0
  -30.2855  -20.5306   25.1803 H   0  0  0  0  0  0
  -31.9327  -20.1648   25.7278 H   0  0  0  0  0  0
  -29.4248  -14.7488   22.1167 H   0  0  0  0  0  0
  -31.8349  -26.6018   23.6538 H   0  0  0  0  0  0
  1 25  1  0  0  0
  1 30  2  0  0  0
  1 86  1  0  0  0
  2  3  1  0  0  0
  2 25  1  0  0  0
  2 91  1  0  0  0
  2 92  1  0  0  0
  3  4  1  0  0  0
  3 93  1  0  0  0
  3 94  1  0  0  0
  4  5  1  0  0  0
  4 95  1  0  0  0
  4 96  1  0  0  0
  5  6  1  0  0  0
  5 26  1  0  0  0
  5 97  1  0  0  0
  6 25  1  0  0  0
  6 98  1  0  0  0
  6 99  1  0  0  0
  7  8  2  0  0  0
  7 26  1  0  0  0
  7 29  1  0  0  0
  8  9  1  0  0  0
  8 22  1  0  0  0
  9 10  1  0  0  0
  9 27  2  0  0  0
 10 11  2  0  0  0
 10 15  1  0  0  0
 11 12  1  0  0  0
 11100  1  0  0  0
 12 13  2  0  0  0
 12101  1  0  0  0
 13 14  1  0  0  0
 13 31  1  0  0  0
 14 15  2  0  0  0
 14102  1  0  0  0
 15103  1  0  0  0
 16 17  2  0  0  0
 16 21  1  0  0  0
 16 31  1  0  0  0
 17 18  1  0  0  0
 17104  1  0  0  0
 18 19  2  0  0  0
 18105  1  0  0  0
 19 20  1  0  0  0
 19 24  1  0  0  0
 20 21  2  0  0  0
 20106  1  0  0  0
 21 23  1  0  0  0
 22 28  1  0  0  0
 22 32  2  0  0  0
 26 27  1  0  0  0
 28107  1  0  0  0
 28108  1  0  0  0
 29109  1  0  0  0
 29110  1  0  0  0
 33 34  1  0  0  0
 33 66  1  0  0  0
 33 70  2  0  0  0
 34 36  1  0  0  0
 34 59  1  0  0  0
 34111  1  0  0  0
 35 44  2  0  0  0
 35 45  1  0  0  0
 35 68  1  0  0  0
 36 56  1  0  0  0
 36112  1  0  0  0
 37 39  1  0  0  0
 37 47  1  0  0  0
 37 66  1  0  0  0
 37113  1  0  0  0
 38 43  2  0  0  0
 38 46  1  0  0  0
 38 47  1  0  0  0
 39 64  1  0  0  0
 39 67  2  0  0  0
 40 52  1  0  0  0
 40 53  2  0  0  0
 40 58  1  0  0  0
 41114  1  0  0  0
 41115  1  0  0  0
 41116  1  0  0  0
 41 48  1  0  0  0
 42 43  1  0  0  0
 42 66  1  0  0  0
 42117  1  0  0  0
 42118  1  0  0  0
 43 44  1  0  0  0
 44119  1  0  0  0
 45 46  2  0  0  0
 45120  1  0  0  0
 46121  1  0  0  0
 47122  1  0  0  0
 47123  1  0  0  0
 48 56  1  0  0  0
 48 65  1  0  0  0
 48124  1  0  0  0
 49 50  1  0  0  0
 49 53  1  0  0  0
 49 64  1  0  0  0
 49125  1  0  0  0
 50 51  1  0  0  0
 50126  1  0  0  0
 50127  1  0  0  0
 51 52  1  0  0  0
 51128  1  0  0  0
 51129  1  0  0  0
 52130  1  0  0  0
 52131  1  0  0  0
 53 54  1  0  0  0
 54 55  2  0  0  0
 54132  1  0  0  0
 55 57  1  0  0  0
 55133  1  0  0  0
 56 69  2  0  0  0
 57 58  2  0  0  0
 57134  1  0  0  0
 58135  1  0  0  0
 59 60  1  0  0  0
 59 61  1  0  0  0
 59 62  1  0  0  0
 60136  1  0  0  0
 60137  1  0  0  0
 60138  1  0  0  0
 61139  1  0  0  0
 61140  1  0  0  0
 61141  1  0  0  0
 62142  1  0  0  0
 62143  1  0  0  0
 62144  1  0  0  0
 63 65  1  0  0  0
 63145  1  0  0  0
 63146  1  0  0  0
 63147  1  0  0  0
 64148  1  0  0  0
 65149  1  0  0  0
 68 84  1  0  0  0
 71 72  2  0  0  0
 71 74  1  0  0  0
 71150  1  0  0  0
 72 75  1  0  0  0
 72151  1  0  0  0
 73 74  2  0  0  0
 73 76  1  0  0  0
 73152  1  0  0  0
 74 86  1  0  0  0
 75 76  2  0  0  0
 75 89  1  0  0  0
 76 90  1  0  0  0
 77 78  1  0  0  0
 77 87  1  0  0  0
 77 88  2  0  0  0
 78 84  1  0  0  0
 78153  1  0  0  0
 78154  1  0  0  0
 79 80  1  0  0  0
 79 81  1  0  0  0
 79155  1  0  0  0
 79156  1  0  0  0
 80 82  1  0  0  0
 80157  1  0  0  0
 80158  1  0  0  0
 81 83  1  0  0  0
 81159  1  0  0  0
 81160  1  0  0  0
 82 85  1  0  0  0
 82161  1  0  0  0
 82162  1  0  0  0
 83 87  1  0  0  0
 83163  1  0  0  0
 83164  1  0  0  0
 84165  1  0  0  0
 84166  1  0  0  0
 85 89  1  0  0  0
 85167  1  0  0  0
 85168  1  0  0  0
 86169  1  0  0  0
 87170  1  0  0  0
M  ISO  4   1 100  68 101  84 101  86 100
M  END
> <chiral flag>
0

> <version>
0

> <s_m_source_file>
/data/baiqing/PycharmProjects/Reinvent-master-3.2/result/LINK_invent/BTK/process_docking_weight1_custom_sum_contain_oxygen_bond_distance_aromatic_linkinvent_7_9_3/rearranged_h_0005.sdf

> <i_m_source_file_index>
30

> <r_mmod_Potential_Energy-OPLS-2005>
-76.5248565673828

> <r_mmod_Stretch_Energy-OPLS-2005>
33.841365814209

> <r_mmod_Bend_Energy-OPLS-2005>
109.64225769043

> <r_mmod_Torsional_Energy-OPLS-2005>
247.94514465332

> <r_mmod_Improper_Torsional_Energy-OPLS-2005>
1.79828703403473

> <r_mmod_Van_der_Waal_Energy-OPLS-2005>
156.292953491211

> <r_mmod_Electrostatic_Energy-OPLS-2005>
-392.187774658203

> <r_mmod_Solvation_Energy-OPLS-2005>
-240.184204101562

> <b_mmod_Minimization_Converged-OPLS-2005>
0

> <r_mmod_RMS_Derivative-OPLS-2005>
3.0575852394104

$$$$
30
                    3D
 Structure written by MMmdl.
154162  0  0  1  0            999 V2000
  -30.5038  -14.9929   20.4076 C   0  0  0  0  0  0
  -30.4376  -12.6165   19.5140 C   0  0  0  0  0  0
  -29.5244  -12.5504   18.2652 C   0  0  0  0  0  0
  -28.0515  -12.3468   18.6654 C   0  0  0  0  0  0
  -27.6298  -13.2598   19.8461 C   0  0  2  0  0  0
  -28.6684  -13.2734   20.9869 C   0  0  0  0  0  0
  -25.2438  -13.8253   20.5724 C   0  0  0  0  0  0
  -24.1764  -13.0459   20.9244 C   0  0  0  0  0  0
  -24.6388  -11.6951   20.8737 C   0  0  0  0  0  0
  -23.9075  -10.4315   21.0387 C   0  0  0  0  0  0
  -24.3627   -9.4228   21.9160 C   0  0  0  0  0  0
  -23.6301   -8.2264   22.0735 C   0  0  0  0  0  0
  -22.4280   -8.0295   21.3537 C   0  0  0  0  0  0
  -21.9921   -9.0260   20.4629 C   0  0  0  0  0  0
  -22.7242  -10.2142   20.3036 C   0  0  0  0  0  0
  -21.6854   -6.0751   22.5284 C   0  0  0  0  0  0
  -21.4015   -6.5646   23.8221 C   0  0  0  0  0  0
  -21.3663   -5.6788   24.9178 C   0  0  0  0  0  0
  -21.6042   -4.3053   24.7220 C   0  0  0  0  0  0
  -21.8820   -3.8156   23.4334 C   0  0  0  0  0  0
  -21.9195   -4.6979   22.3402 C   0  0  0  0  0  0
  -22.7784  -13.5217   21.1913 C   0  0  0  0  0  0
  -22.1660   -4.2167   21.0979 F   0  0  0  0  0  0
  -21.5633   -3.4532   25.7737 F   0  0  0  0  0  0
  -29.9407  -13.7120   20.4019 N   0  0  0  0  0  0
  -26.2872  -12.9506   20.3264 N   0  0  0  0  0  0
  -25.9334  -11.6619   20.5730 N   0  0  0  0  0  0
  -22.0439  -12.8179   22.0456 N   0  0  0  0  0  0
  -25.4091  -15.1978   20.4185 N   0  0  0  0  0  0
  -31.6883  -15.0648   20.0600 O   0  0  0  0  0  0
  -21.6636   -6.8885   21.4248 O   0  0  0  0  0  0
  -22.3447  -14.5513   20.6755 O   0  0  0  0  0  0
  -24.6459  -31.8423   23.1854 C   0  0  0  0  0  0
  -25.9225  -32.4691   23.8259 C   0  0  1  0  0  0
  -27.2095  -27.0929   20.1589 C   0  0  0  0  0  0
  -25.5946  -33.8492   24.2188 N   0  0  0  0  0  0
  -23.4527  -30.4624   21.5322 C   0  0  2  0  0  0
  -24.9000  -28.8847   20.1124 C   0  0  0  0  0  0
  -22.7566  -29.4582   22.4846 C   0  0  0  0  0  0
  -18.0317  -28.1394   22.8470 C   0  0  0  0  0  0
  -24.1481  -36.7243   23.2651 C   0  0  0  0  0  0
  -26.0132  -30.7026   21.3932 C   0  0  0  0  0  0
  -26.0809  -29.3104   20.7337 C   0  0  0  0  0  0
  -27.2358  -28.4320   20.7384 C   0  0  0  0  0  0
  -26.0021  -26.7832   19.4938 C   0  0  0  0  0  0
  -24.8771  -27.6355   19.4765 C   0  0  0  0  0  0
  -23.6804  -29.7908   20.1523 C   0  0  0  0  0  0
  -25.4122  -36.3038   24.0331 C   0  0  1  0  0  0
  -20.5914  -28.3758   23.1192 C   0  0  2  0  0  0
  -20.6808  -26.9463   22.5385 C   0  0  0  0  0  0
  -19.5765  -26.6369   21.5222 C   0  0  0  0  0  0
  -18.1957  -26.7913   22.1656 C   0  0  0  0  0  0
  -19.1564  -28.8885   23.2828 C   0  0  0  0  0  0
  -18.9484  -30.1480   23.8861 C   0  0  0  0  0  0
  -17.6467  -30.6574   24.0541 C   0  0  0  0  0  0
  -25.9080  -34.9407   23.5081 C   0  0  0  0  0  0
  -16.5370  -29.9057   23.6318 C   0  0  0  0  0  0
  -16.7308  -28.6478   23.0367 C   0  0  0  0  0  0
  -26.4515  -31.6563   25.0712 C   0  0  0  0  0  0
  -25.3687  -31.3761   26.1399 C   0  0  0  0  0  0
  -27.0406  -30.2955   24.6351 C   0  0  0  0  0  0
  -27.6037  -32.4337   25.7501 C   0  0  0  0  0  0
  -27.5576  -37.1784   24.8471 C   0  0  0  0  0  0
  -21.4256  -29.3094   22.3572 N   0  0  0  0  0  0
  -26.4285  -37.3756   23.9415 N   0  0  0  0  0  0
  -24.7240  -31.0254   22.0913 N   0  0  0  0  0  0
  -23.4169  -28.8128   23.3026 O   0  0  0  0  0  0
  -28.2453  -26.0734   20.2248 O   0  0  0  0  0  0
  -26.5668  -34.8909   22.4660 O   0  0  0  0  0  0
  -23.5565  -32.1312   23.7056 O   0  0  0  0  0  0
  -26.9226  -17.9813   19.1534 C   0  0  0  0  0  0
  -27.4686  -18.7599   20.1865 C   0  0  0  0  0  0
  -29.1420  -17.0973   18.6523 C   0  0  0  0  0  0
  -27.7755  -17.2388   18.3164 C   0  0  0  0  0  0
  -29.5859  -17.5274   19.9265 C   0  0  0  0  0  0
  -28.8706  -18.8049   20.3462 C   0  0  0  0  0  0
  -27.1907  -16.5189   17.1173 C   0  0  0  0  0  0
  -28.9485  -23.1556   20.3068 C   0  0  0  0  0  0
  -27.9240  -24.5265   20.2115 C   0  0  0  0  0  0
  -28.4815  -21.5060   20.3856 C   0  0  0  0  0  0
  -29.7400  -16.1809   20.6771 N   0  0  0  0  0  0
  -29.3679  -20.1975   20.4266 O   0  0  0  0  0  0
  -31.4673  -12.7842   19.1968 H   0  0  0  0  0  0
  -30.4479  -11.6631   20.0444 H   0  0  0  0  0  0
  -29.8492  -11.7477   17.6017 H   0  0  0  0  0  0
  -29.6209  -13.4759   17.6974 H   0  0  0  0  0  0
  -27.9235  -11.3017   18.9404 H   0  0  0  0  0  0
  -27.4007  -12.5181   17.8065 H   0  0  0  0  0  0
  -27.5969  -14.2704   19.4395 H   0  0  0  0  0  0
  -28.7622  -12.2827   21.4381 H   0  0  0  0  0  0
  -28.3583  -13.9507   21.7835 H   0  0  0  0  0  0
  -25.2775   -9.5722   22.4720 H   0  0  0  0  0  0
  -24.0023   -7.4656   22.7456 H   0  0  0  0  0  0
  -21.0857   -8.8777   19.8924 H   0  0  0  0  0  0
  -22.3696  -10.9674   19.6144 H   0  0  0  0  0  0
  -21.1998   -7.6150   23.9739 H   0  0  0  0  0  0
  -21.1478   -6.0510   25.9086 H   0  0  0  0  0  0
  -22.0588   -2.7620   23.2835 H   0  0  0  0  0  0
  -22.4046  -11.9849   22.4872 H   0  0  0  0  0  0
  -21.1037  -13.1182   22.2622 H   0  0  0  0  0  0
  -24.6407  -15.8455   20.5520 H   0  0  0  0  0  0
  -26.2475  -15.6468   20.0756 H   0  0  0  0  0  0
  -26.7303  -32.5289   23.0991 H   0  0  0  0  0  0
  -25.0044  -33.9598   25.0300 H   0  0  0  0  0  0
  -22.7583  -31.2915   21.3762 H   0  0  0  0  0  0
  -23.3772  -35.9544   23.3299 H   0  0  0  0  0  0
  -24.3561  -36.8887   22.2066 H   0  0  0  0  0  0
  -23.7198  -37.6424   23.6685 H   0  0  0  0  0  0
  -26.1800  -31.4558   20.6230 H   0  0  0  0  0  0
  -26.8786  -30.7491   22.0420 H   0  0  0  0  0  0
  -28.1334  -28.7536   21.2489 H   0  0  0  0  0  0
  -25.8868  -25.8349   18.9926 H   0  0  0  0  0  0
  -23.9791  -27.3063   18.9735 H   0  0  0  0  0  0
  -23.8155  -30.5644   19.3968 H   0  0  0  0  0  0
  -22.7936  -29.2344   19.8429 H   0  0  0  0  0  0
  -25.1304  -36.1881   25.0825 H   0  0  0  0  0  0
  -20.9994  -28.3398   24.1337 H   0  0  0  0  0  0
  -20.5695  -26.2371   23.3579 H   0  0  0  0  0  0
  -21.6659  -26.7451   22.1166 H   0  0  0  0  0  0
  -19.6974  -25.6247   21.1321 H   0  0  0  0  0  0
  -19.6669  -27.3136   20.6722 H   0  0  0  0  0  0
  -17.4183  -26.6644   21.4102 H   0  0  0  0  0  0
  -18.0376  -26.0077   22.9084 H   0  0  0  0  0  0
  -19.7947  -30.7330   24.2181 H   0  0  0  0  0  0
  -17.5020  -31.6279   24.5092 H   0  0  0  0  0  0
  -15.5377  -30.2954   23.7650 H   0  0  0  0  0  0
  -15.8687  -28.0784   22.7143 H   0  0  0  0  0  0
  -24.5873  -30.7108   25.7712 H   0  0  0  0  0  0
  -24.8853  -32.2936   26.4758 H   0  0  0  0  0  0
  -25.7940  -30.8969   27.0231 H   0  0  0  0  0  0
  -26.3054  -29.6662   24.1332 H   0  0  0  0  0  0
  -27.3970  -29.7277   25.4961 H   0  0  0  0  0  0
  -27.8970  -30.4186   23.9726 H   0  0  0  0  0  0
  -27.2632  -33.3673   26.1999 H   0  0  0  0  0  0
  -28.3875  -32.6858   25.0342 H   0  0  0  0  0  0
  -28.0678  -31.8522   26.5483 H   0  0  0  0  0  0
  -28.2600  -38.0079   24.7532 H   0  0  0  0  0  0
  -28.1072  -36.2614   24.6287 H   0  0  0  0  0  0
  -27.2292  -37.1416   25.8875 H   0  0  0  0  0  0
  -20.9497  -29.8732   21.6670 H   0  0  0  0  0  0
  -26.0166  -38.2835   24.1408 H   0  0  0  0  0  0
  -25.8672  -18.0542   18.9351 H   0  0  0  0  0  0
  -26.8212  -19.4938   20.6412 H   0  0  0  0  0  0
  -29.6929  -16.3395   18.1091 H   0  0  0  0  0  0
  -26.5020  -15.7401   17.4475 H   0  0  0  0  0  0
  -27.9685  -16.0568   16.5079 H   0  0  0  0  0  0
  -26.6368  -17.2174   16.4884 H   0  0  0  0  0  0
  -29.6080  -23.2303   19.4420 H   0  0  0  0  0  0
  -29.6053  -23.3244   21.1619 H   0  0  0  0  0  0
  -27.1996  -24.4021   21.0173 H   0  0  0  0  0  0
  -27.3488  -24.3498   19.3054 H   0  0  0  0  0  0
  -27.7936  -21.3652   19.5505 H   0  0  0  0  0  0
  -27.8548  -21.4369   21.2740 H   0  0  0  0  0  0
  -28.9336  -15.9783   21.2487 H   0  0  0  0  0  0
  1 25  1  0  0  0
  1 30  2  0  0  0
  1 81  1  0  0  0
  2  3  1  0  0  0
  2 25  1  0  0  0
  2 83  1  0  0  0
  2 84  1  0  0  0
  3  4  1  0  0  0
  3 85  1  0  0  0
  3 86  1  0  0  0
  4  5  1  0  0  0
  4 87  1  0  0  0
  4 88  1  0  0  0
  5  6  1  0  0  0
  5 26  1  0  0  0
  5 89  1  0  0  0
  6 25  1  0  0  0
  6 90  1  0  0  0
  6 91  1  0  0  0
  7  8  2  0  0  0
  7 26  1  0  0  0
  7 29  1  0  0  0
  8  9  1  0  0  0
  8 22  1  0  0  0
  9 10  1  0  0  0
  9 27  2  0  0  0
 10 11  2  0  0  0
 10 15  1  0  0  0
 11 12  1  0  0  0
 11 92  1  0  0  0
 12 13  2  0  0  0
 12 93  1  0  0  0
 13 14  1  0  0  0
 13 31  1  0  0  0
 14 15  2  0  0  0
 14 94  1  0  0  0
 15 95  1  0  0  0
 16 17  2  0  0  0
 16 21  1  0  0  0
 16 31  1  0  0  0
 17 18  1  0  0  0
 17 96  1  0  0  0
 18 19  2  0  0  0
 18 97  1  0  0  0
 19 20  1  0  0  0
 19 24  1  0  0  0
 20 21  2  0  0  0
 20 98  1  0  0  0
 21 23  1  0  0  0
 22 28  1  0  0  0
 22 32  2  0  0  0
 26 27  1  0  0  0
 28 99  1  0  0  0
 28100  1  0  0  0
 29101  1  0  0  0
 29102  1  0  0  0
 33 34  1  0  0  0
 33 66  1  0  0  0
 33 70  2  0  0  0
 34 36  1  0  0  0
 34 59  1  0  0  0
 34103  1  0  0  0
 35 44  2  0  0  0
 35 45  1  0  0  0
 35 68  1  0  0  0
 36 56  1  0  0  0
 36104  1  0  0  0
 37 39  1  0  0  0
 37 47  1  0  0  0
 37 66  1  0  0  0
 37105  1  0  0  0
 38 43  2  0  0  0
 38 46  1  0  0  0
 38 47  1  0  0  0
 39 64  1  0  0  0
 39 67  2  0  0  0
 40 52  1  0  0  0
 40 53  2  0  0  0
 40 58  1  0  0  0
 41106  1  0  0  0
 41107  1  0  0  0
 41108  1  0  0  0
 41 48  1  0  0  0
 42 43  1  0  0  0
 42 66  1  0  0  0
 42109  1  0  0  0
 42110  1  0  0  0
 43 44  1  0  0  0
 44111  1  0  0  0
 45 46  2  0  0  0
 45112  1  0  0  0
 46113  1  0  0  0
 47114  1  0  0  0
 47115  1  0  0  0
 48 56  1  0  0  0
 48 65  1  0  0  0
 48116  1  0  0  0
 49 50  1  0  0  0
 49 53  1  0  0  0
 49 64  1  0  0  0
 49117  1  0  0  0
 50 51  1  0  0  0
 50118  1  0  0  0
 50119  1  0  0  0
 51 52  1  0  0  0
 51120  1  0  0  0
 51121  1  0  0  0
 52122  1  0  0  0
 52123  1  0  0  0
 53 54  1  0  0  0
 54 55  2  0  0  0
 54124  1  0  0  0
 55 57  1  0  0  0
 55125  1  0  0  0
 56 69  2  0  0  0
 57 58  2  0  0  0
 57126  1  0  0  0
 58127  1  0  0  0
 59 60  1  0  0  0
 59 61  1  0  0  0
 59 62  1  0  0  0
 60128  1  0  0  0
 60129  1  0  0  0
 60130  1  0  0  0
 61131  1  0  0  0
 61132  1  0  0  0
 61133  1  0  0  0
 62134  1  0  0  0
 62135  1  0  0  0
 62136  1  0  0  0
 63 65  1  0  0  0
 63137  1  0  0  0
 63138  1  0  0  0
 63139  1  0  0  0
 64140  1  0  0  0
 65141  1  0  0  0
 68 79  1  0  0  0
 71 72  2  0  0  0
 71 74  1  0  0  0
 71142  1  0  0  0
 72 76  1  0  0  0
 72143  1  0  0  0
 73 74  2  0  0  0
 73 75  1  0  0  0
 73144  1  0  0  0
 74 77  1  0  0  0
 75 76  2  0  0  0
 75 81  1  0  0  0
 76 82  1  0  0  0
 77145  1  0  0  0
 77146  1  0  0  0
 77147  1  0  0  0
 78 79  1  0  0  0
 78 80  1  0  0  0
 78148  1  0  0  0
 78149  1  0  0  0
 79150  1  0  0  0
 79151  1  0  0  0
 80 82  1  0  0  0
 80152  1  0  0  0
 80153  1  0  0  0
 81154  1  0  0  0
M  ISO  4   1 100  68 101  79 101  81 100
M  END
> <chiral flag>
0

> <version>
0

> <s_m_source_file>
/data/baiqing/PycharmProjects/Reinvent-master-3.2/result/LINK_invent/BTK/process_docking_weight1_custom_sum_contain_oxygen_bond_distance_aromatic_linkinvent_7_9_3/rearranged_h_0005.sdf

> <i_m_source_file_index>
31

> <r_mmod_Potential_Energy-OPLS-2005>
881.32763671875

> <r_mmod_Stretch_Energy-OPLS-2005>
335.894561767578

> <r_mmod_Bend_Energy-OPLS-2005>
318.838195800781

> <r_mmod_Torsional_Energy-OPLS-2005>
443.572204589844

> <r_mmod_Improper_Torsional_Energy-OPLS-2005>
31.8227920532227

> <r_mmod_Van_der_Waal_Energy-OPLS-2005>
131.809219360352

> <r_mmod_Electrostatic_Energy-OPLS-2005>
-395.417816162109

> <r_mmod_Solvation_Energy-OPLS-2005>
-212.952514648438

> <b_mmod_Minimization_Converged-OPLS-2005>
0

> <r_mmod_RMS_Derivative-OPLS-2005>
3.44083738327026

$$$$
31
                    3D
 Structure written by MMmdl.
188196  0  0  1  0            999 V2000
  -30.8951  -14.2184   20.7962 C   0  0  0  0  0  0
  -30.3979  -12.2901   19.3599 C   0  0  0  0  0  0
  -29.4602  -12.5609   18.1758 C   0  0  0  0  0  0
  -27.9989  -12.3901   18.6139 C   0  0  0  0  0  0
  -27.6679  -13.2122   19.8851 C   0  0  2  0  0  0
  -28.7143  -12.9834   21.0043 C   0  0  0  0  0  0
  -25.2591  -13.8178   20.5705 C   0  0  0  0  0  0
  -24.1843  -13.0461   20.9180 C   0  0  0  0  0  0
  -24.6396  -11.6919   20.8746 C   0  0  0  0  0  0
  -23.9052  -10.4301   21.0400 C   0  0  0  0  0  0
  -24.3591   -9.4220   21.9191 C   0  0  0  0  0  0
  -23.6264   -8.2259   22.0781 C   0  0  0  0  0  0
  -22.4258   -8.0272   21.3559 C   0  0  0  0  0  0
  -21.9891   -9.0247   20.4660 C   0  0  0  0  0  0
  -22.7218  -10.2131   20.3054 C   0  0  0  0  0  0
  -21.6850   -6.0723   22.5292 C   0  0  0  0  0  0
  -21.4010   -6.5637   23.8219 C   0  0  0  0  0  0
  -21.3653   -5.6802   24.9187 C   0  0  0  0  0  0
  -21.6041   -4.3065   24.7265 C   0  0  0  0  0  0
  -21.8808   -3.8146   23.4389 C   0  0  0  0  0  0
  -21.9180   -4.6949   22.3429 C   0  0  0  0  0  0
  -22.7862  -13.5244   21.1832 C   0  0  0  0  0  0
  -22.1652   -4.2122   21.1010 F   0  0  0  0  0  0
  -21.5627   -3.4556   25.7788 F   0  0  0  0  0  0
  -30.0672  -13.2018   20.4634 N   0  0  0  0  0  0
  -26.3063  -12.9381   20.3457 N   0  0  0  0  0  0
  -25.9337  -11.6533   20.5812 N   0  0  0  0  0  0
  -22.0484  -12.8257   22.0387 N   0  0  0  0  0  0
  -25.4309  -15.1888   20.4090 N   0  0  0  0  0  0
  -31.7235  -14.7046   20.0187 O   0  0  0  0  0  0
  -21.6635   -6.8858   21.4253 O   0  0  0  0  0  0
  -22.3561  -14.5552   20.6656 O   0  0  0  0  0  0
  -24.6144  -31.8682   23.2146 C   0  0  0  0  0  0
  -25.9050  -32.4814   23.8441 C   0  0  1  0  0  0
  -27.2288  -27.4599   20.0600 C   0  0  0  0  0  0
  -25.5919  -33.8617   24.2349 N   0  0  0  0  0  0
  -23.3978  -30.4962   21.5556 C   0  0  2  0  0  0
  -24.8382  -28.9639   20.1231 C   0  0  0  0  0  0
  -22.7389  -29.4668   22.5008 C   0  0  0  0  0  0
  -18.0246  -28.1403   22.8514 C   0  0  0  0  0  0
  -24.1465  -36.7295   23.2655 C   0  0  0  0  0  0
  -25.9280  -30.8337   21.3694 C   0  0  0  0  0  0
  -26.0002  -29.4696   20.7196 C   0  0  0  0  0  0
  -27.1959  -28.7215   20.6940 C   0  0  0  0  0  0
  -26.0364  -26.9529   19.4881 C   0  0  0  0  0  0
  -24.8482  -27.7001   19.5156 C   0  0  0  0  0  0
  -23.6019  -29.8317   20.1720 C   0  0  0  0  0  0
  -25.4096  -36.3102   24.0346 C   0  0  1  0  0  0
  -20.5839  -28.3683   23.1324 C   0  0  2  0  0  0
  -20.6713  -26.9409   22.5436 C   0  0  0  0  0  0
  -19.5688  -26.6400   21.5237 C   0  0  0  0  0  0
  -18.1872  -26.7958   22.1638 C   0  0  0  0  0  0
  -19.1498  -28.8871   23.2908 C   0  0  0  0  0  0
  -18.9426  -30.1472   23.8906 C   0  0  0  0  0  0
  -17.6431  -30.6598   24.0600 C   0  0  0  0  0  0
  -25.9037  -34.9469   23.5135 C   0  0  0  0  0  0
  -16.5320  -29.9099   23.6350 C   0  0  0  0  0  0
  -16.7246  -28.6523   23.0374 C   0  0  0  0  0  0
  -26.4502  -31.6597   25.0771 C   0  0  0  0  0  0
  -25.3756  -31.3654   26.1488 C   0  0  0  0  0  0
  -27.0427  -30.3066   24.6184 C   0  0  0  0  0  0
  -27.6051  -32.4373   25.7541 C   0  0  0  0  0  0
  -27.5566  -37.1782   24.8485 C   0  0  0  0  0  0
  -21.4125  -29.3042   22.3754 N   0  0  0  0  0  0
  -26.4280  -37.3785   23.9428 N   0  0  0  0  0  0
  -24.6647  -31.0817   22.1040 N   0  0  0  0  0  0
  -23.4172  -28.8189   23.3016 O   0  0  0  0  0  0
  -28.4214  -26.7721   20.0046 O   0  0  0  0  0  0
  -26.5579  -34.8936   22.4676 O   0  0  0  0  0  0
  -23.5338  -32.1434   23.7546 O   0  0  0  0  0  0
  -27.9917  -18.4679   26.2284 C   0  0  0  0  0  0
  -29.1209  -17.7618   26.6902 C   0  0  0  0  0  0
  -28.1064  -19.3556   25.1399 C   0  0  0  0  0  0
  -30.4777  -18.8614   24.9894 C   0  0  0  0  0  0
  -30.3780  -17.9695   26.0785 C   0  0  0  0  0  0
  -29.3450  -19.5463   24.4977 C   0  0  0  0  0  0
  -32.6587  -17.9792   26.8777 C   0  0  0  0  0  0
  -35.4469  -18.4664   25.2406 C   0  0  0  0  0  0
  -34.0224  -17.2782   27.0437 C   0  0  0  0  0  0
  -35.2480  -18.1734   26.7377 C   0  0  0  0  0  0
  -32.1270  -15.6933   24.0005 C   0  0  0  0  0  0
  -31.2269  -15.1619   25.1360 C   0  0  0  0  0  0
  -30.4911  -24.5121   20.0323 C   0  0  0  0  0  0
  -30.0060  -25.3534   18.8403 C   0  0  0  0  0  0
  -32.2686  -14.7603   22.7826 C   0  0  0  0  0  0
  -31.4741  -15.7978   26.5302 C   0  0  0  0  0  0
  -29.8637  -23.1063   20.0938 C   0  0  0  0  0  0
  -30.1053  -20.9015   21.1897 C   0  0  0  0  0  0
  -28.5499  -25.8094   18.9592 C   0  0  0  0  0  0
  -30.4753  -20.2092   22.5023 C   0  0  0  0  0  0
  -31.0071  -14.3937   22.1242 N   0  0  0  0  0  0
  -31.5489  -17.2727   26.5106 N   0  0  0  0  0  0
  -30.3510  -22.3564   21.2673 N   0  3  0  0  0  0
  -32.6146  -19.1965   27.0982 O   0  0  0  0  0  0
  -29.3923  -20.3919   23.4131 O   0  0  0  0  0  0
  -31.4386  -12.3848   19.0431 H   0  0  0  0  0  0
  -30.2843  -11.2598   19.7020 H   0  0  0  0  0  0
  -29.6867  -11.8831   17.3513 H   0  0  0  0  0  0
  -29.6174  -13.5733   17.7997 H   0  0  0  0  0  0
  -27.8218  -11.3299   18.7986 H   0  0  0  0  0  0
  -27.3280  -12.6703   17.8017 H   0  0  0  0  0  0
  -27.7183  -14.2638   19.6028 H   0  0  0  0  0  0
  -28.6500  -11.9644   21.3885 H   0  0  0  0  0  0
  -28.4986  -13.6459   21.8440 H   0  0  0  0  0  0
  -25.2718   -9.5732   22.4785 H   0  0  0  0  0  0
  -23.9969   -7.4682   22.7534 H   0  0  0  0  0  0
  -21.0814   -8.8742   19.8983 H   0  0  0  0  0  0
  -22.3622  -10.9663   19.6173 H   0  0  0  0  0  0
  -21.1988   -7.6141   23.9715 H   0  0  0  0  0  0
  -21.1484   -6.0539   25.9084 H   0  0  0  0  0  0
  -22.0572   -2.7598   23.2917 H   0  0  0  0  0  0
  -22.4071  -11.9906   22.4794 H   0  0  0  0  0  0
  -21.1121  -13.1340   22.2602 H   0  0  0  0  0  0
  -24.6709  -15.8526   20.5041 H   0  0  0  0  0  0
  -26.2992  -15.6215   20.1227 H   0  0  0  0  0  0
  -26.7097  -32.5545   23.1198 H   0  0  0  0  0  0
  -25.0144  -33.9812   25.0544 H   0  0  0  0  0  0
  -22.6853  -31.3117   21.4218 H   0  0  0  0  0  0
  -23.3760  -35.9592   23.3307 H   0  0  0  0  0  0
  -24.3530  -36.8942   22.2064 H   0  0  0  0  0  0
  -23.7182  -37.6480   23.6690 H   0  0  0  0  0  0
  -26.0419  -31.5914   20.5938 H   0  0  0  0  0  0
  -26.8159  -30.8843   21.9882 H   0  0  0  0  0  0
  -28.1002  -29.1182   21.1368 H   0  0  0  0  0  0
  -25.9968  -25.9848   19.0092 H   0  0  0  0  0  0
  -23.9516  -27.2957   19.0678 H   0  0  0  0  0  0
  -23.7064  -30.6063   19.4133 H   0  0  0  0  0  0
  -22.7243  -29.2522   19.8807 H   0  0  0  0  0  0
  -25.1237  -36.1985   25.0836 H   0  0  0  0  0  0
  -20.9911  -28.3266   24.1454 H   0  0  0  0  0  0
  -20.5639  -26.2287   23.3627 H   0  0  0  0  0  0
  -21.6575  -26.7440   22.1222 H   0  0  0  0  0  0
  -19.6837  -25.6324   21.1228 H   0  0  0  0  0  0
  -19.6613  -27.3235   20.6797 H   0  0  0  0  0  0
  -17.4127  -26.6770   21.4037 H   0  0  0  0  0  0
  -18.0223  -26.0095   22.9030 H   0  0  0  0  0  0
  -19.7901  -30.7312   24.2258 H   0  0  0  0  0  0
  -17.4982  -31.6266   24.5232 H   0  0  0  0  0  0
  -15.5324  -30.3008   23.7676 H   0  0  0  0  0  0
  -15.8658  -28.0866   22.7067 H   0  0  0  0  0  0
  -24.6030  -30.6879   25.7831 H   0  0  0  0  0  0
  -24.8805  -32.2763   26.4859 H   0  0  0  0  0  0
  -25.8116  -30.8930   27.0306 H   0  0  0  0  0  0
  -26.3020  -29.6736   24.1288 H   0  0  0  0  0  0
  -27.4274  -29.7387   25.4681 H   0  0  0  0  0  0
  -27.8791  -30.4416   23.9323 H   0  0  0  0  0  0
  -27.2636  -33.3684   26.2089 H   0  0  0  0  0  0
  -28.3859  -32.6923   25.0365 H   0  0  0  0  0  0
  -28.0734  -31.8541   26.5491 H   0  0  0  0  0  0
  -28.2555  -38.0097   24.7551 H   0  0  0  0  0  0
  -28.1080  -36.2621   24.6295 H   0  0  0  0  0  0
  -27.2273  -37.1441   25.8887 H   0  0  0  0  0  0
  -20.9304  -29.8811   21.7016 H   0  0  0  0  0  0
  -26.0183  -38.2858   24.1499 H   0  0  0  0  0  0
  -27.0316  -18.3227   26.7055 H   0  0  0  0  0  0
  -29.0153  -17.0782   27.5204 H   0  0  0  0  0  0
  -27.2318  -19.8788   24.7807 H   0  0  0  0  0  0
  -31.4466  -19.0015   24.5369 H   0  0  0  0  0  0
  -36.3671  -19.0279   25.0765 H   0  0  0  0  0  0
  -34.6294  -19.0588   24.8310 H   0  0  0  0  0  0
  -35.5194  -17.5464   24.6597 H   0  0  0  0  0  0
  -34.0946  -16.4018   26.4046 H   0  0  0  0  0  0
  -34.0844  -16.9232   28.0718 H   0  0  0  0  0  0
  -35.1867  -19.1128   27.2896 H   0  0  0  0  0  0
  -36.1437  -17.6796   27.1160 H   0  0  0  0  0  0
  -33.1314  -15.8553   24.3915 H   0  0  0  0  0  0
  -31.7746  -16.6705   23.6672 H   0  0  0  0  0  0
  -31.3673  -14.0851   25.2386 H   0  0  0  0  0  0
  -30.1833  -15.2987   24.8509 H   0  0  0  0  0  0
  -30.3065  -25.0539   20.9621 H   0  0  0  0  0  0
  -31.5728  -24.4036   19.9447 H   0  0  0  0  0  0
  -30.1236  -24.7840   17.9155 H   0  0  0  0  0  0
  -30.6447  -26.2304   18.7322 H   0  0  0  0  0  0
  -32.7507  -13.8347   23.1011 H   0  0  0  0  0  0
  -32.9608  -15.2239   22.0776 H   0  0  0  0  0  0
  -32.3467  -15.3371   26.9915 H   0  0  0  0  0  0
  -30.6623  -15.5037   27.1947 H   0  0  0  0  0  0
  -30.1105  -22.5625   19.1808 H   0  0  0  0  0  0
  -28.7750  -23.1553   20.1418 H   0  0  0  0  0  0
  -29.0609  -20.6959   20.9518 H   0  0  0  0  0  0
  -30.6997  -20.4872   20.3746 H   0  0  0  0  0  0
  -27.9020  -24.9524   19.1443 H   0  0  0  0  0  0
  -28.2432  -26.2510   18.0099 H   0  0  0  0  0  0
  -31.4064  -20.6079   22.9123 H   0  0  0  0  0  0
  -30.6291  -19.1462   22.3070 H   0  0  0  0  0  0
  -30.3283  -13.9021   22.6880 H   0  0  0  0  0  0
  -29.9054  -22.7181   22.0978 H   0  0  0  0  0  0
  -31.3436  -22.5105   21.3613 H   0  0  0  0  0  0
  1 25  1  0  0  0
  1 30  2  0  0  0
  1 91  1  0  0  0
  2  3  1  0  0  0
  2 25  1  0  0  0
  2 96  1  0  0  0
  2 97  1  0  0  0
  3  4  1  0  0  0
  3 98  1  0  0  0
  3 99  1  0  0  0
  4  5  1  0  0  0
  4100  1  0  0  0
  4101  1  0  0  0
  5  6  1  0  0  0
  5 26  1  0  0  0
  5102  1  0  0  0
  6 25  1  0  0  0
  6103  1  0  0  0
  6104  1  0  0  0
  7  8  2  0  0  0
  7 26  1  0  0  0
  7 29  1  0  0  0
  8  9  1  0  0  0
  8 22  1  0  0  0
  9 10  1  0  0  0
  9 27  2  0  0  0
 10 11  2  0  0  0
 10 15  1  0  0  0
 11 12  1  0  0  0
 11105  1  0  0  0
 12 13  2  0  0  0
 12106  1  0  0  0
 13 14  1  0  0  0
 13 31  1  0  0  0
 14 15  2  0  0  0
 14107  1  0  0  0
 15108  1  0  0  0
 16 17  2  0  0  0
 16 21  1  0  0  0
 16 31  1  0  0  0
 17 18  1  0  0  0
 17109  1  0  0  0
 18 19  2  0  0  0
 18110  1  0  0  0
 19 20  1  0  0  0
 19 24  1  0  0  0
 20 21  2  0  0  0
 20111  1  0  0  0
 21 23  1  0  0  0
 22 28  1  0  0  0
 22 32  2  0  0  0
 26 27  1  0  0  0
 28112  1  0  0  0
 28113  1  0  0  0
 29114  1  0  0  0
 29115  1  0  0  0
 33 34  1  0  0  0
 33 66  1  0  0  0
 33 70  2  0  0  0
 34 36  1  0  0  0
 34 59  1  0  0  0
 34116  1  0  0  0
 35 44  2  0  0  0
 35 45  1  0  0  0
 35 68  1  0  0  0
 36 56  1  0  0  0
 36117  1  0  0  0
 37 39  1  0  0  0
 37 47  1  0  0  0
 37 66  1  0  0  0
 37118  1  0  0  0
 38 43  2  0  0  0
 38 46  1  0  0  0
 38 47  1  0  0  0
 39 64  1  0  0  0
 39 67  2  0  0  0
 40 52  1  0  0  0
 40 53  2  0  0  0
 40 58  1  0  0  0
 41119  1  0  0  0
 41120  1  0  0  0
 41121  1  0  0  0
 41 48  1  0  0  0
 42 43  1  0  0  0
 42 66  1  0  0  0
 42122  1  0  0  0
 42123  1  0  0  0
 43 44  1  0  0  0
 44124  1  0  0  0
 45 46  2  0  0  0
 45125  1  0  0  0
 46126  1  0  0  0
 47127  1  0  0  0
 47128  1  0  0  0
 48 56  1  0  0  0
 48 65  1  0  0  0
 48129  1  0  0  0
 49 50  1  0  0  0
 49 53  1  0  0  0
 49 64  1  0  0  0
 49130  1  0  0  0
 50 51  1  0  0  0
 50131  1  0  0  0
 50132  1  0  0  0
 51 52  1  0  0  0
 51133  1  0  0  0
 51134  1  0  0  0
 52135  1  0  0  0
 52136  1  0  0  0
 53 54  1  0  0  0
 54 55  2  0  0  0
 54137  1  0  0  0
 55 57  1  0  0  0
 55138  1  0  0  0
 56 69  2  0  0  0
 57 58  2  0  0  0
 57139  1  0  0  0
 58140  1  0  0  0
 59 60  1  0  0  0
 59 61  1  0  0  0
 59 62  1  0  0  0
 60141  1  0  0  0
 60142  1  0  0  0
 60143  1  0  0  0
 61144  1  0  0  0
 61145  1  0  0  0
 61146  1  0  0  0
 62147  1  0  0  0
 62148  1  0  0  0
 62149  1  0  0  0
 63 65  1  0  0  0
 63150  1  0  0  0
 63151  1  0  0  0
 63152  1  0  0  0
 64153  1  0  0  0
 65154  1  0  0  0
 68 89  1  0  0  0
 71 72  2  0  0  0
 71 73  1  0  0  0
 71155  1  0  0  0
 72 75  1  0  0  0
 72156  1  0  0  0
 73 76  2  0  0  0
 73157  1  0  0  0
 74 75  2  0  0  0
 74 76  1  0  0  0
 74158  1  0  0  0
 75 92  1  0  0  0
 76 95  1  0  0  0
 77 79  1  0  0  0
 77 92  1  0  0  0
 77 94  2  0  0  0
 78 80  1  0  0  0
 78159  1  0  0  0
 78160  1  0  0  0
 78161  1  0  0  0
 79 80  1  0  0  0
 79162  1  0  0  0
 79163  1  0  0  0
 80164  1  0  0  0
 80165  1  0  0  0
 81 82  1  0  0  0
 81 85  1  0  0  0
 81166  1  0  0  0
 81167  1  0  0  0
 82 86  1  0  0  0
 82168  1  0  0  0
 82169  1  0  0  0
 83 84  1  0  0  0
 83 87  1  0  0  0
 83170  1  0  0  0
 83171  1  0  0  0
 84 89  1  0  0  0
 84172  1  0  0  0
 84173  1  0  0  0
 85 91  1  0  0  0
 85174  1  0  0  0
 85175  1  0  0  0
 86 92  1  0  0  0
 86176  1  0  0  0
 86177  1  0  0  0
 87 93  1  0  0  0
 87178  1  0  0  0
 87179  1  0  0  0
 88 90  1  0  0  0
 88 93  1  0  0  0
 88180  1  0  0  0
 88181  1  0  0  0
 89182  1  0  0  0
 89183  1  0  0  0
 90 95  1  0  0  0
 90184  1  0  0  0
 90185  1  0  0  0
 91186  1  0  0  0
 93187  1  0  0  0
 93188  1  0  0  0
M  CHG  1  93   1
M  ISO  4   1 100  68 101  89 101  91 100
M  END
> <chiral flag>
0

> <version>
0

> <s_m_source_file>
/data/baiqing/PycharmProjects/Reinvent-master-3.2/result/LINK_invent/BTK/process_docking_weight1_custom_sum_contain_oxygen_bond_distance_aromatic_linkinvent_7_9_3/rearranged_h_0005.sdf

> <i_m_source_file_index>
32

> <r_mmod_Potential_Energy-OPLS-2005>
-72.6934432983398

> <r_mmod_Stretch_Energy-OPLS-2005>
37.9096527099609

> <r_mmod_Bend_Energy-OPLS-2005>
102.302185058594

> <r_mmod_Torsional_Energy-OPLS-2005>
298.628509521484

> <r_mmod_Improper_Torsional_Energy-OPLS-2005>
10.665599822998

> <r_mmod_Van_der_Waal_Energy-OPLS-2005>
168.048446655273

> <r_mmod_Electrostatic_Energy-OPLS-2005>
-257.277526855469

> <r_mmod_Solvation_Energy-OPLS-2005>
-446.878356933594

> <b_mmod_Minimization_Converged-OPLS-2005>
0

> <r_mmod_RMS_Derivative-OPLS-2005>
3.37915110588074

$$$$
32
                    3D
 Structure written by MMmdl.
195202  0  0  1  0            999 V2000
  -30.8902  -14.3667   20.1092 C   0  0  0  0  0  0
  -30.3426  -12.1541   19.3314 C   0  0  0  0  0  0
  -29.3931  -12.3241   18.1401 C   0  0  0  0  0  0
  -27.9410  -12.3129   18.6164 C   0  0  0  0  0  0
  -27.6635  -13.2210   19.8468 C   0  0  2  0  0  0
  -28.7906  -13.1405   20.9200 C   0  0  0  0  0  0
  -25.2663  -13.8230   20.5839 C   0  0  0  0  0  0
  -24.1908  -13.0466   20.9293 C   0  0  0  0  0  0
  -24.6499  -11.6954   20.8875 C   0  0  0  0  0  0
  -23.9154  -10.4308   21.0438 C   0  0  0  0  0  0
  -24.3673   -9.4201   21.9212 C   0  0  0  0  0  0
  -23.6322   -8.2247   22.0774 C   0  0  0  0  0  0
  -22.4308   -8.0310   21.3562 C   0  0  0  0  0  0
  -21.9972   -9.0288   20.4663 C   0  0  0  0  0  0
  -22.7321  -10.2161   20.3082 C   0  0  0  0  0  0
  -21.6866   -6.0768   22.5281 C   0  0  0  0  0  0
  -21.4006   -6.5658   23.8214 C   0  0  0  0  0  0
  -21.3658   -5.6815   24.9173 C   0  0  0  0  0  0
  -21.6044   -4.3080   24.7221 C   0  0  0  0  0  0
  -21.8819   -3.8177   23.4340 C   0  0  0  0  0  0
  -21.9186   -4.6993   22.3402 C   0  0  0  0  0  0
  -22.7895  -13.5227   21.1851 C   0  0  0  0  0  0
  -22.1666   -4.2178   21.0980 F   0  0  0  0  0  0
  -21.5621   -3.4563   25.7733 F   0  0  0  0  0  0
  -30.0936  -13.2714   20.2309 N   0  0  0  0  0  0
  -26.3183  -12.9461   20.3651 N   0  0  0  0  0  0
  -25.9481  -11.6608   20.6115 N   0  0  0  0  0  0
  -22.0493  -12.8228   22.0387 N   0  0  0  0  0  0
  -25.4310  -15.1937   20.4147 N   0  0  0  0  0  0
  -31.7510  -14.6855   20.9018 O   0  0  0  0  0  0
  -21.6659   -6.8918   21.4252 O   0  0  0  0  0  0
  -22.3572  -14.5508   20.6658 O   0  0  0  0  0  0
  -24.6110  -31.8699   23.2161 C   0  0  0  0  0  0
  -25.9016  -32.4832   23.8438 C   0  0  1  0  0  0
  -27.2225  -27.4496   20.0881 C   0  0  0  0  0  0
  -25.5892  -33.8646   24.2356 N   0  0  0  0  0  0
  -23.3971  -30.4970   21.5565 C   0  0  2  0  0  0
  -24.8389  -28.9685   20.1188 C   0  0  0  0  0  0
  -22.7374  -29.4679   22.5022 C   0  0  0  0  0  0
  -18.0251  -28.1387   22.8485 C   0  0  0  0  0  0
  -24.1486  -36.7323   23.2643 C   0  0  0  0  0  0
  -25.9250  -30.8357   21.3706 C   0  0  0  0  0  0
  -25.9965  -29.4703   20.7226 C   0  0  0  0  0  0
  -27.1854  -28.7111   20.7198 C   0  0  0  0  0  0
  -26.0438  -26.9648   19.4694 C   0  0  0  0  0  0
  -24.8560  -27.7135   19.4939 C   0  0  0  0  0  0
  -23.6032  -29.8343   20.1690 C   0  0  0  0  0  0
  -25.4113  -36.3126   24.0334 C   0  0  1  0  0  0
  -20.5826  -28.3676   23.1330 C   0  0  2  0  0  0
  -20.6749  -26.9412   22.5430 C   0  0  0  0  0  0
  -19.5733  -26.6405   21.5216 C   0  0  0  0  0  0
  -18.1902  -26.7937   22.1610 C   0  0  0  0  0  0
  -19.1492  -28.8847   23.2909 C   0  0  0  0  0  0
  -18.9434  -30.1449   23.8937 C   0  0  0  0  0  0
  -17.6441  -30.6591   24.0592 C   0  0  0  0  0  0
  -25.9031  -34.9482   23.5134 C   0  0  0  0  0  0
  -16.5331  -29.9108   23.6337 C   0  0  0  0  0  0
  -16.7242  -28.6517   23.0364 C   0  0  0  0  0  0
  -26.4482  -31.6602   25.0747 C   0  0  0  0  0  0
  -25.3784  -31.3650   26.1508 C   0  0  0  0  0  0
  -27.0358  -30.3064   24.6112 C   0  0  0  0  0  0
  -27.6075  -32.4325   25.7474 C   0  0  0  0  0  0
  -27.5584  -37.1813   24.8460 C   0  0  0  0  0  0
  -21.4102  -29.3050   22.3742 N   0  0  0  0  0  0
  -26.4292  -37.3808   23.9413 N   0  0  0  0  0  0
  -24.6626  -31.0812   22.1066 N   0  0  0  0  0  0
  -23.4135  -28.8195   23.3054 O   0  0  0  0  0  0
  -28.4095  -26.7495   20.1258 O   0  0  0  0  0  0
  -26.5596  -34.8912   22.4701 O   0  0  0  0  0  0
  -23.5314  -32.1456   23.7563 O   0  0  0  0  0  0
  -31.2763  -24.8859   17.7421 C   0  0  0  0  0  0
  -33.4504  -14.3820   18.6154 C   0  0  0  0  0  0
  -30.7817  -31.5099   17.5502 C   0  0  0  0  0  0
  -30.7544  -14.9704   15.7474 C   0  0  0  0  0  0
  -33.1683  -14.4480   15.6493 C   0  0  0  0  0  0
  -30.6154  -23.5134   17.5242 C   0  0  0  0  0  0
  -31.0740  -22.4451   18.5304 C   0  0  0  0  0  0
  -30.3451  -21.1211   18.2643 C   0  0  0  0  0  0
  -30.8003  -19.9605   19.1568 C   0  0  0  0  0  0
  -30.0388  -18.6744   18.8083 C   0  0  0  0  0  0
  -30.6589  -17.4053   19.4091 C   0  0  0  0  0  0
  -31.5751  -27.9528   16.7416 C   0  0  0  0  0  0
  -30.0692  -16.1403   18.7441 C   0  0  0  0  0  0
  -31.1274  -27.3259   18.0733 C   0  0  0  0  0  0
  -29.0472  -26.0115   17.9283 C   0  0  0  0  0  0
  -32.0264  -29.4134   16.8950 C   0  0  0  0  0  0
  -28.5670  -25.5815   19.3265 C   0  0  0  0  0  0
  -32.1524  -14.9765   17.9896 C   0  0  1  0  0  0
  -31.9168  -14.3578   16.5584 C   0  0  0  0  0  0
  -34.4377  -15.2152   18.9238 N   0  0  0  0  0  0
  -29.6691  -32.2255   17.4280 N   0  0  0  0  0  0
  -31.7806  -31.9778   18.2940 N   0  3  0  0  0  0
  -30.5162  -26.0050   17.8685 N   0  0  0  0  0  0
  -30.9202  -14.9416   18.8721 N   0  0  0  0  0  0
  -30.8731  -30.3302   16.9215 N   0  0  0  0  0  0
  -32.5099  -24.9296   17.7751 O   0  0  0  0  0  0
  -33.5788  -13.1737   18.8032 O   0  0  0  0  0  0
  -31.3736  -12.1019   18.9891 H   0  0  0  0  0  0
  -30.1543  -11.2065   19.8384 H   0  0  0  0  0  0
  -29.5512  -11.5235   17.4171 H   0  0  0  0  0  0
  -29.5693  -13.2429   17.6001 H   0  0  0  0  0  0
  -27.7058  -11.2761   18.8540 H   0  0  0  0  0  0
  -27.2761  -12.5861   17.7957 H   0  0  0  0  0  0
  -27.6600  -14.2410   19.4664 H   0  0  0  0  0  0
  -28.7491  -12.1897   21.4534 H   0  0  0  0  0  0
  -28.6716  -13.9281   21.6656 H   0  0  0  0  0  0
  -25.2805   -9.5653   22.4822 H   0  0  0  0  0  0
  -24.0009   -7.4647   22.7510 H   0  0  0  0  0  0
  -21.0900   -8.8825   19.8979 H   0  0  0  0  0  0
  -22.3783  -10.9714   19.6210 H   0  0  0  0  0  0
  -21.2002   -7.6169   23.9717 H   0  0  0  0  0  0
  -21.1479   -6.0551   25.9075 H   0  0  0  0  0  0
  -22.0599   -2.7639   23.2833 H   0  0  0  0  0  0
  -22.4075  -11.9908   22.4838 H   0  0  0  0  0  0
  -21.1090  -13.1258   22.2495 H   0  0  0  0  0  0
  -24.6655  -15.8512   20.5246 H   0  0  0  0  0  0
  -26.2955  -15.6371   20.1313 H   0  0  0  0  0  0
  -26.7072  -32.5540   23.1194 H   0  0  0  0  0  0
  -25.0041  -33.9836   25.0494 H   0  0  0  0  0  0
  -22.6862  -31.3141   21.4199 H   0  0  0  0  0  0
  -23.3745  -35.9653   23.3287 H   0  0  0  0  0  0
  -24.3561  -36.8974   22.2059 H   0  0  0  0  0  0
  -23.7221  -37.6512   23.6682 H   0  0  0  0  0  0
  -26.0313  -31.5947   20.5944 H   0  0  0  0  0  0
  -26.8168  -30.8933   21.9838 H   0  0  0  0  0  0
  -28.0776  -29.0906   21.1979 H   0  0  0  0  0  0
  -25.9921  -26.0185   18.9576 H   0  0  0  0  0  0
  -23.9655  -27.3257   19.0183 H   0  0  0  0  0  0
  -23.7146  -30.6107   19.4111 H   0  0  0  0  0  0
  -22.7276  -29.2558   19.8702 H   0  0  0  0  0  0
  -25.1280  -36.2003   25.0822 H   0  0  0  0  0  0
  -20.9910  -28.3253   24.1460 H   0  0  0  0  0  0
  -20.5669  -26.2288   23.3620 H   0  0  0  0  0  0
  -21.6627  -26.7492   22.1216 H   0  0  0  0  0  0
  -19.6917  -25.6327   21.1236 H   0  0  0  0  0  0
  -19.6676  -27.3240   20.6763 H   0  0  0  0  0  0
  -17.4184  -26.6694   21.3999 H   0  0  0  0  0  0
  -18.0298  -26.0057   22.8986 H   0  0  0  0  0  0
  -19.7917  -30.7259   24.2312 H   0  0  0  0  0  0
  -17.5004  -31.6270   24.5216 H   0  0  0  0  0  0
  -15.5339  -30.3054   23.7646 H   0  0  0  0  0  0
  -15.8623  -28.0874   22.7090 H   0  0  0  0  0  0
  -24.5910  -30.7075   25.7805 H   0  0  0  0  0  0
  -24.9056  -32.2797   26.5097 H   0  0  0  0  0  0
  -25.8160  -30.8681   27.0172 H   0  0  0  0  0  0
  -26.2919  -29.6730   24.1272 H   0  0  0  0  0  0
  -27.4265  -29.7370   25.4555 H   0  0  0  0  0  0
  -27.8676  -30.4399   23.9184 H   0  0  0  0  0  0
  -27.2717  -33.3596   26.2118 H   0  0  0  0  0  0
  -28.3836  -32.6932   25.0267 H   0  0  0  0  0  0
  -28.0808  -31.8419   26.5322 H   0  0  0  0  0  0
  -28.2597  -38.0115   24.7528 H   0  0  0  0  0  0
  -28.1081  -36.2652   24.6264 H   0  0  0  0  0  0
  -27.2288  -37.1439   25.8854 H   0  0  0  0  0  0
  -20.9257  -29.8804   21.6990 H   0  0  0  0  0  0
  -26.0172  -38.2874   24.1440 H   0  0  0  0  0  0
  -30.6716  -14.4977   14.7681 H   0  0  0  0  0  0
  -30.9069  -16.0375   15.5801 H   0  0  0  0  0  0
  -29.7816  -14.8382   16.2150 H   0  0  0  0  0  0
  -32.9646  -14.0765   14.6433 H   0  0  0  0  0  0
  -34.0093  -13.8632   16.0232 H   0  0  0  0  0  0
  -33.5030  -15.4825   15.5472 H   0  0  0  0  0  0
  -30.8615  -23.1922   16.5111 H   0  0  0  0  0  0
  -29.5323  -23.5496   17.5635 H   0  0  0  0  0  0
  -30.8700  -22.7785   19.5504 H   0  0  0  0  0  0
  -32.1533  -22.3025   18.4590 H   0  0  0  0  0  0
  -30.5036  -20.8420   17.2210 H   0  0  0  0  0  0
  -29.2696  -21.2678   18.3796 H   0  0  0  0  0  0
  -30.6617  -20.2063   20.2111 H   0  0  0  0  0  0
  -31.8699  -19.8007   19.0106 H   0  0  0  0  0  0
  -30.0336  -18.5757   17.7211 H   0  0  0  0  0  0
  -28.9919  -18.7567   19.1041 H   0  0  0  0  0  0
  -30.5106  -17.3813   20.4893 H   0  0  0  0  0  0
  -31.7382  -17.4521   19.2633 H   0  0  0  0  0  0
  -30.7610  -27.8942   16.0164 H   0  0  0  0  0  0
  -32.3915  -27.3660   16.3193 H   0  0  0  0  0  0
  -29.9024  -16.3593   17.6967 H   0  0  0  0  0  0
  -29.0726  -15.9558   19.1482 H   0  0  0  0  0  0
  -30.4301  -27.9904   18.5855 H   0  0  0  0  0  0
  -31.9797  -27.2464   18.7511 H   0  0  0  0  0  0
  -28.6507  -26.9976   17.6804 H   0  0  0  0  0  0
  -28.6213  -25.3772   17.1516 H   0  0  0  0  0  0
  -32.6551  -29.6922   16.0487 H   0  0  0  0  0  0
  -32.6414  -29.5225   17.7892 H   0  0  0  0  0  0
  -29.3098  -24.9509   19.8156 H   0  0  0  0  0  0
  -27.6867  -24.9455   19.2773 H   0  0  0  0  0  0
  -32.3848  -16.0235   17.7980 H   0  0  0  0  0  0
  -31.7027  -13.2958   16.6834 H   0  0  0  0  0  0
  -34.3463  -16.2097   18.7679 H   0  0  0  0  0  0
  -35.2888  -14.8555   19.3315 H   0  0  0  0  0  0
  -29.5538  -33.1280   17.8662 H   0  0  0  0  0  0
  -28.8928  -31.8947   16.8712 H   0  0  0  0  0  0
  -31.7248  -32.8610   18.7805 H   0  0  0  0  0  0
  -32.6373  -31.4546   18.3956 H   0  0  0  0  0  0
  -30.1069  -30.0590   16.3201 H   0  0  0  0  0  0
  1 25  1  0  0  0
  1 30  2  0  0  0
  1 94  1  0  0  0
  2  3  1  0  0  0
  2 25  1  0  0  0
  2 98  1  0  0  0
  2 99  1  0  0  0
  3  4  1  0  0  0
  3100  1  0  0  0
  3101  1  0  0  0
  4  5  1  0  0  0
  4102  1  0  0  0
  4103  1  0  0  0
  5  6  1  0  0  0
  5 26  1  0  0  0
  5104  1  0  0  0
  6 25  1  0  0  0
  6105  1  0  0  0
  6106  1  0  0  0
  7  8  2  0  0  0
  7 26  1  0  0  0
  7 29  1  0  0  0
  8  9  1  0  0  0
  8 22  1  0  0  0
  9 10  1  0  0  0
  9 27  2  0  0  0
 10 11  2  0  0  0
 10 15  1  0  0  0
 11 12  1  0  0  0
 11107  1  0  0  0
 12 13  2  0  0  0
 12108  1  0  0  0
 13 14  1  0  0  0
 13 31  1  0  0  0
 14 15  2  0  0  0
 14109  1  0  0  0
 15110  1  0  0  0
 16 17  2  0  0  0
 16 21  1  0  0  0
 16 31  1  0  0  0
 17 18  1  0  0  0
 17111  1  0  0  0
 18 19  2  0  0  0
 18112  1  0  0  0
 19 20  1  0  0  0
 19 24  1  0  0  0
 20 21  2  0  0  0
 20113  1  0  0  0
 21 23  1  0  0  0
 22 28  1  0  0  0
 22 32  2  0  0  0
 26 27  1  0  0  0
 28114  1  0  0  0
 28115  1  0  0  0
 29116  1  0  0  0
 29117  1  0  0  0
 33 34  1  0  0  0
 33 66  1  0  0  0
 33 70  2  0  0  0
 34 36  1  0  0  0
 34 59  1  0  0  0
 34118  1  0  0  0
 35 44  2  0  0  0
 35 45  1  0  0  0
 35 68  1  0  0  0
 36 56  1  0  0  0
 36119  1  0  0  0
 37 39  1  0  0  0
 37 47  1  0  0  0
 37 66  1  0  0  0
 37120  1  0  0  0
 38 43  2  0  0  0
 38 46  1  0  0  0
 38 47  1  0  0  0
 39 64  1  0  0  0
 39 67  2  0  0  0
 40 52  1  0  0  0
 40 53  2  0  0  0
 40 58  1  0  0  0
 41121  1  0  0  0
 41122  1  0  0  0
 41123  1  0  0  0
 41 48  1  0  0  0
 42 43  1  0  0  0
 42 66  1  0  0  0
 42124  1  0  0  0
 42125  1  0  0  0
 43 44  1  0  0  0
 44126  1  0  0  0
 45 46  2  0  0  0
 45127  1  0  0  0
 46128  1  0  0  0
 47129  1  0  0  0
 47130  1  0  0  0
 48 56  1  0  0  0
 48 65  1  0  0  0
 48131  1  0  0  0
 49 50  1  0  0  0
 49 53  1  0  0  0
 49 64  1  0  0  0
 49132  1  0  0  0
 50 51  1  0  0  0
 50133  1  0  0  0
 50134  1  0  0  0
 51 52  1  0  0  0
 51135  1  0  0  0
 51136  1  0  0  0
 52137  1  0  0  0
 52138  1  0  0  0
 53 54  1  0  0  0
 54 55  2  0  0  0
 54139  1  0  0  0
 55 57  1  0  0  0
 55140  1  0  0  0
 56 69  2  0  0  0
 57 58  2  0  0  0
 57141  1  0  0  0
 58142  1  0  0  0
 59 60  1  0  0  0
 59 61  1  0  0  0
 59 62  1  0  0  0
 60143  1  0  0  0
 60144  1  0  0  0
 60145  1  0  0  0
 61146  1  0  0  0
 61147  1  0  0  0
 61148  1  0  0  0
 62149  1  0  0  0
 62150  1  0  0  0
 62151  1  0  0  0
 63 65  1  0  0  0
 63152  1  0  0  0
 63153  1  0  0  0
 63154  1  0  0  0
 64155  1  0  0  0
 65156  1  0  0  0
 68 87  1  0  0  0
 71 76  1  0  0  0
 71 93  1  0  0  0
 71 96  2  0  0  0
 72 88  1  0  0  0
 72 90  1  0  0  0
 72 97  2  0  0  0
 73 91  1  0  0  0
 73 92  2  0  0  0
 73 95  1  0  0  0
 74157  1  0  0  0
 74158  1  0  0  0
 74159  1  0  0  0
 74 89  1  0  0  0
 75 89  1  0  0  0
 75160  1  0  0  0
 75161  1  0  0  0
 75162  1  0  0  0
 76 77  1  0  0  0
 76163  1  0  0  0
 76164  1  0  0  0
 77 78  1  0  0  0
 77165  1  0  0  0
 77166  1  0  0  0
 78 79  1  0  0  0
 78167  1  0  0  0
 78168  1  0  0  0
 79 80  1  0  0  0
 79169  1  0  0  0
 79170  1  0  0  0
 80 81  1  0  0  0
 80171  1  0  0  0
 80172  1  0  0  0
 81 83  1  0  0  0
 81173  1  0  0  0
 81174  1  0  0  0
 82 84  1  0  0  0
 82 86  1  0  0  0
 82175  1  0  0  0
 82176  1  0  0  0
 83 94  1  0  0  0
 83177  1  0  0  0
 83178  1  0  0  0
 84 93  1  0  0  0
 84179  1  0  0  0
 84180  1  0  0  0
 85 87  1  0  0  0
 85 93  1  0  0  0
 85181  1  0  0  0
 85182  1  0  0  0
 86 95  1  0  0  0
 86183  1  0  0  0
 86184  1  0  0  0
 87185  1  0  0  0
 87186  1  0  0  0
 88 89  1  0  0  0
 88 94  1  0  0  0
 88187  1  0  0  0
 89188  1  0  0  0
 90189  1  0  0  0
 90190  1  0  0  0
 91191  1  0  0  0
 91192  1  0  0  0
 92193  1  0  0  0
 92194  1  0  0  0
 95195  1  0  0  0
M  CHG  1  92   1
M  ISO  4   1 100  68 101  87 101  94 100
M  END
> <chiral flag>
0

> <version>
0

> <s_m_source_file>
/data/baiqing/PycharmProjects/Reinvent-master-3.2/result/LINK_invent/BTK/process_docking_weight1_custom_sum_contain_oxygen_bond_distance_aromatic_linkinvent_7_9_3/rearranged_h_0005.sdf

> <i_m_source_file_index>
33

> <r_mmod_Potential_Energy-OPLS-2005>
-114.798133850098

> <r_mmod_Stretch_Energy-OPLS-2005>
49.4055824279785

> <r_mmod_Bend_Energy-OPLS-2005>
137.341812133789

> <r_mmod_Torsional_Energy-OPLS-2005>
397.184783935547

> <r_mmod_Improper_Torsional_Energy-OPLS-2005>
10.5829820632935

> <r_mmod_Van_der_Waal_Energy-OPLS-2005>
171.765548706055

> <r_mmod_Electrostatic_Energy-OPLS-2005>
-529.428466796875

> <r_mmod_Solvation_Energy-OPLS-2005>
-484.854400634766

> <b_mmod_Minimization_Converged-OPLS-2005>
0

> <r_mmod_RMS_Derivative-OPLS-2005>
3.01486611366272

$$$$
33
                    3D
 Structure written by MMmdl.
154162  0  0  1  0            999 V2000
  -30.5579  -14.9198   20.4542 C   0  0  0  0  0  0
  -30.4632  -12.5752   19.5015 C   0  0  0  0  0  0
  -29.5308  -12.5228   18.2664 C   0  0  0  0  0  0
  -28.0670  -12.3063   18.6908 C   0  0  0  0  0  0
  -27.6458  -13.2400   19.8537 C   0  0  2  0  0  0
  -28.6916  -13.2415   20.9927 C   0  0  0  0  0  0
  -25.2531  -13.8207   20.5714 C   0  0  0  0  0  0
  -24.1818  -13.0465   20.9222 C   0  0  0  0  0  0
  -24.6415  -11.6931   20.8756 C   0  0  0  0  0  0
  -23.9086  -10.4304   21.0408 C   0  0  0  0  0  0
  -24.3622   -9.4214   21.9201 C   0  0  0  0  0  0
  -23.6288   -8.2255   22.0766 C   0  0  0  0  0  0
  -22.4284   -8.0288   21.3541 C   0  0  0  0  0  0
  -21.9926   -9.0273   20.4654 C   0  0  0  0  0  0
  -22.7258  -10.2147   20.3063 C   0  0  0  0  0  0
  -21.6863   -6.0736   22.5269 C   0  0  0  0  0  0
  -21.4018   -6.5640   23.8207 C   0  0  0  0  0  0
  -21.3653   -5.6787   24.9171 C   0  0  0  0  0  0
  -21.6049   -4.3052   24.7228 C   0  0  0  0  0  0
  -21.8818   -3.8146   23.4350 C   0  0  0  0  0  0
  -21.9192   -4.6959   22.3399 C   0  0  0  0  0  0
  -22.7828  -13.5235   21.1868 C   0  0  0  0  0  0
  -22.1663   -4.2144   21.0979 F   0  0  0  0  0  0
  -21.5624   -3.4545   25.7741 F   0  0  0  0  0  0
  -29.9804  -13.6521   20.4119 N   0  0  0  0  0  0
  -26.2983  -12.9426   20.3325 N   0  0  0  0  0  0
  -25.9360  -11.6569   20.5792 N   0  0  0  0  0  0
  -22.0464  -12.8222   22.0405 N   0  0  0  0  0  0
  -25.4264  -15.1944   20.4082 N   0  0  0  0  0  0
  -31.7369  -15.0318   20.1012 O   0  0  0  0  0  0
  -21.6639   -6.8893   21.4241 O   0  0  0  0  0  0
  -22.3523  -14.5540   20.6700 O   0  0  0  0  0  0
  -24.6383  -31.8455   23.1905 C   0  0  0  0  0  0
  -25.9176  -32.4700   23.8288 C   0  0  1  0  0  0
  -27.2417  -27.1782   20.1652 C   0  0  0  0  0  0
  -25.5923  -33.8494   24.2215 N   0  0  0  0  0  0
  -23.4422  -30.4660   21.5317 C   0  0  2  0  0  0
  -24.8984  -28.8932   20.1079 C   0  0  0  0  0  0
  -22.7554  -29.4536   22.4815 C   0  0  0  0  0  0
  -18.0303  -28.1399   22.8424 C   0  0  0  0  0  0
  -24.1496  -36.7269   23.2650 C   0  0  0  0  0  0
  -25.9916  -30.7378   21.3799 C   0  0  0  0  0  0
  -26.0682  -29.3496   20.7270 C   0  0  0  0  0  0
  -27.2321  -28.5050   20.7440 C   0  0  0  0  0  0
  -26.0422  -26.8007   19.5160 C   0  0  0  0  0  0
  -24.8945  -27.6295   19.4909 C   0  0  0  0  0  0
  -23.6745  -29.7975   20.1466 C   0  0  0  0  0  0
  -25.4117  -36.3029   24.0338 C   0  0  1  0  0  0
  -20.5913  -28.3722   23.1222 C   0  0  2  0  0  0
  -20.6797  -26.9425   22.5410 C   0  0  0  0  0  0
  -19.5774  -26.6380   21.5202 C   0  0  0  0  0  0
  -18.1941  -26.7929   22.1587 C   0  0  0  0  0  0
  -19.1561  -28.8874   23.2809 C   0  0  0  0  0  0
  -18.9491  -30.1468   23.8850 C   0  0  0  0  0  0
  -17.6489  -30.6590   24.0554 C   0  0  0  0  0  0
  -25.9050  -34.9409   23.5089 C   0  0  0  0  0  0
  -16.5370  -29.9090   23.6334 C   0  0  0  0  0  0
  -16.7293  -28.6526   23.0311 C   0  0  0  0  0  0
  -26.4533  -31.6551   25.0705 C   0  0  0  0  0  0
  -25.3755  -31.3710   26.1444 C   0  0  0  0  0  0
  -27.0427  -30.2964   24.6251 C   0  0  0  0  0  0
  -27.6070  -32.4332   25.7471 C   0  0  0  0  0  0
  -27.5578  -37.1777   24.8465 C   0  0  0  0  0  0
  -21.4243  -29.3040   22.3595 N   0  0  0  0  0  0
  -26.4269  -37.3746   23.9442 N   0  0  0  0  0  0
  -24.7102  -31.0358   22.0905 N   0  0  0  0  0  0
  -23.4226  -28.8070   23.2932 O   0  0  0  0  0  0
  -28.3479  -26.2712   20.3021 O   0  0  0  0  0  0
  -26.5649  -34.8907   22.4671 O   0  0  0  0  0  0
  -23.5521  -32.1291   23.7168 O   0  0  0  0  0  0
  -30.8549  -18.3902   20.1574 C   0  0  0  0  0  0
  -30.7753  -19.8397   20.0586 C   0  0  0  0  0  0
  -28.6578  -18.3844   20.9737 C   0  0  0  0  0  0
  -29.7845  -17.5641   20.6168 C   0  0  0  0  0  0
  -29.6260  -20.6773   20.3655 C   0  0  0  0  0  0
  -28.5622  -19.8350   20.8575 C   0  0  0  0  0  0
  -30.7826  -22.7699   19.6934 C   0  0  0  0  0  0
  -28.7036  -23.3969   20.6578 C   0  0  0  0  0  0
  -28.4703  -24.8241   19.7844 C   0  0  0  0  0  0
  -31.1858  -22.5469   18.2178 C   0  0  0  0  0  0
  -29.7447  -16.0368   20.7553 N   0  0  0  0  0  0
  -29.6328  -22.2221   20.1521 N   0  0  0  0  0  0
  -31.4900  -23.4873   20.4173 O   0  0  0  0  0  0
  -32.3973  -21.9913   18.1501 F   0  0  0  0  0  0
  -30.3022  -21.7722   17.5861 F   0  0  0  0  0  0
  -31.2303  -23.7310   17.6004 F   0  0  0  0  0  0
  -27.0616  -20.5358   21.3476 Cl  0  0  0  0  0  0
  -31.4877  -12.7545   19.1728 H   0  0  0  0  0  0
  -30.4861  -11.6165   20.0223 H   0  0  0  0  0  0
  -29.8495  -11.7245   17.5935 H   0  0  0  0  0  0
  -29.6165  -13.4526   17.7031 H   0  0  0  0  0  0
  -27.9731  -11.2684   19.0103 H   0  0  0  0  0  0
  -27.3983  -12.4273   17.8384 H   0  0  0  0  0  0
  -27.6221  -14.2473   19.4348 H   0  0  0  0  0  0
  -28.7694  -12.2562   21.4528 H   0  0  0  0  0  0
  -28.3901  -13.9237   21.7888 H   0  0  0  0  0  0
  -25.2778   -9.5684   22.4784 H   0  0  0  0  0  0
  -23.9988   -7.4655   22.7486 H   0  0  0  0  0  0
  -21.0875   -8.8812   19.8959 H   0  0  0  0  0  0
  -22.3745  -10.9691   19.6168 H   0  0  0  0  0  0
  -21.2014   -7.6153   23.9713 H   0  0  0  0  0  0
  -21.1474   -6.0522   25.9070 H   0  0  0  0  0  0
  -22.0602   -2.7615   23.2854 H   0  0  0  0  0  0
  -22.4057  -11.9879   22.4802 H   0  0  0  0  0  0
  -21.1089  -13.1264   22.2600 H   0  0  0  0  0  0
  -24.6611  -15.8511   20.5038 H   0  0  0  0  0  0
  -26.2682  -15.6193   20.0422 H   0  0  0  0  0  0
  -26.7233  -32.5366   23.1012 H   0  0  0  0  0  0
  -25.0013  -33.9598   25.0332 H   0  0  0  0  0  0
  -22.7425  -31.2917   21.3802 H   0  0  0  0  0  0
  -23.3746  -35.9604   23.3270 H   0  0  0  0  0  0
  -24.3572  -36.8951   22.2061 H   0  0  0  0  0  0
  -23.7263  -37.6463   23.6717 H   0  0  0  0  0  0
  -26.1362  -31.4943   20.6078 H   0  0  0  0  0  0
  -26.8639  -30.7931   22.0198 H   0  0  0  0  0  0
  -28.1172  -28.8484   21.2599 H   0  0  0  0  0  0
  -25.9484  -25.8264   19.0626 H   0  0  0  0  0  0
  -23.9961  -27.2688   19.0111 H   0  0  0  0  0  0
  -23.8260  -30.5841   19.4044 H   0  0  0  0  0  0
  -22.7893  -29.2518   19.8161 H   0  0  0  0  0  0
  -25.1291  -36.1834   25.0828 H   0  0  0  0  0  0
  -20.9993  -28.3329   24.1337 H   0  0  0  0  0  0
  -20.5701  -26.2330   23.3628 H   0  0  0  0  0  0
  -21.6667  -26.7425   22.1201 H   0  0  0  0  0  0
  -19.6945  -25.6277   21.1247 H   0  0  0  0  0  0
  -19.6744  -27.3177   20.6722 H   0  0  0  0  0  0
  -17.4228  -26.6670   21.3978 H   0  0  0  0  0  0
  -18.0312  -26.0101   22.9004 H   0  0  0  0  0  0
  -19.7992  -30.7264   24.2213 H   0  0  0  0  0  0
  -17.5075  -31.6278   24.5158 H   0  0  0  0  0  0
  -15.5380  -30.2984   23.7725 H   0  0  0  0  0  0
  -15.8682  -28.0880   22.6999 H   0  0  0  0  0  0
  -24.5938  -30.7040   25.7789 H   0  0  0  0  0  0
  -24.8936  -32.2884   26.4831 H   0  0  0  0  0  0
  -25.8077  -30.8926   27.0241 H   0  0  0  0  0  0
  -26.3032  -29.6630   24.1334 H   0  0  0  0  0  0
  -27.4160  -29.7302   25.4787 H   0  0  0  0  0  0
  -27.8886  -30.4230   23.9491 H   0  0  0  0  0  0
  -27.2668  -33.3679   26.1939 H   0  0  0  0  0  0
  -28.3912  -32.6811   25.0306 H   0  0  0  0  0  0
  -28.0698  -31.8531   26.5463 H   0  0  0  0  0  0
  -28.2556  -38.0108   24.7514 H   0  0  0  0  0  0
  -28.1109  -36.2627   24.6255 H   0  0  0  0  0  0
  -27.2313  -37.1391   25.8875 H   0  0  0  0  0  0
  -20.9447  -29.8779   21.6806 H   0  0  0  0  0  0
  -26.0130  -38.2812   24.1460 H   0  0  0  0  0  0
  -31.7828  -17.9190   19.8698 H   0  0  0  0  0  0
  -31.6922  -20.2983   19.7293 H   0  0  0  0  0  0
  -27.7862  -17.8755   21.3585 H   0  0  0  0  0  0
  -27.7178  -23.0049   20.8890 H   0  0  0  0  0  0
  -29.1016  -23.6854   21.6335 H   0  0  0  0  0  0
  -27.6808  -24.6251   19.0626 H   0  0  0  0  0  0
  -29.3391  -24.9370   19.1385 H   0  0  0  0  0  0
  -28.8561  -15.7111   21.1063 H   0  0  0  0  0  0
  1 25  1  0  0  0
  1 30  2  0  0  0
  1 81  1  0  0  0
  2  3  1  0  0  0
  2 25  1  0  0  0
  2 88  1  0  0  0
  2 89  1  0  0  0
  3  4  1  0  0  0
  3 90  1  0  0  0
  3 91  1  0  0  0
  4  5  1  0  0  0
  4 92  1  0  0  0
  4 93  1  0  0  0
  5  6  1  0  0  0
  5 26  1  0  0  0
  5 94  1  0  0  0
  6 25  1  0  0  0
  6 95  1  0  0  0
  6 96  1  0  0  0
  7  8  2  0  0  0
  7 26  1  0  0  0
  7 29  1  0  0  0
  8  9  1  0  0  0
  8 22  1  0  0  0
  9 10  1  0  0  0
  9 27  2  0  0  0
 10 11  2  0  0  0
 10 15  1  0  0  0
 11 12  1  0  0  0
 11 97  1  0  0  0
 12 13  2  0  0  0
 12 98  1  0  0  0
 13 14  1  0  0  0
 13 31  1  0  0  0
 14 15  2  0  0  0
 14 99  1  0  0  0
 15100  1  0  0  0
 16 17  2  0  0  0
 16 21  1  0  0  0
 16 31  1  0  0  0
 17 18  1  0  0  0
 17101  1  0  0  0
 18 19  2  0  0  0
 18102  1  0  0  0
 19 20  1  0  0  0
 19 24  1  0  0  0
 20 21  2  0  0  0
 20103  1  0  0  0
 21 23  1  0  0  0
 22 28  1  0  0  0
 22 32  2  0  0  0
 26 27  1  0  0  0
 28104  1  0  0  0
 28105  1  0  0  0
 29106  1  0  0  0
 29107  1  0  0  0
 33 34  1  0  0  0
 33 66  1  0  0  0
 33 70  2  0  0  0
 34 36  1  0  0  0
 34 59  1  0  0  0
 34108  1  0  0  0
 35 44  2  0  0  0
 35 45  1  0  0  0
 35 68  1  0  0  0
 36 56  1  0  0  0
 36109  1  0  0  0
 37 39  1  0  0  0
 37 47  1  0  0  0
 37 66  1  0  0  0
 37110  1  0  0  0
 38 43  2  0  0  0
 38 46  1  0  0  0
 38 47  1  0  0  0
 39 64  1  0  0  0
 39 67  2  0  0  0
 40 52  1  0  0  0
 40 53  2  0  0  0
 40 58  1  0  0  0
 41111  1  0  0  0
 41112  1  0  0  0
 41113  1  0  0  0
 41 48  1  0  0  0
 42 43  1  0  0  0
 42 66  1  0  0  0
 42114  1  0  0  0
 42115  1  0  0  0
 43 44  1  0  0  0
 44116  1  0  0  0
 45 46  2  0  0  0
 45117  1  0  0  0
 46118  1  0  0  0
 47119  1  0  0  0
 47120  1  0  0  0
 48 56  1  0  0  0
 48 65  1  0  0  0
 48121  1  0  0  0
 49 50  1  0  0  0
 49 53  1  0  0  0
 49 64  1  0  0  0
 49122  1  0  0  0
 50 51  1  0  0  0
 50123  1  0  0  0
 50124  1  0  0  0
 51 52  1  0  0  0
 51125  1  0  0  0
 51126  1  0  0  0
 52127  1  0  0  0
 52128  1  0  0  0
 53 54  1  0  0  0
 54 55  2  0  0  0
 54129  1  0  0  0
 55 57  1  0  0  0
 55130  1  0  0  0
 56 69  2  0  0  0
 57 58  2  0  0  0
 57131  1  0  0  0
 58132  1  0  0  0
 59 60  1  0  0  0
 59 61  1  0  0  0
 59 62  1  0  0  0
 60133  1  0  0  0
 60134  1  0  0  0
 60135  1  0  0  0
 61136  1  0  0  0
 61137  1  0  0  0
 61138  1  0  0  0
 62139  1  0  0  0
 62140  1  0  0  0
 62141  1  0  0  0
 63 65  1  0  0  0
 63142  1  0  0  0
 63143  1  0  0  0
 63144  1  0  0  0
 64145  1  0  0  0
 65146  1  0  0  0
 68 79  1  0  0  0
 71 72  2  0  0  0
 71 74  1  0  0  0
 71147  1  0  0  0
 72 75  1  0  0  0
 72148  1  0  0  0
 73 74  2  0  0  0
 73 76  1  0  0  0
 73149  1  0  0  0
 74 81  1  0  0  0
 75 76  2  0  0  0
 75 82  1  0  0  0
 76 87  1  0  0  0
 77 80  1  0  0  0
 77 82  1  0  0  0
 77 83  2  0  0  0
 78 79  1  0  0  0
 78 82  1  0  0  0
 78150  1  0  0  0
 78151  1  0  0  0
 79152  1  0  0  0
 79153  1  0  0  0
 80 84  1  0  0  0
 80 85  1  0  0  0
 80 86  1  0  0  0
 81154  1  0  0  0
M  ISO  4   1 100  68 101  79 101  81 100
M  END
> <chiral flag>
0

> <version>
0

> <s_m_source_file>
/data/baiqing/PycharmProjects/Reinvent-master-3.2/result/LINK_invent/BTK/process_docking_weight1_custom_sum_contain_oxygen_bond_distance_aromatic_linkinvent_7_9_3/rearranged_h_0005.sdf

> <i_m_source_file_index>
34

> <r_mmod_Potential_Energy-OPLS-2005>
633.720092773438

> <r_mmod_Stretch_Energy-OPLS-2005>
237.767059326172

> <r_mmod_Bend_Energy-OPLS-2005>
284.103515625

> <r_mmod_Torsional_Energy-OPLS-2005>
294.298278808594

> <r_mmod_Improper_Torsional_Energy-OPLS-2005>
4.09110689163208

> <r_mmod_Van_der_Waal_Energy-OPLS-2005>
144.31591796875

> <r_mmod_Electrostatic_Energy-OPLS-2005>
-278.050872802734

> <r_mmod_Solvation_Energy-OPLS-2005>
-216.556594848633

> <b_mmod_Minimization_Converged-OPLS-2005>
0

> <r_mmod_RMS_Derivative-OPLS-2005>
4.12688970565796

$$$$
34
                    3D
 Structure written by MMmdl.
151159  0  0  1  0            999 V2000
  -30.5976  -14.7449   20.4182 C   0  0  0  0  0  0
  -30.4361  -12.4486   19.4713 C   0  0  0  0  0  0
  -29.5135  -12.5141   18.2339 C   0  0  0  0  0  0
  -28.0388  -12.3419   18.6416 C   0  0  0  0  0  0
  -27.6461  -13.2336   19.8509 C   0  0  2  0  0  0
  -28.6911  -13.1502   20.9860 C   0  0  0  0  0  0
  -25.2524  -13.8213   20.5632 C   0  0  0  0  0  0
  -24.1819  -13.0456   20.9173 C   0  0  0  0  0  0
  -24.6404  -11.6931   20.8705 C   0  0  0  0  0  0
  -23.9071  -10.4314   21.0386 C   0  0  0  0  0  0
  -24.3622   -9.4216   21.9160 C   0  0  0  0  0  0
  -23.6292   -8.2259   22.0740 C   0  0  0  0  0  0
  -22.4261   -8.0311   21.3538 C   0  0  0  0  0  0
  -21.9897   -9.0292   20.4651 C   0  0  0  0  0  0
  -22.7236  -10.2153   20.3058 C   0  0  0  0  0  0
  -21.6859   -6.0740   22.5273 C   0  0  0  0  0  0
  -21.4020   -6.5634   23.8207 C   0  0  0  0  0  0
  -21.3654   -5.6770   24.9162 C   0  0  0  0  0  0
  -21.6046   -4.3041   24.7209 C   0  0  0  0  0  0
  -21.8828   -3.8145   23.4327 C   0  0  0  0  0  0
  -21.9197   -4.6959   22.3389 C   0  0  0  0  0  0
  -22.7843  -13.5257   21.1849 C   0  0  0  0  0  0
  -22.1665   -4.2163   21.0959 F   0  0  0  0  0  0
  -21.5614   -3.4525   25.7701 F   0  0  0  0  0  0
  -29.9953  -13.5049   20.4108 N   0  0  0  0  0  0
  -26.2960  -12.9422   20.3234 N   0  0  0  0  0  0
  -25.9339  -11.6567   20.5694 N   0  0  0  0  0  0
  -22.0492  -12.8266   22.0430 N   0  0  0  0  0  0
  -25.4239  -15.1938   20.4023 N   0  0  0  0  0  0
  -31.7770  -14.8475   20.0686 O   0  0  0  0  0  0
  -21.6651   -6.8890   21.4234 O   0  0  0  0  0  0
  -22.3534  -14.5566   20.6694 O   0  0  0  0  0  0
  -24.6317  -31.8560   23.1983 C   0  0  0  0  0  0
  -25.9137  -32.4765   23.8329 C   0  0  1  0  0  0
  -27.2232  -27.2650   20.1180 C   0  0  0  0  0  0
  -25.5929  -33.8552   24.2259 N   0  0  0  0  0  0
  -23.4293  -30.4798   21.5417 C   0  0  2  0  0  0
  -24.8776  -28.9332   20.1065 C   0  0  0  0  0  0
  -22.7503  -29.4604   22.4903 C   0  0  0  0  0  0
  -18.0297  -28.1414   22.8474 C   0  0  0  0  0  0
  -24.1483  -36.7295   23.2634 C   0  0  0  0  0  0
  -25.9749  -30.7695   21.3779 C   0  0  0  0  0  0
  -26.0486  -29.3923   20.7209 C   0  0  0  0  0  0
  -27.2234  -28.5698   20.7196 C   0  0  0  0  0  0
  -26.0303  -26.8887   19.4541 C   0  0  0  0  0  0
  -24.8742  -27.6903   19.4614 C   0  0  0  0  0  0
  -23.6466  -29.8170   20.1570 C   0  0  0  0  0  0
  -25.4103  -36.3073   24.0327 C   0  0  1  0  0  0
  -20.5897  -28.3723   23.1271 C   0  0  2  0  0  0
  -20.6781  -26.9438   22.5418 C   0  0  0  0  0  0
  -19.5759  -26.6389   21.5220 C   0  0  0  0  0  0
  -18.1937  -26.7951   22.1623 C   0  0  0  0  0  0
  -19.1550  -28.8881   23.2863 C   0  0  0  0  0  0
  -18.9467  -30.1483   23.8892 C   0  0  0  0  0  0
  -17.6463  -30.6600   24.0574 C   0  0  0  0  0  0
  -25.9050  -34.9448   23.5105 C   0  0  0  0  0  0
  -16.5357  -29.9104   23.6327 C   0  0  0  0  0  0
  -16.7281  -28.6526   23.0334 C   0  0  0  0  0  0
  -26.4499  -31.6578   25.0709 C   0  0  0  0  0  0
  -25.3733  -31.3768   26.1448 C   0  0  0  0  0  0
  -27.0292  -30.2977   24.6191 C   0  0  0  0  0  0
  -27.6088  -32.4301   25.7443 C   0  0  0  0  0  0
  -27.5598  -37.1773   24.8445 C   0  0  0  0  0  0
  -21.4217  -29.3066   22.3648 N   0  0  0  0  0  0
  -26.4276  -37.3786   23.9440 N   0  0  0  0  0  0
  -24.6974  -31.0531   22.0960 N   0  0  0  0  0  0
  -23.4213  -28.8137   23.2985 O   0  0  0  0  0  0
  -28.3072  -26.3516   20.1970 O   0  0  0  0  0  0
  -26.5624  -34.8926   22.4674 O   0  0  0  0  0  0
  -23.5466  -32.1364   23.7300 O   0  0  0  0  0  0
  -30.2878  -18.6008   18.0480 C   0  0  0  0  0  0
  -29.9636  -19.7976   18.7257 C   0  0  0  0  0  0
  -30.2645  -17.3472   18.6986 C   0  0  0  0  0  0
  -29.5410  -18.4727   20.7240 C   0  0  0  0  0  0
  -29.5791  -19.7814   20.0825 C   0  0  0  0  0  0
  -29.9026  -17.2287   20.0591 C   0  0  0  0  0  0
  -28.9859  -23.7554   20.4921 C   0  0  0  0  0  0
  -29.3224  -21.1633   20.8363 C   0  0  0  0  0  0
  -28.0503  -24.8995   19.8758 C   0  0  0  0  0  0
  -29.8225  -15.8716   20.6626 N   0  0  0  0  0  0
  -28.8143  -22.4231   20.1364 N   0  0  0  0  0  0
  -29.8265  -24.0713   21.3367 O   0  0  0  0  0  0
  -31.4751  -12.5749   19.1640 H   0  0  0  0  0  0
  -30.3821  -11.4688   19.9483 H   0  0  0  0  0  0
  -29.7869  -11.7464   17.5066 H   0  0  0  0  0  0
  -29.6430  -13.4737   17.7315 H   0  0  0  0  0  0
  -27.8819  -11.2907   18.8847 H   0  0  0  0  0  0
  -27.3958  -12.5578   17.7873 H   0  0  0  0  0  0
  -27.6447  -14.2580   19.4752 H   0  0  0  0  0  0
  -28.7210  -12.1420   21.4028 H   0  0  0  0  0  0
  -28.4330  -13.8153   21.8109 H   0  0  0  0  0  0
  -25.2782   -9.5684   22.4727 H   0  0  0  0  0  0
  -24.0008   -7.4637   22.7450 H   0  0  0  0  0  0
  -21.0822   -8.8839   19.8955 H   0  0  0  0  0  0
  -22.3719  -10.9699   19.6186 H   0  0  0  0  0  0
  -21.2029   -7.6141   23.9713 H   0  0  0  0  0  0
  -21.1453   -6.0497   25.9053 H   0  0  0  0  0  0
  -22.0608   -2.7617   23.2829 H   0  0  0  0  0  0
  -22.4110  -11.9964   22.4879 H   0  0  0  0  0  0
  -21.1132  -13.1327   22.2648 H   0  0  0  0  0  0
  -24.6646  -15.8548   20.5226 H   0  0  0  0  0  0
  -26.2679  -15.6215   20.0424 H   0  0  0  0  0  0
  -26.7202  -32.5421   23.1069 H   0  0  0  0  0  0
  -25.0053  -33.9679   25.0396 H   0  0  0  0  0  0
  -22.7255  -31.3015   21.3960 H   0  0  0  0  0  0
  -23.3759  -35.9614   23.3253 H   0  0  0  0  0  0
  -24.3592  -36.8962   22.2061 H   0  0  0  0  0  0
  -23.7207  -37.6469   23.6689 H   0  0  0  0  0  0
  -26.1096  -31.5300   20.6072 H   0  0  0  0  0  0
  -26.8540  -30.8221   22.0074 H   0  0  0  0  0  0
  -28.1162  -28.9163   21.2224 H   0  0  0  0  0  0
  -25.9516  -25.9513   18.9252 H   0  0  0  0  0  0
  -23.9839  -27.3402   18.9582 H   0  0  0  0  0  0
  -23.7690  -30.5922   19.3997 H   0  0  0  0  0  0
  -22.7652  -29.2496   19.8533 H   0  0  0  0  0  0
  -25.1271  -36.1917   25.0812 H   0  0  0  0  0  0
  -20.9985  -28.3318   24.1393 H   0  0  0  0  0  0
  -20.5665  -26.2340   23.3631 H   0  0  0  0  0  0
  -21.6655  -26.7439   22.1236 H   0  0  0  0  0  0
  -19.6917  -25.6287   21.1278 H   0  0  0  0  0  0
  -19.6702  -27.3176   20.6734 H   0  0  0  0  0  0
  -17.4197  -26.6688   21.4038 H   0  0  0  0  0  0
  -18.0340  -26.0112   22.9038 H   0  0  0  0  0  0
  -19.7937  -30.7310   24.2265 H   0  0  0  0  0  0
  -17.5011  -31.6279   24.5186 H   0  0  0  0  0  0
  -15.5362  -30.3006   23.7652 H   0  0  0  0  0  0
  -15.8681  -28.0855   22.7039 H   0  0  0  0  0  0
  -24.5901  -30.7100   25.7820 H   0  0  0  0  0  0
  -24.8922  -32.2943   26.4846 H   0  0  0  0  0  0
  -25.8055  -30.8981   27.0244 H   0  0  0  0  0  0
  -26.2835  -29.6751   24.1227 H   0  0  0  0  0  0
  -27.3952  -29.7226   25.4708 H   0  0  0  0  0  0
  -27.8744  -30.4208   23.9418 H   0  0  0  0  0  0
  -27.2735  -33.3621   26.2012 H   0  0  0  0  0  0
  -28.3883  -32.6825   25.0238 H   0  0  0  0  0  0
  -28.0770  -31.8418   26.5350 H   0  0  0  0  0  0
  -28.2570  -38.0121   24.7581 H   0  0  0  0  0  0
  -28.1142  -36.2662   24.6135 H   0  0  0  0  0  0
  -27.2352  -37.1261   25.8856 H   0  0  0  0  0  0
  -20.9410  -29.8799   21.6858 H   0  0  0  0  0  0
  -26.0156  -38.2846   24.1515 H   0  0  0  0  0  0
  -30.5656  -18.6424   17.0019 H   0  0  0  0  0  0
  -30.0301  -20.7395   18.1979 H   0  0  0  0  0  0
  -30.5060  -16.4665   18.1171 H   0  0  0  0  0  0
  -29.2439  -18.4349   21.7632 H   0  0  0  0  0  0
  -30.2665  -21.4156   21.3210 H   0  0  0  0  0  0
  -28.6338  -20.9604   21.6561 H   0  0  0  0  0  0
  -27.0603  -24.6304   20.2430 H   0  0  0  0  0  0
  -28.0381  -24.7813   18.7930 H   0  0  0  0  0  0
  -28.9644  -15.6855   21.1623 H   0  0  0  0  0  0
  -28.1178  -22.2650   19.4212 H   0  0  0  0  0  0
  1 25  1  0  0  0
  1 30  2  0  0  0
  1 80  1  0  0  0
  2  3  1  0  0  0
  2 25  1  0  0  0
  2 83  1  0  0  0
  2 84  1  0  0  0
  3  4  1  0  0  0
  3 85  1  0  0  0
  3 86  1  0  0  0
  4  5  1  0  0  0
  4 87  1  0  0  0
  4 88  1  0  0  0
  5  6  1  0  0  0
  5 26  1  0  0  0
  5 89  1  0  0  0
  6 25  1  0  0  0
  6 90  1  0  0  0
  6 91  1  0  0  0
  7  8  2  0  0  0
  7 26  1  0  0  0
  7 29  1  0  0  0
  8  9  1  0  0  0
  8 22  1  0  0  0
  9 10  1  0  0  0
  9 27  2  0  0  0
 10 11  2  0  0  0
 10 15  1  0  0  0
 11 12  1  0  0  0
 11 92  1  0  0  0
 12 13  2  0  0  0
 12 93  1  0  0  0
 13 14  1  0  0  0
 13 31  1  0  0  0
 14 15  2  0  0  0
 14 94  1  0  0  0
 15 95  1  0  0  0
 16 17  2  0  0  0
 16 21  1  0  0  0
 16 31  1  0  0  0
 17 18  1  0  0  0
 17 96  1  0  0  0
 18 19  2  0  0  0
 18 97  1  0  0  0
 19 20  1  0  0  0
 19 24  1  0  0  0
 20 21  2  0  0  0
 20 98  1  0  0  0
 21 23  1  0  0  0
 22 28  1  0  0  0
 22 32  2  0  0  0
 26 27  1  0  0  0
 28 99  1  0  0  0
 28100  1  0  0  0
 29101  1  0  0  0
 29102  1  0  0  0
 33 34  1  0  0  0
 33 66  1  0  0  0
 33 70  2  0  0  0
 34 36  1  0  0  0
 34 59  1  0  0  0
 34103  1  0  0  0
 35 44  2  0  0  0
 35 45  1  0  0  0
 35 68  1  0  0  0
 36 56  1  0  0  0
 36104  1  0  0  0
 37 39  1  0  0  0
 37 47  1  0  0  0
 37 66  1  0  0  0
 37105  1  0  0  0
 38 43  2  0  0  0
 38 46  1  0  0  0
 38 47  1  0  0  0
 39 64  1  0  0  0
 39 67  2  0  0  0
 40 52  1  0  0  0
 40 53  2  0  0  0
 40 58  1  0  0  0
 41106  1  0  0  0
 41107  1  0  0  0
 41108  1  0  0  0
 41 48  1  0  0  0
 42 43  1  0  0  0
 42 66  1  0  0  0
 42109  1  0  0  0
 42110  1  0  0  0
 43 44  1  0  0  0
 44111  1  0  0  0
 45 46  2  0  0  0
 45112  1  0  0  0
 46113  1  0  0  0
 47114  1  0  0  0
 47115  1  0  0  0
 48 56  1  0  0  0
 48 65  1  0  0  0
 48116  1  0  0  0
 49 50  1  0  0  0
 49 53  1  0  0  0
 49 64  1  0  0  0
 49117  1  0  0  0
 50 51  1  0  0  0
 50118  1  0  0  0
 50119  1  0  0  0
 51 52  1  0  0  0
 51120  1  0  0  0
 51121  1  0  0  0
 52122  1  0  0  0
 52123  1  0  0  0
 53 54  1  0  0  0
 54 55  2  0  0  0
 54124  1  0  0  0
 55 57  1  0  0  0
 55125  1  0  0  0
 56 69  2  0  0  0
 57 58  2  0  0  0
 57126  1  0  0  0
 58127  1  0  0  0
 59 60  1  0  0  0
 59 61  1  0  0  0
 59 62  1  0  0  0
 60128  1  0  0  0
 60129  1  0  0  0
 60130  1  0  0  0
 61131  1  0  0  0
 61132  1  0  0  0
 61133  1  0  0  0
 62134  1  0  0  0
 62135  1  0  0  0
 62136  1  0  0  0
 63 65  1  0  0  0
 63137  1  0  0  0
 63138  1  0  0  0
 63139  1  0  0  0
 64140  1  0  0  0
 65141  1  0  0  0
 68 79  1  0  0  0
 71 72  2  0  0  0
 71 73  1  0  0  0
 71142  1  0  0  0
 72 75  1  0  0  0
 72143  1  0  0  0
 73 76  2  0  0  0
 73144  1  0  0  0
 74 75  2  0  0  0
 74 76  1  0  0  0
 74145  1  0  0  0
 75 78  1  0  0  0
 76 80  1  0  0  0
 77 79  1  0  0  0
 77 81  1  0  0  0
 77 82  2  0  0  0
 78 81  1  0  0  0
 78146  1  0  0  0
 78147  1  0  0  0
 79148  1  0  0  0
 79149  1  0  0  0
 80150  1  0  0  0
 81151  1  0  0  0
M  ISO  4   1 100  68 101  79 101  80 100
M  END
> <chiral flag>
0

> <version>
0

> <s_m_source_file>
/data/baiqing/PycharmProjects/Reinvent-master-3.2/result/LINK_invent/BTK/process_docking_weight1_custom_sum_contain_oxygen_bond_distance_aromatic_linkinvent_7_9_3/rearranged_h_0005.sdf

> <i_m_source_file_index>
35

> <r_mmod_Potential_Energy-OPLS-2005>
85.4810256958008

> <r_mmod_Stretch_Energy-OPLS-2005>
120.807792663574

> <r_mmod_Bend_Energy-OPLS-2005>
152.481475830078

> <r_mmod_Torsional_Energy-OPLS-2005>
231.772384643555

> <r_mmod_Improper_Torsional_Energy-OPLS-2005>
5.49780511856079

> <r_mmod_Van_der_Waal_Energy-OPLS-2005>
140.538269042969

> <r_mmod_Electrostatic_Energy-OPLS-2005>
-398.400085449219

> <r_mmod_Solvation_Energy-OPLS-2005>
-253.995498657227

> <b_mmod_Minimization_Converged-OPLS-2005>
0

> <r_mmod_RMS_Derivative-OPLS-2005>
3.58414220809937

$$$$
35
                    3D
 Structure written by MMmdl.
179187  0  0  1  0            999 V2000
  -30.7378  -14.3476   20.7217 C   0  0  0  0  0  0
  -30.4257  -12.2951   19.3812 C   0  0  0  0  0  0
  -29.4833  -12.5396   18.1871 C   0  0  0  0  0  0
  -28.0072  -12.3896   18.6036 C   0  0  0  0  0  0
  -27.6683  -13.1953   19.8841 C   0  0  2  0  0  0
  -28.7009  -12.8955   20.9902 C   0  0  0  0  0  0
  -25.2605  -13.8139   20.5656 C   0  0  0  0  0  0
  -24.1849  -13.0434   20.9145 C   0  0  0  0  0  0
  -24.6385  -11.6895   20.8717 C   0  0  0  0  0  0
  -23.9051  -10.4291   21.0399 C   0  0  0  0  0  0
  -24.3607   -9.4205   21.9180 C   0  0  0  0  0  0
  -23.6284   -8.2243   22.0756 C   0  0  0  0  0  0
  -22.4267   -8.0279   21.3543 C   0  0  0  0  0  0
  -21.9895   -9.0254   20.4649 C   0  0  0  0  0  0
  -22.7222  -10.2135   20.3057 C   0  0  0  0  0  0
  -21.6854   -6.0734   22.5280 C   0  0  0  0  0  0
  -21.4014   -6.5639   23.8211 C   0  0  0  0  0  0
  -21.3658   -5.6791   24.9174 C   0  0  0  0  0  0
  -21.6047   -4.3055   24.7226 C   0  0  0  0  0  0
  -21.8818   -3.8146   23.4346 C   0  0  0  0  0  0
  -21.9192   -4.6961   22.3403 C   0  0  0  0  0  0
  -22.7872  -13.5240   21.1823 C   0  0  0  0  0  0
  -22.1662   -4.2147   21.0981 F   0  0  0  0  0  0
  -21.5627   -3.4539   25.7740 F   0  0  0  0  0  0
  -30.0470  -13.2085   20.4679 N   0  0  0  0  0  0
  -26.3046  -12.9292   20.3369 N   0  0  0  0  0  0
  -25.9306  -11.6462   20.5736 N   0  0  0  0  0  0
  -22.0526  -12.8256   22.0389 N   0  0  0  0  0  0
  -25.4335  -15.1853   20.4082 N   0  0  0  0  0  0
  -31.7408  -14.6997   20.0906 O   0  0  0  0  0  0
  -21.6638   -6.8875   21.4241 O   0  0  0  0  0  0
  -22.3561  -14.5557   20.6674 O   0  0  0  0  0  0
  -24.6090  -31.8763   23.2116 C   0  0  0  0  0  0
  -25.9010  -32.4864   23.8388 C   0  0  1  0  0  0
  -27.2291  -27.4642   20.0676 C   0  0  0  0  0  0
  -25.5889  -33.8667   24.2342 N   0  0  0  0  0  0
  -23.3920  -30.5017   21.5562 C   0  0  2  0  0  0
  -24.8312  -28.9677   20.1348 C   0  0  0  0  0  0
  -22.7372  -29.4708   22.5007 C   0  0  0  0  0  0
  -18.0263  -28.1436   22.8493 C   0  0  0  0  0  0
  -24.1476  -36.7311   23.2632 C   0  0  0  0  0  0
  -25.9199  -30.8528   21.3524 C   0  0  0  0  0  0
  -25.9984  -29.4876   20.7043 C   0  0  0  0  0  0
  -27.2001  -28.7478   20.6567 C   0  0  0  0  0  0
  -26.0038  -26.9095   19.6339 C   0  0  0  0  0  0
  -24.8255  -27.6702   19.6049 C   0  0  0  0  0  0
  -23.5993  -29.8368   20.1721 C   0  0  0  0  0  0
  -25.4103  -36.3123   24.0327 C   0  0  1  0  0  0
  -20.5843  -28.3664   23.1374 C   0  0  2  0  0  0
  -20.6759  -26.9419   22.5426 C   0  0  0  0  0  0
  -19.5754  -26.6425   21.5224 C   0  0  0  0  0  0
  -18.1933  -26.7971   22.1626 C   0  0  0  0  0  0
  -19.1510  -28.8873   23.2940 C   0  0  0  0  0  0
  -18.9420  -30.1491   23.8929 C   0  0  0  0  0  0
  -17.6425  -30.6625   24.0615 C   0  0  0  0  0  0
  -25.9038  -34.9514   23.5142 C   0  0  0  0  0  0
  -16.5321  -29.9126   23.6383 C   0  0  0  0  0  0
  -16.7252  -28.6587   23.0330 C   0  0  0  0  0  0
  -26.4460  -31.6623   25.0705 C   0  0  0  0  0  0
  -25.3734  -31.3715   26.1455 C   0  0  0  0  0  0
  -27.0273  -30.3082   24.6043 C   0  0  0  0  0  0
  -27.6072  -32.4272   25.7474 C   0  0  0  0  0  0
  -27.5585  -37.1784   24.8474 C   0  0  0  0  0  0
  -21.4105  -29.3037   22.3766 N   0  0  0  0  0  0
  -26.4293  -37.3795   23.9434 N   0  0  0  0  0  0
  -24.6598  -31.0865   22.1016 N   0  0  0  0  0  0
  -23.4193  -28.8269   23.3017 O   0  0  0  0  0  0
  -28.4428  -26.8142   19.9498 O   0  0  0  0  0  0
  -26.5573  -34.8946   22.4684 O   0  0  0  0  0  0
  -23.5299  -32.1547   23.7519 O   0  0  0  0  0  0
  -23.5995  -20.0676   18.9356 C   0  0  0  0  0  0
  -24.7510  -19.8525   19.2778 C   0  0  0  0  0  0
  -23.5502  -24.0873   16.2478 C   0  0  0  0  0  0
  -24.5760  -25.0351   16.0719 C   0  0  0  0  0  0
  -24.8828  -22.4434   15.0383 C   0  0  0  0  0  0
  -23.7400  -22.7578   15.8068 C   0  0  0  0  0  0
  -25.9237  -23.3829   14.8902 C   0  0  0  0  0  0
  -25.8120  -24.6539   15.4921 C   0  0  0  0  0  0
  -22.8133  -21.6583   16.2374 C   0  0  0  0  0  0
  -27.1973  -22.9787   14.1797 C   0  0  0  0  0  0
  -22.3061  -20.5329   18.3965 C   0  0  0  0  0  0
  -26.1963  -19.8049   19.5463 C   0  0  0  0  0  0
  -30.0191  -17.5074   21.4196 C   0  0  0  0  0  0
  -28.4772  -17.4680   21.3264 C   0  0  0  0  0  0
  -28.5299  -25.8593   17.5727 C   0  0  0  0  0  0
  -30.6739  -16.3658   22.2182 C   0  0  0  0  0  0
  -27.9704  -18.6774   20.5291 C   0  0  0  0  0  0
  -28.5740  -25.6475   19.1185 C   0  0  0  0  0  0
  -27.1060  -25.8585   16.9946 C   0  0  0  0  0  0
  -22.5181  -21.6993   17.5431 N   0  0  0  0  0  0
  -30.2482  -15.0545   21.7486 N   0  0  0  0  0  0
  -22.5374  -20.7099   15.4994 O   0  0  0  0  0  0
  -26.9436  -25.4296   15.6409 O   0  0  0  0  0  0
  -26.5609  -18.6709   20.3274 O   0  0  0  0  0  0
  -31.4653  -12.4267   19.0752 H   0  0  0  0  0  0
  -30.3481  -11.2627   19.7245 H   0  0  0  0  0  0
  -29.7161  -11.8471   17.3770 H   0  0  0  0  0  0
  -29.6514  -13.5424   17.7902 H   0  0  0  0  0  0
  -27.8119  -11.3296   18.7692 H   0  0  0  0  0  0
  -27.3545  -12.6950   17.7851 H   0  0  0  0  0  0
  -27.7382  -14.2547   19.6358 H   0  0  0  0  0  0
  -28.6632  -11.8397   21.2610 H   0  0  0  0  0  0
  -28.4334  -13.4254   21.9040 H   0  0  0  0  0  0
  -25.2758   -9.5684   22.4742 H   0  0  0  0  0  0
  -23.9998   -7.4636   22.7478 H   0  0  0  0  0  0
  -21.0821   -8.8768   19.8959 H   0  0  0  0  0  0
  -22.3675  -10.9672   19.6164 H   0  0  0  0  0  0
  -21.2009   -7.6149   23.9713 H   0  0  0  0  0  0
  -21.1481   -6.0525   25.9076 H   0  0  0  0  0  0
  -22.0600   -2.7609   23.2849 H   0  0  0  0  0  0
  -22.4139  -11.9914   22.4777 H   0  0  0  0  0  0
  -21.1149  -13.1293   22.2608 H   0  0  0  0  0  0
  -24.6733  -15.8440   20.5354 H   0  0  0  0  0  0
  -26.2945  -15.6330   20.1210 H   0  0  0  0  0  0
  -26.7036  -32.5602   23.1121 H   0  0  0  0  0  0
  -24.9927  -33.9832   25.0407 H   0  0  0  0  0  0
  -22.6736  -31.3145   21.4235 H   0  0  0  0  0  0
  -23.3734  -35.9644   23.3322 H   0  0  0  0  0  0
  -24.3555  -36.8910   22.2033 H   0  0  0  0  0  0
  -23.7221  -37.6523   23.6650 H   0  0  0  0  0  0
  -26.0095  -31.6023   20.5673 H   0  0  0  0  0  0
  -26.8160  -30.9254   21.9563 H   0  0  0  0  0  0
  -28.1087  -29.1732   21.0574 H   0  0  0  0  0  0
  -25.9172  -25.8814   19.3346 H   0  0  0  0  0  0
  -23.9089  -27.2403   19.2261 H   0  0  0  0  0  0
  -23.7149  -30.6087   19.4088 H   0  0  0  0  0  0
  -22.7222  -29.2560   19.8782 H   0  0  0  0  0  0
  -25.1263  -36.1999   25.0805 H   0  0  0  0  0  0
  -20.9962  -28.3187   24.1479 H   0  0  0  0  0  0
  -20.5727  -26.2234   23.3569 H   0  0  0  0  0  0
  -21.6627  -26.7511   22.1187 H   0  0  0  0  0  0
  -19.6919  -25.6348   21.1251 H   0  0  0  0  0  0
  -19.6721  -27.3237   20.6766 H   0  0  0  0  0  0
  -17.4198  -26.6666   21.4047 H   0  0  0  0  0  0
  -18.0384  -26.0136   22.9055 H   0  0  0  0  0  0
  -19.7887  -30.7350   24.2264 H   0  0  0  0  0  0
  -17.4980  -31.6330   24.5176 H   0  0  0  0  0  0
  -15.5340  -30.3046   23.7743 H   0  0  0  0  0  0
  -15.8639  -28.0999   22.6934 H   0  0  0  0  0  0
  -24.5909  -30.7078   25.7781 H   0  0  0  0  0  0
  -24.8915  -32.2850   26.4916 H   0  0  0  0  0  0
  -25.8057  -30.8865   27.0211 H   0  0  0  0  0  0
  -26.2804  -29.6851   24.1101 H   0  0  0  0  0  0
  -27.4060  -29.7329   25.4499 H   0  0  0  0  0  0
  -27.8651  -30.4420   23.9196 H   0  0  0  0  0  0
  -27.2748  -33.3547   26.2142 H   0  0  0  0  0  0
  -28.3868  -32.6806   25.0282 H   0  0  0  0  0  0
  -28.0770  -31.8313   26.5315 H   0  0  0  0  0  0
  -28.2582  -38.0092   24.7510 H   0  0  0  0  0  0
  -28.1081  -36.2605   24.6309 H   0  0  0  0  0  0
  -27.2320  -37.1483   25.8883 H   0  0  0  0  0  0
  -20.9228  -29.8710   21.6965 H   0  0  0  0  0  0
  -26.0193  -38.2879   24.1438 H   0  0  0  0  0  0
  -22.6584  -24.3726   16.7930 H   0  0  0  0  0  0
  -24.4497  -26.0272   16.4840 H   0  0  0  0  0  0
  -25.0104  -21.4396   14.6530 H   0  0  0  0  0  0
  -27.0198  -22.1394   13.5062 H   0  0  0  0  0  0
  -27.9611  -22.6925   14.9026 H   0  0  0  0  0  0
  -27.5834  -23.8043   13.5821 H   0  0  0  0  0  0
  -21.6725  -20.7976   19.2434 H   0  0  0  0  0  0
  -21.8119  -19.7189   17.8638 H   0  0  0  0  0  0
  -26.4733  -20.7329   20.0492 H   0  0  0  0  0  0
  -26.6989  -19.7891   18.5781 H   0  0  0  0  0  0
  -30.3269  -18.4561   21.8627 H   0  0  0  0  0  0
  -30.4298  -17.5067   20.4091 H   0  0  0  0  0  0
  -28.0321  -17.4623   22.3213 H   0  0  0  0  0  0
  -28.1561  -16.5505   20.8352 H   0  0  0  0  0  0
  -29.0641  -25.0174   17.1300 H   0  0  0  0  0  0
  -29.0703  -26.7558   17.2701 H   0  0  0  0  0  0
  -30.4093  -16.4512   23.2733 H   0  0  0  0  0  0
  -31.7613  -16.4493   22.1678 H   0  0  0  0  0  0
  -28.4685  -18.6863   19.5579 H   0  0  0  0  0  0
  -28.2590  -19.5930   21.0477 H   0  0  0  0  0  0
  -29.5578  -25.2366   19.3505 H   0  0  0  0  0  0
  -27.8786  -24.8698   19.4353 H   0  0  0  0  0  0
  -26.6290  -26.8326   17.1130 H   0  0  0  0  0  0
  -26.5790  -25.1323   17.6101 H   0  0  0  0  0  0
  -22.8244  -22.5376   18.0172 H   0  0  0  0  0  0
  -29.4726  -14.6306   22.2360 H   0  0  0  0  0  0
  1 25  1  0  0  0
  1 30  2  0  0  0
  1 91  1  0  0  0
  2  3  1  0  0  0
  2 25  1  0  0  0
  2 95  1  0  0  0
  2 96  1  0  0  0
  3  4  1  0  0  0
  3 97  1  0  0  0
  3 98  1  0  0  0
  4  5  1  0  0  0
  4 99  1  0  0  0
  4100  1  0  0  0
  5  6  1  0  0  0
  5 26  1  0  0  0
  5101  1  0  0  0
  6 25  1  0  0  0
  6102  1  0  0  0
  6103  1  0  0  0
  7  8  2  0  0  0
  7 26  1  0  0  0
  7 29  1  0  0  0
  8  9  1  0  0  0
  8 22  1  0  0  0
  9 10  1  0  0  0
  9 27  2  0  0  0
 10 11  2  0  0  0
 10 15  1  0  0  0
 11 12  1  0  0  0
 11104  1  0  0  0
 12 13  2  0  0  0
 12105  1  0  0  0
 13 14  1  0  0  0
 13 31  1  0  0  0
 14 15  2  0  0  0
 14106  1  0  0  0
 15107  1  0  0  0
 16 17  2  0  0  0
 16 21  1  0  0  0
 16 31  1  0  0  0
 17 18  1  0  0  0
 17108  1  0  0  0
 18 19  2  0  0  0
 18109  1  0  0  0
 19 20  1  0  0  0
 19 24  1  0  0  0
 20 21  2  0  0  0
 20110  1  0  0  0
 21 23  1  0  0  0
 22 28  1  0  0  0
 22 32  2  0  0  0
 26 27  1  0  0  0
 28111  1  0  0  0
 28112  1  0  0  0
 29113  1  0  0  0
 29114  1  0  0  0
 33 34  1  0  0  0
 33 66  1  0  0  0
 33 70  2  0  0  0
 34 36  1  0  0  0
 34 59  1  0  0  0
 34115  1  0  0  0
 35 44  2  0  0  0
 35 45  1  0  0  0
 35 68  1  0  0  0
 36 56  1  0  0  0
 36116  1  0  0  0
 37 39  1  0  0  0
 37 47  1  0  0  0
 37 66  1  0  0  0
 37117  1  0  0  0
 38 43  2  0  0  0
 38 46  1  0  0  0
 38 47  1  0  0  0
 39 64  1  0  0  0
 39 67  2  0  0  0
 40 52  1  0  0  0
 40 53  2  0  0  0
 40 58  1  0  0  0
 41118  1  0  0  0
 41119  1  0  0  0
 41120  1  0  0  0
 41 48  1  0  0  0
 42 43  1  0  0  0
 42 66  1  0  0  0
 42121  1  0  0  0
 42122  1  0  0  0
 43 44  1  0  0  0
 44123  1  0  0  0
 45 46  2  0  0  0
 45124  1  0  0  0
 46125  1  0  0  0
 47126  1  0  0  0
 47127  1  0  0  0
 48 56  1  0  0  0
 48 65  1  0  0  0
 48128  1  0  0  0
 49 50  1  0  0  0
 49 53  1  0  0  0
 49 64  1  0  0  0
 49129  1  0  0  0
 50 51  1  0  0  0
 50130  1  0  0  0
 50131  1  0  0  0
 51 52  1  0  0  0
 51132  1  0  0  0
 51133  1  0  0  0
 52134  1  0  0  0
 52135  1  0  0  0
 53 54  1  0  0  0
 54 55  2  0  0  0
 54136  1  0  0  0
 55 57  1  0  0  0
 55137  1  0  0  0
 56 69  2  0  0  0
 57 58  2  0  0  0
 57138  1  0  0  0
 58139  1  0  0  0
 59 60  1  0  0  0
 59 61  1  0  0  0
 59 62  1  0  0  0
 60140  1  0  0  0
 60141  1  0  0  0
 60142  1  0  0  0
 61143  1  0  0  0
 61144  1  0  0  0
 61145  1  0  0  0
 62146  1  0  0  0
 62147  1  0  0  0
 62148  1  0  0  0
 63 65  1  0  0  0
 63149  1  0  0  0
 63150  1  0  0  0
 63151  1  0  0  0
 64152  1  0  0  0
 65153  1  0  0  0
 68 88  1  0  0  0
 71 72  3  0  0  0
 71 81  1  0  0  0
 72 82  1  0  0  0
 73 74  2  0  0  0
 73 76  1  0  0  0
 73154  1  0  0  0
 74 78  1  0  0  0
 74155  1  0  0  0
 75 76  2  0  0  0
 75 77  1  0  0  0
 75156  1  0  0  0
 76 79  1  0  0  0
 77 78  2  0  0  0
 77 80  1  0  0  0
 78 93  1  0  0  0
 79 90  1  0  0  0
 79 92  2  0  0  0
 80157  1  0  0  0
 80158  1  0  0  0
 80159  1  0  0  0
 81 90  1  0  0  0
 81160  1  0  0  0
 81161  1  0  0  0
 82 94  1  0  0  0
 82162  1  0  0  0
 82163  1  0  0  0
 83 84  1  0  0  0
 83 86  1  0  0  0
 83164  1  0  0  0
 83165  1  0  0  0
 84 87  1  0  0  0
 84166  1  0  0  0
 84167  1  0  0  0
 85 88  1  0  0  0
 85 89  1  0  0  0
 85168  1  0  0  0
 85169  1  0  0  0
 86 91  1  0  0  0
 86170  1  0  0  0
 86171  1  0  0  0
 87 94  1  0  0  0
 87172  1  0  0  0
 87173  1  0  0  0
 88174  1  0  0  0
 88175  1  0  0  0
 89 93  1  0  0  0
 89176  1  0  0  0
 89177  1  0  0  0
 90178  1  0  0  0
 91179  1  0  0  0
M  ISO  4   1 100  68 101  88 101  91 100
M  END
> <chiral flag>
0

> <version>
0

> <s_m_source_file>
/data/baiqing/PycharmProjects/Reinvent-master-3.2/result/LINK_invent/BTK/process_docking_weight1_custom_sum_contain_oxygen_bond_distance_aromatic_linkinvent_7_9_3/rearranged_h_0005.sdf

> <i_m_source_file_index>
36

> <r_mmod_Potential_Energy-OPLS-2005>
-103.945625305176

> <r_mmod_Stretch_Energy-OPLS-2005>
35.6630516052246

> <r_mmod_Bend_Energy-OPLS-2005>
120.897987365723

> <r_mmod_Torsional_Energy-OPLS-2005>
256.899749755859

> <r_mmod_Improper_Torsional_Energy-OPLS-2005>
7.96682214736938

> <r_mmod_Van_der_Waal_Energy-OPLS-2005>
168.619979858398

> <r_mmod_Electrostatic_Energy-OPLS-2005>
-460.067504882812

> <r_mmod_Solvation_Energy-OPLS-2005>
-246.877029418945

> <b_mmod_Minimization_Converged-OPLS-2005>
0

> <r_mmod_RMS_Derivative-OPLS-2005>
4.14672660827637

$$$$
36
                    3D
 Structure written by MMmdl.
200208  0  0  1  0            999 V2000
  -30.8040  -14.3566   20.7296 C   0  0  0  0  0  0
  -30.4135  -12.3155   19.3976 C   0  0  0  0  0  0
  -29.4838  -12.5638   18.1944 C   0  0  0  0  0  0
  -28.0043  -12.4115   18.5959 C   0  0  0  0  0  0
  -27.6645  -13.2016   19.8824 C   0  0  2  0  0  0
  -28.6984  -12.8934   20.9847 C   0  0  0  0  0  0
  -25.2560  -13.8135   20.5611 C   0  0  0  0  0  0
  -24.1832  -13.0441   20.9175 C   0  0  0  0  0  0
  -24.6392  -11.6907   20.8746 C   0  0  0  0  0  0
  -23.9075  -10.4286   21.0412 C   0  0  0  0  0  0
  -24.3634   -9.4179   21.9153 C   0  0  0  0  0  0
  -23.6312   -8.2222   22.0688 C   0  0  0  0  0  0
  -22.4267   -8.0293   21.3541 C   0  0  0  0  0  0
  -21.9922   -9.0253   20.4611 C   0  0  0  0  0  0
  -22.7281  -10.2095   20.3034 C   0  0  0  0  0  0
  -21.6880   -6.0735   22.5280 C   0  0  0  0  0  0
  -21.4052   -6.5609   23.8218 C   0  0  0  0  0  0
  -21.3647   -5.6722   24.9153 C   0  0  0  0  0  0
  -21.6039   -4.2981   24.7183 C   0  0  0  0  0  0
  -21.8838   -3.8127   23.4289 C   0  0  0  0  0  0
  -21.9200   -4.6972   22.3382 C   0  0  0  0  0  0
  -22.7870  -13.5265   21.1897 C   0  0  0  0  0  0
  -22.1672   -4.2200   21.0952 F   0  0  0  0  0  0
  -21.5612   -3.4442   25.7661 F   0  0  0  0  0  0
  -30.0439  -13.2453   20.4857 N   0  0  0  0  0  0
  -26.3029  -12.9316   20.3382 N   0  0  0  0  0  0
  -25.9315  -11.6483   20.5763 N   0  0  0  0  0  0
  -22.0514  -12.8171   22.0404 N   0  0  0  0  0  0
  -25.4186  -15.1825   20.3801 N   0  0  0  0  0  0
  -31.7648  -14.6669   20.0170 O   0  0  0  0  0  0
  -21.6642   -6.8889   21.4246 O   0  0  0  0  0  0
  -22.3550  -14.5571   20.6759 O   0  0  0  0  0  0
  -24.6098  -31.8722   23.2160 C   0  0  0  0  0  0
  -25.9026  -32.4837   23.8416 C   0  0  1  0  0  0
  -27.2322  -27.4677   20.0670 C   0  0  0  0  0  0
  -25.5911  -33.8640   24.2345 N   0  0  0  0  0  0
  -23.3941  -30.4990   21.5561 C   0  0  2  0  0  0
  -24.8367  -28.9736   20.1123 C   0  0  0  0  0  0
  -22.7378  -29.4679   22.5013 C   0  0  0  0  0  0
  -18.0269  -28.1378   22.8476 C   0  0  0  0  0  0
  -24.1495  -36.7311   23.2636 C   0  0  0  0  0  0
  -25.9219  -30.8434   21.3686 C   0  0  0  0  0  0
  -25.9953  -29.4823   20.7094 C   0  0  0  0  0  0
  -27.1908  -28.7329   20.6909 C   0  0  0  0  0  0
  -26.0497  -26.9666   19.4687 C   0  0  0  0  0  0
  -24.8574  -27.7133   19.4931 C   0  0  0  0  0  0
  -23.5981  -29.8383   20.1676 C   0  0  0  0  0  0
  -25.4113  -36.3121   24.0339 C   0  0  1  0  0  0
  -20.5851  -28.3659   23.1340 C   0  0  2  0  0  0
  -20.6760  -26.9401   22.5441 C   0  0  0  0  0  0
  -19.5764  -26.6392   21.5206 C   0  0  0  0  0  0
  -18.1923  -26.7936   22.1584 C   0  0  0  0  0  0
  -19.1518  -28.8838   23.2904 C   0  0  0  0  0  0
  -18.9443  -30.1438   23.8913 C   0  0  0  0  0  0
  -17.6448  -30.6582   24.0570 C   0  0  0  0  0  0
  -25.9034  -34.9484   23.5137 C   0  0  0  0  0  0
  -16.5341  -29.9084   23.6330 C   0  0  0  0  0  0
  -16.7257  -28.6512   23.0333 C   0  0  0  0  0  0
  -26.4465  -31.6605   25.0731 C   0  0  0  0  0  0
  -25.3740  -31.3768   26.1509 C   0  0  0  0  0  0
  -27.0222  -30.3010   24.6116 C   0  0  0  0  0  0
  -27.6101  -32.4289   25.7422 C   0  0  0  0  0  0
  -27.5600  -37.1801   24.8457 C   0  0  0  0  0  0
  -21.4112  -29.3020   22.3741 N   0  0  0  0  0  0
  -26.4304  -37.3805   23.9413 N   0  0  0  0  0  0
  -24.6598  -31.0848   22.1049 N   0  0  0  0  0  0
  -23.4174  -28.8219   23.3037 O   0  0  0  0  0  0
  -28.4294  -26.7859   20.0762 O   0  0  0  0  0  0
  -26.5576  -34.8927   22.4678 O   0  0  0  0  0  0
  -23.5308  -32.1459   23.7582 O   0  0  0  0  0  0
  -28.3902  -16.0694   22.0688 C   0  0  0  0  0  0
  -27.2393  -16.3113   22.8513 C   0  0  0  0  0  0
  -29.4452  -14.9683   23.9728 C   0  0  0  0  0  0
  -29.4816  -15.3652   22.6221 C   0  0  0  0  0  0
  -27.1769  -15.8651   24.1956 C   0  0  0  0  0  0
  -28.2990  -15.2062   24.7509 C   0  0  0  0  0  0
  -29.8018  -24.8390   19.8029 C   0  0  0  0  0  0
  -24.9111  -15.3058   24.6572 C   0  0  0  0  0  0
  -22.3435  -14.6290   26.4348 C   0  0  0  0  0  0
  -25.3810  -12.8303   24.7150 C   0  0  0  0  0  0
  -22.8170  -18.6488   26.5441 C   0  0  0  0  0  0
  -28.5363  -25.5646   19.3482 C   0  0  0  0  0  0
  -23.1773  -13.6273   25.6230 C   0  0  0  0  0  0
  -28.5396  -21.4203   22.6636 C   0  0  0  0  0  0
  -27.2891  -20.5393   22.7731 C   0  0  0  0  0  0
  -29.1790  -21.3627   21.2662 C   0  0  0  0  0  0
  -26.6482  -20.6109   24.1654 C   0  0  0  0  0  0
  -30.6070  -21.9465   21.2072 C   0  0  0  0  0  0
  -25.5685  -19.5377   24.3572 C   0  0  0  0  0  0
  -30.7403  -23.4199   21.6367 C   0  0  0  0  0  0
  -26.1246  -16.6404   26.3272 C   0  0  0  0  0  0
  -24.9738  -19.5434   25.7734 C   0  0  0  0  0  0
  -24.8664  -17.3384   26.9216 C   0  0  0  0  0  0
  -24.6705  -13.9904   25.4312 C   0  0  2  0  0  0
  -30.6358  -15.0634   21.8649 N   0  0  0  0  0  0
  -29.7334  -24.2667   21.0089 N   0  0  0  0  0  0
  -25.9944  -16.0444   24.9806 N   0  0  0  0  0  0
  -24.1719  -18.3192   26.0375 N   0  3  1  0  0  0
  -30.8020  -24.7838   19.0822 O   0  0  0  0  0  0
  -24.1281  -15.6677   23.7773 O   0  0  0  0  0  0
  -28.2688  -14.7497   26.0250 F   0  0  0  0  0  0
  -31.4547  -12.4169   19.0800 H   0  0  0  0  0  0
  -30.3194  -11.2873   19.7513 H   0  0  0  0  0  0
  -29.7255  -11.8782   17.3813 H   0  0  0  0  0  0
  -29.6490  -13.5694   17.8038 H   0  0  0  0  0  0
  -27.7878  -11.3521   18.7324 H   0  0  0  0  0  0
  -27.3639  -12.7418   17.7795 H   0  0  0  0  0  0
  -27.7318  -14.2601   19.6346 H   0  0  0  0  0  0
  -28.6708  -11.8285   21.2205 H   0  0  0  0  0  0
  -28.3992  -13.3398   21.9214 H   0  0  0  0  0  0
  -25.2752   -9.5649   22.4739 H   0  0  0  0  0  0
  -24.0039   -7.4561   22.7364 H   0  0  0  0  0  0
  -21.0847   -8.8749   19.8906 H   0  0  0  0  0  0
  -22.3751  -10.9608   19.6134 H   0  0  0  0  0  0
  -21.2120   -7.6121   23.9764 H   0  0  0  0  0  0
  -21.1453   -6.0408   25.9049 H   0  0  0  0  0  0
  -22.0654   -2.7624   23.2736 H   0  0  0  0  0  0
  -22.4021  -11.9727   22.4611 H   0  0  0  0  0  0
  -21.1194  -13.1268   22.2751 H   0  0  0  0  0  0
  -24.6567  -15.8324   20.5275 H   0  0  0  0  0  0
  -26.2668  -15.6268   20.0591 H   0  0  0  0  0  0
  -26.7086  -32.5555   23.1166 H   0  0  0  0  0  0
  -25.0081  -33.9817   25.0502 H   0  0  0  0  0  0
  -22.6796  -31.3152   21.4269 H   0  0  0  0  0  0
  -23.3778  -35.9626   23.3283 H   0  0  0  0  0  0
  -24.3606  -36.8933   22.2056 H   0  0  0  0  0  0
  -23.7222  -37.6500   23.6650 H   0  0  0  0  0  0
  -26.0408  -31.6200   20.6112 H   0  0  0  0  0  0
  -26.8074  -30.8840   21.9912 H   0  0  0  0  0  0
  -28.0877  -29.1286   21.1461 H   0  0  0  0  0  0
  -26.0153  -26.0112   18.9682 H   0  0  0  0  0  0
  -23.9662  -27.3197   19.0239 H   0  0  0  0  0  0
  -23.7004  -30.6175   19.4113 H   0  0  0  0  0  0
  -22.7198  -29.2604   19.8738 H   0  0  0  0  0  0
  -25.1288  -36.1985   25.0837 H   0  0  0  0  0  0
  -20.9933  -28.3238   24.1464 H   0  0  0  0  0  0
  -20.5640  -26.2267   23.3619 H   0  0  0  0  0  0
  -21.6646  -26.7449   22.1267 H   0  0  0  0  0  0
  -19.6930  -25.6307   21.1234 H   0  0  0  0  0  0
  -19.6722  -27.3210   20.6739 H   0  0  0  0  0  0
  -17.4210  -26.6706   21.3956 H   0  0  0  0  0  0
  -18.0290  -26.0064   22.8964 H   0  0  0  0  0  0
  -19.7919  -30.7251   24.2288 H   0  0  0  0  0  0
  -17.5003  -31.6256   24.5177 H   0  0  0  0  0  0
  -15.5338  -30.2984   23.7656 H   0  0  0  0  0  0
  -15.8654  -28.0839   22.7020 H   0  0  0  0  0  0
  -24.5924  -30.7074   25.7899 H   0  0  0  0  0  0
  -24.8913  -32.2943   26.4885 H   0  0  0  0  0  0
  -25.8106  -30.9019   27.0300 H   0  0  0  0  0  0
  -26.2720  -29.6810   24.1192 H   0  0  0  0  0  0
  -27.3958  -29.7233   25.4579 H   0  0  0  0  0  0
  -27.8599  -30.4266   23.9254 H   0  0  0  0  0  0
  -27.2797  -33.3608   26.2016 H   0  0  0  0  0  0
  -28.3860  -32.6804   25.0179 H   0  0  0  0  0  0
  -28.0814  -31.8391   26.5289 H   0  0  0  0  0  0
  -28.2652  -38.0069   24.7493 H   0  0  0  0  0  0
  -28.1060  -36.2607   24.6275 H   0  0  0  0  0  0
  -27.2336  -37.1470   25.8869 H   0  0  0  0  0  0
  -20.9261  -29.8703   21.6937 H   0  0  0  0  0  0
  -26.0200  -38.2886   24.1423 H   0  0  0  0  0  0
  -28.4214  -16.4080   21.0402 H   0  0  0  0  0  0
  -26.3986  -16.8256   22.4047 H   0  0  0  0  0  0
  -30.2823  -14.4451   24.4108 H   0  0  0  0  0  0
  -21.3374  -14.2441   26.6068 H   0  0  0  0  0  0
  -22.2383  -15.5714   25.8993 H   0  0  0  0  0  0
  -22.7813  -14.8228   27.4140 H   0  0  0  0  0  0
  -26.4408  -13.0329   24.5693 H   0  0  0  0  0  0
  -24.9449  -12.6457   23.7339 H   0  0  0  0  0  0
  -25.3102  -11.9091   25.2949 H   0  0  0  0  0  0
  -22.2666  -19.2570   25.8250 H   0  0  0  0  0  0
  -22.8681  -19.2047   27.4801 H   0  0  0  0  0  0
  -22.2259  -17.7512   26.7267 H   0  0  0  0  0  0
  -27.7044  -24.8890   19.5498 H   0  0  0  0  0  0
  -28.5691  -25.7610   18.2762 H   0  0  0  0  0  0
  -22.7056  -13.4843   24.6511 H   0  0  0  0  0  0
  -23.1213  -12.6570   26.1206 H   0  0  0  0  0  0
  -29.2661  -21.0995   23.4104 H   0  0  0  0  0  0
  -28.2775  -22.4502   22.9082 H   0  0  0  0  0  0
  -27.5638  -19.5065   22.5547 H   0  0  0  0  0  0
  -26.5583  -20.8285   22.0179 H   0  0  0  0  0  0
  -28.5326  -21.8701   20.5481 H   0  0  0  0  0  0
  -29.2258  -20.3244   20.9353 H   0  0  0  0  0  0
  -26.2295  -21.6064   24.3280 H   0  0  0  0  0  0
  -27.4204  -20.4738   24.9245 H   0  0  0  0  0  0
  -30.9831  -21.8435   20.1880 H   0  0  0  0  0  0
  -31.2678  -21.3389   21.8273 H   0  0  0  0  0  0
  -26.0194  -18.5703   24.1525 H   0  0  0  0  0  0
  -24.7776  -19.6690   23.6178 H   0  0  0  0  0  0
  -31.7452  -23.7888   21.4244 H   0  0  0  0  0  0
  -30.6160  -23.4985   22.7172 H   0  0  0  0  0  0
  -26.4328  -15.8703   27.0362 H   0  0  0  0  0  0
  -26.9445  -17.3590   26.3061 H   0  0  0  0  0  0
  -24.3664  -20.4427   25.8894 H   0  0  0  0  0  0
  -25.7626  -19.6378   26.5199 H   0  0  0  0  0  0
  -25.1389  -17.8358   27.8543 H   0  0  0  0  0  0
  -24.1672  -16.5636   27.2271 H   0  0  0  0  0  0
  -25.1121  -14.0867   26.4219 H   0  0  0  0  0  0
  -31.4276  -15.6585   22.0687 H   0  0  0  0  0  0
  -28.8653  -24.3888   21.5129 H   0  0  0  0  0  0
  -24.0048  -17.8761   25.1471 H   0  0  0  0  0  0
  1 25  1  0  0  0
  1 30  2  0  0  0
  1 95  1  0  0  0
  2  3  1  0  0  0
  2 25  1  0  0  0
  2102  1  0  0  0
  2103  1  0  0  0
  3  4  1  0  0  0
  3104  1  0  0  0
  3105  1  0  0  0
  4  5  1  0  0  0
  4106  1  0  0  0
  4107  1  0  0  0
  5  6  1  0  0  0
  5 26  1  0  0  0
  5108  1  0  0  0
  6 25  1  0  0  0
  6109  1  0  0  0
  6110  1  0  0  0
  7  8  2  0  0  0
  7 26  1  0  0  0
  7 29  1  0  0  0
  8  9  1  0  0  0
  8 22  1  0  0  0
  9 10  1  0  0  0
  9 27  2  0  0  0
 10 11  2  0  0  0
 10 15  1  0  0  0
 11 12  1  0  0  0
 11111  1  0  0  0
 12 13  2  0  0  0
 12112  1  0  0  0
 13 14  1  0  0  0
 13 31  1  0  0  0
 14 15  2  0  0  0
 14113  1  0  0  0
 15114  1  0  0  0
 16 17  2  0  0  0
 16 21  1  0  0  0
 16 31  1  0  0  0
 17 18  1  0  0  0
 17115  1  0  0  0
 18 19  2  0  0  0
 18116  1  0  0  0
 19 20  1  0  0  0
 19 24  1  0  0  0
 20 21  2  0  0  0
 20117  1  0  0  0
 21 23  1  0  0  0
 22 28  1  0  0  0
 22 32  2  0  0  0
 26 27  1  0  0  0
 28118  1  0  0  0
 28119  1  0  0  0
 29120  1  0  0  0
 29121  1  0  0  0
 33 34  1  0  0  0
 33 66  1  0  0  0
 33 70  2  0  0  0
 34 36  1  0  0  0
 34 59  1  0  0  0
 34122  1  0  0  0
 35 44  2  0  0  0
 35 45  1  0  0  0
 35 68  1  0  0  0
 36 56  1  0  0  0
 36123  1  0  0  0
 37 39  1  0  0  0
 37 47  1  0  0  0
 37 66  1  0  0  0
 37124  1  0  0  0
 38 43  2  0  0  0
 38 46  1  0  0  0
 38 47  1  0  0  0
 39 64  1  0  0  0
 39 67  2  0  0  0
 40 52  1  0  0  0
 40 53  2  0  0  0
 40 58  1  0  0  0
 41125  1  0  0  0
 41126  1  0  0  0
 41127  1  0  0  0
 41 48  1  0  0  0
 42 43  1  0  0  0
 42 66  1  0  0  0
 42128  1  0  0  0
 42129  1  0  0  0
 43 44  1  0  0  0
 44130  1  0  0  0
 45 46  2  0  0  0
 45131  1  0  0  0
 46132  1  0  0  0
 47133  1  0  0  0
 47134  1  0  0  0
 48 56  1  0  0  0
 48 65  1  0  0  0
 48135  1  0  0  0
 49 50  1  0  0  0
 49 53  1  0  0  0
 49 64  1  0  0  0
 49136  1  0  0  0
 50 51  1  0  0  0
 50137  1  0  0  0
 50138  1  0  0  0
 51 52  1  0  0  0
 51139  1  0  0  0
 51140  1  0  0  0
 52141  1  0  0  0
 52142  1  0  0  0
 53 54  1  0  0  0
 54 55  2  0  0  0
 54143  1  0  0  0
 55 57  1  0  0  0
 55144  1  0  0  0
 56 69  2  0  0  0
 57 58  2  0  0  0
 57145  1  0  0  0
 58146  1  0  0  0
 59 60  1  0  0  0
 59 61  1  0  0  0
 59 62  1  0  0  0
 60147  1  0  0  0
 60148  1  0  0  0
 60149  1  0  0  0
 61150  1  0  0  0
 61151  1  0  0  0
 61152  1  0  0  0
 62153  1  0  0  0
 62154  1  0  0  0
 62155  1  0  0  0
 63 65  1  0  0  0
 63156  1  0  0  0
 63157  1  0  0  0
 63158  1  0  0  0
 64159  1  0  0  0
 65160  1  0  0  0
 68 82  1  0  0  0
 71 72  2  0  0  0
 71 74  1  0  0  0
 71161  1  0  0  0
 72 75  1  0  0  0
 72162  1  0  0  0
 73 74  2  0  0  0
 73 76  1  0  0  0
 73163  1  0  0  0
 74 95  1  0  0  0
 75 76  2  0  0  0
 75 97  1  0  0  0
 76101  1  0  0  0
 77 82  1  0  0  0
 77 96  1  0  0  0
 77 99  2  0  0  0
 78 94  1  0  0  0
 78 97  1  0  0  0
 78100  2  0  0  0
 79 83  1  0  0  0
 79164  1  0  0  0
 79165  1  0  0  0
 79166  1  0  0  0
 80167  1  0  0  0
 80168  1  0  0  0
 80169  1  0  0  0
 80 94  1  0  0  0
 81170  1  0  0  0
 81171  1  0  0  0
 81172  1  0  0  0
 81 98  1  0  0  0
 82173  1  0  0  0
 82174  1  0  0  0
 83 94  1  0  0  0
 83175  1  0  0  0
 83176  1  0  0  0
 84 85  1  0  0  0
 84 86  1  0  0  0
 84177  1  0  0  0
 84178  1  0  0  0
 85 87  1  0  0  0
 85179  1  0  0  0
 85180  1  0  0  0
 86 88  1  0  0  0
 86181  1  0  0  0
 86182  1  0  0  0
 87 89  1  0  0  0
 87183  1  0  0  0
 87184  1  0  0  0
 88 90  1  0  0  0
 88185  1  0  0  0
 88186  1  0  0  0
 89 92  1  0  0  0
 89187  1  0  0  0
 89188  1  0  0  0
 90 96  1  0  0  0
 90189  1  0  0  0
 90190  1  0  0  0
 91 93  1  0  0  0
 91 97  1  0  0  0
 91191  1  0  0  0
 91192  1  0  0  0
 92 98  1  0  0  0
 92193  1  0  0  0
 92194  1  0  0  0
 93 98  1  0  0  0
 93195  1  0  0  0
 93196  1  0  0  0
 94197  1  0  0  0
 95198  1  0  0  0
 96199  1  0  0  0
 98200  1  0  0  0
M  CHG  1  98   1
M  ISO  4   1 100  68 101  82 101  95 100
M  END
> <chiral flag>
0

> <version>
0

> <s_m_source_file>
/data/baiqing/PycharmProjects/Reinvent-master-3.2/result/LINK_invent/BTK/process_docking_weight1_custom_sum_contain_oxygen_bond_distance_aromatic_linkinvent_7_9_3/rearranged_h_0005.sdf

> <i_m_source_file_index>
37

> <r_mmod_Potential_Energy-OPLS-2005>
4.82129859924316

> <r_mmod_Stretch_Energy-OPLS-2005>
40.0276985168457

> <r_mmod_Bend_Energy-OPLS-2005>
142.748672485352

> <r_mmod_Torsional_Energy-OPLS-2005>
409.134399414062

> <r_mmod_Improper_Torsional_Energy-OPLS-2005>
5.25361728668213

> <r_mmod_Van_der_Waal_Energy-OPLS-2005>
119.20849609375

> <r_mmod_Electrostatic_Energy-OPLS-2005>
-254.871002197266

> <r_mmod_Solvation_Energy-OPLS-2005>
-466.562164306641

> <b_mmod_Minimization_Converged-OPLS-2005>
0

> <r_mmod_RMS_Derivative-OPLS-2005>
4.38597249984741

$$$$
37
                    3D
 Structure written by MMmdl.
162170  0  0  1  0            999 V2000
  -30.7553  -14.4474   20.5817 C   0  0  0  0  0  0
  -30.4184  -12.2994   19.4342 C   0  0  0  0  0  0
  -29.5036  -12.5198   18.2144 C   0  0  0  0  0  0
  -28.0195  -12.3997   18.6139 C   0  0  0  0  0  0
  -27.6665  -13.2238   19.8822 C   0  0  2  0  0  0
  -28.7098  -13.0275   21.0073 C   0  0  0  0  0  0
  -25.2549  -13.8176   20.5612 C   0  0  0  0  0  0
  -24.1835  -13.0448   20.9105 C   0  0  0  0  0  0
  -24.6438  -11.6927   20.8721 C   0  0  0  0  0  0
  -23.9097  -10.4311   21.0396 C   0  0  0  0  0  0
  -24.3631   -9.4222   21.9173 C   0  0  0  0  0  0
  -23.6299   -8.2262   22.0754 C   0  0  0  0  0  0
  -22.4281   -8.0293   21.3544 C   0  0  0  0  0  0
  -21.9920   -9.0277   20.4645 C   0  0  0  0  0  0
  -22.7258  -10.2155   20.3057 C   0  0  0  0  0  0
  -21.6855   -6.0742   22.5276 C   0  0  0  0  0  0
  -21.4001   -6.5638   23.8212 C   0  0  0  0  0  0
  -21.3670   -5.6790   24.9177 C   0  0  0  0  0  0
  -21.6058   -4.3055   24.7225 C   0  0  0  0  0  0
  -21.8811   -3.8147   23.4342 C   0  0  0  0  0  0
  -21.9193   -4.6968   22.3400 C   0  0  0  0  0  0
  -22.7849  -13.5243   21.1782 C   0  0  0  0  0  0
  -22.1654   -4.2152   21.0977 F   0  0  0  0  0  0
  -21.5651   -3.4534   25.7740 F   0  0  0  0  0  0
  -30.0468  -13.2932   20.4547 N   0  0  0  0  0  0
  -26.3065  -12.9408   20.3420 N   0  0  0  0  0  0
  -25.9393  -11.6548   20.5818 N   0  0  0  0  0  0
  -22.0497  -12.8260   22.0347 N   0  0  0  0  0  0
  -25.4148  -15.1868   20.3899 N   0  0  0  0  0  0
  -31.8675  -14.5869   20.0677 O   0  0  0  0  0  0
  -21.6645   -6.8887   21.4243 O   0  0  0  0  0  0
  -22.3516  -14.5549   20.6639 O   0  0  0  0  0  0
  -24.6110  -31.8731   23.2138 C   0  0  0  0  0  0
  -25.9036  -32.4838   23.8421 C   0  0  1  0  0  0
  -27.2296  -27.4728   20.0804 C   0  0  0  0  0  0
  -25.5898  -33.8625   24.2330 N   0  0  0  0  0  0
  -23.3943  -30.4999   21.5544 C   0  0  2  0  0  0
  -24.8378  -28.9692   20.1159 C   0  0  0  0  0  0
  -22.7372  -29.4706   22.5017 C   0  0  0  0  0  0
  -18.0258  -28.1356   22.8485 C   0  0  0  0  0  0
  -24.1482  -36.7317   23.2636 C   0  0  0  0  0  0
  -25.9200  -30.8497   21.3622 C   0  0  0  0  0  0
  -25.9995  -29.4897   20.7019 C   0  0  0  0  0  0
  -27.1983  -28.7471   20.6803 C   0  0  0  0  0  0
  -26.0556  -26.9611   19.4872 C   0  0  0  0  0  0
  -24.8606  -27.7029   19.5063 C   0  0  0  0  0  0
  -23.5993  -29.8338   20.1688 C   0  0  0  0  0  0
  -25.4108  -36.3110   24.0328 C   0  0  1  0  0  0
  -20.5841  -28.3682   23.1325 C   0  0  2  0  0  0
  -20.6781  -26.9434   22.5404 C   0  0  0  0  0  0
  -19.5773  -26.6381   21.5195 C   0  0  0  0  0  0
  -18.1935  -26.7914   22.1591 C   0  0  0  0  0  0
  -19.1491  -28.8827   23.2909 C   0  0  0  0  0  0
  -18.9423  -30.1437   23.8924 C   0  0  0  0  0  0
  -17.6421  -30.6579   24.0547 C   0  0  0  0  0  0
  -25.9046  -34.9487   23.5132 C   0  0  0  0  0  0
  -16.5317  -29.9086   23.6294 C   0  0  0  0  0  0
  -16.7247  -28.6487   23.0347 C   0  0  0  0  0  0
  -26.4482  -31.6602   25.0720 C   0  0  0  0  0  0
  -25.3760  -31.3713   26.1478 C   0  0  0  0  0  0
  -27.0289  -30.3049   24.6077 C   0  0  0  0  0  0
  -27.6035  -32.4343   25.7501 C   0  0  0  0  0  0
  -27.5576  -37.1801   24.8466 C   0  0  0  0  0  0
  -21.4101  -29.3080   22.3750 N   0  0  0  0  0  0
  -26.4295  -37.3792   23.9413 N   0  0  0  0  0  0
  -24.6590  -31.0881   22.1022 N   0  0  0  0  0  0
  -23.4156  -28.8249   23.3045 O   0  0  0  0  0  0
  -28.3993  -26.7510   20.1074 O   0  0  0  0  0  0
  -26.5610  -34.8925   22.4689 O   0  0  0  0  0  0
  -23.5315  -32.1452   23.7555 O   0  0  0  0  0  0
  -31.7107  -18.7287   20.1560 C   0  0  0  0  0  0
  -31.5995  -17.4104   20.6285 C   0  0  0  0  0  0
  -30.5605  -19.5203   20.0040 C   0  0  0  0  0  0
  -30.3292  -16.8533   20.9228 C   0  0  0  0  0  0
  -29.3038  -19.0239   20.4048 C   0  0  0  0  0  0
  -29.1914  -17.6964   20.8913 C   0  0  0  0  0  0
  -27.8977  -20.7601   21.2863 C   0  0  0  0  0  0
  -27.3282  -19.7467   19.1033 C   0  0  0  0  0  0
  -27.6560  -23.7892   22.4384 C   0  0  0  0  0  0
  -27.6797  -25.2299   21.9011 C   0  0  0  0  0  0
  -26.6120  -22.8574   21.7727 C   0  0  0  0  0  0
  -28.2857  -25.3777   20.4894 C   0  0  0  0  0  0
  -30.1416  -15.4642   21.2162 N   0  0  0  0  0  0
  -27.1831  -21.8277   20.8999 N   0  0  0  0  0  0
  -28.1741  -19.8808   20.2946 N   0  0  0  0  0  0
  -28.3024  -20.6245   22.4438 O   0  0  0  0  0  0
  -27.6673  -17.0994   21.4464 Cl  0  0  0  0  0  0
  -31.4673  -12.3658   19.1329 H   0  0  0  0  0  0
  -30.2876  -11.2918   19.8329 H   0  0  0  0  0  0
  -29.7366  -11.7996   17.4285 H   0  0  0  0  0  0
  -29.6964  -13.5065   17.7892 H   0  0  0  0  0  0
  -27.8041  -11.3448   18.7865 H   0  0  0  0  0  0
  -27.3838  -12.7035   17.7810 H   0  0  0  0  0  0
  -27.7060  -14.2732   19.5877 H   0  0  0  0  0  0
  -28.6774  -12.0108   21.3963 H   0  0  0  0  0  0
  -28.4796  -13.6691   21.8587 H   0  0  0  0  0  0
  -25.2787   -9.5715   22.4727 H   0  0  0  0  0  0
  -24.0026   -7.4665   22.7474 H   0  0  0  0  0  0
  -21.0848   -8.8799   19.8937 H   0  0  0  0  0  0
  -22.3710  -10.9698   19.6163 H   0  0  0  0  0  0
  -21.1954   -7.6136   23.9717 H   0  0  0  0  0  0
  -21.1509   -6.0514   25.9085 H   0  0  0  0  0  0
  -22.0575   -2.7605   23.2843 H   0  0  0  0  0  0
  -22.4096  -11.9923   22.4751 H   0  0  0  0  0  0
  -21.1121  -13.1304   22.2543 H   0  0  0  0  0  0
  -24.6588  -15.8470   20.5318 H   0  0  0  0  0  0
  -26.3034  -15.6405   20.2167 H   0  0  0  0  0  0
  -26.7101  -32.5575   23.1188 H   0  0  0  0  0  0
  -25.0025  -33.9818   25.0452 H   0  0  0  0  0  0
  -22.6814  -31.3147   21.4200 H   0  0  0  0  0  0
  -23.3745  -35.9644   23.3330 H   0  0  0  0  0  0
  -24.3606  -36.8915   22.2048 H   0  0  0  0  0  0
  -23.7226  -37.6524   23.6653 H   0  0  0  0  0  0
  -26.0292  -31.6239   20.6013 H   0  0  0  0  0  0
  -26.8069  -30.8958   21.9839 H   0  0  0  0  0  0
  -28.0984  -29.1405   21.1321 H   0  0  0  0  0  0
  -26.0484  -25.9979   19.0009 H   0  0  0  0  0  0
  -23.9693  -27.2971   19.0509 H   0  0  0  0  0  0
  -23.7059  -30.6134   19.4137 H   0  0  0  0  0  0
  -22.7211  -29.2584   19.8713 H   0  0  0  0  0  0
  -25.1275  -36.1992   25.0816 H   0  0  0  0  0  0
  -20.9933  -28.3257   24.1445 H   0  0  0  0  0  0
  -20.5731  -26.2289   23.3588 H   0  0  0  0  0  0
  -21.6654  -26.7531   22.1171 H   0  0  0  0  0  0
  -19.6951  -25.6295   21.1226 H   0  0  0  0  0  0
  -19.6704  -27.3174   20.6719 H   0  0  0  0  0  0
  -17.4196  -26.6650   21.3998 H   0  0  0  0  0  0
  -18.0357  -26.0047   22.8979 H   0  0  0  0  0  0
  -19.7886  -30.7244   24.2339 H   0  0  0  0  0  0
  -17.4964  -31.6269   24.5138 H   0  0  0  0  0  0
  -15.5318  -30.2989   23.7607 H   0  0  0  0  0  0
  -15.8650  -28.0794   22.7085 H   0  0  0  0  0  0
  -24.5910  -30.7075   25.7824 H   0  0  0  0  0  0
  -24.8957  -32.2863   26.4964 H   0  0  0  0  0  0
  -25.8112  -30.8866   27.0222 H   0  0  0  0  0  0
  -26.2803  -29.6845   24.1127 H   0  0  0  0  0  0
  -27.4046  -29.7269   25.4521 H   0  0  0  0  0  0
  -27.8650  -30.4382   23.9218 H   0  0  0  0  0  0
  -27.2625  -33.3614   26.2128 H   0  0  0  0  0  0
  -28.3813  -32.6958   25.0322 H   0  0  0  0  0  0
  -28.0727  -31.8447   26.5380 H   0  0  0  0  0  0
  -28.2571  -38.0107   24.7480 H   0  0  0  0  0  0
  -28.1067  -36.2621   24.6306 H   0  0  0  0  0  0
  -27.2303  -37.1471   25.8870 H   0  0  0  0  0  0
  -20.9278  -29.8748   21.6908 H   0  0  0  0  0  0
  -26.0202  -38.2882   24.1393 H   0  0  0  0  0  0
  -32.6781  -19.1257   19.8789 H   0  0  0  0  0  0
  -32.5040  -16.8261   20.7221 H   0  0  0  0  0  0
  -30.6375  -20.5208   19.6049 H   0  0  0  0  0  0
  -27.6436  -18.9085   18.4818 H   0  0  0  0  0  0
  -27.3738  -20.6420   18.4804 H   0  0  0  0  0  0
  -26.2886  -19.5730   19.3862 H   0  0  0  0  0  0
  -27.3945  -23.8629   23.4963 H   0  0  0  0  0  0
  -28.6588  -23.3625   22.4244 H   0  0  0  0  0  0
  -28.2678  -25.8447   22.5855 H   0  0  0  0  0  0
  -26.6686  -25.6387   21.9374 H   0  0  0  0  0  0
  -25.8844  -23.4297   21.1964 H   0  0  0  0  0  0
  -26.0369  -22.3563   22.5529 H   0  0  0  0  0  0
  -27.7272  -24.8014   19.7529 H   0  0  0  0  0  0
  -29.2942  -24.9629   20.4933 H   0  0  0  0  0  0
  -29.2373  -15.2358   21.6030 H   0  0  0  0  0  0
  -26.9034  -21.8394   19.9298 H   0  0  0  0  0  0
  1 25  1  0  0  0
  1 30  2  0  0  0
  1 83  1  0  0  0
  2  3  1  0  0  0
  2 25  1  0  0  0
  2 88  1  0  0  0
  2 89  1  0  0  0
  3  4  1  0  0  0
  3 90  1  0  0  0
  3 91  1  0  0  0
  4  5  1  0  0  0
  4 92  1  0  0  0
  4 93  1  0  0  0
  5  6  1  0  0  0
  5 26  1  0  0  0
  5 94  1  0  0  0
  6 25  1  0  0  0
  6 95  1  0  0  0
  6 96  1  0  0  0
  7  8  2  0  0  0
  7 26  1  0  0  0
  7 29  1  0  0  0
  8  9  1  0  0  0
  8 22  1  0  0  0
  9 10  1  0  0  0
  9 27  2  0  0  0
 10 11  2  0  0  0
 10 15  1  0  0  0
 11 12  1  0  0  0
 11 97  1  0  0  0
 12 13  2  0  0  0
 12 98  1  0  0  0
 13 14  1  0  0  0
 13 31  1  0  0  0
 14 15  2  0  0  0
 14 99  1  0  0  0
 15100  1  0  0  0
 16 17  2  0  0  0
 16 21  1  0  0  0
 16 31  1  0  0  0
 17 18  1  0  0  0
 17101  1  0  0  0
 18 19  2  0  0  0
 18102  1  0  0  0
 19 20  1  0  0  0
 19 24  1  0  0  0
 20 21  2  0  0  0
 20103  1  0  0  0
 21 23  1  0  0  0
 22 28  1  0  0  0
 22 32  2  0  0  0
 26 27  1  0  0  0
 28104  1  0  0  0
 28105  1  0  0  0
 29106  1  0  0  0
 29107  1  0  0  0
 33 34  1  0  0  0
 33 66  1  0  0  0
 33 70  2  0  0  0
 34 36  1  0  0  0
 34 59  1  0  0  0
 34108  1  0  0  0
 35 44  2  0  0  0
 35 45  1  0  0  0
 35 68  1  0  0  0
 36 56  1  0  0  0
 36109  1  0  0  0
 37 39  1  0  0  0
 37 47  1  0  0  0
 37 66  1  0  0  0
 37110  1  0  0  0
 38 43  2  0  0  0
 38 46  1  0  0  0
 38 47  1  0  0  0
 39 64  1  0  0  0
 39 67  2  0  0  0
 40 52  1  0  0  0
 40 53  2  0  0  0
 40 58  1  0  0  0
 41111  1  0  0  0
 41112  1  0  0  0
 41113  1  0  0  0
 41 48  1  0  0  0
 42 43  1  0  0  0
 42 66  1  0  0  0
 42114  1  0  0  0
 42115  1  0  0  0
 43 44  1  0  0  0
 44116  1  0  0  0
 45 46  2  0  0  0
 45117  1  0  0  0
 46118  1  0  0  0
 47119  1  0  0  0
 47120  1  0  0  0
 48 56  1  0  0  0
 48 65  1  0  0  0
 48121  1  0  0  0
 49 50  1  0  0  0
 49 53  1  0  0  0
 49 64  1  0  0  0
 49122  1  0  0  0
 50 51  1  0  0  0
 50123  1  0  0  0
 50124  1  0  0  0
 51 52  1  0  0  0
 51125  1  0  0  0
 51126  1  0  0  0
 52127  1  0  0  0
 52128  1  0  0  0
 53 54  1  0  0  0
 54 55  2  0  0  0
 54129  1  0  0  0
 55 57  1  0  0  0
 55130  1  0  0  0
 56 69  2  0  0  0
 57 58  2  0  0  0
 57131  1  0  0  0
 58132  1  0  0  0
 59 60  1  0  0  0
 59 61  1  0  0  0
 59 62  1  0  0  0
 60133  1  0  0  0
 60134  1  0  0  0
 60135  1  0  0  0
 61136  1  0  0  0
 61137  1  0  0  0
 61138  1  0  0  0
 62139  1  0  0  0
 62140  1  0  0  0
 62141  1  0  0  0
 63 65  1  0  0  0
 63142  1  0  0  0
 63143  1  0  0  0
 63144  1  0  0  0
 64145  1  0  0  0
 65146  1  0  0  0
 68 82  1  0  0  0
 71 72  2  0  0  0
 71 73  1  0  0  0
 71147  1  0  0  0
 72 74  1  0  0  0
 72148  1  0  0  0
 73 75  2  0  0  0
 73149  1  0  0  0
 74 76  2  0  0  0
 74 83  1  0  0  0
 75 76  1  0  0  0
 75 85  1  0  0  0
 76 87  1  0  0  0
 77 84  1  0  0  0
 77 85  1  0  0  0
 77 86  2  0  0  0
 78 85  1  0  0  0
 78150  1  0  0  0
 78151  1  0  0  0
 78152  1  0  0  0
 79 80  1  0  0  0
 79 81  1  0  0  0
 79153  1  0  0  0
 79154  1  0  0  0
 80 82  1  0  0  0
 80155  1  0  0  0
 80156  1  0  0  0
 81 84  1  0  0  0
 81157  1  0  0  0
 81158  1  0  0  0
 82159  1  0  0  0
 82160  1  0  0  0
 83161  1  0  0  0
 84162  1  0  0  0
M  ISO  4   1 100  68 101  82 101  83 100
M  END
> <chiral flag>
0

> <version>
0

> <s_m_source_file>
/data/baiqing/PycharmProjects/Reinvent-master-3.2/result/LINK_invent/BTK/process_docking_weight1_custom_sum_contain_oxygen_bond_distance_aromatic_linkinvent_7_9_3/rearranged_h_0005.sdf

> <i_m_source_file_index>
38

> <r_mmod_Potential_Energy-OPLS-2005>
-29.8897018432617

> <r_mmod_Stretch_Energy-OPLS-2005>
35.4890022277832

> <r_mmod_Bend_Energy-OPLS-2005>
96.9759216308594

> <r_mmod_Torsional_Energy-OPLS-2005>
339.097686767578

> <r_mmod_Improper_Torsional_Energy-OPLS-2005>
4.71571445465088

> <r_mmod_Van_der_Waal_Energy-OPLS-2005>
164.148178100586

> <r_mmod_Electrostatic_Energy-OPLS-2005>
-460.639526367188

> <r_mmod_Solvation_Energy-OPLS-2005>
-221.744842529297

> <b_mmod_Minimization_Converged-OPLS-2005>
0

> <r_mmod_RMS_Derivative-OPLS-2005>
4.57591533660889

$$$$
38
                    3D
 Structure written by MMmdl.
160168  0  0  1  0            999 V2000
  -30.7210  -14.4290   20.6357 C   0  0  0  0  0  0
  -30.4149  -12.2904   19.4383 C   0  0  0  0  0  0
  -29.5001  -12.4900   18.2135 C   0  0  0  0  0  0
  -28.0142  -12.3549   18.6084 C   0  0  0  0  0  0
  -27.6544  -13.1986   19.8572 C   0  0  2  0  0  0
  -28.6788  -12.9887   20.9931 C   0  0  0  0  0  0
  -25.2562  -13.8130   20.5592 C   0  0  0  0  0  0
  -24.1809  -13.0469   20.9090 C   0  0  0  0  0  0
  -24.6317  -11.6903   20.8688 C   0  0  0  0  0  0
  -23.8978  -10.4294   21.0414 C   0  0  0  0  0  0
  -24.3537   -9.4228   21.9219 C   0  0  0  0  0  0
  -23.6228   -8.2260   22.0780 C   0  0  0  0  0  0
  -22.4231   -8.0246   21.3544 C   0  0  0  0  0  0
  -21.9843   -9.0204   20.4639 C   0  0  0  0  0  0
  -22.7141  -10.2097   20.3057 C   0  0  0  0  0  0
  -21.6858   -6.0698   22.5284 C   0  0  0  0  0  0
  -21.3989   -6.5616   23.8196 C   0  0  0  0  0  0
  -21.3658   -5.6794   24.9179 C   0  0  0  0  0  0
  -21.6051   -4.3044   24.7262 C   0  0  0  0  0  0
  -21.8829   -3.8129   23.4384 C   0  0  0  0  0  0
  -21.9169   -4.6924   22.3429 C   0  0  0  0  0  0
  -22.7824  -13.5311   21.1713 C   0  0  0  0  0  0
  -22.1681   -4.2113   21.1016 F   0  0  0  0  0  0
  -21.5668   -3.4531   25.7790 F   0  0  0  0  0  0
  -30.0243  -13.2726   20.4655 N   0  0  0  0  0  0
  -26.2934  -12.9266   20.3180 N   0  0  0  0  0  0
  -25.9203  -11.6435   20.5600 N   0  0  0  0  0  0
  -22.0352  -12.8354   22.0196 N   0  0  0  0  0  0
  -25.4481  -15.1835   20.4099 N   0  0  0  0  0  0
  -31.8150  -14.6435   20.1089 O   0  0  0  0  0  0
  -21.6645   -6.8824   21.4234 O   0  0  0  0  0  0
  -22.3555  -14.5633   20.6530 O   0  0  0  0  0  0
  -24.6110  -31.8692   23.2119 C   0  0  0  0  0  0
  -25.9008  -32.4830   23.8390 C   0  0  1  0  0  0
  -27.2332  -27.4560   20.0941 C   0  0  0  0  0  0
  -25.5882  -33.8620   24.2331 N   0  0  0  0  0  0
  -23.3996  -30.4918   21.5501 C   0  0  2  0  0  0
  -24.8454  -28.9565   20.1205 C   0  0  0  0  0  0
  -22.7387  -29.4663   22.4978 C   0  0  0  0  0  0
  -18.0265  -28.1384   22.8494 C   0  0  0  0  0  0
  -24.1476  -36.7336   23.2640 C   0  0  0  0  0  0
  -25.9266  -30.8366   21.3675 C   0  0  0  0  0  0
  -26.0009  -29.4694   20.7242 C   0  0  0  0  0  0
  -27.1981  -28.7217   20.7214 C   0  0  0  0  0  0
  -26.0699  -26.9451   19.4900 C   0  0  0  0  0  0
  -24.8743  -27.6896   19.5057 C   0  0  0  0  0  0
  -23.6098  -29.8265   20.1628 C   0  0  0  0  0  0
  -25.4095  -36.3109   24.0333 C   0  0  1  0  0  0
  -20.5846  -28.3668   23.1315 C   0  0  2  0  0  0
  -20.6762  -26.9407   22.5421 C   0  0  0  0  0  0
  -19.5745  -26.6386   21.5214 C   0  0  0  0  0  0
  -18.1920  -26.7932   22.1622 C   0  0  0  0  0  0
  -19.1519  -28.8836   23.2906 C   0  0  0  0  0  0
  -18.9450  -30.1435   23.8925 C   0  0  0  0  0  0
  -17.6466  -30.6588   24.0566 C   0  0  0  0  0  0
  -25.9022  -34.9476   23.5117 C   0  0  0  0  0  0
  -16.5346  -29.9096   23.6330 C   0  0  0  0  0  0
  -16.7268  -28.6507   23.0357 C   0  0  0  0  0  0
  -26.4475  -31.6626   25.0727 C   0  0  0  0  0  0
  -25.3765  -31.3750   26.1508 C   0  0  0  0  0  0
  -27.0341  -30.3067   24.6138 C   0  0  0  0  0  0
  -27.6026  -32.4394   25.7508 C   0  0  0  0  0  0
  -27.5567  -37.1838   24.8470 C   0  0  0  0  0  0
  -21.4116  -29.3039   22.3724 N   0  0  0  0  0  0
  -26.4296  -37.3786   23.9388 N   0  0  0  0  0  0
  -24.6636  -31.0798   22.1018 N   0  0  0  0  0  0
  -23.4169  -28.8213   23.3019 O   0  0  0  0  0  0
  -28.3900  -26.7232   20.0345 O   0  0  0  0  0  0
  -26.5581  -34.8933   22.4691 O   0  0  0  0  0  0
  -23.5312  -32.1454   23.7518 O   0  0  0  0  0  0
  -28.2038  -18.3212   21.5703 C   0  0  0  0  0  0
  -28.7347  -19.9970   22.8198 C   0  0  0  0  0  0
  -28.9526  -18.8359   23.5513 C   0  0  0  0  0  0
  -28.9360  -21.4293   23.2428 C   0  0  0  0  0  0
  -29.4459  -18.6079   24.9522 C   0  0  0  0  0  0
  -28.4587  -24.5160   21.0938 C   0  0  0  0  0  0
  -28.6250  -16.3409   23.0432 C   0  0  0  0  0  0
  -28.6841  -23.7781   22.4306 C   0  0  0  0  0  0
  -29.9363  -15.6271   22.6440 C   0  0  0  0  0  0
  -28.7091  -26.0300   21.2377 C   0  0  0  0  0  0
  -28.2515  -19.6496   21.5538 N   0  0  0  0  0  0
  -28.6019  -17.7667   22.7222 N   0  0  0  0  0  0
  -28.5737  -22.3212   22.3099 N   0  0  0  0  0  0
  -30.0636  -15.4543   21.1966 N   0  0  0  0  0  0
  -29.3951  -21.7584   24.3386 O   0  0  0  0  0  0
  -31.4632  -12.3744   19.1418 H   0  0  0  0  0  0
  -30.2932  -11.2802   19.8331 H   0  0  0  0  0  0
  -29.7508  -11.7504   17.4505 H   0  0  0  0  0  0
  -29.6876  -13.4638   17.7603 H   0  0  0  0  0  0
  -27.8029  -11.2998   18.7903 H   0  0  0  0  0  0
  -27.3789  -12.6444   17.7704 H   0  0  0  0  0  0
  -27.7011  -14.2412   19.5385 H   0  0  0  0  0  0
  -28.6320  -11.9683   21.3749 H   0  0  0  0  0  0
  -28.4134  -13.6184   21.8399 H   0  0  0  0  0  0
  -25.2645   -9.5772   22.4792 H   0  0  0  0  0  0
  -23.9930   -7.4697   22.7541 H   0  0  0  0  0  0
  -21.0770   -8.8700   19.8978 H   0  0  0  0  0  0
  -22.3550  -10.9625   19.6162 H   0  0  0  0  0  0
  -21.1974   -7.6131   23.9662 H   0  0  0  0  0  0
  -21.1479   -6.0564   25.9068 H   0  0  0  0  0  0
  -22.0589   -2.7581   23.2925 H   0  0  0  0  0  0
  -22.3838  -11.9954   22.4622 H   0  0  0  0  0  0
  -21.0910  -13.1408   22.2155 H   0  0  0  0  0  0
  -24.7130  -15.8744   20.5127 H   0  0  0  0  0  0
  -26.3216  -15.5728   20.0846 H   0  0  0  0  0  0
  -26.7063  -32.5548   23.1147 H   0  0  0  0  0  0
  -25.0030  -33.9805   25.0463 H   0  0  0  0  0  0
  -22.6887  -31.3085   21.4107 H   0  0  0  0  0  0
  -23.3712  -35.9702   23.3357 H   0  0  0  0  0  0
  -24.3547  -36.8917   22.2047 H   0  0  0  0  0  0
  -23.7289  -37.6582   23.6625 H   0  0  0  0  0  0
  -26.0373  -31.6034   20.5976 H   0  0  0  0  0  0
  -26.8137  -30.8866   21.9894 H   0  0  0  0  0  0
  -28.0929  -29.1113   21.1892 H   0  0  0  0  0  0
  -26.0905  -25.9745   19.0084 H   0  0  0  0  0  0
  -23.9864  -27.2898   19.0374 H   0  0  0  0  0  0
  -23.7270  -30.6070   19.4091 H   0  0  0  0  0  0
  -22.7316  -29.2522   19.8613 H   0  0  0  0  0  0
  -25.1286  -36.1990   25.0835 H   0  0  0  0  0  0
  -20.9929  -28.3238   24.1431 H   0  0  0  0  0  0
  -20.5668  -26.2281   23.3607 H   0  0  0  0  0  0
  -21.6638  -26.7464   22.1210 H   0  0  0  0  0  0
  -19.6918  -25.6298   21.1240 H   0  0  0  0  0  0
  -19.6685  -27.3196   20.6739 H   0  0  0  0  0  0
  -17.4192  -26.6676   21.4019 H   0  0  0  0  0  0
  -18.0314  -26.0068   22.9011 H   0  0  0  0  0  0
  -19.7936  -30.7223   24.2313 H   0  0  0  0  0  0
  -17.5035  -31.6277   24.5157 H   0  0  0  0  0  0
  -15.5351  -30.3022   23.7624 H   0  0  0  0  0  0
  -15.8664  -28.0829   22.7073 H   0  0  0  0  0  0
  -24.5892  -30.7152   25.7872 H   0  0  0  0  0  0
  -24.9025  -32.2926   26.4988 H   0  0  0  0  0  0
  -25.8132  -30.8906   27.0251 H   0  0  0  0  0  0
  -26.2881  -29.6776   24.1275 H   0  0  0  0  0  0
  -27.4193  -29.7384   25.4616 H   0  0  0  0  0  0
  -27.8676  -30.4405   23.9241 H   0  0  0  0  0  0
  -27.2571  -33.3657   26.2124 H   0  0  0  0  0  0
  -28.3801  -32.7035   25.0327 H   0  0  0  0  0  0
  -28.0733  -31.8527   26.5417 H   0  0  0  0  0  0
  -28.2630  -38.0084   24.7421 H   0  0  0  0  0  0
  -28.1012  -36.2611   24.6398 H   0  0  0  0  0  0
  -27.2275  -37.1642   25.8875 H   0  0  0  0  0  0
  -20.9240  -29.8794   21.7002 H   0  0  0  0  0  0
  -26.0196  -38.2888   24.1323 H   0  0  0  0  0  0
  -27.8649  -17.7342   20.7296 H   0  0  0  0  0  0
  -29.8342  -19.5112   25.4111 H   0  0  0  0  0  0
  -30.2440  -17.8656   24.9691 H   0  0  0  0  0  0
  -28.6438  -18.2432   25.5965 H   0  0  0  0  0  0
  -27.4420  -24.3452   20.7386 H   0  0  0  0  0  0
  -29.1197  -24.1110   20.3269 H   0  0  0  0  0  0
  -28.4838  -16.2360   24.1191 H   0  0  0  0  0  0
  -27.7587  -15.8573   22.5888 H   0  0  0  0  0  0
  -27.9608  -24.1288   23.1678 H   0  0  0  0  0  0
  -29.6672  -24.0357   22.8237 H   0  0  0  0  0  0
  -29.9899  -14.6589   23.1465 H   0  0  0  0  0  0
  -30.7920  -16.2011   23.0066 H   0  0  0  0  0  0
  -29.7656  -26.1978   21.4486 H   0  0  0  0  0  0
  -28.1559  -26.4221   22.0934 H   0  0  0  0  0  0
  -28.2154  -21.9143   21.4548 H   0  0  0  0  0  0
  -30.3802  -16.3191   20.7873 H   0  0  0  0  0  0
  1 25  1  0  0  0
  1 30  2  0  0  0
  1 84  1  0  0  0
  2  3  1  0  0  0
  2 25  1  0  0  0
  2 86  1  0  0  0
  2 87  1  0  0  0
  3  4  1  0  0  0
  3 88  1  0  0  0
  3 89  1  0  0  0
  4  5  1  0  0  0
  4 90  1  0  0  0
  4 91  1  0  0  0
  5  6  1  0  0  0
  5 26  1  0  0  0
  5 92  1  0  0  0
  6 25  1  0  0  0
  6 93  1  0  0  0
  6 94  1  0  0  0
  7  8  2  0  0  0
  7 26  1  0  0  0
  7 29  1  0  0  0
  8  9  1  0  0  0
  8 22  1  0  0  0
  9 10  1  0  0  0
  9 27  2  0  0  0
 10 11  2  0  0  0
 10 15  1  0  0  0
 11 12  1  0  0  0
 11 95  1  0  0  0
 12 13  2  0  0  0
 12 96  1  0  0  0
 13 14  1  0  0  0
 13 31  1  0  0  0
 14 15  2  0  0  0
 14 97  1  0  0  0
 15 98  1  0  0  0
 16 17  2  0  0  0
 16 21  1  0  0  0
 16 31  1  0  0  0
 17 18  1  0  0  0
 17 99  1  0  0  0
 18 19  2  0  0  0
 18100  1  0  0  0
 19 20  1  0  0  0
 19 24  1  0  0  0
 20 21  2  0  0  0
 20101  1  0  0  0
 21 23  1  0  0  0
 22 28  1  0  0  0
 22 32  2  0  0  0
 26 27  1  0  0  0
 28102  1  0  0  0
 28103  1  0  0  0
 29104  1  0  0  0
 29105  1  0  0  0
 33 34  1  0  0  0
 33 66  1  0  0  0
 33 70  2  0  0  0
 34 36  1  0  0  0
 34 59  1  0  0  0
 34106  1  0  0  0
 35 44  2  0  0  0
 35 45  1  0  0  0
 35 68  1  0  0  0
 36 56  1  0  0  0
 36107  1  0  0  0
 37 39  1  0  0  0
 37 47  1  0  0  0
 37 66  1  0  0  0
 37108  1  0  0  0
 38 43  2  0  0  0
 38 46  1  0  0  0
 38 47  1  0  0  0
 39 64  1  0  0  0
 39 67  2  0  0  0
 40 52  1  0  0  0
 40 53  2  0  0  0
 40 58  1  0  0  0
 41109  1  0  0  0
 41110  1  0  0  0
 41111  1  0  0  0
 41 48  1  0  0  0
 42 43  1  0  0  0
 42 66  1  0  0  0
 42112  1  0  0  0
 42113  1  0  0  0
 43 44  1  0  0  0
 44114  1  0  0  0
 45 46  2  0  0  0
 45115  1  0  0  0
 46116  1  0  0  0
 47117  1  0  0  0
 47118  1  0  0  0
 48 56  1  0  0  0
 48 65  1  0  0  0
 48119  1  0  0  0
 49 50  1  0  0  0
 49 53  1  0  0  0
 49 64  1  0  0  0
 49120  1  0  0  0
 50 51  1  0  0  0
 50121  1  0  0  0
 50122  1  0  0  0
 51 52  1  0  0  0
 51123  1  0  0  0
 51124  1  0  0  0
 52125  1  0  0  0
 52126  1  0  0  0
 53 54  1  0  0  0
 54 55  2  0  0  0
 54127  1  0  0  0
 55 57  1  0  0  0
 55128  1  0  0  0
 56 69  2  0  0  0
 57 58  2  0  0  0
 57129  1  0  0  0
 58130  1  0  0  0
 59 60  1  0  0  0
 59 61  1  0  0  0
 59 62  1  0  0  0
 60131  1  0  0  0
 60132  1  0  0  0
 60133  1  0  0  0
 61134  1  0  0  0
 61135  1  0  0  0
 61136  1  0  0  0
 62137  1  0  0  0
 62138  1  0  0  0
 62139  1  0  0  0
 63 65  1  0  0  0
 63140  1  0  0  0
 63141  1  0  0  0
 63142  1  0  0  0
 64143  1  0  0  0
 65144  1  0  0  0
 68 80  1  0  0  0
 71 81  2  0  0  0
 71 82  1  0  0  0
 71145  1  0  0  0
 72 73  2  0  0  0
 72 74  1  0  0  0
 72 81  1  0  0  0
 73 75  1  0  0  0
 73 82  1  0  0  0
 74 83  1  0  0  0
 74 85  2  0  0  0
 75146  1  0  0  0
 75147  1  0  0  0
 75148  1  0  0  0
 76 78  1  0  0  0
 76 80  1  0  0  0
 76149  1  0  0  0
 76150  1  0  0  0
 77 79  1  0  0  0
 77 82  1  0  0  0
 77151  1  0  0  0
 77152  1  0  0  0
 78 83  1  0  0  0
 78153  1  0  0  0
 78154  1  0  0  0
 79 84  1  0  0  0
 79155  1  0  0  0
 79156  1  0  0  0
 80157  1  0  0  0
 80158  1  0  0  0
 83159  1  0  0  0
 84160  1  0  0  0
M  ISO  4   1 100  68 101  80 101  84 100
M  END
> <chiral flag>
0

> <version>
0

> <s_m_source_file>
/data/baiqing/PycharmProjects/Reinvent-master-3.2/result/LINK_invent/BTK/process_docking_weight1_custom_sum_contain_oxygen_bond_distance_aromatic_linkinvent_7_9_3/rearranged_h_0005.sdf

> <i_m_source_file_index>
39

> <r_mmod_Potential_Energy-OPLS-2005>
-48.0131301879883

> <r_mmod_Stretch_Energy-OPLS-2005>
34.1172790527344

> <r_mmod_Bend_Energy-OPLS-2005>
105.587699890137

> <r_mmod_Torsional_Energy-OPLS-2005>
303.672180175781

> <r_mmod_Improper_Torsional_Energy-OPLS-2005>
10.5623941421509

> <r_mmod_Van_der_Waal_Energy-OPLS-2005>
121.9765625

> <r_mmod_Electrostatic_Energy-OPLS-2005>
-400.596221923828

> <r_mmod_Solvation_Energy-OPLS-2005>
-232.867584228516

> <b_mmod_Minimization_Converged-OPLS-2005>
0

> <r_mmod_RMS_Derivative-OPLS-2005>
5.51575136184692

$$$$
39
                    3D
 Structure written by MMmdl.
198206  0  0  1  0            999 V2000
  -30.6997  -14.3439   20.7378 C   0  0  0  0  0  0
  -30.4413  -12.3027   19.3629 C   0  0  0  0  0  0
  -29.4835  -12.5631   18.1822 C   0  0  0  0  0  0
  -28.0055  -12.4170   18.6011 C   0  0  0  0  0  0
  -27.6760  -13.1942   19.9004 C   0  0  2  0  0  0
  -28.7131  -12.8282   20.9836 C   0  0  0  0  0  0
  -25.2599  -13.8150   20.5605 C   0  0  0  0  0  0
  -24.1872  -13.0471   20.9135 C   0  0  0  0  0  0
  -24.6404  -11.6932   20.8764 C   0  0  0  0  0  0
  -23.9082  -10.4309   21.0428 C   0  0  0  0  0  0
  -24.3563   -9.4275   21.9299 C   0  0  0  0  0  0
  -23.6272   -8.2280   22.0861 C   0  0  0  0  0  0
  -22.4321   -8.0276   21.3541 C   0  0  0  0  0  0
  -21.9990   -9.0229   20.4622 C   0  0  0  0  0  0
  -22.7283  -10.2121   20.3035 C   0  0  0  0  0  0
  -21.6818   -6.0763   22.5311 C   0  0  0  0  0  0
  -21.4022   -6.5680   23.8255 C   0  0  0  0  0  0
  -21.3707   -5.6870   24.9239 C   0  0  0  0  0  0
  -21.6034   -4.3107   24.7279 C   0  0  0  0  0  0
  -21.8760   -3.8174   23.4401 C   0  0  0  0  0  0
  -21.9130   -4.6984   22.3446 C   0  0  0  0  0  0
  -22.7887  -13.5247   21.1748 C   0  0  0  0  0  0
  -22.1575   -4.2191   21.1025 F   0  0  0  0  0  0
  -21.5587   -3.4598   25.7797 F   0  0  0  0  0  0
  -30.0604  -13.1754   20.4781 N   0  0  0  0  0  0
  -26.3090  -12.9330   20.3499 N   0  0  0  0  0  0
  -25.9350  -11.6512   20.5896 N   0  0  0  0  0  0
  -22.0360  -12.8033   21.9973 N   0  0  0  0  0  0
  -25.4328  -15.1842   20.3798 N   0  0  0  0  0  0
  -31.6479  -14.7864   20.0783 O   0  0  0  0  0  0
  -21.6621   -6.8911   21.4267 O   0  0  0  0  0  0
  -22.3668  -14.5621   20.6715 O   0  0  0  0  0  0
  -24.6106  -31.8696   23.2130 C   0  0  0  0  0  0
  -25.9006  -32.4834   23.8425 C   0  0  1  0  0  0
  -27.2452  -27.4803   20.0842 C   0  0  0  0  0  0
  -25.5841  -33.8634   24.2337 N   0  0  0  0  0  0
  -23.3960  -30.4936   21.5526 C   0  0  2  0  0  0
  -24.8438  -28.9602   20.1232 C   0  0  0  0  0  0
  -22.7378  -29.4681   22.5025 C   0  0  0  0  0  0
  -18.0264  -28.1364   22.8491 C   0  0  0  0  0  0
  -24.1486  -36.7342   23.2645 C   0  0  0  0  0  0
  -25.9211  -30.8480   21.3615 C   0  0  0  0  0  0
  -26.0019  -29.4852   20.7103 C   0  0  0  0  0  0
  -27.2057  -28.7537   20.6847 C   0  0  0  0  0  0
  -26.0729  -26.9553   19.4995 C   0  0  0  0  0  0
  -24.8705  -27.6907   19.5202 C   0  0  0  0  0  0
  -23.6020  -29.8221   20.1691 C   0  0  0  0  0  0
  -25.4097  -36.3119   24.0350 C   0  0  1  0  0  0
  -20.5847  -28.3648   23.1335 C   0  0  2  0  0  0
  -20.6751  -26.9387   22.5427 C   0  0  0  0  0  0
  -19.5735  -26.6376   21.5212 C   0  0  0  0  0  0
  -18.1913  -26.7911   22.1628 C   0  0  0  0  0  0
  -19.1508  -28.8826   23.2912 C   0  0  0  0  0  0
  -18.9442  -30.1431   23.8928 C   0  0  0  0  0  0
  -17.6449  -30.6580   24.0569 C   0  0  0  0  0  0
  -25.9016  -34.9484   23.5144 C   0  0  0  0  0  0
  -16.5342  -29.9088   23.6315 C   0  0  0  0  0  0
  -16.7260  -28.6498   23.0349 C   0  0  0  0  0  0
  -26.4434  -31.6608   25.0752 C   0  0  0  0  0  0
  -25.3710  -31.3730   26.1514 C   0  0  0  0  0  0
  -27.0252  -30.3051   24.6113 C   0  0  0  0  0  0
  -27.6008  -32.4341   25.7489 C   0  0  0  0  0  0
  -27.5580  -37.1818   24.8456 C   0  0  0  0  0  0
  -21.4115  -29.3017   22.3741 N   0  0  0  0  0  0
  -26.4290  -37.3801   23.9403 N   0  0  0  0  0  0
  -24.6601  -31.0840   22.1009 N   0  0  0  0  0  0
  -23.4176  -28.8234   23.3050 O   0  0  0  0  0  0
  -28.4470  -26.8198   20.0159 O   0  0  0  0  0  0
  -26.5618  -34.8929   22.4730 O   0  0  0  0  0  0
  -23.5309  -32.1429   23.7543 O   0  0  0  0  0  0
  -22.5482  -17.9217   18.8801 C   0  0  0  0  0  0
  -22.1597  -17.8067   20.2269 C   0  0  0  0  0  0
  -23.4452  -18.9327   18.4866 C   0  0  0  0  0  0
  -23.5408  -19.7326   20.7793 C   0  0  0  0  0  0
  -22.6664  -18.7050   21.1859 C   0  0  0  0  0  0
  -23.9575  -19.8438   19.4303 C   0  0  0  0  0  0
  -23.8022  -16.7941   23.5140 C   0  0  0  0  0  0
  -21.6326  -10.0979   26.2420 C   0  0  0  0  0  0
  -22.3067  -18.5803   22.6621 C   0  0  0  0  0  0
  -25.0183  -17.5848   22.9684 C   0  0  0  0  0  0
  -20.5006  -11.1381   26.2850 C   0  0  0  0  0  0
  -20.6498  -12.2539   25.2361 C   0  0  0  0  0  0
  -19.7535  -13.4710   25.5420 C   0  0  0  0  0  0
  -19.8464  -14.6316   24.5270 C   0  0  0  0  0  0
  -21.2465  -15.2689   24.4059 C   0  0  0  0  0  0
  -26.5035  -22.5286   19.3224 C   0  0  0  0  0  0
  -26.9747  -23.6096   20.3027 C   0  0  0  0  0  0
  -28.3555  -16.2149   22.7250 C   0  0  0  0  0  0
  -21.2553  -16.5341   23.5108 C   0  0  0  0  0  0
  -29.6800  -16.3094   21.9248 C   0  0  0  0  0  0
  -25.3888  -21.6888   19.9416 C   0  0  0  0  0  0
  -27.4067  -17.4209   22.7041 C   0  0  0  0  0  0
  -28.5337  -25.5830   20.7142 C   0  0  0  0  0  0
  -28.2233  -24.3610   19.8237 C   0  0  0  0  0  0
  -30.2133  -14.9496   21.8286 N   0  0  0  0  0  0
  -22.5381  -17.2468   23.2560 N   0  0  0  0  0  0
  -24.0346  -15.7555   24.1392 O   0  0  0  0  0  0
  -24.8615  -20.7831   18.9806 O   0  0  0  0  0  0
  -26.2425  -16.9949   23.4099 O   0  0  0  0  0  0
  -29.2537  -23.5152   19.8784 F   0  0  0  0  0  0
  -28.0850  -24.7417   18.5516 F   0  0  0  0  0  0
  -31.4738  -12.4685   19.0499 H   0  0  0  0  0  0
  -30.3886  -11.2611   19.6833 H   0  0  0  0  0  0
  -29.7084  -11.8907   17.3536 H   0  0  0  0  0  0
  -29.6523  -13.5732   17.8068 H   0  0  0  0  0  0
  -27.8027  -11.3572   18.7476 H   0  0  0  0  0  0
  -27.3525  -12.7490   17.7929 H   0  0  0  0  0  0
  -27.7605  -14.2599   19.6865 H   0  0  0  0  0  0
  -28.6780  -11.7536   21.1698 H   0  0  0  0  0  0
  -28.4500  -13.2644   21.9456 H   0  0  0  0  0  0
  -25.2607   -9.5863   22.4991 H   0  0  0  0  0  0
  -23.9873   -7.4664   22.7639 H   0  0  0  0  0  0
  -21.0947   -8.8699   19.8936 H   0  0  0  0  0  0
  -22.3739  -10.9627   19.6093 H   0  0  0  0  0  0
  -21.2132   -7.6199   23.9771 H   0  0  0  0  0  0
  -21.1521   -6.0625   25.9128 H   0  0  0  0  0  0
  -22.0482   -2.7631   23.2871 H   0  0  0  0  0  0
  -22.3852  -11.9577   22.4227 H   0  0  0  0  0  0
  -21.0893  -13.0975   22.1855 H   0  0  0  0  0  0
  -24.6454  -15.8201   20.4125 H   0  0  0  0  0  0
  -26.2851  -15.6059   20.0407 H   0  0  0  0  0  0
  -26.7087  -32.5549   23.1202 H   0  0  0  0  0  0
  -24.9864  -33.9781   25.0389 H   0  0  0  0  0  0
  -22.6847  -31.3095   21.4147 H   0  0  0  0  0  0
  -23.3726  -35.9695   23.3315 H   0  0  0  0  0  0
  -24.3589  -36.8942   22.2054 H   0  0  0  0  0  0
  -23.7255  -37.6568   23.6651 H   0  0  0  0  0  0
  -26.0316  -31.6164   20.5964 H   0  0  0  0  0  0
  -26.8091  -30.8990   21.9782 H   0  0  0  0  0  0
  -28.1068  -29.1668   21.1149 H   0  0  0  0  0  0
  -26.0819  -26.0009   18.9973 H   0  0  0  0  0  0
  -23.9819  -27.2802   19.0613 H   0  0  0  0  0  0
  -23.7076  -30.5948   19.4056 H   0  0  0  0  0  0
  -22.7266  -29.2376   19.8779 H   0  0  0  0  0  0
  -25.1272  -36.1996   25.0851 H   0  0  0  0  0  0
  -20.9947  -28.3199   24.1456 H   0  0  0  0  0  0
  -20.5612  -26.2259   23.3604 H   0  0  0  0  0  0
  -21.6624  -26.7406   22.1237 H   0  0  0  0  0  0
  -19.6880  -25.6286   21.1229 H   0  0  0  0  0  0
  -19.6668  -27.3199   20.6749 H   0  0  0  0  0  0
  -17.4171  -26.6654   21.4046 H   0  0  0  0  0  0
  -18.0332  -26.0057   22.9032 H   0  0  0  0  0  0
  -19.7925  -30.7226   24.2322 H   0  0  0  0  0  0
  -17.5013  -31.6266   24.5153 H   0  0  0  0  0  0
  -15.5346  -30.3008   23.7608 H   0  0  0  0  0  0
  -15.8661  -28.0828   22.7057 H   0  0  0  0  0  0
  -24.5834  -30.7126   25.7871 H   0  0  0  0  0  0
  -24.8959  -32.2900   26.5014 H   0  0  0  0  0  0
  -25.8064  -30.8858   27.0241 H   0  0  0  0  0  0
  -26.2800  -29.6844   24.1129 H   0  0  0  0  0  0
  -27.3973  -29.7261   25.4569 H   0  0  0  0  0  0
  -27.8658  -30.4377   23.9301 H   0  0  0  0  0  0
  -27.2604  -33.3593   26.2148 H   0  0  0  0  0  0
  -28.3756  -32.6979   25.0284 H   0  0  0  0  0  0
  -28.0754  -31.8434   26.5325 H   0  0  0  0  0  0
  -28.2605  -38.0112   24.7500 H   0  0  0  0  0  0
  -28.1069  -36.2640   24.6275 H   0  0  0  0  0  0
  -27.2314  -37.1475   25.8869 H   0  0  0  0  0  0
  -20.9263  -29.8755   21.6984 H   0  0  0  0  0  0
  -26.0184  -38.2887   24.1398 H   0  0  0  0  0  0
  -22.1658  -17.2271   18.1464 H   0  0  0  0  0  0
  -21.4747  -17.0211   20.5089 H   0  0  0  0  0  0
  -23.7445  -19.0009   17.4507 H   0  0  0  0  0  0
  -23.9018  -20.4108   21.5377 H   0  0  0  0  0  0
  -21.4926   -9.3374   27.0099 H   0  0  0  0  0  0
  -22.5995  -10.5658   26.4333 H   0  0  0  0  0  0
  -21.6918   -9.5872   25.2796 H   0  0  0  0  0  0
  -21.2606  -18.8788   22.7414 H   0  0  0  0  0  0
  -22.8386  -19.3254   23.2532 H   0  0  0  0  0  0
  -24.9734  -17.5448   21.8781 H   0  0  0  0  0  0
  -24.9908  -18.6269   23.2845 H   0  0  0  0  0  0
  -20.4850  -11.5800   27.2804 H   0  0  0  0  0  0
  -19.5350  -10.6409   26.1671 H   0  0  0  0  0  0
  -20.4179  -11.8598   24.2471 H   0  0  0  0  0  0
  -21.6924  -12.5695   25.2026 H   0  0  0  0  0  0
  -19.9809  -13.8580   26.5350 H   0  0  0  0  0  0
  -18.7173  -13.1304   25.5856 H   0  0  0  0  0  0
  -19.1378  -15.3999   24.8419 H   0  0  0  0  0  0
  -19.5087  -14.2920   23.5438 H   0  0  0  0  0  0
  -21.9231  -14.5240   23.9996 H   0  0  0  0  0  0
  -21.6188  -15.5233   25.3982 H   0  0  0  0  0  0
  -27.3387  -21.8861   19.0414 H   0  0  0  0  0  0
  -26.1466  -22.9997   18.4062 H   0  0  0  0  0  0
  -27.1951  -23.1585   21.2720 H   0  0  0  0  0  0
  -26.1536  -24.3026   20.4844 H   0  0  0  0  0  0
  -28.5900  -15.9695   23.7614 H   0  0  0  0  0  0
  -27.7683  -15.3769   22.3476 H   0  0  0  0  0  0
  -20.5456  -17.2398   23.9515 H   0  0  0  0  0  0
  -20.8419  -16.2669   22.5379 H   0  0  0  0  0  0
  -30.3911  -16.9711   22.4227 H   0  0  0  0  0  0
  -29.5105  -16.7178   20.9285 H   0  0  0  0  0  0
  -24.5865  -22.3377   20.3003 H   0  0  0  0  0  0
  -25.8074  -21.1547   20.7967 H   0  0  0  0  0  0
  -27.1738  -17.6792   21.6713 H   0  0  0  0  0  0
  -27.8435  -18.2949   23.1859 H   0  0  0  0  0  0
  -29.5627  -25.5094   21.0663 H   0  0  0  0  0  0
  -27.9228  -25.5960   21.6196 H   0  0  0  0  0  0
  -29.6919  -14.2935   22.3908 H   0  0  0  0  0  0
  1 25  1  0  0  0
  1 30  2  0  0  0
  1 95  1  0  0  0
  2  3  1  0  0  0
  2 25  1  0  0  0
  2102  1  0  0  0
  2103  1  0  0  0
  3  4  1  0  0  0
  3104  1  0  0  0
  3105  1  0  0  0
  4  5  1  0  0  0
  4106  1  0  0  0
  4107  1  0  0  0
  5  6  1  0  0  0
  5 26  1  0  0  0
  5108  1  0  0  0
  6 25  1  0  0  0
  6109  1  0  0  0
  6110  1  0  0  0
  7  8  2  0  0  0
  7 26  1  0  0  0
  7 29  1  0  0  0
  8  9  1  0  0  0
  8 22  1  0  0  0
  9 10  1  0  0  0
  9 27  2  0  0  0
 10 11  2  0  0  0
 10 15  1  0  0  0
 11 12  1  0  0  0
 11111  1  0  0  0
 12 13  2  0  0  0
 12112  1  0  0  0
 13 14  1  0  0  0
 13 31  1  0  0  0
 14 15  2  0  0  0
 14113  1  0  0  0
 15114  1  0  0  0
 16 17  2  0  0  0
 16 21  1  0  0  0
 16 31  1  0  0  0
 17 18  1  0  0  0
 17115  1  0  0  0
 18 19  2  0  0  0
 18116  1  0  0  0
 19 20  1  0  0  0
 19 24  1  0  0  0
 20 21  2  0  0  0
 20117  1  0  0  0
 21 23  1  0  0  0
 22 28  1  0  0  0
 22 32  2  0  0  0
 26 27  1  0  0  0
 28118  1  0  0  0
 28119  1  0  0  0
 29120  1  0  0  0
 29121  1  0  0  0
 33 34  1  0  0  0
 33 66  1  0  0  0
 33 70  2  0  0  0
 34 36  1  0  0  0
 34 59  1  0  0  0
 34122  1  0  0  0
 35 44  2  0  0  0
 35 45  1  0  0  0
 35 68  1  0  0  0
 36 56  1  0  0  0
 36123  1  0  0  0
 37 39  1  0  0  0
 37 47  1  0  0  0
 37 66  1  0  0  0
 37124  1  0  0  0
 38 43  2  0  0  0
 38 46  1  0  0  0
 38 47  1  0  0  0
 39 64  1  0  0  0
 39 67  2  0  0  0
 40 52  1  0  0  0
 40 53  2  0  0  0
 40 58  1  0  0  0
 41125  1  0  0  0
 41126  1  0  0  0
 41127  1  0  0  0
 41 48  1  0  0  0
 42 43  1  0  0  0
 42 66  1  0  0  0
 42128  1  0  0  0
 42129  1  0  0  0
 43 44  1  0  0  0
 44130  1  0  0  0
 45 46  2  0  0  0
 45131  1  0  0  0
 46132  1  0  0  0
 47133  1  0  0  0
 47134  1  0  0  0
 48 56  1  0  0  0
 48 65  1  0  0  0
 48135  1  0  0  0
 49 50  1  0  0  0
 49 53  1  0  0  0
 49 64  1  0  0  0
 49136  1  0  0  0
 50 51  1  0  0  0
 50137  1  0  0  0
 50138  1  0  0  0
 51 52  1  0  0  0
 51139  1  0  0  0
 51140  1  0  0  0
 52141  1  0  0  0
 52142  1  0  0  0
 53 54  1  0  0  0
 54 55  2  0  0  0
 54143  1  0  0  0
 55 57  1  0  0  0
 55144  1  0  0  0
 56 69  2  0  0  0
 57 58  2  0  0  0
 57145  1  0  0  0
 58146  1  0  0  0
 59 60  1  0  0  0
 59 61  1  0  0  0
 59 62  1  0  0  0
 60147  1  0  0  0
 60148  1  0  0  0
 60149  1  0  0  0
 61150  1  0  0  0
 61151  1  0  0  0
 61152  1  0  0  0
 62153  1  0  0  0
 62154  1  0  0  0
 62155  1  0  0  0
 63 65  1  0  0  0
 63156  1  0  0  0
 63157  1  0  0  0
 63158  1  0  0  0
 64159  1  0  0  0
 65160  1  0  0  0
 68 93  1  0  0  0
 71 72  2  0  0  0
 71 73  1  0  0  0
 71161  1  0  0  0
 72 75  1  0  0  0
 72162  1  0  0  0
 73 76  2  0  0  0
 73163  1  0  0  0
 74 75  2  0  0  0
 74 76  1  0  0  0
 74164  1  0  0  0
 75 79  1  0  0  0
 76 98  1  0  0  0
 77 80  1  0  0  0
 77 96  1  0  0  0
 77 97  2  0  0  0
 78 81  1  0  0  0
 78165  1  0  0  0
 78166  1  0  0  0
 78167  1  0  0  0
 79 96  1  0  0  0
 79168  1  0  0  0
 79169  1  0  0  0
 80 99  1  0  0  0
 80170  1  0  0  0
 80171  1  0  0  0
 81 82  1  0  0  0
 81172  1  0  0  0
 81173  1  0  0  0
 82 83  1  0  0  0
 82174  1  0  0  0
 82175  1  0  0  0
 83 84  1  0  0  0
 83176  1  0  0  0
 83177  1  0  0  0
 84 85  1  0  0  0
 84178  1  0  0  0
 84179  1  0  0  0
 85 89  1  0  0  0
 85180  1  0  0  0
 85181  1  0  0  0
 86 87  1  0  0  0
 86 91  1  0  0  0
 86182  1  0  0  0
 86183  1  0  0  0
 87 94  1  0  0  0
 87184  1  0  0  0
 87185  1  0  0  0
 88 90  1  0  0  0
 88 92  1  0  0  0
 88186  1  0  0  0
 88187  1  0  0  0
 89 96  1  0  0  0
 89188  1  0  0  0
 89189  1  0  0  0
 90 95  1  0  0  0
 90190  1  0  0  0
 90191  1  0  0  0
 91 98  1  0  0  0
 91192  1  0  0  0
 91193  1  0  0  0
 92 99  1  0  0  0
 92194  1  0  0  0
 92195  1  0  0  0
 93 94  1  0  0  0
 93196  1  0  0  0
 93197  1  0  0  0
 94100  1  0  0  0
 94101  1  0  0  0
 95198  1  0  0  0
M  ISO  4   1 100  68 101  93 101  95 100
M  END
> <chiral flag>
0

> <version>
0

> <s_m_source_file>
/data/baiqing/PycharmProjects/Reinvent-master-3.2/result/LINK_invent/BTK/process_docking_weight1_custom_sum_contain_oxygen_bond_distance_aromatic_linkinvent_7_9_3/rearranged_h_0005.sdf

> <i_m_source_file_index>
40

> <r_mmod_Potential_Energy-OPLS-2005>
51.0031890869141

> <r_mmod_Stretch_Energy-OPLS-2005>
40.9720001220703

> <r_mmod_Bend_Energy-OPLS-2005>
129.647552490234

> <r_mmod_Torsional_Energy-OPLS-2005>
281.426696777344

> <r_mmod_Improper_Torsional_Energy-OPLS-2005>
5.79225397109985

> <r_mmod_Van_der_Waal_Energy-OPLS-2005>
136.994735717773

> <r_mmod_Electrostatic_Energy-OPLS-2005>
-329.278503417969

> <r_mmod_Solvation_Energy-OPLS-2005>
-227.855239868164

> <b_mmod_Minimization_Converged-OPLS-2005>
0

> <r_mmod_RMS_Derivative-OPLS-2005>
5.0305380821228

$$$$
40
                    3D
 Structure written by MMmdl.
161168  0  0  1  0            999 V2000
  -30.7006  -14.4546   20.4916 C   0  0  0  0  0  0
  -30.4201  -12.2716   19.4085 C   0  0  0  0  0  0
  -29.4872  -12.4586   18.1943 C   0  0  0  0  0  0
  -28.0073  -12.3403   18.6144 C   0  0  0  0  0  0
  -27.6546  -13.1956   19.8628 C   0  0  2  0  0  0
  -28.7076  -13.0164   20.9788 C   0  0  0  0  0  0
  -25.2606  -13.8144   20.5687 C   0  0  0  0  0  0
  -24.1833  -13.0434   20.9159 C   0  0  0  0  0  0
  -24.6363  -11.6896   20.8716 C   0  0  0  0  0  0
  -23.9022  -10.4291   21.0376 C   0  0  0  0  0  0
  -24.3576   -9.4207   21.9151 C   0  0  0  0  0  0
  -23.6257   -8.2248   22.0725 C   0  0  0  0  0  0
  -22.4236   -8.0278   21.3512 C   0  0  0  0  0  0
  -21.9854   -9.0259   20.4622 C   0  0  0  0  0  0
  -22.7188  -10.2149   20.3036 C   0  0  0  0  0  0
  -21.6850   -6.0719   22.5290 C   0  0  0  0  0  0
  -21.4021   -6.5630   23.8216 C   0  0  0  0  0  0
  -21.3639   -5.6782   24.9187 C   0  0  0  0  0  0
  -21.6020   -4.3046   24.7225 C   0  0  0  0  0  0
  -21.8825   -3.8129   23.4362 C   0  0  0  0  0  0
  -21.9194   -4.6948   22.3409 C   0  0  0  0  0  0
  -22.7858  -13.5253   21.1818 C   0  0  0  0  0  0
  -22.1653   -4.2110   21.1001 F   0  0  0  0  0  0
  -21.5606   -3.4537   25.7746 F   0  0  0  0  0  0
  -30.0330  -13.2777   20.3993 N   0  0  0  0  0  0
  -26.3005  -12.9264   20.3362 N   0  0  0  0  0  0
  -25.9289  -11.6445   20.5779 N   0  0  0  0  0  0
  -22.0536  -12.8267   22.0423 N   0  0  0  0  0  0
  -25.4384  -15.1870   20.4145 N   0  0  0  0  0  0
  -31.9086  -14.5843   20.2852 O   0  0  0  0  0  0
  -21.6601   -6.8882   21.4240 O   0  0  0  0  0  0
  -22.3541  -14.5545   20.6638 O   0  0  0  0  0  0
  -24.6130  -31.8721   23.2141 C   0  0  0  0  0  0
  -25.9056  -32.4848   23.8411 C   0  0  1  0  0  0
  -27.2330  -27.4833   20.0686 C   0  0  0  0  0  0
  -25.5937  -33.8649   24.2350 N   0  0  0  0  0  0
  -23.3940  -30.4974   21.5562 C   0  0  2  0  0  0
  -24.8359  -28.9673   20.1172 C   0  0  0  0  0  0
  -22.7378  -29.4691   22.5040 C   0  0  0  0  0  0
  -18.0274  -28.1365   22.8513 C   0  0  0  0  0  0
  -24.1473  -36.7313   23.2622 C   0  0  0  0  0  0
  -25.9167  -30.8513   21.3574 C   0  0  0  0  0  0
  -25.9954  -29.4884   20.7055 C   0  0  0  0  0  0
  -27.1991  -28.7551   20.6776 C   0  0  0  0  0  0
  -26.0564  -26.9659   19.4850 C   0  0  0  0  0  0
  -24.8578  -27.7024   19.5082 C   0  0  0  0  0  0
  -23.5973  -29.8303   20.1690 C   0  0  0  0  0  0
  -25.4109  -36.3134   24.0323 C   0  0  1  0  0  0
  -20.5848  -28.3648   23.1342 C   0  0  2  0  0  0
  -20.6754  -26.9389   22.5421 C   0  0  0  0  0  0
  -19.5735  -26.6374   21.5213 C   0  0  0  0  0  0
  -18.1922  -26.7919   22.1626 C   0  0  0  0  0  0
  -19.1519  -28.8829   23.2915 C   0  0  0  0  0  0
  -18.9448  -30.1444   23.8897 C   0  0  0  0  0  0
  -17.6451  -30.6574   24.0578 C   0  0  0  0  0  0
  -25.9046  -34.9501   23.5135 C   0  0  0  0  0  0
  -16.5342  -29.9079   23.6318 C   0  0  0  0  0  0
  -16.7260  -28.6490   23.0345 C   0  0  0  0  0  0
  -26.4491  -31.6623   25.0747 C   0  0  0  0  0  0
  -25.3768  -31.3735   26.1516 C   0  0  0  0  0  0
  -27.0287  -30.3059   24.6103 C   0  0  0  0  0  0
  -27.6088  -32.4334   25.7514 C   0  0  0  0  0  0
  -27.5571  -37.1812   24.8456 C   0  0  0  0  0  0
  -21.4115  -29.3017   22.3754 N   0  0  0  0  0  0
  -26.4281  -37.3824   23.9415 N   0  0  0  0  0  0
  -24.6595  -31.0866   22.1023 N   0  0  0  0  0  0
  -23.4185  -28.8232   23.3063 O   0  0  0  0  0  0
  -28.4211  -26.7964   20.0044 O   0  0  0  0  0  0
  -26.5565  -34.8938   22.4678 O   0  0  0  0  0  0
  -23.5347  -32.1462   23.7578 O   0  0  0  0  0  0
  -29.1749  -17.0341   18.7124 C   0  0  0  0  0  0
  -29.1379  -17.3190   17.2384 C   0  0  0  0  0  0
  -28.7053  -18.0982   19.6843 C   0  0  0  0  0  0
  -27.3619  -18.7227   19.2398 C   0  0  0  0  0  0
  -26.6221  -19.5178   20.3268 C   0  0  0  0  0  0
  -27.4010  -20.6952   20.9300 C   0  0  0  0  0  0
  -27.6801  -21.8457   19.9493 C   0  0  0  0  0  0
  -28.2908  -23.0496   20.6839 C   0  0  0  0  0  0
  -28.2631  -24.3519   19.8716 C   0  0  0  0  0  0
  -28.4740  -25.5917   20.7579 C   0  0  0  0  0  0
  -29.6268  -15.8753   19.0433 N   0  0  0  0  0  0
  -29.9211  -15.5331   20.3277 N   0  0  0  0  0  0
  -31.4648  -12.3702   19.1052 H   0  0  0  0  0  0
  -30.3145  -11.2687   19.8288 H   0  0  0  0  0  0
  -29.7191  -11.7146   17.4293 H   0  0  0  0  0  0
  -29.6592  -13.4303   17.7332 H   0  0  0  0  0  0
  -27.8072  -11.2874   18.8160 H   0  0  0  0  0  0
  -27.3578  -12.6207   17.7841 H   0  0  0  0  0  0
  -27.6725  -14.2316   19.5373 H   0  0  0  0  0  0
  -28.6756  -12.0050   21.3810 H   0  0  0  0  0  0
  -28.5036  -13.6890   21.8126 H   0  0  0  0  0  0
  -25.2722   -9.5665   22.4712 H   0  0  0  0  0  0
  -23.9950   -7.4605   22.7421 H   0  0  0  0  0  0
  -21.0780   -8.8789   19.8906 H   0  0  0  0  0  0
  -22.3647  -10.9696   19.6140 H   0  0  0  0  0  0
  -21.2051   -7.6141   23.9717 H   0  0  0  0  0  0
  -21.1440   -6.0514   25.9089 H   0  0  0  0  0  0
  -22.0622   -2.7590   23.2893 H   0  0  0  0  0  0
  -22.4162  -11.9908   22.4745 H   0  0  0  0  0  0
  -21.1174  -13.1301   22.2679 H   0  0  0  0  0  0
  -24.6766  -15.8472   20.5214 H   0  0  0  0  0  0
  -26.3107  -15.6193   20.1352 H   0  0  0  0  0  0
  -26.7160  -32.5568   23.1203 H   0  0  0  0  0  0
  -25.0193  -33.9851   25.0565 H   0  0  0  0  0  0
  -22.6818  -31.3143   21.4233 H   0  0  0  0  0  0
  -23.3749  -35.9625   23.3306 H   0  0  0  0  0  0
  -24.3539  -36.8919   22.2025 H   0  0  0  0  0  0
  -23.7214  -37.6521   23.6620 H   0  0  0  0  0  0
  -26.0213  -31.6191   20.5895 H   0  0  0  0  0  0
  -26.8069  -30.9037   21.9712 H   0  0  0  0  0  0
  -28.1031  -29.1639   21.1104 H   0  0  0  0  0  0
  -26.0513  -26.0165   18.9765 H   0  0  0  0  0  0
  -23.9672  -27.3007   19.0442 H   0  0  0  0  0  0
  -23.7017  -30.6051   19.4083 H   0  0  0  0  0  0
  -22.7176  -29.2506   19.8792 H   0  0  0  0  0  0
  -25.1292  -36.1981   25.0804 H   0  0  0  0  0  0
  -20.9964  -28.3208   24.1451 H   0  0  0  0  0  0
  -20.5660  -26.2260   23.3606 H   0  0  0  0  0  0
  -21.6636  -26.7429   22.1214 H   0  0  0  0  0  0
  -19.6882  -25.6290   21.1225 H   0  0  0  0  0  0
  -19.6669  -27.3204   20.6756 H   0  0  0  0  0  0
  -17.4195  -26.6700   21.4018 H   0  0  0  0  0  0
  -18.0298  -26.0048   22.8997 H   0  0  0  0  0  0
  -19.7929  -30.7273   24.2244 H   0  0  0  0  0  0
  -17.5004  -31.6262   24.5193 H   0  0  0  0  0  0
  -15.5347  -30.2983   23.7627 H   0  0  0  0  0  0
  -15.8671  -28.0819   22.7028 H   0  0  0  0  0  0
  -24.5934  -30.7092   25.7866 H   0  0  0  0  0  0
  -24.8982  -32.2896   26.4974 H   0  0  0  0  0  0
  -25.8155  -30.8904   27.0254 H   0  0  0  0  0  0
  -26.2800  -29.6896   24.1122 H   0  0  0  0  0  0
  -27.4000  -29.7249   25.4552 H   0  0  0  0  0  0
  -27.8678  -30.4377   23.9273 H   0  0  0  0  0  0
  -27.2700  -33.3613   26.2120 H   0  0  0  0  0  0
  -28.3882  -32.6916   25.0339 H   0  0  0  0  0  0
  -28.0769  -31.8441   26.5403 H   0  0  0  0  0  0
  -28.2609  -38.0089   24.7539 H   0  0  0  0  0  0
  -28.1042  -36.2639   24.6250 H   0  0  0  0  0  0
  -27.2285  -37.1450   25.8852 H   0  0  0  0  0  0
  -20.9263  -29.8765   21.7010 H   0  0  0  0  0  0
  -26.0170  -38.2884   24.1478 H   0  0  0  0  0  0
  -29.7818  -18.1643   16.9980 H   0  0  0  0  0  0
  -28.1294  -17.5528   16.9028 H   0  0  0  0  0  0
  -29.4834  -16.4652   16.6526 H   0  0  0  0  0  0
  -29.4582  -18.8838   19.7442 H   0  0  0  0  0  0
  -28.6053  -17.6974   20.6922 H   0  0  0  0  0  0
  -26.6881  -17.9314   18.9084 H   0  0  0  0  0  0
  -27.5211  -19.3655   18.3705 H   0  0  0  0  0  0
  -26.3319  -18.8394   21.1289 H   0  0  0  0  0  0
  -25.6855  -19.8919   19.9112 H   0  0  0  0  0  0
  -28.3327  -20.3466   21.3743 H   0  0  0  0  0  0
  -26.8078  -21.0834   21.7581 H   0  0  0  0  0  0
  -26.7435  -22.1396   19.4664 H   0  0  0  0  0  0
  -28.3474  -21.5161   19.1507 H   0  0  0  0  0  0
  -29.3126  -22.8177   20.9844 H   0  0  0  0  0  0
  -27.7291  -23.2089   21.6053 H   0  0  0  0  0  0
  -27.2999  -24.4190   19.3764 H   0  0  0  0  0  0
  -29.0093  -24.3213   19.0770 H   0  0  0  0  0  0
  -29.4544  -25.5423   21.2327 H   0  0  0  0  0  0
  -27.7483  -25.6128   21.5717 H   0  0  0  0  0  0
  -30.2055  -16.3404   20.8654 H   0  0  0  0  0  0
  1 25  1  0  0  0
  1 30  2  0  0  0
  1 82  1  0  0  0
  2  3  1  0  0  0
  2 25  1  0  0  0
  2 83  1  0  0  0
  2 84  1  0  0  0
  3  4  1  0  0  0
  3 85  1  0  0  0
  3 86  1  0  0  0
  4  5  1  0  0  0
  4 87  1  0  0  0
  4 88  1  0  0  0
  5  6  1  0  0  0
  5 26  1  0  0  0
  5 89  1  0  0  0
  6 25  1  0  0  0
  6 90  1  0  0  0
  6 91  1  0  0  0
  7  8  2  0  0  0
  7 26  1  0  0  0
  7 29  1  0  0  0
  8  9  1  0  0  0
  8 22  1  0  0  0
  9 10  1  0  0  0
  9 27  2  0  0  0
 10 11  2  0  0  0
 10 15  1  0  0  0
 11 12  1  0  0  0
 11 92  1  0  0  0
 12 13  2  0  0  0
 12 93  1  0  0  0
 13 14  1  0  0  0
 13 31  1  0  0  0
 14 15  2  0  0  0
 14 94  1  0  0  0
 15 95  1  0  0  0
 16 17  2  0  0  0
 16 21  1  0  0  0
 16 31  1  0  0  0
 17 18  1  0  0  0
 17 96  1  0  0  0
 18 19  2  0  0  0
 18 97  1  0  0  0
 19 20  1  0  0  0
 19 24  1  0  0  0
 20 21  2  0  0  0
 20 98  1  0  0  0
 21 23  1  0  0  0
 22 28  1  0  0  0
 22 32  2  0  0  0
 26 27  1  0  0  0
 28 99  1  0  0  0
 28100  1  0  0  0
 29101  1  0  0  0
 29102  1  0  0  0
 33 34  1  0  0  0
 33 66  1  0  0  0
 33 70  2  0  0  0
 34 36  1  0  0  0
 34 59  1  0  0  0
 34103  1  0  0  0
 35 44  2  0  0  0
 35 45  1  0  0  0
 35 68  1  0  0  0
 36 56  1  0  0  0
 36104  1  0  0  0
 37 39  1  0  0  0
 37 47  1  0  0  0
 37 66  1  0  0  0
 37105  1  0  0  0
 38 43  2  0  0  0
 38 46  1  0  0  0
 38 47  1  0  0  0
 39 64  1  0  0  0
 39 67  2  0  0  0
 40 52  1  0  0  0
 40 53  2  0  0  0
 40 58  1  0  0  0
 41106  1  0  0  0
 41107  1  0  0  0
 41108  1  0  0  0
 41 48  1  0  0  0
 42 43  1  0  0  0
 42 66  1  0  0  0
 42109  1  0  0  0
 42110  1  0  0  0
 43 44  1  0  0  0
 44111  1  0  0  0
 45 46  2  0  0  0
 45112  1  0  0  0
 46113  1  0  0  0
 47114  1  0  0  0
 47115  1  0  0  0
 48 56  1  0  0  0
 48 65  1  0  0  0
 48116  1  0  0  0
 49 50  1  0  0  0
 49 53  1  0  0  0
 49 64  1  0  0  0
 49117  1  0  0  0
 50 51  1  0  0  0
 50118  1  0  0  0
 50119  1  0  0  0
 51 52  1  0  0  0
 51120  1  0  0  0
 51121  1  0  0  0
 52122  1  0  0  0
 52123  1  0  0  0
 53 54  1  0  0  0
 54 55  2  0  0  0
 54124  1  0  0  0
 55 57  1  0  0  0
 55125  1  0  0  0
 56 69  2  0  0  0
 57 58  2  0  0  0
 57126  1  0  0  0
 58127  1  0  0  0
 59 60  1  0  0  0
 59 61  1  0  0  0
 59 62  1  0  0  0
 60128  1  0  0  0
 60129  1  0  0  0
 60130  1  0  0  0
 61131  1  0  0  0
 61132  1  0  0  0
 61133  1  0  0  0
 62134  1  0  0  0
 62135  1  0  0  0
 62136  1  0  0  0
 63 65  1  0  0  0
 63137  1  0  0  0
 63138  1  0  0  0
 63139  1  0  0  0
 64140  1  0  0  0
 65141  1  0  0  0
 68 80  1  0  0  0
 71 72  1  0  0  0
 71 73  1  0  0  0
 71 81  2  0  0  0
 72142  1  0  0  0
 72143  1  0  0  0
 72144  1  0  0  0
 73 74  1  0  0  0
 73145  1  0  0  0
 73146  1  0  0  0
 74 75  1  0  0  0
 74147  1  0  0  0
 74148  1  0  0  0
 75 76  1  0  0  0
 75149  1  0  0  0
 75150  1  0  0  0
 76 77  1  0  0  0
 76151  1  0  0  0
 76152  1  0  0  0
 77 78  1  0  0  0
 77153  1  0  0  0
 77154  1  0  0  0
 78 79  1  0  0  0
 78155  1  0  0  0
 78156  1  0  0  0
 79 80  1  0  0  0
 79157  1  0  0  0
 79158  1  0  0  0
 80159  1  0  0  0
 80160  1  0  0  0
 81 82  1  0  0  0
 82161  1  0  0  0
M  ISO  4   1 100  68 101  80 101  82 100
M  END
> <chiral flag>
0

> <version>
0

> <s_m_source_file>
/data/baiqing/PycharmProjects/Reinvent-master-3.2/result/LINK_invent/BTK/process_docking_weight1_custom_sum_contain_oxygen_bond_distance_aromatic_linkinvent_7_9_3/rearranged_h_0005.sdf

> <i_m_source_file_index>
41

> <r_mmod_Potential_Energy-OPLS-2005>
59.6640472412109

> <r_mmod_Stretch_Energy-OPLS-2005>
29.8729133605957

> <r_mmod_Bend_Energy-OPLS-2005>
102.630416870117

> <r_mmod_Torsional_Energy-OPLS-2005>
289.442108154297

> <r_mmod_Improper_Torsional_Energy-OPLS-2005>
19.0995693206787

> <r_mmod_Van_der_Waal_Energy-OPLS-2005>
129.273422241211

> <r_mmod_Electrostatic_Energy-OPLS-2005>
-342.046661376953

> <r_mmod_Solvation_Energy-OPLS-2005>
-189.786880493164

> <b_mmod_Minimization_Converged-OPLS-2005>
0

> <r_mmod_RMS_Derivative-OPLS-2005>
3.84758973121643

$$$$
41
                    3D
 Structure written by MMmdl.
161169  0  0  1  0            999 V2000
  -30.5051  -14.9301   20.4090 C   0  0  0  0  0  0
  -30.4571  -12.5762   19.4822 C   0  0  0  0  0  0
  -29.5228  -12.5154   18.2505 C   0  0  0  0  0  0
  -28.0590  -12.2967   18.6800 C   0  0  0  0  0  0
  -27.6367  -13.2247   19.8498 C   0  0  2  0  0  0
  -28.6841  -13.2270   20.9798 C   0  0  0  0  0  0
  -25.2511  -13.8154   20.5672 C   0  0  0  0  0  0
  -24.1798  -13.0407   20.9191 C   0  0  0  0  0  0
  -24.6382  -11.6881   20.8725 C   0  0  0  0  0  0
  -23.9061  -10.4266   21.0378 C   0  0  0  0  0  0
  -24.3622   -9.4185   21.9149 C   0  0  0  0  0  0
  -23.6311   -8.2214   22.0727 C   0  0  0  0  0  0
  -22.4284   -8.0250   21.3530 C   0  0  0  0  0  0
  -21.9922   -9.0215   20.4620 C   0  0  0  0  0  0
  -22.7242  -10.2095   20.3027 C   0  0  0  0  0  0
  -21.6859   -6.0717   22.5283 C   0  0  0  0  0  0
  -21.4015   -6.5627   23.8209 C   0  0  0  0  0  0
  -21.3657   -5.6786   24.9176 C   0  0  0  0  0  0
  -21.6056   -4.3049   24.7232 C   0  0  0  0  0  0
  -21.8827   -3.8133   23.4356 C   0  0  0  0  0  0
  -21.9200   -4.6948   22.3408 C   0  0  0  0  0  0
  -22.7820  -13.5181   21.1873 C   0  0  0  0  0  0
  -22.1663   -4.2127   21.0987 F   0  0  0  0  0  0
  -21.5632   -3.4537   25.7751 F   0  0  0  0  0  0
  -29.9585  -13.6520   20.3801 N   0  0  0  0  0  0
  -26.2918  -12.9336   20.3293 N   0  0  0  0  0  0
  -25.9315  -11.6486   20.5755 N   0  0  0  0  0  0
  -22.0507  -12.8135   22.0440 N   0  0  0  0  0  0
  -25.4184  -15.1881   20.4053 N   0  0  0  0  0  0
  -31.7077  -15.0522   20.1508 O   0  0  0  0  0  0
  -21.6655   -6.8849   21.4233 O   0  0  0  0  0  0
  -22.3484  -14.5498   20.6746 O   0  0  0  0  0  0
  -24.6437  -31.8444   23.1908 C   0  0  0  0  0  0
  -25.9218  -32.4692   23.8282 C   0  0  1  0  0  0
  -27.2182  -27.1410   20.1470 C   0  0  0  0  0  0
  -25.5976  -33.8500   24.2196 N   0  0  0  0  0  0
  -23.4458  -30.4669   21.5358 C   0  0  2  0  0  0
  -24.8955  -28.8973   20.1087 C   0  0  0  0  0  0
  -22.7553  -29.4566   22.4857 C   0  0  0  0  0  0
  -18.0299  -28.1430   22.8483 C   0  0  0  0  0  0
  -24.1486  -36.7244   23.2643 C   0  0  0  0  0  0
  -26.0020  -30.7196   21.3889 C   0  0  0  0  0  0
  -26.0734  -29.3320   20.7301 C   0  0  0  0  0  0
  -27.2338  -28.4694   20.7350 C   0  0  0  0  0  0
  -26.0155  -26.8159   19.4771 C   0  0  0  0  0  0
  -24.8799  -27.6516   19.4675 C   0  0  0  0  0  0
  -23.6716  -29.7981   20.1547 C   0  0  0  0  0  0
  -25.4122  -36.3022   24.0317 C   0  0  1  0  0  0
  -20.5918  -28.3751   23.1236 C   0  0  2  0  0  0
  -20.6785  -26.9452   22.5413 C   0  0  0  0  0  0
  -19.5756  -26.6402   21.5225 C   0  0  0  0  0  0
  -18.1934  -26.7968   22.1629 C   0  0  0  0  0  0
  -19.1557  -28.8905   23.2854 C   0  0  0  0  0  0
  -18.9477  -30.1502   23.8885 C   0  0  0  0  0  0
  -17.6467  -30.6617   24.0583 C   0  0  0  0  0  0
  -25.9075  -34.9404   23.5062 C   0  0  0  0  0  0
  -16.5358  -29.9111   23.6352 C   0  0  0  0  0  0
  -16.7280  -28.6533   23.0363 C   0  0  0  0  0  0
  -26.4548  -31.6563   25.0723 C   0  0  0  0  0  0
  -25.3736  -31.3761   26.1420 C   0  0  0  0  0  0
  -27.0427  -30.2954   24.6320 C   0  0  0  0  0  0
  -27.6060  -32.4350   25.7522 C   0  0  0  0  0  0
  -27.5570  -37.1780   24.8469 C   0  0  0  0  0  0
  -21.4248  -29.3072   22.3596 N   0  0  0  0  0  0
  -26.4276  -37.3740   23.9420 N   0  0  0  0  0  0
  -24.7169  -31.0317   22.0934 N   0  0  0  0  0  0
  -23.4188  -28.8105   23.3001 O   0  0  0  0  0  0
  -28.2588  -26.1424   20.2348 O   0  0  0  0  0  0
  -26.5657  -34.8904   22.4636 O   0  0  0  0  0  0
  -23.5561  -32.1318   23.7138 O   0  0  0  0  0  0
  -29.9924  -19.9935   21.0397 C   0  0  0  0  0  0
  -30.2585  -18.5566   21.1264 C   0  0  0  0  0  0
  -28.3756  -19.5616   19.3766 C   0  0  0  0  0  0
  -29.0127  -20.5792   20.1625 C   0  0  0  0  0  0
  -29.5953  -17.5476   20.3370 C   0  0  0  0  0  0
  -28.6382  -18.1269   19.4352 C   0  0  0  0  0  0
  -28.8746  -23.3535   20.4001 C   0  0  0  0  0  0
  -26.9636  -14.3259   15.5146 C   0  0  0  0  0  0
  -27.9386  -24.6461   19.9469 C   0  0  0  0  0  0
  -26.8928  -15.1846   16.7829 C   0  0  0  0  0  0
  -26.9819  -16.6869   16.4906 C   0  0  0  0  0  0
  -26.9321  -17.5759   17.7439 C   0  0  0  0  0  0
  -28.5460  -22.0351   19.9944 N   0  0  0  0  0  0
  -29.6209  -16.0285   20.5389 N   0  0  0  0  0  0
  -29.8650  -23.5606   21.1060 O   0  0  0  0  0  0
  -27.9903  -17.2006   18.6332 O   0  0  0  0  0  0
  -31.4830  -12.7640   19.1608 H   0  0  0  0  0  0
  -30.4761  -11.6188   20.0040 H   0  0  0  0  0  0
  -29.8382  -11.7171   17.5781 H   0  0  0  0  0  0
  -29.6059  -13.4426   17.6838 H   0  0  0  0  0  0
  -27.9625  -11.2546   18.9873 H   0  0  0  0  0  0
  -27.3859  -12.4180   17.8322 H   0  0  0  0  0  0
  -27.6087  -14.2345   19.4519 H   0  0  0  0  0  0
  -28.7741  -12.2391   21.4338 H   0  0  0  0  0  0
  -28.3852  -13.9089   21.7781 H   0  0  0  0  0  0
  -25.2764   -9.5671   22.4717 H   0  0  0  0  0  0
  -24.0036   -7.4607   22.7430 H   0  0  0  0  0  0
  -21.0861   -8.8709   19.8910 H   0  0  0  0  0  0
  -22.3690  -10.9624   19.6126 H   0  0  0  0  0  0
  -21.1996   -7.6134   23.9703 H   0  0  0  0  0  0
  -21.1472   -6.0516   25.9076 H   0  0  0  0  0  0
  -22.0613   -2.7593   23.2877 H   0  0  0  0  0  0
  -22.4190  -11.9829   22.4842 H   0  0  0  0  0  0
  -21.1079  -13.1033   22.2605 H   0  0  0  0  0  0
  -24.6399  -15.8298   20.5055 H   0  0  0  0  0  0
  -26.2458  -15.6311   20.0302 H   0  0  0  0  0  0
  -26.7277  -32.5297   23.1005 H   0  0  0  0  0  0
  -25.0120  -33.9616   25.0343 H   0  0  0  0  0  0
  -22.7483  -31.2936   21.3825 H   0  0  0  0  0  0
  -23.3751  -35.9568   23.3292 H   0  0  0  0  0  0
  -24.3562  -36.8888   22.2053 H   0  0  0  0  0  0
  -23.7230  -37.6434   23.6694 H   0  0  0  0  0  0
  -26.1573  -31.4724   20.6152 H   0  0  0  0  0  0
  -26.8732  -30.7704   22.0304 H   0  0  0  0  0  0
  -28.1263  -28.7971   21.2482 H   0  0  0  0  0  0
  -25.9090  -25.8696   18.9704 H   0  0  0  0  0  0
  -23.9817  -27.3145   18.9685 H   0  0  0  0  0  0
  -23.8057  -30.5737   19.3996 H   0  0  0  0  0  0
  -22.7857  -29.2408   19.8438 H   0  0  0  0  0  0
  -25.1305  -36.1837   25.0806 H   0  0  0  0  0  0
  -21.0015  -28.3360   24.1355 H   0  0  0  0  0  0
  -20.5686  -26.2369   23.3641 H   0  0  0  0  0  0
  -21.6646  -26.7466   22.1197 H   0  0  0  0  0  0
  -19.6912  -25.6301   21.1274 H   0  0  0  0  0  0
  -19.6696  -27.3197   20.6749 H   0  0  0  0  0  0
  -17.4202  -26.6735   21.4030 H   0  0  0  0  0  0
  -18.0322  -26.0119   22.9031 H   0  0  0  0  0  0
  -19.7949  -30.7342   24.2232 H   0  0  0  0  0  0
  -17.5019  -31.6294   24.5199 H   0  0  0  0  0  0
  -15.5364  -30.3013   23.7698 H   0  0  0  0  0  0
  -15.8674  -28.0854   22.7093 H   0  0  0  0  0  0
  -24.5930  -30.7087   25.7752 H   0  0  0  0  0  0
  -24.8922  -32.2950   26.4775 H   0  0  0  0  0  0
  -25.8022  -30.8987   27.0238 H   0  0  0  0  0  0
  -26.3059  -29.6662   24.1309 H   0  0  0  0  0  0
  -27.4010  -29.7265   25.4911 H   0  0  0  0  0  0
  -27.8977  -30.4178   23.9667 H   0  0  0  0  0  0
  -27.2631  -33.3676   26.2017 H   0  0  0  0  0  0
  -28.3927  -32.6866   25.0397 H   0  0  0  0  0  0
  -28.0672  -31.8536   26.5515 H   0  0  0  0  0  0
  -28.2568  -38.0094   24.7516 H   0  0  0  0  0  0
  -28.1087  -36.2621   24.6292 H   0  0  0  0  0  0
  -27.2296  -37.1416   25.8875 H   0  0  0  0  0  0
  -20.9464  -29.8746   21.6742 H   0  0  0  0  0  0
  -26.0133  -38.2797   24.1456 H   0  0  0  0  0  0
  -30.5376  -20.6464   21.7072 H   0  0  0  0  0  0
  -30.9695  -18.2254   21.8710 H   0  0  0  0  0  0
  -27.6231  -19.9404   18.7075 H   0  0  0  0  0  0
  -26.9362  -13.2628   15.7548 H   0  0  0  0  0  0
  -27.8881  -14.5113   14.9676 H   0  0  0  0  0  0
  -26.1296  -14.5336   14.8441 H   0  0  0  0  0  0
  -26.9624  -24.4337   20.3835 H   0  0  0  0  0  0
  -27.8096  -24.5555   18.8684 H   0  0  0  0  0  0
  -27.7305  -14.9138   17.4184 H   0  0  0  0  0  0
  -25.9817  -14.9588   17.3392 H   0  0  0  0  0  0
  -26.1716  -16.9726   15.8188 H   0  0  0  0  0  0
  -27.9061  -16.8933   15.9499 H   0  0  0  0  0  0
  -25.9768  -17.4612   18.2583 H   0  0  0  0  0  0
  -26.9790  -18.5961   17.3722 H   0  0  0  0  0  0
  -27.7361  -22.0881   19.3906 H   0  0  0  0  0  0
  -28.6838  -15.6645   20.6017 H   0  0  0  0  0  0
  1 25  1  0  0  0
  1 30  2  0  0  0
  1 84  1  0  0  0
  2  3  1  0  0  0
  2 25  1  0  0  0
  2 87  1  0  0  0
  2 88  1  0  0  0
  3  4  1  0  0  0
  3 89  1  0  0  0
  3 90  1  0  0  0
  4  5  1  0  0  0
  4 91  1  0  0  0
  4 92  1  0  0  0
  5  6  1  0  0  0
  5 26  1  0  0  0
  5 93  1  0  0  0
  6 25  1  0  0  0
  6 94  1  0  0  0
  6 95  1  0  0  0
  7  8  2  0  0  0
  7 26  1  0  0  0
  7 29  1  0  0  0
  8  9  1  0  0  0
  8 22  1  0  0  0
  9 10  1  0  0  0
  9 27  2  0  0  0
 10 11  2  0  0  0
 10 15  1  0  0  0
 11 12  1  0  0  0
 11 96  1  0  0  0
 12 13  2  0  0  0
 12 97  1  0  0  0
 13 14  1  0  0  0
 13 31  1  0  0  0
 14 15  2  0  0  0
 14 98  1  0  0  0
 15 99  1  0  0  0
 16 17  2  0  0  0
 16 21  1  0  0  0
 16 31  1  0  0  0
 17 18  1  0  0  0
 17100  1  0  0  0
 18 19  2  0  0  0
 18101  1  0  0  0
 19 20  1  0  0  0
 19 24  1  0  0  0
 20 21  2  0  0  0
 20102  1  0  0  0
 21 23  1  0  0  0
 22 28  1  0  0  0
 22 32  2  0  0  0
 26 27  1  0  0  0
 28103  1  0  0  0
 28104  1  0  0  0
 29105  1  0  0  0
 29106  1  0  0  0
 33 34  1  0  0  0
 33 66  1  0  0  0
 33 70  2  0  0  0
 34 36  1  0  0  0
 34 59  1  0  0  0
 34107  1  0  0  0
 35 44  2  0  0  0
 35 45  1  0  0  0
 35 68  1  0  0  0
 36 56  1  0  0  0
 36108  1  0  0  0
 37 39  1  0  0  0
 37 47  1  0  0  0
 37 66  1  0  0  0
 37109  1  0  0  0
 38 43  2  0  0  0
 38 46  1  0  0  0
 38 47  1  0  0  0
 39 64  1  0  0  0
 39 67  2  0  0  0
 40 52  1  0  0  0
 40 53  2  0  0  0
 40 58  1  0  0  0
 41110  1  0  0  0
 41111  1  0  0  0
 41112  1  0  0  0
 41 48  1  0  0  0
 42 43  1  0  0  0
 42 66  1  0  0  0
 42113  1  0  0  0
 42114  1  0  0  0
 43 44  1  0  0  0
 44115  1  0  0  0
 45 46  2  0  0  0
 45116  1  0  0  0
 46117  1  0  0  0
 47118  1  0  0  0
 47119  1  0  0  0
 48 56  1  0  0  0
 48 65  1  0  0  0
 48120  1  0  0  0
 49 50  1  0  0  0
 49 53  1  0  0  0
 49 64  1  0  0  0
 49121  1  0  0  0
 50 51  1  0  0  0
 50122  1  0  0  0
 50123  1  0  0  0
 51 52  1  0  0  0
 51124  1  0  0  0
 51125  1  0  0  0
 52126  1  0  0  0
 52127  1  0  0  0
 53 54  1  0  0  0
 54 55  2  0  0  0
 54128  1  0  0  0
 55 57  1  0  0  0
 55129  1  0  0  0
 56 69  2  0  0  0
 57 58  2  0  0  0
 57130  1  0  0  0
 58131  1  0  0  0
 59 60  1  0  0  0
 59 61  1  0  0  0
 59 62  1  0  0  0
 60132  1  0  0  0
 60133  1  0  0  0
 60134  1  0  0  0
 61135  1  0  0  0
 61136  1  0  0  0
 61137  1  0  0  0
 62138  1  0  0  0
 62139  1  0  0  0
 62140  1  0  0  0
 63 65  1  0  0  0
 63141  1  0  0  0
 63142  1  0  0  0
 63143  1  0  0  0
 64144  1  0  0  0
 65145  1  0  0  0
 68 79  1  0  0  0
 71 72  2  0  0  0
 71 74  1  0  0  0
 71146  1  0  0  0
 72 75  1  0  0  0
 72147  1  0  0  0
 73 74  2  0  0  0
 73 76  1  0  0  0
 73148  1  0  0  0
 74 83  1  0  0  0
 75 76  2  0  0  0
 75 84  1  0  0  0
 76 86  1  0  0  0
 77 79  1  0  0  0
 77 83  1  0  0  0
 77 85  2  0  0  0
 78 80  1  0  0  0
 78149  1  0  0  0
 78150  1  0  0  0
 78151  1  0  0  0
 79152  1  0  0  0
 79153  1  0  0  0
 80 81  1  0  0  0
 80154  1  0  0  0
 80155  1  0  0  0
 81 82  1  0  0  0
 81156  1  0  0  0
 81157  1  0  0  0
 82 86  1  0  0  0
 82158  1  0  0  0
 82159  1  0  0  0
 83160  1  0  0  0
 84161  1  0  0  0
M  ISO  4   1 100  68 101  79 101  84 100
M  END
> <chiral flag>
0

> <version>
0

> <s_m_source_file>
/data/baiqing/PycharmProjects/Reinvent-master-3.2/result/LINK_invent/BTK/process_docking_weight1_custom_sum_contain_oxygen_bond_distance_aromatic_linkinvent_7_9_3/rearranged_h_0005.sdf

> <i_m_source_file_index>
42

> <r_mmod_Potential_Energy-OPLS-2005>
422.389984130859

> <r_mmod_Stretch_Energy-OPLS-2005>
222.423431396484

> <r_mmod_Bend_Energy-OPLS-2005>
282.910064697266

> <r_mmod_Torsional_Energy-OPLS-2005>
246.991149902344

> <r_mmod_Improper_Torsional_Energy-OPLS-2005>
6.77789163589478

> <r_mmod_Van_der_Waal_Energy-OPLS-2005>
122.633193969727

> <r_mmod_Electrostatic_Energy-OPLS-2005>
-401.299346923828

> <r_mmod_Solvation_Energy-OPLS-2005>
-247.28938293457

> <b_mmod_Minimization_Converged-OPLS-2005>
0

> <r_mmod_RMS_Derivative-OPLS-2005>
2.16677498817444

$$$$
42
                    3D
 Structure written by MMmdl.
179188  0  0  1  0            999 V2000
  -30.7296  -14.4504   20.4590 C   0  0  0  0  0  0
  -30.4197  -12.2698   19.4070 C   0  0  0  0  0  0
  -29.4854  -12.4701   18.1971 C   0  0  0  0  0  0
  -28.0086  -12.3472   18.6224 C   0  0  0  0  0  0
  -27.6635  -13.2011   19.8722 C   0  0  2  0  0  0
  -28.7251  -13.0038   20.9824 C   0  0  0  0  0  0
  -25.2559  -13.8136   20.5589 C   0  0  0  0  0  0
  -24.1845  -13.0432   20.9188 C   0  0  0  0  0  0
  -24.6406  -11.6901   20.8798 C   0  0  0  0  0  0
  -23.9073  -10.4293   21.0451 C   0  0  0  0  0  0
  -24.3622   -9.4196   21.9216 C   0  0  0  0  0  0
  -23.6293   -8.2234   22.0778 C   0  0  0  0  0  0
  -22.4283   -8.0279   21.3549 C   0  0  0  0  0  0
  -21.9916   -9.0264   20.4661 C   0  0  0  0  0  0
  -22.7250  -10.2145   20.3085 C   0  0  0  0  0  0
  -21.6855   -6.0734   22.5273 C   0  0  0  0  0  0
  -21.4013   -6.5643   23.8203 C   0  0  0  0  0  0
  -21.3651   -5.6806   24.9172 C   0  0  0  0  0  0
  -21.6044   -4.3068   24.7237 C   0  0  0  0  0  0
  -21.8811   -3.8146   23.4362 C   0  0  0  0  0  0
  -21.9190   -4.6957   22.3410 C   0  0  0  0  0  0
  -22.7879  -13.5258   21.1818 C   0  0  0  0  0  0
  -22.1660   -4.2134   21.0994 F   0  0  0  0  0  0
  -21.5624   -3.4558   25.7757 F   0  0  0  0  0  0
  -30.0434  -13.2814   20.3984 N   0  0  0  0  0  0
  -26.3049  -12.9316   20.3412 N   0  0  0  0  0  0
  -25.9340  -11.6481   20.5863 N   0  0  0  0  0  0
  -22.0527  -12.8266   22.0388 N   0  0  0  0  0  0
  -25.4117  -15.1841   20.3759 N   0  0  0  0  0  0
  -31.9240  -14.5541   20.1866 O   0  0  0  0  0  0
  -21.6653   -6.8873   21.4234 O   0  0  0  0  0  0
  -22.3567  -14.5529   20.6607 O   0  0  0  0  0  0
  -24.6106  -31.8734   23.2152 C   0  0  0  0  0  0
  -25.9029  -32.4837   23.8425 C   0  0  1  0  0  0
  -27.2035  -27.4654   20.0605 C   0  0  0  0  0  0
  -25.5944  -33.8632   24.2369 N   0  0  0  0  0  0
  -23.3962  -30.5009   21.5558 C   0  0  2  0  0  0
  -24.8422  -28.9941   20.0926 C   0  0  0  0  0  0
  -22.7344  -29.4677   22.4957 C   0  0  0  0  0  0
  -18.0249  -28.1396   22.8365 C   0  0  0  0  0  0
  -24.1512  -36.7316   23.2636 C   0  0  0  0  0  0
  -25.9280  -30.8379   21.3799 C   0  0  0  0  0  0
  -25.9999  -29.4794   20.7214 C   0  0  0  0  0  0
  -27.1855  -28.7101   20.7259 C   0  0  0  0  0  0
  -26.0709  -27.0624   19.3211 C   0  0  0  0  0  0
  -24.8726  -27.7807   19.3906 C   0  0  0  0  0  0
  -23.6027  -29.8521   20.1623 C   0  0  0  0  0  0
  -25.4119  -36.3088   24.0354 C   0  0  1  0  0  0
  -20.5828  -28.3667   23.1332 C   0  0  2  0  0  0
  -20.6679  -26.9330   22.5583 C   0  0  0  0  0  0
  -19.5808  -26.6362   21.5205 C   0  0  0  0  0  0
  -18.1867  -26.8022   22.1336 C   0  0  0  0  0  0
  -19.1482  -28.8843   23.2895 C   0  0  0  0  0  0
  -18.9371  -30.1381   23.9015 C   0  0  0  0  0  0
  -17.6349  -30.6492   24.0643 C   0  0  0  0  0  0
  -25.9058  -34.9473   23.5135 C   0  0  0  0  0  0
  -16.5276  -29.9058   23.6218 C   0  0  0  0  0  0
  -16.7244  -28.6495   23.0213 C   0  0  0  0  0  0
  -26.4479  -31.6570   25.0723 C   0  0  0  0  0  0
  -25.3744  -31.3708   26.1478 C   0  0  0  0  0  0
  -27.0319  -30.3006   24.6093 C   0  0  0  0  0  0
  -27.6077  -32.4265   25.7488 C   0  0  0  0  0  0
  -27.5577  -37.1821   24.8450 C   0  0  0  0  0  0
  -21.4099  -29.2988   22.3669 N   0  0  0  0  0  0
  -26.4290  -37.3783   23.9389 N   0  0  0  0  0  0
  -24.6621  -31.0843   22.1077 N   0  0  0  0  0  0
  -23.4082  -28.8285   23.3068 O   0  0  0  0  0  0
  -28.2795  -26.6157   20.1443 O   0  0  0  0  0  0
  -26.5574  -34.8913   22.4674 O   0  0  0  0  0  0
  -23.5316  -32.1586   23.7517 O   0  0  0  0  0  0
  -23.6372  -18.3658   26.0547 C   0  0  0  0  0  0
  -28.3111  -16.3439   21.7941 C   0  0  0  0  0  0
  -30.3733  -17.6004   21.4777 C   0  0  0  0  0  0
  -27.8097  -17.3691   22.6072 C   0  0  0  0  0  0
  -29.8808  -18.6168   22.3252 C   0  0  0  0  0  0
  -29.5851  -16.4576   21.2139 C   0  0  0  0  0  0
  -28.5875  -18.5095   22.8838 C   0  0  0  0  0  0
  -25.4475  -21.2710   26.4559 C   0  0  0  0  0  0
  -26.4949  -20.5384   26.0168 C   0  0  0  0  0  0
  -23.8657  -21.1490   22.4488 C   0  0  0  0  0  0
  -23.9714  -21.2509   26.0941 C   0  0  0  0  0  0
  -25.3952  -18.7538   24.3392 C   0  0  0  0  0  0
  -23.9707  -19.0584   24.7964 C   0  0  2  0  0  0
  -26.6439  -19.3864   25.0112 C   0  0  1  0  0  0
  -23.5943  -20.5450   24.7889 C   0  0  2  0  0  0
  -26.3903  -23.6771   22.0130 C   0  0  0  0  0  0
  -26.6265  -24.9550   21.2103 C   0  0  0  0  0  0
  -24.8689  -23.4702   22.2354 C   0  0  0  0  0  0
  -28.0847  -25.4586   20.9999 C   0  0  0  0  0  0
  -23.3760  -17.8181   27.0446 N   0  0  0  0  0  0
  -29.9826  -15.5348   20.2290 N   0  0  0  0  0  0
  -24.3616  -22.2010   21.6977 N   0  0  0  0  0  0
  -23.2545  -20.1859   21.9919 O   0  0  0  0  0  0
  -28.9934  -20.6211   24.4451 O   0  0  0  0  0  0
  -27.1686  -20.7078   22.7104 O   0  0  0  0  0  0
  -24.1634  -21.3258   23.7417 O   0  0  0  0  0  0
  -27.8938  -19.9445   23.7383 S   0  0  0  0  0  0
  -31.4645  -12.3467   19.0992 H   0  0  0  0  0  0
  -30.3040  -11.2712   19.8306 H   0  0  0  0  0  0
  -29.7074  -11.7347   17.4228 H   0  0  0  0  0  0
  -29.6613  -13.4512   17.7517 H   0  0  0  0  0  0
  -27.8100  -11.2938   18.8263 H   0  0  0  0  0  0
  -27.3555  -12.6221   17.7938 H   0  0  0  0  0  0
  -27.6980  -14.2413   19.5488 H   0  0  0  0  0  0
  -28.6987  -11.9824   21.3588 H   0  0  0  0  0  0
  -28.5465  -13.6309   21.8514 H   0  0  0  0  0  0
  -25.2770   -9.5678   22.4794 H   0  0  0  0  0  0
  -23.9990   -7.4643   22.7527 H   0  0  0  0  0  0
  -21.0827   -8.8803   19.8991 H   0  0  0  0  0  0
  -22.3705  -10.9696   19.6200 H   0  0  0  0  0  0
  -21.2006   -7.6152   23.9686 H   0  0  0  0  0  0
  -21.1475   -6.0558   25.9068 H   0  0  0  0  0  0
  -22.0593   -2.7607   23.2885 H   0  0  0  0  0  0
  -22.4171  -11.9907   22.4707 H   0  0  0  0  0  0
  -21.1144  -13.1259   22.2645 H   0  0  0  0  0  0
  -24.6175  -15.8140   20.4173 H   0  0  0  0  0  0
  -26.2309  -15.6087   19.9605 H   0  0  0  0  0  0
  -26.7107  -32.5561   23.1201 H   0  0  0  0  0  0
  -25.0058  -33.9826   25.0478 H   0  0  0  0  0  0
  -22.6825  -31.3173   21.4217 H   0  0  0  0  0  0
  -23.3739  -35.9676   23.3276 H   0  0  0  0  0  0
  -24.3601  -36.8929   22.2043 H   0  0  0  0  0  0
  -23.7344  -37.6561   23.6648 H   0  0  0  0  0  0
  -26.0535  -31.6110   20.6184 H   0  0  0  0  0  0
  -26.8167  -30.8755   22.0003 H   0  0  0  0  0  0
  -28.0675  -29.0479   21.2537 H   0  0  0  0  0  0
  -26.0992  -26.1626   18.7222 H   0  0  0  0  0  0
  -24.0045  -27.4310   18.8474 H   0  0  0  0  0  0
  -23.6993  -30.6383   19.4124 H   0  0  0  0  0  0
  -22.7320  -29.2684   19.8601 H   0  0  0  0  0  0
  -25.1284  -36.1924   25.0856 H   0  0  0  0  0  0
  -20.9863  -28.3289   24.1470 H   0  0  0  0  0  0
  -21.6629  -26.7139   22.1692 H   0  0  0  0  0  0
  -20.5220  -26.2353   23.3822 H   0  0  0  0  0  0
  -19.7014  -25.6285   21.1189 H   0  0  0  0  0  0
  -19.6948  -27.3143   20.6729 H   0  0  0  0  0  0
  -17.4407  -26.7152   21.3429 H   0  0  0  0  0  0
  -17.9877  -26.0023   22.8491 H   0  0  0  0  0  0
  -19.7800  -30.7139   24.2590 H   0  0  0  0  0  0
  -17.4820  -31.6040   24.5415 H   0  0  0  0  0  0
  -15.5257  -30.2947   23.7507 H   0  0  0  0  0  0
  -15.8629  -28.0847   22.6910 H   0  0  0  0  0  0
  -24.5900  -30.7092   25.7792 H   0  0  0  0  0  0
  -24.8967  -32.2891   26.4888 H   0  0  0  0  0  0
  -25.8061  -30.8892   27.0261 H   0  0  0  0  0  0
  -26.2902  -29.6774   24.1092 H   0  0  0  0  0  0
  -27.4074  -29.7221   25.4534 H   0  0  0  0  0  0
  -27.8730  -30.4305   23.9288 H   0  0  0  0  0  0
  -27.2711  -33.3528   26.2143 H   0  0  0  0  0  0
  -28.3849  -32.6879   25.0297 H   0  0  0  0  0  0
  -28.0797  -31.8356   26.5340 H   0  0  0  0  0  0
  -28.2594  -38.0116   24.7476 H   0  0  0  0  0  0
  -28.1096  -36.2656   24.6288 H   0  0  0  0  0  0
  -27.2298  -37.1482   25.8860 H   0  0  0  0  0  0
  -20.9288  -29.8720   21.6871 H   0  0  0  0  0  0
  -26.0160  -38.2863   24.1344 H   0  0  0  0  0  0
  -27.6655  -15.5142   21.5711 H   0  0  0  0  0  0
  -31.3346  -17.7264   20.9964 H   0  0  0  0  0  0
  -26.8056  -17.2559   22.9499 H   0  0  0  0  0  0
  -30.4673  -19.5101   22.4922 H   0  0  0  0  0  0
  -25.6802  -22.0218   27.2017 H   0  0  0  0  0  0
  -27.4368  -20.8130   26.4702 H   0  0  0  0  0  0
  -23.6330  -22.2866   26.0338 H   0  0  0  0  0  0
  -23.4329  -20.8226   26.9382 H   0  0  0  0  0  0
  -25.4281  -18.9386   23.2661 H   0  0  0  0  0  0
  -25.4854  -17.6757   24.4505 H   0  0  0  0  0  0
  -23.3320  -18.5695   24.0606 H   0  0  0  0  0  0
  -27.1564  -18.5955   25.5614 H   0  0  0  0  0  0
  -22.5083  -20.6095   24.6872 H   0  0  0  0  0  0
  -26.9159  -23.7288   22.9699 H   0  0  0  0  0  0
  -26.8176  -22.8453   21.4525 H   0  0  0  0  0  0
  -26.0354  -25.7498   21.6708 H   0  0  0  0  0  0
  -26.1858  -24.7314   20.2427 H   0  0  0  0  0  0
  -24.2927  -24.2384   21.7193 H   0  0  0  0  0  0
  -24.6251  -23.6299   23.2875 H   0  0  0  0  0  0
  -28.5356  -25.6727   21.9709 H   0  0  0  0  0  0
  -28.6635  -24.6448   20.5634 H   0  0  0  0  0  0
  -30.4384  -16.0274   19.4753 H   0  0  0  0  0  0
  -24.2075  -22.1171   20.6997 H   0  0  0  0  0  0
  1 25  1  0  0  0
  1 30  2  0  0  0
  1 91  1  0  0  0
  2  3  1  0  0  0
  2 25  1  0  0  0
  2 98  1  0  0  0
  2 99  1  0  0  0
  3  4  1  0  0  0
  3100  1  0  0  0
  3101  1  0  0  0
  4  5  1  0  0  0
  4102  1  0  0  0
  4103  1  0  0  0
  5  6  1  0  0  0
  5 26  1  0  0  0
  5104  1  0  0  0
  6 25  1  0  0  0
  6105  1  0  0  0
  6106  1  0  0  0
  7  8  2  0  0  0
  7 26  1  0  0  0
  7 29  1  0  0  0
  8  9  1  0  0  0
  8 22  1  0  0  0
  9 10  1  0  0  0
  9 27  2  0  0  0
 10 11  2  0  0  0
 10 15  1  0  0  0
 11 12  1  0  0  0
 11107  1  0  0  0
 12 13  2  0  0  0
 12108  1  0  0  0
 13 14  1  0  0  0
 13 31  1  0  0  0
 14 15  2  0  0  0
 14109  1  0  0  0
 15110  1  0  0  0
 16 17  2  0  0  0
 16 21  1  0  0  0
 16 31  1  0  0  0
 17 18  1  0  0  0
 17111  1  0  0  0
 18 19  2  0  0  0
 18112  1  0  0  0
 19 20  1  0  0  0
 19 24  1  0  0  0
 20 21  2  0  0  0
 20113  1  0  0  0
 21 23  1  0  0  0
 22 28  1  0  0  0
 22 32  2  0  0  0
 26 27  1  0  0  0
 28114  1  0  0  0
 28115  1  0  0  0
 29116  1  0  0  0
 29117  1  0  0  0
 33 34  1  0  0  0
 33 66  1  0  0  0
 33 70  2  0  0  0
 34 36  1  0  0  0
 34 59  1  0  0  0
 34118  1  0  0  0
 35 44  2  0  0  0
 35 45  1  0  0  0
 35 68  1  0  0  0
 36 56  1  0  0  0
 36119  1  0  0  0
 37 39  1  0  0  0
 37 47  1  0  0  0
 37 66  1  0  0  0
 37120  1  0  0  0
 38 43  2  0  0  0
 38 46  1  0  0  0
 38 47  1  0  0  0
 39 64  1  0  0  0
 39 67  2  0  0  0
 40 52  1  0  0  0
 40 53  2  0  0  0
 40 58  1  0  0  0
 41121  1  0  0  0
 41122  1  0  0  0
 41123  1  0  0  0
 41 48  1  0  0  0
 42 43  1  0  0  0
 42 66  1  0  0  0
 42124  1  0  0  0
 42125  1  0  0  0
 43 44  1  0  0  0
 44126  1  0  0  0
 45 46  2  0  0  0
 45127  1  0  0  0
 46128  1  0  0  0
 47129  1  0  0  0
 47130  1  0  0  0
 48 56  1  0  0  0
 48 65  1  0  0  0
 48131  1  0  0  0
 49 50  1  0  0  0
 49 53  1  0  0  0
 49 64  1  0  0  0
 49132  1  0  0  0
 50 51  1  0  0  0
 50133  1  0  0  0
 50134  1  0  0  0
 51 52  1  0  0  0
 51135  1  0  0  0
 51136  1  0  0  0
 52137  1  0  0  0
 52138  1  0  0  0
 53 54  1  0  0  0
 54 55  2  0  0  0
 54139  1  0  0  0
 55 57  1  0  0  0
 55140  1  0  0  0
 56 69  2  0  0  0
 57 58  2  0  0  0
 57141  1  0  0  0
 58142  1  0  0  0
 59 60  1  0  0  0
 59 61  1  0  0  0
 59 62  1  0  0  0
 60143  1  0  0  0
 60144  1  0  0  0
 60145  1  0  0  0
 61146  1  0  0  0
 61147  1  0  0  0
 61148  1  0  0  0
 62149  1  0  0  0
 62150  1  0  0  0
 62151  1  0  0  0
 63 65  1  0  0  0
 63152  1  0  0  0
 63153  1  0  0  0
 63154  1  0  0  0
 64155  1  0  0  0
 65156  1  0  0  0
 68 89  1  0  0  0
 71 90  3  0  0  0
 71 83  1  0  0  0
 72 74  2  0  0  0
 72 76  1  0  0  0
 72157  1  0  0  0
 73 75  1  0  0  0
 73 76  2  0  0  0
 73158  1  0  0  0
 74 77  1  0  0  0
 74159  1  0  0  0
 75 77  2  0  0  0
 75160  1  0  0  0
 76 91  1  0  0  0
 77 97  1  0  0  0
 78 79  2  0  0  0
 78 81  1  0  0  0
 78161  1  0  0  0
 79 84  1  0  0  0
 79162  1  0  0  0
 80 92  1  0  0  0
 80 93  2  0  0  0
 80 96  1  0  0  0
 81 85  1  0  0  0
 81163  1  0  0  0
 81164  1  0  0  0
 82 83  1  0  0  0
 82165  1  0  0  0
 82166  1  0  0  0
 82 84  1  0  0  0
 83 85  1  0  0  0
 83167  1  0  0  0
 84 97  1  0  0  0
 84168  1  0  0  0
 85 96  1  0  0  0
 85169  1  0  0  0
 86 87  1  0  0  0
 86 88  1  0  0  0
 86170  1  0  0  0
 86171  1  0  0  0
 87 89  1  0  0  0
 87172  1  0  0  0
 87173  1  0  0  0
 88 92  1  0  0  0
 88174  1  0  0  0
 88175  1  0  0  0
 89176  1  0  0  0
 89177  1  0  0  0
 91178  1  0  0  0
 92179  1  0  0  0
 94 97  2  0  0  0
 95 97  2  0  0  0
M  ISO  4   1 100  68 101  89 101  91 100
M  END
> <chiral flag>
0

> <version>
0

> <s_m_source_file>
/data/baiqing/PycharmProjects/Reinvent-master-3.2/result/LINK_invent/BTK/process_docking_weight1_custom_sum_contain_oxygen_bond_distance_aromatic_linkinvent_7_9_3/rearranged_h_0005.sdf

> <i_m_source_file_index>
43

> <r_mmod_Potential_Energy-OPLS-2005>
19.2394561767578

> <r_mmod_Stretch_Energy-OPLS-2005>
37.7420272827148

> <r_mmod_Bend_Energy-OPLS-2005>
179.471343994141

> <r_mmod_Torsional_Energy-OPLS-2005>
334.575836181641

> <r_mmod_Improper_Torsional_Energy-OPLS-2005>
28.0320873260498

> <r_mmod_Van_der_Waal_Energy-OPLS-2005>
155.891326904297

> <r_mmod_Electrostatic_Energy-OPLS-2005>
-471.182983398438

> <r_mmod_Solvation_Energy-OPLS-2005>
-276.813018798828

> <b_mmod_Minimization_Converged-OPLS-2005>
0

> <r_mmod_RMS_Derivative-OPLS-2005>
5.36860132217407

$$$$
43
                    3D
 Structure written by MMmdl.
155163  0  0  1  0            999 V2000
  -30.4828  -14.9408   20.4215 C   0  0  0  0  0  0
  -30.4529  -12.5802   19.4955 C   0  0  0  0  0  0
  -29.5265  -12.5390   18.2569 C   0  0  0  0  0  0
  -28.0602  -12.3148   18.6759 C   0  0  0  0  0  0
  -27.6369  -13.2358   19.8495 C   0  0  2  0  0  0
  -28.6789  -13.2241   20.9882 C   0  0  0  0  0  0
  -25.2489  -13.8185   20.5678 C   0  0  0  0  0  0
  -24.1802  -13.0434   20.9233 C   0  0  0  0  0  0
  -24.6390  -11.6913   20.8762 C   0  0  0  0  0  0
  -23.9062  -10.4299   21.0426 C   0  0  0  0  0  0
  -24.3618   -9.4207   21.9193 C   0  0  0  0  0  0
  -23.6298   -8.2236   22.0750 C   0  0  0  0  0  0
  -22.4278   -8.0283   21.3544 C   0  0  0  0  0  0
  -21.9919   -9.0254   20.4642 C   0  0  0  0  0  0
  -22.7239  -10.2142   20.3063 C   0  0  0  0  0  0
  -21.6845   -6.0735   22.5283 C   0  0  0  0  0  0
  -21.4007   -6.5637   23.8214 C   0  0  0  0  0  0
  -21.3663   -5.6780   24.9176 C   0  0  0  0  0  0
  -21.6046   -4.3035   24.7216 C   0  0  0  0  0  0
  -21.8821   -3.8143   23.4326 C   0  0  0  0  0  0
  -21.9195   -4.6970   22.3396 C   0  0  0  0  0  0
  -22.7833  -13.5229   21.1882 C   0  0  0  0  0  0
  -22.1666   -4.2157   21.0967 F   0  0  0  0  0  0
  -21.5633   -3.4516   25.7718 F   0  0  0  0  0  0
  -29.9584  -13.6512   20.4033 N   0  0  0  0  0  0
  -26.2912  -12.9391   20.3259 N   0  0  0  0  0  0
  -25.9319  -11.6536   20.5753 N   0  0  0  0  0  0
  -22.0458  -12.8235   22.0431 N   0  0  0  0  0  0
  -25.4114  -15.1909   20.4021 N   0  0  0  0  0  0
  -31.6692  -15.0880   20.1012 O   0  0  0  0  0  0
  -21.6637   -6.8884   21.4245 O   0  0  0  0  0  0
  -22.3537  -14.5530   20.6710 O   0  0  0  0  0  0
  -24.6448  -31.8447   23.1898 C   0  0  0  0  0  0
  -25.9221  -32.4700   23.8272 C   0  0  1  0  0  0
  -27.2044  -27.1444   20.1308 C   0  0  0  0  0  0
  -25.5987  -33.8502   24.2200 N   0  0  0  0  0  0
  -23.4442  -30.4704   21.5356 C   0  0  2  0  0  0
  -24.8890  -28.9039   20.1060 C   0  0  0  0  0  0
  -22.7567  -29.4566   22.4836 C   0  0  0  0  0  0
  -18.0314  -28.1412   22.8474 C   0  0  0  0  0  0
  -24.1471  -36.7232   23.2628 C   0  0  0  0  0  0
  -26.0018  -30.7229   21.3834 C   0  0  0  0  0  0
  -26.0709  -29.3369   20.7209 C   0  0  0  0  0  0
  -27.2320  -28.4743   20.7155 C   0  0  0  0  0  0
  -25.9949  -26.8203   19.4735 C   0  0  0  0  0  0
  -24.8640  -27.6605   19.4662 C   0  0  0  0  0  0
  -23.6667  -29.8058   20.1534 C   0  0  0  0  0  0
  -25.4098  -36.3018   24.0314 C   0  0  1  0  0  0
  -20.5932  -28.3721   23.1222 C   0  0  2  0  0  0
  -20.6787  -26.9424   22.5392 C   0  0  0  0  0  0
  -19.5766  -26.6393   21.5193 C   0  0  0  0  0  0
  -18.1949  -26.7953   22.1607 C   0  0  0  0  0  0
  -19.1574  -28.8884   23.2844 C   0  0  0  0  0  0
  -18.9490  -30.1486   23.8867 C   0  0  0  0  0  0
  -17.6486  -30.6603   24.0571 C   0  0  0  0  0  0
  -25.9075  -34.9409   23.5054 C   0  0  0  0  0  0
  -16.5372  -29.9102   23.6352 C   0  0  0  0  0  0
  -16.7303  -28.6524   23.0366 C   0  0  0  0  0  0
  -26.4546  -31.6574   25.0710 C   0  0  0  0  0  0
  -25.3751  -31.3777   26.1424 C   0  0  0  0  0  0
  -27.0380  -30.2967   24.6262 C   0  0  0  0  0  0
  -27.6062  -32.4353   25.7504 C   0  0  0  0  0  0
  -27.5578  -37.1739   24.8437 C   0  0  0  0  0  0
  -21.4257  -29.3054   22.3586 N   0  0  0  0  0  0
  -26.4238  -37.3765   23.9459 N   0  0  0  0  0  0
  -24.7173  -31.0331   22.0912 N   0  0  0  0  0  0
  -23.4216  -28.8099   23.2968 O   0  0  0  0  0  0
  -28.2383  -26.1390   20.1948 O   0  0  0  0  0  0
  -26.5628  -34.8911   22.4615 O   0  0  0  0  0  0
  -23.5577  -32.1294   23.7159 O   0  0  0  0  0  0
  -30.3988  -18.5402   20.0670 C   0  0  0  0  0  0
  -30.1079  -19.9753   19.9938 C   0  0  0  0  0  0
  -28.2278  -18.1671   20.9065 C   0  0  0  0  0  0
  -29.4668  -17.5447   20.5343 C   0  0  0  0  0  0
  -28.8526  -20.5763   20.3724 C   0  0  0  0  0  0
  -27.9197  -19.5895   20.8323 C   0  0  0  0  0  0
  -28.8606  -23.3503   20.2442 C   0  0  0  0  0  0
  -24.6444  -20.1569   22.4645 C   0  0  0  0  0  0
  -27.8460  -24.6402   20.0378 C   0  0  0  0  0  0
  -25.8178  -19.2968   21.9881 C   0  0  0  0  0  0
  -28.3645  -22.0247   20.2603 N   0  0  0  0  0  0
  -29.5876  -16.0154   20.6555 N   0  0  0  0  0  0
  -30.0687  -23.5654   20.3718 O   0  0  0  0  0  0
  -26.6820  -20.0960   21.1863 O   0  0  0  0  0  0
  -31.4826  -12.7653   19.1848 H   0  0  0  0  0  0
  -30.4641  -11.6156   20.0062 H   0  0  0  0  0  0
  -29.8481  -11.7555   17.5694 H   0  0  0  0  0  0
  -29.6066  -13.4777   17.7066 H   0  0  0  0  0  0
  -27.9665  -11.2731   18.9844 H   0  0  0  0  0  0
  -27.3924  -12.4455   17.8244 H   0  0  0  0  0  0
  -27.6117  -14.2437   19.4359 H   0  0  0  0  0  0
  -28.7647  -12.2328   21.4363 H   0  0  0  0  0  0
  -28.3757  -13.8954   21.7939 H   0  0  0  0  0  0
  -25.2762   -9.5685   22.4761 H   0  0  0  0  0  0
  -24.0010   -7.4624   22.7463 H   0  0  0  0  0  0
  -21.0848   -8.8774   19.8942 H   0  0  0  0  0  0
  -22.3698  -10.9682   19.6173 H   0  0  0  0  0  0
  -21.1986   -7.6143   23.9721 H   0  0  0  0  0  0
  -21.1484   -6.0498   25.9075 H   0  0  0  0  0  0
  -22.0591   -2.7605   23.2806 H   0  0  0  0  0  0
  -22.4045  -11.9890   22.4815 H   0  0  0  0  0  0
  -21.1078  -13.1281   22.2613 H   0  0  0  0  0  0
  -24.6040  -15.8034   20.4264 H   0  0  0  0  0  0
  -26.2081  -15.6092   19.9401 H   0  0  0  0  0  0
  -26.7279  -32.5287   23.0998 H   0  0  0  0  0  0
  -25.0194  -33.9616   25.0386 H   0  0  0  0  0  0
  -22.7484  -31.2998   21.3892 H   0  0  0  0  0  0
  -23.3773  -35.9514   23.3201 H   0  0  0  0  0  0
  -24.3594  -36.8958   22.2067 H   0  0  0  0  0  0
  -23.7160  -37.6375   23.6710 H   0  0  0  0  0  0
  -26.1587  -31.4811   20.6148 H   0  0  0  0  0  0
  -26.8729  -30.7688   22.0251 H   0  0  0  0  0  0
  -28.1347  -28.8062   21.2090 H   0  0  0  0  0  0
  -25.8709  -25.8781   18.9653 H   0  0  0  0  0  0
  -23.9632  -27.3264   18.9702 H   0  0  0  0  0  0
  -23.8009  -30.5832   19.4007 H   0  0  0  0  0  0
  -22.7783  -29.2513   19.8461 H   0  0  0  0  0  0
  -25.1279  -36.1805   25.0799 H   0  0  0  0  0  0
  -21.0051  -28.3312   24.1332 H   0  0  0  0  0  0
  -20.5650  -26.2343   23.3615 H   0  0  0  0  0  0
  -21.6655  -26.7423   22.1197 H   0  0  0  0  0  0
  -19.6911  -25.6293   21.1250 H   0  0  0  0  0  0
  -19.6719  -27.3179   20.6706 H   0  0  0  0  0  0
  -17.4218  -26.6718   21.4010 H   0  0  0  0  0  0
  -18.0362  -26.0106   22.9027 H   0  0  0  0  0  0
  -19.7966  -30.7323   24.2201 H   0  0  0  0  0  0
  -17.5046  -31.6274   24.5192 H   0  0  0  0  0  0
  -15.5372  -30.2997   23.7692 H   0  0  0  0  0  0
  -15.8712  -28.0844   22.7077 H   0  0  0  0  0  0
  -24.5942  -30.7093   25.7791 H   0  0  0  0  0  0
  -24.8921  -32.2962   26.4766 H   0  0  0  0  0  0
  -25.8077  -30.9045   27.0251 H   0  0  0  0  0  0
  -26.2967  -29.6725   24.1255 H   0  0  0  0  0  0
  -27.3989  -29.7242   25.4817 H   0  0  0  0  0  0
  -27.8901  -30.4207   23.9570 H   0  0  0  0  0  0
  -27.2637  -33.3698   26.1964 H   0  0  0  0  0  0
  -28.3942  -32.6848   25.0386 H   0  0  0  0  0  0
  -28.0635  -31.8546   26.5527 H   0  0  0  0  0  0
  -28.2475  -38.0158   24.7676 H   0  0  0  0  0  0
  -28.1203  -36.2709   24.6010 H   0  0  0  0  0  0
  -27.2350  -37.1081   25.8845 H   0  0  0  0  0  0
  -20.9439  -29.8796   21.6813 H   0  0  0  0  0  0
  -26.0083  -38.2787   24.1625 H   0  0  0  0  0  0
  -31.3717  -18.2088   19.7346 H   0  0  0  0  0  0
  -30.8771  -20.6246   19.6007 H   0  0  0  0  0  0
  -27.4568  -17.4986   21.2549 H   0  0  0  0  0  0
  -24.0241  -19.6046   23.1715 H   0  0  0  0  0  0
  -24.0077  -20.4538   21.6303 H   0  0  0  0  0  0
  -24.9920  -21.0581   22.9707 H   0  0  0  0  0  0
  -26.9912  -24.4604   20.6920 H   0  0  0  0  0  0
  -27.4826  -24.5080   19.0193 H   0  0  0  0  0  0
  -25.4357  -18.4476   21.4189 H   0  0  0  0  0  0
  -26.3529  -18.9128   22.8581 H   0  0  0  0  0  0
  -27.3520  -22.0494   20.2557 H   0  0  0  0  0  0
  -28.7129  -15.6107   20.9536 H   0  0  0  0  0  0
  1 25  1  0  0  0
  1 30  2  0  0  0
  1 82  1  0  0  0
  2  3  1  0  0  0
  2 25  1  0  0  0
  2 85  1  0  0  0
  2 86  1  0  0  0
  3  4  1  0  0  0
  3 87  1  0  0  0
  3 88  1  0  0  0
  4  5  1  0  0  0
  4 89  1  0  0  0
  4 90  1  0  0  0
  5  6  1  0  0  0
  5 26  1  0  0  0
  5 91  1  0  0  0
  6 25  1  0  0  0
  6 92  1  0  0  0
  6 93  1  0  0  0
  7  8  2  0  0  0
  7 26  1  0  0  0
  7 29  1  0  0  0
  8  9  1  0  0  0
  8 22  1  0  0  0
  9 10  1  0  0  0
  9 27  2  0  0  0
 10 11  2  0  0  0
 10 15  1  0  0  0
 11 12  1  0  0  0
 11 94  1  0  0  0
 12 13  2  0  0  0
 12 95  1  0  0  0
 13 14  1  0  0  0
 13 31  1  0  0  0
 14 15  2  0  0  0
 14 96  1  0  0  0
 15 97  1  0  0  0
 16 17  2  0  0  0
 16 21  1  0  0  0
 16 31  1  0  0  0
 17 18  1  0  0  0
 17 98  1  0  0  0
 18 19  2  0  0  0
 18 99  1  0  0  0
 19 20  1  0  0  0
 19 24  1  0  0  0
 20 21  2  0  0  0
 20100  1  0  0  0
 21 23  1  0  0  0
 22 28  1  0  0  0
 22 32  2  0  0  0
 26 27  1  0  0  0
 28101  1  0  0  0
 28102  1  0  0  0
 29103  1  0  0  0
 29104  1  0  0  0
 33 34  1  0  0  0
 33 66  1  0  0  0
 33 70  2  0  0  0
 34 36  1  0  0  0
 34 59  1  0  0  0
 34105  1  0  0  0
 35 44  2  0  0  0
 35 45  1  0  0  0
 35 68  1  0  0  0
 36 56  1  0  0  0
 36106  1  0  0  0
 37 39  1  0  0  0
 37 47  1  0  0  0
 37 66  1  0  0  0
 37107  1  0  0  0
 38 43  2  0  0  0
 38 46  1  0  0  0
 38 47  1  0  0  0
 39 64  1  0  0  0
 39 67  2  0  0  0
 40 52  1  0  0  0
 40 53  2  0  0  0
 40 58  1  0  0  0
 41108  1  0  0  0
 41109  1  0  0  0
 41110  1  0  0  0
 41 48  1  0  0  0
 42 43  1  0  0  0
 42 66  1  0  0  0
 42111  1  0  0  0
 42112  1  0  0  0
 43 44  1  0  0  0
 44113  1  0  0  0
 45 46  2  0  0  0
 45114  1  0  0  0
 46115  1  0  0  0
 47116  1  0  0  0
 47117  1  0  0  0
 48 56  1  0  0  0
 48 65  1  0  0  0
 48118  1  0  0  0
 49 50  1  0  0  0
 49 53  1  0  0  0
 49 64  1  0  0  0
 49119  1  0  0  0
 50 51  1  0  0  0
 50120  1  0  0  0
 50121  1  0  0  0
 51 52  1  0  0  0
 51122  1  0  0  0
 51123  1  0  0  0
 52124  1  0  0  0
 52125  1  0  0  0
 53 54  1  0  0  0
 54 55  2  0  0  0
 54126  1  0  0  0
 55 57  1  0  0  0
 55127  1  0  0  0
 56 69  2  0  0  0
 57 58  2  0  0  0
 57128  1  0  0  0
 58129  1  0  0  0
 59 60  1  0  0  0
 59 61  1  0  0  0
 59 62  1  0  0  0
 60130  1  0  0  0
 60131  1  0  0  0
 60132  1  0  0  0
 61133  1  0  0  0
 61134  1  0  0  0
 61135  1  0  0  0
 62136  1  0  0  0
 62137  1  0  0  0
 62138  1  0  0  0
 63 65  1  0  0  0
 63139  1  0  0  0
 63140  1  0  0  0
 63141  1  0  0  0
 64142  1  0  0  0
 65143  1  0  0  0
 68 79  1  0  0  0
 71 72  2  0  0  0
 71 74  1  0  0  0
 71144  1  0  0  0
 72 75  1  0  0  0
 72145  1  0  0  0
 73 74  2  0  0  0
 73 76  1  0  0  0
 73146  1  0  0  0
 74 82  1  0  0  0
 75 76  2  0  0  0
 75 81  1  0  0  0
 76 84  1  0  0  0
 77 79  1  0  0  0
 77 81  1  0  0  0
 77 83  2  0  0  0
 78 80  1  0  0  0
 78147  1  0  0  0
 78148  1  0  0  0
 78149  1  0  0  0
 79150  1  0  0  0
 79151  1  0  0  0
 80 84  1  0  0  0
 80152  1  0  0  0
 80153  1  0  0  0
 81154  1  0  0  0
 82155  1  0  0  0
M  ISO  4   1 100  68 101  79 101  82 100
M  END
> <chiral flag>
0

> <version>
0

> <s_m_source_file>
/data/baiqing/PycharmProjects/Reinvent-master-3.2/result/LINK_invent/BTK/process_docking_weight1_custom_sum_contain_oxygen_bond_distance_aromatic_linkinvent_7_9_3/rearranged_h_0005.sdf

> <i_m_source_file_index>
44

> <r_mmod_Potential_Energy-OPLS-2005>
405.196472167969

> <r_mmod_Stretch_Energy-OPLS-2005>
220.458480834961

> <r_mmod_Bend_Energy-OPLS-2005>
281.765594482422

> <r_mmod_Torsional_Energy-OPLS-2005>
227.185638427734

> <r_mmod_Improper_Torsional_Energy-OPLS-2005>
5.04764842987061

> <r_mmod_Van_der_Waal_Energy-OPLS-2005>
135.11164855957

> <r_mmod_Electrostatic_Energy-OPLS-2005>
-410.828308105469

> <r_mmod_Solvation_Energy-OPLS-2005>
-245.933853149414

> <b_mmod_Minimization_Converged-OPLS-2005>
0

> <r_mmod_RMS_Derivative-OPLS-2005>
2.69007325172424

$$$$
44
                    3D
 Structure written by MMmdl.
193201  0  0  1  0            999 V2000
  -30.8481  -14.4805   20.2295 C   0  0  0  0  0  0
  -30.4001  -12.2954   19.3264 C   0  0  0  0  0  0
  -29.4328  -12.4132   18.1545 C   0  0  0  0  0  0
  -27.9769  -12.3013   18.6178 C   0  0  0  0  0  0
  -27.6421  -13.2123   19.8286 C   0  0  2  0  0  0
  -28.7490  -13.1607   20.9104 C   0  0  0  0  0  0
  -25.2596  -13.8197   20.5714 C   0  0  0  0  0  0
  -24.1808  -13.0415   20.9194 C   0  0  0  0  0  0
  -24.6410  -11.6958   20.8777 C   0  0  0  0  0  0
  -23.9050  -10.4321   21.0408 C   0  0  0  0  0  0
  -24.3625   -9.4244   21.9160 C   0  0  0  0  0  0
  -23.6313   -8.2280   22.0730 C   0  0  0  0  0  0
  -22.4280   -8.0284   21.3560 C   0  0  0  0  0  0
  -21.9870   -9.0258   20.4686 C   0  0  0  0  0  0
  -22.7194  -10.2160   20.3081 C   0  0  0  0  0  0
  -21.6861   -6.0747   22.5267 C   0  0  0  0  0  0
  -21.4043   -6.5672   23.8181 C   0  0  0  0  0  0
  -21.3628   -5.6810   24.9134 C   0  0  0  0  0  0
  -21.6016   -4.3074   24.7172 C   0  0  0  0  0  0
  -21.8861   -3.8174   23.4304 C   0  0  0  0  0  0
  -21.9201   -4.6998   22.3356 C   0  0  0  0  0  0
  -22.7869  -13.5298   21.1716 C   0  0  0  0  0  0
  -22.1698   -4.2206   21.0933 F   0  0  0  0  0  0
  -21.5547   -3.4528   25.7673 F   0  0  0  0  0  0
  -30.0385  -13.3808   20.2305 N   0  0  0  0  0  0
  -26.3023  -12.9372   20.3409 N   0  0  0  0  0  0
  -25.9366  -11.6556   20.5889 N   0  0  0  0  0  0
  -22.0478  -12.8316   22.0343 N   0  0  0  0  0  0
  -25.4211  -15.1804   20.4184 N   0  0  0  0  0  0
  -31.9831  -14.4265   20.6698 O   0  0  0  0  0  0
  -21.6660   -6.8879   21.4228 O   0  0  0  0  0  0
  -22.3539  -14.5489   20.6436 O   0  0  0  0  0  0
  -24.6255  -31.8657   23.2103 C   0  0  0  0  0  0
  -25.9150  -32.4721   23.8540 C   0  0  1  0  0  0
  -27.2353  -27.4420   20.0901 C   0  0  0  0  0  0
  -25.6095  -33.8577   24.2466 N   0  0  0  0  0  0
  -23.4007  -30.4980   21.5369 C   0  0  2  0  0  0
  -24.8484  -28.9496   20.1174 C   0  0  0  0  0  0
  -22.7367  -29.4762   22.4887 C   0  0  0  0  0  0
  -18.0252  -28.1381   22.8435 C   0  0  0  0  0  0
  -24.1560  -36.7306   23.2597 C   0  0  0  0  0  0
  -25.9391  -30.8084   21.3840 C   0  0  0  0  0  0
  -26.0021  -29.4491   20.7266 C   0  0  0  0  0  0
  -27.1929  -28.6985   20.7290 C   0  0  0  0  0  0
  -26.0714  -26.9532   19.4631 C   0  0  0  0  0  0
  -24.8713  -27.6891   19.4957 C   0  0  0  0  0  0
  -23.6221  -29.8324   20.1489 C   0  0  0  0  0  0
  -25.4103  -36.3069   24.0374 C   0  0  1  0  0  0
  -20.5876  -28.3733   23.1285 C   0  0  2  0  0  0
  -20.6768  -26.9557   22.5305 C   0  0  0  0  0  0
  -19.5880  -26.6908   21.4846 C   0  0  0  0  0  0
  -18.1983  -26.8144   22.1227 C   0  0  0  0  0  0
  -19.1492  -28.8748   23.3003 C   0  0  0  0  0  0
  -18.9411  -30.1225   23.9233 C   0  0  0  0  0  0
  -17.6464  -30.6502   24.0798 C   0  0  0  0  0  0
  -25.9024  -34.9396   23.5111 C   0  0  0  0  0  0
  -16.5393  -29.9010   23.6435 C   0  0  0  0  0  0
  -16.7255  -28.6488   23.0371 C   0  0  0  0  0  0
  -26.4613  -31.6560   25.0913 C   0  0  0  0  0  0
  -25.4035  -31.3805   26.1808 C   0  0  0  0  0  0
  -27.0518  -30.2974   24.6463 C   0  0  0  0  0  0
  -27.6192  -32.4317   25.7631 C   0  0  0  0  0  0
  -27.5610  -37.1797   24.8445 C   0  0  0  0  0  0
  -21.4077  -29.3213   22.3728 N   0  0  0  0  0  0
  -26.4284  -37.3742   23.9424 N   0  0  0  0  0  0
  -24.6674  -31.0844   22.0918 N   0  0  0  0  0  0
  -23.4131  -28.8143   23.2815 O   0  0  0  0  0  0
  -28.4099  -26.7410   19.9876 O   0  0  0  0  0  0
  -26.5447  -34.8833   22.4601 O   0  0  0  0  0  0
  -23.5456  -32.1435   23.7507 O   0  0  0  0  0  0
  -28.7827  -16.6437   20.2891 C   0  0  0  0  0  0
  -27.5871  -17.3705   20.2300 C   0  0  0  0  0  0
  -27.5664  -17.1351   17.8169 C   0  0  0  0  0  0
  -28.7060  -16.2994   17.8622 C   0  0  0  0  0  0
  -29.3546  -16.0900   19.1202 C   0  0  0  0  0  0
  -26.9567  -17.6050   18.9962 C   0  0  0  0  0  0
  -24.4003  -24.3244   20.8431 C   0  0  0  0  0  0
  -27.8795  -14.9448   15.8839 C   0  0  0  0  0  0
  -29.1119  -15.6099   16.5503 C   0  0  0  0  0  0
  -21.8221  -20.5954   21.0182 C   0  0  0  0  0  0
  -21.8050  -19.4333   20.0129 C   0  0  0  0  0  0
  -20.7052  -21.6288   20.8040 C   0  0  0  0  0  0
  -23.2068  -19.2466   19.4324 C   0  0  0  0  0  0
  -21.1867  -22.9992   21.2963 C   0  0  0  0  0  0
  -23.3516  -18.0063   18.5493 C   0  0  0  0  0  0
  -27.5707  -24.7002   21.1962 C   0  0  0  0  0  0
  -22.0702  -23.6935   20.2287 C   0  0  0  0  0  0
  -26.4788  -25.1068   22.2272 C   0  0  0  0  0  0
  -31.7885  -16.0146   18.5474 C   0  0  0  0  0  0
  -24.7836  -17.8090   18.0240 C   0  0  0  0  0  0
  -28.6889  -25.7451   20.9860 C   0  0  0  0  0  0
  -31.7383  -17.5181   18.2015 C   0  0  0  0  0  0
  -23.0846  -24.5942   20.7835 N   0  0  0  0  0  0
  -25.0513  -25.0277   21.7966 N   0  0  0  0  0  0
  -30.6066  -15.4286   19.2664 N   0  0  0  0  0  0
  -24.9206  -23.4904   20.0873 O   0  0  0  0  0  0
  -25.7311  -18.2199   19.0107 O   0  0  0  0  0  0
  -31.7515  -18.2813   19.2996 F   0  0  0  0  0  0
  -31.4356  -12.3821   18.9840 H   0  0  0  0  0  0
  -30.2918  -11.3249   19.8065 H   0  0  0  0  0  0
  -29.6639  -11.7119   17.3615 H   0  0  0  0  0  0
  -29.5584  -13.3654   17.7196 H   0  0  0  0  0  0
  -27.8237  -11.2550   18.8617 H   0  0  0  0  0  0
  -27.2799  -12.4937   17.8037 H   0  0  0  0  0  0
  -27.6147  -14.2196   19.4292 H   0  0  0  0  0  0
  -28.7511  -12.1940   21.4163 H   0  0  0  0  0  0
  -28.5784  -13.9208   21.6731 H   0  0  0  0  0  0
  -25.2806   -9.5718   22.4681 H   0  0  0  0  0  0
  -24.0047   -7.4678   22.7431 H   0  0  0  0  0  0
  -21.0765   -8.8742   19.9039 H   0  0  0  0  0  0
  -22.3589  -10.9661   19.6173 H   0  0  0  0  0  0
  -21.2148   -7.6199   23.9691 H   0  0  0  0  0  0
  -21.1349   -6.0541   25.9009 H   0  0  0  0  0  0
  -22.0684   -2.7646   23.2751 H   0  0  0  0  0  0
  -22.4141  -12.0067   22.4850 H   0  0  0  0  0  0
  -21.1122  -13.1393   22.2547 H   0  0  0  0  0  0
  -24.6672  -15.8492   20.5115 H   0  0  0  0  0  0
  -26.2891  -15.6130   20.1247 H   0  0  0  0  0  0
  -26.7310  -32.5403   23.1392 H   0  0  0  0  0  0
  -25.0838  -33.9825   25.0977 H   0  0  0  0  0  0
  -22.6897  -31.3193   21.4029 H   0  0  0  0  0  0
  -23.3745  -35.9702   23.3166 H   0  0  0  0  0  0
  -24.3761  -36.8926   22.2040 H   0  0  0  0  0  0
  -23.7358  -37.6539   23.6565 H   0  0  0  0  0  0
  -26.1507  -31.5644   20.6294 H   0  0  0  0  0  0
  -26.7910  -30.8179   22.0517 H   0  0  0  0  0  0
  -28.0871  -29.0923   21.1831 H   0  0  0  0  0  0
  -26.1140  -25.9966   18.9553 H   0  0  0  0  0  0
  -23.9803  -27.3097   19.0155 H   0  0  0  0  0  0
  -23.7679  -30.6182   19.4102 H   0  0  0  0  0  0
  -22.7546  -29.2710   19.8121 H   0  0  0  0  0  0
  -25.1252  -36.1969   25.0879 H   0  0  0  0  0  0
  -20.9945  -28.3176   24.1406 H   0  0  0  0  0  0
  -20.5562  -26.2398   23.3440 H   0  0  0  0  0  0
  -21.6683  -26.7706   22.1200 H   0  0  0  0  0  0
  -19.7213  -25.7164   21.0023 H   0  0  0  0  0  0
  -19.6673  -27.4406   20.6967 H   0  0  0  0  0  0
  -17.4418  -26.7208   21.3460 H   0  0  0  0  0  0
  -18.0090  -26.0074   22.8314 H   0  0  0  0  0  0
  -19.7857  -30.6824   24.3016 H   0  0  0  0  0  0
  -17.5056  -31.6081   24.5585 H   0  0  0  0  0  0
  -15.5419  -30.2957   23.7636 H   0  0  0  0  0  0
  -15.8704  -28.0746   22.6961 H   0  0  0  0  0  0
  -24.6121  -30.7092   25.8489 H   0  0  0  0  0  0
  -24.9321  -32.3000   26.5314 H   0  0  0  0  0  0
  -25.8583  -30.9169   27.0576 H   0  0  0  0  0  0
  -26.3197  -29.6617   24.1432 H   0  0  0  0  0  0
  -27.4191  -29.7406   25.5134 H   0  0  0  0  0  0
  -27.9098  -30.4323   23.9841 H   0  0  0  0  0  0
  -27.2753  -33.3572   26.2308 H   0  0  0  0  0  0
  -28.3903  -32.6905   25.0353 H   0  0  0  0  0  0
  -28.0938  -31.8381   26.5477 H   0  0  0  0  0  0
  -28.2573  -38.0154   24.7481 H   0  0  0  0  0  0
  -28.1203  -36.2684   24.6225 H   0  0  0  0  0  0
  -27.2406  -37.1397   25.8879 H   0  0  0  0  0  0
  -20.9128  -29.9264   21.7318 H   0  0  0  0  0  0
  -26.0200  -38.2865   24.1285 H   0  0  0  0  0  0
  -29.2414  -16.4961   21.2569 H   0  0  0  0  0  0
  -27.1296  -17.7200   21.1442 H   0  0  0  0  0  0
  -27.1123  -17.3794   16.8650 H   0  0  0  0  0  0
  -28.1285  -14.3968   14.9724 H   0  0  0  0  0  0
  -27.1212  -15.6801   15.6073 H   0  0  0  0  0  0
  -27.3814  -14.2462   16.5591 H   0  0  0  0  0  0
  -29.8928  -14.8822   16.7037 H   0  0  0  0  0  0
  -29.5994  -16.3076   15.8659 H   0  0  0  0  0  0
  -22.7874  -21.1114   20.9497 H   0  0  0  0  0  0
  -21.8090  -20.2005   22.0361 H   0  0  0  0  0  0
  -21.0951  -19.6081   19.2030 H   0  0  0  0  0  0
  -21.4786  -18.5148   20.5110 H   0  0  0  0  0  0
  -19.8011  -21.2870   21.3116 H   0  0  0  0  0  0
  -20.4333  -21.7211   19.7498 H   0  0  0  0  0  0
  -23.8988  -19.1717   20.2697 H   0  0  0  0  0  0
  -23.4994  -20.1362   18.8733 H   0  0  0  0  0  0
  -21.7190  -22.8605   22.2352 H   0  0  0  0  0  0
  -20.3256  -23.6227   21.5391 H   0  0  0  0  0  0
  -22.6723  -18.0653   17.6987 H   0  0  0  0  0  0
  -23.0416  -17.1364   19.1309 H   0  0  0  0  0  0
  -27.1527  -24.4490   20.2294 H   0  0  0  0  0  0
  -28.0331  -23.7620   21.5241 H   0  0  0  0  0  0
  -21.4066  -24.2548   19.5677 H   0  0  0  0  0  0
  -22.5705  -22.9506   19.6083 H   0  0  0  0  0  0
  -26.6439  -26.1486   22.5114 H   0  0  0  0  0  0
  -26.6339  -24.5640   23.1654 H   0  0  0  0  0  0
  -32.7357  -15.9104   19.0894 H   0  0  0  0  0  0
  -31.9309  -15.4471   17.6274 H   0  0  0  0  0  0
  -24.9426  -18.3827   17.1122 H   0  0  0  0  0  0
  -24.8996  -16.7524   17.7818 H   0  0  0  0  0  0
  -28.9813  -26.2155   21.9228 H   0  0  0  0  0  0
  -29.5796  -25.1991   20.6547 H   0  0  0  0  0  0
  -30.8821  -17.8007   17.5976 H   0  0  0  0  0  0
  -32.6225  -17.7898   17.6204 H   0  0  0  0  0  0
  -22.8616  -25.5892   20.7048 H   0  0  0  0  0  0
  -24.4314  -25.5583   22.3990 H   0  0  0  0  0  0
  1 25  1  0  0  0
  1 30  2  0  0  0
  1 95  1  0  0  0
  2  3  1  0  0  0
  2 25  1  0  0  0
  2 99  1  0  0  0
  2100  1  0  0  0
  3  4  1  0  0  0
  3101  1  0  0  0
  3102  1  0  0  0
  4  5  1  0  0  0
  4103  1  0  0  0
  4104  1  0  0  0
  5  6  1  0  0  0
  5 26  1  0  0  0
  5105  1  0  0  0
  6 25  1  0  0  0
  6106  1  0  0  0
  6107  1  0  0  0
  7  8  2  0  0  0
  7 26  1  0  0  0
  7 29  1  0  0  0
  8  9  1  0  0  0
  8 22  1  0  0  0
  9 10  1  0  0  0
  9 27  2  0  0  0
 10 11  2  0  0  0
 10 15  1  0  0  0
 11 12  1  0  0  0
 11108  1  0  0  0
 12 13  2  0  0  0
 12109  1  0  0  0
 13 14  1  0  0  0
 13 31  1  0  0  0
 14 15  2  0  0  0
 14110  1  0  0  0
 15111  1  0  0  0
 16 17  2  0  0  0
 16 21  1  0  0  0
 16 31  1  0  0  0
 17 18  1  0  0  0
 17112  1  0  0  0
 18 19  2  0  0  0
 18113  1  0  0  0
 19 20  1  0  0  0
 19 24  1  0  0  0
 20 21  2  0  0  0
 20114  1  0  0  0
 21 23  1  0  0  0
 22 28  1  0  0  0
 22 32  2  0  0  0
 26 27  1  0  0  0
 28115  1  0  0  0
 28116  1  0  0  0
 29117  1  0  0  0
 29118  1  0  0  0
 33 34  1  0  0  0
 33 66  1  0  0  0
 33 70  2  0  0  0
 34 36  1  0  0  0
 34 59  1  0  0  0
 34119  1  0  0  0
 35 44  2  0  0  0
 35 45  1  0  0  0
 35 68  1  0  0  0
 36 56  1  0  0  0
 36120  1  0  0  0
 37 39  1  0  0  0
 37 47  1  0  0  0
 37 66  1  0  0  0
 37121  1  0  0  0
 38 43  2  0  0  0
 38 46  1  0  0  0
 38 47  1  0  0  0
 39 64  1  0  0  0
 39 67  2  0  0  0
 40 52  1  0  0  0
 40 53  2  0  0  0
 40 58  1  0  0  0
 41122  1  0  0  0
 41123  1  0  0  0
 41124  1  0  0  0
 41 48  1  0  0  0
 42 43  1  0  0  0
 42 66  1  0  0  0
 42125  1  0  0  0
 42126  1  0  0  0
 43 44  1  0  0  0
 44127  1  0  0  0
 45 46  2  0  0  0
 45128  1  0  0  0
 46129  1  0  0  0
 47130  1  0  0  0
 47131  1  0  0  0
 48 56  1  0  0  0
 48 65  1  0  0  0
 48132  1  0  0  0
 49 50  1  0  0  0
 49 53  1  0  0  0
 49 64  1  0  0  0
 49133  1  0  0  0
 50 51  1  0  0  0
 50134  1  0  0  0
 50135  1  0  0  0
 51 52  1  0  0  0
 51136  1  0  0  0
 51137  1  0  0  0
 52138  1  0  0  0
 52139  1  0  0  0
 53 54  1  0  0  0
 54 55  2  0  0  0
 54140  1  0  0  0
 55 57  1  0  0  0
 55141  1  0  0  0
 56 69  2  0  0  0
 57 58  2  0  0  0
 57142  1  0  0  0
 58143  1  0  0  0
 59 60  1  0  0  0
 59 61  1  0  0  0
 59 62  1  0  0  0
 60144  1  0  0  0
 60145  1  0  0  0
 60146  1  0  0  0
 61147  1  0  0  0
 61148  1  0  0  0
 61149  1  0  0  0
 62150  1  0  0  0
 62151  1  0  0  0
 62152  1  0  0  0
 63 65  1  0  0  0
 63153  1  0  0  0
 63154  1  0  0  0
 63155  1  0  0  0
 64156  1  0  0  0
 65157  1  0  0  0
 68 91  1  0  0  0
 71 72  2  0  0  0
 71 75  1  0  0  0
 71158  1  0  0  0
 72 76  1  0  0  0
 72159  1  0  0  0
 73 74  1  0  0  0
 73 76  2  0  0  0
 73160  1  0  0  0
 74 75  2  0  0  0
 74 79  1  0  0  0
 75 95  1  0  0  0
 76 97  1  0  0  0
 77 93  1  0  0  0
 77 94  1  0  0  0
 77 96  2  0  0  0
 78 79  1  0  0  0
 78161  1  0  0  0
 78162  1  0  0  0
 78163  1  0  0  0
 79164  1  0  0  0
 79165  1  0  0  0
 80 81  1  0  0  0
 80 82  1  0  0  0
 80166  1  0  0  0
 80167  1  0  0  0
 81 83  1  0  0  0
 81168  1  0  0  0
 81169  1  0  0  0
 82 84  1  0  0  0
 82170  1  0  0  0
 82171  1  0  0  0
 83 85  1  0  0  0
 83172  1  0  0  0
 83173  1  0  0  0
 84 87  1  0  0  0
 84174  1  0  0  0
 84175  1  0  0  0
 85 90  1  0  0  0
 85176  1  0  0  0
 85177  1  0  0  0
 86 88  1  0  0  0
 86 91  1  0  0  0
 86178  1  0  0  0
 86179  1  0  0  0
 87 93  1  0  0  0
 87180  1  0  0  0
 87181  1  0  0  0
 88 94  1  0  0  0
 88182  1  0  0  0
 88183  1  0  0  0
 89 92  1  0  0  0
 89 95  1  0  0  0
 89184  1  0  0  0
 89185  1  0  0  0
 90 97  1  0  0  0
 90186  1  0  0  0
 90187  1  0  0  0
 91188  1  0  0  0
 91189  1  0  0  0
 92 98  1  0  0  0
 92190  1  0  0  0
 92191  1  0  0  0
 93192  1  0  0  0
 94193  1  0  0  0
M  ISO  4   1 100  68 101  91 101  95 100
M  END
> <chiral flag>
0

> <version>
0

> <s_m_source_file>
/data/baiqing/PycharmProjects/Reinvent-master-3.2/result/LINK_invent/BTK/process_docking_weight1_custom_sum_contain_oxygen_bond_distance_aromatic_linkinvent_7_9_3/rearranged_h_0005.sdf

> <i_m_source_file_index>
45

> <r_mmod_Potential_Energy-OPLS-2005>
274.452209472656

> <r_mmod_Stretch_Energy-OPLS-2005>
52.5569763183594

> <r_mmod_Bend_Energy-OPLS-2005>
159.187484741211

> <r_mmod_Torsional_Energy-OPLS-2005>
437.242980957031

> <r_mmod_Improper_Torsional_Energy-OPLS-2005>
21.2145347595215

> <r_mmod_Van_der_Waal_Energy-OPLS-2005>
161.615264892578

> <r_mmod_Electrostatic_Energy-OPLS-2005>
-437.822814941406

> <r_mmod_Solvation_Energy-OPLS-2005>
-216.192459106445

> <b_mmod_Minimization_Converged-OPLS-2005>
0

> <r_mmod_RMS_Derivative-OPLS-2005>
15.748438835144

$$$$
45
                    3D
 Structure written by MMmdl.
172181  0  0  1  0            999 V2000
  -30.6939  -14.4397   20.6187 C   0  0  0  0  0  0
  -30.4319  -12.2976   19.4189 C   0  0  0  0  0  0
  -29.5021  -12.5305   18.2099 C   0  0  0  0  0  0
  -28.0199  -12.3838   18.6157 C   0  0  0  0  0  0
  -27.6695  -13.1999   19.8896 C   0  0  2  0  0  0
  -28.7070  -12.9353   21.0035 C   0  0  0  0  0  0
  -25.2604  -13.8126   20.5700 C   0  0  0  0  0  0
  -24.1819  -13.0415   20.9181 C   0  0  0  0  0  0
  -24.6366  -11.6895   20.8744 C   0  0  0  0  0  0
  -23.9009  -10.4293   21.0408 C   0  0  0  0  0  0
  -24.3561   -9.4207   21.9185 C   0  0  0  0  0  0
  -23.6253   -8.2231   22.0740 C   0  0  0  0  0  0
  -22.4227   -8.0288   21.3533 C   0  0  0  0  0  0
  -21.9868   -9.0246   20.4624 C   0  0  0  0  0  0
  -22.7189  -10.2132   20.3043 C   0  0  0  0  0  0
  -21.6817   -6.0757   22.5293 C   0  0  0  0  0  0
  -21.3994   -6.5655   23.8235 C   0  0  0  0  0  0
  -21.3663   -5.6795   24.9188 C   0  0  0  0  0  0
  -21.6039   -4.3055   24.7229 C   0  0  0  0  0  0
  -21.8804   -3.8157   23.4342 C   0  0  0  0  0  0
  -21.9166   -4.6983   22.3410 C   0  0  0  0  0  0
  -22.7847  -13.5238   21.1849 C   0  0  0  0  0  0
  -22.1634   -4.2178   21.0983 F   0  0  0  0  0  0
  -21.5644   -3.4541   25.7737 F   0  0  0  0  0  0
  -30.0475  -13.2519   20.4698 N   0  0  0  0  0  0
  -26.3048  -12.9292   20.3428 N   0  0  0  0  0  0
  -25.9302  -11.6454   20.5774 N   0  0  0  0  0  0
  -22.0458  -12.8238   22.0401 N   0  0  0  0  0  0
  -25.4355  -15.1837   20.4139 N   0  0  0  0  0  0
  -31.7694  -14.6944   20.0681 O   0  0  0  0  0  0
  -21.6577   -6.8894   21.4250 O   0  0  0  0  0  0
  -22.3559  -14.5575   20.6743 O   0  0  0  0  0  0
  -24.6139  -31.8687   23.2102 C   0  0  0  0  0  0
  -25.9046  -32.4816   23.8386 C   0  0  1  0  0  0
  -27.2277  -27.4382   20.0807 C   0  0  0  0  0  0
  -25.5907  -33.8614   24.2318 N   0  0  0  0  0  0
  -23.3983  -30.4946   21.5513 C   0  0  2  0  0  0
  -24.8395  -28.9581   20.1167 C   0  0  0  0  0  0
  -22.7382  -29.4681   22.4993 C   0  0  0  0  0  0
  -18.0266  -28.1384   22.8494 C   0  0  0  0  0  0
  -24.1487  -36.7315   23.2638 C   0  0  0  0  0  0
  -25.9274  -30.8343   21.3610 C   0  0  0  0  0  0
  -26.0007  -29.4692   20.7072 C   0  0  0  0  0  0
  -27.1952  -28.7162   20.6853 C   0  0  0  0  0  0
  -26.0398  -26.9302   19.5051 C   0  0  0  0  0  0
  -24.8532  -27.6868   19.5178 C   0  0  0  0  0  0
  -23.6033  -29.8269   20.1659 C   0  0  0  0  0  0
  -25.4107  -36.3104   24.0333 C   0  0  1  0  0  0
  -20.5854  -28.3666   23.1321 C   0  0  2  0  0  0
  -20.6760  -26.9407   22.5417 C   0  0  0  0  0  0
  -19.5744  -26.6393   21.5210 C   0  0  0  0  0  0
  -18.1919  -26.7930   22.1619 C   0  0  0  0  0  0
  -19.1513  -28.8840   23.2905 C   0  0  0  0  0  0
  -18.9445  -30.1444   23.8911 C   0  0  0  0  0  0
  -17.6454  -30.6590   24.0568 C   0  0  0  0  0  0
  -25.9036  -34.9473   23.5120 C   0  0  0  0  0  0
  -16.5341  -29.9097   23.6330 C   0  0  0  0  0  0
  -16.7257  -28.6514   23.0347 C   0  0  0  0  0  0
  -26.4477  -31.6597   25.0716 C   0  0  0  0  0  0
  -25.3754  -31.3717   26.1476 C   0  0  0  0  0  0
  -27.0301  -30.3033   24.6103 C   0  0  0  0  0  0
  -27.6046  -32.4319   25.7486 C   0  0  0  0  0  0
  -27.5576  -37.1810   24.8463 C   0  0  0  0  0  0
  -21.4113  -29.3039   22.3727 N   0  0  0  0  0  0
  -26.4292  -37.3788   23.9405 N   0  0  0  0  0  0
  -24.6654  -31.0802   22.0993 N   0  0  0  0  0  0
  -23.4167  -28.8223   23.3026 O   0  0  0  0  0  0
  -28.4245  -26.7533   20.0749 O   0  0  0  0  0  0
  -26.5593  -34.8926   22.4680 O   0  0  0  0  0  0
  -23.5339  -32.1439   23.7511 O   0  0  0  0  0  0
  -30.5359  -18.9547   20.4725 C   0  0  0  0  0  0
  -30.6624  -17.5503   20.4287 C   0  0  0  0  0  0
  -29.1804  -18.7663   22.4824 C   0  0  0  0  0  0
  -29.7943  -19.5764   21.5033 C   0  0  0  0  0  0
  -30.0337  -16.7438   21.4079 C   0  0  0  0  0  0
  -29.2747  -17.3509   22.4347 C   0  0  0  0  0  0
  -29.8745  -21.9666   20.7448 C   0  0  0  0  0  0
  -29.9734  -25.0780   19.3668 C   0  0  0  0  0  0
  -32.5459  -23.4225   21.4299 C   0  0  0  0  0  0
  -31.3000  -23.3733   22.3018 C   0  0  0  0  0  0
  -32.1223  -24.3351   20.2810 C   0  0  0  0  0  0
  -30.1322  -23.3994   21.2930 C   0  0  1  0  0  0
  -28.6520  -17.6158   25.5189 C   0  0  0  0  0  0
  -26.5447  -17.5823   23.9851 C   0  0  0  0  0  0
  -28.4881  -25.4100   19.5734 C   0  0  0  0  0  0
  -27.8553  -16.9019   24.4131 C   0  0  0  0  0  0
  -30.6531  -24.2929   20.2376 N   0  0  0  0  0  0
  -29.7088  -20.9930   21.6601 N   0  0  0  0  0  0
  -30.0533  -15.3172   21.4091 N   0  0  0  0  0  0
  -29.7950  -21.7653   19.5290 O   0  0  0  0  0  0
  -30.5533  -25.6335   18.4261 O   0  0  0  0  0  0
  -28.6742  -16.4770   23.3238 O   0  0  0  0  0  0
  -31.4781  -12.4005   19.1240 H   0  0  0  0  0  0
  -30.3299  -11.2774   19.7915 H   0  0  0  0  0  0
  -29.7491  -11.8296   17.4120 H   0  0  0  0  0  0
  -29.6751  -13.5296   17.8058 H   0  0  0  0  0  0
  -27.8258  -11.3253   18.7895 H   0  0  0  0  0  0
  -27.3674  -12.6803   17.7930 H   0  0  0  0  0  0
  -27.7286  -14.2564   19.6242 H   0  0  0  0  0  0
  -28.6769  -11.8865   21.3047 H   0  0  0  0  0  0
  -28.4528  -13.4887   21.9078 H   0  0  0  0  0  0
  -25.2721   -9.5660   22.4745 H   0  0  0  0  0  0
  -23.9970   -7.4594   22.7413 H   0  0  0  0  0  0
  -21.0815   -8.8727   19.8911 H   0  0  0  0  0  0
  -22.3646  -10.9650   19.6122 H   0  0  0  0  0  0
  -21.1981   -7.6159   23.9771 H   0  0  0  0  0  0
  -21.1508   -6.0510   25.9102 H   0  0  0  0  0  0
  -22.0580   -2.7622   23.2798 H   0  0  0  0  0  0
  -22.4040  -11.9876   22.4768 H   0  0  0  0  0  0
  -21.1112  -13.1312   22.2695 H   0  0  0  0  0  0
  -24.6700  -15.8405   20.5179 H   0  0  0  0  0  0
  -26.3049  -15.6189   20.1316 H   0  0  0  0  0  0
  -26.7115  -32.5520   23.1142 H   0  0  0  0  0  0
  -25.0061  -33.9780   25.0466 H   0  0  0  0  0  0
  -22.6871  -31.3121   21.4141 H   0  0  0  0  0  0
  -23.3737  -35.9661   23.3319 H   0  0  0  0  0  0
  -24.3578  -36.8912   22.2049 H   0  0  0  0  0  0
  -23.7258  -37.6533   23.6641 H   0  0  0  0  0  0
  -26.0424  -31.6011   20.5938 H   0  0  0  0  0  0
  -26.8151  -30.8827   21.9801 H   0  0  0  0  0  0
  -28.0961  -29.1137   21.1320 H   0  0  0  0  0  0
  -26.0000  -25.9562   19.0401 H   0  0  0  0  0  0
  -23.9553  -27.2834   19.0694 H   0  0  0  0  0  0
  -23.7108  -30.6017   19.4056 H   0  0  0  0  0  0
  -22.7260  -29.2479   19.8720 H   0  0  0  0  0  0
  -25.1285  -36.1963   25.0826 H   0  0  0  0  0  0
  -20.9948  -28.3238   24.1439 H   0  0  0  0  0  0
  -20.5670  -26.2273   23.3598 H   0  0  0  0  0  0
  -21.6634  -26.7461   22.1204 H   0  0  0  0  0  0
  -19.6907  -25.6306   21.1231 H   0  0  0  0  0  0
  -19.6691  -27.3208   20.6746 H   0  0  0  0  0  0
  -17.4190  -26.6672   21.4022 H   0  0  0  0  0  0
  -18.0327  -26.0067   22.9015 H   0  0  0  0  0  0
  -19.7931  -30.7252   24.2283 H   0  0  0  0  0  0
  -17.5019  -31.6276   24.5171 H   0  0  0  0  0  0
  -15.5345  -30.3009   23.7655 H   0  0  0  0  0  0
  -15.8652  -28.0845   22.7052 H   0  0  0  0  0  0
  -24.5909  -30.7077   25.7830 H   0  0  0  0  0  0
  -24.8972  -32.2885   26.4937 H   0  0  0  0  0  0
  -25.8121  -30.8882   27.0223 H   0  0  0  0  0  0
  -26.2843  -29.6796   24.1158 H   0  0  0  0  0  0
  -27.4061  -29.7269   25.4567 H   0  0  0  0  0  0
  -27.8685  -30.4335   23.9254 H   0  0  0  0  0  0
  -27.2648  -33.3602   26.2091 H   0  0  0  0  0  0
  -28.3848  -32.6909   25.0317 H   0  0  0  0  0  0
  -28.0721  -31.8430   26.5386 H   0  0  0  0  0  0
  -28.2601  -38.0099   24.7493 H   0  0  0  0  0  0
  -28.1062  -36.2628   24.6304 H   0  0  0  0  0  0
  -27.2293  -37.1483   25.8867 H   0  0  0  0  0  0
  -20.9260  -29.8762   21.6958 H   0  0  0  0  0  0
  -26.0179  -38.2865   24.1400 H   0  0  0  0  0  0
  -31.0321  -19.5419   19.7145 H   0  0  0  0  0  0
  -31.2377  -17.1138   19.6261 H   0  0  0  0  0  0
  -28.6358  -19.2642   23.2657 H   0  0  0  0  0  0
  -32.7813  -22.4266   21.0509 H   0  0  0  0  0  0
  -33.4235  -23.7907   21.9628 H   0  0  0  0  0  0
  -31.2546  -24.2681   22.9257 H   0  0  0  0  0  0
  -31.3105  -22.5207   22.9822 H   0  0  0  0  0  0
  -32.5589  -24.0090   19.3360 H   0  0  0  0  0  0
  -32.4532  -25.3591   20.4680 H   0  0  0  0  0  0
  -29.2310  -23.7851   21.7708 H   0  0  0  0  0  0
  -28.0160  -17.8303   26.3769 H   0  0  0  0  0  0
  -29.0955  -18.5579   25.2073 H   0  0  0  0  0  0
  -29.4647  -16.9788   25.8674 H   0  0  0  0  0  0
  -26.0649  -17.0297   23.1762 H   0  0  0  0  0  0
  -26.6691  -18.6095   23.6530 H   0  0  0  0  0  0
  -25.8451  -17.6030   24.8220 H   0  0  0  0  0  0
  -27.9823  -24.7195   20.2462 H   0  0  0  0  0  0
  -28.0115  -25.3219   18.5966 H   0  0  0  0  0  0
  -27.5374  -15.9564   24.8545 H   0  0  0  0  0  0
  -29.6043  -21.3214   22.6097 H   0  0  0  0  0  0
  -29.3213  -14.9093   21.9717 H   0  0  0  0  0  0
  1 25  1  0  0  0
  1 30  2  0  0  0
  1 89  1  0  0  0
  2  3  1  0  0  0
  2 25  1  0  0  0
  2 93  1  0  0  0
  2 94  1  0  0  0
  3  4  1  0  0  0
  3 95  1  0  0  0
  3 96  1  0  0  0
  4  5  1  0  0  0
  4 97  1  0  0  0
  4 98  1  0  0  0
  5  6  1  0  0  0
  5 26  1  0  0  0
  5 99  1  0  0  0
  6 25  1  0  0  0
  6100  1  0  0  0
  6101  1  0  0  0
  7  8  2  0  0  0
  7 26  1  0  0  0
  7 29  1  0  0  0
  8  9  1  0  0  0
  8 22  1  0  0  0
  9 10  1  0  0  0
  9 27  2  0  0  0
 10 11  2  0  0  0
 10 15  1  0  0  0
 11 12  1  0  0  0
 11102  1  0  0  0
 12 13  2  0  0  0
 12103  1  0  0  0
 13 14  1  0  0  0
 13 31  1  0  0  0
 14 15  2  0  0  0
 14104  1  0  0  0
 15105  1  0  0  0
 16 17  2  0  0  0
 16 21  1  0  0  0
 16 31  1  0  0  0
 17 18  1  0  0  0
 17106  1  0  0  0
 18 19  2  0  0  0
 18107  1  0  0  0
 19 20  1  0  0  0
 19 24  1  0  0  0
 20 21  2  0  0  0
 20108  1  0  0  0
 21 23  1  0  0  0
 22 28  1  0  0  0
 22 32  2  0  0  0
 26 27  1  0  0  0
 28109  1  0  0  0
 28110  1  0  0  0
 29111  1  0  0  0
 29112  1  0  0  0
 33 34  1  0  0  0
 33 66  1  0  0  0
 33 70  2  0  0  0
 34 36  1  0  0  0
 34 59  1  0  0  0
 34113  1  0  0  0
 35 44  2  0  0  0
 35 45  1  0  0  0
 35 68  1  0  0  0
 36 56  1  0  0  0
 36114  1  0  0  0
 37 39  1  0  0  0
 37 47  1  0  0  0
 37 66  1  0  0  0
 37115  1  0  0  0
 38 43  2  0  0  0
 38 46  1  0  0  0
 38 47  1  0  0  0
 39 64  1  0  0  0
 39 67  2  0  0  0
 40 52  1  0  0  0
 40 53  2  0  0  0
 40 58  1  0  0  0
 41116  1  0  0  0
 41117  1  0  0  0
 41118  1  0  0  0
 41 48  1  0  0  0
 42 43  1  0  0  0
 42 66  1  0  0  0
 42119  1  0  0  0
 42120  1  0  0  0
 43 44  1  0  0  0
 44121  1  0  0  0
 45 46  2  0  0  0
 45122  1  0  0  0
 46123  1  0  0  0
 47124  1  0  0  0
 47125  1  0  0  0
 48 56  1  0  0  0
 48 65  1  0  0  0
 48126  1  0  0  0
 49 50  1  0  0  0
 49 53  1  0  0  0
 49 64  1  0  0  0
 49127  1  0  0  0
 50 51  1  0  0  0
 50128  1  0  0  0
 50129  1  0  0  0
 51 52  1  0  0  0
 51130  1  0  0  0
 51131  1  0  0  0
 52132  1  0  0  0
 52133  1  0  0  0
 53 54  1  0  0  0
 54 55  2  0  0  0
 54134  1  0  0  0
 55 57  1  0  0  0
 55135  1  0  0  0
 56 69  2  0  0  0
 57 58  2  0  0  0
 57136  1  0  0  0
 58137  1  0  0  0
 59 60  1  0  0  0
 59 61  1  0  0  0
 59 62  1  0  0  0
 60138  1  0  0  0
 60139  1  0  0  0
 60140  1  0  0  0
 61141  1  0  0  0
 61142  1  0  0  0
 61143  1  0  0  0
 62144  1  0  0  0
 62145  1  0  0  0
 62146  1  0  0  0
 63 65  1  0  0  0
 63147  1  0  0  0
 63148  1  0  0  0
 63149  1  0  0  0
 64150  1  0  0  0
 65151  1  0  0  0
 68 85  1  0  0  0
 71 72  2  0  0  0
 71 74  1  0  0  0
 71152  1  0  0  0
 72 75  1  0  0  0
 72153  1  0  0  0
 73 74  2  0  0  0
 73 76  1  0  0  0
 73154  1  0  0  0
 74 88  1  0  0  0
 75 76  2  0  0  0
 75 89  1  0  0  0
 76 92  1  0  0  0
 77 88  1  0  0  0
 77 90  2  0  0  0
 77 82  1  0  0  0
 78 85  1  0  0  0
 78 87  1  0  0  0
 78 91  2  0  0  0
 79 80  1  0  0  0
 79 81  1  0  0  0
 79155  1  0  0  0
 79156  1  0  0  0
 80 82  1  0  0  0
 80157  1  0  0  0
 80158  1  0  0  0
 81 87  1  0  0  0
 81159  1  0  0  0
 81160  1  0  0  0
 82 87  1  0  0  0
 82161  1  0  0  0
 83162  1  0  0  0
 83163  1  0  0  0
 83164  1  0  0  0
 83 86  1  0  0  0
 84 86  1  0  0  0
 84165  1  0  0  0
 84166  1  0  0  0
 84167  1  0  0  0
 85168  1  0  0  0
 85169  1  0  0  0
 86 92  1  0  0  0
 86170  1  0  0  0
 88171  1  0  0  0
 89172  1  0  0  0
M  ISO  4   1 100  68 101  85 101  89 100
M  END
> <chiral flag>
0

> <version>
0

> <s_m_source_file>
/data/baiqing/PycharmProjects/Reinvent-master-3.2/result/LINK_invent/BTK/process_docking_weight1_custom_sum_contain_oxygen_bond_distance_aromatic_linkinvent_7_9_3/rearranged_h_0005.sdf

> <i_m_source_file_index>
46

> <r_mmod_Potential_Energy-OPLS-2005>
-73.0283889770508

> <r_mmod_Stretch_Energy-OPLS-2005>
41.6776123046875

> <r_mmod_Bend_Energy-OPLS-2005>
171.189071655273

> <r_mmod_Torsional_Energy-OPLS-2005>
233.22492980957

> <r_mmod_Improper_Torsional_Energy-OPLS-2005>
3.88279128074646

> <r_mmod_Van_der_Waal_Energy-OPLS-2005>
168.421691894531

> <r_mmod_Electrostatic_Energy-OPLS-2005>
-450.208953857422

> <r_mmod_Solvation_Energy-OPLS-2005>
-251.328796386719

> <b_mmod_Minimization_Converged-OPLS-2005>
0

> <r_mmod_RMS_Derivative-OPLS-2005>
2.41161108016968

$$$$
46
                    3D
 Structure written by MMmdl.
163171  0  0  1  0            999 V2000
  -30.6715  -14.4478   20.4434 C   0  0  0  0  0  0
  -30.4268  -12.2537   19.3978 C   0  0  0  0  0  0
  -29.4917  -12.4616   18.1886 C   0  0  0  0  0  0
  -28.0072  -12.3391   18.6081 C   0  0  0  0  0  0
  -27.6517  -13.1840   19.8626 C   0  0  2  0  0  0
  -28.7147  -12.9991   20.9771 C   0  0  0  0  0  0
  -25.2576  -13.8100   20.5697 C   0  0  0  0  0  0
  -24.1816  -13.0404   20.9169 C   0  0  0  0  0  0
  -24.6335  -11.6857   20.8739 C   0  0  0  0  0  0
  -23.8996  -10.4274   21.0403 C   0  0  0  0  0  0
  -24.3567   -9.4220   21.9186 C   0  0  0  0  0  0
  -23.6267   -8.2254   22.0756 C   0  0  0  0  0  0
  -22.4261   -8.0262   21.3542 C   0  0  0  0  0  0
  -21.9868   -9.0213   20.4652 C   0  0  0  0  0  0
  -22.7169  -10.2109   20.3060 C   0  0  0  0  0  0
  -21.6855   -6.0701   22.5264 C   0  0  0  0  0  0
  -21.4009   -6.5607   23.8196 C   0  0  0  0  0  0
  -21.3679   -5.6775   24.9158 C   0  0  0  0  0  0
  -21.6055   -4.3041   24.7238 C   0  0  0  0  0  0
  -21.8824   -3.8118   23.4361 C   0  0  0  0  0  0
  -21.9188   -4.6928   22.3410 C   0  0  0  0  0  0
  -22.7860  -13.5218   21.1825 C   0  0  0  0  0  0
  -22.1639   -4.2101   21.0976 F   0  0  0  0  0  0
  -21.5663   -3.4534   25.7766 F   0  0  0  0  0  0
  -30.0469  -13.2496   20.3971 N   0  0  0  0  0  0
  -26.2978  -12.9202   20.3368 N   0  0  0  0  0  0
  -25.9252  -11.6383   20.5769 N   0  0  0  0  0  0
  -22.0489  -12.8231   22.0379 N   0  0  0  0  0  0
  -25.4320  -15.1827   20.4151 N   0  0  0  0  0  0
  -31.8755  -14.6319   20.2798 O   0  0  0  0  0  0
  -21.6658   -6.8850   21.4227 O   0  0  0  0  0  0
  -22.3562  -14.5536   20.6683 O   0  0  0  0  0  0
  -24.6088  -31.8707   23.2113 C   0  0  0  0  0  0
  -25.8984  -32.4823   23.8401 C   0  0  1  0  0  0
  -27.2426  -27.4914   20.0585 C   0  0  0  0  0  0
  -25.5851  -33.8628   24.2346 N   0  0  0  0  0  0
  -23.3974  -30.4930   21.5519 C   0  0  2  0  0  0
  -24.8383  -28.9644   20.1146 C   0  0  0  0  0  0
  -22.7356  -29.4697   22.5014 C   0  0  0  0  0  0
  -18.0267  -28.1408   22.8499 C   0  0  0  0  0  0
  -24.1476  -36.7327   23.2640 C   0  0  0  0  0  0
  -25.9155  -30.8531   21.3546 C   0  0  0  0  0  0
  -25.9902  -29.4860   20.7087 C   0  0  0  0  0  0
  -27.1879  -28.7487   20.6884 C   0  0  0  0  0  0
  -26.0666  -26.9704   19.4606 C   0  0  0  0  0  0
  -24.8658  -27.7037   19.4931 C   0  0  0  0  0  0
  -23.5996  -29.8218   20.1691 C   0  0  0  0  0  0
  -25.4103  -36.3143   24.0346 C   0  0  1  0  0  0
  -20.5835  -28.3700   23.1347 C   0  0  2  0  0  0
  -20.6757  -26.9437   22.5460 C   0  0  0  0  0  0
  -19.5748  -26.6417   21.5242 C   0  0  0  0  0  0
  -18.1918  -26.7961   22.1626 C   0  0  0  0  0  0
  -19.1508  -28.8864   23.2916 C   0  0  0  0  0  0
  -18.9440  -30.1461   23.8936 C   0  0  0  0  0  0
  -17.6457  -30.6604   24.0607 C   0  0  0  0  0  0
  -25.8998  -34.9483   23.5149 C   0  0  0  0  0  0
  -16.5344  -29.9132   23.6328 C   0  0  0  0  0  0
  -16.7260  -28.6548   23.0353 C   0  0  0  0  0  0
  -26.4440  -31.6554   25.0688 C   0  0  0  0  0  0
  -25.3722  -31.3625   26.1464 C   0  0  0  0  0  0
  -27.0288  -30.3038   24.5958 C   0  0  0  0  0  0
  -27.6046  -32.4262   25.7407 C   0  0  0  0  0  0
  -27.5579  -37.1809   24.8465 C   0  0  0  0  0  0
  -21.4075  -29.3077   22.3738 N   0  0  0  0  0  0
  -26.4297  -37.3821   23.9395 N   0  0  0  0  0  0
  -24.6602  -31.0834   22.1017 N   0  0  0  0  0  0
  -23.4132  -28.8220   23.3044 O   0  0  0  0  0  0
  -28.4658  -26.8565   20.0571 O   0  0  0  0  0  0
  -26.5546  -34.8909   22.4703 O   0  0  0  0  0  0
  -23.5280  -32.1453   23.7530 O   0  0  0  0  0  0
  -30.2465  -17.2502   21.7025 C   0  0  0  0  0  0
  -28.3253  -18.7453   20.3106 C   0  0  0  0  0  0
  -29.6483  -16.7299   20.5356 C   0  0  0  0  0  0
  -28.8781  -19.2637   21.4995 C   0  0  0  0  0  0
  -29.8841  -18.5243   22.1926 C   0  0  0  0  0  0
  -28.7107  -17.4962   19.8233 C   0  0  0  0  0  0
  -28.0894  -24.4549   20.1318 C   0  0  0  0  0  0
  -27.8397  -23.1194   18.0426 C   0  0  0  0  0  0
  -30.7414  -20.2782   23.6224 C   0  0  0  0  0  0
  -28.6373  -25.6461   19.3287 C   0  0  0  0  0  0
  -28.6943  -21.6162   21.1430 C   0  0  0  0  0  0
  -27.4944  -22.0921   20.2920 C   0  0  0  0  0  0
  -29.8126  -15.4047   20.0932 N   0  0  0  0  0  0
  -28.3565  -20.4699   21.9764 N   0  0  0  0  0  0
  -27.8304  -23.2836   19.5045 N   0  0  0  0  0  0
  -27.9308  -24.5938   21.3517 O   0  0  0  0  0  0
  -30.5028  -18.8987   23.3692 O   0  0  0  0  0  0
  -27.9667  -16.8906   18.3822 Cl  0  0  0  0  0  0
  -31.4709  -12.3572   19.0966 H   0  0  0  0  0  0
  -30.3117  -11.2491   19.8074 H   0  0  0  0  0  0
  -29.7182  -11.7298   17.4129 H   0  0  0  0  0  0
  -29.6787  -13.4377   17.7391 H   0  0  0  0  0  0
  -27.8125  -11.2839   18.8110 H   0  0  0  0  0  0
  -27.3575  -12.6183   17.7760 H   0  0  0  0  0  0
  -27.6529  -14.2210   19.5412 H   0  0  0  0  0  0
  -28.6756  -11.9899   21.3865 H   0  0  0  0  0  0
  -28.5207  -13.6801   21.8098 H   0  0  0  0  0  0
  -25.2719   -9.5733   22.4717 H   0  0  0  0  0  0
  -24.0006   -7.4657   22.7461 H   0  0  0  0  0  0
  -21.0809   -8.8717   19.8939 H   0  0  0  0  0  0
  -22.3620  -10.9631   19.6175 H   0  0  0  0  0  0
  -21.1968   -7.6117   23.9679 H   0  0  0  0  0  0
  -21.1508   -6.0509   25.9056 H   0  0  0  0  0  0
  -22.0590   -2.7578   23.2884 H   0  0  0  0  0  0
  -22.4136  -11.9919   22.4820 H   0  0  0  0  0  0
  -21.1110  -13.1271   22.2566 H   0  0  0  0  0  0
  -24.6663  -15.8375   20.5261 H   0  0  0  0  0  0
  -26.2883  -15.6275   20.1116 H   0  0  0  0  0  0
  -26.7060  -32.5564   23.1170 H   0  0  0  0  0  0
  -25.0029  -33.9828   25.0513 H   0  0  0  0  0  0
  -22.6905  -31.3110   21.4051 H   0  0  0  0  0  0
  -23.3728  -35.9667   23.3320 H   0  0  0  0  0  0
  -24.3595  -36.8939   22.2057 H   0  0  0  0  0  0
  -23.7203  -37.6529   23.6625 H   0  0  0  0  0  0
  -26.0043  -31.6212   20.5842 H   0  0  0  0  0  0
  -26.8148  -30.9197   21.9540 H   0  0  0  0  0  0
  -28.0804  -29.1544   21.1436 H   0  0  0  0  0  0
  -26.0500  -26.0147   18.9569 H   0  0  0  0  0  0
  -23.9749  -27.3064   19.0277 H   0  0  0  0  0  0
  -23.7066  -30.5925   19.4057 H   0  0  0  0  0  0
  -22.7239  -29.2350   19.8802 H   0  0  0  0  0  0
  -25.1270  -36.2076   25.0840 H   0  0  0  0  0  0
  -20.9908  -28.3303   24.1474 H   0  0  0  0  0  0
  -20.5718  -26.2295   23.3653 H   0  0  0  0  0  0
  -21.6629  -26.7562   22.1209 H   0  0  0  0  0  0
  -19.6940  -25.6343   21.1254 H   0  0  0  0  0  0
  -19.6692  -27.3244   20.6791 H   0  0  0  0  0  0
  -17.4202  -26.6729   21.3994 H   0  0  0  0  0  0
  -18.0270  -26.0112   22.9014 H   0  0  0  0  0  0
  -19.7933  -30.7259   24.2287 H   0  0  0  0  0  0
  -17.5051  -31.6272   24.5224 H   0  0  0  0  0  0
  -15.5365  -30.3086   23.7611 H   0  0  0  0  0  0
  -15.8650  -28.0899   22.7053 H   0  0  0  0  0  0
  -24.5914  -30.6935   25.7822 H   0  0  0  0  0  0
  -24.8848  -32.2755   26.4884 H   0  0  0  0  0  0
  -25.8134  -30.8836   27.0221 H   0  0  0  0  0  0
  -26.2833  -29.6741   24.1090 H   0  0  0  0  0  0
  -27.4248  -29.7295   25.4328 H   0  0  0  0  0  0
  -27.8535  -30.4406   23.8963 H   0  0  0  0  0  0
  -27.2702  -33.3566   26.1989 H   0  0  0  0  0  0
  -28.3826  -32.6819   25.0200 H   0  0  0  0  0  0
  -28.0714  -31.8361   26.5297 H   0  0  0  0  0  0
  -28.2612  -38.0094   24.7560 H   0  0  0  0  0  0
  -28.1084  -36.2638   24.6285 H   0  0  0  0  0  0
  -27.2291  -37.1465   25.8868 H   0  0  0  0  0  0
  -20.9229  -29.8805   21.6957 H   0  0  0  0  0  0
  -26.0207  -38.2901   24.1448 H   0  0  0  0  0  0
  -30.9524  -16.6529   22.2621 H   0  0  0  0  0  0
  -27.5584  -19.2688   19.7663 H   0  0  0  0  0  0
  -28.8629  -23.0672   17.6645 H   0  0  0  0  0  0
  -27.3182  -23.9369   17.5407 H   0  0  0  0  0  0
  -27.3304  -22.2124   17.7130 H   0  0  0  0  0  0
  -29.8635  -20.7572   24.0548 H   0  0  0  0  0  0
  -31.0416  -20.8171   22.7235 H   0  0  0  0  0  0
  -31.5478  -20.3870   24.3476 H   0  0  0  0  0  0
  -28.2315  -25.7434   18.3239 H   0  0  0  0  0  0
  -29.7103  -25.4966   19.2101 H   0  0  0  0  0  0
  -29.0244  -22.4117   21.8125 H   0  0  0  0  0  0
  -29.5494  -21.3926   20.4998 H   0  0  0  0  0  0
  -26.6396  -22.3246   20.9299 H   0  0  0  0  0  0
  -27.1546  -21.2948   19.6383 H   0  0  0  0  0  0
  -29.0111  -15.0559   19.5929 H   0  0  0  0  0  0
  -27.3592  -20.4151   22.1638 H   0  0  0  0  0  0
  1 25  1  0  0  0
  1 30  2  0  0  0
  1 83  1  0  0  0
  2  3  1  0  0  0
  2 25  1  0  0  0
  2 89  1  0  0  0
  2 90  1  0  0  0
  3  4  1  0  0  0
  3 91  1  0  0  0
  3 92  1  0  0  0
  4  5  1  0  0  0
  4 93  1  0  0  0
  4 94  1  0  0  0
  5  6  1  0  0  0
  5 26  1  0  0  0
  5 95  1  0  0  0
  6 25  1  0  0  0
  6 96  1  0  0  0
  6 97  1  0  0  0
  7  8  2  0  0  0
  7 26  1  0  0  0
  7 29  1  0  0  0
  8  9  1  0  0  0
  8 22  1  0  0  0
  9 10  1  0  0  0
  9 27  2  0  0  0
 10 11  2  0  0  0
 10 15  1  0  0  0
 11 12  1  0  0  0
 11 98  1  0  0  0
 12 13  2  0  0  0
 12 99  1  0  0  0
 13 14  1  0  0  0
 13 31  1  0  0  0
 14 15  2  0  0  0
 14100  1  0  0  0
 15101  1  0  0  0
 16 17  2  0  0  0
 16 21  1  0  0  0
 16 31  1  0  0  0
 17 18  1  0  0  0
 17102  1  0  0  0
 18 19  2  0  0  0
 18103  1  0  0  0
 19 20  1  0  0  0
 19 24  1  0  0  0
 20 21  2  0  0  0
 20104  1  0  0  0
 21 23  1  0  0  0
 22 28  1  0  0  0
 22 32  2  0  0  0
 26 27  1  0  0  0
 28105  1  0  0  0
 28106  1  0  0  0
 29107  1  0  0  0
 29108  1  0  0  0
 33 34  1  0  0  0
 33 66  1  0  0  0
 33 70  2  0  0  0
 34 36  1  0  0  0
 34 59  1  0  0  0
 34109  1  0  0  0
 35 44  2  0  0  0
 35 45  1  0  0  0
 35 68  1  0  0  0
 36 56  1  0  0  0
 36110  1  0  0  0
 37 39  1  0  0  0
 37 47  1  0  0  0
 37 66  1  0  0  0
 37111  1  0  0  0
 38 43  2  0  0  0
 38 46  1  0  0  0
 38 47  1  0  0  0
 39 64  1  0  0  0
 39 67  2  0  0  0
 40 52  1  0  0  0
 40 53  2  0  0  0
 40 58  1  0  0  0
 41112  1  0  0  0
 41113  1  0  0  0
 41114  1  0  0  0
 41 48  1  0  0  0
 42 43  1  0  0  0
 42 66  1  0  0  0
 42115  1  0  0  0
 42116  1  0  0  0
 43 44  1  0  0  0
 44117  1  0  0  0
 45 46  2  0  0  0
 45118  1  0  0  0
 46119  1  0  0  0
 47120  1  0  0  0
 47121  1  0  0  0
 48 56  1  0  0  0
 48 65  1  0  0  0
 48122  1  0  0  0
 49 50  1  0  0  0
 49 53  1  0  0  0
 49 64  1  0  0  0
 49123  1  0  0  0
 50 51  1  0  0  0
 50124  1  0  0  0
 50125  1  0  0  0
 51 52  1  0  0  0
 51126  1  0  0  0
 51127  1  0  0  0
 52128  1  0  0  0
 52129  1  0  0  0
 53 54  1  0  0  0
 54 55  2  0  0  0
 54130  1  0  0  0
 55 57  1  0  0  0
 55131  1  0  0  0
 56 69  2  0  0  0
 57 58  2  0  0  0
 57132  1  0  0  0
 58133  1  0  0  0
 59 60  1  0  0  0
 59 61  1  0  0  0
 59 62  1  0  0  0
 60134  1  0  0  0
 60135  1  0  0  0
 60136  1  0  0  0
 61137  1  0  0  0
 61138  1  0  0  0
 61139  1  0  0  0
 62140  1  0  0  0
 62141  1  0  0  0
 62142  1  0  0  0
 63 65  1  0  0  0
 63143  1  0  0  0
 63144  1  0  0  0
 63145  1  0  0  0
 64146  1  0  0  0
 65147  1  0  0  0
 68 80  1  0  0  0
 71 73  2  0  0  0
 71 75  1  0  0  0
 71148  1  0  0  0
 72 74  1  0  0  0
 72 76  2  0  0  0
 72149  1  0  0  0
 73 76  1  0  0  0
 73 83  1  0  0  0
 74 75  2  0  0  0
 74 84  1  0  0  0
 75 87  1  0  0  0
 76 88  1  0  0  0
 77 80  1  0  0  0
 77 85  1  0  0  0
 77 86  2  0  0  0
 78 85  1  0  0  0
 78150  1  0  0  0
 78151  1  0  0  0
 78152  1  0  0  0
 79 87  1  0  0  0
 79153  1  0  0  0
 79154  1  0  0  0
 79155  1  0  0  0
 80156  1  0  0  0
 80157  1  0  0  0
 81 82  1  0  0  0
 81 84  1  0  0  0
 81158  1  0  0  0
 81159  1  0  0  0
 82 85  1  0  0  0
 82160  1  0  0  0
 82161  1  0  0  0
 83162  1  0  0  0
 84163  1  0  0  0
M  ISO  4   1 100  68 101  80 101  83 100
M  END
> <chiral flag>
0

> <version>
0

> <s_m_source_file>
/data/baiqing/PycharmProjects/Reinvent-master-3.2/result/LINK_invent/BTK/process_docking_weight1_custom_sum_contain_oxygen_bond_distance_aromatic_linkinvent_7_9_3/rearranged_h_0005.sdf

> <i_m_source_file_index>
47

> <r_mmod_Potential_Energy-OPLS-2005>
41.7049331665039

> <r_mmod_Stretch_Energy-OPLS-2005>
33.813648223877

> <r_mmod_Bend_Energy-OPLS-2005>
124.192222595215

> <r_mmod_Torsional_Energy-OPLS-2005>
286.29150390625

> <r_mmod_Improper_Torsional_Energy-OPLS-2005>
25.6618576049805

> <r_mmod_Van_der_Waal_Energy-OPLS-2005>
177.980606079102

> <r_mmod_Electrostatic_Energy-OPLS-2005>
-377.838012695312

> <r_mmod_Solvation_Energy-OPLS-2005>
-251.277557373047

> <b_mmod_Minimization_Converged-OPLS-2005>
0

> <r_mmod_RMS_Derivative-OPLS-2005>
4.38646030426025

$$$$
47
                    3D
 Structure written by MMmdl.
176184  0  0  1  0            999 V2000
  -30.7594  -14.5299   20.4244 C   0  0  0  0  0  0
  -30.4251  -12.3390   19.3919 C   0  0  0  0  0  0
  -29.4845  -12.4965   18.1863 C   0  0  0  0  0  0
  -28.0328  -12.2702   18.6454 C   0  0  0  0  0  0
  -27.6605  -13.1642   19.8593 C   0  0  2  0  0  0
  -28.7330  -13.0747   20.9714 C   0  0  0  0  0  0
  -25.2721  -13.7983   20.5792 C   0  0  0  0  0  0
  -24.1878  -13.0317   20.9162 C   0  0  0  0  0  0
  -24.6393  -11.6787   20.8718 C   0  0  0  0  0  0
  -23.9010  -10.4223   21.0390 C   0  0  0  0  0  0
  -24.3576   -9.4165   21.9174 C   0  0  0  0  0  0
  -23.6258   -8.2199   22.0734 C   0  0  0  0  0  0
  -22.4245   -8.0255   21.3526 C   0  0  0  0  0  0
  -21.9866   -9.0212   20.4632 C   0  0  0  0  0  0
  -22.7180  -10.2102   20.3043 C   0  0  0  0  0  0
  -21.6809   -6.0728   22.5253 C   0  0  0  0  0  0
  -21.3993   -6.5627   23.8198 C   0  0  0  0  0  0
  -21.3663   -5.6794   24.9161 C   0  0  0  0  0  0
  -21.6058   -4.3057   24.7215 C   0  0  0  0  0  0
  -21.8818   -3.8152   23.4325 C   0  0  0  0  0  0
  -21.9193   -4.6965   22.3391 C   0  0  0  0  0  0
  -22.7934  -13.5177   21.1890 C   0  0  0  0  0  0
  -22.1662   -4.2138   21.0973 F   0  0  0  0  0  0
  -21.5651   -3.4542   25.7719 F   0  0  0  0  0  0
  -30.0251  -13.3841   20.3450 N   0  0  0  0  0  0
  -26.3087  -12.9056   20.3428 N   0  0  0  0  0  0
  -25.9320  -11.6271   20.5784 N   0  0  0  0  0  0
  -22.0633  -12.8100   22.0442 N   0  0  0  0  0  0
  -25.4582  -15.1659   20.4328 N   0  0  0  0  0  0
  -31.9883  -14.4782   20.3628 O   0  0  0  0  0  0
  -21.6608   -6.8862   21.4223 O   0  0  0  0  0  0
  -22.3589  -14.5514   20.6838 O   0  0  0  0  0  0
  -24.6114  -31.8706   23.2118 C   0  0  0  0  0  0
  -25.9025  -32.4837   23.8396 C   0  0  1  0  0  0
  -27.2402  -27.4643   20.0964 C   0  0  0  0  0  0
  -25.5900  -33.8634   24.2337 N   0  0  0  0  0  0
  -23.3943  -30.4928   21.5527 C   0  0  2  0  0  0
  -24.8403  -28.9583   20.1197 C   0  0  0  0  0  0
  -22.7375  -29.4679   22.5040 C   0  0  0  0  0  0
  -18.0257  -28.1374   22.8501 C   0  0  0  0  0  0
  -24.1493  -36.7323   23.2635 C   0  0  0  0  0  0
  -25.9177  -30.8464   21.3588 C   0  0  0  0  0  0
  -25.9952  -29.4802   20.7128 C   0  0  0  0  0  0
  -27.1928  -28.7385   20.6991 C   0  0  0  0  0  0
  -26.0669  -26.9502   19.4938 C   0  0  0  0  0  0
  -24.8693  -27.6913   19.5105 C   0  0  0  0  0  0
  -23.5979  -29.8177   20.1691 C   0  0  0  0  0  0
  -25.4113  -36.3126   24.0337 C   0  0  1  0  0  0
  -20.5838  -28.3653   23.1346 C   0  0  2  0  0  0
  -20.6756  -26.9398   22.5423 C   0  0  0  0  0  0
  -19.5734  -26.6383   21.5221 C   0  0  0  0  0  0
  -18.1901  -26.7933   22.1613 C   0  0  0  0  0  0
  -19.1503  -28.8833   23.2916 C   0  0  0  0  0  0
  -18.9438  -30.1450   23.8913 C   0  0  0  0  0  0
  -17.6440  -30.6589   24.0563 C   0  0  0  0  0  0
  -25.9030  -34.9485   23.5135 C   0  0  0  0  0  0
  -16.5331  -29.9089   23.6330 C   0  0  0  0  0  0
  -16.7249  -28.6502   23.0359 C   0  0  0  0  0  0
  -26.4467  -31.6603   25.0705 C   0  0  0  0  0  0
  -25.3745  -31.3682   26.1454 C   0  0  0  0  0  0
  -27.0301  -30.3053   24.6053 C   0  0  0  0  0  0
  -27.6048  -32.4309   25.7475 C   0  0  0  0  0  0
  -27.5600  -37.1805   24.8453 C   0  0  0  0  0  0
  -21.4107  -29.3041   22.3772 N   0  0  0  0  0  0
  -26.4303  -37.3803   23.9415 N   0  0  0  0  0  0
  -24.6583  -31.0836   22.1001 N   0  0  0  0  0  0
  -23.4171  -28.8224   23.3063 O   0  0  0  0  0  0
  -28.4583  -26.8247   20.0985 O   0  0  0  0  0  0
  -26.5586  -34.8931   22.4692 O   0  0  0  0  0  0
  -23.5319  -32.1449   23.7529 O   0  0  0  0  0  0
  -28.2456  -18.0299   16.8535 C   0  0  0  0  0  0
  -29.7206  -25.0469   19.0773 C   0  0  0  0  0  0
  -30.2890  -17.7466   18.4340 C   0  0  0  0  0  0
  -28.0930  -16.8410   19.1611 C   0  0  0  0  0  0
  -31.0575  -16.6406   19.1975 C   0  0  0  0  0  0
  -28.9282  -16.3167   20.3694 C   0  0  0  0  0  0
  -28.9563  -17.1770   17.9250 C   0  0  0  0  0  0
  -28.5486  -25.4036   19.9992 C   0  0  0  0  0  0
  -27.9274  -21.7139   15.7057 C   0  0  0  0  0  0
  -26.6127  -21.0049   16.0860 C   0  0  0  0  0  0
  -28.7374  -22.0792   16.9507 C   0  0  0  0  0  0
  -26.2520  -19.8266   15.1628 C   0  0  0  0  0  0
  -30.0003  -22.9006   16.6466 C   0  0  0  0  0  0
  -25.9248  -18.5155   15.9100 C   0  0  0  0  0  0
  -30.8428  -23.1671   17.9090 C   0  0  0  0  0  0
  -30.1878  -15.6794   19.9394 N   0  0  0  0  0  0
  -26.9030  -18.0693   16.9108 N   0  0  0  0  0  0
  -30.0174  -23.7497   18.9631 N   0  0  0  0  0  0
  -28.9058  -18.5591   15.9586 O   0  0  0  0  0  0
  -30.3184  -25.9211   18.4405 O   0  0  0  0  0  0
  -31.4636  -12.4217   19.0743 H   0  0  0  0  0  0
  -30.3294  -11.3456   19.8319 H   0  0  0  0  0  0
  -29.7582  -11.7978   17.3931 H   0  0  0  0  0  0
  -29.5796  -13.5015   17.7694 H   0  0  0  0  0  0
  -27.9425  -11.2192   18.9245 H   0  0  0  0  0  0
  -27.3412  -12.4345   17.8194 H   0  0  0  0  0  0
  -27.6613  -14.1665   19.4609 H   0  0  0  0  0  0
  -28.7693  -12.0689   21.3921 H   0  0  0  0  0  0
  -28.5151  -13.7292   21.8152 H   0  0  0  0  0  0
  -25.2751   -9.5633   22.4711 H   0  0  0  0  0  0
  -23.9996   -7.4575   22.7417 H   0  0  0  0  0  0
  -21.0824   -8.8701   19.8916 H   0  0  0  0  0  0
  -22.3654  -10.9626   19.6117 H   0  0  0  0  0  0
  -21.1955   -7.6136   23.9674 H   0  0  0  0  0  0
  -21.1496   -6.0537   25.9048 H   0  0  0  0  0  0
  -22.0612   -2.7617   23.2829 H   0  0  0  0  0  0
  -22.4221  -11.9634   22.4607 H   0  0  0  0  0  0
  -21.1322  -13.1151   22.2841 H   0  0  0  0  0  0
  -24.7221  -15.8484   20.5665 H   0  0  0  0  0  0
  -26.3565  -15.5831   20.2286 H   0  0  0  0  0  0
  -26.7094  -32.5554   23.1166 H   0  0  0  0  0  0
  -25.0097  -33.9800   25.0512 H   0  0  0  0  0  0
  -22.6827  -31.3084   21.4123 H   0  0  0  0  0  0
  -23.3767  -35.9641   23.3266 H   0  0  0  0  0  0
  -24.3598  -36.8966   22.2056 H   0  0  0  0  0  0
  -23.7226  -37.6508   23.6664 H   0  0  0  0  0  0
  -26.0223  -31.6098   20.5869 H   0  0  0  0  0  0
  -26.8099  -30.9036   21.9705 H   0  0  0  0  0  0
  -28.0879  -29.1440   21.1492 H   0  0  0  0  0  0
  -26.0509  -26.0022   18.9799 H   0  0  0  0  0  0
  -23.9815  -27.2885   19.0419 H   0  0  0  0  0  0
  -23.6928  -30.5856   19.4009 H   0  0  0  0  0  0
  -22.7255  -29.2257   19.8852 H   0  0  0  0  0  0
  -25.1294  -36.1987   25.0828 H   0  0  0  0  0  0
  -20.9933  -28.3205   24.1466 H   0  0  0  0  0  0
  -20.5676  -26.2260   23.3603 H   0  0  0  0  0  0
  -21.6626  -26.7459   22.1198 H   0  0  0  0  0  0
  -19.6888  -25.6292   21.1250 H   0  0  0  0  0  0
  -19.6686  -27.3204   20.6756 H   0  0  0  0  0  0
  -17.4194  -26.6730   21.3982 H   0  0  0  0  0  0
  -18.0256  -26.0048   22.8972 H   0  0  0  0  0  0
  -19.7917  -30.7266   24.2282 H   0  0  0  0  0  0
  -17.4995  -31.6280   24.5132 H   0  0  0  0  0  0
  -15.5333  -30.2993   23.7646 H   0  0  0  0  0  0
  -15.8649  -28.0827   22.7072 H   0  0  0  0  0  0
  -24.5926  -30.7023   25.7787 H   0  0  0  0  0  0
  -24.8925  -32.2824   26.4922 H   0  0  0  0  0  0
  -25.8102  -30.8836   27.0201 H   0  0  0  0  0  0
  -26.2831  -29.6801   24.1142 H   0  0  0  0  0  0
  -27.4135  -29.7292   25.4491 H   0  0  0  0  0  0
  -27.8636  -30.4390   23.9151 H   0  0  0  0  0  0
  -27.2676  -33.3602   26.2082 H   0  0  0  0  0  0
  -28.3850  -32.6877   25.0298 H   0  0  0  0  0  0
  -28.0724  -31.8409   26.5370 H   0  0  0  0  0  0
  -28.2578  -38.0143   24.7567 H   0  0  0  0  0  0
  -28.1139  -36.2678   24.6194 H   0  0  0  0  0  0
  -27.2322  -37.1351   25.8852 H   0  0  0  0  0  0
  -20.9260  -29.8780   21.7013 H   0  0  0  0  0  0
  -26.0196  -38.2879   24.1420 H   0  0  0  0  0  0
  -30.9090  -18.1491   17.6290 H   0  0  0  0  0  0
  -30.0930  -18.5862   19.1037 H   0  0  0  0  0  0
  -27.5334  -17.7205   19.4877 H   0  0  0  0  0  0
  -27.3398  -16.1270   18.8379 H   0  0  0  0  0  0
  -31.7913  -17.0935   19.8686 H   0  0  0  0  0  0
  -31.6403  -16.0852   18.4601 H   0  0  0  0  0  0
  -28.3130  -15.7076   21.0239 H   0  0  0  0  0  0
  -29.2081  -17.1708   20.9905 H   0  0  0  0  0  0
  -29.1840  -16.2385   17.4132 H   0  0  0  0  0  0
  -28.7366  -25.0004   20.9950 H   0  0  0  0  0  0
  -27.6576  -24.9020   19.6287 H   0  0  0  0  0  0
  -27.7130  -22.6029   15.1116 H   0  0  0  0  0  0
  -28.5534  -21.0789   15.0789 H   0  0  0  0  0  0
  -25.7980  -21.7321   16.1098 H   0  0  0  0  0  0
  -26.6839  -20.6453   17.1123 H   0  0  0  0  0  0
  -29.0244  -21.1630   17.4685 H   0  0  0  0  0  0
  -28.0898  -22.6240   17.6353 H   0  0  0  0  0  0
  -27.0458  -19.6336   14.4416 H   0  0  0  0  0  0
  -25.3910  -20.1054   14.5562 H   0  0  0  0  0  0
  -29.7149  -23.8485   16.1859 H   0  0  0  0  0  0
  -30.6151  -22.3802   15.9116 H   0  0  0  0  0  0
  -25.7729  -17.7076   15.1928 H   0  0  0  0  0  0
  -24.9728  -18.6412   16.4291 H   0  0  0  0  0  0
  -31.6954  -23.8081   17.6727 H   0  0  0  0  0  0
  -31.2582  -22.2286   18.2773 H   0  0  0  0  0  0
  -26.5034  -17.5860   17.7056 H   0  0  0  0  0  0
  -29.4902  -23.1045   19.5378 H   0  0  0  0  0  0
  1 25  1  0  0  0
  1 30  2  0  0  0
  1 86  1  0  0  0
  2  3  1  0  0  0
  2 25  1  0  0  0
  2 91  1  0  0  0
  2 92  1  0  0  0
  3  4  1  0  0  0
  3 93  1  0  0  0
  3 94  1  0  0  0
  4  5  1  0  0  0
  4 95  1  0  0  0
  4 96  1  0  0  0
  5  6  1  0  0  0
  5 26  1  0  0  0
  5 97  1  0  0  0
  6 25  1  0  0  0
  6 98  1  0  0  0
  6 99  1  0  0  0
  7  8  2  0  0  0
  7 26  1  0  0  0
  7 29  1  0  0  0
  8  9  1  0  0  0
  8 22  1  0  0  0
  9 10  1  0  0  0
  9 27  2  0  0  0
 10 11  2  0  0  0
 10 15  1  0  0  0
 11 12  1  0  0  0
 11100  1  0  0  0
 12 13  2  0  0  0
 12101  1  0  0  0
 13 14  1  0  0  0
 13 31  1  0  0  0
 14 15  2  0  0  0
 14102  1  0  0  0
 15103  1  0  0  0
 16 17  2  0  0  0
 16 21  1  0  0  0
 16 31  1  0  0  0
 17 18  1  0  0  0
 17104  1  0  0  0
 18 19  2  0  0  0
 18105  1  0  0  0
 19 20  1  0  0  0
 19 24  1  0  0  0
 20 21  2  0  0  0
 20106  1  0  0  0
 21 23  1  0  0  0
 22 28  1  0  0  0
 22 32  2  0  0  0
 26 27  1  0  0  0
 28107  1  0  0  0
 28108  1  0  0  0
 29109  1  0  0  0
 29110  1  0  0  0
 33 34  1  0  0  0
 33 66  1  0  0  0
 33 70  2  0  0  0
 34 36  1  0  0  0
 34 59  1  0  0  0
 34111  1  0  0  0
 35 44  2  0  0  0
 35 45  1  0  0  0
 35 68  1  0  0  0
 36 56  1  0  0  0
 36112  1  0  0  0
 37 39  1  0  0  0
 37 47  1  0  0  0
 37 66  1  0  0  0
 37113  1  0  0  0
 38 43  2  0  0  0
 38 46  1  0  0  0
 38 47  1  0  0  0
 39 64  1  0  0  0
 39 67  2  0  0  0
 40 52  1  0  0  0
 40 53  2  0  0  0
 40 58  1  0  0  0
 41114  1  0  0  0
 41115  1  0  0  0
 41116  1  0  0  0
 41 48  1  0  0  0
 42 43  1  0  0  0
 42 66  1  0  0  0
 42117  1  0  0  0
 42118  1  0  0  0
 43 44  1  0  0  0
 44119  1  0  0  0
 45 46  2  0  0  0
 45120  1  0  0  0
 46121  1  0  0  0
 47122  1  0  0  0
 47123  1  0  0  0
 48 56  1  0  0  0
 48 65  1  0  0  0
 48124  1  0  0  0
 49 50  1  0  0  0
 49 53  1  0  0  0
 49 64  1  0  0  0
 49125  1  0  0  0
 50 51  1  0  0  0
 50126  1  0  0  0
 50127  1  0  0  0
 51 52  1  0  0  0
 51128  1  0  0  0
 51129  1  0  0  0
 52130  1  0  0  0
 52131  1  0  0  0
 53 54  1  0  0  0
 54 55  2  0  0  0
 54132  1  0  0  0
 55 57  1  0  0  0
 55133  1  0  0  0
 56 69  2  0  0  0
 57 58  2  0  0  0
 57134  1  0  0  0
 58135  1  0  0  0
 59 60  1  0  0  0
 59 61  1  0  0  0
 59 62  1  0  0  0
 60136  1  0  0  0
 60137  1  0  0  0
 60138  1  0  0  0
 61139  1  0  0  0
 61140  1  0  0  0
 61141  1  0  0  0
 62142  1  0  0  0
 62143  1  0  0  0
 62144  1  0  0  0
 63 65  1  0  0  0
 63145  1  0  0  0
 63146  1  0  0  0
 63147  1  0  0  0
 64148  1  0  0  0
 65149  1  0  0  0
 68 78  1  0  0  0
 71 87  1  0  0  0
 71 89  2  0  0  0
 71 77  1  0  0  0
 72 78  1  0  0  0
 72 88  1  0  0  0
 72 90  2  0  0  0
 73 75  1  0  0  0
 73 77  1  0  0  0
 73150  1  0  0  0
 73151  1  0  0  0
 74 76  1  0  0  0
 74 77  1  0  0  0
 74152  1  0  0  0
 74153  1  0  0  0
 75 86  1  0  0  0
 75154  1  0  0  0
 75155  1  0  0  0
 76 86  1  0  0  0
 76156  1  0  0  0
 76157  1  0  0  0
 77158  1  0  0  0
 78159  1  0  0  0
 78160  1  0  0  0
 79 80  1  0  0  0
 79 81  1  0  0  0
 79161  1  0  0  0
 79162  1  0  0  0
 80 82  1  0  0  0
 80163  1  0  0  0
 80164  1  0  0  0
 81 83  1  0  0  0
 81165  1  0  0  0
 81166  1  0  0  0
 82 84  1  0  0  0
 82167  1  0  0  0
 82168  1  0  0  0
 83 85  1  0  0  0
 83169  1  0  0  0
 83170  1  0  0  0
 84 87  1  0  0  0
 84171  1  0  0  0
 84172  1  0  0  0
 85 88  1  0  0  0
 85173  1  0  0  0
 85174  1  0  0  0
 87175  1  0  0  0
 88176  1  0  0  0
M  ISO  4   1 100  68 101  78 101  86 100
M  END
> <chiral flag>
0

> <version>
0

> <s_m_source_file>
/data/baiqing/PycharmProjects/Reinvent-master-3.2/result/LINK_invent/BTK/process_docking_weight1_custom_sum_contain_oxygen_bond_distance_aromatic_linkinvent_7_9_3/rearranged_h_0005.sdf

> <i_m_source_file_index>
48

> <r_mmod_Potential_Energy-OPLS-2005>
176.863189697266

> <r_mmod_Stretch_Energy-OPLS-2005>
39.7580451965332

> <r_mmod_Bend_Energy-OPLS-2005>
142.241714477539

> <r_mmod_Torsional_Energy-OPLS-2005>
358.5986328125

> <r_mmod_Improper_Torsional_Energy-OPLS-2005>
24.7263584136963

> <r_mmod_Van_der_Waal_Energy-OPLS-2005>
159.152496337891

> <r_mmod_Electrostatic_Energy-OPLS-2005>
-327.051971435547

> <r_mmod_Solvation_Energy-OPLS-2005>
-264.294036865234

> <b_mmod_Minimization_Converged-OPLS-2005>
0

> <r_mmod_RMS_Derivative-OPLS-2005>
4.41850185394287

$$$$
48
                    3D
 Structure written by MMmdl.
169177  0  0  1  0            999 V2000
  -30.7680  -14.3394   20.7427 C   0  0  0  0  0  0
  -30.4547  -12.3456   19.2905 C   0  0  0  0  0  0
  -29.4548  -12.5892   18.1329 C   0  0  0  0  0  0
  -27.9587  -12.5075   18.5649 C   0  0  0  0  0  0
  -27.6989  -13.3729   19.8378 C   0  0  2  0  0  0
  -28.7353  -12.8384   20.8697 C   0  0  0  0  0  0
  -25.3038  -14.5620   20.8367 C   0  0  0  0  0  0
  -24.2453  -13.4448   20.7943 C   0  0  0  0  0  0
  -24.6757  -12.0404   20.7976 C   0  0  0  0  0  0
  -23.9679  -10.6523   20.9672 C   0  0  0  0  0  0
  -24.4077   -9.6206   21.8604 C   0  0  0  0  0  0
  -23.6976   -8.3903   22.0520 C   0  0  0  0  0  0
  -22.4943   -8.1278   21.3506 C   0  0  0  0  0  0
  -22.0606   -9.1159   20.4449 C   0  0  0  0  0  0
  -22.7792  -10.3256   20.2534 C   0  0  0  0  0  0
  -21.7393   -6.1241   22.5235 C   0  0  0  0  0  0
  -21.4463   -6.5978   23.8212 C   0  0  0  0  0  0
  -21.3807   -5.7001   24.9088 C   0  0  0  0  0  0
  -21.6025   -4.3247   24.7079 C   0  0  0  0  0  0
  -21.8759   -3.8439   23.4157 C   0  0  0  0  0  0
  -21.9352   -4.7365   22.3291 C   0  0  0  0  0  0
  -22.7222  -13.5288   20.9104 C   0  0  0  0  0  0
  -22.1713   -4.2502   21.0861 F   0  0  0  0  0  0
  -21.5492   -3.4655   25.7532 F   0  0  0  0  0  0
  -30.0836  -13.2064   20.4175 N   0  0  0  0  0  0
  -26.2712  -13.4413   20.3342 N   0  0  0  0  0  0
  -25.9267  -12.1014   20.5183 N   0  0  0  0  0  0
  -22.0933  -12.8343   21.8666 N   0  0  0  0  0  0
  -25.6458  -16.7195   22.2701 N   0  0  0  0  0  0
  -31.7788  -14.7199   20.1426 O   0  0  0  0  0  0
  -21.7452   -6.9612   21.4254 O   0  0  0  0  0  0
  -22.1130  -14.3837   20.2872 O   0  0  0  0  0  0
  -24.6849  -31.8087   23.1616 C   0  0  0  0  0  0
  -25.9485  -32.4504   23.8086 C   0  0  1  0  0  0
  -26.8709  -26.6456   20.1696 C   0  0  0  0  0  0
  -25.6078  -33.8341   24.1957 N   0  0  0  0  0  0
  -23.4860  -30.4451   21.5255 C   0  0  2  0  0  0
  -24.8696  -28.8200   20.0784 C   0  0  0  0  0  0
  -22.7713  -29.4412   22.4707 C   0  0  0  0  0  0
  -18.0329  -28.1435   22.8442 C   0  0  0  0  0  0
  -24.1504  -36.7235   23.2626 C   0  0  0  0  0  0
  -26.0702  -30.5096   21.4295 C   0  0  0  0  0  0
  -26.0647  -29.0883   20.7546 C   0  0  0  0  0  0
  -27.0886  -28.0115   20.7776 C   0  0  0  0  0  0
  -25.7383  -26.6359   19.3618 C   0  0  0  0  0  0
  -24.7546  -27.6377   19.3459 C   0  0  0  0  0  0
  -23.7102  -29.8062   20.1334 C   0  0  0  0  0  0
  -25.4149  -36.2939   24.0246 C   0  0  1  0  0  0
  -20.5956  -28.3802   23.1142 C   0  0  2  0  0  0
  -20.6820  -26.9479   22.5379 C   0  0  0  0  0  0
  -19.5786  -26.6382   21.5212 C   0  0  0  0  0  0
  -18.1967  -26.7960   22.1607 C   0  0  0  0  0  0
  -19.1590  -28.8934   23.2779 C   0  0  0  0  0  0
  -18.9488  -30.1515   23.8829 C   0  0  0  0  0  0
  -17.6473  -30.6603   24.0558 C   0  0  0  0  0  0
  -25.9130  -34.9327   23.4917 C   0  0  0  0  0  0
  -16.5370  -29.9087   23.6346 C   0  0  0  0  0  0
  -16.7303  -28.6523   23.0341 C   0  0  0  0  0  0
  -26.4613  -31.6571   25.0739 C   0  0  0  0  0  0
  -25.3625  -31.3982   26.1320 C   0  0  0  0  0  0
  -27.0538  -30.2905   24.6694 C   0  0  0  0  0  0
  -27.6063  -32.4434   25.7543 C   0  0  0  0  0  0
  -27.5591  -37.1771   24.8427 C   0  0  0  0  0  0
  -21.4374  -29.3087   22.3499 N   0  0  0  0  0  0
  -26.4279  -37.3698   23.9391 N   0  0  0  0  0  0
  -24.7754  -30.9535   22.0894 N   0  0  0  0  0  0
  -23.4240  -28.7921   23.2930 O   0  0  0  0  0  0
  -27.5152  -25.2697   20.2165 O   0  0  0  0  0  0
  -26.5726  -34.8897   22.4518 O   0  0  0  0  0  0
  -23.5899  -32.1223   23.6591 O   0  0  0  0  0  0
  -27.2043  -15.9593   20.8504 C   0  0  0  0  0  0
  -23.7414  -15.5548   22.2712 C   0  0  0  0  0  0
  -26.9492  -14.9066   22.4523 C   0  0  0  0  0  0
  -25.7938  -16.9078   20.0353 C   0  0  0  0  0  0
  -24.0544  -16.5585   20.6775 C   0  0  0  0  0  0
  -25.1851  -14.6869   23.1390 C   0  0  0  0  0  0
  -27.9853  -13.7068   24.3251 C   0  0  0  0  0  0
  -21.9999  -17.6447   21.1311 C   0  0  0  0  0  0
  -29.4342  -16.9375   23.0915 C   0  0  0  0  0  0
  -26.8549  -21.8278   19.8016 C   0  0  0  0  0  0
  -30.6709  -16.2305   22.4728 C   0  0  0  0  0  0
  -28.4494  -16.0831   23.9341 C   0  0  0  0  0  0
  -26.7355  -23.6865   20.3316 C   0  0  0  0  0  0
  -26.1942  -20.0522   20.2332 C   0  0  0  0  0  0
  -30.2751  -14.9918   21.8055 N   0  0  0  0  0  0
  -28.0314  -14.7943   23.3543 N   0  0  0  0  0  0
  -23.0518  -17.3753   20.2055 O   0  0  0  0  0  0
  -26.1676  -18.4170   19.6039 O   0  0  0  0  0  0
  -24.8582  -13.8331   24.6091 Cl  0  0  0  0  0  0
  -31.4754  -12.5513   18.9475 H   0  0  0  0  0  0
  -30.4563  -11.3001   19.5946 H   0  0  0  0  0  0
  -29.6546  -11.9026   17.3083 H   0  0  0  0  0  0
  -29.6429  -13.5882   17.7339 H   0  0  0  0  0  0
  -27.6853  -11.4656   18.7213 H   0  0  0  0  0  0
  -27.3340  -12.8597   17.7398 H   0  0  0  0  0  0
  -28.0000  -14.3379   19.4462 H   0  0  0  0  0  0
  -28.6667  -11.7485   20.8889 H   0  0  0  0  0  0
  -28.5671  -13.0465   21.9041 H   0  0  0  0  0  0
  -25.3111   -9.7988   22.4264 H   0  0  0  0  0  0
  -24.0913   -7.6621   22.7462 H   0  0  0  0  0  0
  -21.1556   -8.9501   19.8768 H   0  0  0  0  0  0
  -22.3832  -11.0390   19.5456 H   0  0  0  0  0  0
  -21.2701   -7.6510   23.9856 H   0  0  0  0  0  0
  -21.1606   -6.0683   25.9004 H   0  0  0  0  0  0
  -22.0329   -2.7889   23.2539 H   0  0  0  0  0  0
  -22.5744  -12.1731   22.4624 H   0  0  0  0  0  0
  -21.0976  -12.9517   21.9793 H   0  0  0  0  0  0
  -24.8358  -17.2872   22.4970 H   0  0  0  0  0  0
  -26.5033  -17.2496   22.1950 H   0  0  0  0  0  0
  -26.7533  -32.4892   23.0743 H   0  0  0  0  0  0
  -25.0236  -33.9399   25.0116 H   0  0  0  0  0  0
  -22.8116  -31.2916   21.3775 H   0  0  0  0  0  0
  -23.3776  -35.9552   23.3173 H   0  0  0  0  0  0
  -24.3579  -36.9038   22.2066 H   0  0  0  0  0  0
  -23.7242  -37.6374   23.6783 H   0  0  0  0  0  0
  -26.3086  -31.2357   20.6502 H   0  0  0  0  0  0
  -26.9168  -30.5252   22.1013 H   0  0  0  0  0  0
  -27.9898  -28.1727   21.3509 H   0  0  0  0  0  0
  -25.5358  -25.7514   18.7757 H   0  0  0  0  0  0
  -23.8619  -27.4618   18.7592 H   0  0  0  0  0  0
  -23.9247  -30.5931   19.4105 H   0  0  0  0  0  0
  -22.7943  -29.3278   19.7812 H   0  0  0  0  0  0
  -25.1346  -36.1702   25.0729 H   0  0  0  0  0  0
  -21.0026  -28.3421   24.1264 H   0  0  0  0  0  0
  -20.5742  -26.2426   23.3639 H   0  0  0  0  0  0
  -21.6682  -26.7481   22.1162 H   0  0  0  0  0  0
  -19.6954  -25.6272   21.1307 H   0  0  0  0  0  0
  -19.6713  -27.3133   20.6702 H   0  0  0  0  0  0
  -17.4244  -26.6696   21.4004 H   0  0  0  0  0  0
  -18.0351  -26.0130   22.9030 H   0  0  0  0  0  0
  -19.7957  -30.7363   24.2173 H   0  0  0  0  0  0
  -17.5012  -31.6256   24.5208 H   0  0  0  0  0  0
  -15.5366  -30.2952   23.7716 H   0  0  0  0  0  0
  -15.8711  -28.0818   22.7071 H   0  0  0  0  0  0
  -24.5774  -30.7380   25.7613 H   0  0  0  0  0  0
  -24.8842  -32.3258   26.4491 H   0  0  0  0  0  0
  -25.7695  -30.9284   27.0277 H   0  0  0  0  0  0
  -26.3232  -29.6478   24.1761 H   0  0  0  0  0  0
  -27.4034  -29.7420   25.5454 H   0  0  0  0  0  0
  -27.9212  -30.4057   24.0184 H   0  0  0  0  0  0
  -27.2633  -33.3844   26.1870 H   0  0  0  0  0  0
  -28.3990  -32.6825   25.0438 H   0  0  0  0  0  0
  -28.0597  -31.8730   26.5664 H   0  0  0  0  0  0
  -28.2495  -38.0176   24.7558 H   0  0  0  0  0  0
  -28.1194  -36.2694   24.6121 H   0  0  0  0  0  0
  -27.2321  -37.1265   25.8829 H   0  0  0  0  0  0
  -20.9655  -29.8859   21.6685 H   0  0  0  0  0  0
  -26.0112  -38.2755   24.1383 H   0  0  0  0  0  0
  -28.2040  -16.2756   20.6092 H   0  0  0  0  0  0
  -22.7604  -15.5168   22.7260 H   0  0  0  0  0  0
  -27.5696  -14.0418   25.2761 H   0  0  0  0  0  0
  -29.0016  -13.3603   24.5313 H   0  0  0  0  0  0
  -27.4095  -12.8510   23.9737 H   0  0  0  0  0  0
  -21.4507  -18.5334   20.8169 H   0  0  0  0  0  0
  -22.3654  -17.8570   22.1383 H   0  0  0  0  0  0
  -21.2885  -16.8195   21.1940 H   0  0  0  0  0  0
  -28.8842  -17.4705   22.3155 H   0  0  0  0  0  0
  -29.7902  -17.7376   23.7455 H   0  0  0  0  0  0
  -27.9317  -21.6684   19.7871 H   0  0  0  0  0  0
  -26.5975  -21.9091   18.7472 H   0  0  0  0  0  0
  -31.1774  -16.9103   21.7821 H   0  0  0  0  0  0
  -31.3871  -16.0042   23.2683 H   0  0  0  0  0  0
  -27.5533  -16.6819   24.1135 H   0  0  0  0  0  0
  -28.8715  -15.9276   24.9264 H   0  0  0  0  0  0
  -26.6813  -23.5980   21.4176 H   0  0  0  0  0  0
  -25.7019  -23.9190   20.0715 H   0  0  0  0  0  0
  -25.1335  -20.2165   20.4372 H   0  0  0  0  0  0
  -26.6256  -19.8921   21.2192 H   0  0  0  0  0  0
  -29.4379  -14.5957   22.2246 H   0  0  0  0  0  0
  1 25  1  0  0  0
  1 30  2  0  0  0
  1 85  1  0  0  0
  2  3  1  0  0  0
  2 25  1  0  0  0
  2 90  1  0  0  0
  2 91  1  0  0  0
  3  4  1  0  0  0
  3 92  1  0  0  0
  3 93  1  0  0  0
  4  5  1  0  0  0
  4 94  1  0  0  0
  4 95  1  0  0  0
  5  6  1  0  0  0
  5 26  1  0  0  0
  5 96  1  0  0  0
  6 25  1  0  0  0
  6 97  1  0  0  0
  6 98  1  0  0  0
  7  8  2  0  0  0
  7 26  1  0  0  0
  7 29  1  0  0  0
  8  9  1  0  0  0
  8 22  1  0  0  0
  9 10  1  0  0  0
  9 27  2  0  0  0
 10 11  2  0  0  0
 10 15  1  0  0  0
 11 12  1  0  0  0
 11 99  1  0  0  0
 12 13  2  0  0  0
 12100  1  0  0  0
 13 14  1  0  0  0
 13 31  1  0  0  0
 14 15  2  0  0  0
 14101  1  0  0  0
 15102  1  0  0  0
 16 17  2  0  0  0
 16 21  1  0  0  0
 16 31  1  0  0  0
 17 18  1  0  0  0
 17103  1  0  0  0
 18 19  2  0  0  0
 18104  1  0  0  0
 19 20  1  0  0  0
 19 24  1  0  0  0
 20 21  2  0  0  0
 20105  1  0  0  0
 21 23  1  0  0  0
 22 28  1  0  0  0
 22 32  2  0  0  0
 26 27  1  0  0  0
 28106  1  0  0  0
 28107  1  0  0  0
 29108  1  0  0  0
 29109  1  0  0  0
 33 34  1  0  0  0
 33 66  1  0  0  0
 33 70  2  0  0  0
 34 36  1  0  0  0
 34 59  1  0  0  0
 34110  1  0  0  0
 35 44  2  0  0  0
 35 45  1  0  0  0
 35 68  1  0  0  0
 36 56  1  0  0  0
 36111  1  0  0  0
 37 39  1  0  0  0
 37 47  1  0  0  0
 37 66  1  0  0  0
 37112  1  0  0  0
 38 43  2  0  0  0
 38 46  1  0  0  0
 38 47  1  0  0  0
 39 64  1  0  0  0
 39 67  2  0  0  0
 40 52  1  0  0  0
 40 53  2  0  0  0
 40 58  1  0  0  0
 41113  1  0  0  0
 41114  1  0  0  0
 41115  1  0  0  0
 41 48  1  0  0  0
 42 43  1  0  0  0
 42 66  1  0  0  0
 42116  1  0  0  0
 42117  1  0  0  0
 43 44  1  0  0  0
 44118  1  0  0  0
 45 46  2  0  0  0
 45119  1  0  0  0
 46120  1  0  0  0
 47121  1  0  0  0
 47122  1  0  0  0
 48 56  1  0  0  0
 48 65  1  0  0  0
 48123  1  0  0  0
 49 50  1  0  0  0
 49 53  1  0  0  0
 49 64  1  0  0  0
 49124  1  0  0  0
 50 51  1  0  0  0
 50125  1  0  0  0
 50126  1  0  0  0
 51 52  1  0  0  0
 51127  1  0  0  0
 51128  1  0  0  0
 52129  1  0  0  0
 52130  1  0  0  0
 53 54  1  0  0  0
 54 55  2  0  0  0
 54131  1  0  0  0
 55 57  1  0  0  0
 55132  1  0  0  0
 56 69  2  0  0  0
 57 58  2  0  0  0
 57133  1  0  0  0
 58134  1  0  0  0
 59 60  1  0  0  0
 59 61  1  0  0  0
 59 62  1  0  0  0
 60135  1  0  0  0
 60136  1  0  0  0
 60137  1  0  0  0
 61138  1  0  0  0
 61139  1  0  0  0
 61140  1  0  0  0
 62141  1  0  0  0
 62142  1  0  0  0
 62143  1  0  0  0
 63 65  1  0  0  0
 63144  1  0  0  0
 63145  1  0  0  0
 63146  1  0  0  0
 64147  1  0  0  0
 65148  1  0  0  0
 68 83  1  0  0  0
 71 73  2  0  0  0
 71 74  1  0  0  0
 71149  1  0  0  0
 72 75  1  0  0  0
 72 76  2  0  0  0
 72150  1  0  0  0
 73 76  1  0  0  0
 73 86  1  0  0  0
 74 75  2  0  0  0
 74 88  1  0  0  0
 75 87  1  0  0  0
 76 89  1  0  0  0
 77 86  1  0  0  0
 77151  1  0  0  0
 77152  1  0  0  0
 77153  1  0  0  0
 78 87  1  0  0  0
 78154  1  0  0  0
 78155  1  0  0  0
 78156  1  0  0  0
 79 81  1  0  0  0
 79 82  1  0  0  0
 79157  1  0  0  0
 79158  1  0  0  0
 80 83  1  0  0  0
 80 84  1  0  0  0
 80159  1  0  0  0
 80160  1  0  0  0
 81 85  1  0  0  0
 81161  1  0  0  0
 81162  1  0  0  0
 82 86  1  0  0  0
 82163  1  0  0  0
 82164  1  0  0  0
 83165  1  0  0  0
 83166  1  0  0  0
 84 88  1  0  0  0
 84167  1  0  0  0
 84168  1  0  0  0
 85169  1  0  0  0
M  ISO  4   1 100  68 101  83 101  85 100
M  END
> <chiral flag>
0

> <version>
0

> <s_m_source_file>
/data/baiqing/PycharmProjects/Reinvent-master-3.2/result/LINK_invent/BTK/process_docking_weight1_custom_sum_contain_oxygen_bond_distance_aromatic_linkinvent_7_9_3/rearranged_h_0005.sdf

> <i_m_source_file_index>
49

> <r_mmod_Potential_Energy-OPLS-2005>
11431.7099609375

> <r_mmod_Stretch_Energy-OPLS-2005>
6719.81005859375

> <r_mmod_Bend_Energy-OPLS-2005>
729.71240234375

> <r_mmod_Torsional_Energy-OPLS-2005>
442.377655029297

> <r_mmod_Improper_Torsional_Energy-OPLS-2005>
51.029712677002

> <r_mmod_Van_der_Waal_Energy-OPLS-2005>
2766.26928710938

> <r_mmod_Electrostatic_Energy-OPLS-2005>
-394.749206542969

> <r_mmod_Solvation_Energy-OPLS-2005>
-206.794570922852

> <b_mmod_Minimization_Converged-OPLS-2005>
0

> <r_mmod_RMS_Derivative-OPLS-2005>
11.3594427108765

$$$$
49
                    3D
 Structure written by MMmdl.
170178  0  0  1  0            999 V2000
  -30.7313  -14.4294   20.5890 C   0  0  0  0  0  0
  -30.4197  -12.2879   19.4005 C   0  0  0  0  0  0
  -29.4880  -12.4689   18.1871 C   0  0  0  0  0  0
  -28.0049  -12.3551   18.6004 C   0  0  0  0  0  0
  -27.6539  -13.1934   19.8570 C   0  0  2  0  0  0
  -28.7004  -12.9870   20.9755 C   0  0  0  0  0  0
  -25.2572  -13.8122   20.5672 C   0  0  0  0  0  0
  -24.1810  -13.0415   20.9149 C   0  0  0  0  0  0
  -24.6347  -11.6882   20.8696 C   0  0  0  0  0  0
  -23.9015  -10.4283   21.0372 C   0  0  0  0  0  0
  -24.3571   -9.4221   21.9155 C   0  0  0  0  0  0
  -23.6269   -8.2249   22.0742 C   0  0  0  0  0  0
  -22.4250   -8.0263   21.3534 C   0  0  0  0  0  0
  -21.9862   -9.0237   20.4640 C   0  0  0  0  0  0
  -22.7175  -10.2127   20.3042 C   0  0  0  0  0  0
  -21.6852   -6.0739   22.5275 C   0  0  0  0  0  0
  -21.4041   -6.5640   23.8218 C   0  0  0  0  0  0
  -21.3650   -5.6777   24.9162 C   0  0  0  0  0  0
  -21.6048   -4.3053   24.7208 C   0  0  0  0  0  0
  -21.8808   -3.8143   23.4326 C   0  0  0  0  0  0
  -21.9198   -4.6966   22.3389 C   0  0  0  0  0  0
  -22.7851  -13.5252   21.1789 C   0  0  0  0  0  0
  -22.1658   -4.2153   21.0969 F   0  0  0  0  0  0
  -21.5603   -3.4535   25.7729 F   0  0  0  0  0  0
  -30.0290  -13.2788   20.4109 N   0  0  0  0  0  0
  -26.2980  -12.9272   20.3281 N   0  0  0  0  0  0
  -25.9263  -11.6445   20.5728 N   0  0  0  0  0  0
  -22.0458  -12.8316   22.0369 N   0  0  0  0  0  0
  -25.4294  -15.1835   20.4100 N   0  0  0  0  0  0
  -31.8789  -14.5949   20.1624 O   0  0  0  0  0  0
  -21.6604   -6.8870   21.4243 O   0  0  0  0  0  0
  -22.3554  -14.5543   20.6613 O   0  0  0  0  0  0
  -24.6140  -31.8695   23.2130 C   0  0  0  0  0  0
  -25.9042  -32.4839   23.8414 C   0  0  1  0  0  0
  -27.2259  -27.4682   20.0855 C   0  0  0  0  0  0
  -25.5910  -33.8642   24.2340 N   0  0  0  0  0  0
  -23.3990  -30.4982   21.5508 C   0  0  2  0  0  0
  -24.8438  -28.9671   20.1164 C   0  0  0  0  0  0
  -22.7393  -29.4700   22.4983 C   0  0  0  0  0  0
  -18.0266  -28.1400   22.8496 C   0  0  0  0  0  0
  -24.1494  -36.7314   23.2628 C   0  0  0  0  0  0
  -25.9231  -30.8496   21.3594 C   0  0  0  0  0  0
  -26.0017  -29.4828   20.7115 C   0  0  0  0  0  0
  -27.1985  -28.7362   20.7037 C   0  0  0  0  0  0
  -26.0613  -26.9675   19.4714 C   0  0  0  0  0  0
  -24.8626  -27.7019   19.5021 C   0  0  0  0  0  0
  -23.6063  -29.8331   20.1643 C   0  0  0  0  0  0
  -25.4115  -36.3119   24.0315 C   0  0  1  0  0  0
  -20.5863  -28.3677   23.1318 C   0  0  2  0  0  0
  -20.6778  -26.9429   22.5413 C   0  0  0  0  0  0
  -19.5746  -26.6402   21.5224 C   0  0  0  0  0  0
  -18.1918  -26.7948   22.1637 C   0  0  0  0  0  0
  -19.1523  -28.8853   23.2907 C   0  0  0  0  0  0
  -18.9454  -30.1458   23.8920 C   0  0  0  0  0  0
  -17.6463  -30.6604   24.0578 C   0  0  0  0  0  0
  -25.9028  -34.9488   23.5123 C   0  0  0  0  0  0
  -16.5351  -29.9122   23.6318 C   0  0  0  0  0  0
  -16.7264  -28.6539   23.0338 C   0  0  0  0  0  0
  -26.4481  -31.6601   25.0721 C   0  0  0  0  0  0
  -25.3755  -31.3733   26.1467 C   0  0  0  0  0  0
  -27.0281  -30.3044   24.6052 C   0  0  0  0  0  0
  -27.6047  -32.4323   25.7502 C   0  0  0  0  0  0
  -27.5577  -37.1814   24.8460 C   0  0  0  0  0  0
  -21.4126  -29.3038   22.3711 N   0  0  0  0  0  0
  -26.4290  -37.3808   23.9394 N   0  0  0  0  0  0
  -24.6641  -31.0853   22.0995 N   0  0  0  0  0  0
  -23.4172  -28.8221   23.3019 O   0  0  0  0  0  0
  -28.3781  -26.7242   20.0747 O   0  0  0  0  0  0
  -26.5560  -34.8933   22.4661 O   0  0  0  0  0  0
  -23.5348  -32.1438   23.7528 O   0  0  0  0  0  0
  -28.2934  -17.2221   20.6652 C   0  0  0  0  0  0
  -29.3999  -16.2381   18.7411 C   0  0  0  0  0  0
  -27.5655  -18.0664   19.8074 C   0  0  0  0  0  0
  -28.6613  -17.0747   17.8837 C   0  0  0  0  0  0
  -29.2429  -16.3067   20.1537 C   0  0  0  0  0  0
  -27.7700  -18.0253   18.4093 C   0  0  0  0  0  0
  -28.0308  -24.3420   20.5046 C   0  0  0  0  0  0
  -31.0756  -17.2450   22.4831 C   0  0  0  0  0  0
  -28.4198  -25.7110   21.0865 C   0  0  0  0  0  0
  -26.6135  -22.6624   17.4894 C   0  0  0  0  0  0
  -25.5757  -22.9228   18.6047 C   0  0  0  0  0  0
  -26.6322  -21.2125   16.9625 C   0  0  0  0  0  0
  -30.2757  -15.9305   22.4301 C   0  0  0  0  0  0
  -26.1149  -22.7813   20.0497 C   0  0  0  0  0  0
  -26.9850  -20.2080   18.0565 C   0  0  0  0  0  0
  -26.7305  -24.0131   20.5385 N   0  0  0  0  0  0
  -30.0199  -15.4839   21.0484 N   0  0  0  0  0  0
  -28.8961  -23.6025   20.0323 O   0  0  0  0  0  0
  -27.1653  -18.8978   17.5363 O   0  0  0  0  0  0
  -31.4639  -12.3818   19.0950 H   0  0  0  0  0  0
  -30.3169  -11.2837   19.8143 H   0  0  0  0  0  0
  -29.7159  -11.7203   17.4285 H   0  0  0  0  0  0
  -29.6679  -13.4341   17.7154 H   0  0  0  0  0  0
  -27.7939  -11.3014   18.7865 H   0  0  0  0  0  0
  -27.3654  -12.6469   17.7681 H   0  0  0  0  0  0
  -27.6843  -14.2332   19.5433 H   0  0  0  0  0  0
  -28.6696  -11.9588   21.3382 H   0  0  0  0  0  0
  -28.4635  -13.6105   21.8367 H   0  0  0  0  0  0
  -25.2724   -9.5721   22.4706 H   0  0  0  0  0  0
  -23.9996   -7.4644   22.7450 H   0  0  0  0  0  0
  -21.0799   -8.8720   19.8955 H   0  0  0  0  0  0
  -22.3596  -10.9641   19.6132 H   0  0  0  0  0  0
  -21.2060   -7.6148   23.9745 H   0  0  0  0  0  0
  -21.1469   -6.0486   25.9069 H   0  0  0  0  0  0
  -22.0598   -2.7612   23.2801 H   0  0  0  0  0  0
  -22.4070  -12.0066   22.4914 H   0  0  0  0  0  0
  -21.1049  -13.1350   22.2439 H   0  0  0  0  0  0
  -24.6645  -15.8372   20.5304 H   0  0  0  0  0  0
  -26.2910  -15.6303   20.1215 H   0  0  0  0  0  0
  -26.7123  -32.5562   23.1191 H   0  0  0  0  0  0
  -25.0159  -33.9805   25.0564 H   0  0  0  0  0  0
  -22.6873  -31.3144   21.4137 H   0  0  0  0  0  0
  -23.3753  -35.9654   23.3327 H   0  0  0  0  0  0
  -24.3612  -36.8898   22.2045 H   0  0  0  0  0  0
  -23.7252  -37.6530   23.6624 H   0  0  0  0  0  0
  -26.0176  -31.6166   20.5906 H   0  0  0  0  0  0
  -26.8168  -30.9122   21.9689 H   0  0  0  0  0  0
  -28.0911  -29.1255   21.1711 H   0  0  0  0  0  0
  -26.0802  -26.0189   18.9584 H   0  0  0  0  0  0
  -23.9716  -27.3035   19.0354 H   0  0  0  0  0  0
  -23.7224  -30.6085   19.4062 H   0  0  0  0  0  0
  -22.7298  -29.2548   19.8666 H   0  0  0  0  0  0
  -25.1318  -36.1975   25.0808 H   0  0  0  0  0  0
  -20.9960  -28.3253   24.1442 H   0  0  0  0  0  0
  -20.5730  -26.2298   23.3607 H   0  0  0  0  0  0
  -21.6636  -26.7500   22.1185 H   0  0  0  0  0  0
  -19.6910  -25.6313   21.1245 H   0  0  0  0  0  0
  -19.6684  -27.3221   20.6761 H   0  0  0  0  0  0
  -17.4204  -26.6710   21.4024 H   0  0  0  0  0  0
  -18.0302  -26.0094   22.9035 H   0  0  0  0  0  0
  -19.7926  -30.7264   24.2319 H   0  0  0  0  0  0
  -17.5014  -31.6276   24.5179 H   0  0  0  0  0  0
  -15.5357  -30.3043   23.7602 H   0  0  0  0  0  0
  -15.8664  -28.0868   22.7036 H   0  0  0  0  0  0
  -24.5903  -30.7104   25.7817 H   0  0  0  0  0  0
  -24.8981  -32.2923   26.4894 H   0  0  0  0  0  0
  -25.8091  -30.8923   27.0244 H   0  0  0  0  0  0
  -26.2805  -29.6851   24.1072 H   0  0  0  0  0  0
  -27.4052  -29.7221   25.4474 H   0  0  0  0  0  0
  -27.8652  -30.4396   23.9189 H   0  0  0  0  0  0
  -27.2626  -33.3597   26.2119 H   0  0  0  0  0  0
  -28.3830  -32.6922   25.0307 H   0  0  0  0  0  0
  -28.0742  -31.8434   26.5398 H   0  0  0  0  0  0
  -28.2600  -38.0108   24.7492 H   0  0  0  0  0  0
  -28.1060  -36.2631   24.6309 H   0  0  0  0  0  0
  -27.2284  -37.1488   25.8862 H   0  0  0  0  0  0
  -20.9277  -29.8791   21.6964 H   0  0  0  0  0  0
  -26.0180  -38.2879   24.1437 H   0  0  0  0  0  0
  -28.1182  -17.3164   21.7265 H   0  0  0  0  0  0
  -30.1095  -15.5724   18.2764 H   0  0  0  0  0  0
  -26.8588  -18.7524   20.2492 H   0  0  0  0  0  0
  -28.8207  -17.0158   16.8167 H   0  0  0  0  0  0
  -31.2447  -17.5559   23.5137 H   0  0  0  0  0  0
  -30.5642  -18.0705   21.9858 H   0  0  0  0  0  0
  -32.0487  -17.1241   22.0048 H   0  0  0  0  0  0
  -29.4361  -25.6531   21.4775 H   0  0  0  0  0  0
  -27.7832  -25.9532   21.9401 H   0  0  0  0  0  0
  -27.6105  -22.9470   17.8256 H   0  0  0  0  0  0
  -26.3988  -23.3170   16.6450 H   0  0  0  0  0  0
  -24.7324  -22.2459   18.4618 H   0  0  0  0  0  0
  -25.1513  -23.9186   18.4797 H   0  0  0  0  0  0
  -27.3595  -21.1319   16.1528 H   0  0  0  0  0  0
  -25.6651  -20.9583   16.5259 H   0  0  0  0  0  0
  -29.3337  -16.0305   22.9690 H   0  0  0  0  0  0
  -30.8257  -15.1671   22.9850 H   0  0  0  0  0  0
  -26.8054  -21.9424   20.1555 H   0  0  0  0  0  0
  -25.2767  -22.5599   20.7133 H   0  0  0  0  0  0
  -26.1870  -20.2008   18.7962 H   0  0  0  0  0  0
  -27.9064  -20.5309   18.5449 H   0  0  0  0  0  0
  -26.1052  -24.6933   20.9536 H   0  0  0  0  0  0
  1 25  1  0  0  0
  1 30  2  0  0  0
  1 87  1  0  0  0
  2  3  1  0  0  0
  2 25  1  0  0  0
  2 90  1  0  0  0
  2 91  1  0  0  0
  3  4  1  0  0  0
  3 92  1  0  0  0
  3 93  1  0  0  0
  4  5  1  0  0  0
  4 94  1  0  0  0
  4 95  1  0  0  0
  5  6  1  0  0  0
  5 26  1  0  0  0
  5 96  1  0  0  0
  6 25  1  0  0  0
  6 97  1  0  0  0
  6 98  1  0  0  0
  7  8  2  0  0  0
  7 26  1  0  0  0
  7 29  1  0  0  0
  8  9  1  0  0  0
  8 22  1  0  0  0
  9 10  1  0  0  0
  9 27  2  0  0  0
 10 11  2  0  0  0
 10 15  1  0  0  0
 11 12  1  0  0  0
 11 99  1  0  0  0
 12 13  2  0  0  0
 12100  1  0  0  0
 13 14  1  0  0  0
 13 31  1  0  0  0
 14 15  2  0  0  0
 14101  1  0  0  0
 15102  1  0  0  0
 16 17  2  0  0  0
 16 21  1  0  0  0
 16 31  1  0  0  0
 17 18  1  0  0  0
 17103  1  0  0  0
 18 19  2  0  0  0
 18104  1  0  0  0
 19 20  1  0  0  0
 19 24  1  0  0  0
 20 21  2  0  0  0
 20105  1  0  0  0
 21 23  1  0  0  0
 22 28  1  0  0  0
 22 32  2  0  0  0
 26 27  1  0  0  0
 28106  1  0  0  0
 28107  1  0  0  0
 29108  1  0  0  0
 29109  1  0  0  0
 33 34  1  0  0  0
 33 66  1  0  0  0
 33 70  2  0  0  0
 34 36  1  0  0  0
 34 59  1  0  0  0
 34110  1  0  0  0
 35 44  2  0  0  0
 35 45  1  0  0  0
 35 68  1  0  0  0
 36 56  1  0  0  0
 36111  1  0  0  0
 37 39  1  0  0  0
 37 47  1  0  0  0
 37 66  1  0  0  0
 37112  1  0  0  0
 38 43  2  0  0  0
 38 46  1  0  0  0
 38 47  1  0  0  0
 39 64  1  0  0  0
 39 67  2  0  0  0
 40 52  1  0  0  0
 40 53  2  0  0  0
 40 58  1  0  0  0
 41113  1  0  0  0
 41114  1  0  0  0
 41115  1  0  0  0
 41 48  1  0  0  0
 42 43  1  0  0  0
 42 66  1  0  0  0
 42116  1  0  0  0
 42117  1  0  0  0
 43 44  1  0  0  0
 44118  1  0  0  0
 45 46  2  0  0  0
 45119  1  0  0  0
 46120  1  0  0  0
 47121  1  0  0  0
 47122  1  0  0  0
 48 56  1  0  0  0
 48 65  1  0  0  0
 48123  1  0  0  0
 49 50  1  0  0  0
 49 53  1  0  0  0
 49 64  1  0  0  0
 49124  1  0  0  0
 50 51  1  0  0  0
 50125  1  0  0  0
 50126  1  0  0  0
 51 52  1  0  0  0
 51127  1  0  0  0
 51128  1  0  0  0
 52129  1  0  0  0
 52130  1  0  0  0
 53 54  1  0  0  0
 54 55  2  0  0  0
 54131  1  0  0  0
 55 57  1  0  0  0
 55132  1  0  0  0
 56 69  2  0  0  0
 57 58  2  0  0  0
 57133  1  0  0  0
 58134  1  0  0  0
 59 60  1  0  0  0
 59 61  1  0  0  0
 59 62  1  0  0  0
 60135  1  0  0  0
 60136  1  0  0  0
 60137  1  0  0  0
 61138  1  0  0  0
 61139  1  0  0  0
 61140  1  0  0  0
 62141  1  0  0  0
 62142  1  0  0  0
 62143  1  0  0  0
 63 65  1  0  0  0
 63144  1  0  0  0
 63145  1  0  0  0
 63146  1  0  0  0
 64147  1  0  0  0
 65148  1  0  0  0
 68 79  1  0  0  0
 71 73  2  0  0  0
 71 75  1  0  0  0
 71149  1  0  0  0
 72 74  1  0  0  0
 72 75  2  0  0  0
 72150  1  0  0  0
 73 76  1  0  0  0
 73151  1  0  0  0
 74 76  2  0  0  0
 74152  1  0  0  0
 75 87  1  0  0  0
 76 89  1  0  0  0
 77 79  1  0  0  0
 77 86  1  0  0  0
 77 88  2  0  0  0
 78 83  1  0  0  0
 78153  1  0  0  0
 78154  1  0  0  0
 78155  1  0  0  0
 79156  1  0  0  0
 79157  1  0  0  0
 80 81  1  0  0  0
 80 82  1  0  0  0
 80158  1  0  0  0
 80159  1  0  0  0
 81 84  1  0  0  0
 81160  1  0  0  0
 81161  1  0  0  0
 82 85  1  0  0  0
 82162  1  0  0  0
 82163  1  0  0  0
 83 87  1  0  0  0
 83164  1  0  0  0
 83165  1  0  0  0
 84 86  1  0  0  0
 84166  1  0  0  0
 84167  1  0  0  0
 85 89  1  0  0  0
 85168  1  0  0  0
 85169  1  0  0  0
 86170  1  0  0  0
M  ISO  4   1 100  68 101  79 101  87 100
M  END
> <chiral flag>
0

> <version>
0

> <s_m_source_file>
/data/baiqing/PycharmProjects/Reinvent-master-3.2/result/LINK_invent/BTK/process_docking_weight1_custom_sum_contain_oxygen_bond_distance_aromatic_linkinvent_7_9_3/rearranged_h_0005.sdf

> <i_m_source_file_index>
50

> <r_mmod_Potential_Energy-OPLS-2005>
116.04825592041

> <r_mmod_Stretch_Energy-OPLS-2005>
36.1850471496582

> <r_mmod_Bend_Energy-OPLS-2005>
93.4180603027344

> <r_mmod_Torsional_Energy-OPLS-2005>
331.894226074219

> <r_mmod_Improper_Torsional_Energy-OPLS-2005>
5.36812353134155

> <r_mmod_Van_der_Waal_Energy-OPLS-2005>
155.229507446289

> <r_mmod_Electrostatic_Energy-OPLS-2005>
-303.838317871094

> <r_mmod_Solvation_Energy-OPLS-2005>
-214.595413208008

> <b_mmod_Minimization_Converged-OPLS-2005>
0

> <r_mmod_RMS_Derivative-OPLS-2005>
4.02426385879517

$$$$
50
                    3D
 Structure written by MMmdl.
189197  0  0  1  0            999 V2000
  -30.7075  -14.4299   20.4246 C   0  0  0  0  0  0
  -30.4079  -12.2488   19.4141 C   0  0  0  0  0  0
  -29.4828  -12.4691   18.1975 C   0  0  0  0  0  0
  -28.0046  -12.3446   18.6178 C   0  0  0  0  0  0
  -27.6557  -13.1989   19.8653 C   0  0  2  0  0  0
  -28.7059  -13.0080   20.9851 C   0  0  0  0  0  0
  -25.2601  -13.8150   20.5720 C   0  0  0  0  0  0
  -24.1848  -13.0429   20.9202 C   0  0  0  0  0  0
  -24.6385  -11.6896   20.8743 C   0  0  0  0  0  0
  -23.9043  -10.4289   21.0382 C   0  0  0  0  0  0
  -24.3609   -9.4208   21.9168 C   0  0  0  0  0  0
  -23.6291   -8.2243   22.0740 C   0  0  0  0  0  0
  -22.4266   -8.0279   21.3538 C   0  0  0  0  0  0
  -21.9888   -9.0257   20.4637 C   0  0  0  0  0  0
  -22.7208  -10.2139   20.3036 C   0  0  0  0  0  0
  -21.6860   -6.0725   22.5283 C   0  0  0  0  0  0
  -21.4015   -6.5635   23.8217 C   0  0  0  0  0  0
  -21.3653   -5.6790   24.9176 C   0  0  0  0  0  0
  -21.6072   -4.3058   24.7221 C   0  0  0  0  0  0
  -21.8820   -3.8139   23.4335 C   0  0  0  0  0  0
  -21.9181   -4.6951   22.3388 C   0  0  0  0  0  0
  -22.7880  -13.5232   21.1879 C   0  0  0  0  0  0
  -22.1640   -4.2151   21.0958 F   0  0  0  0  0  0
  -21.5643   -3.4531   25.7723 F   0  0  0  0  0  0
  -30.0404  -13.2527   20.4162 N   0  0  0  0  0  0
  -26.3006  -12.9291   20.3369 N   0  0  0  0  0  0
  -25.9303  -11.6461   20.5765 N   0  0  0  0  0  0
  -22.0523  -12.8217   22.0433 N   0  0  0  0  0  0
  -25.4323  -15.1879   20.4143 N   0  0  0  0  0  0
  -31.9147  -14.5411   20.2138 O   0  0  0  0  0  0
  -21.6652   -6.8859   21.4235 O   0  0  0  0  0  0
  -22.3576  -14.5546   20.6730 O   0  0  0  0  0  0
  -24.6100  -31.8720   23.2170 C   0  0  0  0  0  0
  -25.9015  -32.4848   23.8430 C   0  0  1  0  0  0
  -27.2223  -27.4885   20.0694 C   0  0  0  0  0  0
  -25.5894  -33.8649   24.2372 N   0  0  0  0  0  0
  -23.3943  -30.4996   21.5555 C   0  0  2  0  0  0
  -24.8418  -28.9865   20.0987 C   0  0  0  0  0  0
  -22.7388  -29.4666   22.4999 C   0  0  0  0  0  0
  -18.0279  -28.1357   22.8504 C   0  0  0  0  0  0
  -24.1484  -36.7319   23.2637 C   0  0  0  0  0  0
  -25.9199  -30.8503   21.3690 C   0  0  0  0  0  0
  -25.9969  -29.4928   20.7092 C   0  0  0  0  0  0
  -27.1932  -28.7455   20.7077 C   0  0  0  0  0  0
  -26.0706  -27.0146   19.4080 C   0  0  0  0  0  0
  -24.8705  -27.7434   19.4459 C   0  0  0  0  0  0
  -23.5993  -29.8423   20.1649 C   0  0  0  0  0  0
  -25.4103  -36.3128   24.0343 C   0  0  1  0  0  0
  -20.5877  -28.3631   23.1348 C   0  0  2  0  0  0
  -20.6757  -26.9362   22.5470 C   0  0  0  0  0  0
  -19.5768  -26.6390   21.5215 C   0  0  0  0  0  0
  -18.1925  -26.7938   22.1593 C   0  0  0  0  0  0
  -19.1531  -28.8812   23.2932 C   0  0  0  0  0  0
  -18.9456  -30.1426   23.8937 C   0  0  0  0  0  0
  -17.6455  -30.6567   24.0585 C   0  0  0  0  0  0
  -25.9019  -34.9489   23.5152 C   0  0  0  0  0  0
  -16.5346  -29.9069   23.6333 C   0  0  0  0  0  0
  -16.7274  -28.6489   23.0346 C   0  0  0  0  0  0
  -26.4458  -31.6603   25.0733 C   0  0  0  0  0  0
  -25.3742  -31.3686   26.1495 C   0  0  0  0  0  0
  -27.0280  -30.3049   24.6068 C   0  0  0  0  0  0
  -27.6051  -32.4304   25.7475 C   0  0  0  0  0  0
  -27.5575  -37.1821   24.8467 C   0  0  0  0  0  0
  -21.4121  -29.2991   22.3741 N   0  0  0  0  0  0
  -26.4301  -37.3800   23.9402 N   0  0  0  0  0  0
  -24.6580  -31.0853   22.1067 N   0  0  0  0  0  0
  -23.4194  -28.8181   23.2998 O   0  0  0  0  0  0
  -28.3127  -26.6596   20.1590 O   0  0  0  0  0  0
  -26.5562  -34.8938   22.4701 O   0  0  0  0  0  0
  -23.5318  -32.1453   23.7596 O   0  0  0  0  0  0
  -30.8722  -17.4118   17.1977 C   0  0  0  0  0  0
  -30.1071  -18.5783   17.3804 C   0  0  0  0  0  0
  -30.8262  -16.3827   18.1547 C   0  0  0  0  0  0
  -29.1999  -17.6446   19.4463 C   0  0  0  0  0  0
  -29.2754  -18.7062   18.5134 C   0  0  0  0  0  0
  -30.0012  -16.4982   19.3042 C   0  0  0  0  0  0
  -28.5155  -19.9765   18.7487 C   0  0  0  0  0  0
  -26.3471  -18.3136   23.9740 C   0  0  0  0  0  0
  -27.0446  -25.1459   21.6640 C   0  0  0  0  0  0
  -27.3096  -18.3391   22.7841 C   0  0  0  0  0  0
  -28.3615  -25.9155   21.3977 C   0  0  0  0  0  0
  -28.5129  -19.2760   23.0430 C   0  0  0  0  0  0
  -28.1495  -20.7801   23.1304 C   0  0  0  0  0  0
  -24.2326  -21.7287   23.8507 C   0  0  0  0  0  0
  -24.7707  -23.1649   23.9673 C   0  0  0  0  0  0
  -28.6712  -21.6759   21.9882 C   0  0  0  0  0  0
  -24.5705  -20.8332   25.0566 C   0  0  0  0  0  0
  -24.2564  -24.0394   22.8110 C   0  0  0  0  0  0
  -27.9488  -21.5089   20.6378 C   0  0  0  0  0  0
  -24.2530  -19.3445   24.8089 C   0  0  0  0  0  0
  -24.8193  -25.4728   22.7659 C   0  0  0  0  0  0
  -29.9035  -15.4953   20.3163 N   0  0  0  0  0  0
  -28.3393  -20.2496   20.0412 N   0  0  0  0  0  0
  -25.1272  -18.8196   23.7661 N   0  0  0  0  0  0
  -26.2786  -25.5855   22.6741 N   0  0  0  0  0  0
  -28.1969  -20.7363   17.8311 O   0  0  0  0  0  0
  -26.7303  -17.9155   25.0752 O   0  0  0  0  0  0
  -26.6779  -24.2733   20.8784 O   0  0  0  0  0  0
  -31.4563  -12.3209   19.1164 H   0  0  0  0  0  0
  -30.2746  -11.2464   19.8209 H   0  0  0  0  0  0
  -29.7092  -11.7468   17.4118 H   0  0  0  0  0  0
  -29.6630  -13.4544   17.7660 H   0  0  0  0  0  0
  -27.8086  -11.2927   18.8304 H   0  0  0  0  0  0
  -27.3517  -12.6161   17.7864 H   0  0  0  0  0  0
  -27.6800  -14.2373   19.5416 H   0  0  0  0  0  0
  -28.6643  -11.9908   21.3748 H   0  0  0  0  0  0
  -28.5060  -13.6644   21.8323 H   0  0  0  0  0  0
  -25.2744   -9.5719   22.4758 H   0  0  0  0  0  0
  -24.0020   -7.4624   22.7444 H   0  0  0  0  0  0
  -21.0828   -8.8751   19.8944 H   0  0  0  0  0  0
  -22.3632  -10.9686   19.6165 H   0  0  0  0  0  0
  -21.2000   -7.6152   23.9702 H   0  0  0  0  0  0
  -21.1482   -6.0525   25.9080 H   0  0  0  0  0  0
  -22.0597   -2.7605   23.2828 H   0  0  0  0  0  0
  -22.4147  -11.9873   22.4840 H   0  0  0  0  0  0
  -21.1123  -13.1256   22.2593 H   0  0  0  0  0  0
  -24.6580  -15.8334   20.5198 H   0  0  0  0  0  0
  -26.2627  -15.6248   20.0378 H   0  0  0  0  0  0
  -26.7074  -32.5560   23.1195 H   0  0  0  0  0  0
  -25.0095  -33.9823   25.0543 H   0  0  0  0  0  0
  -22.6811  -31.3163   21.4257 H   0  0  0  0  0  0
  -23.3744  -35.9653   23.3326 H   0  0  0  0  0  0
  -24.3584  -36.8895   22.2044 H   0  0  0  0  0  0
  -23.7249  -37.6544   23.6623 H   0  0  0  0  0  0
  -26.0306  -31.6204   20.6041 H   0  0  0  0  0  0
  -26.8091  -30.8995   21.9855 H   0  0  0  0  0  0
  -28.0769  -29.1156   21.2099 H   0  0  0  0  0  0
  -26.0879  -26.0515   18.9161 H   0  0  0  0  0  0
  -23.9852  -27.3533   18.9617 H   0  0  0  0  0  0
  -23.6958  -30.6224   19.4092 H   0  0  0  0  0  0
  -22.7250  -29.2592   19.8737 H   0  0  0  0  0  0
  -25.1285  -36.1996   25.0837 H   0  0  0  0  0  0
  -20.9998  -28.3200   24.1456 H   0  0  0  0  0  0
  -20.5574  -26.2249   23.3670 H   0  0  0  0  0  0
  -21.6644  -26.7343   22.1336 H   0  0  0  0  0  0
  -19.6914  -25.6310   21.1205 H   0  0  0  0  0  0
  -19.6733  -27.3230   20.6779 H   0  0  0  0  0  0
  -17.4227  -26.6769   21.3936 H   0  0  0  0  0  0
  -18.0232  -26.0034   22.8929 H   0  0  0  0  0  0
  -19.7931  -30.7243   24.2307 H   0  0  0  0  0  0
  -17.5003  -31.6240   24.5179 H   0  0  0  0  0  0
  -15.5348  -30.2967   23.7639 H   0  0  0  0  0  0
  -15.8682  -28.0818   22.7020 H   0  0  0  0  0  0
  -24.5924  -30.7019   25.7837 H   0  0  0  0  0  0
  -24.8929  -32.2836   26.4954 H   0  0  0  0  0  0
  -25.8123  -30.8859   27.0238 H   0  0  0  0  0  0
  -26.2805  -29.6824   24.1135 H   0  0  0  0  0  0
  -27.4079  -29.7275   25.4502 H   0  0  0  0  0  0
  -27.8630  -30.4386   23.9190 H   0  0  0  0  0  0
  -27.2680  -33.3594   26.2082 H   0  0  0  0  0  0
  -28.3833  -32.6870   25.0276 H   0  0  0  0  0  0
  -28.0736  -31.8405   26.5362 H   0  0  0  0  0  0
  -28.2622  -38.0093   24.7502 H   0  0  0  0  0  0
  -28.1060  -36.2635   24.6319 H   0  0  0  0  0  0
  -27.2305  -37.1487   25.8877 H   0  0  0  0  0  0
  -20.9261  -29.8754   21.7003 H   0  0  0  0  0  0
  -26.0200  -38.2888   24.1389 H   0  0  0  0  0  0
  -31.5106  -17.3149   16.3308 H   0  0  0  0  0  0
  -30.1761  -19.3834   16.6607 H   0  0  0  0  0  0
  -31.4363  -15.5095   17.9750 H   0  0  0  0  0  0
  -28.5439  -17.7144   20.2996 H   0  0  0  0  0  0
  -26.7821  -18.6296   21.8733 H   0  0  0  0  0  0
  -27.6625  -17.3202   22.6177 H   0  0  0  0  0  0
  -29.1793  -25.1956   21.3459 H   0  0  0  0  0  0
  -28.5840  -26.5876   22.2269 H   0  0  0  0  0  0
  -29.2907  -19.1040   22.3003 H   0  0  0  0  0  0
  -28.9786  -18.9791   23.9841 H   0  0  0  0  0  0
  -28.5674  -21.1658   24.0619 H   0  0  0  0  0  0
  -27.0740  -20.9243   23.2361 H   0  0  0  0  0  0
  -24.6305  -21.2961   22.9333 H   0  0  0  0  0  0
  -23.1496  -21.7510   23.7232 H   0  0  0  0  0  0
  -25.8621  -23.1465   23.9596 H   0  0  0  0  0  0
  -24.4726  -23.6019   24.9217 H   0  0  0  0  0  0
  -29.7468  -21.5424   21.8620 H   0  0  0  0  0  0
  -28.5512  -22.7101   22.3073 H   0  0  0  0  0  0
  -24.0205  -21.1832   25.9317 H   0  0  0  0  0  0
  -25.6276  -20.9358   25.3081 H   0  0  0  0  0  0
  -23.1699  -24.1042   22.8786 H   0  0  0  0  0  0
  -24.4505  -23.5437   21.8600 H   0  0  0  0  0  0
  -28.2171  -22.3309   19.9711 H   0  0  0  0  0  0
  -26.8661  -21.5435   20.7664 H   0  0  0  0  0  0
  -23.2134  -19.2267   24.5009 H   0  0  0  0  0  0
  -24.3654  -18.7723   25.7321 H   0  0  0  0  0  0
  -24.4934  -26.0238   23.6477 H   0  0  0  0  0  0
  -24.3809  -25.9972   21.9143 H   0  0  0  0  0  0
  -28.9942  -15.3862   20.7342 H   0  0  0  0  0  0
  -28.6550  -19.5386   20.6817 H   0  0  0  0  0  0
  -24.8799  -19.0530   22.8144 H   0  0  0  0  0  0
  -26.6931  -26.2935   23.2632 H   0  0  0  0  0  0
  1 25  1  0  0  0
  1 30  2  0  0  0
  1 92  1  0  0  0
  2  3  1  0  0  0
  2 25  1  0  0  0
  2 99  1  0  0  0
  2100  1  0  0  0
  3  4  1  0  0  0
  3101  1  0  0  0
  3102  1  0  0  0
  4  5  1  0  0  0
  4103  1  0  0  0
  4104  1  0  0  0
  5  6  1  0  0  0
  5 26  1  0  0  0
  5105  1  0  0  0
  6 25  1  0  0  0
  6106  1  0  0  0
  6107  1  0  0  0
  7  8  2  0  0  0
  7 26  1  0  0  0
  7 29  1  0  0  0
  8  9  1  0  0  0
  8 22  1  0  0  0
  9 10  1  0  0  0
  9 27  2  0  0  0
 10 11  2  0  0  0
 10 15  1  0  0  0
 11 12  1  0  0  0
 11108  1  0  0  0
 12 13  2  0  0  0
 12109  1  0  0  0
 13 14  1  0  0  0
 13 31  1  0  0  0
 14 15  2  0  0  0
 14110  1  0  0  0
 15111  1  0  0  0
 16 17  2  0  0  0
 16 21  1  0  0  0
 16 31  1  0  0  0
 17 18  1  0  0  0
 17112  1  0  0  0
 18 19  2  0  0  0
 18113  1  0  0  0
 19 20  1  0  0  0
 19 24  1  0  0  0
 20 21  2  0  0  0
 20114  1  0  0  0
 21 23  1  0  0  0
 22 28  1  0  0  0
 22 32  2  0  0  0
 26 27  1  0  0  0
 28115  1  0  0  0
 28116  1  0  0  0
 29117  1  0  0  0
 29118  1  0  0  0
 33 34  1  0  0  0
 33 66  1  0  0  0
 33 70  2  0  0  0
 34 36  1  0  0  0
 34 59  1  0  0  0
 34119  1  0  0  0
 35 44  2  0  0  0
 35 45  1  0  0  0
 35 68  1  0  0  0
 36 56  1  0  0  0
 36120  1  0  0  0
 37 39  1  0  0  0
 37 47  1  0  0  0
 37 66  1  0  0  0
 37121  1  0  0  0
 38 43  2  0  0  0
 38 46  1  0  0  0
 38 47  1  0  0  0
 39 64  1  0  0  0
 39 67  2  0  0  0
 40 52  1  0  0  0
 40 53  2  0  0  0
 40 58  1  0  0  0
 41122  1  0  0  0
 41123  1  0  0  0
 41124  1  0  0  0
 41 48  1  0  0  0
 42 43  1  0  0  0
 42 66  1  0  0  0
 42125  1  0  0  0
 42126  1  0  0  0
 43 44  1  0  0  0
 44127  1  0  0  0
 45 46  2  0  0  0
 45128  1  0  0  0
 46129  1  0  0  0
 47130  1  0  0  0
 47131  1  0  0  0
 48 56  1  0  0  0
 48 65  1  0  0  0
 48132  1  0  0  0
 49 50  1  0  0  0
 49 53  1  0  0  0
 49 64  1  0  0  0
 49133  1  0  0  0
 50 51  1  0  0  0
 50134  1  0  0  0
 50135  1  0  0  0
 51 52  1  0  0  0
 51136  1  0  0  0
 51137  1  0  0  0
 52138  1  0  0  0
 52139  1  0  0  0
 53 54  1  0  0  0
 54 55  2  0  0  0
 54140  1  0  0  0
 55 57  1  0  0  0
 55141  1  0  0  0
 56 69  2  0  0  0
 57 58  2  0  0  0
 57142  1  0  0  0
 58143  1  0  0  0
 59 60  1  0  0  0
 59 61  1  0  0  0
 59 62  1  0  0  0
 60144  1  0  0  0
 60145  1  0  0  0
 60146  1  0  0  0
 61147  1  0  0  0
 61148  1  0  0  0
 61149  1  0  0  0
 62150  1  0  0  0
 62151  1  0  0  0
 62152  1  0  0  0
 63 65  1  0  0  0
 63153  1  0  0  0
 63154  1  0  0  0
 63155  1  0  0  0
 64156  1  0  0  0
 65157  1  0  0  0
 68 81  1  0  0  0
 71 72  2  0  0  0
 71 73  1  0  0  0
 71158  1  0  0  0
 72 75  1  0  0  0
 72159  1  0  0  0
 73 76  2  0  0  0
 73160  1  0  0  0
 74 75  2  0  0  0
 74 76  1  0  0  0
 74161  1  0  0  0
 75 77  1  0  0  0
 76 92  1  0  0  0
 77 93  1  0  0  0
 77 96  2  0  0  0
 78 80  1  0  0  0
 78 94  1  0  0  0
 78 97  2  0  0  0
 79 81  1  0  0  0
 79 95  1  0  0  0
 79 98  2  0  0  0
 80 82  1  0  0  0
 80162  1  0  0  0
 80163  1  0  0  0
 81164  1  0  0  0
 81165  1  0  0  0
 82 83  1  0  0  0
 82166  1  0  0  0
 82167  1  0  0  0
 83 86  1  0  0  0
 83168  1  0  0  0
 83169  1  0  0  0
 84 85  1  0  0  0
 84 87  1  0  0  0
 84170  1  0  0  0
 84171  1  0  0  0
 85 88  1  0  0  0
 85172  1  0  0  0
 85173  1  0  0  0
 86 89  1  0  0  0
 86174  1  0  0  0
 86175  1  0  0  0
 87 90  1  0  0  0
 87176  1  0  0  0
 87177  1  0  0  0
 88 91  1  0  0  0
 88178  1  0  0  0
 88179  1  0  0  0
 89 93  1  0  0  0
 89180  1  0  0  0
 89181  1  0  0  0
 90 94  1  0  0  0
 90182  1  0  0  0
 90183  1  0  0  0
 91 95  1  0  0  0
 91184  1  0  0  0
 91185  1  0  0  0
 92186  1  0  0  0
 93187  1  0  0  0
 94188  1  0  0  0
 95189  1  0  0  0
M  ISO  4   1 100  68 101  81 101  92 100
M  END
> <chiral flag>
0

> <version>
0

> <s_m_source_file>
/data/baiqing/PycharmProjects/Reinvent-master-3.2/result/LINK_invent/BTK/process_docking_weight1_custom_sum_contain_oxygen_bond_distance_aromatic_linkinvent_7_9_3/rearranged_h_0005.sdf

> <i_m_source_file_index>
51

> <r_mmod_Potential_Energy-OPLS-2005>
-146.025024414062

> <r_mmod_Stretch_Energy-OPLS-2005>
35.0644683837891

> <r_mmod_Bend_Energy-OPLS-2005>
102.889549255371

> <r_mmod_Torsional_Energy-OPLS-2005>
320.391296386719

> <r_mmod_Improper_Torsional_Energy-OPLS-2005>
16.5937461853027

> <r_mmod_Van_der_Waal_Energy-OPLS-2005>
135.009429931641

> <r_mmod_Electrostatic_Energy-OPLS-2005>
-509.016479492188

> <r_mmod_Solvation_Energy-OPLS-2005>
-272.600830078125

> <b_mmod_Minimization_Converged-OPLS-2005>
0

> <r_mmod_RMS_Derivative-OPLS-2005>
3.13092398643494

$$$$
51
                    3D
 Structure written by MMmdl.
194202  0  0  1  0            999 V2000
  -30.7388  -14.4746   20.4612 C   0  0  0  0  0  0
  -30.4037  -12.2829   19.4383 C   0  0  0  0  0  0
  -29.4891  -12.4706   18.2119 C   0  0  0  0  0  0
  -28.0102  -12.3443   18.6255 C   0  0  0  0  0  0
  -27.6482  -13.2167   19.8590 C   0  0  2  0  0  0
  -28.6980  -13.0768   20.9861 C   0  0  0  0  0  0
  -25.2467  -13.8054   20.5739 C   0  0  0  0  0  0
  -24.1758  -13.0331   20.9224 C   0  0  0  0  0  0
  -24.6375  -11.6843   20.8759 C   0  0  0  0  0  0
  -23.9057  -10.4245   21.0417 C   0  0  0  0  0  0
  -24.3609   -9.4174   21.9196 C   0  0  0  0  0  0
  -23.6285   -8.2213   22.0759 C   0  0  0  0  0  0
  -22.4261   -8.0264   21.3550 C   0  0  0  0  0  0
  -21.9907   -9.0235   20.4639 C   0  0  0  0  0  0
  -22.7242  -10.2110   20.3059 C   0  0  0  0  0  0
  -21.6844   -6.0733   22.5286 C   0  0  0  0  0  0
  -21.4007   -6.5635   23.8219 C   0  0  0  0  0  0
  -21.3657   -5.6791   24.9180 C   0  0  0  0  0  0
  -21.6050   -4.3056   24.7229 C   0  0  0  0  0  0
  -21.8816   -3.8145   23.4348 C   0  0  0  0  0  0
  -21.9188   -4.6962   22.3408 C   0  0  0  0  0  0
  -22.7787  -13.5167   21.1871 C   0  0  0  0  0  0
  -22.1656   -4.2148   21.0986 F   0  0  0  0  0  0
  -21.5634   -3.4546   25.7741 F   0  0  0  0  0  0
  -30.0290  -13.3193   20.4106 N   0  0  0  0  0  0
  -26.2948  -12.9321   20.3348 N   0  0  0  0  0  0
  -25.9307  -11.6467   20.5779 N   0  0  0  0  0  0
  -22.0417  -12.8184   22.0432 N   0  0  0  0  0  0
  -25.3980  -15.1731   20.4235 N   0  0  0  0  0  0
  -31.9498  -14.5098   20.2426 O   0  0  0  0  0  0
  -21.6622   -6.8868   21.4245 O   0  0  0  0  0  0
  -22.3496  -14.5492   20.6734 O   0  0  0  0  0  0
  -24.6124  -31.8653   23.2110 C   0  0  0  0  0  0
  -25.9019  -32.4828   23.8393 C   0  0  1  0  0  0
  -27.2457  -27.4670   20.1002 C   0  0  0  0  0  0
  -25.5868  -33.8636   24.2303 N   0  0  0  0  0  0
  -23.4011  -30.4891   21.5499 C   0  0  2  0  0  0
  -24.8499  -28.9596   20.1120 C   0  0  0  0  0  0
  -22.7403  -29.4645   22.4994 C   0  0  0  0  0  0
  -18.0245  -28.1369   22.8450 C   0  0  0  0  0  0
  -24.1493  -36.7321   23.2643 C   0  0  0  0  0  0
  -25.9232  -30.8479   21.3537 C   0  0  0  0  0  0
  -26.0075  -29.4828   20.7054 C   0  0  0  0  0  0
  -27.2094  -28.7487   20.6871 C   0  0  0  0  0  0
  -26.0728  -26.9443   19.5131 C   0  0  0  0  0  0
  -24.8800  -27.6895   19.5083 C   0  0  0  0  0  0
  -23.6095  -29.8215   20.1636 C   0  0  0  0  0  0
  -25.4096  -36.3105   24.0341 C   0  0  1  0  0  0
  -20.5839  -28.3645   23.1303 C   0  0  2  0  0  0
  -20.6766  -26.9388   22.5406 C   0  0  0  0  0  0
  -19.5765  -26.6359   21.5203 C   0  0  0  0  0  0
  -18.1919  -26.7899   22.1584 C   0  0  0  0  0  0
  -19.1497  -28.8804   23.2878 C   0  0  0  0  0  0
  -18.9445  -30.1401   23.8902 C   0  0  0  0  0  0
  -17.6463  -30.6571   24.0541 C   0  0  0  0  0  0
  -25.9030  -34.9483   23.5115 C   0  0  0  0  0  0
  -16.5342  -29.9098   23.6318 C   0  0  0  0  0  0
  -16.7238  -28.6523   23.0320 C   0  0  0  0  0  0
  -26.4464  -31.6589   25.0711 C   0  0  0  0  0  0
  -25.3720  -31.3699   26.1451 C   0  0  0  0  0  0
  -27.0294  -30.3044   24.6021 C   0  0  0  0  0  0
  -27.6050  -32.4290   25.7470 C   0  0  0  0  0  0
  -27.5579  -37.1805   24.8471 C   0  0  0  0  0  0
  -21.4120  -29.3044   22.3754 N   0  0  0  0  0  0
  -26.4281  -37.3781   23.9429 N   0  0  0  0  0  0
  -24.6648  -31.0798   22.0988 N   0  0  0  0  0  0
  -23.4197  -28.8163   23.2994 O   0  0  0  0  0  0
  -28.4115  -26.7427   20.1242 O   0  0  0  0  0  0
  -26.5607  -34.8933   22.4693 O   0  0  0  0  0  0
  -23.5313  -32.1382   23.7529 O   0  0  0  0  0  0
  -30.9657  -19.2970   18.4904 C   0  0  0  0  0  0
  -31.6104  -18.1068   18.1340 C   0  0  0  0  0  0
  -30.0122  -19.2782   19.5177 C   0  0  0  0  0  0
  -31.2911  -16.9117   18.7998 C   0  0  0  0  0  0
  -29.6979  -18.0908   20.2225 C   0  0  0  0  0  0
  -30.3476  -16.8672   19.8658 C   0  0  0  0  0  0
  -29.4565  -23.7280   22.1987 C   0  0  0  0  0  0
  -28.9386  -20.4734   22.3739 C   0  0  0  0  0  0
  -31.0325  -22.9968   26.3446 C   0  0  0  0  0  0
  -32.4231  -21.2372   25.1783 C   0  0  0  0  0  0
  -26.9713  -17.6841   19.3956 C   0  0  0  0  0  0
  -26.1058  -18.1953   21.7518 C   0  0  0  0  0  0
  -31.2215  -22.4920   21.0082 C   0  0  0  0  0  0
  -29.6220  -24.9158   21.2214 C   0  0  0  0  0  0
  -30.0054  -21.6499   24.4664 C   0  0  0  0  0  0
  -29.7667  -18.4012   23.4994 C   0  0  0  0  0  0
  -28.7912  -18.1012   24.6642 C   0  0  0  0  0  0
  -28.2691  -25.4415   20.6997 C   0  0  0  0  0  0
  -28.6245  -18.1988   21.3147 C   0  0  2  0  0  0
  -30.0582  -21.3833   22.9369 C   0  0  2  0  0  0
  -31.3010  -22.2804   25.0176 C   0  0  0  0  0  0
  -27.2070  -18.4539   20.7091 C   0  0  0  0  0  0
  -30.0130  -15.6143   20.5013 N   0  0  0  0  0  0
  -30.2286  -22.6064   22.0873 N   0  0  0  0  0  0
  -29.0601  -19.1127   22.4142 N   0  0  0  0  0  0
  -29.4305  -17.3851   25.7841 N   0  3  0  0  0  0
  -28.5909  -23.8490   23.0676 O   0  0  0  0  0  0
  -27.9958  -21.0359   21.8170 O   0  0  0  0  0  0
  -31.4517  -12.3419   19.1383 H   0  0  0  0  0  0
  -30.2696  -11.2908   19.8742 H   0  0  0  0  0  0
  -29.7245  -11.7288   17.4481 H   0  0  0  0  0  0
  -29.6654  -13.4469   17.7568 H   0  0  0  0  0  0
  -27.8236  -11.2938   18.8509 H   0  0  0  0  0  0
  -27.3590  -12.5922   17.7863 H   0  0  0  0  0  0
  -27.6619  -14.2512   19.5153 H   0  0  0  0  0  0
  -28.6602  -12.0784   21.4221 H   0  0  0  0  0  0
  -28.4840  -13.7692   21.8014 H   0  0  0  0  0  0
  -25.2748   -9.5660   22.4784 H   0  0  0  0  0  0
  -23.9995   -7.4601   22.7474 H   0  0  0  0  0  0
  -21.0843   -8.8758   19.8930 H   0  0  0  0  0  0
  -22.3708  -10.9659   19.6176 H   0  0  0  0  0  0
  -21.1992   -7.6138   23.9727 H   0  0  0  0  0  0
  -21.1486   -6.0514   25.9085 H   0  0  0  0  0  0
  -22.0596   -2.7607   23.2850 H   0  0  0  0  0  0
  -22.4013  -11.9833   22.4808 H   0  0  0  0  0  0
  -21.1032  -13.1223   22.2617 H   0  0  0  0  0  0
  -24.6212  -15.8113   20.5463 H   0  0  0  0  0  0
  -26.2383  -15.6355   20.1079 H   0  0  0  0  0  0
  -26.7101  -32.5562   23.1183 H   0  0  0  0  0  0
  -25.0039  -33.9773   25.0460 H   0  0  0  0  0  0
  -22.6870  -31.3028   21.4082 H   0  0  0  0  0  0
  -23.3727  -35.9681   23.3302 H   0  0  0  0  0  0
  -24.3597  -36.8943   22.2065 H   0  0  0  0  0  0
  -23.7270  -37.6542   23.6643 H   0  0  0  0  0  0
  -26.0153  -31.6091   20.5780 H   0  0  0  0  0  0
  -26.8199  -30.9142   21.9599 H   0  0  0  0  0  0
  -28.1076  -29.1468   21.1402 H   0  0  0  0  0  0
  -26.0812  -25.9627   19.0595 H   0  0  0  0  0  0
  -23.9995  -27.2792   19.0359 H   0  0  0  0  0  0
  -23.7151  -30.5965   19.4039 H   0  0  0  0  0  0
  -22.7354  -29.2390   19.8699 H   0  0  0  0  0  0
  -25.1272  -36.1978   25.0825 H   0  0  0  0  0  0
  -20.9879  -28.3199   24.1444 H   0  0  0  0  0  0
  -20.5633  -26.2265   23.3583 H   0  0  0  0  0  0
  -21.6643  -26.7451   22.1207 H   0  0  0  0  0  0
  -19.6960  -25.6286   21.1231 H   0  0  0  0  0  0
  -19.6709  -27.3151   20.6723 H   0  0  0  0  0  0
  -17.4180  -26.6591   21.3992 H   0  0  0  0  0  0
  -18.0332  -26.0034   22.8972 H   0  0  0  0  0  0
  -19.7943  -30.7179   24.2289 H   0  0  0  0  0  0
  -17.5049  -31.6259   24.5144 H   0  0  0  0  0  0
  -15.5359  -30.3021   23.7637 H   0  0  0  0  0  0
  -15.8623  -28.0862   22.7041 H   0  0  0  0  0  0
  -24.5904  -30.7030   25.7779 H   0  0  0  0  0  0
  -24.8885  -32.2869   26.4843 H   0  0  0  0  0  0
  -25.8053  -30.8896   27.0237 H   0  0  0  0  0  0
  -26.2831  -29.6824   24.1063 H   0  0  0  0  0  0
  -27.4132  -29.7255   25.4439 H   0  0  0  0  0  0
  -27.8613  -30.4405   23.9103 H   0  0  0  0  0  0
  -27.2686  -33.3598   26.2035 H   0  0  0  0  0  0
  -28.3859  -32.6831   25.0291 H   0  0  0  0  0  0
  -28.0690  -31.8404   26.5390 H   0  0  0  0  0  0
  -28.2582  -38.0121   24.7489 H   0  0  0  0  0  0
  -28.1091  -36.2641   24.6291 H   0  0  0  0  0  0
  -27.2312  -37.1455   25.8885 H   0  0  0  0  0  0
  -20.9265  -29.8827   21.7028 H   0  0  0  0  0  0
  -26.0181  -38.2873   24.1389 H   0  0  0  0  0  0
  -31.1827  -20.2167   17.9661 H   0  0  0  0  0  0
  -32.3363  -18.1046   17.3329 H   0  0  0  0  0  0
  -29.4975  -20.1997   19.7436 H   0  0  0  0  0  0
  -31.7925  -16.0264   18.4438 H   0  0  0  0  0  0
  -31.9340  -23.4897   26.7092 H   0  0  0  0  0  0
  -30.6839  -22.3068   27.1137 H   0  0  0  0  0  0
  -30.2727  -23.7693   26.2253 H   0  0  0  0  0  0
  -33.3299  -21.7008   25.5648 H   0  0  0  0  0  0
  -32.6895  -20.7627   24.2332 H   0  0  0  0  0  0
  -32.1393  -20.4450   25.8716 H   0  0  0  0  0  0
  -25.9231  -17.7126   19.0966 H   0  0  0  0  0  0
  -27.2957  -16.6484   19.4610 H   0  0  0  0  0  0
  -27.5333  -18.1332   18.5754 H   0  0  0  0  0  0
  -25.1137  -18.3428   21.3253 H   0  0  0  0  0  0
  -26.1956  -18.8840   22.5925 H   0  0  0  0  0  0
  -26.1523  -17.1833   22.1542 H   0  0  0  0  0  0
  -30.7362  -22.5548   20.0330 H   0  0  0  0  0  0
  -31.7549  -21.5431   21.0071 H   0  0  0  0  0  0
  -31.9752  -23.2779   21.0881 H   0  0  0  0  0  0
  -30.2465  -24.6962   20.3593 H   0  0  0  0  0  0
  -30.1315  -25.7084   21.7667 H   0  0  0  0  0  0
  -29.8253  -20.7266   25.0095 H   0  0  0  0  0  0
  -29.1395  -22.2553   24.7246 H   0  0  0  0  0  0
  -30.1873  -17.4675   23.1242 H   0  0  0  0  0  0
  -30.6333  -18.9492   23.8572 H   0  0  0  0  0  0
  -27.9577  -17.4976   24.3036 H   0  0  0  0  0  0
  -28.3446  -19.0217   25.0421 H   0  0  0  0  0  0
  -27.5373  -25.4891   21.5095 H   0  0  0  0  0  0
  -27.8715  -24.7488   19.9568 H   0  0  0  0  0  0
  -28.5323  -17.2101   21.7608 H   0  0  0  0  0  0
  -30.9638  -20.8023   22.7956 H   0  0  0  0  0  0
  -31.6487  -23.0430   24.3190 H   0  0  0  0  0  0
  -27.1032  -19.4823   20.3753 H   0  0  0  0  0  0
  -29.0612  -15.5061   20.8104 H   0  0  0  0  0  0
  -29.7644  -16.4837   25.4906 H   0  0  0  0  0  0
  -28.7634  -17.2390   26.5230 H   0  0  0  0  0  0
  -30.1990  -17.9053   26.1693 H   0  0  0  0  0  0
  1 25  1  0  0  0
  1 30  2  0  0  0
  1 93  1  0  0  0
  2  3  1  0  0  0
  2 25  1  0  0  0
  2 99  1  0  0  0
  2100  1  0  0  0
  3  4  1  0  0  0
  3101  1  0  0  0
  3102  1  0  0  0
  4  5  1  0  0  0
  4103  1  0  0  0
  4104  1  0  0  0
  5  6  1  0  0  0
  5 26  1  0  0  0
  5105  1  0  0  0
  6 25  1  0  0  0
  6106  1  0  0  0
  6107  1  0  0  0
  7  8  2  0  0  0
  7 26  1  0  0  0
  7 29  1  0  0  0
  8  9  1  0  0  0
  8 22  1  0  0  0
  9 10  1  0  0  0
  9 27  2  0  0  0
 10 11  2  0  0  0
 10 15  1  0  0  0
 11 12  1  0  0  0
 11108  1  0  0  0
 12 13  2  0  0  0
 12109  1  0  0  0
 13 14  1  0  0  0
 13 31  1  0  0  0
 14 15  2  0  0  0
 14110  1  0  0  0
 15111  1  0  0  0
 16 17  2  0  0  0
 16 21  1  0  0  0
 16 31  1  0  0  0
 17 18  1  0  0  0
 17112  1  0  0  0
 18 19  2  0  0  0
 18113  1  0  0  0
 19 20  1  0  0  0
 19 24  1  0  0  0
 20 21  2  0  0  0
 20114  1  0  0  0
 21 23  1  0  0  0
 22 28  1  0  0  0
 22 32  2  0  0  0
 26 27  1  0  0  0
 28115  1  0  0  0
 28116  1  0  0  0
 29117  1  0  0  0
 29118  1  0  0  0
 33 34  1  0  0  0
 33 66  1  0  0  0
 33 70  2  0  0  0
 34 36  1  0  0  0
 34 59  1  0  0  0
 34119  1  0  0  0
 35 44  2  0  0  0
 35 45  1  0  0  0
 35 68  1  0  0  0
 36 56  1  0  0  0
 36120  1  0  0  0
 37 39  1  0  0  0
 37 47  1  0  0  0
 37 66  1  0  0  0
 37121  1  0  0  0
 38 43  2  0  0  0
 38 46  1  0  0  0
 38 47  1  0  0  0
 39 64  1  0  0  0
 39 67  2  0  0  0
 40 52  1  0  0  0
 40 53  2  0  0  0
 40 58  1  0  0  0
 41122  1  0  0  0
 41123  1  0  0  0
 41124  1  0  0  0
 41 48  1  0  0  0
 42 43  1  0  0  0
 42 66  1  0  0  0
 42125  1  0  0  0
 42126  1  0  0  0
 43 44  1  0  0  0
 44127  1  0  0  0
 45 46  2  0  0  0
 45128  1  0  0  0
 46129  1  0  0  0
 47130  1  0  0  0
 47131  1  0  0  0
 48 56  1  0  0  0
 48 65  1  0  0  0
 48132  1  0  0  0
 49 50  1  0  0  0
 49 53  1  0  0  0
 49 64  1  0  0  0
 49133  1  0  0  0
 50 51  1  0  0  0
 50134  1  0  0  0
 50135  1  0  0  0
 51 52  1  0  0  0
 51136  1  0  0  0
 51137  1  0  0  0
 52138  1  0  0  0
 52139  1  0  0  0
 53 54  1  0  0  0
 54 55  2  0  0  0
 54140  1  0  0  0
 55 57  1  0  0  0
 55141  1  0  0  0
 56 69  2  0  0  0
 57 58  2  0  0  0
 57142  1  0  0  0
 58143  1  0  0  0
 59 60  1  0  0  0
 59 61  1  0  0  0
 59 62  1  0  0  0
 60144  1  0  0  0
 60145  1  0  0  0
 60146  1  0  0  0
 61147  1  0  0  0
 61148  1  0  0  0
 61149  1  0  0  0
 62150  1  0  0  0
 62151  1  0  0  0
 62152  1  0  0  0
 63 65  1  0  0  0
 63153  1  0  0  0
 63154  1  0  0  0
 63155  1  0  0  0
 64156  1  0  0  0
 65157  1  0  0  0
 68 88  1  0  0  0
 71 72  2  0  0  0
 71 73  1  0  0  0
 71158  1  0  0  0
 72 74  1  0  0  0
 72159  1  0  0  0
 73 75  2  0  0  0
 73160  1  0  0  0
 74 76  2  0  0  0
 74161  1  0  0  0
 75 76  1  0  0  0
 75 89  1  0  0  0
 76 93  1  0  0  0
 77 84  1  0  0  0
 77 94  1  0  0  0
 77 97  2  0  0  0
 78 90  1  0  0  0
 78 95  1  0  0  0
 78 98  2  0  0  0
 79162  1  0  0  0
 79163  1  0  0  0
 79164  1  0  0  0
 79 91  1  0  0  0
 80 91  1  0  0  0
 80165  1  0  0  0
 80166  1  0  0  0
 80167  1  0  0  0
 81168  1  0  0  0
 81169  1  0  0  0
 81170  1  0  0  0
 81 92  1  0  0  0
 82 92  1  0  0  0
 82171  1  0  0  0
 82172  1  0  0  0
 82173  1  0  0  0
 83 94  1  0  0  0
 83174  1  0  0  0
 83175  1  0  0  0
 83176  1  0  0  0
 84 88  1  0  0  0
 84177  1  0  0  0
 84178  1  0  0  0
 85 91  1  0  0  0
 85179  1  0  0  0
 85180  1  0  0  0
 85 90  1  0  0  0
 86 87  1  0  0  0
 86 95  1  0  0  0
 86181  1  0  0  0
 86182  1  0  0  0
 87 96  1  0  0  0
 87183  1  0  0  0
 87184  1  0  0  0
 88185  1  0  0  0
 88186  1  0  0  0
 89 92  1  0  0  0
 89 95  1  0  0  0
 89187  1  0  0  0
 90 94  1  0  0  0
 90188  1  0  0  0
 91189  1  0  0  0
 92190  1  0  0  0
 93191  1  0  0  0
 96192  1  0  0  0
 96193  1  0  0  0
 96194  1  0  0  0
M  CHG  1  96   1
M  ISO  4   1 100  68 101  88 101  93 100
M  END
> <chiral flag>
0

> <version>
0

> <s_m_source_file>
/data/baiqing/PycharmProjects/Reinvent-master-3.2/result/LINK_invent/BTK/process_docking_weight1_custom_sum_contain_oxygen_bond_distance_aromatic_linkinvent_7_9_3/rearranged_h_0005.sdf

> <i_m_source_file_index>
52

> <r_mmod_Potential_Energy-OPLS-2005>
-142.459396362305

> <r_mmod_Stretch_Energy-OPLS-2005>
53.3018798828125

> <r_mmod_Bend_Energy-OPLS-2005>
127.43830871582

> <r_mmod_Torsional_Energy-OPLS-2005>
340.928558349609

> <r_mmod_Improper_Torsional_Energy-OPLS-2005>
7.6715841293335

> <r_mmod_Van_der_Waal_Energy-OPLS-2005>
182.568832397461

> <r_mmod_Electrostatic_Energy-OPLS-2005>
-335.082366943359

> <r_mmod_Solvation_Energy-OPLS-2005>
-545.142578125

> <b_mmod_Minimization_Converged-OPLS-2005>
0

> <r_mmod_RMS_Derivative-OPLS-2005>
3.5865364074707

$$$$
52
                    3D
 Structure written by MMmdl.
185194  0  0  1  0            999 V2000
  -30.7578  -14.3995   20.6443 C   0  0  0  0  0  0
  -30.4143  -12.2933   19.4075 C   0  0  0  0  0  0
  -29.4856  -12.5179   18.1982 C   0  0  0  0  0  0
  -28.0091  -12.3772   18.6139 C   0  0  0  0  0  0
  -27.6639  -13.2076   19.8784 C   0  0  2  0  0  0
  -28.7033  -12.9694   20.9971 C   0  0  0  0  0  0
  -25.2594  -13.8166   20.5691 C   0  0  0  0  0  0
  -24.1839  -13.0446   20.9159 C   0  0  0  0  0  0
  -24.6388  -11.6909   20.8710 C   0  0  0  0  0  0
  -23.9049  -10.4301   21.0388 C   0  0  0  0  0  0
  -24.3607   -9.4222   21.9170 C   0  0  0  0  0  0
  -23.6290   -8.2250   22.0744 C   0  0  0  0  0  0
  -22.4270   -8.0283   21.3541 C   0  0  0  0  0  0
  -21.9897   -9.0249   20.4640 C   0  0  0  0  0  0
  -22.7216  -10.2130   20.3040 C   0  0  0  0  0  0
  -21.6856   -6.0735   22.5274 C   0  0  0  0  0  0
  -21.4008   -6.5639   23.8205 C   0  0  0  0  0  0
  -21.3657   -5.6793   24.9168 C   0  0  0  0  0  0
  -21.6039   -4.3055   24.7216 C   0  0  0  0  0  0
  -21.8828   -3.8142   23.4342 C   0  0  0  0  0  0
  -21.9198   -4.6961   22.3396 C   0  0  0  0  0  0
  -22.7865  -13.5252   21.1813 C   0  0  0  0  0  0
  -22.1668   -4.2146   21.0972 F   0  0  0  0  0  0
  -21.5627   -3.4539   25.7731 F   0  0  0  0  0  0
  -30.0432  -13.2581   20.4545 N   0  0  0  0  0  0
  -26.3032  -12.9338   20.3367 N   0  0  0  0  0  0
  -25.9312  -11.6493   20.5746 N   0  0  0  0  0  0
  -22.0502  -12.8249   22.0381 N   0  0  0  0  0  0
  -25.4342  -15.1869   20.4134 N   0  0  0  0  0  0
  -31.8152  -14.6391   20.0549 O   0  0  0  0  0  0
  -21.6640   -6.8869   21.4235 O   0  0  0  0  0  0
  -22.3558  -14.5568   20.6672 O   0  0  0  0  0  0
  -24.6152  -31.8677   23.2104 C   0  0  0  0  0  0
  -25.9050  -32.4833   23.8389 C   0  0  1  0  0  0
  -27.2327  -27.4377   20.0830 C   0  0  0  0  0  0
  -25.5909  -33.8631   24.2308 N   0  0  0  0  0  0
  -23.4011  -30.4940   21.5510 C   0  0  2  0  0  0
  -24.8449  -28.9641   20.1128 C   0  0  0  0  0  0
  -22.7394  -29.4667   22.4979 C   0  0  0  0  0  0
  -18.0260  -28.1389   22.8487 C   0  0  0  0  0  0
  -24.1470  -36.7296   23.2647 C   0  0  0  0  0  0
  -25.9319  -30.8339   21.3625 C   0  0  0  0  0  0
  -26.0066  -29.4703   20.7073 C   0  0  0  0  0  0
  -27.2025  -28.7162   20.6877 C   0  0  0  0  0  0
  -26.0454  -26.9495   19.4824 C   0  0  0  0  0  0
  -24.8606  -27.7032   19.4963 C   0  0  0  0  0  0
  -23.6056  -29.8271   20.1653 C   0  0  0  0  0  0
  -25.4101  -36.3112   24.0329 C   0  0  1  0  0  0
  -20.5859  -28.3666   23.1320 C   0  0  2  0  0  0
  -20.6746  -26.9390   22.5445 C   0  0  0  0  0  0
  -19.5744  -26.6381   21.5220 C   0  0  0  0  0  0
  -18.1907  -26.7945   22.1591 C   0  0  0  0  0  0
  -19.1516  -28.8837   23.2911 C   0  0  0  0  0  0
  -18.9442  -30.1440   23.8931 C   0  0  0  0  0  0
  -17.6453  -30.6589   24.0582 C   0  0  0  0  0  0
  -25.9042  -34.9482   23.5111 C   0  0  0  0  0  0
  -16.5344  -29.9096   23.6343 C   0  0  0  0  0  0
  -16.7256  -28.6518   23.0357 C   0  0  0  0  0  0
  -26.4447  -31.6648   25.0744 C   0  0  0  0  0  0
  -25.3674  -31.3768   26.1467 C   0  0  0  0  0  0
  -27.0296  -30.3094   24.6169 C   0  0  0  0  0  0
  -27.6040  -32.4365   25.7486 C   0  0  0  0  0  0
  -27.5564  -37.1803   24.8456 C   0  0  0  0  0  0
  -21.4124  -29.3044   22.3721 N   0  0  0  0  0  0
  -26.4269  -37.3813   23.9408 N   0  0  0  0  0  0
  -24.6679  -31.0799   22.0989 N   0  0  0  0  0  0
  -23.4162  -28.8208   23.3016 O   0  0  0  0  0  0
  -28.4062  -26.7067   20.0933 O   0  0  0  0  0  0
  -26.5601  -34.8933   22.4672 O   0  0  0  0  0  0
  -23.5347  -32.1399   23.7516 O   0  0  0  0  0  0
  -31.2446  -21.9948   24.2874 C   0  0  0  0  0  0
  -31.1561  -22.5693   23.0090 C   0  0  0  0  0  0
  -24.5617  -17.4997   17.8729 C   0  0  0  0  0  0
  -31.0566  -20.6104   24.4559 C   0  0  0  0  0  0
  -25.2035  -18.7505   17.9569 C   0  0  0  0  0  0
  -30.6963  -20.3603   22.0686 C   0  0  0  0  0  0
  -26.2312  -16.7546   16.2651 C   0  0  0  0  0  0
  -30.8864  -21.7544   21.8931 C   0  0  0  0  0  0
  -25.0803  -16.4932   17.0349 C   0  0  0  0  0  0
  -30.7735  -19.7636   23.3541 C   0  0  0  0  0  0
  -26.3802  -19.0089   17.2102 C   0  0  0  0  0  0
  -26.8779  -18.0028   16.3523 C   0  0  0  0  0  0
  -29.5806  -24.5341   20.2721 C   0  0  0  0  0  0
  -24.4150  -15.1334   16.9624 C   0  0  0  0  0  0
  -31.0397  -17.7663   24.8062 C   0  0  0  0  0  0
  -30.8116  -22.3865   20.5079 C   0  0  0  0  0  0
  -28.2742  -25.2824   19.9300 C   0  0  0  0  0  0
  -28.1792  -21.8677   18.6415 C   0  0  0  0  0  0
  -28.3856  -22.3312   20.0969 C   0  0  0  0  0  0
  -30.8703  -16.5591   21.8513 C   0  0  0  0  0  0
  -29.9023  -17.5086   22.5871 C   0  0  0  0  0  0
  -26.9963  -20.8958   18.5279 C   0  0  0  0  0  0
  -30.2402  -15.2824   21.5081 N   0  0  0  0  0  0
  -30.5902  -18.3707   23.5525 N   0  0  0  0  0  0
  -29.5836  -23.1715   20.2713 N   0  0  0  0  0  0
  -30.5958  -25.1963   20.5181 O   0  0  0  0  0  0
  -27.0676  -20.2026   17.2878 O   0  0  0  0  0  0
  -28.3102  -18.2770   15.4250 Cl  0  0  0  0  0  0
  -31.4588  -12.3834   19.1035 H   0  0  0  0  0  0
  -30.3063  -11.2760   19.7868 H   0  0  0  0  0  0
  -29.7191  -11.8033   17.4070 H   0  0  0  0  0  0
  -29.6580  -13.5101   17.7775 H   0  0  0  0  0  0
  -27.8169  -11.3202   18.8010 H   0  0  0  0  0  0
  -27.3563  -12.6616   17.7874 H   0  0  0  0  0  0
  -27.7154  -14.2592   19.5951 H   0  0  0  0  0  0
  -28.6675  -11.9313   21.3302 H   0  0  0  0  0  0
  -28.4563  -13.5603   21.8783 H   0  0  0  0  0  0
  -25.2754   -9.5704   22.4740 H   0  0  0  0  0  0
  -24.0008   -7.4640   22.7467 H   0  0  0  0  0  0
  -21.0821   -8.8760   19.8951 H   0  0  0  0  0  0
  -22.3676  -10.9663   19.6143 H   0  0  0  0  0  0
  -21.1998   -7.6145   23.9706 H   0  0  0  0  0  0
  -21.1464   -6.0523   25.9074 H   0  0  0  0  0  0
  -22.0608   -2.7609   23.2842 H   0  0  0  0  0  0
  -22.4105  -11.9903   22.4764 H   0  0  0  0  0  0
  -21.1133  -13.1289   22.2595 H   0  0  0  0  0  0
  -24.6561  -15.8325   20.4758 H   0  0  0  0  0  0
  -26.2693  -15.6115   20.0314 H   0  0  0  0  0  0
  -26.7143  -32.5526   23.1176 H   0  0  0  0  0  0
  -25.0088  -33.9793   25.0471 H   0  0  0  0  0  0
  -22.6928  -31.3130   21.4147 H   0  0  0  0  0  0
  -23.3746  -35.9614   23.3318 H   0  0  0  0  0  0
  -24.3550  -36.8900   22.2061 H   0  0  0  0  0  0
  -23.7198  -37.6488   23.6664 H   0  0  0  0  0  0
  -26.0467  -31.6013   20.5944 H   0  0  0  0  0  0
  -26.8202  -30.8851   21.9809 H   0  0  0  0  0  0
  -28.1010  -29.1064   21.1455 H   0  0  0  0  0  0
  -26.0094  -25.9912   18.9860 H   0  0  0  0  0  0
  -23.9695  -27.3095   19.0259 H   0  0  0  0  0  0
  -23.7050  -30.6009   19.4034 H   0  0  0  0  0  0
  -22.7322  -29.2422   19.8726 H   0  0  0  0  0  0
  -25.1286  -36.1968   25.0826 H   0  0  0  0  0  0
  -20.9966  -28.3240   24.1438 H   0  0  0  0  0  0
  -20.5600  -26.2276   23.3635 H   0  0  0  0  0  0
  -21.6620  -26.7401   22.1269 H   0  0  0  0  0  0
  -19.6887  -25.6289   21.1249 H   0  0  0  0  0  0
  -19.6708  -27.3195   20.6760 H   0  0  0  0  0  0
  -17.4192  -26.6734   21.3979 H   0  0  0  0  0  0
  -18.0262  -26.0060   22.8955 H   0  0  0  0  0  0
  -19.7924  -30.7249   24.2313 H   0  0  0  0  0  0
  -17.5010  -31.6276   24.5182 H   0  0  0  0  0  0
  -15.5347  -30.3019   23.7658 H   0  0  0  0  0  0
  -15.8643  -28.0857   22.7070 H   0  0  0  0  0  0
  -24.6033  -30.6868   25.7864 H   0  0  0  0  0  0
  -24.8614  -32.2888   26.4665 H   0  0  0  0  0  0
  -25.8025  -30.9229   27.0380 H   0  0  0  0  0  0
  -26.2870  -29.6870   24.1175 H   0  0  0  0  0  0
  -27.3991  -29.7351   25.4676 H   0  0  0  0  0  0
  -27.8722  -30.4409   23.9371 H   0  0  0  0  0  0
  -27.2712  -33.3701   26.2032 H   0  0  0  0  0  0
  -28.3862  -32.6866   25.0305 H   0  0  0  0  0  0
  -28.0689  -31.8492   26.5416 H   0  0  0  0  0  0
  -28.2633  -38.0070   24.7521 H   0  0  0  0  0  0
  -28.1016  -36.2612   24.6260 H   0  0  0  0  0  0
  -27.2284  -37.1426   25.8865 H   0  0  0  0  0  0
  -20.9260  -29.8778   21.6970 H   0  0  0  0  0  0
  -26.0149  -38.2870   24.1478 H   0  0  0  0  0  0
  -31.4578  -22.6165   25.1459 H   0  0  0  0  0  0
  -31.3046  -23.6344   22.8877 H   0  0  0  0  0  0
  -23.6756  -17.3172   18.4655 H   0  0  0  0  0  0
  -31.1295  -20.2226   25.4607 H   0  0  0  0  0  0
  -24.7761  -19.5021   18.6042 H   0  0  0  0  0  0
  -30.5043  -19.7563   21.1932 H   0  0  0  0  0  0
  -26.6315  -15.9912   15.6137 H   0  0  0  0  0  0
  -23.6550  -15.0159   17.7357 H   0  0  0  0  0  0
  -25.1530  -14.3415   17.0984 H   0  0  0  0  0  0
  -23.9387  -14.9947   15.9916 H   0  0  0  0  0  0
  -32.0768  -18.0321   25.0185 H   0  0  0  0  0  0
  -30.9829  -16.6777   24.7669 H   0  0  0  0  0  0
  -30.4204  -18.0906   25.6439 H   0  0  0  0  0  0
  -30.8783  -21.6010   19.7559 H   0  0  0  0  0  0
  -31.7097  -22.9854   20.3504 H   0  0  0  0  0  0
  -27.4838  -24.9320   20.5928 H   0  0  0  0  0  0
  -28.0083  -25.0390   18.9011 H   0  0  0  0  0  0
  -29.0793  -21.3602   18.2927 H   0  0  0  0  0  0
  -28.0259  -22.7154   17.9727 H   0  0  0  0  0  0
  -28.4816  -21.4484   20.7285 H   0  0  0  0  0  0
  -27.4814  -22.8095   20.4704 H   0  0  0  0  0  0
  -31.7354  -16.3267   22.4741 H   0  0  0  0  0  0
  -31.2610  -17.0538   20.9596 H   0  0  0  0  0  0
  -29.1852  -16.9162   23.1585 H   0  0  0  0  0  0
  -29.2971  -18.0744   21.8788 H   0  0  0  0  0  0
  -26.0543  -21.4394   18.6150 H   0  0  0  0  0  0
  -27.0436  -20.1797   19.3505 H   0  0  0  0  0  0
  -29.3800  -15.0327   21.9727 H   0  0  0  0  0  0
  1 25  1  0  0  0
  1 30  2  0  0  0
  1 93  1  0  0  0
  2  3  1  0  0  0
  2 25  1  0  0  0
  2 99  1  0  0  0
  2100  1  0  0  0
  3  4  1  0  0  0
  3101  1  0  0  0
  3102  1  0  0  0
  4  5  1  0  0  0
  4103  1  0  0  0
  4104  1  0  0  0
  5  6  1  0  0  0
  5 26  1  0  0  0
  5105  1  0  0  0
  6 25  1  0  0  0
  6106  1  0  0  0
  6107  1  0  0  0
  7  8  2  0  0  0
  7 26  1  0  0  0
  7 29  1  0  0  0
  8  9  1  0  0  0
  8 22  1  0  0  0
  9 10  1  0  0  0
  9 27  2  0  0  0
 10 11  2  0  0  0
 10 15  1  0  0  0
 11 12  1  0  0  0
 11108  1  0  0  0
 12 13  2  0  0  0
 12109  1  0  0  0
 13 14  1  0  0  0
 13 31  1  0  0  0
 14 15  2  0  0  0
 14110  1  0  0  0
 15111  1  0  0  0
 16 17  2  0  0  0
 16 21  1  0  0  0
 16 31  1  0  0  0
 17 18  1  0  0  0
 17112  1  0  0  0
 18 19  2  0  0  0
 18113  1  0  0  0
 19 20  1  0  0  0
 19 24  1  0  0  0
 20 21  2  0  0  0
 20114  1  0  0  0
 21 23  1  0  0  0
 22 28  1  0  0  0
 22 32  2  0  0  0
 26 27  1  0  0  0
 28115  1  0  0  0
 28116  1  0  0  0
 29117  1  0  0  0
 29118  1  0  0  0
 33 34  1  0  0  0
 33 66  1  0  0  0
 33 70  2  0  0  0
 34 36  1  0  0  0
 34 59  1  0  0  0
 34119  1  0  0  0
 35 44  2  0  0  0
 35 45  1  0  0  0
 35 68  1  0  0  0
 36 56  1  0  0  0
 36120  1  0  0  0
 37 39  1  0  0  0
 37 47  1  0  0  0
 37 66  1  0  0  0
 37121  1  0  0  0
 38 43  2  0  0  0
 38 46  1  0  0  0
 38 47  1  0  0  0
 39 64  1  0  0  0
 39 67  2  0  0  0
 40 52  1  0  0  0
 40 53  2  0  0  0
 40 58  1  0  0  0
 41122  1  0  0  0
 41123  1  0  0  0
 41124  1  0  0  0
 41 48  1  0  0  0
 42 43  1  0  0  0
 42 66  1  0  0  0
 42125  1  0  0  0
 42126  1  0  0  0
 43 44  1  0  0  0
 44127  1  0  0  0
 45 46  2  0  0  0
 45128  1  0  0  0
 46129  1  0  0  0
 47130  1  0  0  0
 47131  1  0  0  0
 48 56  1  0  0  0
 48 65  1  0  0  0
 48132  1  0  0  0
 49 50  1  0  0  0
 49 53  1  0  0  0
 49 64  1  0  0  0
 49133  1  0  0  0
 50 51  1  0  0  0
 50134  1  0  0  0
 50135  1  0  0  0
 51 52  1  0  0  0
 51136  1  0  0  0
 51137  1  0  0  0
 52138  1  0  0  0
 52139  1  0  0  0
 53 54  1  0  0  0
 54 55  2  0  0  0
 54140  1  0  0  0
 55 57  1  0  0  0
 55141  1  0  0  0
 56 69  2  0  0  0
 57 58  2  0  0  0
 57142  1  0  0  0
 58143  1  0  0  0
 59 60  1  0  0  0
 59 61  1  0  0  0
 59 62  1  0  0  0
 60144  1  0  0  0
 60145  1  0  0  0
 60146  1  0  0  0
 61147  1  0  0  0
 61148  1  0  0  0
 61149  1  0  0  0
 62150  1  0  0  0
 62151  1  0  0  0
 62152  1  0  0  0
 63 65  1  0  0  0
 63153  1  0  0  0
 63154  1  0  0  0
 63155  1  0  0  0
 64156  1  0  0  0
 65157  1  0  0  0
 68 87  1  0  0  0
 71 72  2  0  0  0
 71 74  1  0  0  0
 71158  1  0  0  0
 72 78  1  0  0  0
 72159  1  0  0  0
 73 75  2  0  0  0
 73 79  1  0  0  0
 73160  1  0  0  0
 74 80  2  0  0  0
 74161  1  0  0  0
 75 81  1  0  0  0
 75162  1  0  0  0
 76 78  2  0  0  0
 76 80  1  0  0  0
 76163  1  0  0  0
 77 79  2  0  0  0
 77 82  1  0  0  0
 77164  1  0  0  0
 78 86  1  0  0  0
 79 84  1  0  0  0
 80 94  1  0  0  0
 81 82  2  0  0  0
 81 97  1  0  0  0
 82 98  1  0  0  0
 83 87  1  0  0  0
 83 95  1  0  0  0
 83 96  2  0  0  0
 84165  1  0  0  0
 84166  1  0  0  0
 84167  1  0  0  0
 85 94  1  0  0  0
 85168  1  0  0  0
 85169  1  0  0  0
 85170  1  0  0  0
 86 95  1  0  0  0
 86171  1  0  0  0
 86172  1  0  0  0
 87173  1  0  0  0
 87174  1  0  0  0
 88 89  1  0  0  0
 88 92  1  0  0  0
 88175  1  0  0  0
 88176  1  0  0  0
 89 95  1  0  0  0
 89177  1  0  0  0
 89178  1  0  0  0
 90 91  1  0  0  0
 90 93  1  0  0  0
 90179  1  0  0  0
 90180  1  0  0  0
 91 94  1  0  0  0
 91181  1  0  0  0
 91182  1  0  0  0
 92 97  1  0  0  0
 92183  1  0  0  0
 92184  1  0  0  0
 93185  1  0  0  0
M  ISO  4   1 100  68 101  87 101  93 100
M  END
> <chiral flag>
0

> <version>
0

> <s_m_source_file>
/data/baiqing/PycharmProjects/Reinvent-master-3.2/result/LINK_invent/BTK/process_docking_weight1_custom_sum_contain_oxygen_bond_distance_aromatic_linkinvent_7_9_3/rearranged_h_0005.sdf

> <i_m_source_file_index>
53

> <r_mmod_Potential_Energy-OPLS-2005>
-62.818775177002

> <r_mmod_Stretch_Energy-OPLS-2005>
43.1586837768555

> <r_mmod_Bend_Energy-OPLS-2005>
114.749435424805

> <r_mmod_Torsional_Energy-OPLS-2005>
218.475372314453

> <r_mmod_Improper_Torsional_Energy-OPLS-2005>
2.26635694503784

> <r_mmod_Van_der_Waal_Energy-OPLS-2005>
179.458557128906

> <r_mmod_Electrostatic_Energy-OPLS-2005>
-372.201812744141

> <r_mmod_Solvation_Energy-OPLS-2005>
-257.883361816406

> <b_mmod_Minimization_Converged-OPLS-2005>
0

> <r_mmod_RMS_Derivative-OPLS-2005>
2.00288891792297

$$$$
53
                    3D
 Structure written by MMmdl.
157165  0  0  1  0            999 V2000
  -30.6951  -14.4354   20.6361 C   0  0  0  0  0  0
  -30.4323  -12.3066   19.4059 C   0  0  0  0  0  0
  -29.4951  -12.5266   18.2001 C   0  0  0  0  0  0
  -28.0164  -12.3795   18.6113 C   0  0  0  0  0  0
  -27.6684  -13.1992   19.8814 C   0  0  2  0  0  0
  -28.7052  -12.9293   20.9937 C   0  0  0  0  0  0
  -25.2618  -13.8146   20.5670 C   0  0  0  0  0  0
  -24.1853  -13.0437   20.9160 C   0  0  0  0  0  0
  -24.6393  -11.6898   20.8717 C   0  0  0  0  0  0
  -23.9053  -10.4291   21.0396 C   0  0  0  0  0  0
  -24.3608   -9.4211   21.9178 C   0  0  0  0  0  0
  -23.6287   -8.2245   22.0751 C   0  0  0  0  0  0
  -22.4269   -8.0280   21.3543 C   0  0  0  0  0  0
  -21.9900   -9.0253   20.4647 C   0  0  0  0  0  0
  -22.7224  -10.2133   20.3050 C   0  0  0  0  0  0
  -21.6852   -6.0736   22.5280 C   0  0  0  0  0  0
  -21.4011   -6.5639   23.8214 C   0  0  0  0  0  0
  -21.3658   -5.6791   24.9176 C   0  0  0  0  0  0
  -21.6043   -4.3055   24.7226 C   0  0  0  0  0  0
  -21.8819   -3.8147   23.4347 C   0  0  0  0  0  0
  -21.9193   -4.6965   22.3403 C   0  0  0  0  0  0
  -22.7878  -13.5247   21.1835 C   0  0  0  0  0  0
  -22.1663   -4.2151   21.0981 F   0  0  0  0  0  0
  -21.5628   -3.4537   25.7738 F   0  0  0  0  0  0
  -30.0457  -13.2520   20.4640 N   0  0  0  0  0  0
  -26.3053  -12.9301   20.3369 N   0  0  0  0  0  0
  -25.9317  -11.6466   20.5741 N   0  0  0  0  0  0
  -22.0514  -12.8243   22.0394 N   0  0  0  0  0  0
  -25.4365  -15.1862   20.4093 N   0  0  0  0  0  0
  -31.7609  -14.7121   20.0748 O   0  0  0  0  0  0
  -21.6636   -6.8877   21.4242 O   0  0  0  0  0  0
  -22.3566  -14.5557   20.6691 O   0  0  0  0  0  0
  -24.6133  -31.8682   23.2095 C   0  0  0  0  0  0
  -25.9031  -32.4825   23.8392 C   0  0  1  0  0  0
  -27.2395  -27.4478   20.0983 C   0  0  0  0  0  0
  -25.5893  -33.8621   24.2327 N   0  0  0  0  0  0
  -23.4016  -30.4897   21.5496 C   0  0  2  0  0  0
  -24.8509  -28.9530   20.1175 C   0  0  0  0  0  0
  -22.7403  -29.4656   22.4994 C   0  0  0  0  0  0
  -18.0271  -28.1377   22.8493 C   0  0  0  0  0  0
  -24.1486  -36.7312   23.2639 C   0  0  0  0  0  0
  -25.9285  -30.8376   21.3606 C   0  0  0  0  0  0
  -26.0094  -29.4714   20.7110 C   0  0  0  0  0  0
  -27.2098  -28.7263   20.6973 C   0  0  0  0  0  0
  -26.0681  -26.9356   19.5050 C   0  0  0  0  0  0
  -24.8739  -27.6829   19.5124 C   0  0  0  0  0  0
  -23.6109  -29.8174   20.1656 C   0  0  0  0  0  0
  -25.4107  -36.3112   24.0340 C   0  0  1  0  0  0
  -20.5860  -28.3661   23.1324 C   0  0  2  0  0  0
  -20.6761  -26.9398   22.5421 C   0  0  0  0  0  0
  -19.5743  -26.6385   21.5213 C   0  0  0  0  0  0
  -18.1919  -26.7926   22.1621 C   0  0  0  0  0  0
  -19.1520  -28.8835   23.2905 C   0  0  0  0  0  0
  -18.9450  -30.1443   23.8912 C   0  0  0  0  0  0
  -17.6453  -30.6586   24.0563 C   0  0  0  0  0  0
  -25.9030  -34.9476   23.5129 C   0  0  0  0  0  0
  -16.5344  -29.9088   23.6325 C   0  0  0  0  0  0
  -16.7261  -28.6503   23.0349 C   0  0  0  0  0  0
  -26.4467  -31.6599   25.0714 C   0  0  0  0  0  0
  -25.3743  -31.3710   26.1470 C   0  0  0  0  0  0
  -27.0286  -30.3040   24.6072 C   0  0  0  0  0  0
  -27.6053  -32.4311   25.7467 C   0  0  0  0  0  0
  -27.5581  -37.1807   24.8466 C   0  0  0  0  0  0
  -21.4132  -29.3030   22.3733 N   0  0  0  0  0  0
  -26.4296  -37.3794   23.9408 N   0  0  0  0  0  0
  -24.6659  -31.0793   22.0988 N   0  0  0  0  0  0
  -23.4178  -28.8200   23.3036 O   0  0  0  0  0  0
  -28.3966  -26.7058   20.0715 O   0  0  0  0  0  0
  -26.5588  -34.8928   22.4688 O   0  0  0  0  0  0
  -23.5328  -32.1427   23.7497 O   0  0  0  0  0  0
  -29.9021  -18.7435   22.8585 C   0  0  0  0  0  0
  -29.9205  -18.8910   20.4370 C   0  0  0  0  0  0
  -30.0213  -17.3388   22.7909 C   0  0  0  0  0  0
  -30.0996  -16.6947   21.5326 C   0  0  0  0  0  0
  -29.8346  -19.5356   21.6951 C   0  0  0  0  0  0
  -30.0435  -17.4840   20.3539 C   0  0  0  0  0  0
  -30.0466  -16.5355   24.0818 C   0  0  0  0  0  0
  -28.8676  -24.2851   20.3222 C   0  0  0  0  0  0
  -29.0606  -23.1464   21.3522 C   0  0  0  0  0  0
  -28.4200  -25.6062   20.9896 C   0  0  0  0  0  0
  -29.4438  -21.7639   20.7759 C   0  0  0  0  0  0
  -30.0946  -15.2689   21.5011 N   0  0  0  0  0  0
  -29.6715  -20.8952   21.8871 O   0  0  0  0  0  0
  -30.0427  -16.8992   19.1312 F   0  0  0  0  0  0
  -31.4740  -12.4279   19.1029 H   0  0  0  0  0  0
  -30.3489  -11.2828   19.7739 H   0  0  0  0  0  0
  -29.7337  -11.8204   17.4036 H   0  0  0  0  0  0
  -29.6611  -13.5220   17.7849 H   0  0  0  0  0  0
  -27.8236  -11.3209   18.7902 H   0  0  0  0  0  0
  -27.3658  -12.6708   17.7860 H   0  0  0  0  0  0
  -27.7289  -14.2544   19.6133 H   0  0  0  0  0  0
  -28.6780  -11.8775   21.2824 H   0  0  0  0  0  0
  -28.4451  -13.4740   21.9016 H   0  0  0  0  0  0
  -25.2756   -9.5690   22.4747 H   0  0  0  0  0  0
  -24.0002   -7.4636   22.7468 H   0  0  0  0  0  0
  -21.0832   -8.8767   19.8953 H   0  0  0  0  0  0
  -22.3682  -10.9668   19.6155 H   0  0  0  0  0  0
  -21.2000   -7.6147   23.9718 H   0  0  0  0  0  0
  -21.1479   -6.0521   25.9079 H   0  0  0  0  0  0
  -22.0599   -2.7611   23.2845 H   0  0  0  0  0  0
  -22.4121  -11.9899   22.4781 H   0  0  0  0  0  0
  -21.1137  -13.1280   22.2601 H   0  0  0  0  0  0
  -24.6751  -15.8466   20.5215 H   0  0  0  0  0  0
  -26.2988  -15.6225   20.1073 H   0  0  0  0  0  0
  -26.7103  -32.5547   23.1161 H   0  0  0  0  0  0
  -25.0061  -33.9786   25.0485 H   0  0  0  0  0  0
  -22.6897  -31.3055   21.4084 H   0  0  0  0  0  0
  -23.3744  -35.9649   23.3324 H   0  0  0  0  0  0
  -24.3577  -36.8901   22.2049 H   0  0  0  0  0  0
  -23.7246  -37.6527   23.6635 H   0  0  0  0  0  0
  -26.0375  -31.6027   20.5908 H   0  0  0  0  0  0
  -26.8175  -30.8940   21.9770 H   0  0  0  0  0  0
  -28.1075  -29.1236   21.1504 H   0  0  0  0  0  0
  -26.0836  -25.9609   19.0381 H   0  0  0  0  0  0
  -23.9831  -27.2766   19.0535 H   0  0  0  0  0  0
  -23.7160  -30.5896   19.4026 H   0  0  0  0  0  0
  -22.7367  -29.2331   19.8729 H   0  0  0  0  0  0
  -25.1285  -36.1980   25.0832 H   0  0  0  0  0  0
  -20.9953  -28.3228   24.1444 H   0  0  0  0  0  0
  -20.5669  -26.2265   23.3605 H   0  0  0  0  0  0
  -21.6633  -26.7448   22.1213 H   0  0  0  0  0  0
  -19.6903  -25.6299   21.1234 H   0  0  0  0  0  0
  -19.6690  -27.3202   20.6751 H   0  0  0  0  0  0
  -17.4196  -26.6687   21.4015 H   0  0  0  0  0  0
  -18.0312  -26.0063   22.9009 H   0  0  0  0  0  0
  -19.7927  -30.7252   24.2290 H   0  0  0  0  0  0
  -17.5011  -31.6270   24.5159 H   0  0  0  0  0  0
  -15.5346  -30.2996   23.7641 H   0  0  0  0  0  0
  -15.8661  -28.0828   22.7056 H   0  0  0  0  0  0
  -24.5899  -30.7074   25.7813 H   0  0  0  0  0  0
  -24.8953  -32.2871   26.4937 H   0  0  0  0  0  0
  -25.8102  -30.8863   27.0216 H   0  0  0  0  0  0
  -26.2812  -29.6808   24.1144 H   0  0  0  0  0  0
  -27.4082  -29.7271   25.4517 H   0  0  0  0  0  0
  -27.8641  -30.4362   23.9193 H   0  0  0  0  0  0
  -27.2680  -33.3601   26.2076 H   0  0  0  0  0  0
  -28.3841  -32.6887   25.0277 H   0  0  0  0  0  0
  -28.0743  -31.8413   26.5353 H   0  0  0  0  0  0
  -28.2618  -38.0086   24.7498 H   0  0  0  0  0  0
  -28.1056  -36.2618   24.6309 H   0  0  0  0  0  0
  -27.2297  -37.1485   25.8869 H   0  0  0  0  0  0
  -20.9289  -29.8747   21.6953 H   0  0  0  0  0  0
  -26.0189  -38.2877   24.1398 H   0  0  0  0  0  0
  -29.8365  -19.2285   23.8227 H   0  0  0  0  0  0
  -29.8692  -19.4547   19.5182 H   0  0  0  0  0  0
  -30.0738  -17.1839   24.9581 H   0  0  0  0  0  0
  -30.9273  -15.8935   24.1168 H   0  0  0  0  0  0
  -29.1592  -15.9069   24.1594 H   0  0  0  0  0  0
  -28.1300  -23.9890   19.5756 H   0  0  0  0  0  0
  -29.8031  -24.4478   19.7861 H   0  0  0  0  0  0
  -28.1434  -23.0346   21.9319 H   0  0  0  0  0  0
  -29.8282  -23.4512   22.0646 H   0  0  0  0  0  0
  -29.1172  -25.8667   21.7868 H   0  0  0  0  0  0
  -27.4527  -25.4568   21.4746 H   0  0  0  0  0  0
  -30.3464  -21.8356   20.1674 H   0  0  0  0  0  0
  -28.6364  -21.3872   20.1460 H   0  0  0  0  0  0
  -29.3936  -14.8318   22.0778 H   0  0  0  0  0  0
  1 25  1  0  0  0
  1 30  2  0  0  0
  1 82  1  0  0  0
  2  3  1  0  0  0
  2 25  1  0  0  0
  2 85  1  0  0  0
  2 86  1  0  0  0
  3  4  1  0  0  0
  3 87  1  0  0  0
  3 88  1  0  0  0
  4  5  1  0  0  0
  4 89  1  0  0  0
  4 90  1  0  0  0
  5  6  1  0  0  0
  5 26  1  0  0  0
  5 91  1  0  0  0
  6 25  1  0  0  0
  6 92  1  0  0  0
  6 93  1  0  0  0
  7  8  2  0  0  0
  7 26  1  0  0  0
  7 29  1  0  0  0
  8  9  1  0  0  0
  8 22  1  0  0  0
  9 10  1  0  0  0
  9 27  2  0  0  0
 10 11  2  0  0  0
 10 15  1  0  0  0
 11 12  1  0  0  0
 11 94  1  0  0  0
 12 13  2  0  0  0
 12 95  1  0  0  0
 13 14  1  0  0  0
 13 31  1  0  0  0
 14 15  2  0  0  0
 14 96  1  0  0  0
 15 97  1  0  0  0
 16 17  2  0  0  0
 16 21  1  0  0  0
 16 31  1  0  0  0
 17 18  1  0  0  0
 17 98  1  0  0  0
 18 19  2  0  0  0
 18 99  1  0  0  0
 19 20  1  0  0  0
 19 24  1  0  0  0
 20 21  2  0  0  0
 20100  1  0  0  0
 21 23  1  0  0  0
 22 28  1  0  0  0
 22 32  2  0  0  0
 26 27  1  0  0  0
 28101  1  0  0  0
 28102  1  0  0  0
 29103  1  0  0  0
 29104  1  0  0  0
 33 34  1  0  0  0
 33 66  1  0  0  0
 33 70  2  0  0  0
 34 36  1  0  0  0
 34 59  1  0  0  0
 34105  1  0  0  0
 35 44  2  0  0  0
 35 45  1  0  0  0
 35 68  1  0  0  0
 36 56  1  0  0  0
 36106  1  0  0  0
 37 39  1  0  0  0
 37 47  1  0  0  0
 37 66  1  0  0  0
 37107  1  0  0  0
 38 43  2  0  0  0
 38 46  1  0  0  0
 38 47  1  0  0  0
 39 64  1  0  0  0
 39 67  2  0  0  0
 40 52  1  0  0  0
 40 53  2  0  0  0
 40 58  1  0  0  0
 41108  1  0  0  0
 41109  1  0  0  0
 41110  1  0  0  0
 41 48  1  0  0  0
 42 43  1  0  0  0
 42 66  1  0  0  0
 42111  1  0  0  0
 42112  1  0  0  0
 43 44  1  0  0  0
 44113  1  0  0  0
 45 46  2  0  0  0
 45114  1  0  0  0
 46115  1  0  0  0
 47116  1  0  0  0
 47117  1  0  0  0
 48 56  1  0  0  0
 48 65  1  0  0  0
 48118  1  0  0  0
 49 50  1  0  0  0
 49 53  1  0  0  0
 49 64  1  0  0  0
 49119  1  0  0  0
 50 51  1  0  0  0
 50120  1  0  0  0
 50121  1  0  0  0
 51 52  1  0  0  0
 51122  1  0  0  0
 51123  1  0  0  0
 52124  1  0  0  0
 52125  1  0  0  0
 53 54  1  0  0  0
 54 55  2  0  0  0
 54126  1  0  0  0
 55 57  1  0  0  0
 55127  1  0  0  0
 56 69  2  0  0  0
 57 58  2  0  0  0
 57128  1  0  0  0
 58129  1  0  0  0
 59 60  1  0  0  0
 59 61  1  0  0  0
 59 62  1  0  0  0
 60130  1  0  0  0
 60131  1  0  0  0
 60132  1  0  0  0
 61133  1  0  0  0
 61134  1  0  0  0
 61135  1  0  0  0
 62136  1  0  0  0
 62137  1  0  0  0
 62138  1  0  0  0
 63 65  1  0  0  0
 63139  1  0  0  0
 63140  1  0  0  0
 63141  1  0  0  0
 64142  1  0  0  0
 65143  1  0  0  0
 68 80  1  0  0  0
 71 73  2  0  0  0
 71 75  1  0  0  0
 71144  1  0  0  0
 72 75  2  0  0  0
 72 76  1  0  0  0
 72145  1  0  0  0
 73 74  1  0  0  0
 73 77  1  0  0  0
 74 76  2  0  0  0
 74 82  1  0  0  0
 75 83  1  0  0  0
 76 84  1  0  0  0
 77146  1  0  0  0
 77147  1  0  0  0
 77148  1  0  0  0
 78 79  1  0  0  0
 78 80  1  0  0  0
 78149  1  0  0  0
 78150  1  0  0  0
 79 81  1  0  0  0
 79151  1  0  0  0
 79152  1  0  0  0
 80153  1  0  0  0
 80154  1  0  0  0
 81 83  1  0  0  0
 81155  1  0  0  0
 81156  1  0  0  0
 82157  1  0  0  0
M  ISO  4   1 100  68 101  80 101  82 100
M  END
> <chiral flag>
0

> <version>
0

> <s_m_source_file>
/data/baiqing/PycharmProjects/Reinvent-master-3.2/result/LINK_invent/BTK/process_docking_weight1_custom_sum_contain_oxygen_bond_distance_aromatic_linkinvent_7_9_3/rearranged_h_0005.sdf

> <i_m_source_file_index>
54

> <r_mmod_Potential_Energy-OPLS-2005>
-81.2620544433594

> <r_mmod_Stretch_Energy-OPLS-2005>
35.9506301879883

> <r_mmod_Bend_Energy-OPLS-2005>
101.698791503906

> <r_mmod_Torsional_Energy-OPLS-2005>
245.486633300781

> <r_mmod_Improper_Torsional_Energy-OPLS-2005>
3.10850214958191

> <r_mmod_Van_der_Waal_Energy-OPLS-2005>
151.535415649414

> <r_mmod_Electrostatic_Energy-OPLS-2005>
-421.260131835938

> <r_mmod_Solvation_Energy-OPLS-2005>
-206.769561767578

> <b_mmod_Minimization_Converged-OPLS-2005>
0

> <r_mmod_RMS_Derivative-OPLS-2005>
0.370199263095856

$$$$
54
                    3D
 Structure written by MMmdl.
189197  0  0  1  0            999 V2000
  -30.8734  -14.2879   20.7148 C   0  0  0  0  0  0
  -30.3965  -12.2681   19.4117 C   0  0  0  0  0  0
  -29.4783  -12.5491   18.2120 C   0  0  0  0  0  0
  -28.0057  -12.3996   18.6248 C   0  0  0  0  0  0
  -27.6736  -13.2183   19.8999 C   0  0  2  0  0  0
  -28.7195  -12.9925   21.0235 C   0  0  0  0  0  0
  -25.2611  -13.8206   20.5671 C   0  0  0  0  0  0
  -24.1834  -13.0441   20.9100 C   0  0  0  0  0  0
  -24.6433  -11.6935   20.8716 C   0  0  0  0  0  0
  -23.9096  -10.4301   21.0385 C   0  0  0  0  0  0
  -24.3632   -9.4208   21.9158 C   0  0  0  0  0  0
  -23.6281   -8.2256   22.0759 C   0  0  0  0  0  0
  -22.4265   -8.0296   21.3562 C   0  0  0  0  0  0
  -21.9899   -9.0275   20.4658 C   0  0  0  0  0  0
  -22.7249  -10.2136   20.3032 C   0  0  0  0  0  0
  -21.6871   -6.0695   22.5277 C   0  0  0  0  0  0
  -21.4033   -6.5618   23.8199 C   0  0  0  0  0  0
  -21.3657   -5.6769   24.9162 C   0  0  0  0  0  0
  -21.6048   -4.3040   24.7233 C   0  0  0  0  0  0
  -21.8819   -3.8120   23.4355 C   0  0  0  0  0  0
  -21.9193   -4.6916   22.3397 C   0  0  0  0  0  0
  -22.7877  -13.5253   21.1697 C   0  0  0  0  0  0
  -22.1655   -4.2107   21.0985 F   0  0  0  0  0  0
  -21.5629   -3.4534   25.7743 F   0  0  0  0  0  0
  -30.0764  -13.2141   20.4910 N   0  0  0  0  0  0
  -26.3108  -12.9420   20.3527 N   0  0  0  0  0  0
  -25.9390  -11.6562   20.5853 N   0  0  0  0  0  0
  -22.0538  -12.8291   22.0328 N   0  0  0  0  0  0
  -25.4328  -15.1908   20.4045 N   0  0  0  0  0  0
  -31.7279  -14.6549   19.9033 O   0  0  0  0  0  0
  -21.6656   -6.8860   21.4245 O   0  0  0  0  0  0
  -22.3534  -14.5517   20.6518 O   0  0  0  0  0  0
  -24.6092  -31.8657   23.2148 C   0  0  0  0  0  0
  -25.9025  -32.4826   23.8408 C   0  0  1  0  0  0
  -27.2338  -27.4638   20.0468 C   0  0  0  0  0  0
  -25.5887  -33.8622   24.2349 N   0  0  0  0  0  0
  -23.3956  -30.4936   21.5545 C   0  0  2  0  0  0
  -24.8409  -28.9694   20.1175 C   0  0  0  0  0  0
  -22.7384  -29.4628   22.5000 C   0  0  0  0  0  0
  -18.0269  -28.1381   22.8499 C   0  0  0  0  0  0
  -24.1495  -36.7291   23.2643 C   0  0  0  0  0  0
  -25.9252  -30.8388   21.3661 C   0  0  0  0  0  0
  -26.0030  -29.4776   20.7066 C   0  0  0  0  0  0
  -27.1958  -28.7231   20.6866 C   0  0  0  0  0  0
  -26.0464  -26.9707   19.4575 C   0  0  0  0  0  0
  -24.8521  -27.7075   19.5101 C   0  0  0  0  0  0
  -23.6047  -29.8325   20.1677 C   0  0  0  0  0  0
  -25.4106  -36.3081   24.0337 C   0  0  1  0  0  0
  -20.5863  -28.3618   23.1351 C   0  0  2  0  0  0
  -20.6758  -26.9358   22.5428 C   0  0  0  0  0  0
  -19.5749  -26.6377   21.5206 C   0  0  0  0  0  0
  -18.1921  -26.7947   22.1600 C   0  0  0  0  0  0
  -19.1523  -28.8826   23.2921 C   0  0  0  0  0  0
  -18.9446  -30.1455   23.8905 C   0  0  0  0  0  0
  -17.6443  -30.6586   24.0585 C   0  0  0  0  0  0
  -25.9002  -34.9459   23.5112 C   0  0  0  0  0  0
  -16.5334  -29.9085   23.6344 C   0  0  0  0  0  0
  -16.7257  -28.6508   23.0337 C   0  0  0  0  0  0
  -26.4518  -31.6619   25.0721 C   0  0  0  0  0  0
  -25.3834  -31.3802   26.1532 C   0  0  0  0  0  0
  -27.0303  -30.3037   24.6080 C   0  0  0  0  0  0
  -27.6141  -32.4300   25.7488 C   0  0  0  0  0  0
  -27.5585  -37.1782   24.8451 C   0  0  0  0  0  0
  -21.4124  -29.2976   22.3765 N   0  0  0  0  0  0
  -26.4297  -37.3748   23.9399 N   0  0  0  0  0  0
  -24.6618  -31.0794   22.1043 N   0  0  0  0  0  0
  -23.4191  -28.8144   23.2991 O   0  0  0  0  0  0
  -28.4241  -26.7589   20.0617 O   0  0  0  0  0  0
  -26.5526  -34.8885   22.4656 O   0  0  0  0  0  0
  -23.5276  -32.1449   23.7525 O   0  0  0  0  0  0
  -33.6324  -17.9350   22.5233 C   0  0  0  0  0  0
  -32.2584  -18.2306   22.3851 C   0  0  0  0  0  0
  -33.1192  -15.5605   22.5204 C   0  0  0  0  0  0
  -34.0677  -16.5964   22.6282 C   0  0  0  0  0  0
  -31.7545  -15.8541   22.3057 C   0  0  0  0  0  0
  -31.2949  -17.1895   22.3131 C   0  0  0  0  0  0
  -30.2519  -25.6164   23.7254 C   0  0  0  0  0  0
  -27.8035  -24.3686   20.2805 C   0  0  0  0  0  0
  -29.2979  -26.4309   24.6021 C   0  0  0  0  0  0
  -28.5176  -25.4579   19.4502 C   0  0  0  0  0  0
  -27.8582  -26.4886   24.0570 C   0  0  0  0  0  0
  -27.0479  -25.2116   24.3787 C   0  0  0  0  0  0
  -30.1602  -21.4010   23.7750 C   0  0  0  0  0  0
  -29.9861  -19.9820   24.3420 C   0  0  0  0  0  0
  -25.8572  -24.9231   23.4413 C   0  0  0  0  0  0
  -31.4471  -22.1113   24.2310 C   0  0  0  0  0  0
  -28.9307  -19.1716   23.5701 C   0  0  0  0  0  0
  -26.2564  -24.0592   22.2293 C   0  0  0  0  0  0
  -31.5626  -23.5079   23.5962 C   0  0  0  0  0  0
  -29.3585  -18.6733   22.1709 C   0  0  0  0  0  0
  -35.5364  -16.2305   22.8067 C   0  0  0  0  0  0
  -30.8604  -14.8081   21.9526 N   0  0  0  0  0  0
  -30.6247  -24.4307   24.2157 N   0  0  0  0  0  0
  -27.2040  -24.7818   21.3996 N   0  0  0  0  0  0
  -30.6580  -26.0578   22.6483 O   0  0  0  0  0  0
  -27.7525  -23.2034   19.8834 O   0  0  0  0  0  0
  -29.9282  -17.3674   22.2049 O   0  0  0  0  0  0
  -36.3029  -17.2868   23.0839 F   0  0  0  0  0  0
  -35.6513  -15.3515   23.8036 F   0  0  0  0  0  0
  -35.9946  -15.6609   21.6934 F   0  0  0  0  0  0
  -31.4463  -12.3163   19.1114 H   0  0  0  0  0  0
  -30.2514  -11.2494   19.7756 H   0  0  0  0  0  0
  -29.7100  -11.8755   17.3847 H   0  0  0  0  0  0
  -29.6473  -13.5626   17.8455 H   0  0  0  0  0  0
  -27.7991  -11.3407   18.7910 H   0  0  0  0  0  0
  -27.3562  -12.7119   17.8075 H   0  0  0  0  0  0
  -27.7228  -14.2686   19.6123 H   0  0  0  0  0  0
  -28.6567  -11.9693   21.3996 H   0  0  0  0  0  0
  -28.5052  -13.6413   21.8733 H   0  0  0  0  0  0
  -25.2779   -9.5688   22.4708 H   0  0  0  0  0  0
  -23.9986   -7.4672   22.7506 H   0  0  0  0  0  0
  -21.0801   -8.8790   19.9014 H   0  0  0  0  0  0
  -22.3686  -10.9657   19.6134 H   0  0  0  0  0  0
  -21.2048   -7.6120   23.9690 H   0  0  0  0  0  0
  -21.1485   -6.0503   25.9056 H   0  0  0  0  0  0
  -22.0604   -2.7584   23.2873 H   0  0  0  0  0  0
  -22.4158  -11.9960   22.4721 H   0  0  0  0  0  0
  -21.1187  -13.1386   22.2561 H   0  0  0  0  0  0
  -24.6816  -15.8608   20.5143 H   0  0  0  0  0  0
  -26.3017  -15.6282   20.1229 H   0  0  0  0  0  0
  -26.7087  -32.5582   23.1154 H   0  0  0  0  0  0
  -25.0129  -33.9807   25.0561 H   0  0  0  0  0  0
  -22.6794  -31.3062   21.4157 H   0  0  0  0  0  0
  -23.3725  -35.9655   23.3292 H   0  0  0  0  0  0
  -24.3585  -36.8909   22.2057 H   0  0  0  0  0  0
  -23.7287  -37.6504   23.6666 H   0  0  0  0  0  0
  -26.0286  -31.6123   20.6041 H   0  0  0  0  0  0
  -26.8126  -30.8923   21.9831 H   0  0  0  0  0  0
  -28.0923  -29.1078   21.1515 H   0  0  0  0  0  0
  -26.0111  -26.0135   18.9606 H   0  0  0  0  0  0
  -23.9530  -27.3086   19.0640 H   0  0  0  0  0  0
  -23.7181  -30.6095   19.4090 H   0  0  0  0  0  0
  -22.7343  -29.2468   19.8652 H   0  0  0  0  0  0
  -25.1297  -36.1941   25.0833 H   0  0  0  0  0  0
  -20.9948  -28.3126   24.1467 H   0  0  0  0  0  0
  -20.5649  -26.2168   23.3565 H   0  0  0  0  0  0
  -21.6639  -26.7386   22.1234 H   0  0  0  0  0  0
  -19.6886  -25.6278   21.1237 H   0  0  0  0  0  0
  -19.6775  -27.3186   20.6741 H   0  0  0  0  0  0
  -17.4214  -26.6726   21.3979 H   0  0  0  0  0  0
  -18.0310  -26.0098   22.8989 H   0  0  0  0  0  0
  -19.7908  -30.7309   24.2249 H   0  0  0  0  0  0
  -17.4974  -31.6265   24.5182 H   0  0  0  0  0  0
  -15.5332  -30.2969   23.7686 H   0  0  0  0  0  0
  -15.8653  -28.0845   22.7004 H   0  0  0  0  0  0
  -24.5639  -30.7651   25.7806 H   0  0  0  0  0  0
  -24.9557  -32.3084   26.5351 H   0  0  0  0  0  0
  -25.8135  -30.8498   27.0037 H   0  0  0  0  0  0
  -26.2771  -29.6717   24.1343 H   0  0  0  0  0  0
  -27.4287  -29.7361   25.4490 H   0  0  0  0  0  0
  -27.8555  -30.4311   23.9079 H   0  0  0  0  0  0
  -27.2853  -33.3759   26.1829 H   0  0  0  0  0  0
  -28.4141  -32.6581   25.0438 H   0  0  0  0  0  0
  -28.0534  -31.8492   26.5612 H   0  0  0  0  0  0
  -28.2571  -38.0097   24.7490 H   0  0  0  0  0  0
  -28.1117  -36.2626   24.6295 H   0  0  0  0  0  0
  -27.2309  -37.1439   25.8852 H   0  0  0  0  0  0
  -20.9222  -29.8747   21.7081 H   0  0  0  0  0  0
  -26.0164  -38.2817   24.1407 H   0  0  0  0  0  0
  -34.3501  -18.7430   22.5446 H   0  0  0  0  0  0
  -31.9820  -19.2716   22.3247 H   0  0  0  0  0  0
  -33.4658  -14.5389   22.5397 H   0  0  0  0  0  0
  -29.7045  -27.4374   24.6824 H   0  0  0  0  0  0
  -29.2903  -26.0257   25.6149 H   0  0  0  0  0  0
  -28.1403  -25.4664   18.4282 H   0  0  0  0  0  0
  -29.5760  -25.2007   19.3792 H   0  0  0  0  0  0
  -27.8878  -26.6993   22.9897 H   0  0  0  0  0  0
  -27.3497  -27.3441   24.5028 H   0  0  0  0  0  0
  -26.6881  -25.2926   25.4049 H   0  0  0  0  0  0
  -27.6962  -24.3354   24.3763 H   0  0  0  0  0  0
  -29.2859  -22.0055   24.0306 H   0  0  0  0  0  0
  -30.1819  -21.3586   22.6854 H   0  0  0  0  0  0
  -29.6676  -20.0530   25.3830 H   0  0  0  0  0  0
  -30.9341  -19.4469   24.3638 H   0  0  0  0  0  0
  -25.3707  -25.8487   23.1263 H   0  0  0  0  0  0
  -25.0933  -24.3817   24.0002 H   0  0  0  0  0  0
  -32.3203  -21.5211   23.9450 H   0  0  0  0  0  0
  -31.4829  -22.1872   25.3214 H   0  0  0  0  0  0
  -28.0355  -19.7890   23.4755 H   0  0  0  0  0  0
  -28.6312  -18.3120   24.1674 H   0  0  0  0  0  0
  -25.3785  -23.8078   21.6308 H   0  0  0  0  0  0
  -26.6903  -23.1160   22.5600 H   0  0  0  0  0  0
  -31.3629  -23.4522   22.5242 H   0  0  0  0  0  0
  -32.5760  -23.8947   23.7148 H   0  0  0  0  0  0
  -29.9687  -19.3911   21.6268 H   0  0  0  0  0  0
  -28.4577  -18.5680   21.5637 H   0  0  0  0  0  0
  -30.1953  -14.4836   22.6362 H   0  0  0  0  0  0
  -30.2216  -24.1567   25.1010 H   0  0  0  0  0  0
  -27.3408  -25.7622   21.6125 H   0  0  0  0  0  0
  1 25  1  0  0  0
  1 30  2  0  0  0
  1 92  1  0  0  0
  2  3  1  0  0  0
  2 25  1  0  0  0
  2101  1  0  0  0
  2102  1  0  0  0
  3  4  1  0  0  0
  3103  1  0  0  0
  3104  1  0  0  0
  4  5  1  0  0  0
  4105  1  0  0  0
  4106  1  0  0  0
  5  6  1  0  0  0
  5 26  1  0  0  0
  5107  1  0  0  0
  6 25  1  0  0  0
  6108  1  0  0  0
  6109  1  0  0  0
  7  8  2  0  0  0
  7 26  1  0  0  0
  7 29  1  0  0  0
  8  9  1  0  0  0
  8 22  1  0  0  0
  9 10  1  0  0  0
  9 27  2  0  0  0
 10 11  2  0  0  0
 10 15  1  0  0  0
 11 12  1  0  0  0
 11110  1  0  0  0
 12 13  2  0  0  0
 12111  1  0  0  0
 13 14  1  0  0  0
 13 31  1  0  0  0
 14 15  2  0  0  0
 14112  1  0  0  0
 15113  1  0  0  0
 16 17  2  0  0  0
 16 21  1  0  0  0
 16 31  1  0  0  0
 17 18  1  0  0  0
 17114  1  0  0  0
 18 19  2  0  0  0
 18115  1  0  0  0
 19 20  1  0  0  0
 19 24  1  0  0  0
 20 21  2  0  0  0
 20116  1  0  0  0
 21 23  1  0  0  0
 22 28  1  0  0  0
 22 32  2  0  0  0
 26 27  1  0  0  0
 28117  1  0  0  0
 28118  1  0  0  0
 29119  1  0  0  0
 29120  1  0  0  0
 33 34  1  0  0  0
 33 66  1  0  0  0
 33 70  2  0  0  0
 34 36  1  0  0  0
 34 59  1  0  0  0
 34121  1  0  0  0
 35 44  2  0  0  0
 35 45  1  0  0  0
 35 68  1  0  0  0
 36 56  1  0  0  0
 36122  1  0  0  0
 37 39  1  0  0  0
 37 47  1  0  0  0
 37 66  1  0  0  0
 37123  1  0  0  0
 38 43  2  0  0  0
 38 46  1  0  0  0
 38 47  1  0  0  0
 39 64  1  0  0  0
 39 67  2  0  0  0
 40 52  1  0  0  0
 40 53  2  0  0  0
 40 58  1  0  0  0
 41124  1  0  0  0
 41125  1  0  0  0
 41126  1  0  0  0
 41 48  1  0  0  0
 42 43  1  0  0  0
 42 66  1  0  0  0
 42127  1  0  0  0
 42128  1  0  0  0
 43 44  1  0  0  0
 44129  1  0  0  0
 45 46  2  0  0  0
 45130  1  0  0  0
 46131  1  0  0  0
 47132  1  0  0  0
 47133  1  0  0  0
 48 56  1  0  0  0
 48 65  1  0  0  0
 48134  1  0  0  0
 49 50  1  0  0  0
 49 53  1  0  0  0
 49 64  1  0  0  0
 49135  1  0  0  0
 50 51  1  0  0  0
 50136  1  0  0  0
 50137  1  0  0  0
 51 52  1  0  0  0
 51138  1  0  0  0
 51139  1  0  0  0
 52140  1  0  0  0
 52141  1  0  0  0
 53 54  1  0  0  0
 54 55  2  0  0  0
 54142  1  0  0  0
 55 57  1  0  0  0
 55143  1  0  0  0
 56 69  2  0  0  0
 57 58  2  0  0  0
 57144  1  0  0  0
 58145  1  0  0  0
 59 60  1  0  0  0
 59 61  1  0  0  0
 59 62  1  0  0  0
 60146  1  0  0  0
 60147  1  0  0  0
 60148  1  0  0  0
 61149  1  0  0  0
 61150  1  0  0  0
 61151  1  0  0  0
 62152  1  0  0  0
 62153  1  0  0  0
 62154  1  0  0  0
 63 65  1  0  0  0
 63155  1  0  0  0
 63156  1  0  0  0
 63157  1  0  0  0
 64158  1  0  0  0
 65159  1  0  0  0
 68 80  1  0  0  0
 71 72  2  0  0  0
 71 74  1  0  0  0
 71160  1  0  0  0
 72 76  1  0  0  0
 72161  1  0  0  0
 73 74  2  0  0  0
 73 75  1  0  0  0
 73162  1  0  0  0
 74 91  1  0  0  0
 75 76  2  0  0  0
 75 92  1  0  0  0
 76 97  1  0  0  0
 77 79  1  0  0  0
 77 93  1  0  0  0
 77 95  2  0  0  0
 78 80  1  0  0  0
 78 94  1  0  0  0
 78 96  2  0  0  0
 79 81  1  0  0  0
 79163  1  0  0  0
 79164  1  0  0  0
 80165  1  0  0  0
 80166  1  0  0  0
 81 82  1  0  0  0
 81167  1  0  0  0
 81168  1  0  0  0
 82 85  1  0  0  0
 82169  1  0  0  0
 82170  1  0  0  0
 83 84  1  0  0  0
 83 86  1  0  0  0
 83171  1  0  0  0
 83172  1  0  0  0
 84 87  1  0  0  0
 84173  1  0  0  0
 84174  1  0  0  0
 85 88  1  0  0  0
 85175  1  0  0  0
 85176  1  0  0  0
 86 89  1  0  0  0
 86177  1  0  0  0
 86178  1  0  0  0
 87 90  1  0  0  0
 87179  1  0  0  0
 87180  1  0  0  0
 88 94  1  0  0  0
 88181  1  0  0  0
 88182  1  0  0  0
 89 93  1  0  0  0
 89183  1  0  0  0
 89184  1  0  0  0
 90 97  1  0  0  0
 90185  1  0  0  0
 90186  1  0  0  0
 91 98  1  0  0  0
 91 99  1  0  0  0
 91100  1  0  0  0
 92187  1  0  0  0
 93188  1  0  0  0
 94189  1  0  0  0
M  ISO  4   1 100  68 101  80 101  92 100
M  END
> <chiral flag>
0

> <version>
0

> <s_m_source_file>
/data/baiqing/PycharmProjects/Reinvent-master-3.2/result/LINK_invent/BTK/process_docking_weight1_custom_sum_contain_oxygen_bond_distance_aromatic_linkinvent_7_9_3/rearranged_h_0005.sdf

> <i_m_source_file_index>
55

> <r_mmod_Potential_Energy-OPLS-2005>
-148.32942199707

> <r_mmod_Stretch_Energy-OPLS-2005>
37.1829948425293

> <r_mmod_Bend_Energy-OPLS-2005>
124.343948364258

> <r_mmod_Torsional_Energy-OPLS-2005>
263.932037353516

> <r_mmod_Improper_Torsional_Energy-OPLS-2005>
5.79832315444946

> <r_mmod_Van_der_Waal_Energy-OPLS-2005>
141.151550292969

> <r_mmod_Electrostatic_Energy-OPLS-2005>
-495.994506835938

> <r_mmod_Solvation_Energy-OPLS-2005>
-238.124221801758

> <b_mmod_Minimization_Converged-OPLS-2005>
0

> <r_mmod_RMS_Derivative-OPLS-2005>
6.04305410385132

$$$$
55
                    3D
 Structure written by MMmdl.
190199  0  0  1  0            999 V2000
  -30.7637  -14.3666   20.7039 C   0  0  0  0  0  0
  -30.4181  -12.2988   19.3906 C   0  0  0  0  0  0
  -29.4827  -12.5366   18.1923 C   0  0  0  0  0  0
  -28.0078  -12.3827   18.6096 C   0  0  0  0  0  0
  -27.6678  -13.1939   19.8868 C   0  0  2  0  0  0
  -28.7084  -12.9152   20.9927 C   0  0  0  0  0  0
  -25.2588  -13.8036   20.5534 C   0  0  0  0  0  0
  -24.1836  -13.0376   20.9113 C   0  0  0  0  0  0
  -24.6394  -11.6849   20.8748 C   0  0  0  0  0  0
  -23.9030  -10.4258   21.0431 C   0  0  0  0  0  0
  -24.3567   -9.4194   21.9238 C   0  0  0  0  0  0
  -23.6249   -8.2229   22.0798 C   0  0  0  0  0  0
  -22.4252   -8.0245   21.3555 C   0  0  0  0  0  0
  -21.9892   -9.0203   20.4638 C   0  0  0  0  0  0
  -22.7218  -10.2098   20.3059 C   0  0  0  0  0  0
  -21.6833   -6.0710   22.5269 C   0  0  0  0  0  0
  -21.3982   -6.5623   23.8199 C   0  0  0  0  0  0
  -21.3663   -5.6790   24.9163 C   0  0  0  0  0  0
  -21.6070   -4.3051   24.7233 C   0  0  0  0  0  0
  -21.8817   -3.8131   23.4350 C   0  0  0  0  0  0
  -21.9180   -4.6936   22.3406 C   0  0  0  0  0  0
  -22.7875  -13.5226   21.1788 C   0  0  0  0  0  0
  -22.1633   -4.2116   21.0978 F   0  0  0  0  0  0
  -21.5651   -3.4559   25.7761 F   0  0  0  0  0  0
  -30.0408  -13.2391   20.4575 N   0  0  0  0  0  0
  -26.3073  -12.9227   20.3428 N   0  0  0  0  0  0
  -25.9336  -11.6400   20.5840 N   0  0  0  0  0  0
  -22.0520  -12.8220   22.0351 N   0  0  0  0  0  0
  -25.4278  -15.1671   20.3691 N   0  0  0  0  0  0
  -31.7903  -14.6443   20.0724 O   0  0  0  0  0  0
  -21.6621   -6.8847   21.4238 O   0  0  0  0  0  0
  -22.3632  -14.5600   20.6702 O   0  0  0  0  0  0
  -24.6094  -31.8708   23.2133 C   0  0  0  0  0  0
  -25.9004  -32.4829   23.8420 C   0  0  1  0  0  0
  -27.2509  -27.4831   20.0771 C   0  0  0  0  0  0
  -25.5883  -33.8621   24.2343 N   0  0  0  0  0  0
  -23.3974  -30.4949   21.5534 C   0  0  2  0  0  0
  -24.8457  -28.9679   20.1166 C   0  0  0  0  0  0
  -22.7407  -29.4670   22.5017 C   0  0  0  0  0  0
  -18.0279  -28.1360   22.8478 C   0  0  0  0  0  0
  -24.1493  -36.7325   23.2639 C   0  0  0  0  0  0
  -25.9214  -30.8465   21.3667 C   0  0  0  0  0  0
  -25.9994  -29.4843   20.7161 C   0  0  0  0  0  0
  -27.1984  -28.7437   20.7046 C   0  0  0  0  0  0
  -26.0855  -26.9896   19.4452 C   0  0  0  0  0  0
  -24.8805  -27.7147   19.4829 C   0  0  0  0  0  0
  -23.6047  -29.8257   20.1679 C   0  0  0  0  0  0
  -25.4105  -36.3109   24.0344 C   0  0  1  0  0  0
  -20.5866  -28.3643   23.1320 C   0  0  2  0  0  0
  -20.6788  -26.9396   22.5410 C   0  0  0  0  0  0
  -19.5780  -26.6357   21.5197 C   0  0  0  0  0  0
  -18.1956  -26.7910   22.1605 C   0  0  0  0  0  0
  -19.1521  -28.8822   23.2888 C   0  0  0  0  0  0
  -18.9429  -30.1421   23.8904 C   0  0  0  0  0  0
  -17.6427  -30.6559   24.0541 C   0  0  0  0  0  0
  -25.9027  -34.9476   23.5146 C   0  0  0  0  0  0
  -16.5332  -29.9047   23.6280 C   0  0  0  0  0  0
  -16.7262  -28.6465   23.0311 C   0  0  0  0  0  0
  -26.4458  -31.6601   25.0732 C   0  0  0  0  0  0
  -25.3732  -31.3711   26.1491 C   0  0  0  0  0  0
  -27.0295  -30.3050   24.6090 C   0  0  0  0  0  0
  -27.6042  -32.4327   25.7476 C   0  0  0  0  0  0
  -27.5584  -37.1814   24.8465 C   0  0  0  0  0  0
  -21.4126  -29.3023   22.3743 N   0  0  0  0  0  0
  -26.4293  -37.3788   23.9414 N   0  0  0  0  0  0
  -24.6598  -31.0844   22.1025 N   0  0  0  0  0  0
  -23.4195  -28.8221   23.3054 O   0  0  0  0  0  0
  -28.4517  -26.8088   20.1116 O   0  0  0  0  0  0
  -26.5581  -34.8925   22.4696 O   0  0  0  0  0  0
  -23.5303  -32.1449   23.7555 O   0  0  0  0  0  0
  -28.2026  -16.0141   22.4927 C   0  0  0  0  0  0
  -29.4072  -17.1195   20.6897 C   0  0  0  0  0  0
  -27.1858  -16.9835   22.4132 C   0  0  0  0  0  0
  -28.3905  -18.0930   20.6167 C   0  0  0  0  0  0
  -23.4636  -22.1258   20.1587 C   0  0  0  0  0  0
  -25.2318  -23.4112   21.9318 C   0  0  0  0  0  0
  -24.5668  -22.8428   19.6581 C   0  0  0  0  0  0
  -24.1171  -22.7161   22.4390 C   0  0  0  0  0  0
  -29.3191  -16.0680   21.6299 C   0  0  0  0  0  0
  -23.2629  -22.0172   21.5546 C   0  0  0  0  0  0
  -27.2706  -18.0308   21.4696 C   0  0  0  0  0  0
  -25.4836  -23.4475   20.5414 C   0  0  0  0  0  0
  -22.1581  -19.8967   21.6908 C   0  0  0  0  0  0
  -24.7932  -22.9385   18.1598 C   0  0  0  0  0  0
  -23.8765  -22.6955   23.9400 C   0  0  0  0  0  0
  -31.4800  -15.6544   26.6680 C   0  0  0  0  0  0
  -22.6967  -18.8196   22.6340 C   0  0  0  0  0  0
  -32.0188  -15.5163   25.2415 C   0  0  0  0  0  0
  -24.2451  -18.8541   22.7120 C   0  0  0  0  0  0
  -30.8917  -15.4352   24.2033 C   0  0  0  0  0  0
  -31.4164  -15.4440   22.7556 C   0  0  0  0  0  0
  -24.9535  -18.6227   21.3589 C   0  0  0  0  0  0
  -28.4988  -25.4122   19.8328 C   0  0  0  0  0  0
  -27.6163  -24.5732   20.7793 C   0  0  0  0  0  0
  -22.2845  -21.1599   22.1123 N   0  0  0  0  0  0
  -30.3769  -15.1188   21.7650 N   0  0  0  0  0  0
  -21.6747  -19.5886   20.5998 O   0  0  0  0  0  0
  -26.3219  -19.0214   21.3704 O   0  0  0  0  0  0
  -26.5809  -24.0368   19.9675 O   0  0  0  0  0  0
  -31.4603  -12.4039   19.0842 H   0  0  0  0  0  0
  -30.3170  -11.2746   19.7538 H   0  0  0  0  0  0
  -29.7198  -11.8435   17.3858 H   0  0  0  0  0  0
  -29.6462  -13.5393   17.7902 H   0  0  0  0  0  0
  -27.8178  -11.3224   18.7858 H   0  0  0  0  0  0
  -27.3509  -12.6772   17.7907 H   0  0  0  0  0  0
  -27.7288  -14.2493   19.6242 H   0  0  0  0  0  0
  -28.4697  -13.4420   21.9125 H   0  0  0  0  0  0
  -28.6795  -11.8615   21.2742 H   0  0  0  0  0  0
  -25.2696   -9.5668   22.4839 H   0  0  0  0  0  0
  -23.9937   -7.4638   22.7531 H   0  0  0  0  0  0
  -21.0860   -8.8695   19.8901 H   0  0  0  0  0  0
  -22.3704  -10.9612   19.6130 H   0  0  0  0  0  0
  -21.1948   -7.6129   23.9700 H   0  0  0  0  0  0
  -21.1490   -6.0512   25.9067 H   0  0  0  0  0  0
  -22.0600   -2.7590   23.2866 H   0  0  0  0  0  0
  -22.4098  -11.9788   22.4612 H   0  0  0  0  0  0
  -21.1199  -13.1319   22.2680 H   0  0  0  0  0  0
  -24.6640  -15.8226   20.4800 H   0  0  0  0  0  0
  -26.3099  -15.6061   20.1411 H   0  0  0  0  0  0
  -26.7079  -32.5573   23.1202 H   0  0  0  0  0  0
  -25.0075  -33.9811   25.0511 H   0  0  0  0  0  0
  -22.6846  -31.3093   21.4140 H   0  0  0  0  0  0
  -23.3743  -35.9671   23.3313 H   0  0  0  0  0  0
  -24.3593  -36.8921   22.2052 H   0  0  0  0  0  0
  -23.7266  -37.6547   23.6638 H   0  0  0  0  0  0
  -26.0334  -31.6130   20.5988 H   0  0  0  0  0  0
  -26.8101  -30.8987   21.9838 H   0  0  0  0  0  0
  -28.0883  -29.1390   21.1731 H   0  0  0  0  0  0
  -26.0953  -26.0612   18.8982 H   0  0  0  0  0  0
  -23.9993  -27.3176   18.9982 H   0  0  0  0  0  0
  -23.7089  -30.6009   19.4076 H   0  0  0  0  0  0
  -22.7321  -29.2401   19.8736 H   0  0  0  0  0  0
  -25.1280  -36.1982   25.0833 H   0  0  0  0  0  0
  -20.9932  -28.3224   24.1440 H   0  0  0  0  0  0
  -20.5697  -26.2267   23.3601 H   0  0  0  0  0  0
  -21.6668  -26.7409   22.1205 H   0  0  0  0  0  0
  -19.6959  -25.6260   21.1251 H   0  0  0  0  0  0
  -19.6728  -27.3146   20.6708 H   0  0  0  0  0  0
  -17.4247  -26.6638   21.3993 H   0  0  0  0  0  0
  -18.0341  -26.0033   22.8985 H   0  0  0  0  0  0
  -19.7902  -30.7225   24.2293 H   0  0  0  0  0  0
  -17.4953  -31.6243   24.5137 H   0  0  0  0  0  0
  -15.5324  -30.2926   23.7573 H   0  0  0  0  0  0
  -15.8671  -28.0799   22.6989 H   0  0  0  0  0  0
  -24.5869  -30.7094   25.7842 H   0  0  0  0  0  0
  -24.8960  -32.2882   26.4973 H   0  0  0  0  0  0
  -25.8084  -30.8850   27.0229 H   0  0  0  0  0  0
  -26.2836  -29.6810   24.1154 H   0  0  0  0  0  0
  -27.4112  -29.7290   25.4532 H   0  0  0  0  0  0
  -27.8652  -30.4414   23.9209 H   0  0  0  0  0  0
  -27.2647  -33.3606   26.2107 H   0  0  0  0  0  0
  -28.3808  -32.6930   25.0257 H   0  0  0  0  0  0
  -28.0771  -31.8418   26.5346 H   0  0  0  0  0  0
  -28.2605  -38.0105   24.7489 H   0  0  0  0  0  0
  -28.1068  -36.2635   24.6297 H   0  0  0  0  0  0
  -27.2306  -37.1478   25.8868 H   0  0  0  0  0  0
  -20.9234  -29.8750   21.7012 H   0  0  0  0  0  0
  -26.0190  -38.2875   24.1380 H   0  0  0  0  0  0
  -28.1276  -15.2375   23.2405 H   0  0  0  0  0  0
  -30.2653  -17.2028   20.0358 H   0  0  0  0  0  0
  -26.3574  -16.9156   23.1009 H   0  0  0  0  0  0
  -28.4760  -18.8985   19.9009 H   0  0  0  0  0  0
  -22.7992  -21.6311   19.4643 H   0  0  0  0  0  0
  -25.8946  -23.8964   22.6318 H   0  0  0  0  0  0
  -24.0031  -22.4508   17.5919 H   0  0  0  0  0  0
  -25.7395  -22.4707   17.8907 H   0  0  0  0  0  0
  -24.8334  -23.9825   17.8513 H   0  0  0  0  0  0
  -24.5180  -23.4089   24.4566 H   0  0  0  0  0  0
  -24.0708  -21.7074   24.3541 H   0  0  0  0  0  0
  -22.8448  -22.9684   24.1652 H   0  0  0  0  0  0
  -32.2889  -15.6148   27.3988 H   0  0  0  0  0  0
  -30.7767  -14.8581   26.9076 H   0  0  0  0  0  0
  -30.9640  -16.6072   26.7971 H   0  0  0  0  0  0
  -22.3652  -17.8402   22.2896 H   0  0  0  0  0  0
  -22.2668  -18.9610   23.6246 H   0  0  0  0  0  0
  -32.6467  -14.6257   25.1780 H   0  0  0  0  0  0
  -32.6675  -16.3653   25.0201 H   0  0  0  0  0  0
  -24.5726  -18.1140   23.4398 H   0  0  0  0  0  0
  -24.5687  -19.8129   23.1158 H   0  0  0  0  0  0
  -30.2130  -16.2771   24.3522 H   0  0  0  0  0  0
  -30.3114  -14.5287   24.3821 H   0  0  0  0  0  0
  -32.2416  -14.7291   22.6902 H   0  0  0  0  0  0
  -31.8410  -16.4187   22.5137 H   0  0  0  0  0  0
  -24.4925  -19.2192   20.5720 H   0  0  0  0  0  0
  -24.8250  -17.5904   21.0402 H   0  0  0  0  0  0
  -28.2678  -25.2290   18.7837 H   0  0  0  0  0  0
  -29.5399  -25.1097   19.9539 H   0  0  0  0  0  0
  -27.2388  -25.1984   21.5883 H   0  0  0  0  0  0
  -28.1858  -23.7587   21.2279 H   0  0  0  0  0  0
  -22.2660  -21.2250   23.1193 H   0  0  0  0  0  0
  1 25  1  0  0  0
  1 30  2  0  0  0
  1 96  1  0  0  0
  2  3  1  0  0  0
  2 25  1  0  0  0
  2100  1  0  0  0
  2101  1  0  0  0
  3  4  1  0  0  0
  3102  1  0  0  0
  3103  1  0  0  0
  4  5  1  0  0  0
  4104  1  0  0  0
  4105  1  0  0  0
  5  6  1  0  0  0
  5 26  1  0  0  0
  5106  1  0  0  0
  6 25  1  0  0  0
  6107  1  0  0  0
  6108  1  0  0  0
  7  8  2  0  0  0
  7 26  1  0  0  0
  7 29  1  0  0  0
  8  9  1  0  0  0
  8 22  1  0  0  0
  9 10  1  0  0  0
  9 27  2  0  0  0
 10 11  2  0  0  0
 10 15  1  0  0  0
 11 12  1  0  0  0
 11109  1  0  0  0
 12 13  2  0  0  0
 12110  1  0  0  0
 13 14  1  0  0  0
 13 31  1  0  0  0
 14 15  2  0  0  0
 14111  1  0  0  0
 15112  1  0  0  0
 16 17  2  0  0  0
 16 21  1  0  0  0
 16 31  1  0  0  0
 17 18  1  0  0  0
 17113  1  0  0  0
 18 19  2  0  0  0
 18114  1  0  0  0
 19 20  1  0  0  0
 19 24  1  0  0  0
 20 21  2  0  0  0
 20115  1  0  0  0
 21 23  1  0  0  0
 22 28  1  0  0  0
 22 32  2  0  0  0
 26 27  1  0  0  0
 28116  1  0  0  0
 28117  1  0  0  0
 29118  1  0  0  0
 29119  1  0  0  0
 33 34  1  0  0  0
 33 66  1  0  0  0
 33 70  2  0  0  0
 34 36  1  0  0  0
 34 59  1  0  0  0
 34120  1  0  0  0
 35 44  2  0  0  0
 35 45  1  0  0  0
 35 68  1  0  0  0
 36 56  1  0  0  0
 36121  1  0  0  0
 37 39  1  0  0  0
 37 47  1  0  0  0
 37 66  1  0  0  0
 37122  1  0  0  0
 38 43  2  0  0  0
 38 46  1  0  0  0
 38 47  1  0  0  0
 39 64  1  0  0  0
 39 67  2  0  0  0
 40 52  1  0  0  0
 40 53  2  0  0  0
 40 58  1  0  0  0
 41123  1  0  0  0
 41124  1  0  0  0
 41125  1  0  0  0
 41 48  1  0  0  0
 42 43  1  0  0  0
 42 66  1  0  0  0
 42126  1  0  0  0
 42127  1  0  0  0
 43 44  1  0  0  0
 44128  1  0  0  0
 45 46  2  0  0  0
 45129  1  0  0  0
 46130  1  0  0  0
 47131  1  0  0  0
 47132  1  0  0  0
 48 56  1  0  0  0
 48 65  1  0  0  0
 48133  1  0  0  0
 49 50  1  0  0  0
 49 53  1  0  0  0
 49 64  1  0  0  0
 49134  1  0  0  0
 50 51  1  0  0  0
 50135  1  0  0  0
 50136  1  0  0  0
 51 52  1  0  0  0
 51137  1  0  0  0
 51138  1  0  0  0
 52139  1  0  0  0
 52140  1  0  0  0
 53 54  1  0  0  0
 54 55  2  0  0  0
 54141  1  0  0  0
 55 57  1  0  0  0
 55142  1  0  0  0
 56 69  2  0  0  0
 57 58  2  0  0  0
 57143  1  0  0  0
 58144  1  0  0  0
 59 60  1  0  0  0
 59 61  1  0  0  0
 59 62  1  0  0  0
 60145  1  0  0  0
 60146  1  0  0  0
 60147  1  0  0  0
 61148  1  0  0  0
 61149  1  0  0  0
 61150  1  0  0  0
 62151  1  0  0  0
 62152  1  0  0  0
 62153  1  0  0  0
 63 65  1  0  0  0
 63154  1  0  0  0
 63155  1  0  0  0
 63156  1  0  0  0
 64157  1  0  0  0
 65158  1  0  0  0
 68 93  1  0  0  0
 71 73  2  0  0  0
 71 79  1  0  0  0
 71159  1  0  0  0
 72 74  1  0  0  0
 72 79  2  0  0  0
 72160  1  0  0  0
 73 81  1  0  0  0
 73161  1  0  0  0
 74 81  2  0  0  0
 74162  1  0  0  0
 75 77  2  0  0  0
 75 80  1  0  0  0
 75163  1  0  0  0
 76 78  1  0  0  0
 76 82  2  0  0  0
 76164  1  0  0  0
 77 82  1  0  0  0
 77 84  1  0  0  0
 78 80  2  0  0  0
 78 85  1  0  0  0
 79 96  1  0  0  0
 80 95  1  0  0  0
 81 98  1  0  0  0
 82 99  1  0  0  0
 83 87  1  0  0  0
 83 95  1  0  0  0
 83 97  2  0  0  0
 84165  1  0  0  0
 84166  1  0  0  0
 84167  1  0  0  0
 85168  1  0  0  0
 85169  1  0  0  0
 85170  1  0  0  0
 86 88  1  0  0  0
 86171  1  0  0  0
 86172  1  0  0  0
 86173  1  0  0  0
 87 89  1  0  0  0
 87174  1  0  0  0
 87175  1  0  0  0
 88 90  1  0  0  0
 88176  1  0  0  0
 88177  1  0  0  0
 89 92  1  0  0  0
 89178  1  0  0  0
 89179  1  0  0  0
 90 91  1  0  0  0
 90180  1  0  0  0
 90181  1  0  0  0
 91 96  1  0  0  0
 91182  1  0  0  0
 91183  1  0  0  0
 92 98  1  0  0  0
 92184  1  0  0  0
 92185  1  0  0  0
 93 94  1  0  0  0
 93186  1  0  0  0
 93187  1  0  0  0
 94 99  1  0  0  0
 94188  1  0  0  0
 94189  1  0  0  0
 95190  1  0  0  0
M  ISO  4   1 100  68 101  93 101  96 100
M  END
> <chiral flag>
0

> <version>
0

> <s_m_source_file>
/data/baiqing/PycharmProjects/Reinvent-master-3.2/result/LINK_invent/BTK/process_docking_weight1_custom_sum_contain_oxygen_bond_distance_aromatic_linkinvent_7_9_3/rearranged_h_0005.sdf

> <i_m_source_file_index>
56

> <r_mmod_Potential_Energy-OPLS-2005>
106.364051818848

> <r_mmod_Stretch_Energy-OPLS-2005>
36.3814697265625

> <r_mmod_Bend_Energy-OPLS-2005>
126.853294372559

> <r_mmod_Torsional_Energy-OPLS-2005>
366.336090087891

> <r_mmod_Improper_Torsional_Energy-OPLS-2005>
9.40494537353516

> <r_mmod_Van_der_Waal_Energy-OPLS-2005>
170.183547973633

> <r_mmod_Electrostatic_Energy-OPLS-2005>
-403.247711181641

> <r_mmod_Solvation_Energy-OPLS-2005>
-208.81266784668

> <b_mmod_Minimization_Converged-OPLS-2005>
0

> <r_mmod_RMS_Derivative-OPLS-2005>
3.59802198410034

$$$$
56
                    3D
 Structure written by MMmdl.
213221  0  0  1  0            999 V2000
  -30.7783  -14.4339   20.6103 C   0  0  0  0  0  0
  -30.4048  -12.3030   19.4241 C   0  0  0  0  0  0
  -29.4836  -12.5229   18.2059 C   0  0  0  0  0  0
  -28.0034  -12.3869   18.6085 C   0  0  0  0  0  0
  -27.6644  -13.1959   19.8872 C   0  0  2  0  0  0
  -28.7127  -12.9235   20.9938 C   0  0  0  0  0  0
  -25.2601  -13.8155   20.5683 C   0  0  0  0  0  0
  -24.1828  -13.0429   20.9179 C   0  0  0  0  0  0
  -24.6377  -11.6907   20.8745 C   0  0  0  0  0  0
  -23.9041  -10.4292   21.0402 C   0  0  0  0  0  0
  -24.3600   -9.4209   21.9189 C   0  0  0  0  0  0
  -23.6289   -8.2220   22.0765 C   0  0  0  0  0  0
  -22.4261   -8.0265   21.3555 C   0  0  0  0  0  0
  -21.9880   -9.0237   20.4649 C   0  0  0  0  0  0
  -22.7206  -10.2134   20.3054 C   0  0  0  0  0  0
  -21.6854   -6.0724   22.5277 C   0  0  0  0  0  0
  -21.4008   -6.5642   23.8206 C   0  0  0  0  0  0
  -21.3648   -5.6792   24.9166 C   0  0  0  0  0  0
  -21.6058   -4.3058   24.7218 C   0  0  0  0  0  0
  -21.8819   -3.8148   23.4335 C   0  0  0  0  0  0
  -21.9185   -4.6954   22.3387 C   0  0  0  0  0  0
  -22.7870  -13.5259   21.1820 C   0  0  0  0  0  0
  -22.1658   -4.2135   21.0967 F   0  0  0  0  0  0
  -21.5643   -3.4542   25.7732 F   0  0  0  0  0  0
  -30.0365  -13.2864   20.4672 N   0  0  0  0  0  0
  -26.3039  -12.9300   20.3458 N   0  0  0  0  0  0
  -25.9306  -11.6468   20.5806 N   0  0  0  0  0  0
  -22.0519  -12.8232   22.0378 N   0  0  0  0  0  0
  -25.4330  -15.1844   20.4045 N   0  0  0  0  0  0
  -31.8386  -14.5330   19.9818 O   0  0  0  0  0  0
  -21.6641   -6.8860   21.4240 O   0  0  0  0  0  0
  -22.3545  -14.5546   20.6670 O   0  0  0  0  0  0
  -24.6121  -31.8751   23.2077 C   0  0  0  0  0  0
  -25.9027  -32.4857   23.8426 C   0  0  1  0  0  0
  -27.2392  -27.4830   20.0677 C   0  0  0  0  0  0
  -25.5910  -33.8679   24.2335 N   0  0  0  0  0  0
  -23.3985  -30.4954   21.5498 C   0  0  2  0  0  0
  -24.8422  -28.9716   20.1013 C   0  0  0  0  0  0
  -22.7395  -29.4711   22.4993 C   0  0  0  0  0  0
  -18.0280  -28.1358   22.8495 C   0  0  0  0  0  0
  -24.1462  -36.7306   23.2636 C   0  0  0  0  0  0
  -25.9275  -30.8388   21.3693 C   0  0  0  0  0  0
  -25.9978  -29.4829   20.7051 C   0  0  0  0  0  0
  -27.1969  -28.7427   20.6952 C   0  0  0  0  0  0
  -26.0815  -27.0007   19.4120 C   0  0  0  0  0  0
  -24.8772  -27.7272   19.4491 C   0  0  0  0  0  0
  -23.5990  -29.8251   20.1632 C   0  0  0  0  0  0
  -25.4104  -36.3167   24.0326 C   0  0  1  0  0  0
  -20.5855  -28.3710   23.1291 C   0  0  2  0  0  0
  -20.6812  -26.9469   22.5370 C   0  0  0  0  0  0
  -19.5771  -26.6377   21.5225 C   0  0  0  0  0  0
  -18.1962  -26.7897   22.1638 C   0  0  0  0  0  0
  -19.1522  -28.8844   23.2888 C   0  0  0  0  0  0
  -18.9450  -30.1458   23.8875 C   0  0  0  0  0  0
  -17.6444  -30.6573   24.0548 C   0  0  0  0  0  0
  -25.9038  -34.9527   23.5122 C   0  0  0  0  0  0
  -16.5341  -29.9065   23.6305 C   0  0  0  0  0  0
  -16.7261  -28.6486   23.0313 C   0  0  0  0  0  0
  -26.4441  -31.6667   25.0782 C   0  0  0  0  0  0
  -25.3710  -31.3806   26.1542 C   0  0  0  0  0  0
  -27.0265  -30.3092   24.6179 C   0  0  0  0  0  0
  -27.6001  -32.4457   25.7507 C   0  0  0  0  0  0
  -27.5579  -37.1804   24.8448 C   0  0  0  0  0  0
  -21.4126  -29.3111   22.3750 N   0  0  0  0  0  0
  -26.4296  -37.3856   23.9389 N   0  0  0  0  0  0
  -24.6633  -31.0847   22.0984 N   0  0  0  0  0  0
  -23.4167  -28.8240   23.3019 O   0  0  0  0  0  0
  -28.4029  -26.7490   20.1440 O   0  0  0  0  0  0
  -26.5618  -34.8979   22.4701 O   0  0  0  0  0  0
  -23.5306  -32.1534   23.7419 O   0  0  0  0  0  0
  -32.3999  -18.5335   20.5920 C   0  0  0  0  0  0
  -33.4720  -17.4010   22.4628 C   0  0  0  0  0  0
  -31.3501  -17.5975   20.6266 C   0  0  0  0  0  0
  -32.4241  -16.4546   22.4976 C   0  0  0  0  0  0
  -33.4792  -18.4383   21.5013 C   0  0  0  0  0  0
  -31.3795  -16.5297   21.5512 C   0  0  0  0  0  0
  -34.6959  -19.3175   21.3486 C   0  0  0  0  0  0
  -25.0877  -18.7064   23.1466 C   0  0  0  0  0  0
  -27.4206  -25.0479   21.6345 C   0  0  0  0  0  0
  -28.9867  -15.5607   23.4786 C   0  0  0  0  0  0
  -35.6432  -21.5135   20.7839 C   0  0  0  0  0  0
  -22.7588  -18.0173   22.7586 C   0  0  0  0  0  0
  -26.2459  -19.6996   22.9202 C   0  0  0  0  0  0
  -28.2912  -25.3359   20.3882 C   0  0  0  0  0  0
  -27.0898  -20.0021   24.1729 C   0  0  0  0  0  0
  -27.8872  -21.3079   24.0071 C   0  0  0  0  0  0
  -28.8739  -21.5667   25.1516 C   0  0  0  0  0  0
  -29.4784  -22.9819   25.0676 C   0  0  0  0  0  0
  -30.8139  -23.1484   25.8168 C   0  0  0  0  0  0
  -31.9581  -22.2566   25.2947 C   0  0  0  0  0  0
  -32.1419  -22.3118   23.7682 C   0  0  0  0  0  0
  -23.9818  -22.5849   21.7416 C   0  0  0  0  0  0
  -33.2955  -21.4386   23.2698 C   0  0  0  0  0  0
  -24.4269  -23.5947   22.8152 C   0  0  0  0  0  0
  -23.3708  -21.3241   22.3805 C   0  0  0  0  0  0
  -29.0992  -15.8409   21.9704 C   0  0  0  0  0  0
  -25.0000  -24.9006   22.2495 C   0  0  0  0  0  0
  -33.3763  -21.4196   21.7317 C   0  0  0  0  0  0
  -23.6353  -20.0199   21.5959 C   0  0  0  0  0  0
  -26.1550  -24.6855   21.3815 N   0  0  0  0  0  0
  -30.4218  -15.4750   21.4368 N   0  0  0  0  0  0
  -34.5435  -20.6634   21.2532 N   0  0  0  0  0  0
  -23.8983  -18.9063   22.5198 N   0  0  0  0  0  0
  -35.8018  -18.7707   21.2774 O   0  0  0  0  0  0
  -25.2724  -17.7500   23.9057 O   0  0  0  0  0  0
  -27.8493  -25.2612   22.7708 O   0  0  0  0  0  0
  -31.4486  -12.3584   19.1150 H   0  0  0  0  0  0
  -30.2967  -11.2873   19.8108 H   0  0  0  0  0  0
  -29.7246  -11.8023   17.4228 H   0  0  0  0  0  0
  -29.6569  -13.5144   17.7861 H   0  0  0  0  0  0
  -27.8025  -11.3302   18.7790 H   0  0  0  0  0  0
  -27.3584  -12.6929   17.7822 H   0  0  0  0  0  0
  -27.7214  -14.2476   19.6104 H   0  0  0  0  0  0
  -28.7012  -11.8617   21.2412 H   0  0  0  0  0  0
  -28.4699  -13.3950   21.9371 H   0  0  0  0  0  0
  -25.2752   -9.5698   22.4770 H   0  0  0  0  0  0
  -24.0020   -7.4610   22.7478 H   0  0  0  0  0  0
  -21.0821   -8.8736   19.8937 H   0  0  0  0  0  0
  -22.3658  -10.9677   19.6160 H   0  0  0  0  0  0
  -21.1995   -7.6154   23.9705 H   0  0  0  0  0  0
  -21.1485   -6.0534   25.9079 H   0  0  0  0  0  0
  -22.0605   -2.7604   23.2850 H   0  0  0  0  0  0
  -22.4133  -11.9880   22.4736 H   0  0  0  0  0  0
  -21.1143  -13.1255   22.2580 H   0  0  0  0  0  0
  -24.6653  -15.8397   20.5033 H   0  0  0  0  0  0
  -26.2872  -15.6188   20.0808 H   0  0  0  0  0  0
  -26.7163  -32.5500   23.1243 H   0  0  0  0  0  0
  -25.0144  -33.9912   25.0538 H   0  0  0  0  0  0
  -22.6871  -31.3120   21.4098 H   0  0  0  0  0  0
  -23.3785  -35.9579   23.3312 H   0  0  0  0  0  0
  -24.3539  -36.8918   22.2044 H   0  0  0  0  0  0
  -23.7162  -37.6496   23.6641 H   0  0  0  0  0  0
  -26.0674  -31.6049   20.6067 H   0  0  0  0  0  0
  -26.8094  -30.8748   21.9975 H   0  0  0  0  0  0
  -28.0798  -29.1329   21.1853 H   0  0  0  0  0  0
  -26.1000  -26.0584   18.8852 H   0  0  0  0  0  0
  -23.9974  -27.3394   18.9512 H   0  0  0  0  0  0
  -23.6850  -30.5960   19.3984 H   0  0  0  0  0  0
  -22.7308  -29.2252   19.8815 H   0  0  0  0  0  0
  -25.1285  -36.2060   25.0825 H   0  0  0  0  0  0
  -20.9909  -28.3249   24.1420 H   0  0  0  0  0  0
  -20.5854  -26.2334   23.3574 H   0  0  0  0  0  0
  -21.6679  -26.7623   22.1090 H   0  0  0  0  0  0
  -19.6966  -25.6279   21.1283 H   0  0  0  0  0  0
  -19.6642  -27.3167   20.6739 H   0  0  0  0  0  0
  -17.4278  -26.6621   21.3994 H   0  0  0  0  0  0
  -18.0376  -26.0035   22.9017 H   0  0  0  0  0  0
  -19.7910  -30.7347   24.2211 H   0  0  0  0  0  0
  -17.4970  -31.6240   24.5175 H   0  0  0  0  0  0
  -15.5331  -30.2954   23.7659 H   0  0  0  0  0  0
  -15.8669  -28.0822   22.6977 H   0  0  0  0  0  0
  -24.5760  -30.7298   25.7867 H   0  0  0  0  0  0
  -24.9059  -32.3011   26.5079 H   0  0  0  0  0  0
  -25.8055  -30.8868   27.0248 H   0  0  0  0  0  0
  -26.2824  -29.6874   24.1172 H   0  0  0  0  0  0
  -27.3978  -29.7282   25.4637 H   0  0  0  0  0  0
  -27.8696  -30.4379   23.9387 H   0  0  0  0  0  0
  -27.2551  -33.3722   26.2101 H   0  0  0  0  0  0
  -28.3754  -32.7117   25.0318 H   0  0  0  0  0  0
  -28.0757  -31.8638   26.5400 H   0  0  0  0  0  0
  -28.2641  -38.0075   24.7588 H   0  0  0  0  0  0
  -28.1067  -36.2631   24.6217 H   0  0  0  0  0  0
  -27.2285  -37.1393   25.8852 H   0  0  0  0  0  0
  -20.9283  -29.8874   21.7015 H   0  0  0  0  0  0
  -26.0188  -38.2929   24.1467 H   0  0  0  0  0  0
  -32.4001  -19.2940   19.8240 H   0  0  0  0  0  0
  -34.3005  -17.2939   23.1496 H   0  0  0  0  0  0
  -30.5594  -17.6576   19.8905 H   0  0  0  0  0  0
  -32.4543  -15.6380   23.2057 H   0  0  0  0  0  0
  -29.1653  -14.5125   23.7172 H   0  0  0  0  0  0
  -27.9893  -15.8166   23.8388 H   0  0  0  0  0  0
  -29.7005  -16.1595   24.0464 H   0  0  0  0  0  0
  -36.4322  -20.9569   20.2768 H   0  0  0  0  0  0
  -36.0970  -22.0455   21.6200 H   0  0  0  0  0  0
  -35.2827  -22.2496   20.0646 H   0  0  0  0  0  0
  -22.6830  -17.7442   23.8134 H   0  0  0  0  0  0
  -22.8564  -17.1019   22.1715 H   0  0  0  0  0  0
  -21.8125  -18.4923   22.4931 H   0  0  0  0  0  0
  -25.8734  -20.6570   22.5755 H   0  0  0  0  0  0
  -26.8738  -19.3222   22.1138 H   0  0  0  0  0  0
  -27.9173  -24.8155   19.5053 H   0  0  0  0  0  0
  -29.2968  -24.9523   20.5535 H   0  0  0  0  0  0
  -27.7682  -19.1702   24.3671 H   0  0  0  0  0  0
  -26.4414  -20.0897   25.0466 H   0  0  0  0  0  0
  -27.1974  -22.1501   23.9265 H   0  0  0  0  0  0
  -28.4393  -21.2802   23.0640 H   0  0  0  0  0  0
  -29.6513  -20.8051   25.0922 H   0  0  0  0  0  0
  -28.3865  -21.4353   26.1194 H   0  0  0  0  0  0
  -28.7555  -23.7011   25.4558 H   0  0  0  0  0  0
  -29.6162  -23.2698   24.0248 H   0  0  0  0  0  0
  -30.6649  -22.9600   26.8817 H   0  0  0  0  0  0
  -31.1232  -24.1927   25.7417 H   0  0  0  0  0  0
  -31.7856  -21.2257   25.6027 H   0  0  0  0  0  0
  -32.8856  -22.5566   25.7847 H   0  0  0  0  0  0
  -32.2972  -23.3446   23.4568 H   0  0  0  0  0  0
  -31.2334  -21.9717   23.2714 H   0  0  0  0  0  0
  -24.8438  -22.3254   21.1261 H   0  0  0  0  0  0
  -23.2590  -23.0430   21.0656 H   0  0  0  0  0  0
  -33.1633  -20.4240   23.6464 H   0  0  0  0  0  0
  -34.2330  -21.8054   23.6899 H   0  0  0  0  0  0
  -25.1719  -23.1350   23.4625 H   0  0  0  0  0  0
  -23.5783  -23.8354   23.4600 H   0  0  0  0  0  0
  -22.2983  -21.4527   22.5276 H   0  0  0  0  0  0
  -23.7685  -21.2285   23.3915 H   0  0  0  0  0  0
  -28.2758  -15.4007   21.4212 H   0  0  0  0  0  0
  -28.9449  -16.9124   21.8244 H   0  0  0  0  0  0
  -25.2483  -25.5920   23.0574 H   0  0  0  0  0  0
  -24.2236  -25.3946   21.6593 H   0  0  0  0  0  0
  -33.4306  -22.4487   21.3731 H   0  0  0  0  0  0
  -32.4518  -21.0308   21.3117 H   0  0  0  0  0  0
  -24.4774  -20.1221   20.9094 H   0  0  0  0  0  0
  -22.7900  -19.7985   20.9413 H   0  0  0  0  0  0
  -25.9447  -24.5007   20.4107 H   0  0  0  0  0  0
  1 25  1  0  0  0
  1 30  2  0  0  0
  1101  1  0  0  0
  2  3  1  0  0  0
  2 25  1  0  0  0
  2107  1  0  0  0
  2108  1  0  0  0
  3  4  1  0  0  0
  3109  1  0  0  0
  3110  1  0  0  0
  4  5  1  0  0  0
  4111  1  0  0  0
  4112  1  0  0  0
  5  6  1  0  0  0
  5 26  1  0  0  0
  5113  1  0  0  0
  6 25  1  0  0  0
  6114  1  0  0  0
  6115  1  0  0  0
  7  8  2  0  0  0
  7 26  1  0  0  0
  7 29  1  0  0  0
  8  9  1  0  0  0
  8 22  1  0  0  0
  9 10  1  0  0  0
  9 27  2  0  0  0
 10 11  2  0  0  0
 10 15  1  0  0  0
 11 12  1  0  0  0
 11116  1  0  0  0
 12 13  2  0  0  0
 12117  1  0  0  0
 13 14  1  0  0  0
 13 31  1  0  0  0
 14 15  2  0  0  0
 14118  1  0  0  0
 15119  1  0  0  0
 16 17  2  0  0  0
 16 21  1  0  0  0
 16 31  1  0  0  0
 17 18  1  0  0  0
 17120  1  0  0  0
 18 19  2  0  0  0
 18121  1  0  0  0
 19 20  1  0  0  0
 19 24  1  0  0  0
 20 21  2  0  0  0
 20122  1  0  0  0
 21 23  1  0  0  0
 22 28  1  0  0  0
 22 32  2  0  0  0
 26 27  1  0  0  0
 28123  1  0  0  0
 28124  1  0  0  0
 29125  1  0  0  0
 29126  1  0  0  0
 33 34  1  0  0  0
 33 66  1  0  0  0
 33 70  2  0  0  0
 34 36  1  0  0  0
 34 59  1  0  0  0
 34127  1  0  0  0
 35 44  2  0  0  0
 35 45  1  0  0  0
 35 68  1  0  0  0
 36 56  1  0  0  0
 36128  1  0  0  0
 37 39  1  0  0  0
 37 47  1  0  0  0
 37 66  1  0  0  0
 37129  1  0  0  0
 38 43  2  0  0  0
 38 46  1  0  0  0
 38 47  1  0  0  0
 39 64  1  0  0  0
 39 67  2  0  0  0
 40 52  1  0  0  0
 40 53  2  0  0  0
 40 58  1  0  0  0
 41130  1  0  0  0
 41131  1  0  0  0
 41132  1  0  0  0
 41 48  1  0  0  0
 42 43  1  0  0  0
 42 66  1  0  0  0
 42133  1  0  0  0
 42134  1  0  0  0
 43 44  1  0  0  0
 44135  1  0  0  0
 45 46  2  0  0  0
 45136  1  0  0  0
 46137  1  0  0  0
 47138  1  0  0  0
 47139  1  0  0  0
 48 56  1  0  0  0
 48 65  1  0  0  0
 48140  1  0  0  0
 49 50  1  0  0  0
 49 53  1  0  0  0
 49 64  1  0  0  0
 49141  1  0  0  0
 50 51  1  0  0  0
 50142  1  0  0  0
 50143  1  0  0  0
 51 52  1  0  0  0
 51144  1  0  0  0
 51145  1  0  0  0
 52146  1  0  0  0
 52147  1  0  0  0
 53 54  1  0  0  0
 54 55  2  0  0  0
 54148  1  0  0  0
 55 57  1  0  0  0
 55149  1  0  0  0
 56 69  2  0  0  0
 57 58  2  0  0  0
 57150  1  0  0  0
 58151  1  0  0  0
 59 60  1  0  0  0
 59 61  1  0  0  0
 59 62  1  0  0  0
 60152  1  0  0  0
 60153  1  0  0  0
 60154  1  0  0  0
 61155  1  0  0  0
 61156  1  0  0  0
 61157  1  0  0  0
 62158  1  0  0  0
 62159  1  0  0  0
 62160  1  0  0  0
 63 65  1  0  0  0
 63161  1  0  0  0
 63162  1  0  0  0
 63163  1  0  0  0
 64164  1  0  0  0
 65165  1  0  0  0
 68 84  1  0  0  0
 71 73  2  0  0  0
 71 75  1  0  0  0
 71166  1  0  0  0
 72 74  1  0  0  0
 72 75  2  0  0  0
 72167  1  0  0  0
 73 76  1  0  0  0
 73168  1  0  0  0
 74 76  2  0  0  0
 74169  1  0  0  0
 75 77  1  0  0  0
 76101  1  0  0  0
 77102  1  0  0  0
 77104  2  0  0  0
 78 83  1  0  0  0
 78103  1  0  0  0
 78105  2  0  0  0
 79 84  1  0  0  0
 79100  1  0  0  0
 79106  2  0  0  0
 80 96  1  0  0  0
 80170  1  0  0  0
 80171  1  0  0  0
 80172  1  0  0  0
 81102  1  0  0  0
 81173  1  0  0  0
 81174  1  0  0  0
 81175  1  0  0  0
 82103  1  0  0  0
 82176  1  0  0  0
 82177  1  0  0  0
 82178  1  0  0  0
 83 85  1  0  0  0
 83179  1  0  0  0
 83180  1  0  0  0
 84181  1  0  0  0
 84182  1  0  0  0
 85 86  1  0  0  0
 85183  1  0  0  0
 85184  1  0  0  0
 86 87  1  0  0  0
 86185  1  0  0  0
 86186  1  0  0  0
 87 88  1  0  0  0
 87187  1  0  0  0
 87188  1  0  0  0
 88 89  1  0  0  0
 88189  1  0  0  0
 88190  1  0  0  0
 89 90  1  0  0  0
 89191  1  0  0  0
 89192  1  0  0  0
 90 91  1  0  0  0
 90193  1  0  0  0
 90194  1  0  0  0
 91 93  1  0  0  0
 91195  1  0  0  0
 91196  1  0  0  0
 92 94  1  0  0  0
 92 95  1  0  0  0
 92197  1  0  0  0
 92198  1  0  0  0
 93 98  1  0  0  0
 93199  1  0  0  0
 93200  1  0  0  0
 94 97  1  0  0  0
 94201  1  0  0  0
 94202  1  0  0  0
 95 99  1  0  0  0
 95203  1  0  0  0
 95204  1  0  0  0
 96101  1  0  0  0
 96205  1  0  0  0
 96206  1  0  0  0
 97100  1  0  0  0
 97207  1  0  0  0
 97208  1  0  0  0
 98102  1  0  0  0
 98209  1  0  0  0
 98210  1  0  0  0
 99103  1  0  0  0
 99211  1  0  0  0
 99212  1  0  0  0
100213  1  0  0  0
M  ISO  4   1 100  68 101  84 101 101 100
M  END
> <chiral flag>
0

> <version>
0

> <s_m_source_file>
/data/baiqing/PycharmProjects/Reinvent-master-3.2/result/LINK_invent/BTK/process_docking_weight1_custom_sum_contain_oxygen_bond_distance_aromatic_linkinvent_7_9_3/rearranged_h_0005.sdf

> <i_m_source_file_index>
57

> <r_mmod_Potential_Energy-OPLS-2005>
298.955718994141

> <r_mmod_Stretch_Energy-OPLS-2005>
48.4086723327637

> <r_mmod_Bend_Energy-OPLS-2005>
152.786499023438

> <r_mmod_Torsional_Energy-OPLS-2005>
401.201721191406

> <r_mmod_Improper_Torsional_Energy-OPLS-2005>
5.76557683944702

> <r_mmod_Van_der_Waal_Energy-OPLS-2005>
171.328323364258

> <r_mmod_Electrostatic_Energy-OPLS-2005>
-243.790939331055

> <r_mmod_Solvation_Energy-OPLS-2005>
-251.790740966797

> <b_mmod_Minimization_Converged-OPLS-2005>
0

> <r_mmod_RMS_Derivative-OPLS-2005>
4.52417898178101

$$$$
57
                    3D
 Structure written by MMmdl.
191199  0  0  1  0            999 V2000
  -30.7887  -14.3719   20.6553 C   0  0  0  0  0  0
  -30.3950  -12.2928   19.3977 C   0  0  0  0  0  0
  -29.4672  -12.5195   18.1893 C   0  0  0  0  0  0
  -27.9969  -12.3700   18.6182 C   0  0  0  0  0  0
  -27.6553  -13.2082   19.8760 C   0  0  2  0  0  0
  -28.6981  -12.9747   20.9922 C   0  0  0  0  0  0
  -25.2502  -13.8136   20.5655 C   0  0  0  0  0  0
  -24.1779  -13.0432   20.9172 C   0  0  0  0  0  0
  -24.6348  -11.6887   20.8767 C   0  0  0  0  0  0
  -23.9015  -10.4276   21.0415 C   0  0  0  0  0  0
  -24.3578   -9.4194   21.9195 C   0  0  0  0  0  0
  -23.6264   -8.2230   22.0776 C   0  0  0  0  0  0
  -22.4244   -8.0258   21.3557 C   0  0  0  0  0  0
  -21.9872   -9.0217   20.4656 C   0  0  0  0  0  0
  -22.7191  -10.2105   20.3063 C   0  0  0  0  0  0
  -21.6846   -6.0711   22.5275 C   0  0  0  0  0  0
  -21.3997   -6.5629   23.8202 C   0  0  0  0  0  0
  -21.3657   -5.6781   24.9175 C   0  0  0  0  0  0
  -21.6051   -4.3043   24.7227 C   0  0  0  0  0  0
  -21.8818   -3.8131   23.4350 C   0  0  0  0  0  0
  -21.9191   -4.6943   22.3406 C   0  0  0  0  0  0
  -22.7798  -13.5252   21.1870 C   0  0  0  0  0  0
  -22.1660   -4.2146   21.0980 F   0  0  0  0  0  0
  -21.5642   -3.4521   25.7732 F   0  0  0  0  0  0
  -30.0305  -13.2628   20.4405 N   0  0  0  0  0  0
  -26.2978  -12.9349   20.3405 N   0  0  0  0  0  0
  -25.9289  -11.6507   20.5810 N   0  0  0  0  0  0
  -22.0417  -12.8253   22.0396 N   0  0  0  0  0  0
  -25.4146  -15.1845   20.4016 N   0  0  0  0  0  0
  -31.8483  -14.5805   20.0594 O   0  0  0  0  0  0
  -21.6643   -6.8837   21.4227 O   0  0  0  0  0  0
  -22.3502  -14.5588   20.6756 O   0  0  0  0  0  0
  -24.6142  -31.8686   23.2141 C   0  0  0  0  0  0
  -25.9035  -32.4832   23.8401 C   0  0  1  0  0  0
  -27.2052  -27.4286   20.0785 C   0  0  0  0  0  0
  -25.5930  -33.8641   24.2332 N   0  0  0  0  0  0
  -23.3960  -30.5007   21.5545 C   0  0  2  0  0  0
  -24.8299  -28.9713   20.1184 C   0  0  0  0  0  0
  -22.7342  -29.4679   22.4968 C   0  0  0  0  0  0
  -18.0274  -28.1261   22.8499 C   0  0  0  0  0  0
  -24.1501  -36.7341   23.2633 C   0  0  0  0  0  0
  -25.9253  -30.8387   21.3543 C   0  0  0  0  0  0
  -25.9977  -29.4703   20.7077 C   0  0  0  0  0  0
  -27.1900  -28.7075   20.6834 C   0  0  0  0  0  0
  -25.9983  -26.9375   19.5222 C   0  0  0  0  0  0
  -24.8241  -27.7006   19.5287 C   0  0  0  0  0  0
  -23.6005  -29.8500   20.1640 C   0  0  0  0  0  0
  -25.4121  -36.3120   24.0327 C   0  0  1  0  0  0
  -20.5853  -28.3597   23.1315 C   0  0  2  0  0  0
  -20.6741  -26.9225   22.5634 C   0  0  0  0  0  0
  -19.5687  -26.6047   21.5499 C   0  0  0  0  0  0
  -18.1962  -26.7652   22.2010 C   0  0  0  0  0  0
  -19.1497  -28.8769   23.2862 C   0  0  0  0  0  0
  -18.9356  -30.1348   23.8896 C   0  0  0  0  0  0
  -17.6305  -30.6426   24.0525 C   0  0  0  0  0  0
  -25.9045  -34.9487   23.5111 C   0  0  0  0  0  0
  -16.5240  -29.8911   23.6231 C   0  0  0  0  0  0
  -16.7237  -28.6320   23.0308 C   0  0  0  0  0  0
  -26.4477  -31.6616   25.0718 C   0  0  0  0  0  0
  -25.3744  -31.3710   26.1464 C   0  0  0  0  0  0
  -27.0291  -30.3081   24.6024 C   0  0  0  0  0  0
  -27.6075  -32.4285   25.7518 C   0  0  0  0  0  0
  -27.5579  -37.1828   24.8462 C   0  0  0  0  0  0
  -21.4097  -29.2824   22.3505 N   0  0  0  0  0  0
  -26.4302  -37.3792   23.9399 N   0  0  0  0  0  0
  -24.6658  -31.0800   22.1032 N   0  0  0  0  0  0
  -23.4044  -28.8338   23.3140 O   0  0  0  0  0  0
  -28.3836  -26.7058   20.0420 O   0  0  0  0  0  0
  -26.5564  -34.8938   22.4643 O   0  0  0  0  0  0
  -23.5339  -32.1450   23.7575 O   0  0  0  0  0  0
  -27.3772  -17.0262   22.8450 C   0  0  0  0  0  0
  -28.4366  -16.1051   22.7093 C   0  0  0  0  0  0
  -27.9187  -17.9375   20.6574 C   0  0  0  0  0  0
  -27.1203  -17.9679   21.8230 C   0  0  0  0  0  0
  -28.9910  -17.0307   20.5189 C   0  0  0  0  0  0
  -29.2498  -16.0932   21.5560 C   0  0  0  0  0  0
  -26.1113  -19.0664   22.0239 C   0  0  0  0  0  0
  -24.0416  -23.5913   15.7482 C   0  0  0  0  0  0
  -29.8552  -17.1845   19.2787 C   0  0  0  0  0  0
  -20.2096  -23.0673   16.3352 C   0  0  0  0  0  0
  -21.0245  -24.5687   14.4725 C   0  0  0  0  0  0
  -23.9586  -20.9605   19.6734 C   0  0  0  0  0  0
  -24.0008  -22.2216   18.7888 C   0  0  0  0  0  0
  -27.2179  -23.8168   17.9177 C   0  0  0  0  0  0
  -28.1597  -25.0101   18.2174 C   0  0  0  0  0  0
  -25.0328  -20.9485   20.7787 C   0  0  0  0  0  0
  -24.9298  -22.0332   17.5620 C   0  0  0  0  0  0
  -26.1890  -24.0937   16.7873 C   0  0  0  0  0  0
  -28.3036  -25.3035   19.7364 C   0  0  0  0  0  0
  -22.6844  -22.8568   15.4511 C   0  0  2  0  0  0
  -21.4442  -23.7809   15.7317 C   0  0  0  0  0  0
  -30.3971  -15.2566   21.5840 N   0  0  0  0  0  0
  -25.6594  -19.6363   20.9017 N   0  0  0  0  0  0
  -24.9821  -23.2202   16.6812 N   0  0  0  0  0  0
  -22.5042  -21.4972   15.9932 N   0  3  0  0  0  0
  -25.7753  -19.4290   23.1530 O   0  0  0  0  0  0
  -24.2493  -24.5865   15.0452 O   0  0  0  0  0  0
  -31.4403  -12.3619   19.0905 H   0  0  0  0  0  0
  -30.2698  -11.2774   19.7774 H   0  0  0  0  0  0
  -29.6937  -11.8069   17.3942 H   0  0  0  0  0  0
  -29.6327  -13.5130   17.7699 H   0  0  0  0  0  0
  -27.8242  -11.3120   18.8253 H   0  0  0  0  0  0
  -27.3296  -12.6309   17.7976 H   0  0  0  0  0  0
  -27.7017  -14.2607   19.5905 H   0  0  0  0  0  0
  -28.6679  -11.9444   21.3426 H   0  0  0  0  0  0
  -28.4618  -13.5742   21.8665 H   0  0  0  0  0  0
  -25.2729   -9.5698   22.4770 H   0  0  0  0  0  0
  -23.9993   -7.4634   22.7503 H   0  0  0  0  0  0
  -21.0814   -8.8712   19.8952 H   0  0  0  0  0  0
  -22.3645  -10.9645   19.6177 H   0  0  0  0  0  0
  -21.1972   -7.6142   23.9697 H   0  0  0  0  0  0
  -21.1489   -6.0525   25.9075 H   0  0  0  0  0  0
  -22.0605   -2.7600   23.2856 H   0  0  0  0  0  0
  -22.4051  -11.9965   22.4865 H   0  0  0  0  0  0
  -21.0999  -13.1233   22.2535 H   0  0  0  0  0  0
  -24.6449  -15.8286   20.5451 H   0  0  0  0  0  0
  -26.2902  -15.6391   20.1803 H   0  0  0  0  0  0
  -26.7115  -32.5540   23.1172 H   0  0  0  0  0  0
  -25.0195  -33.9871   25.0550 H   0  0  0  0  0  0
  -22.6853  -31.3219   21.4284 H   0  0  0  0  0  0
  -23.3740  -35.9681   23.3300 H   0  0  0  0  0  0
  -24.3603  -36.8950   22.2040 H   0  0  0  0  0  0
  -23.7290  -37.6569   23.6646 H   0  0  0  0  0  0
  -26.0052  -31.5942   20.5730 H   0  0  0  0  0  0
  -26.8274  -30.9136   21.9473 H   0  0  0  0  0  0
  -28.0951  -29.0926   21.1344 H   0  0  0  0  0  0
  -25.9210  -25.9615   19.0729 H   0  0  0  0  0  0
  -23.9212  -27.3017   19.0869 H   0  0  0  0  0  0
  -23.7267  -30.6379   19.4222 H   0  0  0  0  0  0
  -22.7164  -29.2925   19.8552 H   0  0  0  0  0  0
  -25.1298  -36.1963   25.0811 H   0  0  0  0  0  0
  -21.0006  -28.3380   24.1428 H   0  0  0  0  0  0
  -20.5755  -26.2225   23.3974 H   0  0  0  0  0  0
  -21.6567  -26.7210   22.1405 H   0  0  0  0  0  0
  -19.6744  -25.5858   21.1776 H   0  0  0  0  0  0
  -19.6538  -27.2670   20.6871 H   0  0  0  0  0  0
  -17.4104  -26.6016   21.4633 H   0  0  0  0  0  0
  -18.0588  -26.0111   22.9751 H   0  0  0  0  0  0
  -19.7805  -30.7132   24.2376 H   0  0  0  0  0  0
  -17.4697  -31.6037   24.5230 H   0  0  0  0  0  0
  -15.5183  -30.2668   23.7511 H   0  0  0  0  0  0
  -15.8667  -28.0560   22.7048 H   0  0  0  0  0  0
  -24.5929  -30.7047   25.7811 H   0  0  0  0  0  0
  -24.8920  -32.2857   26.4908 H   0  0  0  0  0  0
  -25.8092  -30.8894   27.0229 H   0  0  0  0  0  0
  -26.2827  -29.6874   24.1065 H   0  0  0  0  0  0
  -27.4114  -29.7271   25.4433 H   0  0  0  0  0  0
  -27.8622  -30.4470   23.9129 H   0  0  0  0  0  0
  -27.2739  -33.3571   26.2157 H   0  0  0  0  0  0
  -28.3902  -32.6835   25.0369 H   0  0  0  0  0  0
  -28.0704  -31.8331   26.5399 H   0  0  0  0  0  0
  -28.2588  -38.0129   24.7475 H   0  0  0  0  0  0
  -28.1078  -36.2655   24.6313 H   0  0  0  0  0  0
  -27.2298  -37.1505   25.8866 H   0  0  0  0  0  0
  -20.9380  -29.7899   21.6169 H   0  0  0  0  0  0
  -26.0180  -38.2869   24.1365 H   0  0  0  0  0  0
  -26.7941  -17.0410   23.7560 H   0  0  0  0  0  0
  -28.6604  -15.4319   23.5247 H   0  0  0  0  0  0
  -27.7602  -18.6644   19.8724 H   0  0  0  0  0  0
  -29.4005  -16.6839   18.4245 H   0  0  0  0  0  0
  -30.8704  -16.8182   19.4006 H   0  0  0  0  0  0
  -29.9527  -18.2411   19.0281 H   0  0  0  0  0  0
  -19.4016  -23.7764   16.5124 H   0  0  0  0  0  0
  -20.4336  -22.6121   17.3011 H   0  0  0  0  0  0
  -19.8137  -22.2964   15.6732 H   0  0  0  0  0  0
  -20.2604  -25.3085   14.7041 H   0  0  0  0  0  0
  -20.6210  -23.9124   13.7011 H   0  0  0  0  0  0
  -21.8660  -25.1077   14.0346 H   0  0  0  0  0  0
  -24.0494  -20.0726   19.0474 H   0  0  0  0  0  0
  -22.9724  -20.8887   20.1354 H   0  0  0  0  0  0
  -24.3141  -23.0794   19.3878 H   0  0  0  0  0  0
  -22.9901  -22.4726   18.4729 H   0  0  0  0  0  0
  -26.6798  -23.5715   18.8307 H   0  0  0  0  0  0
  -27.8177  -22.9340   17.6717 H   0  0  0  0  0  0
  -29.1447  -24.8386   17.7813 H   0  0  0  0  0  0
  -27.7927  -25.9023   17.7119 H   0  0  0  0  0  0
  -24.6083  -21.2890   21.7243 H   0  0  0  0  0  0
  -25.8280  -21.6565   20.5389 H   0  0  0  0  0  0
  -24.6754  -21.1473   16.9869 H   0  0  0  0  0  0
  -25.9151  -21.7423   17.9125 H   0  0  0  0  0  0
  -26.7106  -24.0795   15.8299 H   0  0  0  0  0  0
  -25.8339  -25.1177   16.9160 H   0  0  0  0  0  0
  -29.2018  -24.8125   20.1078 H   0  0  0  0  0  0
  -27.4932  -24.8596   20.3187 H   0  0  0  0  0  0
  -22.7043  -22.6833   14.3739 H   0  0  0  0  0  0
  -21.7444  -24.5244   16.4701 H   0  0  0  0  0  0
  -31.2030  -15.7745   21.9022 H   0  0  0  0  0  0
  -25.9634  -19.1956   20.0460 H   0  0  0  0  0  0
  -22.7021  -21.4843   16.9783 H   0  0  0  0  0  0
  -23.1218  -20.8560   15.5231 H   0  0  0  0  0  0
  -21.5570  -21.1930   15.8347 H   0  0  0  0  0  0
  1 25  1  0  0  0
  1 30  2  0  0  0
  1 92  1  0  0  0
  2  3  1  0  0  0
  2 25  1  0  0  0
  2 98  1  0  0  0
  2 99  1  0  0  0
  3  4  1  0  0  0
  3100  1  0  0  0
  3101  1  0  0  0
  4  5  1  0  0  0
  4102  1  0  0  0
  4103  1  0  0  0
  5  6  1  0  0  0
  5 26  1  0  0  0
  5104  1  0  0  0
  6 25  1  0  0  0
  6105  1  0  0  0
  6106  1  0  0  0
  7  8  2  0  0  0
  7 26  1  0  0  0
  7 29  1  0  0  0
  8  9  1  0  0  0
  8 22  1  0  0  0
  9 10  1  0  0  0
  9 27  2  0  0  0
 10 11  2  0  0  0
 10 15  1  0  0  0
 11 12  1  0  0  0
 11107  1  0  0  0
 12 13  2  0  0  0
 12108  1  0  0  0
 13 14  1  0  0  0
 13 31  1  0  0  0
 14 15  2  0  0  0
 14109  1  0  0  0
 15110  1  0  0  0
 16 17  2  0  0  0
 16 21  1  0  0  0
 16 31  1  0  0  0
 17 18  1  0  0  0
 17111  1  0  0  0
 18 19  2  0  0  0
 18112  1  0  0  0
 19 20  1  0  0  0
 19 24  1  0  0  0
 20 21  2  0  0  0
 20113  1  0  0  0
 21 23  1  0  0  0
 22 28  1  0  0  0
 22 32  2  0  0  0
 26 27  1  0  0  0
 28114  1  0  0  0
 28115  1  0  0  0
 29116  1  0  0  0
 29117  1  0  0  0
 33 34  1  0  0  0
 33 66  1  0  0  0
 33 70  2  0  0  0
 34 36  1  0  0  0
 34 59  1  0  0  0
 34118  1  0  0  0
 35 44  2  0  0  0
 35 45  1  0  0  0
 35 68  1  0  0  0
 36 56  1  0  0  0
 36119  1  0  0  0
 37 39  1  0  0  0
 37 47  1  0  0  0
 37 66  1  0  0  0
 37120  1  0  0  0
 38 43  2  0  0  0
 38 46  1  0  0  0
 38 47  1  0  0  0
 39 64  1  0  0  0
 39 67  2  0  0  0
 40 52  1  0  0  0
 40 53  2  0  0  0
 40 58  1  0  0  0
 41121  1  0  0  0
 41122  1  0  0  0
 41123  1  0  0  0
 41 48  1  0  0  0
 42 43  1  0  0  0
 42 66  1  0  0  0
 42124  1  0  0  0
 42125  1  0  0  0
 43 44  1  0  0  0
 44126  1  0  0  0
 45 46  2  0  0  0
 45127  1  0  0  0
 46128  1  0  0  0
 47129  1  0  0  0
 47130  1  0  0  0
 48 56  1  0  0  0
 48 65  1  0  0  0
 48131  1  0  0  0
 49 50  1  0  0  0
 49 53  1  0  0  0
 49 64  1  0  0  0
 49132  1  0  0  0
 50 51  1  0  0  0
 50133  1  0  0  0
 50134  1  0  0  0
 51 52  1  0  0  0
 51135  1  0  0  0
 51136  1  0  0  0
 52137  1  0  0  0
 52138  1  0  0  0
 53 54  1  0  0  0
 54 55  2  0  0  0
 54139  1  0  0  0
 55 57  1  0  0  0
 55140  1  0  0  0
 56 69  2  0  0  0
 57 58  2  0  0  0
 57141  1  0  0  0
 58142  1  0  0  0
 59 60  1  0  0  0
 59 61  1  0  0  0
 59 62  1  0  0  0
 60143  1  0  0  0
 60144  1  0  0  0
 60145  1  0  0  0
 61146  1  0  0  0
 61147  1  0  0  0
 61148  1  0  0  0
 62149  1  0  0  0
 62150  1  0  0  0
 62151  1  0  0  0
 63 65  1  0  0  0
 63152  1  0  0  0
 63153  1  0  0  0
 63154  1  0  0  0
 64155  1  0  0  0
 65156  1  0  0  0
 68 89  1  0  0  0
 71 72  2  0  0  0
 71 74  1  0  0  0
 71157  1  0  0  0
 72 76  1  0  0  0
 72158  1  0  0  0
 73 74  2  0  0  0
 73 75  1  0  0  0
 73159  1  0  0  0
 74 77  1  0  0  0
 75 76  2  0  0  0
 75 79  1  0  0  0
 76 92  1  0  0  0
 77 93  1  0  0  0
 77 96  2  0  0  0
 78 90  1  0  0  0
 78 94  1  0  0  0
 78 97  2  0  0  0
 79160  1  0  0  0
 79161  1  0  0  0
 79162  1  0  0  0
 80163  1  0  0  0
 80164  1  0  0  0
 80165  1  0  0  0
 80 91  1  0  0  0
 81 91  1  0  0  0
 81166  1  0  0  0
 81167  1  0  0  0
 81168  1  0  0  0
 82 83  1  0  0  0
 82 86  1  0  0  0
 82169  1  0  0  0
 82170  1  0  0  0
 83 87  1  0  0  0
 83171  1  0  0  0
 83172  1  0  0  0
 84 85  1  0  0  0
 84 88  1  0  0  0
 84173  1  0  0  0
 84174  1  0  0  0
 85 89  1  0  0  0
 85175  1  0  0  0
 85176  1  0  0  0
 86 93  1  0  0  0
 86177  1  0  0  0
 86178  1  0  0  0
 87 94  1  0  0  0
 87179  1  0  0  0
 87180  1  0  0  0
 88 94  1  0  0  0
 88181  1  0  0  0
 88182  1  0  0  0
 89183  1  0  0  0
 89184  1  0  0  0
 90 91  1  0  0  0
 90 95  1  0  0  0
 90185  1  0  0  0
 91186  1  0  0  0
 92187  1  0  0  0
 93188  1  0  0  0
 95189  1  0  0  0
 95190  1  0  0  0
 95191  1  0  0  0
M  CHG  1  95   1
M  ISO  4   1 100  68 101  89 101  92 100
M  END
> <chiral flag>
0

> <version>
0

> <s_m_source_file>
/data/baiqing/PycharmProjects/Reinvent-master-3.2/result/LINK_invent/BTK/process_docking_weight1_custom_sum_contain_oxygen_bond_distance_aromatic_linkinvent_7_9_3/rearranged_h_0005.sdf

> <i_m_source_file_index>
58

> <r_mmod_Potential_Energy-OPLS-2005>
-172.238845825195

> <r_mmod_Stretch_Energy-OPLS-2005>
50.7881011962891

> <r_mmod_Bend_Energy-OPLS-2005>
157.91584777832

> <r_mmod_Torsional_Energy-OPLS-2005>
347.437774658203

> <r_mmod_Improper_Torsional_Energy-OPLS-2005>
7.51647901535034

> <r_mmod_Van_der_Waal_Energy-OPLS-2005>
184.9228515625

> <r_mmod_Electrostatic_Energy-OPLS-2005>
-385.091430664062

> <r_mmod_Solvation_Energy-OPLS-2005>
-547.663696289062

> <b_mmod_Minimization_Converged-OPLS-2005>
0

> <r_mmod_RMS_Derivative-OPLS-2005>
6.08415365219116

$$$$
58
                    3D
 Structure written by MMmdl.
161169  0  0  1  0            999 V2000
  -30.6348  -14.6509   20.4995 C   0  0  0  0  0  0
  -30.4377  -12.3986   19.4584 C   0  0  0  0  0  0
  -29.5095  -12.5054   18.2280 C   0  0  0  0  0  0
  -28.0313  -12.3468   18.6379 C   0  0  0  0  0  0
  -27.6526  -13.2198   19.8638 C   0  0  2  0  0  0
  -28.6992  -13.0887   20.9945 C   0  0  0  0  0  0
  -25.2503  -13.8101   20.5604 C   0  0  0  0  0  0
  -24.1810  -13.0381   20.9196 C   0  0  0  0  0  0
  -24.6414  -11.6868   20.8770 C   0  0  0  0  0  0
  -23.9085  -10.4262   21.0425 C   0  0  0  0  0  0
  -24.3630   -9.4178   21.9201 C   0  0  0  0  0  0
  -23.6295   -8.2220   22.0765 C   0  0  0  0  0  0
  -22.4273   -8.0275   21.3555 C   0  0  0  0  0  0
  -21.9922   -9.0248   20.4649 C   0  0  0  0  0  0
  -22.7260  -10.2122   20.3063 C   0  0  0  0  0  0
  -21.6849   -6.0736   22.5279 C   0  0  0  0  0  0
  -21.4007   -6.5641   23.8210 C   0  0  0  0  0  0
  -21.3656   -5.6796   24.9176 C   0  0  0  0  0  0
  -21.6045   -4.3057   24.7224 C   0  0  0  0  0  0
  -21.8819   -3.8147   23.4344 C   0  0  0  0  0  0
  -21.9188   -4.6965   22.3401 C   0  0  0  0  0  0
  -22.7836  -13.5189   21.1849 C   0  0  0  0  0  0
  -22.1659   -4.2151   21.0980 F   0  0  0  0  0  0
  -21.5632   -3.4538   25.7735 F   0  0  0  0  0  0
  -30.0151  -13.4286   20.4293 N   0  0  0  0  0  0
  -26.2988  -12.9333   20.3320 N   0  0  0  0  0  0
  -25.9351  -11.6490   20.5800 N   0  0  0  0  0  0
  -22.0473  -12.8192   22.0414 N   0  0  0  0  0  0
  -25.4076  -15.1777   20.3794 N   0  0  0  0  0  0
  -31.7973  -14.7936   20.1099 O   0  0  0  0  0  0
  -21.6635   -6.8877   21.4243 O   0  0  0  0  0  0
  -22.3523  -14.5500   20.6698 O   0  0  0  0  0  0
  -24.6273  -31.8581   23.2041 C   0  0  0  0  0  0
  -25.9105  -32.4781   23.8365 C   0  0  1  0  0  0
  -27.2197  -27.3133   20.1170 C   0  0  0  0  0  0
  -25.5910  -33.8582   24.2298 N   0  0  0  0  0  0
  -23.4215  -30.4863   21.5428 C   0  0  2  0  0  0
  -24.8661  -28.9406   20.1093 C   0  0  0  0  0  0
  -22.7475  -29.4623   22.4884 C   0  0  0  0  0  0
  -18.0299  -28.1395   22.8491 C   0  0  0  0  0  0
  -24.1489  -36.7300   23.2646 C   0  0  0  0  0  0
  -25.9628  -30.7885   21.3734 C   0  0  0  0  0  0
  -26.0348  -29.4142   20.7187 C   0  0  0  0  0  0
  -27.2145  -28.6128   20.7129 C   0  0  0  0  0  0
  -26.0272  -26.8940   19.4842 C   0  0  0  0  0  0
  -24.8636  -27.6841   19.4847 C   0  0  0  0  0  0
  -23.6378  -29.8251   20.1556 C   0  0  0  0  0  0
  -25.4104  -36.3089   24.0351 C   0  0  1  0  0  0
  -20.5899  -28.3690   23.1266 C   0  0  2  0  0  0
  -20.6782  -26.9409   22.5391 C   0  0  0  0  0  0
  -19.5766  -26.6390   21.5193 C   0  0  0  0  0  0
  -18.1948  -26.7946   22.1611 C   0  0  0  0  0  0
  -19.1551  -28.8850   23.2892 C   0  0  0  0  0  0
  -18.9476  -30.1452   23.8920 C   0  0  0  0  0  0
  -17.6478  -30.6592   24.0570 C   0  0  0  0  0  0
  -25.9030  -34.9460   23.5120 C   0  0  0  0  0  0
  -16.5371  -29.9107   23.6318 C   0  0  0  0  0  0
  -16.7283  -28.6518   23.0353 C   0  0  0  0  0  0
  -26.4484  -31.6588   25.0728 C   0  0  0  0  0  0
  -25.3725  -31.3726   26.1460 C   0  0  0  0  0  0
  -27.0309  -30.3028   24.6131 C   0  0  0  0  0  0
  -27.6062  -32.4289   25.7491 C   0  0  0  0  0  0
  -27.5582  -37.1801   24.8466 C   0  0  0  0  0  0
  -21.4183  -29.3070   22.3661 N   0  0  0  0  0  0
  -26.4285  -37.3783   23.9420 N   0  0  0  0  0  0
  -24.6899  -31.0603   22.0975 N   0  0  0  0  0  0
  -23.4212  -28.8130   23.2927 O   0  0  0  0  0  0
  -28.3365  -26.4627   20.1710 O   0  0  0  0  0  0
  -26.5608  -34.8933   22.4693 O   0  0  0  0  0  0
  -23.5432  -32.1353   23.7365 O   0  0  0  0  0  0
  -28.9323  -19.4385   20.9844 C   0  0  0  0  0  0
  -31.0893  -17.8435   20.1817 C   0  0  0  0  0  0
  -28.8939  -18.0193   21.1491 C   0  0  0  0  0  0
  -30.0486  -20.1027   20.4253 C   0  0  0  0  0  0
  -29.9646  -17.1716   20.7301 C   0  0  0  0  0  0
  -31.1459  -19.2727   20.0390 C   0  0  0  0  0  0
  -27.6564  -17.4282   21.7938 C   0  0  0  0  0  0
  -29.5547  -24.2816   22.0093 C   0  0  0  0  0  0
  -33.4037  -19.1586   19.1877 C   0  0  0  0  0  0
  -30.1638  -21.6724   20.3096 C   0  0  0  0  0  0
  -28.1188  -24.9986   20.0361 C   0  0  0  0  0  0
  -29.2573  -23.9971   20.5280 C   0  0  2  0  0  0
  -29.8435  -15.7100   20.8709 N   0  0  0  0  0  0
  -32.2557  -19.9249   19.5370 O   0  0  0  0  0  0
  -28.9847  -22.5457   20.4062 O   0  0  0  0  0  0
  -31.4800  -12.5162   19.1566 H   0  0  0  0  0  0
  -30.3691  -11.4072   19.9090 H   0  0  0  0  0  0
  -29.7739  -11.7464   17.4900 H   0  0  0  0  0  0
  -29.6541  -13.4699   17.7381 H   0  0  0  0  0  0
  -27.8642  -11.2940   18.8700 H   0  0  0  0  0  0
  -27.3791  -12.5770   17.7953 H   0  0  0  0  0  0
  -27.6650  -14.2543   19.5191 H   0  0  0  0  0  0
  -28.7139  -12.0714   21.3870 H   0  0  0  0  0  0
  -28.4438  -13.7284   21.8410 H   0  0  0  0  0  0
  -25.2770   -9.5647   22.4782 H   0  0  0  0  0  0
  -23.9990   -7.4611   22.7488 H   0  0  0  0  0  0
  -21.0850   -8.8780   19.8953 H   0  0  0  0  0  0
  -22.3730  -10.9669   19.6174 H   0  0  0  0  0  0
  -21.1999   -7.6146   23.9717 H   0  0  0  0  0  0
  -21.1479   -6.0524   25.9080 H   0  0  0  0  0  0
  -22.0600   -2.7609   23.2842 H   0  0  0  0  0  0
  -22.4078  -11.9844   22.4790 H   0  0  0  0  0  0
  -21.1102  -13.1236   22.2629 H   0  0  0  0  0  0
  -24.6250  -15.8169   20.4608 H   0  0  0  0  0  0
  -26.2242  -15.6007   19.9590 H   0  0  0  0  0  0
  -26.7167  -32.5436   23.1106 H   0  0  0  0  0  0
  -25.0081  -33.9712   25.0460 H   0  0  0  0  0  0
  -22.7187  -31.3099   21.4008 H   0  0  0  0  0  0
  -23.3755  -35.9621   23.3286 H   0  0  0  0  0  0
  -24.3599  -36.8920   22.2061 H   0  0  0  0  0  0
  -23.7234  -37.6502   23.6657 H   0  0  0  0  0  0
  -26.0907  -31.5464   20.5994 H   0  0  0  0  0  0
  -26.8474  -30.8416   21.9957 H   0  0  0  0  0  0
  -28.1108  -28.9705   21.1999 H   0  0  0  0  0  0
  -25.9645  -25.9366   18.9886 H   0  0  0  0  0  0
  -23.9683  -27.3159   19.0011 H   0  0  0  0  0  0
  -23.7704  -30.6062   19.4058 H   0  0  0  0  0  0
  -22.7564  -29.2633   19.8406 H   0  0  0  0  0  0
  -25.1283  -36.1943   25.0845 H   0  0  0  0  0  0
  -21.0005  -28.3254   24.1379 H   0  0  0  0  0  0
  -20.5650  -26.2299   23.3589 H   0  0  0  0  0  0
  -21.6655  -26.7426   22.1197 H   0  0  0  0  0  0
  -19.6918  -25.6297   21.1236 H   0  0  0  0  0  0
  -19.6716  -27.3187   20.6714 H   0  0  0  0  0  0
  -17.4204  -26.6683   21.4021 H   0  0  0  0  0  0
  -18.0363  -26.0093   22.9013 H   0  0  0  0  0  0
  -19.7956  -30.7254   24.2306 H   0  0  0  0  0  0
  -17.5047  -31.6277   24.5168 H   0  0  0  0  0  0
  -15.5380  -30.3030   23.7626 H   0  0  0  0  0  0
  -15.8684  -28.0848   22.7061 H   0  0  0  0  0  0
  -24.5919  -30.7051   25.7808 H   0  0  0  0  0  0
  -24.8904  -32.2888   26.4874 H   0  0  0  0  0  0
  -25.8060  -30.8935   27.0252 H   0  0  0  0  0  0
  -26.2864  -29.6802   24.1163 H   0  0  0  0  0  0
  -27.4057  -29.7253   25.4592 H   0  0  0  0  0  0
  -27.8713  -30.4361   23.9321 H   0  0  0  0  0  0
  -27.2715  -33.3606   26.2066 H   0  0  0  0  0  0
  -28.3882  -32.6790   25.0313 H   0  0  0  0  0  0
  -28.0711  -31.8400   26.5408 H   0  0  0  0  0  0
  -28.2580  -38.0118   24.7524 H   0  0  0  0  0  0
  -28.1096  -36.2642   24.6262 H   0  0  0  0  0  0
  -27.2312  -37.1425   25.8876 H   0  0  0  0  0  0
  -20.9320  -29.8879   21.6966 H   0  0  0  0  0  0
  -26.0170  -38.2857   24.1437 H   0  0  0  0  0  0
  -28.0929  -20.0364   21.3092 H   0  0  0  0  0  0
  -31.9275  -17.2401   19.8723 H   0  0  0  0  0  0
  -27.1583  -18.1607   22.4293 H   0  0  0  0  0  0
  -27.8873  -16.5635   22.4162 H   0  0  0  0  0  0
  -26.9569  -17.1336   21.0177 H   0  0  0  0  0  0
  -29.8266  -25.3275   22.1526 H   0  0  0  0  0  0
  -30.3767  -23.6816   22.3974 H   0  0  0  0  0  0
  -28.6782  -24.0841   22.6272 H   0  0  0  0  0  0
  -34.1940  -19.8259   18.8437 H   0  0  0  0  0  0
  -33.1901  -18.4624   18.3752 H   0  0  0  0  0  0
  -33.7942  -18.6042   20.0420 H   0  0  0  0  0  0
  -30.6293  -21.8959   19.3491 H   0  0  0  0  0  0
  -30.8900  -21.9679   21.0661 H   0  0  0  0  0  0
  -27.2103  -24.7295   20.5783 H   0  0  0  0  0  0
  -27.9182  -24.7812   18.9861 H   0  0  0  0  0  0
  -30.1470  -24.2200   19.9362 H   0  0  0  0  0  0
  -28.9427  -15.4048   21.2045 H   0  0  0  0  0  0
  1 25  1  0  0  0
  1 30  2  0  0  0
  1 83  1  0  0  0
  2  3  1  0  0  0
  2 25  1  0  0  0
  2 86  1  0  0  0
  2 87  1  0  0  0
  3  4  1  0  0  0
  3 88  1  0  0  0
  3 89  1  0  0  0
  4  5  1  0  0  0
  4 90  1  0  0  0
  4 91  1  0  0  0
  5  6  1  0  0  0
  5 26  1  0  0  0
  5 92  1  0  0  0
  6 25  1  0  0  0
  6 93  1  0  0  0
  6 94  1  0  0  0
  7  8  2  0  0  0
  7 26  1  0  0  0
  7 29  1  0  0  0
  8  9  1  0  0  0
  8 22  1  0  0  0
  9 10  1  0  0  0
  9 27  2  0  0  0
 10 11  2  0  0  0
 10 15  1  0  0  0
 11 12  1  0  0  0
 11 95  1  0  0  0
 12 13  2  0  0  0
 12 96  1  0  0  0
 13 14  1  0  0  0
 13 31  1  0  0  0
 14 15  2  0  0  0
 14 97  1  0  0  0
 15 98  1  0  0  0
 16 17  2  0  0  0
 16 21  1  0  0  0
 16 31  1  0  0  0
 17 18  1  0  0  0
 17 99  1  0  0  0
 18 19  2  0  0  0
 18100  1  0  0  0
 19 20  1  0  0  0
 19 24  1  0  0  0
 20 21  2  0  0  0
 20101  1  0  0  0
 21 23  1  0  0  0
 22 28  1  0  0  0
 22 32  2  0  0  0
 26 27  1  0  0  0
 28102  1  0  0  0
 28103  1  0  0  0
 29104  1  0  0  0
 29105  1  0  0  0
 33 34  1  0  0  0
 33 66  1  0  0  0
 33 70  2  0  0  0
 34 36  1  0  0  0
 34 59  1  0  0  0
 34106  1  0  0  0
 35 44  2  0  0  0
 35 45  1  0  0  0
 35 68  1  0  0  0
 36 56  1  0  0  0
 36107  1  0  0  0
 37 39  1  0  0  0
 37 47  1  0  0  0
 37 66  1  0  0  0
 37108  1  0  0  0
 38 43  2  0  0  0
 38 46  1  0  0  0
 38 47  1  0  0  0
 39 64  1  0  0  0
 39 67  2  0  0  0
 40 52  1  0  0  0
 40 53  2  0  0  0
 40 58  1  0  0  0
 41109  1  0  0  0
 41110  1  0  0  0
 41111  1  0  0  0
 41 48  1  0  0  0
 42 43  1  0  0  0
 42 66  1  0  0  0
 42112  1  0  0  0
 42113  1  0  0  0
 43 44  1  0  0  0
 44114  1  0  0  0
 45 46  2  0  0  0
 45115  1  0  0  0
 46116  1  0  0  0
 47117  1  0  0  0
 47118  1  0  0  0
 48 56  1  0  0  0
 48 65  1  0  0  0
 48119  1  0  0  0
 49 50  1  0  0  0
 49 53  1  0  0  0
 49 64  1  0  0  0
 49120  1  0  0  0
 50 51  1  0  0  0
 50121  1  0  0  0
 50122  1  0  0  0
 51 52  1  0  0  0
 51123  1  0  0  0
 51124  1  0  0  0
 52125  1  0  0  0
 52126  1  0  0  0
 53 54  1  0  0  0
 54 55  2  0  0  0
 54127  1  0  0  0
 55 57  1  0  0  0
 55128  1  0  0  0
 56 69  2  0  0  0
 57 58  2  0  0  0
 57129  1  0  0  0
 58130  1  0  0  0
 59 60  1  0  0  0
 59 61  1  0  0  0
 59 62  1  0  0  0
 60131  1  0  0  0
 60132  1  0  0  0
 60133  1  0  0  0
 61134  1  0  0  0
 61135  1  0  0  0
 61136  1  0  0  0
 62137  1  0  0  0
 62138  1  0  0  0
 62139  1  0  0  0
 63 65  1  0  0  0
 63140  1  0  0  0
 63141  1  0  0  0
 63142  1  0  0  0
 64143  1  0  0  0
 65144  1  0  0  0
 68 81  1  0  0  0
 71 73  2  0  0  0
 71 74  1  0  0  0
 71145  1  0  0  0
 72 75  2  0  0  0
 72 76  1  0  0  0
 72146  1  0  0  0
 73 75  1  0  0  0
 73 77  1  0  0  0
 74 76  2  0  0  0
 74 80  1  0  0  0
 75 83  1  0  0  0
 76 84  1  0  0  0
 77147  1  0  0  0
 77148  1  0  0  0
 77149  1  0  0  0
 78150  1  0  0  0
 78151  1  0  0  0
 78152  1  0  0  0
 78 82  1  0  0  0
 79 84  1  0  0  0
 79153  1  0  0  0
 79154  1  0  0  0
 79155  1  0  0  0
 80 85  1  0  0  0
 80156  1  0  0  0
 80157  1  0  0  0
 81 82  1  0  0  0
 81158  1  0  0  0
 81159  1  0  0  0
 82 85  1  0  0  0
 82160  1  0  0  0
 83161  1  0  0  0
M  ISO  4   1 100  68 101  81 101  83 100
M  END
> <chiral flag>
0

> <version>
0

> <s_m_source_file>
/data/baiqing/PycharmProjects/Reinvent-master-3.2/result/LINK_invent/BTK/process_docking_weight1_custom_sum_contain_oxygen_bond_distance_aromatic_linkinvent_7_9_3/rearranged_h_0005.sdf

> <i_m_source_file_index>
59

> <r_mmod_Potential_Energy-OPLS-2005>
86.4022903442383

> <r_mmod_Stretch_Energy-OPLS-2005>
88.3601150512695

> <r_mmod_Bend_Energy-OPLS-2005>
148.532928466797

> <r_mmod_Torsional_Energy-OPLS-2005>
219.553009033203

> <r_mmod_Improper_Torsional_Energy-OPLS-2005>
4.37411308288574

> <r_mmod_Van_der_Waal_Energy-OPLS-2005>
154.034545898438

> <r_mmod_Electrostatic_Energy-OPLS-2005>
-376.088012695312

> <r_mmod_Solvation_Energy-OPLS-2005>
-203.879913330078

> <b_mmod_Minimization_Converged-OPLS-2005>
0

> <r_mmod_RMS_Derivative-OPLS-2005>
2.08209609985352

$$$$
59
                    3D
 Structure written by MMmdl.
166174  0  0  1  0            999 V2000
  -30.8177  -14.6138   20.4651 C   0  0  0  0  0  0
  -30.3857  -12.4096   19.4283 C   0  0  0  0  0  0
  -29.4715  -12.4722   18.1961 C   0  0  0  0  0  0
  -28.0082  -12.3066   18.6406 C   0  0  0  0  0  0
  -27.6312  -13.2366   19.8248 C   0  0  2  0  0  0
  -28.6963  -13.2475   20.9454 C   0  0  0  0  0  0
  -25.2516  -13.8215   20.5716 C   0  0  0  0  0  0
  -24.1809  -13.0453   20.9220 C   0  0  0  0  0  0
  -24.6418  -11.6928   20.8755 C   0  0  0  0  0  0
  -23.9105  -10.4293   21.0401 C   0  0  0  0  0  0
  -24.3642   -9.4198   21.9181 C   0  0  0  0  0  0
  -23.6295   -8.2248   22.0757 C   0  0  0  0  0  0
  -22.4284   -8.0283   21.3541 C   0  0  0  0  0  0
  -21.9926   -9.0262   20.4653 C   0  0  0  0  0  0
  -22.7275  -10.2139   20.3059 C   0  0  0  0  0  0
  -21.6850   -6.0734   22.5262 C   0  0  0  0  0  0
  -21.4029   -6.5640   23.8202 C   0  0  0  0  0  0
  -21.3654   -5.6792   24.9163 C   0  0  0  0  0  0
  -21.6046   -4.3048   24.7217 C   0  0  0  0  0  0
  -21.8822   -3.8152   23.4332 C   0  0  0  0  0  0
  -21.9200   -4.6966   22.3394 C   0  0  0  0  0  0
  -22.7829  -13.5222   21.1825 C   0  0  0  0  0  0
  -22.1673   -4.2152   21.0973 F   0  0  0  0  0  0
  -21.5598   -3.4535   25.7729 F   0  0  0  0  0  0
  -29.9848  -13.5339   20.3040 N   0  0  0  0  0  0
  -26.2936  -12.9429   20.3286 N   0  0  0  0  0  0
  -25.9356  -11.6569   20.5786 N   0  0  0  0  0  0
  -22.0498  -12.8205   22.0376 N   0  0  0  0  0  0
  -25.4210  -15.1941   20.4131 N   0  0  0  0  0  0
  -32.0256  -14.4079   20.3728 O   0  0  0  0  0  0
  -21.6644   -6.8874   21.4224 O   0  0  0  0  0  0
  -22.3515  -14.5523   20.6637 O   0  0  0  0  0  0
  -24.6243  -31.8655   23.2098 C   0  0  0  0  0  0
  -25.9096  -32.4814   23.8408 C   0  0  1  0  0  0
  -27.2105  -27.3308   20.0985 C   0  0  0  0  0  0
  -25.5913  -33.8620   24.2315 N   0  0  0  0  0  0
  -23.4168  -30.4935   21.5530 C   0  0  2  0  0  0
  -24.8620  -28.9650   20.1074 C   0  0  0  0  0  0
  -22.7431  -29.4671   22.4953 C   0  0  0  0  0  0
  -18.0277  -28.1358   22.8494 C   0  0  0  0  0  0
  -24.1490  -36.7280   23.2641 C   0  0  0  0  0  0
  -25.9613  -30.7962   21.3864 C   0  0  0  0  0  0
  -26.0333  -29.4288   20.7201 C   0  0  0  0  0  0
  -27.2118  -28.6222   20.7129 C   0  0  0  0  0  0
  -26.0214  -26.9456   19.4299 C   0  0  0  0  0  0
  -24.8580  -27.7282   19.4554 C   0  0  0  0  0  0
  -23.6278  -29.8395   20.1654 C   0  0  0  0  0  0
  -25.4122  -36.3110   24.0330 C   0  0  1  0  0  0
  -20.5867  -28.3687   23.1287 C   0  0  2  0  0  0
  -20.6773  -26.9410   22.5424 C   0  0  0  0  0  0
  -19.5742  -26.6373   21.5228 C   0  0  0  0  0  0
  -18.1922  -26.7903   22.1633 C   0  0  0  0  0  0
  -19.1522  -28.8835   23.2895 C   0  0  0  0  0  0
  -18.9445  -30.1433   23.8915 C   0  0  0  0  0  0
  -17.6448  -30.6570   24.0556 C   0  0  0  0  0  0
  -25.9055  -34.9480   23.5129 C   0  0  0  0  0  0
  -16.5341  -29.9064   23.6323 C   0  0  0  0  0  0
  -16.7268  -28.6476   23.0357 C   0  0  0  0  0  0
  -26.4504  -31.6601   25.0744 C   0  0  0  0  0  0
  -25.3730  -31.3700   26.1445 C   0  0  0  0  0  0
  -27.0341  -30.3019   24.6196 C   0  0  0  0  0  0
  -27.6069  -32.4320   25.7505 C   0  0  0  0  0  0
  -27.5580  -37.1804   24.8470 C   0  0  0  0  0  0
  -21.4148  -29.3049   22.3685 N   0  0  0  0  0  0
  -26.4309  -37.3789   23.9391 N   0  0  0  0  0  0
  -24.6859  -31.0667   22.1065 N   0  0  0  0  0  0
  -23.4172  -28.8219   23.3018 O   0  0  0  0  0  0
  -28.3027  -26.4423   20.1713 O   0  0  0  0  0  0
  -26.5641  -34.8934   22.4697 O   0  0  0  0  0  0
  -23.5395  -32.1481   23.7402 O   0  0  0  0  0  0
  -29.2523  -19.1238   21.6197 C   0  0  0  0  0  0
  -28.8374  -18.8250   19.2695 C   0  0  0  0  0  0
  -29.1206  -18.2301   20.5233 C   0  0  0  0  0  0
  -29.0425  -20.5331   21.4905 C   0  0  0  0  0  0
  -28.6631  -20.2274   19.1211 C   0  0  0  0  0  0
  -28.7106  -21.1182   20.2336 C   0  0  0  0  0  0
  -29.1014  -21.3847   22.7468 C   0  0  0  0  0  0
  -32.3694  -17.4763   20.5819 C   0  0  0  0  0  0
  -26.7155  -22.3442   20.2746 C   0  0  0  0  0  0
  -29.2136  -16.6620   20.6883 C   0  0  0  0  0  0
  -31.4303  -16.8050   19.5546 C   0  0  0  0  0  0
  -28.8197  -23.7521   20.4202 C   0  0  0  0  0  0
  -28.0019  -25.0189   19.8931 C   0  0  0  0  0  0
  -28.3678  -20.7444   17.8605 N   0  0  0  0  0  0
  -28.1651  -22.4414   20.0751 N   0  0  0  0  0  0
  -30.4125  -15.9163   20.1857 N   0  0  0  0  0  0
  -31.4276  -12.4493   19.1091 H   0  0  0  0  0  0
  -30.2703  -11.4543   19.9430 H   0  0  0  0  0  0
  -29.7324  -11.6873   17.4851 H   0  0  0  0  0  0
  -29.6054  -13.4222   17.6748 H   0  0  0  0  0  0
  -27.8798  -11.2639   18.9351 H   0  0  0  0  0  0
  -27.3341  -12.4702   17.7998 H   0  0  0  0  0  0
  -27.6005  -14.2384   19.3977 H   0  0  0  0  0  0
  -28.7328  -12.2877   21.4647 H   0  0  0  0  0  0
  -28.4565  -14.0058   21.6945 H   0  0  0  0  0  0
  -25.2770   -9.5657   22.4768 H   0  0  0  0  0  0
  -23.9990   -7.4641   22.7488 H   0  0  0  0  0  0
  -21.0844   -8.8799   19.8956 H   0  0  0  0  0  0
  -22.3720  -10.9693   19.6185 H   0  0  0  0  0  0
  -21.2045   -7.6154   23.9709 H   0  0  0  0  0  0
  -21.1464   -6.0520   25.9068 H   0  0  0  0  0  0
  -22.0615   -2.7615   23.2839 H   0  0  0  0  0  0
  -22.4143  -11.9857   22.4719 H   0  0  0  0  0  0
  -21.1150  -13.1244   22.2678 H   0  0  0  0  0  0
  -24.6477  -15.8437   20.5038 H   0  0  0  0  0  0
  -26.2670  -15.6285   20.0675 H   0  0  0  0  0  0
  -26.7163  -32.5523   23.1159 H   0  0  0  0  0  0
  -24.9982  -33.9796   25.0407 H   0  0  0  0  0  0
  -22.7147  -31.3180   21.4177 H   0  0  0  0  0  0
  -23.3771  -35.9592   23.3316 H   0  0  0  0  0  0
  -24.3589  -36.8885   22.2056 H   0  0  0  0  0  0
  -23.7242  -37.6478   23.6655 H   0  0  0  0  0  0
  -26.0965  -31.5654   20.6244 H   0  0  0  0  0  0
  -26.8418  -30.8379   22.0169 H   0  0  0  0  0  0
  -28.1057  -28.9690   21.2133 H   0  0  0  0  0  0
  -25.9360  -26.0171   18.8866 H   0  0  0  0  0  0
  -23.9678  -27.3707   18.9589 H   0  0  0  0  0  0
  -23.7373  -30.6221   19.4139 H   0  0  0  0  0  0
  -22.7476  -29.2652   19.8679 H   0  0  0  0  0  0
  -25.1302  -36.1979   25.0826 H   0  0  0  0  0  0
  -21.0009  -28.3272   24.1376 H   0  0  0  0  0  0
  -20.5696  -26.2295   23.3626 H   0  0  0  0  0  0
  -21.6643  -26.7435   22.1204 H   0  0  0  0  0  0
  -19.6928  -25.6293   21.1234 H   0  0  0  0  0  0
  -19.6670  -27.3194   20.6760 H   0  0  0  0  0  0
  -17.4206  -26.6656   21.4021 H   0  0  0  0  0  0
  -18.0315  -26.0022   22.9001 H   0  0  0  0  0  0
  -19.7925  -30.7251   24.2287 H   0  0  0  0  0  0
  -17.4996  -31.6261   24.5124 H   0  0  0  0  0  0
  -15.5339  -30.2970   23.7633 H   0  0  0  0  0  0
  -15.8670  -28.0819   22.7039 H   0  0  0  0  0  0
  -24.5949  -30.7013   25.7737 H   0  0  0  0  0  0
  -24.8874  -32.2836   26.4865 H   0  0  0  0  0  0
  -25.8046  -30.8882   27.0228 H   0  0  0  0  0  0
  -26.2893  -29.6778   24.1237 H   0  0  0  0  0  0
  -27.4027  -29.7258   25.4701 H   0  0  0  0  0  0
  -27.8786  -30.4269   23.9418 H   0  0  0  0  0  0
  -27.2699  -33.3638   26.2058 H   0  0  0  0  0  0
  -28.3888  -32.6845   25.0329 H   0  0  0  0  0  0
  -28.0725  -31.8457   26.5434 H   0  0  0  0  0  0
  -28.2615  -38.0087   24.7508 H   0  0  0  0  0  0
  -28.1056  -36.2614   24.6311 H   0  0  0  0  0  0
  -27.2281  -37.1469   25.8873 H   0  0  0  0  0  0
  -20.9315  -29.8752   21.6893 H   0  0  0  0  0  0
  -26.0189  -38.2859   24.1391 H   0  0  0  0  0  0
  -29.4742  -18.7154   22.5965 H   0  0  0  0  0  0
  -28.7359  -18.1835   18.4049 H   0  0  0  0  0  0
  -29.9323  -22.0840   22.6800 H   0  0  0  0  0  0
  -29.2402  -20.7836   23.6448 H   0  0  0  0  0  0
  -28.1822  -21.9573   22.8669 H   0  0  0  0  0  0
  -31.8326  -18.1108   21.2879 H   0  0  0  0  0  0
  -32.9269  -16.7415   21.1632 H   0  0  0  0  0  0
  -33.1009  -18.1072   20.0758 H   0  0  0  0  0  0
  -26.3390  -21.3228   20.1810 H   0  0  0  0  0  0
  -26.1902  -22.9327   19.5239 H   0  0  0  0  0  0
  -26.4288  -22.7094   21.2613 H   0  0  0  0  0  0
  -29.0930  -16.4206   21.7449 H   0  0  0  0  0  0
  -28.3435  -16.2387   20.1887 H   0  0  0  0  0  0
  -32.0452  -16.2478   18.8446 H   0  0  0  0  0  0
  -30.9823  -17.5497   18.9045 H   0  0  0  0  0  0
  -28.9347  -23.8216   21.5009 H   0  0  0  0  0  0
  -29.8290  -23.7680   20.0091 H   0  0  0  0  0  0
  -27.9067  -24.9139   18.8107 H   0  0  0  0  0  0
  -27.0182  -24.8580   20.3283 H   0  0  0  0  0  0
  -27.9806  -21.6824   17.9245 H   0  0  0  0  0  0
  -27.8491  -20.1472   17.2285 H   0  0  0  0  0  0
  1 25  1  0  0  0
  1 30  2  0  0  0
  1 86  1  0  0  0
  2  3  1  0  0  0
  2 25  1  0  0  0
  2 87  1  0  0  0
  2 88  1  0  0  0
  3  4  1  0  0  0
  3 89  1  0  0  0
  3 90  1  0  0  0
  4  5  1  0  0  0
  4 91  1  0  0  0
  4 92  1  0  0  0
  5  6  1  0  0  0
  5 26  1  0  0  0
  5 93  1  0  0  0
  6 25  1  0  0  0
  6 94  1  0  0  0
  6 95  1  0  0  0
  7  8  2  0  0  0
  7 26  1  0  0  0
  7 29  1  0  0  0
  8  9  1  0  0  0
  8 22  1  0  0  0
  9 10  1  0  0  0
  9 27  2  0  0  0
 10 11  2  0  0  0
 10 15  1  0  0  0
 11 12  1  0  0  0
 11 96  1  0  0  0
 12 13  2  0  0  0
 12 97  1  0  0  0
 13 14  1  0  0  0
 13 31  1  0  0  0
 14 15  2  0  0  0
 14 98  1  0  0  0
 15 99  1  0  0  0
 16 17  2  0  0  0
 16 21  1  0  0  0
 16 31  1  0  0  0
 17 18  1  0  0  0
 17100  1  0  0  0
 18 19  2  0  0  0
 18101  1  0  0  0
 19 20  1  0  0  0
 19 24  1  0  0  0
 20 21  2  0  0  0
 20102  1  0  0  0
 21 23  1  0  0  0
 22 28  1  0  0  0
 22 32  2  0  0  0
 26 27  1  0  0  0
 28103  1  0  0  0
 28104  1  0  0  0
 29105  1  0  0  0
 29106  1  0  0  0
 33 34  1  0  0  0
 33 66  1  0  0  0
 33 70  2  0  0  0
 34 36  1  0  0  0
 34 59  1  0  0  0
 34107  1  0  0  0
 35 44  2  0  0  0
 35 45  1  0  0  0
 35 68  1  0  0  0
 36 56  1  0  0  0
 36108  1  0  0  0
 37 39  1  0  0  0
 37 47  1  0  0  0
 37 66  1  0  0  0
 37109  1  0  0  0
 38 43  2  0  0  0
 38 46  1  0  0  0
 38 47  1  0  0  0
 39 64  1  0  0  0
 39 67  2  0  0  0
 40 52  1  0  0  0
 40 53  2  0  0  0
 40 58  1  0  0  0
 41110  1  0  0  0
 41111  1  0  0  0
 41112  1  0  0  0
 41 48  1  0  0  0
 42 43  1  0  0  0
 42 66  1  0  0  0
 42113  1  0  0  0
 42114  1  0  0  0
 43 44  1  0  0  0
 44115  1  0  0  0
 45 46  2  0  0  0
 45116  1  0  0  0
 46117  1  0  0  0
 47118  1  0  0  0
 47119  1  0  0  0
 48 56  1  0  0  0
 48 65  1  0  0  0
 48120  1  0  0  0
 49 50  1  0  0  0
 49 53  1  0  0  0
 49 64  1  0  0  0
 49121  1  0  0  0
 50 51  1  0  0  0
 50122  1  0  0  0
 50123  1  0  0  0
 51 52  1  0  0  0
 51124  1  0  0  0
 51125  1  0  0  0
 52126  1  0  0  0
 52127  1  0  0  0
 53 54  1  0  0  0
 54 55  2  0  0  0
 54128  1  0  0  0
 55 57  1  0  0  0
 55129  1  0  0  0
 56 69  2  0  0  0
 57 58  2  0  0  0
 57130  1  0  0  0
 58131  1  0  0  0
 59 60  1  0  0  0
 59 61  1  0  0  0
 59 62  1  0  0  0
 60132  1  0  0  0
 60133  1  0  0  0
 60134  1  0  0  0
 61135  1  0  0  0
 61136  1  0  0  0
 61137  1  0  0  0
 62138  1  0  0  0
 62139  1  0  0  0
 62140  1  0  0  0
 63 65  1  0  0  0
 63141  1  0  0  0
 63142  1  0  0  0
 63143  1  0  0  0
 64144  1  0  0  0
 65145  1  0  0  0
 68 83  1  0  0  0
 71 73  2  0  0  0
 71 74  1  0  0  0
 71146  1  0  0  0
 72 73  1  0  0  0
 72 75  2  0  0  0
 72147  1  0  0  0
 73 80  1  0  0  0
 74 76  2  0  0  0
 74 77  1  0  0  0
 75 76  1  0  0  0
 75 84  1  0  0  0
 76 85  1  0  0  0
 77148  1  0  0  0
 77149  1  0  0  0
 77150  1  0  0  0
 78 81  1  0  0  0
 78151  1  0  0  0
 78152  1  0  0  0
 78153  1  0  0  0
 79 85  1  0  0  0
 79154  1  0  0  0
 79155  1  0  0  0
 79156  1  0  0  0
 80 86  1  0  0  0
 80157  1  0  0  0
 80158  1  0  0  0
 81 86  1  0  0  0
 81159  1  0  0  0
 81160  1  0  0  0
 82 83  1  0  0  0
 82 85  1  0  0  0
 82161  1  0  0  0
 82162  1  0  0  0
 83163  1  0  0  0
 83164  1  0  0  0
 84165  1  0  0  0
 84166  1  0  0  0
M  ISO  4   1 100  68 101  83 101  86 100
M  END
> <chiral flag>
0

> <version>
0

> <s_m_source_file>
/data/baiqing/PycharmProjects/Reinvent-master-3.2/result/LINK_invent/BTK/process_docking_weight1_custom_sum_contain_oxygen_bond_distance_aromatic_linkinvent_7_9_3/rearranged_h_0005.sdf

> <i_m_source_file_index>
60

> <r_mmod_Potential_Energy-OPLS-2005>
321.257232666016

> <r_mmod_Stretch_Energy-OPLS-2005>
86.7352676391602

> <r_mmod_Bend_Energy-OPLS-2005>
180.777587890625

> <r_mmod_Torsional_Energy-OPLS-2005>
302.434143066406

> <r_mmod_Improper_Torsional_Energy-OPLS-2005>
28.4913921356201

> <r_mmod_Van_der_Waal_Energy-OPLS-2005>
182.6796875

> <r_mmod_Electrostatic_Energy-OPLS-2005>
-339.035552978516

> <r_mmod_Solvation_Energy-OPLS-2005>
-208.7939453125

> <b_mmod_Minimization_Converged-OPLS-2005>
0

> <r_mmod_RMS_Derivative-OPLS-2005>
3.75827097892761

$$$$
60
                    3D
 Structure written by MMmdl.
164172  0  0  1  0            999 V2000
  -30.6279  -14.6471   20.5031 C   0  0  0  0  0  0
  -30.4396  -12.3948   19.4591 C   0  0  0  0  0  0
  -29.5080  -12.5002   18.2301 C   0  0  0  0  0  0
  -28.0313  -12.3390   18.6435 C   0  0  0  0  0  0
  -27.6545  -13.2165   19.8666 C   0  0  2  0  0  0
  -28.6993  -13.0765   20.9974 C   0  0  0  0  0  0
  -25.2563  -13.8172   20.5697 C   0  0  0  0  0  0
  -24.1824  -13.0437   20.9190 C   0  0  0  0  0  0
  -24.6389  -11.6908   20.8742 C   0  0  0  0  0  0
  -23.9054  -10.4294   21.0403 C   0  0  0  0  0  0
  -24.3608   -9.4211   21.9184 C   0  0  0  0  0  0
  -23.6286   -8.2246   22.0756 C   0  0  0  0  0  0
  -22.4274   -8.0280   21.3543 C   0  0  0  0  0  0
  -21.9903   -9.0249   20.4646 C   0  0  0  0  0  0
  -22.7225  -10.2132   20.3053 C   0  0  0  0  0  0
  -21.6848   -6.0737   22.5278 C   0  0  0  0  0  0
  -21.4012   -6.5643   23.8210 C   0  0  0  0  0  0
  -21.3658   -5.6793   24.9172 C   0  0  0  0  0  0
  -21.6043   -4.3055   24.7220 C   0  0  0  0  0  0
  -21.8818   -3.8149   23.4339 C   0  0  0  0  0  0
  -21.9195   -4.6967   22.3399 C   0  0  0  0  0  0
  -22.7847  -13.5231   21.1854 C   0  0  0  0  0  0
  -22.1661   -4.2158   21.0974 F   0  0  0  0  0  0
  -21.5632   -3.4534   25.7729 F   0  0  0  0  0  0
  -30.0168  -13.4197   20.4362 N   0  0  0  0  0  0
  -26.2995  -12.9355   20.3344 N   0  0  0  0  0  0
  -25.9322  -11.6509   20.5773 N   0  0  0  0  0  0
  -22.0488  -12.8222   22.0408 N   0  0  0  0  0  0
  -25.4292  -15.1891   20.4132 N   0  0  0  0  0  0
  -31.7774  -14.8116   20.0828 O   0  0  0  0  0  0
  -21.6641   -6.8876   21.4236 O   0  0  0  0  0  0
  -22.3535  -14.5543   20.6714 O   0  0  0  0  0  0
  -24.6257  -31.8584   23.2015 C   0  0  0  0  0  0
  -25.9097  -32.4771   23.8348 C   0  0  1  0  0  0
  -27.2274  -27.3139   20.1146 C   0  0  0  0  0  0
  -25.5908  -33.8574   24.2263 N   0  0  0  0  0  0
  -23.4209  -30.4833   21.5432 C   0  0  2  0  0  0
  -24.8687  -28.9399   20.1085 C   0  0  0  0  0  0
  -22.7475  -29.4622   22.4913 C   0  0  0  0  0  0
  -18.0289  -28.1385   22.8492 C   0  0  0  0  0  0
  -24.1486  -36.7288   23.2645 C   0  0  0  0  0  0
  -25.9632  -30.7883   21.3747 C   0  0  0  0  0  0
  -26.0382  -29.4171   20.7131 C   0  0  0  0  0  0
  -27.2205  -28.6162   20.7064 C   0  0  0  0  0  0
  -26.0318  -26.8942   19.4840 C   0  0  0  0  0  0
  -24.8672  -27.6834   19.4854 C   0  0  0  0  0  0
  -23.6365  -29.8203   20.1578 C   0  0  0  0  0  0
  -25.4113  -36.3080   24.0335 C   0  0  1  0  0  0
  -20.5893  -28.3683   23.1283 C   0  0  2  0  0  0
  -20.6777  -26.9403   22.5409 C   0  0  0  0  0  0
  -19.5752  -26.6387   21.5211 C   0  0  0  0  0  0
  -18.1933  -26.7934   22.1621 C   0  0  0  0  0  0
  -19.1547  -28.8849   23.2882 C   0  0  0  0  0  0
  -18.9467  -30.1453   23.8893 C   0  0  0  0  0  0
  -17.6473  -30.6588   24.0569 C   0  0  0  0  0  0
  -25.9051  -34.9455   23.5105 C   0  0  0  0  0  0
  -16.5357  -29.9096   23.6338 C   0  0  0  0  0  0
  -16.7282  -28.6510   23.0355 C   0  0  0  0  0  0
  -26.4477  -31.6594   25.0726 C   0  0  0  0  0  0
  -25.3711  -31.3751   26.1457 C   0  0  0  0  0  0
  -27.0315  -30.3018   24.6188 C   0  0  0  0  0  0
  -27.6026  -32.4344   25.7498 C   0  0  0  0  0  0
  -27.5577  -37.1802   24.8467 C   0  0  0  0  0  0
  -21.4188  -29.3036   22.3671 N   0  0  0  0  0  0
  -26.4285  -37.3777   23.9416 N   0  0  0  0  0  0
  -24.6880  -31.0598   22.0964 N   0  0  0  0  0  0
  -23.4196  -28.8167   23.2996 O   0  0  0  0  0  0
  -28.3436  -26.4580   20.1700 O   0  0  0  0  0  0
  -26.5621  -34.8924   22.4670 O   0  0  0  0  0  0
  -23.5417  -32.1384   23.7337 O   0  0  0  0  0  0
  -30.6517  -19.2499   19.6653 C   0  0  0  0  0  0
  -30.6456  -17.8225   19.7623 C   0  0  0  0  0  0
  -29.2487  -17.9877   21.7091 C   0  0  0  0  0  0
  -29.9795  -20.0921   20.5969 C   0  0  0  0  0  0
  -29.9498  -17.1466   20.8002 C   0  0  0  0  0  0
  -29.2716  -19.4145   21.6265 C   0  0  0  0  0  0
  -29.2814  -24.0302   20.3996 C   0  0  0  0  0  0
  -25.4831  -22.0837   23.0177 C   0  0  0  0  0  0
  -26.8020  -20.8712   24.8080 C   0  0  0  0  0  0
  -30.2163  -21.6546   20.6023 C   0  0  0  0  0  0
  -28.1125  -25.0020   19.9699 C   0  0  0  0  0  0
  -27.3141  -20.4618   22.3526 C   0  0  0  0  0  0
  -26.8446  -21.4856   23.3988 C   0  0  0  0  0  0
  -29.8536  -15.6886   20.9468 N   0  0  0  0  0  0
  -29.1506  -22.6658   20.2745 N   0  0  0  0  0  0
  -30.3211  -24.5203   20.8464 O   0  0  0  0  0  0
  -28.6708  -20.1420   22.6170 O   0  0  0  0  0  0
  -31.4803  -12.5192   19.1561 H   0  0  0  0  0  0
  -30.3780  -11.4011   19.9060 H   0  0  0  0  0  0
  -29.7717  -11.7406   17.4927 H   0  0  0  0  0  0
  -29.6498  -13.4646   17.7404 H   0  0  0  0  0  0
  -27.8714  -11.2871   18.8838 H   0  0  0  0  0  0
  -27.3746  -12.5582   17.8009 H   0  0  0  0  0  0
  -27.6735  -14.2505   19.5219 H   0  0  0  0  0  0
  -28.7109  -12.0560   21.3831 H   0  0  0  0  0  0
  -28.4392  -13.7094   21.8472 H   0  0  0  0  0  0
  -25.2746   -9.5697   22.4760 H   0  0  0  0  0  0
  -23.9999   -7.4636   22.7471 H   0  0  0  0  0  0
  -21.0838   -8.8747   19.8947 H   0  0  0  0  0  0
  -22.3665  -10.9665   19.6164 H   0  0  0  0  0  0
  -21.1997   -7.6151   23.9710 H   0  0  0  0  0  0
  -21.1483   -6.0528   25.9076 H   0  0  0  0  0  0
  -22.0600   -2.7612   23.2830 H   0  0  0  0  0  0
  -22.4093  -11.9867   22.4775 H   0  0  0  0  0  0
  -21.1114  -13.1260   22.2631 H   0  0  0  0  0  0
  -24.6647  -15.8462   20.5253 H   0  0  0  0  0  0
  -26.2829  -15.6263   20.0900 H   0  0  0  0  0  0
  -26.7167  -32.5423   23.1099 H   0  0  0  0  0  0
  -25.0053  -33.9720   25.0409 H   0  0  0  0  0  0
  -22.7160  -31.3049   21.3998 H   0  0  0  0  0  0
  -23.3757  -35.9609   23.3307 H   0  0  0  0  0  0
  -24.3584  -36.8906   22.2058 H   0  0  0  0  0  0
  -23.7233  -37.6491   23.6665 H   0  0  0  0  0  0
  -26.1005  -31.5563   20.6123 H   0  0  0  0  0  0
  -26.8407  -30.8305   22.0077 H   0  0  0  0  0  0
  -28.1173  -28.9784   21.1905 H   0  0  0  0  0  0
  -25.9635  -25.9364   18.9901 H   0  0  0  0  0  0
  -23.9708  -27.3127   19.0073 H   0  0  0  0  0  0
  -23.7565  -30.5980   19.4025 H   0  0  0  0  0  0
  -22.7563  -29.2503   19.8549 H   0  0  0  0  0  0
  -25.1302  -36.1919   25.0828 H   0  0  0  0  0  0
  -20.9984  -28.3235   24.1405 H   0  0  0  0  0  0
  -20.5675  -26.2283   23.3603 H   0  0  0  0  0  0
  -21.6647  -26.7430   22.1197 H   0  0  0  0  0  0
  -19.6919  -25.6302   21.1232 H   0  0  0  0  0  0
  -19.6703  -27.3207   20.6746 H   0  0  0  0  0  0
  -17.4209  -26.6691   21.4014 H   0  0  0  0  0  0
  -18.0324  -26.0076   22.9012 H   0  0  0  0  0  0
  -19.7943  -30.7272   24.2250 H   0  0  0  0  0  0
  -17.5036  -31.6271   24.5173 H   0  0  0  0  0  0
  -15.5364  -30.3002   23.7678 H   0  0  0  0  0  0
  -15.8674  -28.0844   22.7058 H   0  0  0  0  0  0
  -24.5884  -30.7089   25.7814 H   0  0  0  0  0  0
  -24.8898  -32.2922   26.4860 H   0  0  0  0  0  0
  -25.8049  -30.8961   27.0243 H   0  0  0  0  0  0
  -26.2889  -29.6783   24.1192 H   0  0  0  0  0  0
  -27.3993  -29.7259   25.4689 H   0  0  0  0  0  0
  -27.8773  -30.4314   23.9432 H   0  0  0  0  0  0
  -27.2618  -33.3646   26.2057 H   0  0  0  0  0  0
  -28.3844  -32.6901   25.0336 H   0  0  0  0  0  0
  -28.0685  -31.8484   26.5428 H   0  0  0  0  0  0
  -28.2590  -38.0099   24.7503 H   0  0  0  0  0  0
  -28.1070  -36.2633   24.6292 H   0  0  0  0  0  0
  -27.2299  -37.1444   25.8869 H   0  0  0  0  0  0
  -20.9350  -29.8774   21.6908 H   0  0  0  0  0  0
  -26.0163  -38.2850   24.1416 H   0  0  0  0  0  0
  -31.2303  -19.7046   18.8734 H   0  0  0  0  0  0
  -31.1890  -17.2500   19.0233 H   0  0  0  0  0  0
  -28.6993  -17.5346   22.5220 H   0  0  0  0  0  0
  -25.1640  -22.8338   23.7422 H   0  0  0  0  0  0
  -24.7115  -21.3143   22.9710 H   0  0  0  0  0  0
  -25.5261  -22.5710   22.0427 H   0  0  0  0  0  0
  -26.4924  -21.6067   25.5515 H   0  0  0  0  0  0
  -27.7823  -20.4986   25.1076 H   0  0  0  0  0  0
  -26.1037  -20.0350   24.8556 H   0  0  0  0  0  0
  -31.0594  -21.8591   19.9403 H   0  0  0  0  0  0
  -30.5850  -21.8948   21.6013 H   0  0  0  0  0  0
  -27.2297  -24.6922   20.5299 H   0  0  0  0  0  0
  -27.9120  -24.8180   18.9146 H   0  0  0  0  0  0
  -27.2169  -20.8821   21.3507 H   0  0  0  0  0  0
  -26.6985  -19.5611   22.3844 H   0  0  0  0  0  0
  -27.5667  -22.3044   23.4087 H   0  0  0  0  0  0
  -29.0109  -15.3709   21.4010 H   0  0  0  0  0  0
  -28.2887  -22.3134   19.8821 H   0  0  0  0  0  0
  1 25  1  0  0  0
  1 30  2  0  0  0
  1 84  1  0  0  0
  2  3  1  0  0  0
  2 25  1  0  0  0
  2 88  1  0  0  0
  2 89  1  0  0  0
  3  4  1  0  0  0
  3 90  1  0  0  0
  3 91  1  0  0  0
  4  5  1  0  0  0
  4 92  1  0  0  0
  4 93  1  0  0  0
  5  6  1  0  0  0
  5 26  1  0  0  0
  5 94  1  0  0  0
  6 25  1  0  0  0
  6 95  1  0  0  0
  6 96  1  0  0  0
  7  8  2  0  0  0
  7 26  1  0  0  0
  7 29  1  0  0  0
  8  9  1  0  0  0
  8 22  1  0  0  0
  9 10  1  0  0  0
  9 27  2  0  0  0
 10 11  2  0  0  0
 10 15  1  0  0  0
 11 12  1  0  0  0
 11 97  1  0  0  0
 12 13  2  0  0  0
 12 98  1  0  0  0
 13 14  1  0  0  0
 13 31  1  0  0  0
 14 15  2  0  0  0
 14 99  1  0  0  0
 15100  1  0  0  0
 16 17  2  0  0  0
 16 21  1  0  0  0
 16 31  1  0  0  0
 17 18  1  0  0  0
 17101  1  0  0  0
 18 19  2  0  0  0
 18102  1  0  0  0
 19 20  1  0  0  0
 19 24  1  0  0  0
 20 21  2  0  0  0
 20103  1  0  0  0
 21 23  1  0  0  0
 22 28  1  0  0  0
 22 32  2  0  0  0
 26 27  1  0  0  0
 28104  1  0  0  0
 28105  1  0  0  0
 29106  1  0  0  0
 29107  1  0  0  0
 33 34  1  0  0  0
 33 66  1  0  0  0
 33 70  2  0  0  0
 34 36  1  0  0  0
 34 59  1  0  0  0
 34108  1  0  0  0
 35 44  2  0  0  0
 35 45  1  0  0  0
 35 68  1  0  0  0
 36 56  1  0  0  0
 36109  1  0  0  0
 37 39  1  0  0  0
 37 47  1  0  0  0
 37 66  1  0  0  0
 37110  1  0  0  0
 38 43  2  0  0  0
 38 46  1  0  0  0
 38 47  1  0  0  0
 39 64  1  0  0  0
 39 67  2  0  0  0
 40 52  1  0  0  0
 40 53  2  0  0  0
 40 58  1  0  0  0
 41111  1  0  0  0
 41112  1  0  0  0
 41113  1  0  0  0
 41 48  1  0  0  0
 42 43  1  0  0  0
 42 66  1  0  0  0
 42114  1  0  0  0
 42115  1  0  0  0
 43 44  1  0  0  0
 44116  1  0  0  0
 45 46  2  0  0  0
 45117  1  0  0  0
 46118  1  0  0  0
 47119  1  0  0  0
 47120  1  0  0  0
 48 56  1  0  0  0
 48 65  1  0  0  0
 48121  1  0  0  0
 49 50  1  0  0  0
 49 53  1  0  0  0
 49 64  1  0  0  0
 49122  1  0  0  0
 50 51  1  0  0  0
 50123  1  0  0  0
 50124  1  0  0  0
 51 52  1  0  0  0
 51125  1  0  0  0
 51126  1  0  0  0
 52127  1  0  0  0
 52128  1  0  0  0
 53 54  1  0  0  0
 54 55  2  0  0  0
 54129  1  0  0  0
 55 57  1  0  0  0
 55130  1  0  0  0
 56 69  2  0  0  0
 57 58  2  0  0  0
 57131  1  0  0  0
 58132  1  0  0  0
 59 60  1  0  0  0
 59 61  1  0  0  0
 59 62  1  0  0  0
 60133  1  0  0  0
 60134  1  0  0  0
 60135  1  0  0  0
 61136  1  0  0  0
 61137  1  0  0  0
 61138  1  0  0  0
 62139  1  0  0  0
 62140  1  0  0  0
 62141  1  0  0  0
 63 65  1  0  0  0
 63142  1  0  0  0
 63143  1  0  0  0
 63144  1  0  0  0
 64145  1  0  0  0
 65146  1  0  0  0
 68 81  1  0  0  0
 71 72  2  0  0  0
 71 74  1  0  0  0
 71147  1  0  0  0
 72 75  1  0  0  0
 72148  1  0  0  0
 73 75  2  0  0  0
 73 76  1  0  0  0
 73149  1  0  0  0
 74 76  2  0  0  0
 74 80  1  0  0  0
 75 84  1  0  0  0
 76 87  1  0  0  0
 77 81  1  0  0  0
 77 85  1  0  0  0
 77 86  2  0  0  0
 78150  1  0  0  0
 78151  1  0  0  0
 78152  1  0  0  0
 78 83  1  0  0  0
 79 83  1  0  0  0
 79153  1  0  0  0
 79154  1  0  0  0
 79155  1  0  0  0
 80 85  1  0  0  0
 80156  1  0  0  0
 80157  1  0  0  0
 81158  1  0  0  0
 81159  1  0  0  0
 82 83  1  0  0  0
 82 87  1  0  0  0
 82160  1  0  0  0
 82161  1  0  0  0
 83162  1  0  0  0
 84163  1  0  0  0
 85164  1  0  0  0
M  ISO  4   1 100  68 101  81 101  84 100
M  END
> <chiral flag>
0

> <version>
0

> <s_m_source_file>
/data/baiqing/PycharmProjects/Reinvent-master-3.2/result/LINK_invent/BTK/process_docking_weight1_custom_sum_contain_oxygen_bond_distance_aromatic_linkinvent_7_9_3/rearranged_h_0005.sdf

> <i_m_source_file_index>
61

> <r_mmod_Potential_Energy-OPLS-2005>
36.0466537475586

> <r_mmod_Stretch_Energy-OPLS-2005>
82.6563415527344

> <r_mmod_Bend_Energy-OPLS-2005>
139.587799072266

> <r_mmod_Torsional_Energy-OPLS-2005>
254.513458251953

> <r_mmod_Improper_Torsional_Energy-OPLS-2005>
4.38620567321777

> <r_mmod_Van_der_Waal_Energy-OPLS-2005>
135.477996826172

> <r_mmod_Electrostatic_Energy-OPLS-2005>
-384.970886230469

> <r_mmod_Solvation_Energy-OPLS-2005>
-246.413604736328

> <b_mmod_Minimization_Converged-OPLS-2005>
0

> <r_mmod_RMS_Derivative-OPLS-2005>
1.41700530052185

$$$$
61
                    3D
 Structure written by MMmdl.
161169  0  0  1  0            999 V2000
  -30.6086  -14.6554   20.4836 C   0  0  0  0  0  0
  -30.4415  -12.4006   19.4441 C   0  0  0  0  0  0
  -29.5094  -12.5156   18.2170 C   0  0  0  0  0  0
  -28.0310  -12.3499   18.6281 C   0  0  0  0  0  0
  -27.6512  -13.2179   19.8580 C   0  0  2  0  0  0
  -28.6993  -13.0771   20.9849 C   0  0  0  0  0  0
  -25.2573  -13.8155   20.5755 C   0  0  0  0  0  0
  -24.1825  -13.0418   20.9194 C   0  0  0  0  0  0
  -24.6401  -11.6901   20.8724 C   0  0  0  0  0  0
  -23.9075  -10.4290   21.0396 C   0  0  0  0  0  0
  -24.3625   -9.4206   21.9172 C   0  0  0  0  0  0
  -23.6296   -8.2245   22.0751 C   0  0  0  0  0  0
  -22.4276   -8.0286   21.3545 C   0  0  0  0  0  0
  -21.9916   -9.0260   20.4645 C   0  0  0  0  0  0
  -22.7247  -10.2133   20.3044 C   0  0  0  0  0  0
  -21.6854   -6.0740   22.5282 C   0  0  0  0  0  0
  -21.4015   -6.5640   23.8218 C   0  0  0  0  0  0
  -21.3655   -5.6787   24.9179 C   0  0  0  0  0  0
  -21.6043   -4.3052   24.7224 C   0  0  0  0  0  0
  -21.8818   -3.8148   23.4345 C   0  0  0  0  0  0
  -21.9189   -4.6966   22.3405 C   0  0  0  0  0  0
  -22.7849  -13.5221   21.1853 C   0  0  0  0  0  0
  -22.1655   -4.2154   21.0980 F   0  0  0  0  0  0
  -21.5630   -3.4532   25.7735 F   0  0  0  0  0  0
  -30.0115  -13.4233   20.4163 N   0  0  0  0  0  0
  -26.2989  -12.9348   20.3301 N   0  0  0  0  0  0
  -25.9323  -11.6501   20.5716 N   0  0  0  0  0  0
  -22.0474  -12.8229   22.0406 N   0  0  0  0  0  0
  -25.4264  -15.1881   20.4362 N   0  0  0  0  0  0
  -31.7891  -14.8187   20.1609 O   0  0  0  0  0  0
  -21.6638   -6.8886   21.4249 O   0  0  0  0  0  0
  -22.3542  -14.5527   20.6693 O   0  0  0  0  0  0
  -24.6261  -31.8607   23.2028 C   0  0  0  0  0  0
  -25.9113  -32.4782   23.8359 C   0  0  1  0  0  0
  -27.2258  -27.3180   20.1176 C   0  0  0  0  0  0
  -25.5935  -33.8584   24.2283 N   0  0  0  0  0  0
  -23.4195  -30.4838   21.5465 C   0  0  2  0  0  0
  -24.8656  -28.9387   20.1126 C   0  0  0  0  0  0
  -22.7480  -29.4624   22.4953 C   0  0  0  0  0  0
  -18.0285  -28.1369   22.8481 C   0  0  0  0  0  0
  -24.1490  -36.7294   23.2638 C   0  0  0  0  0  0
  -25.9610  -30.7902   21.3742 C   0  0  0  0  0  0
  -26.0353  -29.4179   20.7162 C   0  0  0  0  0  0
  -27.2176  -28.6191   20.7091 C   0  0  0  0  0  0
  -26.0306  -26.8938   19.4895 C   0  0  0  0  0  0
  -24.8646  -27.6809   19.4929 C   0  0  0  0  0  0
  -23.6342  -29.8193   20.1615 C   0  0  0  0  0  0
  -25.4116  -36.3087   24.0328 C   0  0  1  0  0  0
  -20.5887  -28.3679   23.1282 C   0  0  2  0  0  0
  -20.6774  -26.9406   22.5405 C   0  0  0  0  0  0
  -19.5754  -26.6370   21.5204 C   0  0  0  0  0  0
  -18.1934  -26.7912   22.1615 C   0  0  0  0  0  0
  -19.1538  -28.8843   23.2872 C   0  0  0  0  0  0
  -18.9463  -30.1444   23.8885 C   0  0  0  0  0  0
  -17.6465  -30.6578   24.0554 C   0  0  0  0  0  0
  -25.9055  -34.9455   23.5105 C   0  0  0  0  0  0
  -16.5355  -29.9073   23.6326 C   0  0  0  0  0  0
  -16.7274  -28.6486   23.0354 C   0  0  0  0  0  0
  -26.4489  -31.6593   25.0734 C   0  0  0  0  0  0
  -25.3723  -31.3734   26.1464 C   0  0  0  0  0  0
  -27.0333  -30.3022   24.6177 C   0  0  0  0  0  0
  -27.6047  -32.4327   25.7511 C   0  0  0  0  0  0
  -27.5580  -37.1805   24.8465 C   0  0  0  0  0  0
  -21.4195  -29.3038   22.3691 N   0  0  0  0  0  0
  -26.4292  -37.3783   23.9408 N   0  0  0  0  0  0
  -24.6880  -31.0614   22.0979 N   0  0  0  0  0  0
  -23.4201  -28.8169   23.3035 O   0  0  0  0  0  0
  -28.3447  -26.4674   20.1747 O   0  0  0  0  0  0
  -26.5625  -34.8923   22.4670 O   0  0  0  0  0  0
  -23.5427  -32.1411   23.7350 O   0  0  0  0  0  0
  -30.9994  -17.8910   21.0711 C   0  0  0  0  0  0
  -31.0061  -19.3169   21.0540 C   0  0  0  0  0  0
  -28.8126  -19.3477   20.0791 C   0  0  0  0  0  0
  -29.8854  -17.1532   20.5989 C   0  0  0  0  0  0
  -29.9143  -20.0917   20.5778 C   0  0  0  0  0  0
  -28.7961  -17.9107   20.0785 C   0  0  0  0  0  0
  -26.9958  -16.4716   17.4307 C   0  0  0  0  0  0
  -25.7633  -18.3111   18.6815 C   0  0  0  0  0  0
  -29.2385  -23.9647   20.4376 C   0  0  0  0  0  0
  -28.1253  -25.0111   19.9953 C   0  0  0  0  0  0
  -28.9400  -22.4087   20.2111 C   0  0  0  0  0  0
  -27.1249  -17.6699   18.3779 C   0  0  0  0  0  0
  -29.7513  -15.7013   20.7004 N   0  0  0  0  0  0
  -30.0073  -21.5004   20.6392 O   0  0  0  0  0  0
  -27.7255  -17.1944   19.5834 O   0  0  0  0  0  0
  -31.4825  -12.5314   19.1436 H   0  0  0  0  0  0
  -30.3769  -11.4042   19.8850 H   0  0  0  0  0  0
  -29.7776  -11.7693   17.4680 H   0  0  0  0  0  0
  -29.6478  -13.4871   17.7402 H   0  0  0  0  0  0
  -27.8682  -11.2960   18.8548 H   0  0  0  0  0  0
  -27.3770  -12.5827   17.7862 H   0  0  0  0  0  0
  -27.6616  -14.2522   19.5156 H   0  0  0  0  0  0
  -28.7133  -12.0566   21.3698 H   0  0  0  0  0  0
  -28.4485  -13.7136   21.8351 H   0  0  0  0  0  0
  -25.2776   -9.5676   22.4740 H   0  0  0  0  0  0
  -24.0002   -7.4637   22.7470 H   0  0  0  0  0  0
  -21.0843   -8.8781   19.8956 H   0  0  0  0  0  0
  -22.3713  -10.9669   19.6146 H   0  0  0  0  0  0
  -21.2016   -7.6147   23.9726 H   0  0  0  0  0  0
  -21.1474   -6.0516   25.9081 H   0  0  0  0  0  0
  -22.0602   -2.7611   23.2843 H   0  0  0  0  0  0
  -22.4078  -11.9896   22.4818 H   0  0  0  0  0  0
  -21.1087  -13.1264   22.2586 H   0  0  0  0  0  0
  -24.6536  -15.8295   20.5704 H   0  0  0  0  0  0
  -26.2715  -15.6545   20.1272 H   0  0  0  0  0  0
  -26.7188  -32.5445   23.1115 H   0  0  0  0  0  0
  -25.0098  -33.9730   25.0438 H   0  0  0  0  0  0
  -22.7126  -31.3039   21.4041 H   0  0  0  0  0  0
  -23.3754  -35.9625   23.3301 H   0  0  0  0  0  0
  -24.3584  -36.8913   22.2053 H   0  0  0  0  0  0
  -23.7238  -37.6493   23.6661 H   0  0  0  0  0  0
  -26.0934  -31.5528   20.6056 H   0  0  0  0  0  0
  -26.8410  -30.8383   22.0037 H   0  0  0  0  0  0
  -28.1134  -28.9818   21.1937 H   0  0  0  0  0  0
  -25.9634  -25.9344   18.9994 H   0  0  0  0  0  0
  -23.9673  -27.3043   19.0207 H   0  0  0  0  0  0
  -23.7560  -30.5965   19.4063 H   0  0  0  0  0  0
  -22.7529  -29.2512   19.8575 H   0  0  0  0  0  0
  -25.1293  -36.1942   25.0820 H   0  0  0  0  0  0
  -20.9966  -28.3243   24.1409 H   0  0  0  0  0  0
  -20.5666  -26.2293   23.3604 H   0  0  0  0  0  0
  -21.6646  -26.7432   22.1208 H   0  0  0  0  0  0
  -19.6920  -25.6278   21.1239 H   0  0  0  0  0  0
  -19.6689  -27.3172   20.6729 H   0  0  0  0  0  0
  -17.4206  -26.6659   21.4015 H   0  0  0  0  0  0
  -18.0338  -26.0047   22.9005 H   0  0  0  0  0  0
  -19.7946  -30.7257   24.2247 H   0  0  0  0  0  0
  -17.5027  -31.6258   24.5155 H   0  0  0  0  0  0
  -15.5357  -30.2975   23.7652 H   0  0  0  0  0  0
  -15.8674  -28.0798   22.7082 H   0  0  0  0  0  0
  -24.5895  -30.7082   25.7803 H   0  0  0  0  0  0
  -24.8918  -32.2902   26.4893 H   0  0  0  0  0  0
  -25.8052  -30.8917   27.0241 H   0  0  0  0  0  0
  -26.2907  -29.6785   24.1188 H   0  0  0  0  0  0
  -27.4029  -29.7263   25.4671 H   0  0  0  0  0  0
  -27.8777  -30.4322   23.9406 H   0  0  0  0  0  0
  -27.2654  -33.3625   26.2092 H   0  0  0  0  0  0
  -28.3864  -32.6891   25.0347 H   0  0  0  0  0  0
  -28.0713  -31.8453   26.5429 H   0  0  0  0  0  0
  -28.2597  -38.0103   24.7517 H   0  0  0  0  0  0
  -28.1076  -36.2636   24.6284 H   0  0  0  0  0  0
  -27.2302  -37.1446   25.8869 H   0  0  0  0  0  0
  -20.9379  -29.8785   21.6922 H   0  0  0  0  0  0
  -26.0173  -38.2858   24.1406 H   0  0  0  0  0  0
  -31.8516  -17.3698   21.4827 H   0  0  0  0  0  0
  -31.8754  -19.8312   21.4394 H   0  0  0  0  0  0
  -27.9603  -19.8898   19.7027 H   0  0  0  0  0  0
  -26.5744  -16.7761   16.4724 H   0  0  0  0  0  0
  -26.3492  -15.6967   17.8419 H   0  0  0  0  0  0
  -27.9699  -16.0231   17.2333 H   0  0  0  0  0  0
  -25.2977  -18.6819   17.7677 H   0  0  0  0  0  0
  -25.8551  -19.1531   19.3658 H   0  0  0  0  0  0
  -25.0746  -17.5979   19.1319 H   0  0  0  0  0  0
  -29.4434  -24.1192   21.4974 H   0  0  0  0  0  0
  -30.1659  -24.2140   19.9218 H   0  0  0  0  0  0
  -27.2185  -24.7339   20.5354 H   0  0  0  0  0  0
  -27.9199  -24.8352   18.9388 H   0  0  0  0  0  0
  -28.7459  -22.2339   19.1519 H   0  0  0  0  0  0
  -28.0259  -22.1434   20.7428 H   0  0  0  0  0  0
  -27.7598  -18.4032   17.8766 H   0  0  0  0  0  0
  -28.7944  -15.3969   20.7864 H   0  0  0  0  0  0
  1 25  1  0  0  0
  1 30  2  0  0  0
  1 83  1  0  0  0
  2  3  1  0  0  0
  2 25  1  0  0  0
  2 86  1  0  0  0
  2 87  1  0  0  0
  3  4  1  0  0  0
  3 88  1  0  0  0
  3 89  1  0  0  0
  4  5  1  0  0  0
  4 90  1  0  0  0
  4 91  1  0  0  0
  5  6  1  0  0  0
  5 26  1  0  0  0
  5 92  1  0  0  0
  6 25  1  0  0  0
  6 93  1  0  0  0
  6 94  1  0  0  0
  7  8  2  0  0  0
  7 26  1  0  0  0
  7 29  1  0  0  0
  8  9  1  0  0  0
  8 22  1  0  0  0
  9 10  1  0  0  0
  9 27  2  0  0  0
 10 11  2  0  0  0
 10 15  1  0  0  0
 11 12  1  0  0  0
 11 95  1  0  0  0
 12 13  2  0  0  0
 12 96  1  0  0  0
 13 14  1  0  0  0
 13 31  1  0  0  0
 14 15  2  0  0  0
 14 97  1  0  0  0
 15 98  1  0  0  0
 16 17  2  0  0  0
 16 21  1  0  0  0
 16 31  1  0  0  0
 17 18  1  0  0  0
 17 99  1  0  0  0
 18 19  2  0  0  0
 18100  1  0  0  0
 19 20  1  0  0  0
 19 24  1  0  0  0
 20 21  2  0  0  0
 20101  1  0  0  0
 21 23  1  0  0  0
 22 28  1  0  0  0
 22 32  2  0  0  0
 26 27  1  0  0  0
 28102  1  0  0  0
 28103  1  0  0  0
 29104  1  0  0  0
 29105  1  0  0  0
 33 34  1  0  0  0
 33 66  1  0  0  0
 33 70  2  0  0  0
 34 36  1  0  0  0
 34 59  1  0  0  0
 34106  1  0  0  0
 35 44  2  0  0  0
 35 45  1  0  0  0
 35 68  1  0  0  0
 36 56  1  0  0  0
 36107  1  0  0  0
 37 39  1  0  0  0
 37 47  1  0  0  0
 37 66  1  0  0  0
 37108  1  0  0  0
 38 43  2  0  0  0
 38 46  1  0  0  0
 38 47  1  0  0  0
 39 64  1  0  0  0
 39 67  2  0  0  0
 40 52  1  0  0  0
 40 53  2  0  0  0
 40 58  1  0  0  0
 41109  1  0  0  0
 41110  1  0  0  0
 41111  1  0  0  0
 41 48  1  0  0  0
 42 43  1  0  0  0
 42 66  1  0  0  0
 42112  1  0  0  0
 42113  1  0  0  0
 43 44  1  0  0  0
 44114  1  0  0  0
 45 46  2  0  0  0
 45115  1  0  0  0
 46116  1  0  0  0
 47117  1  0  0  0
 47118  1  0  0  0
 48 56  1  0  0  0
 48 65  1  0  0  0
 48119  1  0  0  0
 49 50  1  0  0  0
 49 53  1  0  0  0
 49 64  1  0  0  0
 49120  1  0  0  0
 50 51  1  0  0  0
 50121  1  0  0  0
 50122  1  0  0  0
 51 52  1  0  0  0
 51123  1  0  0  0
 51124  1  0  0  0
 52125  1  0  0  0
 52126  1  0  0  0
 53 54  1  0  0  0
 54 55  2  0  0  0
 54127  1  0  0  0
 55 57  1  0  0  0
 55128  1  0  0  0
 56 69  2  0  0  0
 57 58  2  0  0  0
 57129  1  0  0  0
 58130  1  0  0  0
 59 60  1  0  0  0
 59 61  1  0  0  0
 59 62  1  0  0  0
 60131  1  0  0  0
 60132  1  0  0  0
 60133  1  0  0  0
 61134  1  0  0  0
 61135  1  0  0  0
 61136  1  0  0  0
 62137  1  0  0  0
 62138  1  0  0  0
 62139  1  0  0  0
 63 65  1  0  0  0
 63140  1  0  0  0
 63141  1  0  0  0
 63142  1  0  0  0
 64143  1  0  0  0
 65144  1  0  0  0
 68 80  1  0  0  0
 71 72  2  0  0  0
 71 74  1  0  0  0
 71145  1  0  0  0
 72 75  1  0  0  0
 72146  1  0  0  0
 73 75  2  0  0  0
 73 76  1  0  0  0
 73147  1  0  0  0
 74 76  2  0  0  0
 74 83  1  0  0  0
 75 84  1  0  0  0
 76 85  1  0  0  0
 77148  1  0  0  0
 77149  1  0  0  0
 77150  1  0  0  0
 77 82  1  0  0  0
 78 82  1  0  0  0
 78151  1  0  0  0
 78152  1  0  0  0
 78153  1  0  0  0
 79 80  1  0  0  0
 79 81  1  0  0  0
 79154  1  0  0  0
 79155  1  0  0  0
 80156  1  0  0  0
 80157  1  0  0  0
 81 84  1  0  0  0
 81158  1  0  0  0
 81159  1  0  0  0
 82 85  1  0  0  0
 82160  1  0  0  0
 83161  1  0  0  0
M  ISO  4   1 100  68 101  80 101  83 100
M  END
> <chiral flag>
0

> <version>
0

> <s_m_source_file>
/data/baiqing/PycharmProjects/Reinvent-master-3.2/result/LINK_invent/BTK/process_docking_weight1_custom_sum_contain_oxygen_bond_distance_aromatic_linkinvent_7_9_3/rearranged_h_0005.sdf

> <i_m_source_file_index>
62

> <r_mmod_Potential_Energy-OPLS-2005>
1.86916995048523

> <r_mmod_Stretch_Energy-OPLS-2005>
79.5605773925781

> <r_mmod_Bend_Energy-OPLS-2005>
148.127899169922

> <r_mmod_Torsional_Energy-OPLS-2005>
231.23600769043

> <r_mmod_Improper_Torsional_Energy-OPLS-2005>
5.81008434295654

> <r_mmod_Van_der_Waal_Energy-OPLS-2005>
135.180648803711

> <r_mmod_Electrostatic_Energy-OPLS-2005>
-448.115417480469

> <r_mmod_Solvation_Energy-OPLS-2005>
-202.865524291992

> <b_mmod_Minimization_Converged-OPLS-2005>
0

> <r_mmod_RMS_Derivative-OPLS-2005>
0.979935169219971

$$$$
62
                    3D
 Structure written by MMmdl.
180188  0  0  1  0            999 V2000
  -30.7560  -14.3352   20.7003 C   0  0  0  0  0  0
  -30.4308  -12.2722   19.3880 C   0  0  0  0  0  0
  -29.4920  -12.5140   18.1910 C   0  0  0  0  0  0
  -28.0128  -12.3807   18.6032 C   0  0  0  0  0  0
  -27.6764  -13.1929   19.8807 C   0  0  2  0  0  0
  -28.7095  -12.9015   20.9913 C   0  0  0  0  0  0
  -25.2654  -13.8134   20.5597 C   0  0  0  0  0  0
  -24.1881  -13.0440   20.9136 C   0  0  0  0  0  0
  -24.6403  -11.6903   20.8717 C   0  0  0  0  0  0
  -23.9047  -10.4304   21.0398 C   0  0  0  0  0  0
  -24.3596   -9.4209   21.9169 C   0  0  0  0  0  0
  -23.6276   -8.2248   22.0748 C   0  0  0  0  0  0
  -22.4270   -8.0267   21.3530 C   0  0  0  0  0  0
  -21.9894   -9.0256   20.4653 C   0  0  0  0  0  0
  -22.7224  -10.2132   20.3046 C   0  0  0  0  0  0
  -21.6852   -6.0736   22.5291 C   0  0  0  0  0  0
  -21.4022   -6.5640   23.8223 C   0  0  0  0  0  0
  -21.3649   -5.6785   24.9183 C   0  0  0  0  0  0
  -21.6033   -4.3052   24.7230 C   0  0  0  0  0  0
  -21.8818   -3.8142   23.4354 C   0  0  0  0  0  0
  -21.9202   -4.6963   22.3414 C   0  0  0  0  0  0
  -22.7907  -13.5264   21.1803 C   0  0  0  0  0  0
  -22.1668   -4.2151   21.0988 F   0  0  0  0  0  0
  -21.5613   -3.4525   25.7733 F   0  0  0  0  0  0
  -30.0631  -13.1913   20.4724 N   0  0  0  0  0  0
  -26.3101  -12.9288   20.3353 N   0  0  0  0  0  0
  -25.9330  -11.6458   20.5738 N   0  0  0  0  0  0
  -22.0533  -12.8285   22.0364 N   0  0  0  0  0  0
  -25.4351  -15.1835   20.3894 N   0  0  0  0  0  0
  -31.7463  -14.6832   20.0470 O   0  0  0  0  0  0
  -21.6626   -6.8870   21.4243 O   0  0  0  0  0  0
  -22.3609  -14.5577   20.6644 O   0  0  0  0  0  0
  -24.6086  -31.8729   23.2141 C   0  0  0  0  0  0
  -25.9010  -32.4831   23.8404 C   0  0  1  0  0  0
  -27.2380  -27.4962   20.0893 C   0  0  0  0  0  0
  -25.5892  -33.8632   24.2330 N   0  0  0  0  0  0
  -23.3926  -30.4982   21.5541 C   0  0  2  0  0  0
  -24.8414  -28.9693   20.1176 C   0  0  0  0  0  0
  -22.7357  -29.4689   22.5011 C   0  0  0  0  0  0
  -18.0259  -28.1371   22.8487 C   0  0  0  0  0  0
  -24.1481  -36.7333   23.2632 C   0  0  0  0  0  0
  -25.9175  -30.8530   21.3645 C   0  0  0  0  0  0
  -25.9954  -29.4933   20.7128 C   0  0  0  0  0  0
  -27.2001  -28.7625   20.6995 C   0  0  0  0  0  0
  -26.0746  -26.9665   19.4963 C   0  0  0  0  0  0
  -24.8727  -27.7016   19.5086 C   0  0  0  0  0  0
  -23.5980  -29.8290   20.1686 C   0  0  0  0  0  0
  -25.4093  -36.3112   24.0329 C   0  0  1  0  0  0
  -20.5843  -28.3660   23.1329 C   0  0  2  0  0  0
  -20.6744  -26.9400   22.5436 C   0  0  0  0  0  0
  -19.5744  -26.6374   21.5212 C   0  0  0  0  0  0
  -18.1908  -26.7918   22.1601 C   0  0  0  0  0  0
  -19.1500  -28.8823   23.2916 C   0  0  0  0  0  0
  -18.9446  -30.1423   23.8936 C   0  0  0  0  0  0
  -17.6452  -30.6589   24.0560 C   0  0  0  0  0  0
  -25.9044  -34.9478   23.5128 C   0  0  0  0  0  0
  -16.5341  -29.9092   23.6321 C   0  0  0  0  0  0
  -16.7247  -28.6497   23.0357 C   0  0  0  0  0  0
  -26.4465  -31.6602   25.0724 C   0  0  0  0  0  0
  -25.3742  -31.3735   26.1487 C   0  0  0  0  0  0
  -27.0286  -30.3021   24.6117 C   0  0  0  0  0  0
  -27.6049  -32.4327   25.7479 C   0  0  0  0  0  0
  -27.5593  -37.1805   24.8438 C   0  0  0  0  0  0
  -21.4092  -29.3026   22.3726 N   0  0  0  0  0  0
  -26.4268  -37.3810   23.9424 N   0  0  0  0  0  0
  -24.6569  -31.0879   22.1029 N   0  0  0  0  0  0
  -23.4142  -28.8245   23.3039 O   0  0  0  0  0  0
  -28.4026  -26.7815   20.0685 O   0  0  0  0  0  0
  -26.5621  -34.8920   22.4691 O   0  0  0  0  0  0
  -23.5293  -32.1480   23.7566 O   0  0  0  0  0  0
  -28.4960  -16.5124   22.3264 C   0  0  0  0  0  0
  -27.7732  -17.7064   22.1526 C   0  0  0  0  0  0
  -30.2278  -17.3342   20.8130 C   0  0  0  0  0  0
  -29.7045  -16.3044   21.6304 C   0  0  0  0  0  0
  -28.2514  -18.6945   21.2682 C   0  0  0  0  0  0
  -29.4984  -18.5231   20.6299 C   0  0  0  0  0  0
  -26.7446  -19.8669   19.9285 C   0  0  0  0  0  0
  -33.2036  -20.7810   15.8317 C   0  0  0  0  0  0
  -26.2598  -21.2745   19.6063 C   0  0  0  0  0  0
  -32.2574  -21.9856   15.7805 C   0  0  0  0  0  0
  -30.8312  -21.6400   16.2368 C   0  0  0  0  0  0
  -29.9382  -22.8893   16.3384 C   0  0  0  0  0  0
  -28.4152  -23.9894   19.5247 C   0  0  0  0  0  0
  -29.1954  -24.6152   20.6892 C   0  0  0  0  0  0
  -26.7220  -21.7887   18.2180 C   0  0  0  0  0  0
  -28.4588  -22.6000   16.6813 C   0  0  0  0  0  0
  -28.9226  -22.5841   19.1574 C   0  0  0  0  0  0
  -28.5368  -25.9065   21.1802 C   0  0  0  0  0  0
  -30.3199  -15.0361   21.7528 N   0  0  0  0  0  0
  -28.1962  -21.9631   18.0090 N   0  3  1  0  0  0
  -26.4795  -18.9130   19.1921 O   0  0  0  0  0  0
  -27.5201  -19.8276   21.0304 O   0  0  0  0  0  0
  -29.9765  -19.4935   19.8120 F   0  0  0  0  0  0
  -31.4714  -12.3899   19.0796 H   0  0  0  0  0  0
  -30.3433  -11.2429   19.7376 H   0  0  0  0  0  0
  -29.7205  -11.8053   17.3934 H   0  0  0  0  0  0
  -29.6702  -13.5070   17.7764 H   0  0  0  0  0  0
  -27.8063  -11.3223   18.7714 H   0  0  0  0  0  0
  -27.3659  -12.6872   17.7803 H   0  0  0  0  0  0
  -27.7492  -14.2517   19.6255 H   0  0  0  0  0  0
  -28.6592  -11.8517   21.2834 H   0  0  0  0  0  0
  -28.4464  -13.4549   21.8923 H   0  0  0  0  0  0
  -25.2727   -9.5686   22.4758 H   0  0  0  0  0  0
  -23.9967   -7.4628   22.7458 H   0  0  0  0  0  0
  -21.0812   -8.8771   19.8983 H   0  0  0  0  0  0
  -22.3654  -10.9662   19.6156 H   0  0  0  0  0  0
  -21.2019   -7.6152   23.9729 H   0  0  0  0  0  0
  -21.1469   -6.0509   25.9082 H   0  0  0  0  0  0
  -22.0613   -2.7610   23.2838 H   0  0  0  0  0  0
  -22.4130  -11.9966   22.4792 H   0  0  0  0  0  0
  -21.1172  -13.1363   22.2571 H   0  0  0  0  0  0
  -24.6508  -15.8232   20.4440 H   0  0  0  0  0  0
  -26.2686  -15.6130   20.0094 H   0  0  0  0  0  0
  -26.7091  -32.5558   23.1181 H   0  0  0  0  0  0
  -24.9976  -33.9817   25.0425 H   0  0  0  0  0  0
  -22.6791  -31.3164   21.4210 H   0  0  0  0  0  0
  -23.3742  -35.9676   23.3260 H   0  0  0  0  0  0
  -24.3598  -36.8984   22.2060 H   0  0  0  0  0  0
  -23.7231  -37.6518   23.6684 H   0  0  0  0  0  0
  -26.0341  -31.6230   20.5998 H   0  0  0  0  0  0
  -26.8029  -30.8971   21.9855 H   0  0  0  0  0  0
  -28.0954  -29.1685   21.1475 H   0  0  0  0  0  0
  -26.0976  -25.9956   19.0242 H   0  0  0  0  0  0
  -23.9860  -27.2933   19.0435 H   0  0  0  0  0  0
  -23.6986  -30.6049   19.4095 H   0  0  0  0  0  0
  -22.7236  -29.2448   19.8773 H   0  0  0  0  0  0
  -25.1270  -36.1965   25.0825 H   0  0  0  0  0  0
  -20.9966  -28.3248   24.1441 H   0  0  0  0  0  0
  -20.5623  -26.2289   23.3634 H   0  0  0  0  0  0
  -21.6629  -26.7437   22.1277 H   0  0  0  0  0  0
  -19.6914  -25.6274   21.1260 H   0  0  0  0  0  0
  -19.6698  -27.3179   20.6738 H   0  0  0  0  0  0
  -17.4200  -26.6682   21.3976 H   0  0  0  0  0  0
  -18.0304  -26.0036   22.8972 H   0  0  0  0  0  0
  -19.7920  -30.7196   24.2365 H   0  0  0  0  0  0
  -17.5019  -31.6294   24.5126 H   0  0  0  0  0  0
  -15.5337  -30.3015   23.7629 H   0  0  0  0  0  0
  -15.8643  -28.0825   22.7076 H   0  0  0  0  0  0
  -24.5900  -30.7094   25.7835 H   0  0  0  0  0  0
  -24.8960  -32.2913   26.4923 H   0  0  0  0  0  0
  -25.8089  -30.8913   27.0253 H   0  0  0  0  0  0
  -26.2838  -29.6796   24.1137 H   0  0  0  0  0  0
  -27.3993  -29.7238   25.4594 H   0  0  0  0  0  0
  -27.8705  -30.4294   23.9301 H   0  0  0  0  0  0
  -27.2645  -33.3584   26.2128 H   0  0  0  0  0  0
  -28.3803  -32.6961   25.0279 H   0  0  0  0  0  0
  -28.0792  -31.8431   26.5336 H   0  0  0  0  0  0
  -28.2562  -38.0156   24.7570 H   0  0  0  0  0  0
  -28.1141  -36.2693   24.6128 H   0  0  0  0  0  0
  -27.2365  -37.1299   25.8857 H   0  0  0  0  0  0
  -20.9247  -29.8722   21.6939 H   0  0  0  0  0  0
  -26.0148  -38.2878   24.1475 H   0  0  0  0  0  0
  -28.0871  -15.7441   22.9669 H   0  0  0  0  0  0
  -26.8316  -17.8456   22.6653 H   0  0  0  0  0  0
  -31.1653  -17.2121   20.2922 H   0  0  0  0  0  0
  -34.2057  -21.0641   15.5077 H   0  0  0  0  0  0
  -32.8618  -19.9737   15.1828 H   0  0  0  0  0  0
  -33.2839  -20.3846   16.8444 H   0  0  0  0  0  0
  -26.5622  -21.9536   20.4024 H   0  0  0  0  0  0
  -25.1698  -21.2604   19.6329 H   0  0  0  0  0  0
  -32.2316  -22.3889   14.7664 H   0  0  0  0  0  0
  -32.6645  -22.7788   16.4096 H   0  0  0  0  0  0
  -30.8746  -21.1387   17.2038 H   0  0  0  0  0  0
  -30.3921  -20.9287   15.5364 H   0  0  0  0  0  0
  -29.9555  -23.4018   15.3749 H   0  0  0  0  0  0
  -30.3647  -23.6106   17.0374 H   0  0  0  0  0  0
  -28.4867  -24.6469   18.6580 H   0  0  0  0  0  0
  -27.3611  -23.9505   19.7973 H   0  0  0  0  0  0
  -30.2223  -24.8180   20.3797 H   0  0  0  0  0  0
  -29.2555  -23.9117   21.5212 H   0  0  0  0  0  0
  -26.2264  -22.7437   18.0416 H   0  0  0  0  0  0
  -26.3351  -21.1202   17.4468 H   0  0  0  0  0  0
  -28.0348  -21.9676   15.8990 H   0  0  0  0  0  0
  -27.9099  -23.5413   16.6259 H   0  0  0  0  0  0
  -28.8441  -21.9367   20.0301 H   0  0  0  0  0  0
  -29.9940  -22.6124   18.9632 H   0  0  0  0  0  0
  -29.1476  -26.3833   21.9476 H   0  0  0  0  0  0
  -27.5746  -25.6691   21.6409 H   0  0  0  0  0  0
  -29.8400  -14.4360   22.4058 H   0  0  0  0  0  0
  -28.5817  -21.0320   17.9298 H   0  0  0  0  0  0
  1 25  1  0  0  0
  1 30  2  0  0  0
  1 89  1  0  0  0
  2  3  1  0  0  0
  2 25  1  0  0  0
  2 94  1  0  0  0
  2 95  1  0  0  0
  3  4  1  0  0  0
  3 96  1  0  0  0
  3 97  1  0  0  0
  4  5  1  0  0  0
  4 98  1  0  0  0
  4 99  1  0  0  0
  5  6  1  0  0  0
  5 26  1  0  0  0
  5100  1  0  0  0
  6 25  1  0  0  0
  6101  1  0  0  0
  6102  1  0  0  0
  7  8  2  0  0  0
  7 26  1  0  0  0
  7 29  1  0  0  0
  8  9  1  0  0  0
  8 22  1  0  0  0
  9 10  1  0  0  0
  9 27  2  0  0  0
 10 11  2  0  0  0
 10 15  1  0  0  0
 11 12  1  0  0  0
 11103  1  0  0  0
 12 13  2  0  0  0
 12104  1  0  0  0
 13 14  1  0  0  0
 13 31  1  0  0  0
 14 15  2  0  0  0
 14105  1  0  0  0
 15106  1  0  0  0
 16 17  2  0  0  0
 16 21  1  0  0  0
 16 31  1  0  0  0
 17 18  1  0  0  0
 17107  1  0  0  0
 18 19  2  0  0  0
 18108  1  0  0  0
 19 20  1  0  0  0
 19 24  1  0  0  0
 20 21  2  0  0  0
 20109  1  0  0  0
 21 23  1  0  0  0
 22 28  1  0  0  0
 22 32  2  0  0  0
 26 27  1  0  0  0
 28110  1  0  0  0
 28111  1  0  0  0
 29112  1  0  0  0
 29113  1  0  0  0
 33 34  1  0  0  0
 33 66  1  0  0  0
 33 70  2  0  0  0
 34 36  1  0  0  0
 34 59  1  0  0  0
 34114  1  0  0  0
 35 44  2  0  0  0
 35 45  1  0  0  0
 35 68  1  0  0  0
 36 56  1  0  0  0
 36115  1  0  0  0
 37 39  1  0  0  0
 37 47  1  0  0  0
 37 66  1  0  0  0
 37116  1  0  0  0
 38 43  2  0  0  0
 38 46  1  0  0  0
 38 47  1  0  0  0
 39 64  1  0  0  0
 39 67  2  0  0  0
 40 52  1  0  0  0
 40 53  2  0  0  0
 40 58  1  0  0  0
 41117  1  0  0  0
 41118  1  0  0  0
 41119  1  0  0  0
 41 48  1  0  0  0
 42 43  1  0  0  0
 42 66  1  0  0  0
 42120  1  0  0  0
 42121  1  0  0  0
 43 44  1  0  0  0
 44122  1  0  0  0
 45 46  2  0  0  0
 45123  1  0  0  0
 46124  1  0  0  0
 47125  1  0  0  0
 47126  1  0  0  0
 48 56  1  0  0  0
 48 65  1  0  0  0
 48127  1  0  0  0
 49 50  1  0  0  0
 49 53  1  0  0  0
 49 64  1  0  0  0
 49128  1  0  0  0
 50 51  1  0  0  0
 50129  1  0  0  0
 50130  1  0  0  0
 51 52  1  0  0  0
 51131  1  0  0  0
 51132  1  0  0  0
 52133  1  0  0  0
 52134  1  0  0  0
 53 54  1  0  0  0
 54 55  2  0  0  0
 54135  1  0  0  0
 55 57  1  0  0  0
 55136  1  0  0  0
 56 69  2  0  0  0
 57 58  2  0  0  0
 57137  1  0  0  0
 58138  1  0  0  0
 59 60  1  0  0  0
 59 61  1  0  0  0
 59 62  1  0  0  0
 60139  1  0  0  0
 60140  1  0  0  0
 60141  1  0  0  0
 61142  1  0  0  0
 61143  1  0  0  0
 61144  1  0  0  0
 62145  1  0  0  0
 62146  1  0  0  0
 62147  1  0  0  0
 63 65  1  0  0  0
 63148  1  0  0  0
 63149  1  0  0  0
 63150  1  0  0  0
 64151  1  0  0  0
 65152  1  0  0  0
 68 88  1  0  0  0
 71 72  2  0  0  0
 71 74  1  0  0  0
 71153  1  0  0  0
 72 75  1  0  0  0
 72154  1  0  0  0
 73 74  2  0  0  0
 73 76  1  0  0  0
 73155  1  0  0  0
 74 89  1  0  0  0
 75 76  2  0  0  0
 75 92  1  0  0  0
 76 93  1  0  0  0
 77 79  1  0  0  0
 77 91  2  0  0  0
 77 92  1  0  0  0
 78 80  1  0  0  0
 78156  1  0  0  0
 78157  1  0  0  0
 78158  1  0  0  0
 79 85  1  0  0  0
 79159  1  0  0  0
 79160  1  0  0  0
 80 81  1  0  0  0
 80161  1  0  0  0
 80162  1  0  0  0
 81 82  1  0  0  0
 81163  1  0  0  0
 81164  1  0  0  0
 82 86  1  0  0  0
 82165  1  0  0  0
 82166  1  0  0  0
 83 84  1  0  0  0
 83 87  1  0  0  0
 83167  1  0  0  0
 83168  1  0  0  0
 84 88  1  0  0  0
 84169  1  0  0  0
 84170  1  0  0  0
 85171  1  0  0  0
 85172  1  0  0  0
 85 90  1  0  0  0
 86 90  1  0  0  0
 86173  1  0  0  0
 86174  1  0  0  0
 87 90  1  0  0  0
 87175  1  0  0  0
 87176  1  0  0  0
 88177  1  0  0  0
 88178  1  0  0  0
 89179  1  0  0  0
 90180  1  0  0  0
M  CHG  1  90   1
M  ISO  4   1 100  68 101  88 101  89 100
M  END
> <chiral flag>
0

> <version>
0

> <s_m_source_file>
/data/baiqing/PycharmProjects/Reinvent-master-3.2/result/LINK_invent/BTK/process_docking_weight1_custom_sum_contain_oxygen_bond_distance_aromatic_linkinvent_7_9_3/rearranged_h_0005.sdf

> <i_m_source_file_index>
63

> <r_mmod_Potential_Energy-OPLS-2005>
-129.614669799805

> <r_mmod_Stretch_Energy-OPLS-2005>
34.3120422363281

> <r_mmod_Bend_Energy-OPLS-2005>
101.536643981934

> <r_mmod_Torsional_Energy-OPLS-2005>
290.867919921875

> <r_mmod_Improper_Torsional_Energy-OPLS-2005>
6.96063232421875

> <r_mmod_Van_der_Waal_Energy-OPLS-2005>
142.67903137207

> <r_mmod_Electrostatic_Energy-OPLS-2005>
-304.274749755859

> <r_mmod_Solvation_Energy-OPLS-2005>
-408.770690917969

> <b_mmod_Minimization_Converged-OPLS-2005>
0

> <r_mmod_RMS_Derivative-OPLS-2005>
2.93202686309814

$$$$
63
                    3D
 Structure written by MMmdl.
167175  0  0  1  0            999 V2000
  -30.7138  -14.4209   20.5791 C   0  0  0  0  0  0
  -30.4204  -12.2750   19.4171 C   0  0  0  0  0  0
  -29.4958  -12.4950   18.2023 C   0  0  0  0  0  0
  -28.0151  -12.3636   18.6122 C   0  0  0  0  0  0
  -27.6639  -13.1992   19.8726 C   0  0  2  0  0  0
  -28.7007  -12.9647   20.9923 C   0  0  0  0  0  0
  -25.2613  -13.8148   20.5665 C   0  0  0  0  0  0
  -24.1844  -13.0441   20.9148 C   0  0  0  0  0  0
  -24.6380  -11.6903   20.8719 C   0  0  0  0  0  0
  -23.9042  -10.4295   21.0399 C   0  0  0  0  0  0
  -24.3599   -9.4212   21.9179 C   0  0  0  0  0  0
  -23.6277   -8.2247   22.0759 C   0  0  0  0  0  0
  -22.4261   -8.0279   21.3547 C   0  0  0  0  0  0
  -21.9886   -9.0250   20.4652 C   0  0  0  0  0  0
  -22.7214  -10.2129   20.3053 C   0  0  0  0  0  0
  -21.6849   -6.0726   22.5277 C   0  0  0  0  0  0
  -21.4013   -6.5634   23.8209 C   0  0  0  0  0  0
  -21.3662   -5.6789   24.9173 C   0  0  0  0  0  0
  -21.6042   -4.3050   24.7227 C   0  0  0  0  0  0
  -21.8821   -3.8139   23.4351 C   0  0  0  0  0  0
  -21.9190   -4.6953   22.3405 C   0  0  0  0  0  0
  -22.7873  -13.5254   21.1818 C   0  0  0  0  0  0
  -22.1660   -4.2141   21.0983 F   0  0  0  0  0  0
  -21.5630   -3.4537   25.7742 F   0  0  0  0  0  0
  -30.0375  -13.2513   20.4460 N   0  0  0  0  0  0
  -26.3034  -12.9299   20.3338 N   0  0  0  0  0  0
  -25.9299  -11.6465   20.5728 N   0  0  0  0  0  0
  -22.0500  -12.8259   22.0379 N   0  0  0  0  0  0
  -25.4363  -15.1865   20.4108 N   0  0  0  0  0  0
  -31.8410  -14.6132   20.1176 O   0  0  0  0  0  0
  -21.6633   -6.8872   21.4241 O   0  0  0  0  0  0
  -22.3561  -14.5559   20.6665 O   0  0  0  0  0  0
  -24.6119  -31.8696   23.2112 C   0  0  0  0  0  0
  -25.9027  -32.4825   23.8398 C   0  0  1  0  0  0
  -27.2318  -27.4546   20.0909 C   0  0  0  0  0  0
  -25.5894  -33.8623   24.2330 N   0  0  0  0  0  0
  -23.3976  -30.4943   21.5518 C   0  0  2  0  0  0
  -24.8413  -28.9631   20.1135 C   0  0  0  0  0  0
  -22.7390  -29.4675   22.5001 C   0  0  0  0  0  0
  -18.0271  -28.1380   22.8499 C   0  0  0  0  0  0
  -24.1486  -36.7317   23.2639 C   0  0  0  0  0  0
  -25.9237  -30.8429   21.3592 C   0  0  0  0  0  0
  -26.0003  -29.4806   20.7031 C   0  0  0  0  0  0
  -27.1980  -28.7350   20.6839 C   0  0  0  0  0  0
  -26.0534  -26.9461   19.4962 C   0  0  0  0  0  0
  -24.8623  -27.6949   19.5074 C   0  0  0  0  0  0
  -23.6023  -29.8261   20.1657 C   0  0  0  0  0  0
  -25.4105  -36.3110   24.0336 C   0  0  1  0  0  0
  -20.5860  -28.3664   23.1325 C   0  0  2  0  0  0
  -20.6760  -26.9402   22.5421 C   0  0  0  0  0  0
  -19.5741  -26.6391   21.5214 C   0  0  0  0  0  0
  -18.1922  -26.7930   22.1628 C   0  0  0  0  0  0
  -19.1520  -28.8839   23.2913 C   0  0  0  0  0  0
  -18.9446  -30.1444   23.8921 C   0  0  0  0  0  0
  -17.6450  -30.6586   24.0572 C   0  0  0  0  0  0
  -25.9027  -34.9474   23.5130 C   0  0  0  0  0  0
  -16.5342  -29.9091   23.6329 C   0  0  0  0  0  0
  -16.7261  -28.6509   23.0349 C   0  0  0  0  0  0
  -26.4470  -31.6596   25.0715 C   0  0  0  0  0  0
  -25.3746  -31.3698   26.1470 C   0  0  0  0  0  0
  -27.0293  -30.3039   24.6075 C   0  0  0  0  0  0
  -27.6048  -32.4317   25.7476 C   0  0  0  0  0  0
  -27.5578  -37.1813   24.8466 C   0  0  0  0  0  0
  -21.4122  -29.3033   22.3730 N   0  0  0  0  0  0
  -26.4292  -37.3790   23.9407 N   0  0  0  0  0  0
  -24.6628  -31.0822   22.0997 N   0  0  0  0  0  0
  -23.4173  -28.8221   23.3035 O   0  0  0  0  0  0
  -28.4203  -26.7543   20.1242 O   0  0  0  0  0  0
  -26.5589  -34.8925   22.4688 O   0  0  0  0  0  0
  -23.5321  -32.1439   23.7527 O   0  0  0  0  0  0
  -29.9821  -15.9886   24.6472 C   0  0  0  0  0  0
  -30.0066  -15.3390   23.3999 C   0  0  0  0  0  0
  -29.9145  -17.3918   24.7113 C   0  0  0  0  0  0
  -29.8638  -17.5093   22.2625 C   0  0  0  0  0  0
  -29.9506  -16.0928   22.2043 C   0  0  0  0  0  0
  -29.8551  -18.1560   23.5273 C   0  0  0  0  0  0
  -28.7319  -20.3057   23.6900 C   0  0  0  0  0  0
  -27.8039  -24.7552   21.4467 C   0  0  0  0  0  0
  -29.8263  -18.3312   20.9736 C   0  0  0  0  0  0
  -31.1988  -20.2013   23.6998 C   0  0  0  0  0  0
  -28.8463  -21.8400   23.7956 C   0  0  0  0  0  0
  -28.3896  -25.3177   20.1333 C   0  0  0  0  0  0
  -27.5075  -22.6097   23.8471 C   0  0  0  0  0  0
  -26.7557  -22.7404   22.5031 C   0  0  0  0  0  0
  -29.9633  -15.4712   20.9304 N   0  0  0  0  0  0
  -27.5021  -23.4478   21.4602 N   0  0  0  0  0  0
  -29.8760  -19.5755   23.6365 N   0  0  0  0  0  0
  -27.6103  -19.7857   23.6578 O   0  0  0  0  0  0
  -27.6127  -25.4862   22.4219 O   0  0  0  0  0  0
  -31.4668  -12.3668   19.1193 H   0  0  0  0  0  0
  -30.3086  -11.2618   19.8058 H   0  0  0  0  0  0
  -29.7304  -11.7762   17.4162 H   0  0  0  0  0  0
  -29.6733  -13.4832   17.7746 H   0  0  0  0  0  0
  -27.8187  -11.3084   18.8033 H   0  0  0  0  0  0
  -27.3686  -12.6455   17.7808 H   0  0  0  0  0  0
  -27.7138  -14.2495   19.5843 H   0  0  0  0  0  0
  -28.6609  -11.9316   21.3406 H   0  0  0  0  0  0
  -28.4612  -13.5782   21.8602 H   0  0  0  0  0  0
  -25.2746   -9.5688   22.4749 H   0  0  0  0  0  0
  -23.9985   -7.4642   22.7481 H   0  0  0  0  0  0
  -21.0815   -8.8767   19.8960 H   0  0  0  0  0  0
  -22.3673  -10.9665   19.6160 H   0  0  0  0  0  0
  -21.2005   -7.6145   23.9707 H   0  0  0  0  0  0
  -21.1482   -6.0524   25.9076 H   0  0  0  0  0  0
  -22.0596   -2.7602   23.2853 H   0  0  0  0  0  0
  -22.4099  -11.9929   22.4800 H   0  0  0  0  0  0
  -21.1123  -13.1311   22.2573 H   0  0  0  0  0  0
  -24.6812  -15.8520   20.5366 H   0  0  0  0  0  0
  -26.3114  -15.6216   20.1473 H   0  0  0  0  0  0
  -26.7099  -32.5544   23.1165 H   0  0  0  0  0  0
  -25.0048  -33.9790   25.0479 H   0  0  0  0  0  0
  -22.6849  -31.3100   21.4140 H   0  0  0  0  0  0
  -23.3733  -35.9666   23.3320 H   0  0  0  0  0  0
  -24.3577  -36.8911   22.2049 H   0  0  0  0  0  0
  -23.7256  -37.6535   23.6639 H   0  0  0  0  0  0
  -26.0326  -31.6117   20.5928 H   0  0  0  0  0  0
  -26.8129  -30.8951   21.9756 H   0  0  0  0  0  0
  -28.0943  -29.1311   21.1402 H   0  0  0  0  0  0
  -26.0319  -25.9798   19.0160 H   0  0  0  0  0  0
  -23.9704  -27.2911   19.0484 H   0  0  0  0  0  0
  -23.7074  -30.6000   19.4045 H   0  0  0  0  0  0
  -22.7275  -29.2431   19.8724 H   0  0  0  0  0  0
  -25.1285  -36.1978   25.0829 H   0  0  0  0  0  0
  -20.9961  -28.3233   24.1442 H   0  0  0  0  0  0
  -20.5669  -26.2272   23.3607 H   0  0  0  0  0  0
  -21.6632  -26.7457   22.1210 H   0  0  0  0  0  0
  -19.6906  -25.6307   21.1233 H   0  0  0  0  0  0
  -19.6679  -27.3207   20.6747 H   0  0  0  0  0  0
  -17.4193  -26.6681   21.4028 H   0  0  0  0  0  0
  -18.0323  -26.0060   22.9012 H   0  0  0  0  0  0
  -19.7918  -30.7254   24.2300 H   0  0  0  0  0  0
  -17.5005  -31.6269   24.5165 H   0  0  0  0  0  0
  -15.5344  -30.3004   23.7633 H   0  0  0  0  0  0
  -15.8660  -28.0835   22.7052 H   0  0  0  0  0  0
  -24.5908  -30.7061   25.7806 H   0  0  0  0  0  0
  -24.8954  -32.2854   26.4947 H   0  0  0  0  0  0
  -25.8109  -30.8845   27.0209 H   0  0  0  0  0  0
  -26.2827  -29.6805   24.1140 H   0  0  0  0  0  0
  -27.4077  -29.7273   25.4525 H   0  0  0  0  0  0
  -27.8658  -30.4354   23.9205 H   0  0  0  0  0  0
  -27.2659  -33.3596   26.2095 H   0  0  0  0  0  0
  -28.3833  -32.6913   25.0289 H   0  0  0  0  0  0
  -28.0742  -31.8418   26.5357 H   0  0  0  0  0  0
  -28.2610  -38.0096   24.7491 H   0  0  0  0  0  0
  -28.1061  -36.2627   24.6319 H   0  0  0  0  0  0
  -27.2296  -37.1499   25.8871 H   0  0  0  0  0  0
  -20.9276  -29.8751   21.6952 H   0  0  0  0  0  0
  -26.0184  -38.2874   24.1395 H   0  0  0  0  0  0
  -30.0264  -15.4090   25.5586 H   0  0  0  0  0  0
  -30.0703  -14.2601   23.3809 H   0  0  0  0  0  0
  -29.9203  -17.8819   25.6760 H   0  0  0  0  0  0
  -29.2971  -17.8185   20.1709 H   0  0  0  0  0  0
  -30.8418  -18.5414   20.6366 H   0  0  0  0  0  0
  -29.3148  -19.2832   21.1017 H   0  0  0  0  0  0
  -31.9912  -19.4522   23.6827 H   0  0  0  0  0  0
  -31.3226  -20.7756   24.6184 H   0  0  0  0  0  0
  -31.3604  -20.8609   22.8468 H   0  0  0  0  0  0
  -29.4554  -22.2196   22.9756 H   0  0  0  0  0  0
  -29.3907  -22.0597   24.7141 H   0  0  0  0  0  0
  -27.8710  -24.9113   19.2658 H   0  0  0  0  0  0
  -29.4190  -24.9682   20.0535 H   0  0  0  0  0  0
  -27.6940  -23.6038   24.2535 H   0  0  0  0  0  0
  -26.8474  -22.1368   24.5760 H   0  0  0  0  0  0
  -25.8084  -23.2583   22.6666 H   0  0  0  0  0  0
  -26.4917  -21.7522   22.1240 H   0  0  0  0  0  0
  -29.9884  -16.1647   20.1990 H   0  0  0  0  0  0
  -27.7010  -22.9275   20.6148 H   0  0  0  0  0  0
  1 25  1  0  0  0
  1 30  2  0  0  0
  1 85  1  0  0  0
  2  3  1  0  0  0
  2 25  1  0  0  0
  2 90  1  0  0  0
  2 91  1  0  0  0
  3  4  1  0  0  0
  3 92  1  0  0  0
  3 93  1  0  0  0
  4  5  1  0  0  0
  4 94  1  0  0  0
  4 95  1  0  0  0
  5  6  1  0  0  0
  5 26  1  0  0  0
  5 96  1  0  0  0
  6 25  1  0  0  0
  6 97  1  0  0  0
  6 98  1  0  0  0
  7  8  2  0  0  0
  7 26  1  0  0  0
  7 29  1  0  0  0
  8  9  1  0  0  0
  8 22  1  0  0  0
  9 10  1  0  0  0
  9 27  2  0  0  0
 10 11  2  0  0  0
 10 15  1  0  0  0
 11 12  1  0  0  0
 11 99  1  0  0  0
 12 13  2  0  0  0
 12100  1  0  0  0
 13 14  1  0  0  0
 13 31  1  0  0  0
 14 15  2  0  0  0
 14101  1  0  0  0
 15102  1  0  0  0
 16 17  2  0  0  0
 16 21  1  0  0  0
 16 31  1  0  0  0
 17 18  1  0  0  0
 17103  1  0  0  0
 18 19  2  0  0  0
 18104  1  0  0  0
 19 20  1  0  0  0
 19 24  1  0  0  0
 20 21  2  0  0  0
 20105  1  0  0  0
 21 23  1  0  0  0
 22 28  1  0  0  0
 22 32  2  0  0  0
 26 27  1  0  0  0
 28106  1  0  0  0
 28107  1  0  0  0
 29108  1  0  0  0
 29109  1  0  0  0
 33 34  1  0  0  0
 33 66  1  0  0  0
 33 70  2  0  0  0
 34 36  1  0  0  0
 34 59  1  0  0  0
 34110  1  0  0  0
 35 44  2  0  0  0
 35 45  1  0  0  0
 35 68  1  0  0  0
 36 56  1  0  0  0
 36111  1  0  0  0
 37 39  1  0  0  0
 37 47  1  0  0  0
 37 66  1  0  0  0
 37112  1  0  0  0
 38 43  2  0  0  0
 38 46  1  0  0  0
 38 47  1  0  0  0
 39 64  1  0  0  0
 39 67  2  0  0  0
 40 52  1  0  0  0
 40 53  2  0  0  0
 40 58  1  0  0  0
 41113  1  0  0  0
 41114  1  0  0  0
 41115  1  0  0  0
 41 48  1  0  0  0
 42 43  1  0  0  0
 42 66  1  0  0  0
 42116  1  0  0  0
 42117  1  0  0  0
 43 44  1  0  0  0
 44118  1  0  0  0
 45 46  2  0  0  0
 45119  1  0  0  0
 46120  1  0  0  0
 47121  1  0  0  0
 47122  1  0  0  0
 48 56  1  0  0  0
 48 65  1  0  0  0
 48123  1  0  0  0
 49 50  1  0  0  0
 49 53  1  0  0  0
 49 64  1  0  0  0
 49124  1  0  0  0
 50 51  1  0  0  0
 50125  1  0  0  0
 50126  1  0  0  0
 51 52  1  0  0  0
 51127  1  0  0  0
 51128  1  0  0  0
 52129  1  0  0  0
 52130  1  0  0  0
 53 54  1  0  0  0
 54 55  2  0  0  0
 54131  1  0  0  0
 55 57  1  0  0  0
 55132  1  0  0  0
 56 69  2  0  0  0
 57 58  2  0  0  0
 57133  1  0  0  0
 58134  1  0  0  0
 59 60  1  0  0  0
 59 61  1  0  0  0
 59 62  1  0  0  0
 60135  1  0  0  0
 60136  1  0  0  0
 60137  1  0  0  0
 61138  1  0  0  0
 61139  1  0  0  0
 61140  1  0  0  0
 62141  1  0  0  0
 62142  1  0  0  0
 62143  1  0  0  0
 63 65  1  0  0  0
 63144  1  0  0  0
 63145  1  0  0  0
 63146  1  0  0  0
 64147  1  0  0  0
 65148  1  0  0  0
 68 82  1  0  0  0
 71 72  2  0  0  0
 71 73  1  0  0  0
 71149  1  0  0  0
 72 75  1  0  0  0
 72150  1  0  0  0
 73 76  2  0  0  0
 73151  1  0  0  0
 74 75  2  0  0  0
 74 76  1  0  0  0
 74 79  1  0  0  0
 75 85  1  0  0  0
 76 87  1  0  0  0
 77 81  1  0  0  0
 77 87  1  0  0  0
 77 88  2  0  0  0
 78 82  1  0  0  0
 78 86  1  0  0  0
 78 89  2  0  0  0
 79152  1  0  0  0
 79153  1  0  0  0
 79154  1  0  0  0
 80 87  1  0  0  0
 80155  1  0  0  0
 80156  1  0  0  0
 80157  1  0  0  0
 81 83  1  0  0  0
 81158  1  0  0  0
 81159  1  0  0  0
 82160  1  0  0  0
 82161  1  0  0  0
 83 84  1  0  0  0
 83162  1  0  0  0
 83163  1  0  0  0
 84 86  1  0  0  0
 84164  1  0  0  0
 84165  1  0  0  0
 85166  1  0  0  0
 86167  1  0  0  0
M  ISO  4   1 100  68 101  82 101  85 100
M  END
> <chiral flag>
0

> <version>
0

> <s_m_source_file>
/data/baiqing/PycharmProjects/Reinvent-master-3.2/result/LINK_invent/BTK/process_docking_weight1_custom_sum_contain_oxygen_bond_distance_aromatic_linkinvent_7_9_3/rearranged_h_0005.sdf

> <i_m_source_file_index>
64

> <r_mmod_Potential_Energy-OPLS-2005>
-10.5049018859863

> <r_mmod_Stretch_Energy-OPLS-2005>
37.2968406677246

> <r_mmod_Bend_Energy-OPLS-2005>
109.328277587891

> <r_mmod_Torsional_Energy-OPLS-2005>
315.065856933594

> <r_mmod_Improper_Torsional_Energy-OPLS-2005>
13.1108846664429

> <r_mmod_Van_der_Waal_Energy-OPLS-2005>
162.751846313477

> <r_mmod_Electrostatic_Energy-OPLS-2005>
-405.819976806641

> <r_mmod_Solvation_Energy-OPLS-2005>
-253.147674560547

> <b_mmod_Minimization_Converged-OPLS-2005>
0

> <r_mmod_RMS_Derivative-OPLS-2005>
1.0346987247467

$$$$
64
                    3D
 Structure written by MMmdl.
162170  0  0  1  0            999 V2000
  -30.8288  -14.2931   20.7269 C   0  0  0  0  0  0
  -30.4079  -12.2790   19.3784 C   0  0  0  0  0  0
  -29.4734  -12.5248   18.1836 C   0  0  0  0  0  0
  -28.0040  -12.3738   18.6118 C   0  0  0  0  0  0
  -27.6667  -13.2032   19.8771 C   0  0  2  0  0  0
  -28.7065  -12.9653   20.9958 C   0  0  0  0  0  0
  -25.2619  -13.8171   20.5673 C   0  0  0  0  0  0
  -24.1857  -13.0460   20.9161 C   0  0  0  0  0  0
  -24.6398  -11.6919   20.8728 C   0  0  0  0  0  0
  -23.9064  -10.4304   21.0397 C   0  0  0  0  0  0
  -24.3610   -9.4224   21.9177 C   0  0  0  0  0  0
  -23.6287   -8.2260   22.0756 C   0  0  0  0  0  0
  -22.4272   -8.0286   21.3545 C   0  0  0  0  0  0
  -21.9911   -9.0256   20.4641 C   0  0  0  0  0  0
  -22.7239  -10.2136   20.3045 C   0  0  0  0  0  0
  -21.6854   -6.0737   22.5285 C   0  0  0  0  0  0
  -21.4014   -6.5641   23.8212 C   0  0  0  0  0  0
  -21.3654   -5.6798   24.9177 C   0  0  0  0  0  0
  -21.6042   -4.3056   24.7235 C   0  0  0  0  0  0
  -21.8818   -3.8150   23.4353 C   0  0  0  0  0  0
  -21.9193   -4.6966   22.3407 C   0  0  0  0  0  0
  -22.7883  -13.5256   21.1825 C   0  0  0  0  0  0
  -22.1665   -4.2148   21.0984 F   0  0  0  0  0  0
  -21.5624   -3.4539   25.7750 F   0  0  0  0  0  0
  -30.0579  -13.2130   20.4570 N   0  0  0  0  0  0
  -26.3056  -12.9331   20.3382 N   0  0  0  0  0  0
  -25.9324  -11.6494   20.5763 N   0  0  0  0  0  0
  -22.0519  -12.8250   22.0374 N   0  0  0  0  0  0
  -25.4394  -15.1885   20.4085 N   0  0  0  0  0  0
  -31.7508  -14.6754   19.9992 O   0  0  0  0  0  0
  -21.6648   -6.8881   21.4243 O   0  0  0  0  0  0
  -22.3578  -14.5574   20.6683 O   0  0  0  0  0  0
  -24.6114  -31.8697   23.2122 C   0  0  0  0  0  0
  -25.9032  -32.4826   23.8396 C   0  0  1  0  0  0
  -27.2354  -27.4608   20.0702 C   0  0  0  0  0  0
  -25.5907  -33.8622   24.2334 N   0  0  0  0  0  0
  -23.3964  -30.4952   21.5538 C   0  0  2  0  0  0
  -24.8372  -28.9576   20.1235 C   0  0  0  0  0  0
  -22.7379  -29.4679   22.5009 C   0  0  0  0  0  0
  -18.0275  -28.1361   22.8488 C   0  0  0  0  0  0
  -24.1487  -36.7303   23.2634 C   0  0  0  0  0  0
  -25.9233  -30.8387   21.3640 C   0  0  0  0  0  0
  -25.9965  -29.4744   20.7117 C   0  0  0  0  0  0
  -27.1945  -28.7318   20.6829 C   0  0  0  0  0  0
  -26.0459  -26.9400   19.5040 C   0  0  0  0  0  0
  -24.8533  -27.6862   19.5270 C   0  0  0  0  0  0
  -23.6020  -29.8259   20.1699 C   0  0  0  0  0  0
  -25.4112  -36.3108   24.0333 C   0  0  1  0  0  0
  -20.5858  -28.3654   23.1316 C   0  0  2  0  0  0
  -20.6769  -26.9400   22.5414 C   0  0  0  0  0  0
  -19.5753  -26.6384   21.5205 C   0  0  0  0  0  0
  -18.1925  -26.7920   22.1608 C   0  0  0  0  0  0
  -19.1520  -28.8824   23.2900 C   0  0  0  0  0  0
  -18.9456  -30.1431   23.8914 C   0  0  0  0  0  0
  -17.6462  -30.6578   24.0564 C   0  0  0  0  0  0
  -25.9034  -34.9473   23.5127 C   0  0  0  0  0  0
  -16.5353  -29.9083   23.6320 C   0  0  0  0  0  0
  -16.7270  -28.6496   23.0347 C   0  0  0  0  0  0
  -26.4482  -31.6598   25.0712 C   0  0  0  0  0  0
  -25.3743  -31.3693   26.1453 C   0  0  0  0  0  0
  -27.0347  -30.3055   24.6070 C   0  0  0  0  0  0
  -27.6024  -32.4350   25.7494 C   0  0  0  0  0  0
  -27.5592  -37.1800   24.8467 C   0  0  0  0  0  0
  -21.4117  -29.3034   22.3732 N   0  0  0  0  0  0
  -26.4291  -37.3794   23.9417 N   0  0  0  0  0  0
  -24.6619  -31.0812   22.1020 N   0  0  0  0  0  0
  -23.4162  -28.8202   23.3023 O   0  0  0  0  0  0
  -28.4591  -26.8287   20.0260 O   0  0  0  0  0  0
  -26.5593  -34.8918   22.4685 O   0  0  0  0  0  0
  -23.5320  -32.1462   23.7519 O   0  0  0  0  0  0
  -28.9508  -20.8869   21.0084 C   0  0  0  0  0  0
  -29.2610  -19.7693   21.8060 C   0  0  0  0  0  0
  -28.9324  -22.2875   22.9865 C   0  0  0  0  0  0
  -28.8083  -22.1636   21.5834 C   0  0  0  0  0  0
  -29.4528  -19.8892   23.2048 C   0  0  0  0  0  0
  -29.2480  -21.1720   23.7860 C   0  0  0  0  0  0
  -28.6358  -24.5727   20.9103 C   0  0  0  0  0  0
  -30.6737  -19.0054   25.1679 C   0  0  0  0  0  0
  -28.5732  -25.4531   19.6561 C   0  0  0  0  0  0
  -31.1897  -17.1513   22.6312 C   0  0  0  0  0  0
  -31.6112  -15.6752   22.6344 C   0  0  0  0  0  0
  -29.8866  -17.4229   23.4122 C   0  0  0  0  0  0
  -28.5571  -23.2481   20.6945 N   0  0  0  0  0  0
  -30.6602  -14.7963   21.9545 N   0  0  0  0  0  0
  -29.8381  -18.7685   23.9877 N   0  0  0  0  0  0
  -28.7652  -25.0924   22.0230 O   0  0  0  0  0  0
  -29.3397  -21.3617   25.1259 F   0  0  0  0  0  0
  -31.4489  -12.3756   19.0657 H   0  0  0  0  0  0
  -30.3043  -11.2544   19.7396 H   0  0  0  0  0  0
  -29.7007  -11.8245   17.3787 H   0  0  0  0  0  0
  -29.6430  -13.5242   17.7807 H   0  0  0  0  0  0
  -27.8144  -11.3160   18.7980 H   0  0  0  0  0  0
  -27.3442  -12.6581   17.7915 H   0  0  0  0  0  0
  -27.7237  -14.2544   19.5941 H   0  0  0  0  0  0
  -28.6497  -11.9384   21.3595 H   0  0  0  0  0  0
  -28.4619  -13.5972   21.8499 H   0  0  0  0  0  0
  -25.2752   -9.5713   22.4750 H   0  0  0  0  0  0
  -24.0001   -7.4664   22.7479 H   0  0  0  0  0  0
  -21.0850   -8.8762   19.8945 H   0  0  0  0  0  0
  -22.3689  -10.9667   19.6148 H   0  0  0  0  0  0
  -21.2008   -7.6146   23.9718 H   0  0  0  0  0  0
  -21.1471   -6.0525   25.9078 H   0  0  0  0  0  0
  -22.0599   -2.7612   23.2863 H   0  0  0  0  0  0
  -22.4113  -11.9889   22.4749 H   0  0  0  0  0  0
  -21.1145  -13.1290   22.2581 H   0  0  0  0  0  0
  -24.6830  -15.8553   20.5187 H   0  0  0  0  0  0
  -26.3058  -15.6196   20.1101 H   0  0  0  0  0  0
  -26.7089  -32.5557   23.1150 H   0  0  0  0  0  0
  -25.0078  -33.9778   25.0496 H   0  0  0  0  0  0
  -22.6848  -31.3108   21.4152 H   0  0  0  0  0  0
  -23.3746  -35.9636   23.3301 H   0  0  0  0  0  0
  -24.3575  -36.8926   22.2047 H   0  0  0  0  0  0
  -23.7240  -37.6498   23.6662 H   0  0  0  0  0  0
  -26.0329  -31.6040   20.5948 H   0  0  0  0  0  0
  -26.8128  -30.8907   21.9813 H   0  0  0  0  0  0
  -28.0979  -29.1335   21.1217 H   0  0  0  0  0  0
  -26.0016  -25.9763   19.0227 H   0  0  0  0  0  0
  -23.9570  -27.2768   19.0811 H   0  0  0  0  0  0
  -23.7139  -30.5998   19.4102 H   0  0  0  0  0  0
  -22.7252  -29.2466   19.8742 H   0  0  0  0  0  0
  -25.1281  -36.1963   25.0823 H   0  0  0  0  0  0
  -20.9947  -28.3245   24.1438 H   0  0  0  0  0  0
  -20.5694  -26.2266   23.3594 H   0  0  0  0  0  0
  -21.6640  -26.7462   22.1204 H   0  0  0  0  0  0
  -19.6913  -25.6301   21.1215 H   0  0  0  0  0  0
  -19.6685  -27.3199   20.6733 H   0  0  0  0  0  0
  -17.4197  -26.6681   21.3997 H   0  0  0  0  0  0
  -18.0309  -26.0041   22.8981 H   0  0  0  0  0  0
  -19.7946  -30.7222   24.2298 H   0  0  0  0  0  0
  -17.5037  -31.6260   24.5168 H   0  0  0  0  0  0
  -15.5360  -30.2994   23.7643 H   0  0  0  0  0  0
  -15.8669  -28.0828   22.7049 H   0  0  0  0  0  0
  -24.5945  -30.7001   25.7807 H   0  0  0  0  0  0
  -24.8874  -32.2831   26.4865 H   0  0  0  0  0  0
  -25.8089  -30.8912   27.0240 H   0  0  0  0  0  0
  -26.2900  -29.6776   24.1151 H   0  0  0  0  0  0
  -27.4189  -29.7317   25.4514 H   0  0  0  0  0  0
  -27.8695  -30.4400   23.9182 H   0  0  0  0  0  0
  -27.2613  -33.3649   26.2064 H   0  0  0  0  0  0
  -28.3849  -32.6927   25.0347 H   0  0  0  0  0  0
  -28.0680  -31.8486   26.5432 H   0  0  0  0  0  0
  -28.2584  -38.0122   24.7565 H   0  0  0  0  0  0
  -28.1124  -36.2653   24.6253 H   0  0  0  0  0  0
  -27.2304  -37.1409   25.8865 H   0  0  0  0  0  0
  -20.9274  -29.8765   21.6970 H   0  0  0  0  0  0
  -26.0181  -38.2865   24.1442 H   0  0  0  0  0  0
  -28.8429  -20.7533   19.9411 H   0  0  0  0  0  0
  -29.3681  -18.8253   21.2976 H   0  0  0  0  0  0
  -28.7974  -23.2295   23.4925 H   0  0  0  0  0  0
  -31.3468  -19.8534   25.0247 H   0  0  0  0  0  0
  -31.2999  -18.1409   25.3937 H   0  0  0  0  0  0
  -30.0589  -19.1982   26.0478 H   0  0  0  0  0  0
  -27.8350  -25.0931   18.9439 H   0  0  0  0  0  0
  -29.5307  -25.3460   19.1456 H   0  0  0  0  0  0
  -31.1046  -17.5044   21.6032 H   0  0  0  0  0  0
  -32.0100  -17.7224   23.0652 H   0  0  0  0  0  0
  -31.7232  -15.3282   23.6617 H   0  0  0  0  0  0
  -32.6042  -15.5888   22.1884 H   0  0  0  0  0  0
  -29.8131  -16.7128   24.2382 H   0  0  0  0  0  0
  -29.0110  -17.2212   22.7936 H   0  0  0  0  0  0
  -28.4152  -22.9928   19.7262 H   0  0  0  0  0  0
  -29.9272  -14.3806   22.5102 H   0  0  0  0  0  0
  1 25  1  0  0  0
  1 30  2  0  0  0
  1 84  1  0  0  0
  2  3  1  0  0  0
  2 25  1  0  0  0
  2 88  1  0  0  0
  2 89  1  0  0  0
  3  4  1  0  0  0
  3 90  1  0  0  0
  3 91  1  0  0  0
  4  5  1  0  0  0
  4 92  1  0  0  0
  4 93  1  0  0  0
  5  6  1  0  0  0
  5 26  1  0  0  0
  5 94  1  0  0  0
  6 25  1  0  0  0
  6 95  1  0  0  0
  6 96  1  0  0  0
  7  8  2  0  0  0
  7 26  1  0  0  0
  7 29  1  0  0  0
  8  9  1  0  0  0
  8 22  1  0  0  0
  9 10  1  0  0  0
  9 27  2  0  0  0
 10 11  2  0  0  0
 10 15  1  0  0  0
 11 12  1  0  0  0
 11 97  1  0  0  0
 12 13  2  0  0  0
 12 98  1  0  0  0
 13 14  1  0  0  0
 13 31  1  0  0  0
 14 15  2  0  0  0
 14 99  1  0  0  0
 15100  1  0  0  0
 16 17  2  0  0  0
 16 21  1  0  0  0
 16 31  1  0  0  0
 17 18  1  0  0  0
 17101  1  0  0  0
 18 19  2  0  0  0
 18102  1  0  0  0
 19 20  1  0  0  0
 19 24  1  0  0  0
 20 21  2  0  0  0
 20103  1  0  0  0
 21 23  1  0  0  0
 22 28  1  0  0  0
 22 32  2  0  0  0
 26 27  1  0  0  0
 28104  1  0  0  0
 28105  1  0  0  0
 29106  1  0  0  0
 29107  1  0  0  0
 33 34  1  0  0  0
 33 66  1  0  0  0
 33 70  2  0  0  0
 34 36  1  0  0  0
 34 59  1  0  0  0
 34108  1  0  0  0
 35 44  2  0  0  0
 35 45  1  0  0  0
 35 68  1  0  0  0
 36 56  1  0  0  0
 36109  1  0  0  0
 37 39  1  0  0  0
 37 47  1  0  0  0
 37 66  1  0  0  0
 37110  1  0  0  0
 38 43  2  0  0  0
 38 46  1  0  0  0
 38 47  1  0  0  0
 39 64  1  0  0  0
 39 67  2  0  0  0
 40 52  1  0  0  0
 40 53  2  0  0  0
 40 58  1  0  0  0
 41111  1  0  0  0
 41112  1  0  0  0
 41113  1  0  0  0
 41 48  1  0  0  0
 42 43  1  0  0  0
 42 66  1  0  0  0
 42114  1  0  0  0
 42115  1  0  0  0
 43 44  1  0  0  0
 44116  1  0  0  0
 45 46  2  0  0  0
 45117  1  0  0  0
 46118  1  0  0  0
 47119  1  0  0  0
 47120  1  0  0  0
 48 56  1  0  0  0
 48 65  1  0  0  0
 48121  1  0  0  0
 49 50  1  0  0  0
 49 53  1  0  0  0
 49 64  1  0  0  0
 49122  1  0  0  0
 50 51  1  0  0  0
 50123  1  0  0  0
 50124  1  0  0  0
 51 52  1  0  0  0
 51125  1  0  0  0
 51126  1  0  0  0
 52127  1  0  0  0
 52128  1  0  0  0
 53 54  1  0  0  0
 54 55  2  0  0  0
 54129  1  0  0  0
 55 57  1  0  0  0
 55130  1  0  0  0
 56 69  2  0  0  0
 57 58  2  0  0  0
 57131  1  0  0  0
 58132  1  0  0  0
 59 60  1  0  0  0
 59 61  1  0  0  0
 59 62  1  0  0  0
 60133  1  0  0  0
 60134  1  0  0  0
 60135  1  0  0  0
 61136  1  0  0  0
 61137  1  0  0  0
 61138  1  0  0  0
 62139  1  0  0  0
 62140  1  0  0  0
 62141  1  0  0  0
 63 65  1  0  0  0
 63142  1  0  0  0
 63143  1  0  0  0
 63144  1  0  0  0
 64145  1  0  0  0
 65146  1  0  0  0
 68 79  1  0  0  0
 71 72  2  0  0  0
 71 74  1  0  0  0
 71147  1  0  0  0
 72 75  1  0  0  0
 72148  1  0  0  0
 73 74  2  0  0  0
 73 76  1  0  0  0
 73149  1  0  0  0
 74 83  1  0  0  0
 75 76  2  0  0  0
 75 85  1  0  0  0
 76 87  1  0  0  0
 77 79  1  0  0  0
 77 83  1  0  0  0
 77 86  2  0  0  0
 78 85  1  0  0  0
 78150  1  0  0  0
 78151  1  0  0  0
 78152  1  0  0  0
 79153  1  0  0  0
 79154  1  0  0  0
 80 81  1  0  0  0
 80 82  1  0  0  0
 80155  1  0  0  0
 80156  1  0  0  0
 81 84  1  0  0  0
 81157  1  0  0  0
 81158  1  0  0  0
 82 85  1  0  0  0
 82159  1  0  0  0
 82160  1  0  0  0
 83161  1  0  0  0
 84162  1  0  0  0
M  ISO  4   1 100  68 101  79 101  84 100
M  END
> <chiral flag>
0

> <version>
0

> <s_m_source_file>
/data/baiqing/PycharmProjects/Reinvent-master-3.2/result/LINK_invent/BTK/process_docking_weight1_custom_sum_contain_oxygen_bond_distance_aromatic_linkinvent_7_9_3/rearranged_h_0005.sdf

> <i_m_source_file_index>
65

> <r_mmod_Potential_Energy-OPLS-2005>
-38.9016380310059

> <r_mmod_Stretch_Energy-OPLS-2005>
35.0192909240723

> <r_mmod_Bend_Energy-OPLS-2005>
121.278137207031

> <r_mmod_Torsional_Energy-OPLS-2005>
203.129486083984

> <r_mmod_Improper_Torsional_Energy-OPLS-2005>
6.27713918685913

> <r_mmod_Van_der_Waal_Energy-OPLS-2005>
175.666702270508

> <r_mmod_Electrostatic_Energy-OPLS-2005>
-329.993011474609

> <r_mmod_Solvation_Energy-OPLS-2005>
-260.092742919922

> <b_mmod_Minimization_Converged-OPLS-2005>
0

> <r_mmod_RMS_Derivative-OPLS-2005>
1.85473608970642

$$$$
65
                    3D
 Structure written by MMmdl.
157165  0  0  1  0            999 V2000
  -30.7498  -14.3406   20.6846 C   0  0  0  0  0  0
  -30.4173  -12.2687   19.3932 C   0  0  0  0  0  0
  -29.4871  -12.5343   18.1937 C   0  0  0  0  0  0
  -28.0079  -12.3992   18.6014 C   0  0  0  0  0  0
  -27.6700  -13.2006   19.8851 C   0  0  2  0  0  0
  -28.7026  -12.9113   20.9958 C   0  0  0  0  0  0
  -25.2597  -13.8148   20.5619 C   0  0  0  0  0  0
  -24.1836  -13.0432   20.9127 C   0  0  0  0  0  0
  -24.6387  -11.6898   20.8711 C   0  0  0  0  0  0
  -23.9042  -10.4289   21.0384 C   0  0  0  0  0  0
  -24.3595   -9.4208   21.9162 C   0  0  0  0  0  0
  -23.6275   -8.2243   22.0745 C   0  0  0  0  0  0
  -22.4256   -8.0270   21.3535 C   0  0  0  0  0  0
  -21.9883   -9.0243   20.4638 C   0  0  0  0  0  0
  -22.7209  -10.2128   20.3041 C   0  0  0  0  0  0
  -21.6846   -6.0725   22.5271 C   0  0  0  0  0  0
  -21.4017   -6.5623   23.8207 C   0  0  0  0  0  0
  -21.3666   -5.6772   24.9163 C   0  0  0  0  0  0
  -21.6045   -4.3037   24.7211 C   0  0  0  0  0  0
  -21.8824   -3.8130   23.4335 C   0  0  0  0  0  0
  -21.9185   -4.6951   22.3392 C   0  0  0  0  0  0
  -22.7863  -13.5244   21.1798 C   0  0  0  0  0  0
  -22.1650   -4.2134   21.0970 F   0  0  0  0  0  0
  -21.5628   -3.4528   25.7732 F   0  0  0  0  0  0
  -30.0573  -13.1928   20.4756 N   0  0  0  0  0  0
  -26.3052  -12.9320   20.3383 N   0  0  0  0  0  0
  -25.9312  -11.6479   20.5731 N   0  0  0  0  0  0
  -22.0504  -12.8259   22.0382 N   0  0  0  0  0  0
  -25.4294  -15.1862   20.3958 N   0  0  0  0  0  0
  -31.7522  -14.6682   20.0388 O   0  0  0  0  0  0
  -21.6620   -6.8867   21.4239 O   0  0  0  0  0  0
  -22.3541  -14.5546   20.6655 O   0  0  0  0  0  0
  -24.6087  -31.8708   23.2130 C   0  0  0  0  0  0
  -25.9005  -32.4838   23.8408 C   0  0  1  0  0  0
  -27.2366  -27.4826   20.0763 C   0  0  0  0  0  0
  -25.5884  -33.8640   24.2341 N   0  0  0  0  0  0
  -23.3936  -30.4952   21.5546 C   0  0  2  0  0  0
  -24.8392  -28.9645   20.1209 C   0  0  0  0  0  0
  -22.7369  -29.4675   22.5034 C   0  0  0  0  0  0
  -18.0258  -28.1376   22.8493 C   0  0  0  0  0  0
  -24.1478  -36.7329   23.2634 C   0  0  0  0  0  0
  -25.9169  -30.8518   21.3578 C   0  0  0  0  0  0
  -25.9973  -29.4878   20.7090 C   0  0  0  0  0  0
  -27.2007  -28.7526   20.6843 C   0  0  0  0  0  0
  -26.0609  -26.9606   19.4941 C   0  0  0  0  0  0
  -24.8617  -27.6960   19.5178 C   0  0  0  0  0  0
  -23.5997  -29.8262   20.1694 C   0  0  0  0  0  0
  -25.4099  -36.3127   24.0335 C   0  0  1  0  0  0
  -20.5841  -28.3643   23.1346 C   0  0  2  0  0  0
  -20.6749  -26.9392   22.5424 C   0  0  0  0  0  0
  -19.5722  -26.6379   21.5222 C   0  0  0  0  0  0
  -18.1905  -26.7923   22.1631 C   0  0  0  0  0  0
  -19.1505  -28.8830   23.2917 C   0  0  0  0  0  0
  -18.9433  -30.1430   23.8931 C   0  0  0  0  0  0
  -17.6433  -30.6570   24.0589 C   0  0  0  0  0  0
  -25.9025  -34.9485   23.5134 C   0  0  0  0  0  0
  -16.5330  -29.9088   23.6315 C   0  0  0  0  0  0
  -16.7248  -28.6510   23.0323 C   0  0  0  0  0  0
  -26.4467  -31.6589   25.0705 C   0  0  0  0  0  0
  -25.3763  -31.3670   26.1469 C   0  0  0  0  0  0
  -27.0272  -30.3038   24.6014 C   0  0  0  0  0  0
  -27.6046  -32.4287   25.7471 C   0  0  0  0  0  0
  -27.5576  -37.1825   24.8466 C   0  0  0  0  0  0
  -21.4100  -29.3038   22.3790 N   0  0  0  0  0  0
  -26.4290  -37.3804   23.9404 N   0  0  0  0  0  0
  -24.6579  -31.0847   22.1011 N   0  0  0  0  0  0
  -23.4176  -28.8193   23.3032 O   0  0  0  0  0  0
  -28.4231  -26.7948   20.0354 O   0  0  0  0  0  0
  -26.5581  -34.8920   22.4692 O   0  0  0  0  0  0
  -23.5290  -32.1441   23.7550 O   0  0  0  0  0  0
  -29.3891  -18.4838   20.4317 C   0  0  0  0  0  0
  -28.4730  -18.1546   22.6642 C   0  0  0  0  0  0
  -30.0036  -17.2201   20.4935 C   0  0  0  0  0  0
  -29.0832  -16.8878   22.7276 C   0  0  0  0  0  0
  -28.5934  -18.9460   21.5043 C   0  0  0  0  0  0
  -29.8294  -16.4011   21.6350 C   0  0  0  0  0  0
  -27.8566  -21.8542   19.4788 C   0  0  0  0  0  0
  -27.8523  -20.2732   21.4281 C   0  0  0  0  0  0
  -28.3330  -23.0137   20.3607 C   0  0  0  0  0  0
  -28.3734  -24.3769   19.6524 C   0  0  0  0  0  0
  -28.4115  -25.5238   20.6714 C   0  0  0  0  0  0
  -30.3062  -15.0689   21.7157 N   0  0  0  0  0  0
  -27.5727  -20.6804   20.0515 N   0  0  0  0  0  0
  -27.7068  -22.0082   18.2658 O   0  0  0  0  0  0
  -31.4628  -12.3706   19.0938 H   0  0  0  0  0  0
  -30.3092  -11.2398   19.7411 H   0  0  0  0  0  0
  -29.7169  -11.8457   17.3799 H   0  0  0  0  0  0
  -29.6688  -13.5365   17.8036 H   0  0  0  0  0  0
  -27.7983  -11.3410   18.7543 H   0  0  0  0  0  0
  -27.3611  -12.7217   17.7835 H   0  0  0  0  0  0
  -27.7389  -14.2595   19.6351 H   0  0  0  0  0  0
  -28.6445  -11.8639   21.2967 H   0  0  0  0  0  0
  -28.4447  -13.4779   21.8902 H   0  0  0  0  0  0
  -25.2742   -9.5680   22.4726 H   0  0  0  0  0  0
  -23.9969   -7.4649   22.7484 H   0  0  0  0  0  0
  -21.0805   -8.8766   19.8966 H   0  0  0  0  0  0
  -22.3655  -10.9658   19.6143 H   0  0  0  0  0  0
  -21.2025   -7.6130   23.9716 H   0  0  0  0  0  0
  -21.1482   -6.0490   25.9075 H   0  0  0  0  0  0
  -22.0606   -2.7591   23.2827 H   0  0  0  0  0  0
  -22.4093  -11.9910   22.4759 H   0  0  0  0  0  0
  -21.1160  -13.1359   22.2641 H   0  0  0  0  0  0
  -24.6587  -15.8404   20.4714 H   0  0  0  0  0  0
  -26.2891  -15.6221   20.0842 H   0  0  0  0  0  0
  -26.7079  -32.5592   23.1185 H   0  0  0  0  0  0
  -25.0066  -33.9810   25.0505 H   0  0  0  0  0  0
  -22.6790  -31.3095   21.4176 H   0  0  0  0  0  0
  -23.3722  -35.9686   23.3314 H   0  0  0  0  0  0
  -24.3580  -36.8917   22.2050 H   0  0  0  0  0  0
  -23.7238  -37.6543   23.6633 H   0  0  0  0  0  0
  -26.0143  -31.6176   20.5869 H   0  0  0  0  0  0
  -26.8101  -30.9117   21.9682 H   0  0  0  0  0  0
  -28.0989  -29.1561   21.1301 H   0  0  0  0  0  0
  -26.0586  -26.0038   18.9975 H   0  0  0  0  0  0
  -23.9694  -27.2863   19.0640 H   0  0  0  0  0  0
  -23.7099  -30.5995   19.4081 H   0  0  0  0  0  0
  -22.7242  -29.2452   19.8729 H   0  0  0  0  0  0
  -25.1273  -36.2009   25.0831 H   0  0  0  0  0  0
  -20.9931  -28.3182   24.1466 H   0  0  0  0  0  0
  -20.5638  -26.2263   23.3612 H   0  0  0  0  0  0
  -21.6623  -26.7432   22.1221 H   0  0  0  0  0  0
  -19.6873  -25.6289   21.1254 H   0  0  0  0  0  0
  -19.6663  -27.3212   20.6766 H   0  0  0  0  0  0
  -17.4180  -26.6662   21.4025 H   0  0  0  0  0  0
  -18.0294  -26.0090   22.9048 H   0  0  0  0  0  0
  -19.7905  -30.7238   24.2314 H   0  0  0  0  0  0
  -17.4974  -31.6224   24.5234 H   0  0  0  0  0  0
  -15.5326  -30.2996   23.7612 H   0  0  0  0  0  0
  -15.8653  -28.0856   22.7012 H   0  0  0  0  0  0
  -24.5947  -30.6993   25.7818 H   0  0  0  0  0  0
  -24.8949  -32.2817   26.4938 H   0  0  0  0  0  0
  -25.8157  -30.8844   27.0207 H   0  0  0  0  0  0
  -26.2787  -29.6824   24.1079 H   0  0  0  0  0  0
  -27.4073  -29.7237   25.4432 H   0  0  0  0  0  0
  -27.8607  -30.4351   23.9106 H   0  0  0  0  0  0
  -27.2665  -33.3566   26.2090 H   0  0  0  0  0  0
  -28.3850  -32.6867   25.0302 H   0  0  0  0  0  0
  -28.0716  -31.8383   26.5361 H   0  0  0  0  0  0
  -28.2612  -38.0104   24.7506 H   0  0  0  0  0  0
  -28.1050  -36.2642   24.6305 H   0  0  0  0  0  0
  -27.2304  -37.1493   25.8870 H   0  0  0  0  0  0
  -20.9238  -29.8827   21.7082 H   0  0  0  0  0  0
  -26.0180  -38.2882   24.1404 H   0  0  0  0  0  0
  -29.5162  -19.0759   19.5364 H   0  0  0  0  0  0
  -27.8862  -18.5040   23.5025 H   0  0  0  0  0  0
  -30.5728  -16.8896   19.6357 H   0  0  0  0  0  0
  -28.9480  -16.2815   23.6127 H   0  0  0  0  0  0
  -28.4416  -21.0067   21.9773 H   0  0  0  0  0  0
  -26.9009  -20.1869   21.9560 H   0  0  0  0  0  0
  -29.3175  -22.7833   20.7696 H   0  0  0  0  0  0
  -27.6412  -23.0815   21.2019 H   0  0  0  0  0  0
  -27.5059  -24.4809   19.0054 H   0  0  0  0  0  0
  -29.2433  -24.4277   18.9961 H   0  0  0  0  0  0
  -29.3193  -25.4442   21.2692 H   0  0  0  0  0  0
  -27.5829  -25.4426   21.3782 H   0  0  0  0  0  0
  -29.8269  -14.5128   22.4084 H   0  0  0  0  0  0
  -27.2006  -19.9604   19.4483 H   0  0  0  0  0  0
  1 25  1  0  0  0
  1 30  2  0  0  0
  1 82  1  0  0  0
  2  3  1  0  0  0
  2 25  1  0  0  0
  2 85  1  0  0  0
  2 86  1  0  0  0
  3  4  1  0  0  0
  3 87  1  0  0  0
  3 88  1  0  0  0
  4  5  1  0  0  0
  4 89  1  0  0  0
  4 90  1  0  0  0
  5  6  1  0  0  0
  5 26  1  0  0  0
  5 91  1  0  0  0
  6 25  1  0  0  0
  6 92  1  0  0  0
  6 93  1  0  0  0
  7  8  2  0  0  0
  7 26  1  0  0  0
  7 29  1  0  0  0
  8  9  1  0  0  0
  8 22  1  0  0  0
  9 10  1  0  0  0
  9 27  2  0  0  0
 10 11  2  0  0  0
 10 15  1  0  0  0
 11 12  1  0  0  0
 11 94  1  0  0  0
 12 13  2  0  0  0
 12 95  1  0  0  0
 13 14  1  0  0  0
 13 31  1  0  0  0
 14 15  2  0  0  0
 14 96  1  0  0  0
 15 97  1  0  0  0
 16 17  2  0  0  0
 16 21  1  0  0  0
 16 31  1  0  0  0
 17 18  1  0  0  0
 17 98  1  0  0  0
 18 19  2  0  0  0
 18 99  1  0  0  0
 19 20  1  0  0  0
 19 24  1  0  0  0
 20 21  2  0  0  0
 20100  1  0  0  0
 21 23  1  0  0  0
 22 28  1  0  0  0
 22 32  2  0  0  0
 26 27  1  0  0  0
 28101  1  0  0  0
 28102  1  0  0  0
 29103  1  0  0  0
 29104  1  0  0  0
 33 34  1  0  0  0
 33 66  1  0  0  0
 33 70  2  0  0  0
 34 36  1  0  0  0
 34 59  1  0  0  0
 34105  1  0  0  0
 35 44  2  0  0  0
 35 45  1  0  0  0
 35 68  1  0  0  0
 36 56  1  0  0  0
 36106  1  0  0  0
 37 39  1  0  0  0
 37 47  1  0  0  0
 37 66  1  0  0  0
 37107  1  0  0  0
 38 43  2  0  0  0
 38 46  1  0  0  0
 38 47  1  0  0  0
 39 64  1  0  0  0
 39 67  2  0  0  0
 40 52  1  0  0  0
 40 53  2  0  0  0
 40 58  1  0  0  0
 41108  1  0  0  0
 41109  1  0  0  0
 41110  1  0  0  0
 41 48  1  0  0  0
 42 43  1  0  0  0
 42 66  1  0  0  0
 42111  1  0  0  0
 42112  1  0  0  0
 43 44  1  0  0  0
 44113  1  0  0  0
 45 46  2  0  0  0
 45114  1  0  0  0
 46115  1  0  0  0
 47116  1  0  0  0
 47117  1  0  0  0
 48 56  1  0  0  0
 48 65  1  0  0  0
 48118  1  0  0  0
 49 50  1  0  0  0
 49 53  1  0  0  0
 49 64  1  0  0  0
 49119  1  0  0  0
 50 51  1  0  0  0
 50120  1  0  0  0
 50121  1  0  0  0
 51 52  1  0  0  0
 51122  1  0  0  0
 51123  1  0  0  0
 52124  1  0  0  0
 52125  1  0  0  0
 53 54  1  0  0  0
 54 55  2  0  0  0
 54126  1  0  0  0
 55 57  1  0  0  0
 55127  1  0  0  0
 56 69  2  0  0  0
 57 58  2  0  0  0
 57128  1  0  0  0
 58129  1  0  0  0
 59 60  1  0  0  0
 59 61  1  0  0  0
 59 62  1  0  0  0
 60130  1  0  0  0
 60131  1  0  0  0
 60132  1  0  0  0
 61133  1  0  0  0
 61134  1  0  0  0
 61135  1  0  0  0
 62136  1  0  0  0
 62137  1  0  0  0
 62138  1  0  0  0
 63 65  1  0  0  0
 63139  1  0  0  0
 63140  1  0  0  0
 63141  1  0  0  0
 64142  1  0  0  0
 65143  1  0  0  0
 68 81  1  0  0  0
 71 73  2  0  0  0
 71 75  1  0  0  0
 71144  1  0  0  0
 72 74  1  0  0  0
 72 75  2  0  0  0
 72145  1  0  0  0
 73 76  1  0  0  0
 73146  1  0  0  0
 74 76  2  0  0  0
 74147  1  0  0  0
 75 78  1  0  0  0
 76 82  1  0  0  0
 77 79  1  0  0  0
 77 83  1  0  0  0
 77 84  2  0  0  0
 78 83  1  0  0  0
 78148  1  0  0  0
 78149  1  0  0  0
 79 80  1  0  0  0
 79150  1  0  0  0
 79151  1  0  0  0
 80 81  1  0  0  0
 80152  1  0  0  0
 80153  1  0  0  0
 81154  1  0  0  0
 81155  1  0  0  0
 82156  1  0  0  0
 83157  1  0  0  0
M  ISO  4   1 100  68 101  81 101  82 100
M  END
> <chiral flag>
0

> <version>
0

> <s_m_source_file>
/data/baiqing/PycharmProjects/Reinvent-master-3.2/result/LINK_invent/BTK/process_docking_weight1_custom_sum_contain_oxygen_bond_distance_aromatic_linkinvent_7_9_3/rearranged_h_0005.sdf

> <i_m_source_file_index>
66

> <r_mmod_Potential_Energy-OPLS-2005>
-153.66259765625

> <r_mmod_Stretch_Energy-OPLS-2005>
30.6205787658691

> <r_mmod_Bend_Energy-OPLS-2005>
91.4116821289062

> <r_mmod_Torsional_Energy-OPLS-2005>
253.197494506836

> <r_mmod_Improper_Torsional_Energy-OPLS-2005>
5.48227119445801

> <r_mmod_Van_der_Waal_Energy-OPLS-2005>
162.813369750977

> <r_mmod_Electrostatic_Energy-OPLS-2005>
-471.148193359375

> <r_mmod_Solvation_Energy-OPLS-2005>
-232.878005981445

> <b_mmod_Minimization_Converged-OPLS-2005>
0

> <r_mmod_RMS_Derivative-OPLS-2005>
2.16676330566406

$$$$
66
                    3D
 Structure written by MMmdl.
201210  0  0  1  0            999 V2000
  -30.8720  -14.1917   20.8342 C   0  0  0  0  0  0
  -30.4155  -12.3093   19.3179 C   0  0  0  0  0  0
  -29.4563  -12.5565   18.1477 C   0  0  0  0  0  0
  -27.9942  -12.3841   18.5943 C   0  0  0  0  0  0
  -27.6676  -13.2003   19.8694 C   0  0  2  0  0  0
  -28.7132  -12.9312   20.9683 C   0  0  0  0  0  0
  -25.2628  -13.8165   20.5681 C   0  0  0  0  0  0
  -24.1864  -13.0429   20.9183 C   0  0  0  0  0  0
  -24.6420  -11.6918   20.8740 C   0  0  0  0  0  0
  -23.9086  -10.4293   21.0413 C   0  0  0  0  0  0
  -24.3641   -9.4216   21.9179 C   0  0  0  0  0  0
  -23.6313   -8.2252   22.0760 C   0  0  0  0  0  0
  -22.4289   -8.0298   21.3558 C   0  0  0  0  0  0
  -21.9927   -9.0260   20.4655 C   0  0  0  0  0  0
  -22.7258  -10.2142   20.3055 C   0  0  0  0  0  0
  -21.6846   -6.0765   22.5292 C   0  0  0  0  0  0
  -21.4006   -6.5660   23.8231 C   0  0  0  0  0  0
  -21.3651   -5.6811   24.9189 C   0  0  0  0  0  0
  -21.6031   -4.3066   24.7239 C   0  0  0  0  0  0
  -21.8815   -3.8172   23.4353 C   0  0  0  0  0  0
  -21.9190   -4.6990   22.3416 C   0  0  0  0  0  0
  -22.7876  -13.5241   21.1848 C   0  0  0  0  0  0
  -22.1656   -4.2180   21.0991 F   0  0  0  0  0  0
  -21.5633   -3.4544   25.7747 F   0  0  0  0  0  0
  -30.0566  -13.1924   20.4308 N   0  0  0  0  0  0
  -26.3077  -12.9321   20.3383 N   0  0  0  0  0  0
  -25.9346  -11.6490   20.5766 N   0  0  0  0  0  0
  -22.0531  -12.8216   22.0421 N   0  0  0  0  0  0
  -25.4330  -15.1866   20.4093 N   0  0  0  0  0  0
  -31.6848  -14.7568   20.0896 O   0  0  0  0  0  0
  -21.6636   -6.8898   21.4261 O   0  0  0  0  0  0
  -22.3561  -14.5544   20.6712 O   0  0  0  0  0  0
  -24.6118  -31.8722   23.2119 C   0  0  0  0  0  0
  -25.9057  -32.4866   23.8381 C   0  0  1  0  0  0
  -27.2347  -27.4691   20.0821 C   0  0  0  0  0  0
  -25.5921  -33.8637   24.2347 N   0  0  0  0  0  0
  -23.3967  -30.4929   21.5535 C   0  0  2  0  0  0
  -24.8385  -28.9612   20.1094 C   0  0  0  0  0  0
  -22.7432  -29.4704   22.5112 C   0  0  0  0  0  0
  -18.0269  -28.1365   22.8518 C   0  0  0  0  0  0
  -24.1491  -36.7300   23.2684 C   0  0  0  0  0  0
  -25.9174  -30.8494   21.3578 C   0  0  0  0  0  0
  -25.9912  -29.4887   20.6992 C   0  0  0  0  0  0
  -27.1896  -28.7565   20.6763 C   0  0  0  0  0  0
  -26.0657  -26.9533   19.4898 C   0  0  0  0  0  0
  -24.8693  -27.6979   19.4947 C   0  0  0  0  0  0
  -23.5967  -29.8155   20.1688 C   0  0  0  0  0  0
  -25.4110  -36.3101   24.0406 C   0  0  1  0  0  0
  -20.5867  -28.3629   23.1388 C   0  0  2  0  0  0
  -20.6748  -26.9386   22.5439 C   0  0  0  0  0  0
  -19.5733  -26.6390   21.5232 C   0  0  0  0  0  0
  -18.1907  -26.7919   22.1629 C   0  0  0  0  0  0
  -19.1526  -28.8814   23.2932 C   0  0  0  0  0  0
  -18.9456  -30.1403   23.8967 C   0  0  0  0  0  0
  -17.6462  -30.6587   24.0534 C   0  0  0  0  0  0
  -25.9035  -34.9494   23.5136 C   0  0  0  0  0  0
  -16.5359  -29.9077   23.6315 C   0  0  0  0  0  0
  -16.7253  -28.6469   23.0402 C   0  0  0  0  0  0
  -26.4526  -31.6678   25.0694 C   0  0  0  0  0  0
  -25.3846  -31.3837   26.1528 C   0  0  0  0  0  0
  -27.0196  -30.3056   24.6153 C   0  0  0  0  0  0
  -27.6176  -32.4391   25.7354 C   0  0  0  0  0  0
  -27.5583  -37.1837   24.8491 C   0  0  0  0  0  0
  -21.4189  -29.2989   22.3817 N   0  0  0  0  0  0
  -26.4275  -37.3800   23.9454 N   0  0  0  0  0  0
  -24.6602  -31.0870   22.0997 N   0  0  0  0  0  0
  -23.4216  -28.8365   23.3239 O   0  0  0  0  0  0
  -28.3664  -26.6829   20.0543 O   0  0  0  0  0  0
  -26.5542  -34.8956   22.4662 O   0  0  0  0  0  0
  -23.5315  -32.1438   23.7574 O   0  0  0  0  0  0
  -34.9589   -9.5638   25.0814 C   0  0  0  0  0  0
  -29.6497  -15.5292   23.5542 C   0  0  0  0  0  0
  -32.0511  -15.9257   23.5225 C   0  0  0  0  0  0
  -29.5072  -16.4719   24.5881 C   0  0  0  0  0  0
  -31.9073  -16.8689   24.5604 C   0  0  0  0  0  0
  -35.7742   -9.5986   23.9375 C   0  0  0  0  0  0
  -33.6002   -9.8994   24.9471 C   0  0  0  0  0  0
  -30.9292  -15.2147   23.0427 C   0  0  0  0  0  0
  -30.6370  -17.1148   25.1290 C   0  0  0  0  0  0
  -35.2009   -9.9755   22.7097 C   0  0  0  0  0  0
  -33.1085  -10.2584   23.6792 C   0  0  0  0  0  0
  -29.6780  -25.8295   23.9648 C   0  0  0  0  0  0
  -36.0349  -10.0315   21.4479 C   0  0  0  0  0  0
  -31.4386  -17.7580   27.3574 C   0  0  0  0  0  0
  -31.9497  -26.2473   23.0423 C   0  0  0  0  0  0
  -31.6322  -10.5664   23.4836 C   0  0  0  0  0  0
  -30.0772  -26.4114   25.3358 C   0  0  0  0  0  0
  -31.2357  -12.0545   23.5976 C   0  0  0  0  0  0
  -30.5380  -25.3850   26.3945 C   0  0  0  0  0  0
  -29.6512  -24.1372   26.5891 C   0  0  0  0  0  0
  -30.2609  -22.8988   25.9124 C   0  0  0  0  0  0
  -29.4499  -21.6171   26.1539 C   0  0  0  0  0  0
  -30.2988  -20.3629   25.9067 C   0  0  0  0  0  0
  -31.9672  -12.9952   22.6130 C   0  0  0  0  0  0
  -29.5631  -19.0561   26.2306 C   0  0  0  0  0  0
  -30.0462  -25.6799   21.5377 C   0  0  0  0  0  0
  -29.3462  -26.9602   21.0489 C   0  0  0  0  0  0
  -33.8962  -10.3018   22.5803 N   0  0  0  0  0  0
  -31.1047  -14.1084   22.1645 N   0  0  0  0  0  0
  -30.4909  -17.9303   26.2611 N   0  0  0  0  0  0
  -30.5380  -25.8800   22.9142 N   0  0  0  0  0  0
  -28.5266  -25.4057   23.8331 O   0  0  0  0  0  0
  -31.4455  -12.4641   18.9910 H   0  0  0  0  0  0
  -30.3594  -11.2713   19.6477 H   0  0  0  0  0  0
  -29.6831  -11.8770   17.3242 H   0  0  0  0  0  0
  -29.6058  -13.5654   17.7608 H   0  0  0  0  0  0
  -27.8193  -11.3230   18.7758 H   0  0  0  0  0  0
  -27.3207  -12.6720   17.7864 H   0  0  0  0  0  0
  -27.7280  -14.2554   19.6020 H   0  0  0  0  0  0
  -28.6648  -11.8960   21.3078 H   0  0  0  0  0  0
  -28.4865  -13.5412   21.8345 H   0  0  0  0  0  0
  -25.2798   -9.5684   22.4738 H   0  0  0  0  0  0
  -24.0016   -7.4648   22.7479 H   0  0  0  0  0  0
  -21.0859   -8.8783   19.8967 H   0  0  0  0  0  0
  -22.3718  -10.9679   19.6158 H   0  0  0  0  0  0
  -21.1987   -7.6163   23.9742 H   0  0  0  0  0  0
  -21.1467   -6.0536   25.9089 H   0  0  0  0  0  0
  -22.0594   -2.7636   23.2851 H   0  0  0  0  0  0
  -22.4125  -11.9850   22.4775 H   0  0  0  0  0  0
  -21.1164  -13.1261   22.2674 H   0  0  0  0  0  0
  -24.6660  -15.8417   20.5209 H   0  0  0  0  0  0
  -26.2924  -15.6332   20.1107 H   0  0  0  0  0  0
  -26.7155  -32.5604   23.1137 H   0  0  0  0  0  0
  -25.0048  -33.9802   25.0468 H   0  0  0  0  0  0
  -22.6871  -31.3128   21.4147 H   0  0  0  0  0  0
  -23.3756  -35.9613   23.3305 H   0  0  0  0  0  0
  -24.3654  -36.8924   22.2117 H   0  0  0  0  0  0
  -23.7222  -37.6496   23.6677 H   0  0  0  0  0  0
  -26.0213  -31.6250   20.5973 H   0  0  0  0  0  0
  -26.8054  -30.9002   21.9753 H   0  0  0  0  0  0
  -28.0598  -29.2018   21.1333 H   0  0  0  0  0  0
  -26.0699  -25.9722   19.0354 H   0  0  0  0  0  0
  -23.9827  -27.3012   19.0201 H   0  0  0  0  0  0
  -23.6846  -30.5772   19.3957 H   0  0  0  0  0  0
  -22.7276  -29.2160   19.8933 H   0  0  0  0  0  0
  -25.1296  -36.1914   25.0916 H   0  0  0  0  0  0
  -20.9872  -28.3060   24.1545 H   0  0  0  0  0  0
  -20.5644  -26.2216   23.3585 H   0  0  0  0  0  0
  -21.6624  -26.7421   22.1257 H   0  0  0  0  0  0
  -19.6894  -25.6317   21.1228 H   0  0  0  0  0  0
  -19.6681  -27.3217   20.6780 H   0  0  0  0  0  0
  -17.4200  -26.6714   21.3997 H   0  0  0  0  0  0
  -18.0250  -26.0050   22.9001 H   0  0  0  0  0  0
  -19.7925  -30.7163   24.2434 H   0  0  0  0  0  0
  -17.5021  -31.6296   24.5062 H   0  0  0  0  0  0
  -15.5360  -30.2981   23.7628 H   0  0  0  0  0  0
  -15.8648  -28.0748   22.7184 H   0  0  0  0  0  0
  -24.5708  -30.7604   25.7836 H   0  0  0  0  0  0
  -24.9421  -32.3025   26.5373 H   0  0  0  0  0  0
  -25.8208  -30.8560   27.0029 H   0  0  0  0  0  0
  -26.2685  -29.7121   24.0929 H   0  0  0  0  0  0
  -27.3474  -29.7095   25.4690 H   0  0  0  0  0  0
  -27.8769  -30.4206   23.9524 H   0  0  0  0  0  0
  -28.0901  -31.8502   26.5204 H   0  0  0  0  0  0
  -28.3916  -32.7046   25.0129 H   0  0  0  0  0  0
  -27.2798  -33.3617   26.2061 H   0  0  0  0  0  0
  -28.2564  -38.0168   24.7514 H   0  0  0  0  0  0
  -28.1109  -36.2704   24.6255 H   0  0  0  0  0  0
  -27.2366  -37.1419   25.8918 H   0  0  0  0  0  0
  -20.9418  -29.8590   21.6908 H   0  0  0  0  0  0
  -26.0139  -38.2860   24.1436 H   0  0  0  0  0  0
  -35.3665   -9.2784   26.0419 H   0  0  0  0  0  0
  -28.7639  -15.0126   23.2301 H   0  0  0  0  0  0
  -33.0363  -15.7227   23.1279 H   0  0  0  0  0  0
  -28.5271  -16.6385   25.0131 H   0  0  0  0  0  0
  -32.7891  -17.3713   24.9356 H   0  0  0  0  0  0
  -36.8218   -9.3376   24.0083 H   0  0  0  0  0  0
  -32.9427   -9.8620   25.8053 H   0  0  0  0  0  0
  -37.0078   -9.5625   21.5978 H   0  0  0  0  0  0
  -36.2009  -11.0650   21.1450 H   0  0  0  0  0  0
  -35.5375   -9.5086   20.6318 H   0  0  0  0  0  0
  -31.5549  -16.6992   27.5988 H   0  0  0  0  0  0
  -31.0944  -18.2644   28.2614 H   0  0  0  0  0  0
  -32.4186  -18.1599   27.0988 H   0  0  0  0  0  0
  -32.0522  -27.3302   23.1156 H   0  0  0  0  0  0
  -32.5359  -25.9188   22.1828 H   0  0  0  0  0  0
  -32.4069  -25.8078   23.9315 H   0  0  0  0  0  0
  -31.0688   -9.9798   24.2113 H   0  0  0  0  0  0
  -31.3250  -10.1907   22.5060 H   0  0  0  0  0  0
  -29.2023  -26.9375   25.7256 H   0  0  0  0  0  0
  -30.8327  -27.1896   25.2286 H   0  0  0  0  0  0
  -31.4008  -12.3994   24.6179 H   0  0  0  0  0  0
  -30.1584  -12.1135   23.4390 H   0  0  0  0  0  0
  -30.5907  -25.9058   27.3498 H   0  0  0  0  0  0
  -31.5660  -25.0904   26.1868 H   0  0  0  0  0  0
  -28.6327  -24.3144   26.2382 H   0  0  0  0  0  0
  -29.5510  -23.9396   27.6599 H   0  0  0  0  0  0
  -31.2724  -22.7621   26.2965 H   0  0  0  0  0  0
  -30.3841  -23.0677   24.8419 H   0  0  0  0  0  0
  -28.5600  -21.6166   25.5211 H   0  0  0  0  0  0
  -29.1027  -21.5951   27.1890 H   0  0  0  0  0  0
  -31.1973  -20.4384   26.5234 H   0  0  0  0  0  0
  -30.6324  -20.3331   24.8680 H   0  0  0  0  0  0
  -32.8817  -13.3766   23.0666 H   0  0  0  0  0  0
  -32.3064  -12.4050   21.7583 H   0  0  0  0  0  0
  -28.7678  -18.8911   25.5032 H   0  0  0  0  0  0
  -29.0691  -19.1264   27.2010 H   0  0  0  0  0  0
  -30.8473  -25.4198   20.8444 H   0  0  0  0  0  0
  -29.3627  -24.8264   21.5189 H   0  0  0  0  0  0
  -30.0679  -27.6792   20.6625 H   0  0  0  0  0  0
  -28.8912  -27.4245   21.9193 H   0  0  0  0  0  0
  1 25  1  0  0  0
  1 30  2  0  0  0
  1 99  1  0  0  0
  2  3  1  0  0  0
  2 25  1  0  0  0
  2103  1  0  0  0
  2104  1  0  0  0
  3  4  1  0  0  0
  3105  1  0  0  0
  3106  1  0  0  0
  4  5  1  0  0  0
  4107  1  0  0  0
  4108  1  0  0  0
  5  6  1  0  0  0
  5 26  1  0  0  0
  5109  1  0  0  0
  6 25  1  0  0  0
  6110  1  0  0  0
  6111  1  0  0  0
  7  8  2  0  0  0
  7 26  1  0  0  0
  7 29  1  0  0  0
  8  9  1  0  0  0
  8 22  1  0  0  0
  9 10  1  0  0  0
  9 27  2  0  0  0
 10 11  2  0  0  0
 10 15  1  0  0  0
 11 12  1  0  0  0
 11112  1  0  0  0
 12 13  2  0  0  0
 12113  1  0  0  0
 13 14  1  0  0  0
 13 31  1  0  0  0
 14 15  2  0  0  0
 14114  1  0  0  0
 15115  1  0  0  0
 16 17  2  0  0  0
 16 21  1  0  0  0
 16 31  1  0  0  0
 17 18  1  0  0  0
 17116  1  0  0  0
 18 19  2  0  0  0
 18117  1  0  0  0
 19 20  1  0  0  0
 19 24  1  0  0  0
 20 21  2  0  0  0
 20118  1  0  0  0
 21 23  1  0  0  0
 22 28  1  0  0  0
 22 32  2  0  0  0
 26 27  1  0  0  0
 28119  1  0  0  0
 28120  1  0  0  0
 29121  1  0  0  0
 29122  1  0  0  0
 33 34  1  0  0  0
 33 66  1  0  0  0
 33 70  2  0  0  0
 34 36  1  0  0  0
 34 59  1  0  0  0
 34123  1  0  0  0
 35 44  2  0  0  0
 35 45  1  0  0  0
 35 68  1  0  0  0
 36 56  1  0  0  0
 36124  1  0  0  0
 37 39  1  0  0  0
 37 47  1  0  0  0
 37 66  1  0  0  0
 37125  1  0  0  0
 38 43  2  0  0  0
 38 46  1  0  0  0
 38 47  1  0  0  0
 39 64  1  0  0  0
 39 67  2  0  0  0
 40 52  1  0  0  0
 40 53  2  0  0  0
 40 58  1  0  0  0
 41126  1  0  0  0
 41127  1  0  0  0
 41128  1  0  0  0
 41 48  1  0  0  0
 42 43  1  0  0  0
 42 66  1  0  0  0
 42129  1  0  0  0
 42130  1  0  0  0
 43 44  1  0  0  0
 44131  1  0  0  0
 45 46  2  0  0  0
 45132  1  0  0  0
 46133  1  0  0  0
 47134  1  0  0  0
 47135  1  0  0  0
 48 56  1  0  0  0
 48 65  1  0  0  0
 48136  1  0  0  0
 49 50  1  0  0  0
 49 53  1  0  0  0
 49 64  1  0  0  0
 49137  1  0  0  0
 50 51  1  0  0  0
 50138  1  0  0  0
 50139  1  0  0  0
 51 52  1  0  0  0
 51140  1  0  0  0
 51141  1  0  0  0
 52142  1  0  0  0
 52143  1  0  0  0
 53 54  1  0  0  0
 54 55  2  0  0  0
 54144  1  0  0  0
 55 57  1  0  0  0
 55145  1  0  0  0
 56 69  2  0  0  0
 57 58  2  0  0  0
 57146  1  0  0  0
 58147  1  0  0  0
 59 60  1  0  0  0
 59 61  1  0  0  0
 59 62  1  0  0  0
 60148  1  0  0  0
 60149  1  0  0  0
 60150  1  0  0  0
 61151  1  0  0  0
 61152  1  0  0  0
 61153  1  0  0  0
 62154  1  0  0  0
 62155  1  0  0  0
 62156  1  0  0  0
 63 65  1  0  0  0
 63157  1  0  0  0
 63158  1  0  0  0
 63159  1  0  0  0
 64160  1  0  0  0
 65161  1  0  0  0
 68 97  1  0  0  0
 71 76  2  0  0  0
 71 77  1  0  0  0
 71162  1  0  0  0
 72 74  2  0  0  0
 72 78  1  0  0  0
 72163  1  0  0  0
 73 75  1  0  0  0
 73 78  2  0  0  0
 73164  1  0  0  0
 74 79  1  0  0  0
 74165  1  0  0  0
 75 79  2  0  0  0
 75166  1  0  0  0
 76 80  1  0  0  0
 76167  1  0  0  0
 77 81  2  0  0  0
 77168  1  0  0  0
 78 99  1  0  0  0
 79100  1  0  0  0
 80 83  1  0  0  0
 80 98  2  0  0  0
 81 86  1  0  0  0
 81 98  1  0  0  0
 82 87  1  0  0  0
 82101  1  0  0  0
 82102  2  0  0  0
 83169  1  0  0  0
 83170  1  0  0  0
 83171  1  0  0  0
 84100  1  0  0  0
 84172  1  0  0  0
 84173  1  0  0  0
 84174  1  0  0  0
 85101  1  0  0  0
 85175  1  0  0  0
 85176  1  0  0  0
 85177  1  0  0  0
 86 88  1  0  0  0
 86178  1  0  0  0
 86179  1  0  0  0
 87 89  1  0  0  0
 87180  1  0  0  0
 87181  1  0  0  0
 88 94  1  0  0  0
 88182  1  0  0  0
 88183  1  0  0  0
 89 90  1  0  0  0
 89184  1  0  0  0
 89185  1  0  0  0
 90 91  1  0  0  0
 90186  1  0  0  0
 90187  1  0  0  0
 91 92  1  0  0  0
 91188  1  0  0  0
 91189  1  0  0  0
 92 93  1  0  0  0
 92190  1  0  0  0
 92191  1  0  0  0
 93 95  1  0  0  0
 93192  1  0  0  0
 93193  1  0  0  0
 94 99  1  0  0  0
 94194  1  0  0  0
 94195  1  0  0  0
 95100  1  0  0  0
 95196  1  0  0  0
 95197  1  0  0  0
 96 97  1  0  0  0
 96101  1  0  0  0
 96198  1  0  0  0
 96199  1  0  0  0
 97200  1  0  0  0
 97201  1  0  0  0
M  ISO  4   1 100  68 101  97 101  99 100
M  END
> <chiral flag>
0

> <version>
0

> <s_m_source_file>
/data/baiqing/PycharmProjects/Reinvent-master-3.2/result/LINK_invent/BTK/process_docking_weight1_custom_sum_contain_oxygen_bond_distance_aromatic_linkinvent_7_9_3/rearranged_h_0005.sdf

> <i_m_source_file_index>
67

> <r_mmod_Potential_Energy-OPLS-2005>
29.1395072937012

> <r_mmod_Stretch_Energy-OPLS-2005>
37.9443321228027

> <r_mmod_Bend_Energy-OPLS-2005>
113.915565490723

> <r_mmod_Torsional_Energy-OPLS-2005>
378.144256591797

> <r_mmod_Improper_Torsional_Energy-OPLS-2005>
19.6392555236816

> <r_mmod_Van_der_Waal_Energy-OPLS-2005>
181.421508789062

> <r_mmod_Electrostatic_Energy-OPLS-2005>
-483.123413085938

> <r_mmod_Solvation_Energy-OPLS-2005>
-236.184188842773

> <b_mmod_Minimization_Converged-OPLS-2005>
0

> <r_mmod_RMS_Derivative-OPLS-2005>
4.85463094711304

$$$$
67
                    3D
 Structure written by MMmdl.
199207  0  0  1  0            999 V2000
  -30.6434  -14.5675   20.5304 C   0  0  0  0  0  0
  -30.4044  -12.3409   19.4380 C   0  0  0  0  0  0
  -29.4823  -12.4650   18.2076 C   0  0  0  0  0  0
  -28.0107  -12.2968   18.6361 C   0  0  0  0  0  0
  -27.6447  -13.1803   19.8556 C   0  0  2  0  0  0
  -28.6875  -13.0298   20.9863 C   0  0  0  0  0  0
  -25.2530  -13.8053   20.5592 C   0  0  0  0  0  0
  -24.1800  -13.0390   20.9202 C   0  0  0  0  0  0
  -24.6341  -11.6847   20.8809 C   0  0  0  0  0  0
  -23.9016  -10.4257   21.0448 C   0  0  0  0  0  0
  -24.3581   -9.4185   21.9214 C   0  0  0  0  0  0
  -23.6277   -8.2213   22.0760 C   0  0  0  0  0  0
  -22.4251   -8.0259   21.3550 C   0  0  0  0  0  0
  -21.9884   -9.0232   20.4640 C   0  0  0  0  0  0
  -22.7204  -10.2120   20.3076 C   0  0  0  0  0  0
  -21.6838   -6.0725   22.5279 C   0  0  0  0  0  0
  -21.4008   -6.5633   23.8215 C   0  0  0  0  0  0
  -21.3659   -5.6789   24.9176 C   0  0  0  0  0  0
  -21.6041   -4.3053   24.7225 C   0  0  0  0  0  0
  -21.8821   -3.8142   23.4349 C   0  0  0  0  0  0
  -21.9191   -4.6954   22.3404 C   0  0  0  0  0  0
  -22.7849  -13.5233   21.1888 C   0  0  0  0  0  0
  -22.1660   -4.2141   21.0983 F   0  0  0  0  0  0
  -21.5632   -3.4536   25.7746 F   0  0  0  0  0  0
  -29.9937  -13.3682   20.4161 N   0  0  0  0  0  0
  -26.2936  -12.9183   20.3316 N   0  0  0  0  0  0
  -25.9256  -11.6385   20.5833 N   0  0  0  0  0  0
  -22.0474  -12.8227   22.0413 N   0  0  0  0  0  0
  -25.4162  -15.1742   20.3814 N   0  0  0  0  0  0
  -31.8036  -14.6963   20.1302 O   0  0  0  0  0  0
  -21.6620   -6.8860   21.4238 O   0  0  0  0  0  0
  -22.3575  -14.5541   20.6716 O   0  0  0  0  0  0
  -24.6287  -31.9002   23.2036 C   0  0  0  0  0  0
  -25.9102  -32.4915   23.8514 C   0  0  1  0  0  0
  -27.2926  -27.5207   20.0601 C   0  0  0  0  0  0
  -25.5738  -33.8645   24.2349 N   0  0  0  0  0  0
  -23.4684  -30.5590   21.4912 C   0  0  2  0  0  0
  -24.8900  -29.0089   20.0882 C   0  0  0  0  0  0
  -22.8330  -29.4965   22.3888 C   0  0  0  0  0  0
  -17.9879  -27.7514   22.6626 C   0  0  0  0  0  0
  -24.1489  -36.7296   23.2681 C   0  0  0  0  0  0
  -25.9875  -30.8873   21.3706 C   0  0  0  0  0  0
  -26.0268  -29.5036   20.7387 C   0  0  0  0  0  0
  -27.2154  -28.7456   20.7580 C   0  0  0  0  0  0
  -26.1418  -27.0231   19.3867 C   0  0  0  0  0  0
  -24.9378  -27.7737   19.3987 C   0  0  0  0  0  0
  -23.6887  -29.9311   20.0793 C   0  0  0  0  0  0
  -25.4114  -36.3094   24.0372 C   0  0  1  0  0  0
  -20.8366  -28.2464   22.9333 C   0  0  2  0  0  0
  -20.7151  -26.8123   22.4313 C   0  0  0  0  0  0
  -19.6321  -26.5153   21.3778 C   0  0  0  0  0  0
  -18.2058  -26.5040   21.9352 C   0  0  0  0  0  0
  -19.5424  -28.7692   23.2087 C   0  0  0  0  0  0
  -19.3266  -30.4719   24.1338 C   0  0  0  0  0  0
  -17.5426  -31.1155   24.5323 C   0  0  0  0  0  0
  -25.8981  -34.9513   23.5140 C   0  0  0  0  0  0
  -15.9908  -30.0736   24.0291 C   0  0  0  0  0  0
  -16.2143  -28.3874   23.0844 C   0  0  0  0  0  0
  -26.4450  -31.6590   25.0785 C   0  0  0  0  0  0
  -25.3654  -31.3620   26.1391 C   0  0  0  0  0  0
  -27.0243  -30.3025   24.6182 C   0  0  0  0  0  0
  -27.6030  -32.4301   25.7488 C   0  0  0  0  0  0
  -27.5597  -37.1752   24.8472 C   0  0  0  0  0  0
  -21.5568  -29.1904   22.1390 N   0  0  0  0  0  0
  -26.4311  -37.3783   23.9357 N   0  0  0  0  0  0
  -24.7123  -31.1337   22.0755 N   0  0  0  0  0  0
  -23.4891  -28.9501   23.2761 O   0  0  0  0  0  0
  -28.5563  -26.9867   20.0403 O   0  0  0  0  0  0
  -26.5608  -34.8977   22.4740 O   0  0  0  0  0  0
  -23.5403  -32.1524   23.7342 O   0  0  0  0  0  0
  -23.7010  -25.4799   21.2274 C   0  0  0  0  0  0
  -23.2607  -24.1733   21.5013 C   0  0  0  0  0  0
  -24.3975  -26.1870   22.2256 C   0  0  0  0  0  0
  -23.5089  -23.6290   22.7812 C   0  0  0  0  0  0
  -24.5536  -25.6296   23.5261 C   0  0  0  0  0  0
  -23.6934  -24.5479   23.8636 C   0  0  0  0  0  0
  -17.7405  -30.0902   22.4037 C   0  0  0  0  0  0
  -25.1339  -21.9064   22.0571 C   0  0  0  0  0  0
  -16.5426  -30.6498   21.5147 C   0  0  0  0  0  0
  -25.3121  -20.4343   21.5166 C   0  0  0  0  0  0
  -26.7883  -19.8461   21.5039 C   0  0  0  0  0  0
  -27.0629  -18.4325   20.8480 C   0  0  0  0  0  0
  -29.3090  -24.6717   21.9354 C   0  0  0  0  0  0
  -29.1750  -25.7433   23.0446 C   0  0  0  0  0  0
  -28.4860  -17.8017   21.1495 C   0  0  0  0  0  0
  -20.0319  -27.7075   25.9379 C   0  0  0  0  0  0
  -29.9187  -25.1601   20.6040 C   0  0  0  0  0  0
  -27.9896  -25.4997   24.0240 C   0  0  0  0  0  0
  -20.7818  -26.2730   25.8558 C   0  0  0  0  0  0
  -18.4841  -27.8048   25.4721 C   0  0  0  0  0  0
  -28.7381  -16.3142   20.6784 C   0  0  0  0  0  0
  -28.8521  -25.6709   19.6061 C   0  0  0  0  0  0
  -26.7846  -26.4512   23.8052 C   0  0  0  0  0  0
  -22.2954  -26.0753   25.3376 C   0  0  0  0  0  0
  -24.0114  -22.2679   22.7610 N   0  0  0  0  0  0
  -17.7971  -28.9043   24.5747 N   0  0  0  0  0  0
  -30.0197  -15.6518   21.0774 N   0  0  0  0  0  0
  -18.6727  -30.4258   21.6084 O   0  0  0  0  0  0
  -26.0175  -22.7261   21.8372 O   0  0  0  0  0  0
  -25.5296  -26.0559   24.3985 O   0  0  0  0  0  0
  -22.6417  -24.7400   24.8011 O   0  0  0  0  0  0
  -31.4529  -12.4208   19.1469 H   0  0  0  0  0  0
  -30.3015  -11.3433   19.8728 H   0  0  0  0  0  0
  -29.7345  -11.7101   17.4620 H   0  0  0  0  0  0
  -29.6259  -13.4329   17.7289 H   0  0  0  0  0  0
  -27.8639  -11.2439   18.8922 H   0  0  0  0  0  0
  -27.3398  -12.4968   17.7989 H   0  0  0  0  0  0
  -27.6629  -14.1976   19.4816 H   0  0  0  0  0  0
  -28.7072  -12.0013   21.3506 H   0  0  0  0  0  0
  -28.4570  -13.6445   21.8547 H   0  0  0  0  0  0
  -25.2723   -9.5660   22.4790 H   0  0  0  0  0  0
  -23.9973   -7.4604   22.7473 H   0  0  0  0  0  0
  -21.0823   -8.8755   19.8947 H   0  0  0  0  0  0
  -22.3674  -10.9665   19.6185 H   0  0  0  0  0  0
  -21.1996   -7.6141   23.9714 H   0  0  0  0  0  0
  -21.1480   -6.0520   25.9080 H   0  0  0  0  0  0
  -22.0600   -2.7603   23.2853 H   0  0  0  0  0  0
  -22.4076  -11.9887   22.4798 H   0  0  0  0  0  0
  -21.1120  -13.1285   22.2596 H   0  0  0  0  0  0
  -24.6400  -15.8199   20.4777 H   0  0  0  0  0  0
  -26.2483  -15.6064   20.0033 H   0  0  0  0  0  0
  -26.7179  -32.5646   23.1330 H   0  0  0  0  0  0
  -24.9665  -33.9929   25.0309 H   0  0  0  0  0  0
  -22.8062  -31.4196   21.3880 H   0  0  0  0  0  0
  -23.3743  -35.9629   23.3347 H   0  0  0  0  0  0
  -24.3627  -36.8894   22.2114 H   0  0  0  0  0  0
  -23.7219  -37.6508   23.6668 H   0  0  0  0  0  0
  -26.1486  -31.6892   20.6257 H   0  0  0  0  0  0
  -26.8790  -30.9145   21.9862 H   0  0  0  0  0  0
  -28.1096  -29.1117   21.2647 H   0  0  0  0  0  0
  -26.1931  -26.1132   18.7988 H   0  0  0  0  0  0
  -24.0808  -27.4435   18.8208 H   0  0  0  0  0  0
  -23.9066  -30.7476   19.3831 H   0  0  0  0  0  0
  -22.8047  -29.4573   19.6444 H   0  0  0  0  0  0
  -25.1262  -36.2127   25.0881 H   0  0  0  0  0  0
  -21.3395  -28.2412   23.8745 H   0  0  0  0  0  0
  -20.4040  -26.2080   23.2784 H   0  0  0  0  0  0
  -21.6818  -26.4306   22.1515 H   0  0  0  0  0  0
  -19.8271  -25.5390   20.9336 H   0  0  0  0  0  0
  -19.7114  -27.2482   20.5783 H   0  0  0  0  0  0
  -17.4796  -26.4367   21.1332 H   0  0  0  0  0  0
  -18.0316  -25.6571   22.5912 H   0  0  0  0  0  0
  -20.1984  -31.0464   24.4280 H   0  0  0  0  0  0
  -17.4193  -32.0715   25.0370 H   0  0  0  0  0  0
  -14.9982  -30.4385   24.2582 H   0  0  0  0  0  0
  -15.3549  -27.8080   22.7900 H   0  0  0  0  0  0
  -24.5807  -30.7162   25.7458 H   0  0  0  0  0  0
  -24.8907  -32.2779   26.4956 H   0  0  0  0  0  0
  -25.7889  -30.8538   27.0073 H   0  0  0  0  0  0
  -26.2875  -29.7022   24.0910 H   0  0  0  0  0  0
  -27.3577  -29.6984   25.4634 H   0  0  0  0  0  0
  -27.8874  -30.4160   23.9607 H   0  0  0  0  0  0
  -27.2659  -33.3611   26.2041 H   0  0  0  0  0  0
  -28.3823  -32.6914   25.0303 H   0  0  0  0  0  0
  -28.0736  -31.8481   26.5429 H   0  0  0  0  0  0
  -28.2584  -38.0080   24.7450 H   0  0  0  0  0  0
  -28.1083  -36.2573   24.6316 H   0  0  0  0  0  0
  -27.2230  -37.1383   25.8857 H   0  0  0  0  0  0
  -21.0678  -29.6631   21.3901 H   0  0  0  0  0  0
  -26.0234  -38.2866   24.1359 H   0  0  0  0  0  0
  -23.6196  -25.8716   20.2315 H   0  0  0  0  0  0
  -22.9014  -23.5356   20.7115 H   0  0  0  0  0  0
  -24.8561  -27.1223   21.9603 H   0  0  0  0  0  0
  -15.5096  -30.4219   21.7543 H   0  0  0  0  0  0
  -16.6537  -30.2459   20.5061 H   0  0  0  0  0  0
  -16.6276  -31.7347   21.4369 H   0  0  0  0  0  0
  -24.9605  -20.4871   20.4806 H   0  0  0  0  0  0
  -24.6276  -19.7568   22.0240 H   0  0  0  0  0  0
  -27.4343  -20.5745   21.0089 H   0  0  0  0  0  0
  -27.1423  -19.7925   22.5381 H   0  0  0  0  0  0
  -26.9149  -18.4921   19.7734 H   0  0  0  0  0  0
  -26.3001  -17.7414   21.2032 H   0  0  0  0  0  0
  -28.3269  -24.2485   21.7246 H   0  0  0  0  0  0
  -29.9102  -23.8432   22.3117 H   0  0  0  0  0  0
  -29.1230  -26.7430   22.6174 H   0  0  0  0  0  0
  -30.1095  -25.7367   23.5974 H   0  0  0  0  0  0
  -28.6289  -17.8586   22.2250 H   0  0  0  0  0  0
  -29.2606  -18.4486   20.7241 H   0  0  0  0  0  0
  -20.6255  -28.5771   25.6791 H   0  0  0  0  0  0
  -19.9864  -27.8979   27.0122 H   0  0  0  0  0  0
  -30.6555  -25.9389   20.8087 H   0  0  0  0  0  0
  -30.4896  -24.3504   20.1441 H   0  0  0  0  0  0
  -28.3436  -25.6281   25.0416 H   0  0  0  0  0  0
  -27.6780  -24.4605   23.9330 H   0  0  0  0  0  0
  -20.1479  -25.5611   25.3228 H   0  0  0  0  0  0
  -20.7953  -25.8978   26.8858 H   0  0  0  0  0  0
  -17.9116  -27.8337   26.3981 H   0  0  0  0  0  0
  -18.2125  -26.8345   25.0683 H   0  0  0  0  0  0
  -28.6737  -16.2684   19.5931 H   0  0  0  0  0  0
  -27.9321  -15.7223   21.0850 H   0  0  0  0  0  0
  -27.9736  -25.0269   19.6186 H   0  0  0  0  0  0
  -29.2696  -25.6815   18.5898 H   0  0  0  0  0  0
  -26.7369  -26.6021   22.7326 H   0  0  0  0  0  0
  -26.9575  -27.4375   24.2198 H   0  0  0  0  0  0
  -22.5797  -26.8494   24.6377 H   0  0  0  0  0  0
  -22.9790  -26.2758   26.1583 H   0  0  0  0  0  0
  -23.3380  -21.5372   22.9351 H   0  0  0  0  0  0
  -16.8624  -29.0140   24.9203 H   0  0  0  0  0  0
  -30.7177  -16.3256   21.3531 H   0  0  0  0  0  0
  1 25  1  0  0  0
  1 30  2  0  0  0
  1 97  1  0  0  0
  2  3  1  0  0  0
  2 25  1  0  0  0
  2102  1  0  0  0
  2103  1  0  0  0
  3  4  1  0  0  0
  3104  1  0  0  0
  3105  1  0  0  0
  4  5  1  0  0  0
  4106  1  0  0  0
  4107  1  0  0  0
  5  6  1  0  0  0
  5 26  1  0  0  0
  5108  1  0  0  0
  6 25  1  0  0  0
  6109  1  0  0  0
  6110  1  0  0  0
  7  8  2  0  0  0
  7 26  1  0  0  0
  7 29  1  0  0  0
  8  9  1  0  0  0
  8 22  1  0  0  0
  9 10  1  0  0  0
  9 27  2  0  0  0
 10 11  2  0  0  0
 10 15  1  0  0  0
 11 12  1  0  0  0
 11111  1  0  0  0
 12 13  2  0  0  0
 12112  1  0  0  0
 13 14  1  0  0  0
 13 31  1  0  0  0
 14 15  2  0  0  0
 14113  1  0  0  0
 15114  1  0  0  0
 16 17  2  0  0  0
 16 21  1  0  0  0
 16 31  1  0  0  0
 17 18  1  0  0  0
 17115  1  0  0  0
 18 19  2  0  0  0
 18116  1  0  0  0
 19 20  1  0  0  0
 19 24  1  0  0  0
 20 21  2  0  0  0
 20117  1  0  0  0
 21 23  1  0  0  0
 22 28  1  0  0  0
 22 32  2  0  0  0
 26 27  1  0  0  0
 28118  1  0  0  0
 28119  1  0  0  0
 29120  1  0  0  0
 29121  1  0  0  0
 33 34  1  0  0  0
 33 66  1  0  0  0
 33 70  2  0  0  0
 34 36  1  0  0  0
 34 59  1  0  0  0
 34122  1  0  0  0
 35 44  2  0  0  0
 35 45  1  0  0  0
 35 68  1  0  0  0
 36 56  1  0  0  0
 36123  1  0  0  0
 37 39  1  0  0  0
 37 47  1  0  0  0
 37 66  1  0  0  0
 37124  1  0  0  0
 38 43  2  0  0  0
 38 46  1  0  0  0
 38 47  1  0  0  0
 39 64  1  0  0  0
 39 67  2  0  0  0
 40 52  1  0  0  0
 40 53  2  0  0  0
 40 58  1  0  0  0
 41125  1  0  0  0
 41126  1  0  0  0
 41127  1  0  0  0
 41 48  1  0  0  0
 42 43  1  0  0  0
 42 66  1  0  0  0
 42128  1  0  0  0
 42129  1  0  0  0
 43 44  1  0  0  0
 44130  1  0  0  0
 45 46  2  0  0  0
 45131  1  0  0  0
 46132  1  0  0  0
 47133  1  0  0  0
 47134  1  0  0  0
 48 56  1  0  0  0
 48 65  1  0  0  0
 48135  1  0  0  0
 49 50  1  0  0  0
 49 53  1  0  0  0
 49 64  1  0  0  0
 49136  1  0  0  0
 50 51  1  0  0  0
 50137  1  0  0  0
 50138  1  0  0  0
 51 52  1  0  0  0
 51139  1  0  0  0
 51140  1  0  0  0
 52141  1  0  0  0
 52142  1  0  0  0
 53 54  1  0  0  0
 54 55  2  0  0  0
 54143  1  0  0  0
 55 57  1  0  0  0
 55144  1  0  0  0
 56 69  2  0  0  0
 57 58  2  0  0  0
 57145  1  0  0  0
 58146  1  0  0  0
 59 60  1  0  0  0
 59 61  1  0  0  0
 59 62  1  0  0  0
 60147  1  0  0  0
 60148  1  0  0  0
 60149  1  0  0  0
 61150  1  0  0  0
 61151  1  0  0  0
 61152  1  0  0  0
 62153  1  0  0  0
 62154  1  0  0  0
 62155  1  0  0  0
 63 65  1  0  0  0
 63156  1  0  0  0
 63157  1  0  0  0
 63158  1  0  0  0
 64159  1  0  0  0
 65160  1  0  0  0
 68 92  1  0  0  0
 71 72  2  0  0  0
 71 73  1  0  0  0
 71161  1  0  0  0
 72 74  1  0  0  0
 72162  1  0  0  0
 73 75  2  0  0  0
 73163  1  0  0  0
 74 76  2  0  0  0
 74 95  1  0  0  0
 75 76  1  0  0  0
 75100  1  0  0  0
 76101  1  0  0  0
 77 79  1  0  0  0
 77 96  1  0  0  0
 77 98  2  0  0  0
 78 80  1  0  0  0
 78 95  1  0  0  0
 78 99  2  0  0  0
 79164  1  0  0  0
 79165  1  0  0  0
 79166  1  0  0  0
 80 81  1  0  0  0
 80167  1  0  0  0
 80168  1  0  0  0
 81 82  1  0  0  0
 81169  1  0  0  0
 81170  1  0  0  0
 82 85  1  0  0  0
 82171  1  0  0  0
 82172  1  0  0  0
 83 84  1  0  0  0
 83 87  1  0  0  0
 83173  1  0  0  0
 83174  1  0  0  0
 84 88  1  0  0  0
 84175  1  0  0  0
 84176  1  0  0  0
 85 91  1  0  0  0
 85177  1  0  0  0
 85178  1  0  0  0
 86 89  1  0  0  0
 86 90  1  0  0  0
 86179  1  0  0  0
 86180  1  0  0  0
 87 92  1  0  0  0
 87181  1  0  0  0
 87182  1  0  0  0
 88 93  1  0  0  0
 88183  1  0  0  0
 88184  1  0  0  0
 89 94  1  0  0  0
 89185  1  0  0  0
 89186  1  0  0  0
 90 96  1  0  0  0
 90187  1  0  0  0
 90188  1  0  0  0
 91 97  1  0  0  0
 91189  1  0  0  0
 91190  1  0  0  0
 92191  1  0  0  0
 92192  1  0  0  0
 93100  1  0  0  0
 93193  1  0  0  0
 93194  1  0  0  0
 94101  1  0  0  0
 94195  1  0  0  0
 94196  1  0  0  0
 95197  1  0  0  0
 96198  1  0  0  0
 97199  1  0  0  0
M  ISO  4   1 100  68 101  92 101  97 100
M  END
> <chiral flag>
0

> <version>
0

> <s_m_source_file>
/data/baiqing/PycharmProjects/Reinvent-master-3.2/result/LINK_invent/BTK/process_docking_weight1_custom_sum_contain_oxygen_bond_distance_aromatic_linkinvent_7_9_3/rearranged_h_0005.sdf

> <i_m_source_file_index>
68

> <r_mmod_Potential_Energy-OPLS-2005>
10104.3662109375

> <r_mmod_Stretch_Energy-OPLS-2005>
6241.9169921875

> <r_mmod_Bend_Energy-OPLS-2005>
432.2705078125

> <r_mmod_Torsional_Energy-OPLS-2005>
613.730041503906

> <r_mmod_Improper_Torsional_Energy-OPLS-2005>
24.376766204834

> <r_mmod_Van_der_Waal_Energy-OPLS-2005>
3226.4892578125

> <r_mmod_Electrostatic_Energy-OPLS-2005>
-489.393737792969

> <r_mmod_Solvation_Energy-OPLS-2005>
-233.839416503906

> <b_mmod_Minimization_Converged-OPLS-2005>
0

> <r_mmod_RMS_Derivative-OPLS-2005>
29.1553688049316

$$$$
68
                    3D
 Structure written by MMmdl.
174182  0  0  1  0            999 V2000
  -30.8119  -14.2954   20.7534 C   0  0  0  0  0  0
  -30.4085  -12.2894   19.3733 C   0  0  0  0  0  0
  -29.4723  -12.5440   18.1805 C   0  0  0  0  0  0
  -28.0009  -12.3875   18.6026 C   0  0  0  0  0  0
  -27.6646  -13.2015   19.8774 C   0  0  2  0  0  0
  -28.7013  -12.9348   20.9900 C   0  0  0  0  0  0
  -25.2597  -13.8153   20.5670 C   0  0  0  0  0  0
  -24.1833  -13.0440   20.9155 C   0  0  0  0  0  0
  -24.6377  -11.6904   20.8715 C   0  0  0  0  0  0
  -23.9042  -10.4292   21.0396 C   0  0  0  0  0  0
  -24.3600   -9.4213   21.9177 C   0  0  0  0  0  0
  -23.6280   -8.2243   22.0751 C   0  0  0  0  0  0
  -22.4265   -8.0278   21.3541 C   0  0  0  0  0  0
  -21.9892   -9.0246   20.4645 C   0  0  0  0  0  0
  -22.7216  -10.2130   20.3050 C   0  0  0  0  0  0
  -21.6849   -6.0735   22.5273 C   0  0  0  0  0  0
  -21.4012   -6.5637   23.8211 C   0  0  0  0  0  0
  -21.3661   -5.6795   24.9170 C   0  0  0  0  0  0
  -21.6042   -4.3054   24.7223 C   0  0  0  0  0  0
  -21.8818   -3.8146   23.4342 C   0  0  0  0  0  0
  -21.9192   -4.6959   22.3401 C   0  0  0  0  0  0
  -22.7860  -13.5243   21.1840 C   0  0  0  0  0  0
  -22.1660   -4.2146   21.0976 F   0  0  0  0  0  0
  -21.5631   -3.4540   25.7737 F   0  0  0  0  0  0
  -30.0508  -13.2116   20.4593 N   0  0  0  0  0  0
  -26.3028  -12.9316   20.3369 N   0  0  0  0  0  0
  -25.9298  -11.6478   20.5743 N   0  0  0  0  0  0
  -22.0505  -12.8238   22.0408 N   0  0  0  0  0  0
  -25.4366  -15.1868   20.4095 N   0  0  0  0  0  0
  -31.7543  -14.6626   20.0443 O   0  0  0  0  0  0
  -21.6634   -6.8869   21.4236 O   0  0  0  0  0  0
  -22.3550  -14.5566   20.6715 O   0  0  0  0  0  0
  -24.6101  -31.8705   23.2114 C   0  0  0  0  0  0
  -25.9007  -32.4837   23.8396 C   0  0  1  0  0  0
  -27.2309  -27.4569   20.0929 C   0  0  0  0  0  0
  -25.5881  -33.8634   24.2327 N   0  0  0  0  0  0
  -23.3967  -30.4969   21.5491 C   0  0  2  0  0  0
  -24.8397  -28.9642   20.1162 C   0  0  0  0  0  0
  -22.7390  -29.4675   22.4964 C   0  0  0  0  0  0
  -18.0281  -28.1387   22.8475 C   0  0  0  0  0  0
  -24.1493  -36.7313   23.2648 C   0  0  0  0  0  0
  -25.9232  -30.8426   21.3603 C   0  0  0  0  0  0
  -25.9966  -29.4775   20.7118 C   0  0  0  0  0  0
  -27.1925  -28.7304   20.6977 C   0  0  0  0  0  0
  -26.0568  -26.9530   19.4864 C   0  0  0  0  0  0
  -24.8630  -27.6988   19.5052 C   0  0  0  0  0  0
  -23.6030  -29.8318   20.1620 C   0  0  0  0  0  0
  -25.4114  -36.3130   24.0352 C   0  0  1  0  0  0
  -20.5861  -28.3669   23.1304 C   0  0  2  0  0  0
  -20.6775  -26.9401   22.5415 C   0  0  0  0  0  0
  -19.5766  -26.6372   21.5221 C   0  0  0  0  0  0
  -18.1936  -26.7931   22.1613 C   0  0  0  0  0  0
  -19.1529  -28.8838   23.2895 C   0  0  0  0  0  0
  -18.9467  -30.1438   23.8914 C   0  0  0  0  0  0
  -17.6475  -30.6584   24.0566 C   0  0  0  0  0  0
  -25.9032  -34.9492   23.5143 C   0  0  0  0  0  0
  -16.5357  -29.9096   23.6324 C   0  0  0  0  0  0
  -16.7273  -28.6519   23.0323 C   0  0  0  0  0  0
  -26.4443  -31.6611   25.0708 C   0  0  0  0  0  0
  -25.3720  -31.3711   26.1467 C   0  0  0  0  0  0
  -27.0266  -30.3069   24.6028 C   0  0  0  0  0  0
  -27.6030  -32.4313   25.7466 C   0  0  0  0  0  0
  -27.5593  -37.1805   24.8471 C   0  0  0  0  0  0
  -21.4118  -29.3054   22.3717 N   0  0  0  0  0  0
  -26.4307  -37.3805   23.9416 N   0  0  0  0  0  0
  -24.6618  -31.0839   22.0995 N   0  0  0  0  0  0
  -23.4175  -28.8197   23.2985 O   0  0  0  0  0  0
  -28.4400  -26.8008   20.0746 O   0  0  0  0  0  0
  -26.5603  -34.8943   22.4708 O   0  0  0  0  0  0
  -23.5303  -32.1448   23.7522 O   0  0  0  0  0  0
  -32.3676  -16.4984   22.2955 C   0  0  0  0  0  0
  -33.0455  -17.3632   23.1703 C   0  0  0  0  0  0
  -30.8327  -15.9143   24.0876 C   0  0  0  0  0  0
  -31.4952  -16.7992   24.9664 C   0  0  0  0  0  0
  -31.2562  -15.7541   22.7509 C   0  0  0  0  0  0
  -32.6210  -17.5311   24.5047 C   0  0  0  0  0  0
  -30.4207  -23.1958   22.6946 C   0  0  0  0  0  0
  -30.9672  -16.9343   26.3862 C   0  0  0  0  0  0
  -33.9773  -17.8941   26.4901 C   0  0  0  0  0  0
  -32.1005  -21.7974   21.4902 C   0  0  0  0  0  0
  -29.8967  -23.7044   21.3424 C   0  0  0  0  0  0
  -28.8609  -24.8401   21.4318 C   0  0  0  0  0  0
  -32.3771  -20.3669   23.9852 C   0  0  0  0  0  0
  -32.8520  -19.8295   25.3476 C   0  0  0  0  0  0
  -32.0766  -21.8772   23.9766 C   0  0  0  0  0  0
  -28.4919  -25.3779   20.0391 C   0  0  0  0  0  0
  -30.5232  -14.8374   21.9478 N   0  0  0  0  0  0
  -33.3348  -18.4455   25.3009 N   0  0  0  0  0  0
  -31.4692  -22.3323   22.7091 N   0  0  0  0  0  0
  -29.8818  -23.6021   23.7291 O   0  0  0  0  0  0
  -31.4500  -12.3934   19.0649 H   0  0  0  0  0  0
  -30.3063  -11.2603   19.7214 H   0  0  0  0  0  0
  -29.7017  -11.8561   17.3655 H   0  0  0  0  0  0
  -29.6370  -13.5493   17.7903 H   0  0  0  0  0  0
  -27.8120  -11.3275   18.7786 H   0  0  0  0  0  0
  -27.3413  -12.6832   17.7858 H   0  0  0  0  0  0
  -27.7266  -14.2569   19.6108 H   0  0  0  0  0  0
  -28.6532  -11.8922   21.3077 H   0  0  0  0  0  0
  -28.4399  -13.5190   21.8722 H   0  0  0  0  0  0
  -25.2742   -9.5691   22.4756 H   0  0  0  0  0  0
  -23.9988   -7.4634   22.7471 H   0  0  0  0  0  0
  -21.0823   -8.8756   19.8957 H   0  0  0  0  0  0
  -22.3662  -10.9665   19.6161 H   0  0  0  0  0  0
  -21.2001   -7.6147   23.9708 H   0  0  0  0  0  0
  -21.1486   -6.0527   25.9074 H   0  0  0  0  0  0
  -22.0598   -2.7607   23.2843 H   0  0  0  0  0  0
  -22.4108  -11.9868   22.4756 H   0  0  0  0  0  0
  -21.1141  -13.1292   22.2664 H   0  0  0  0  0  0
  -24.6788  -15.8524   20.5171 H   0  0  0  0  0  0
  -26.3056  -15.6193   20.1193 H   0  0  0  0  0  0
  -26.7074  -32.5539   23.1156 H   0  0  0  0  0  0
  -25.0018  -33.9793   25.0465 H   0  0  0  0  0  0
  -22.6852  -31.3142   21.4100 H   0  0  0  0  0  0
  -23.3769  -35.9634   23.3317 H   0  0  0  0  0  0
  -24.3602  -36.8916   22.2067 H   0  0  0  0  0  0
  -23.7230  -37.6515   23.6634 H   0  0  0  0  0  0
  -26.0330  -31.6049   20.5885 H   0  0  0  0  0  0
  -26.8138  -30.8949   21.9737 H   0  0  0  0  0  0
  -28.0913  -29.1281   21.1488 H   0  0  0  0  0  0
  -26.0384  -26.0074   18.9665 H   0  0  0  0  0  0
  -23.9749  -27.3016   19.0351 H   0  0  0  0  0  0
  -23.7135  -30.6077   19.4028 H   0  0  0  0  0  0
  -22.7245  -29.2570   19.8622 H   0  0  0  0  0  0
  -25.1286  -36.2018   25.0845 H   0  0  0  0  0  0
  -20.9958  -28.3241   24.1421 H   0  0  0  0  0  0
  -20.5716  -26.2262   23.3593 H   0  0  0  0  0  0
  -21.6636  -26.7463   22.1191 H   0  0  0  0  0  0
  -19.6935  -25.6298   21.1224 H   0  0  0  0  0  0
  -19.6719  -27.3200   20.6771 H   0  0  0  0  0  0
  -17.4205  -26.6679   21.4008 H   0  0  0  0  0  0
  -18.0327  -26.0092   22.9018 H   0  0  0  0  0  0
  -19.7956  -30.7237   24.2275 H   0  0  0  0  0  0
  -17.5049  -31.6273   24.5161 H   0  0  0  0  0  0
  -15.5367  -30.3014   23.7654 H   0  0  0  0  0  0
  -15.8664  -28.0865   22.7004 H   0  0  0  0  0  0
  -24.5884  -30.7063   25.7814 H   0  0  0  0  0  0
  -24.8916  -32.2869   26.4921 H   0  0  0  0  0  0
  -25.8082  -30.8880   27.0224 H   0  0  0  0  0  0
  -26.2791  -29.6852   24.1077 H   0  0  0  0  0  0
  -27.4097  -29.7258   25.4432 H   0  0  0  0  0  0
  -27.8591  -30.4427   23.9117 H   0  0  0  0  0  0
  -27.2651  -33.3603   26.2062 H   0  0  0  0  0  0
  -28.3816  -32.6889   25.0273 H   0  0  0  0  0  0
  -28.0697  -31.8416   26.5366 H   0  0  0  0  0  0
  -28.2597  -38.0115   24.7519 H   0  0  0  0  0  0
  -28.1097  -36.2633   24.6281 H   0  0  0  0  0  0
  -27.2297  -37.1453   25.8874 H   0  0  0  0  0  0
  -20.9258  -29.8823   21.6978 H   0  0  0  0  0  0
  -26.0212  -38.2888   24.1424 H   0  0  0  0  0  0
  -32.7308  -16.4323   21.2825 H   0  0  0  0  0  0
  -33.8952  -17.9184   22.8001 H   0  0  0  0  0  0
  -29.9852  -15.3501   24.4511 H   0  0  0  0  0  0
  -29.9377  -16.5826   26.4607 H   0  0  0  0  0  0
  -30.9797  -17.9716   26.7191 H   0  0  0  0  0  0
  -31.5754  -16.3413   27.0696 H   0  0  0  0  0  0
  -34.0639  -16.8067   26.4366 H   0  0  0  0  0  0
  -33.4224  -18.1467   27.3951 H   0  0  0  0  0  0
  -34.9860  -18.2979   26.5939 H   0  0  0  0  0  0
  -31.9748  -22.3980   20.5930 H   0  0  0  0  0  0
  -31.6945  -20.8096   21.2663 H   0  0  0  0  0  0
  -33.1783  -21.7001   21.6256 H   0  0  0  0  0  0
  -29.4920  -22.8646   20.7757 H   0  0  0  0  0  0
  -30.7447  -24.1042   20.7889 H   0  0  0  0  0  0
  -29.2797  -25.6437   22.0401 H   0  0  0  0  0  0
  -27.9600  -24.5089   21.9490 H   0  0  0  0  0  0
  -31.4828  -19.8274   23.6690 H   0  0  0  0  0  0
  -33.1527  -20.1558   23.2506 H   0  0  0  0  0  0
  -32.0460  -19.9164   26.0782 H   0  0  0  0  0  0
  -33.6649  -20.4593   25.7150 H   0  0  0  0  0  0
  -32.9959  -22.4403   24.1452 H   0  0  0  0  0  0
  -31.4356  -22.0976   24.8314 H   0  0  0  0  0  0
  -27.6032  -24.8714   19.6712 H   0  0  0  0  0  0
  -29.2766  -25.1364   19.3224 H   0  0  0  0  0  0
  -29.7321  -14.4034   22.3980 H   0  0  0  0  0  0
  1 25  1  0  0  0
  1 30  2  0  0  0
  1 87  1  0  0  0
  2  3  1  0  0  0
  2 25  1  0  0  0
  2 91  1  0  0  0
  2 92  1  0  0  0
  3  4  1  0  0  0
  3 93  1  0  0  0
  3 94  1  0  0  0
  4  5  1  0  0  0
  4 95  1  0  0  0
  4 96  1  0  0  0
  5  6  1  0  0  0
  5 26  1  0  0  0
  5 97  1  0  0  0
  6 25  1  0  0  0
  6 98  1  0  0  0
  6 99  1  0  0  0
  7  8  2  0  0  0
  7 26  1  0  0  0
  7 29  1  0  0  0
  8  9  1  0  0  0
  8 22  1  0  0  0
  9 10  1  0  0  0
  9 27  2  0  0  0
 10 11  2  0  0  0
 10 15  1  0  0  0
 11 12  1  0  0  0
 11100  1  0  0  0
 12 13  2  0  0  0
 12101  1  0  0  0
 13 14  1  0  0  0
 13 31  1  0  0  0
 14 15  2  0  0  0
 14102  1  0  0  0
 15103  1  0  0  0
 16 17  2  0  0  0
 16 21  1  0  0  0
 16 31  1  0  0  0
 17 18  1  0  0  0
 17104  1  0  0  0
 18 19  2  0  0  0
 18105  1  0  0  0
 19 20  1  0  0  0
 19 24  1  0  0  0
 20 21  2  0  0  0
 20106  1  0  0  0
 21 23  1  0  0  0
 22 28  1  0  0  0
 22 32  2  0  0  0
 26 27  1  0  0  0
 28107  1  0  0  0
 28108  1  0  0  0
 29109  1  0  0  0
 29110  1  0  0  0
 33 34  1  0  0  0
 33 66  1  0  0  0
 33 70  2  0  0  0
 34 36  1  0  0  0
 34 59  1  0  0  0
 34111  1  0  0  0
 35 44  2  0  0  0
 35 45  1  0  0  0
 35 68  1  0  0  0
 36 56  1  0  0  0
 36112  1  0  0  0
 37 39  1  0  0  0
 37 47  1  0  0  0
 37 66  1  0  0  0
 37113  1  0  0  0
 38 43  2  0  0  0
 38 46  1  0  0  0
 38 47  1  0  0  0
 39 64  1  0  0  0
 39 67  2  0  0  0
 40 52  1  0  0  0
 40 53  2  0  0  0
 40 58  1  0  0  0
 41114  1  0  0  0
 41115  1  0  0  0
 41116  1  0  0  0
 41 48  1  0  0  0
 42 43  1  0  0  0
 42 66  1  0  0  0
 42117  1  0  0  0
 42118  1  0  0  0
 43 44  1  0  0  0
 44119  1  0  0  0
 45 46  2  0  0  0
 45120  1  0  0  0
 46121  1  0  0  0
 47122  1  0  0  0
 47123  1  0  0  0
 48 56  1  0  0  0
 48 65  1  0  0  0
 48124  1  0  0  0
 49 50  1  0  0  0
 49 53  1  0  0  0
 49 64  1  0  0  0
 49125  1  0  0  0
 50 51  1  0  0  0
 50126  1  0  0  0
 50127  1  0  0  0
 51 52  1  0  0  0
 51128  1  0  0  0
 51129  1  0  0  0
 52130  1  0  0  0
 52131  1  0  0  0
 53 54  1  0  0  0
 54 55  2  0  0  0
 54132  1  0  0  0
 55 57  1  0  0  0
 55133  1  0  0  0
 56 69  2  0  0  0
 57 58  2  0  0  0
 57134  1  0  0  0
 58135  1  0  0  0
 59 60  1  0  0  0
 59 61  1  0  0  0
 59 62  1  0  0  0
 60136  1  0  0  0
 60137  1  0  0  0
 60138  1  0  0  0
 61139  1  0  0  0
 61140  1  0  0  0
 61141  1  0  0  0
 62142  1  0  0  0
 62143  1  0  0  0
 62144  1  0  0  0
 63 65  1  0  0  0
 63145  1  0  0  0
 63146  1  0  0  0
 63147  1  0  0  0
 64148  1  0  0  0
 65149  1  0  0  0
 68 86  1  0  0  0
 71 72  2  0  0  0
 71 75  1  0  0  0
 71150  1  0  0  0
 72 76  1  0  0  0
 72151  1  0  0  0
 73 74  1  0  0  0
 73 75  2  0  0  0
 73152  1  0  0  0
 74 76  2  0  0  0
 74 78  1  0  0  0
 75 87  1  0  0  0
 76 88  1  0  0  0
 77 81  1  0  0  0
 77 89  1  0  0  0
 77 90  2  0  0  0
 78153  1  0  0  0
 78154  1  0  0  0
 78155  1  0  0  0
 79 88  1  0  0  0
 79156  1  0  0  0
 79157  1  0  0  0
 79158  1  0  0  0
 80 89  1  0  0  0
 80159  1  0  0  0
 80160  1  0  0  0
 80161  1  0  0  0
 81 82  1  0  0  0
 81162  1  0  0  0
 81163  1  0  0  0
 82 86  1  0  0  0
 82164  1  0  0  0
 82165  1  0  0  0
 83 84  1  0  0  0
 83 85  1  0  0  0
 83166  1  0  0  0
 83167  1  0  0  0
 84 88  1  0  0  0
 84168  1  0  0  0
 84169  1  0  0  0
 85 89  1  0  0  0
 85170  1  0  0  0
 85171  1  0  0  0
 86172  1  0  0  0
 86173  1  0  0  0
 87174  1  0  0  0
M  ISO  4   1 100  68 101  86 101  87 100
M  END
> <chiral flag>
0

> <version>
0

> <s_m_source_file>
/data/baiqing/PycharmProjects/Reinvent-master-3.2/result/LINK_invent/BTK/process_docking_weight1_custom_sum_contain_oxygen_bond_distance_aromatic_linkinvent_7_9_3/rearranged_h_0005.sdf

> <i_m_source_file_index>
69

> <r_mmod_Potential_Energy-OPLS-2005>
-68.4612350463867

> <r_mmod_Stretch_Energy-OPLS-2005>
36.3248825073242

> <r_mmod_Bend_Energy-OPLS-2005>
119.728874206543

> <r_mmod_Torsional_Energy-OPLS-2005>
261.844848632812

> <r_mmod_Improper_Torsional_Energy-OPLS-2005>
5.22483253479004

> <r_mmod_Van_der_Waal_Energy-OPLS-2005>
187.311645507812

> <r_mmod_Electrostatic_Energy-OPLS-2005>
-441.228393554688

> <r_mmod_Solvation_Energy-OPLS-2005>
-246.861221313477

> <b_mmod_Minimization_Converged-OPLS-2005>
0

> <r_mmod_RMS_Derivative-OPLS-2005>
2.29110956192017

$$$$
69
                    3D
 Structure written by MMmdl.
173181  0  0  1  0            999 V2000
  -30.6977  -14.4267   20.5949 C   0  0  0  0  0  0
  -30.4203  -12.2908   19.4161 C   0  0  0  0  0  0
  -29.4875  -12.5073   18.2054 C   0  0  0  0  0  0
  -28.0096  -12.3677   18.6176 C   0  0  0  0  0  0
  -27.6624  -13.1947   19.8816 C   0  0  2  0  0  0
  -28.6971  -12.9448   21.0014 C   0  0  0  0  0  0
  -25.2594  -13.8158   20.5663 C   0  0  0  0  0  0
  -24.1829  -13.0456   20.9169 C   0  0  0  0  0  0
  -24.6362  -11.6928   20.8759 C   0  0  0  0  0  0
  -23.9032  -10.4330   21.0435 C   0  0  0  0  0  0
  -24.3600   -9.4244   21.9197 C   0  0  0  0  0  0
  -23.6318   -8.2240   22.0714 C   0  0  0  0  0  0
  -22.4291   -8.0283   21.3509 C   0  0  0  0  0  0
  -21.9924   -9.0262   20.4618 C   0  0  0  0  0  0
  -22.7222  -10.2166   20.3062 C   0  0  0  0  0  0
  -21.6846   -6.0776   22.5301 C   0  0  0  0  0  0
  -21.4010   -6.5659   23.8248 C   0  0  0  0  0  0
  -21.3654   -5.6779   24.9191 C   0  0  0  0  0  0
  -21.6041   -4.3045   24.7213 C   0  0  0  0  0  0
  -21.8832   -3.8179   23.4320 C   0  0  0  0  0  0
  -21.9165   -4.7011   22.3407 C   0  0  0  0  0  0
  -22.7852  -13.5287   21.1861 C   0  0  0  0  0  0
  -22.1632   -4.2200   21.0973 F   0  0  0  0  0  0
  -21.5597   -3.4522   25.7718 F   0  0  0  0  0  0
  -30.0380  -13.2462   20.4644 N   0  0  0  0  0  0
  -26.3007  -12.9296   20.3368 N   0  0  0  0  0  0
  -25.9275  -11.6477   20.5759 N   0  0  0  0  0  0
  -22.0495  -12.8282   22.0441 N   0  0  0  0  0  0
  -25.4269  -15.1878   20.4053 N   0  0  0  0  0  0
  -31.7976  -14.6519   20.0809 O   0  0  0  0  0  0
  -21.6616   -6.8919   21.4255 O   0  0  0  0  0  0
  -22.3600  -14.5635   20.6745 O   0  0  0  0  0  0
  -24.6146  -31.8693   23.2121 C   0  0  0  0  0  0
  -25.9067  -32.4831   23.8416 C   0  0  1  0  0  0
  -27.2265  -27.4614   20.0383 C   0  0  0  0  0  0
  -25.5929  -33.8618   24.2345 N   0  0  0  0  0  0
  -23.3991  -30.4961   21.5559 C   0  0  2  0  0  0
  -24.8392  -28.9634   20.1253 C   0  0  0  0  0  0
  -22.7402  -29.4695   22.5019 C   0  0  0  0  0  0
  -18.0267  -28.1365   22.8481 C   0  0  0  0  0  0
  -24.1484  -36.7311   23.2634 C   0  0  0  0  0  0
  -25.9318  -30.8388   21.3629 C   0  0  0  0  0  0
  -26.0061  -29.4767   20.7031 C   0  0  0  0  0  0
  -27.2092  -28.7320   20.6554 C   0  0  0  0  0  0
  -26.0189  -26.9276   19.5395 C   0  0  0  0  0  0
  -24.8350  -27.6811   19.5522 C   0  0  0  0  0  0
  -23.6074  -29.8356   20.1702 C   0  0  0  0  0  0
  -25.4114  -36.3114   24.0343 C   0  0  1  0  0  0
  -20.5852  -28.3666   23.1338 C   0  0  2  0  0  0
  -20.6769  -26.9412   22.5417 C   0  0  0  0  0  0
  -19.5751  -26.6389   21.5210 C   0  0  0  0  0  0
  -18.1924  -26.7922   22.1612 C   0  0  0  0  0  0
  -19.1509  -28.8831   23.2892 C   0  0  0  0  0  0
  -18.9444  -30.1436   23.8905 C   0  0  0  0  0  0
  -17.6440  -30.6573   24.0564 C   0  0  0  0  0  0
  -25.9037  -34.9476   23.5140 C   0  0  0  0  0  0
  -16.5335  -29.9085   23.6320 C   0  0  0  0  0  0
  -16.7255  -28.6498   23.0353 C   0  0  0  0  0  0
  -26.4479  -31.6602   25.0732 C   0  0  0  0  0  0
  -25.3749  -31.3735   26.1493 C   0  0  0  0  0  0
  -27.0310  -30.3038   24.6118 C   0  0  0  0  0  0
  -27.6058  -32.4326   25.7488 C   0  0  0  0  0  0
  -27.5593  -37.1814   24.8466 C   0  0  0  0  0  0
  -21.4121  -29.3042   22.3749 N   0  0  0  0  0  0
  -26.4301  -37.3809   23.9408 N   0  0  0  0  0  0
  -24.6673  -31.0841   22.1015 N   0  0  0  0  0  0
  -23.4182  -28.8231   23.3056 O   0  0  0  0  0  0
  -28.3940  -26.7390   19.9407 O   0  0  0  0  0  0
  -26.5577  -34.8931   22.4673 O   0  0  0  0  0  0
  -23.5345  -32.1439   23.7523 O   0  0  0  0  0  0
  -30.2331  -17.2634   19.6250 C   0  0  0  0  0  0
  -29.6440  -18.3733   18.9802 C   0  0  0  0  0  0
  -28.2580  -17.0372   21.0351 C   0  0  0  0  0  0
  -29.5271  -16.5670   20.6370 C   0  0  0  0  0  0
  -28.3365  -18.7773   19.3194 C   0  0  0  0  0  0
  -27.6604  -18.1277   20.3754 C   0  0  0  0  0  0
  -25.9275  -23.4984   15.8311 C   0  0  0  0  0  0
  -24.3251  -22.0113   14.8203 C   0  0  0  0  0  0
  -27.1164  -23.7780   14.9039 C   0  0  0  0  0  0
  -27.9338  -25.0646   15.1787 C   0  0  0  0  0  0
  -28.8334  -25.0786   16.4415 C   0  0  0  0  0  0
  -28.1197  -25.5450   17.7267 C   0  0  0  0  0  0
  -26.3881  -20.1349   16.5561 C   0  0  0  0  0  0
  -25.5178  -21.3540   16.9196 C   0  0  0  0  0  0
  -28.9067  -26.5482   18.6068 C   0  0  0  0  0  0
  -26.6937  -19.2075   17.7386 C   0  0  0  0  0  0
  -30.0135  -15.3776   21.2515 N   0  0  0  0  0  0
  -25.4083  -22.2621   15.7721 N   0  0  0  0  0  0
  -25.4791  -24.3576   16.5915 O   0  0  0  0  0  0
  -27.7199  -19.7469   18.5693 O   0  0  0  0  0  0
  -26.4168  -18.5264   20.7364 F   0  0  0  0  0  0
  -31.4611  -12.4076   19.1121 H   0  0  0  0  0  0
  -30.3304  -11.2716   19.7918 H   0  0  0  0  0  0
  -29.7285  -11.7864   17.4227 H   0  0  0  0  0  0
  -29.6584  -13.4944   17.7777 H   0  0  0  0  0  0
  -27.8100  -11.3097   18.7917 H   0  0  0  0  0  0
  -27.3600  -12.6585   17.7920 H   0  0  0  0  0  0
  -27.7181  -14.2440   19.6001 H   0  0  0  0  0  0
  -28.6526  -11.9036   21.3222 H   0  0  0  0  0  0
  -28.4486  -13.5274   21.8883 H   0  0  0  0  0  0
  -25.2719   -9.5721   22.4804 H   0  0  0  0  0  0
  -24.0046   -7.4592   22.7385 H   0  0  0  0  0  0
  -21.0862   -8.8775   19.8907 H   0  0  0  0  0  0
  -22.3667  -10.9708   19.6183 H   0  0  0  0  0  0
  -21.2040   -7.6173   23.9778 H   0  0  0  0  0  0
  -21.1434   -6.0496   25.9101 H   0  0  0  0  0  0
  -22.0625   -2.7653   23.2791 H   0  0  0  0  0  0
  -22.4089  -11.9978   22.4890 H   0  0  0  0  0  0
  -21.1082  -13.1250   22.2616 H   0  0  0  0  0  0
  -24.6647  -15.8457   20.5360 H   0  0  0  0  0  0
  -26.2783  -15.6303   20.0852 H   0  0  0  0  0  0
  -26.7139  -32.5550   23.1178 H   0  0  0  0  0  0
  -25.0133  -33.9784   25.0525 H   0  0  0  0  0  0
  -22.6872  -31.3121   21.4218 H   0  0  0  0  0  0
  -23.3754  -35.9639   23.3283 H   0  0  0  0  0  0
  -24.3596  -36.8914   22.2055 H   0  0  0  0  0  0
  -23.7231  -37.6508   23.6649 H   0  0  0  0  0  0
  -26.0512  -31.6164   20.6087 H   0  0  0  0  0  0
  -26.8163  -30.8787   21.9872 H   0  0  0  0  0  0
  -28.1211  -29.1395   21.0671 H   0  0  0  0  0  0
  -25.9691  -25.9242   19.1449 H   0  0  0  0  0  0
  -23.9273  -27.2632   19.1432 H   0  0  0  0  0  0
  -23.7288  -30.6107   19.4138 H   0  0  0  0  0  0
  -22.7289  -29.2653   19.8670 H   0  0  0  0  0  0
  -25.1287  -36.1989   25.0849 H   0  0  0  0  0  0
  -20.9911  -28.3208   24.1466 H   0  0  0  0  0  0
  -20.5673  -26.2262   23.3574 H   0  0  0  0  0  0
  -21.6656  -26.7485   22.1204 H   0  0  0  0  0  0
  -19.6905  -25.6298   21.1241 H   0  0  0  0  0  0
  -19.6694  -27.3206   20.6738 H   0  0  0  0  0  0
  -17.4200  -26.6673   21.4001 H   0  0  0  0  0  0
  -18.0312  -26.0072   22.9004 H   0  0  0  0  0  0
  -19.7925  -30.7233   24.2294 H   0  0  0  0  0  0
  -17.5018  -31.6262   24.5142 H   0  0  0  0  0  0
  -15.5347  -30.2985   23.7632 H   0  0  0  0  0  0
  -15.8662  -28.0808   22.7079 H   0  0  0  0  0  0
  -24.5894  -30.7102   25.7841 H   0  0  0  0  0  0
  -24.8980  -32.2907   26.4968 H   0  0  0  0  0  0
  -25.8113  -30.8883   27.0233 H   0  0  0  0  0  0
  -26.2862  -29.6794   24.1169 H   0  0  0  0  0  0
  -27.4055  -29.7290   25.4599 H   0  0  0  0  0  0
  -27.8701  -30.4326   23.9279 H   0  0  0  0  0  0
  -27.2680  -33.3619   26.2092 H   0  0  0  0  0  0
  -28.3861  -32.6900   25.0309 H   0  0  0  0  0  0
  -28.0736  -31.8432   26.5389 H   0  0  0  0  0  0
  -28.2603  -38.0111   24.7527 H   0  0  0  0  0  0
  -28.1089  -36.2652   24.6270 H   0  0  0  0  0  0
  -27.2312  -37.1427   25.8862 H   0  0  0  0  0  0
  -20.9271  -29.8771   21.6979 H   0  0  0  0  0  0
  -26.0177  -38.2872   24.1434 H   0  0  0  0  0  0
  -31.2129  -16.9454   19.2984 H   0  0  0  0  0  0
  -30.1792  -18.8777   18.1883 H   0  0  0  0  0  0
  -27.6995  -16.5343   21.8135 H   0  0  0  0  0  0
  -23.6945  -22.8933   14.6917 H   0  0  0  0  0  0
  -23.6761  -21.1980   15.1438 H   0  0  0  0  0  0
  -24.7246  -21.7464   13.8405 H   0  0  0  0  0  0
  -26.7152  -23.8269   13.8913 H   0  0  0  0  0  0
  -27.7796  -22.9141   14.9166 H   0  0  0  0  0  0
  -27.2737  -25.9348   15.1669 H   0  0  0  0  0  0
  -28.5878  -25.2069   14.3172 H   0  0  0  0  0  0
  -29.6649  -25.7555   16.2373 H   0  0  0  0  0  0
  -29.2879  -24.0985   16.6037 H   0  0  0  0  0  0
  -27.8301  -24.6718   18.3141 H   0  0  0  0  0  0
  -27.2018  -26.0346   17.4173 H   0  0  0  0  0  0
  -27.3275  -20.4554   16.1028 H   0  0  0  0  0  0
  -25.8681  -19.5516   15.7921 H   0  0  0  0  0  0
  -25.9689  -21.8668   17.7727 H   0  0  0  0  0  0
  -24.5273  -21.0387   17.2526 H   0  0  0  0  0  0
  -28.9615  -27.5106   18.0916 H   0  0  0  0  0  0
  -29.9372  -26.2093   18.7006 H   0  0  0  0  0  0
  -27.0272  -18.2492   17.3324 H   0  0  0  0  0  0
  -25.7918  -19.0097   18.3183 H   0  0  0  0  0  0
  -29.3755  -14.9831   21.9275 H   0  0  0  0  0  0
  1 25  1  0  0  0
  1 30  2  0  0  0
  1 87  1  0  0  0
  2  3  1  0  0  0
  2 25  1  0  0  0
  2 92  1  0  0  0
  2 93  1  0  0  0
  3  4  1  0  0  0
  3 94  1  0  0  0
  3 95  1  0  0  0
  4  5  1  0  0  0
  4 96  1  0  0  0
  4 97  1  0  0  0
  5  6  1  0  0  0
  5 26  1  0  0  0
  5 98  1  0  0  0
  6 25  1  0  0  0
  6 99  1  0  0  0
  6100  1  0  0  0
  7  8  2  0  0  0
  7 26  1  0  0  0
  7 29  1  0  0  0
  8  9  1  0  0  0
  8 22  1  0  0  0
  9 10  1  0  0  0
  9 27  2  0  0  0
 10 11  2  0  0  0
 10 15  1  0  0  0
 11 12  1  0  0  0
 11101  1  0  0  0
 12 13  2  0  0  0
 12102  1  0  0  0
 13 14  1  0  0  0
 13 31  1  0  0  0
 14 15  2  0  0  0
 14103  1  0  0  0
 15104  1  0  0  0
 16 17  2  0  0  0
 16 21  1  0  0  0
 16 31  1  0  0  0
 17 18  1  0  0  0
 17105  1  0  0  0
 18 19  2  0  0  0
 18106  1  0  0  0
 19 20  1  0  0  0
 19 24  1  0  0  0
 20 21  2  0  0  0
 20107  1  0  0  0
 21 23  1  0  0  0
 22 28  1  0  0  0
 22 32  2  0  0  0
 26 27  1  0  0  0
 28108  1  0  0  0
 28109  1  0  0  0
 29110  1  0  0  0
 29111  1  0  0  0
 33 34  1  0  0  0
 33 66  1  0  0  0
 33 70  2  0  0  0
 34 36  1  0  0  0
 34 59  1  0  0  0
 34112  1  0  0  0
 35 44  2  0  0  0
 35 45  1  0  0  0
 35 68  1  0  0  0
 36 56  1  0  0  0
 36113  1  0  0  0
 37 39  1  0  0  0
 37 47  1  0  0  0
 37 66  1  0  0  0
 37114  1  0  0  0
 38 43  2  0  0  0
 38 46  1  0  0  0
 38 47  1  0  0  0
 39 64  1  0  0  0
 39 67  2  0  0  0
 40 52  1  0  0  0
 40 53  2  0  0  0
 40 58  1  0  0  0
 41115  1  0  0  0
 41116  1  0  0  0
 41117  1  0  0  0
 41 48  1  0  0  0
 42 43  1  0  0  0
 42 66  1  0  0  0
 42118  1  0  0  0
 42119  1  0  0  0
 43 44  1  0  0  0
 44120  1  0  0  0
 45 46  2  0  0  0
 45121  1  0  0  0
 46122  1  0  0  0
 47123  1  0  0  0
 47124  1  0  0  0
 48 56  1  0  0  0
 48 65  1  0  0  0
 48125  1  0  0  0
 49 50  1  0  0  0
 49 53  1  0  0  0
 49 64  1  0  0  0
 49126  1  0  0  0
 50 51  1  0  0  0
 50127  1  0  0  0
 50128  1  0  0  0
 51 52  1  0  0  0
 51129  1  0  0  0
 51130  1  0  0  0
 52131  1  0  0  0
 52132  1  0  0  0
 53 54  1  0  0  0
 54 55  2  0  0  0
 54133  1  0  0  0
 55 57  1  0  0  0
 55134  1  0  0  0
 56 69  2  0  0  0
 57 58  2  0  0  0
 57135  1  0  0  0
 58136  1  0  0  0
 59 60  1  0  0  0
 59 61  1  0  0  0
 59 62  1  0  0  0
 60137  1  0  0  0
 60138  1  0  0  0
 60139  1  0  0  0
 61140  1  0  0  0
 61141  1  0  0  0
 61142  1  0  0  0
 62143  1  0  0  0
 62144  1  0  0  0
 62145  1  0  0  0
 63 65  1  0  0  0
 63146  1  0  0  0
 63147  1  0  0  0
 63148  1  0  0  0
 64149  1  0  0  0
 65150  1  0  0  0
 68 85  1  0  0  0
 71 72  2  0  0  0
 71 74  1  0  0  0
 71151  1  0  0  0
 72 75  1  0  0  0
 72152  1  0  0  0
 73 74  2  0  0  0
 73 76  1  0  0  0
 73153  1  0  0  0
 74 87  1  0  0  0
 75 76  2  0  0  0
 75 90  1  0  0  0
 76 91  1  0  0  0
 77 79  1  0  0  0
 77 88  1  0  0  0
 77 89  2  0  0  0
 78 88  1  0  0  0
 78154  1  0  0  0
 78155  1  0  0  0
 78156  1  0  0  0
 79 80  1  0  0  0
 79157  1  0  0  0
 79158  1  0  0  0
 80 81  1  0  0  0
 80159  1  0  0  0
 80160  1  0  0  0
 81 82  1  0  0  0
 81161  1  0  0  0
 81162  1  0  0  0
 82 85  1  0  0  0
 82163  1  0  0  0
 82164  1  0  0  0
 83 84  1  0  0  0
 83 86  1  0  0  0
 83165  1  0  0  0
 83166  1  0  0  0
 84 88  1  0  0  0
 84167  1  0  0  0
 84168  1  0  0  0
 85169  1  0  0  0
 85170  1  0  0  0
 86 90  1  0  0  0
 86171  1  0  0  0
 86172  1  0  0  0
 87173  1  0  0  0
M  ISO  4   1 100  68 101  85 101  87 100
M  END
> <chiral flag>
0

> <version>
0

> <s_m_source_file>
/data/baiqing/PycharmProjects/Reinvent-master-3.2/result/LINK_invent/BTK/process_docking_weight1_custom_sum_contain_oxygen_bond_distance_aromatic_linkinvent_7_9_3/rearranged_h_0005.sdf

> <i_m_source_file_index>
70

> <r_mmod_Potential_Energy-OPLS-2005>
117.675491333008

> <r_mmod_Stretch_Energy-OPLS-2005>
36.2157859802246

> <r_mmod_Bend_Energy-OPLS-2005>
101.826194763184

> <r_mmod_Torsional_Energy-OPLS-2005>
383.546325683594

> <r_mmod_Improper_Torsional_Energy-OPLS-2005>
7.50167465209961

> <r_mmod_Van_der_Waal_Energy-OPLS-2005>
151.835418701172

> <r_mmod_Electrostatic_Energy-OPLS-2005>
-353.461975097656

> <r_mmod_Solvation_Energy-OPLS-2005>
-220.909408569336

> <b_mmod_Minimization_Converged-OPLS-2005>
0

> <r_mmod_RMS_Derivative-OPLS-2005>
4.78323173522949

$$$$
71
                    3D
 Structure written by MMmdl.
178186  0  0  1  0            999 V2000
  -30.7440  -14.3834   20.6504 C   0  0  0  0  0  0
  -30.4242  -12.2856   19.3969 C   0  0  0  0  0  0
  -29.4870  -12.5159   18.1961 C   0  0  0  0  0  0
  -28.0105  -12.3755   18.6141 C   0  0  0  0  0  0
  -27.6683  -13.1988   19.8830 C   0  0  2  0  0  0
  -28.7066  -12.9333   20.9949 C   0  0  0  0  0  0
  -25.2614  -13.8153   20.5693 C   0  0  0  0  0  0
  -24.1850  -13.0452   20.9170 C   0  0  0  0  0  0
  -24.6392  -11.6907   20.8733 C   0  0  0  0  0  0
  -23.9051  -10.4302   21.0406 C   0  0  0  0  0  0
  -24.3609   -9.4214   21.9179 C   0  0  0  0  0  0
  -23.6292   -8.2248   22.0746 C   0  0  0  0  0  0
  -22.4271   -8.0288   21.3543 C   0  0  0  0  0  0
  -21.9905   -9.0260   20.4642 C   0  0  0  0  0  0
  -22.7226  -10.2142   20.3054 C   0  0  0  0  0  0
  -21.6849   -6.0739   22.5280 C   0  0  0  0  0  0
  -21.4013   -6.5640   23.8216 C   0  0  0  0  0  0
  -21.3657   -5.6790   24.9174 C   0  0  0  0  0  0
  -21.6046   -4.3056   24.7224 C   0  0  0  0  0  0
  -21.8817   -3.8150   23.4345 C   0  0  0  0  0  0
  -21.9196   -4.6967   22.3402 C   0  0  0  0  0  0
  -22.7872  -13.5249   21.1850 C   0  0  0  0  0  0
  -22.1662   -4.2158   21.0980 F   0  0  0  0  0  0
  -21.5630   -3.4537   25.7735 F   0  0  0  0  0  0
  -30.0486  -13.2321   20.4566 N   0  0  0  0  0  0
  -26.3056  -12.9313   20.3403 N   0  0  0  0  0  0
  -25.9319  -11.6476   20.5774 N   0  0  0  0  0  0
  -22.0509  -12.8247   22.0403 N   0  0  0  0  0  0
  -25.4375  -15.1874   20.4091 N   0  0  0  0  0  0
  -31.7923  -14.6440   20.0549 O   0  0  0  0  0  0
  -21.6637   -6.8884   21.4244 O   0  0  0  0  0  0
  -22.3563  -14.5562   20.6700 O   0  0  0  0  0  0
  -24.6175  -31.8712   23.2121 C   0  0  0  0  0  0
  -25.9060  -32.4859   23.8412 C   0  0  1  0  0  0
  -27.2483  -27.4534   20.1006 C   0  0  0  0  0  0
  -25.5874  -33.8644   24.2399 N   0  0  0  0  0  0
  -23.4062  -30.4911   21.5571 C   0  0  2  0  0  0
  -24.8533  -28.9570   20.1192 C   0  0  0  0  0  0
  -22.7427  -29.4657   22.5015 C   0  0  0  0  0  0
  -18.0291  -28.1373   22.8483 C   0  0  0  0  0  0
  -24.1438  -36.7409   23.2627 C   0  0  0  0  0  0
  -25.9295  -30.8419   21.3605 C   0  0  0  0  0  0
  -26.0086  -29.4720   20.7193 C   0  0  0  0  0  0
  -27.2086  -28.7269   20.7171 C   0  0  0  0  0  0
  -26.0791  -26.9566   19.4870 C   0  0  0  0  0  0
  -24.8804  -27.6958   19.4997 C   0  0  0  0  0  0
  -23.6125  -29.8192   20.1714 C   0  0  0  0  0  0
  -25.4041  -36.3154   24.0344 C   0  0  1  0  0  0
  -20.5877  -28.3657   23.1273 C   0  0  2  0  0  0
  -20.6780  -26.9387   22.5387 C   0  0  0  0  0  0
  -19.5754  -26.6367   21.5196 C   0  0  0  0  0  0
  -18.1947  -26.7927   22.1622 C   0  0  0  0  0  0
  -19.1532  -28.8827   23.2896 C   0  0  0  0  0  0
  -18.9432  -30.1421   23.8912 C   0  0  0  0  0  0
  -17.6435  -30.6555   24.0568 C   0  0  0  0  0  0
  -25.8981  -34.9494   23.5156 C   0  0  0  0  0  0
  -16.5325  -29.9071   23.6316 C   0  0  0  0  0  0
  -16.7276  -28.6494   23.0332 C   0  0  0  0  0  0
  -26.4423  -31.6551   25.0684 C   0  0  0  0  0  0
  -25.3610  -31.3459   26.1290 C   0  0  0  0  0  0
  -27.0325  -30.3069   24.5968 C   0  0  0  0  0  0
  -27.5899  -32.4320   25.7546 C   0  0  0  0  0  0
  -27.5547  -37.1850   24.8501 C   0  0  0  0  0  0
  -21.4160  -29.3047   22.3713 N   0  0  0  0  0  0
  -26.4244  -37.3839   23.9449 N   0  0  0  0  0  0
  -24.6705  -31.0801   22.1042 N   0  0  0  0  0  0
  -23.4165  -28.8211   23.3093 O   0  0  0  0  0  0
  -28.3685  -26.6572   20.0046 O   0  0  0  0  0  0
  -26.5553  -34.8914   22.4711 O   0  0  0  0  0  0
  -23.5391  -32.1427   23.7569 O   0  0  0  0  0  0
  -31.6275  -18.6989   21.5814 C   0  0  0  0  0  0
  -31.3442  -17.3952   21.1309 C   0  0  0  0  0  0
  -30.3061  -18.2952   23.5886 C   0  0  0  0  0  0
  -31.1133  -19.1615   22.8129 C   0  0  0  0  0  0
  -30.5462  -16.5300   21.9166 C   0  0  0  0  0  0
  -30.0175  -16.9969   23.1342 C   0  0  0  0  0  0
  -31.4623  -20.5386   23.3026 C   0  0  0  0  0  0
  -27.3443  -26.1111   23.8759 C   0  0  0  0  0  0
  -28.3720  -24.4586   27.1304 C   0  0  0  0  0  0
  -29.6413  -24.0861   26.3444 C   0  0  0  0  0  0
  -28.2853  -25.9726   27.4236 C   0  0  0  0  0  0
  -29.5420  -22.7093   25.6697 C   0  0  0  0  0  0
  -26.8516  -26.5492   27.3937 C   0  0  0  0  0  0
  -30.7399  -22.4096   24.7555 C   0  0  0  0  0  0
  -26.1304  -26.4826   26.0237 C   0  0  0  0  0  0
  -29.1814  -25.9283   22.2138 C   0  0  0  0  0  0
  -29.4343  -26.7637   20.9456 C   0  0  0  0  0  0
  -30.1933  -15.2070   21.5515 N   0  0  0  0  0  0
  -30.5713  -21.1127   24.1156 N   0  0  0  0  0  0
  -27.0108  -26.8685   24.9237 N   0  0  0  0  0  0
  -28.3665  -26.6322   23.1958 N   0  0  0  0  0  0
  -32.4958  -21.1029   22.9367 O   0  0  0  0  0  0
  -26.8270  -25.0262   23.6072 O   0  0  0  0  0  0
  -29.2290  -16.1797   23.8740 F   0  0  0  0  0  0
  -31.4655  -12.3944   19.0866 H   0  0  0  0  0  0
  -30.3348  -11.2636   19.7678 H   0  0  0  0  0  0
  -29.7180  -11.8077   17.3990 H   0  0  0  0  0  0
  -29.6580  -13.5115   17.7827 H   0  0  0  0  0  0
  -27.8152  -11.3174   18.7956 H   0  0  0  0  0  0
  -27.3565  -12.6672   17.7916 H   0  0  0  0  0  0
  -27.7297  -14.2539   19.6128 H   0  0  0  0  0  0
  -28.6723  -11.8877   21.3031 H   0  0  0  0  0  0
  -28.4527  -13.4975   21.8926 H   0  0  0  0  0  0
  -25.2757   -9.5695   22.4745 H   0  0  0  0  0  0
  -24.0010   -7.4637   22.7456 H   0  0  0  0  0  0
  -21.0838   -8.8778   19.8945 H   0  0  0  0  0  0
  -22.3686  -10.9683   19.6165 H   0  0  0  0  0  0
  -21.1996   -7.6147   23.9724 H   0  0  0  0  0  0
  -21.1479   -6.0516   25.9080 H   0  0  0  0  0  0
  -22.0599   -2.7616   23.2840 H   0  0  0  0  0  0
  -22.4114  -11.9898   22.4782 H   0  0  0  0  0  0
  -21.1133  -13.1283   22.2616 H   0  0  0  0  0  0
  -24.6792  -15.8507   20.5229 H   0  0  0  0  0  0
  -26.3020  -15.6223   20.1117 H   0  0  0  0  0  0
  -26.7128  -32.5599   23.1181 H   0  0  0  0  0  0
  -24.9972  -33.9773   25.0525 H   0  0  0  0  0  0
  -22.6970  -31.3110   21.4273 H   0  0  0  0  0  0
  -23.3606  -35.9837   23.3297 H   0  0  0  0  0  0
  -24.3580  -36.9031   22.2053 H   0  0  0  0  0  0
  -23.7240  -37.6641   23.6584 H   0  0  0  0  0  0
  -26.0274  -31.5981   20.5799 H   0  0  0  0  0  0
  -26.8264  -30.9146   21.9625 H   0  0  0  0  0  0
  -28.0888  -29.1580   21.1673 H   0  0  0  0  0  0
  -26.0889  -25.9910   19.0009 H   0  0  0  0  0  0
  -23.9944  -27.3020   19.0212 H   0  0  0  0  0  0
  -23.7187  -30.5896   19.4101 H   0  0  0  0  0  0
  -22.7416  -29.2375   19.8688 H   0  0  0  0  0  0
  -25.1182  -36.2057   25.0820 H   0  0  0  0  0  0
  -21.0012  -28.3233   24.1372 H   0  0  0  0  0  0
  -20.5635  -26.2275   23.3593 H   0  0  0  0  0  0
  -21.6667  -26.7420   22.1203 H   0  0  0  0  0  0
  -19.6905  -25.6275   21.1220 H   0  0  0  0  0  0
  -19.6679  -27.3180   20.6729 H   0  0  0  0  0  0
  -17.4222  -26.6626   21.4037 H   0  0  0  0  0  0
  -18.0400  -26.0077   22.9021 H   0  0  0  0  0  0
  -19.7877  -30.7260   24.2299 H   0  0  0  0  0  0
  -17.4947  -31.6245   24.5151 H   0  0  0  0  0  0
  -15.5306  -30.2970   23.7612 H   0  0  0  0  0  0
  -15.8681  -28.0812   22.7039 H   0  0  0  0  0  0
  -24.6142  -30.6414   25.7577 H   0  0  0  0  0  0
  -24.8324  -32.2465   26.4393 H   0  0  0  0  0  0
  -25.7932  -30.8972   27.0232 H   0  0  0  0  0  0
  -26.2858  -29.6865   24.0983 H   0  0  0  0  0  0
  -27.4112  -29.7296   25.4414 H   0  0  0  0  0  0
  -27.8690  -30.4463   23.9109 H   0  0  0  0  0  0
  -27.2465  -33.3662   26.1993 H   0  0  0  0  0  0
  -28.3786  -32.6821   25.0431 H   0  0  0  0  0  0
  -28.0434  -31.8525   26.5593 H   0  0  0  0  0  0
  -28.2542  -38.0177   24.7522 H   0  0  0  0  0  0
  -28.1009  -36.2661   24.6286 H   0  0  0  0  0  0
  -27.2312  -37.1604   25.8934 H   0  0  0  0  0  0
  -20.9344  -29.8799   21.6947 H   0  0  0  0  0  0
  -26.0101  -38.2882   24.1523 H   0  0  0  0  0  0
  -32.2494  -19.3471   20.9775 H   0  0  0  0  0  0
  -31.7466  -17.0875   20.1783 H   0  0  0  0  0  0
  -29.9060  -18.6048   24.5427 H   0  0  0  0  0  0
  -28.3277  -23.8909   28.0625 H   0  0  0  0  0  0
  -27.5005  -24.1417   26.5572 H   0  0  0  0  0  0
  -30.5142  -24.1251   26.9987 H   0  0  0  0  0  0
  -29.8102  -24.8294   25.5641 H   0  0  0  0  0  0
  -28.9044  -26.5345   26.7231 H   0  0  0  0  0  0
  -28.7238  -26.1673   28.4038 H   0  0  0  0  0  0
  -28.6270  -22.6706   25.0768 H   0  0  0  0  0  0
  -29.4515  -21.9359   26.4344 H   0  0  0  0  0  0
  -26.8937  -27.5933   27.7129 H   0  0  0  0  0  0
  -26.2430  -26.0503   28.1496 H   0  0  0  0  0  0
  -31.6676  -22.4146   25.3318 H   0  0  0  0  0  0
  -30.8383  -23.1804   23.9879 H   0  0  0  0  0  0
  -25.2714  -27.1565   26.0259 H   0  0  0  0  0  0
  -25.7299  -25.4806   25.8701 H   0  0  0  0  0  0
  -30.1371  -25.7348   22.7041 H   0  0  0  0  0  0
  -28.7755  -24.9485   21.9556 H   0  0  0  0  0  0
  -29.7291  -27.7852   21.1726 H   0  0  0  0  0  0
  -30.2963  -26.3260   20.4403 H   0  0  0  0  0  0
  -29.4150  -14.8214   22.0635 H   0  0  0  0  0  0
  -29.7325  -20.5895   24.3233 H   0  0  0  0  0  0
  -27.5260  -27.7256   25.0548 H   0  0  0  0  0  0
  -28.7025  -27.5446   23.4650 H   0  0  0  0  0  0
  1 25  1  0  0  0
  1 30  2  0  0  0
  1 88  1  0  0  0
  2  3  1  0  0  0
  2 25  1  0  0  0
  2 95  1  0  0  0
  2 96  1  0  0  0
  3  4  1  0  0  0
  3 97  1  0  0  0
  3 98  1  0  0  0
  4  5  1  0  0  0
  4 99  1  0  0  0
  4100  1  0  0  0
  5  6  1  0  0  0
  5 26  1  0  0  0
  5101  1  0  0  0
  6 25  1  0  0  0
  6102  1  0  0  0
  6103  1  0  0  0
  7  8  2  0  0  0
  7 26  1  0  0  0
  7 29  1  0  0  0
  8  9  1  0  0  0
  8 22  1  0  0  0
  9 10  1  0  0  0
  9 27  2  0  0  0
 10 11  2  0  0  0
 10 15  1  0  0  0
 11 12  1  0  0  0
 11104  1  0  0  0
 12 13  2  0  0  0
 12105  1  0  0  0
 13 14  1  0  0  0
 13 31  1  0  0  0
 14 15  2  0  0  0
 14106  1  0  0  0
 15107  1  0  0  0
 16 17  2  0  0  0
 16 21  1  0  0  0
 16 31  1  0  0  0
 17 18  1  0  0  0
 17108  1  0  0  0
 18 19  2  0  0  0
 18109  1  0  0  0
 19 20  1  0  0  0
 19 24  1  0  0  0
 20 21  2  0  0  0
 20110  1  0  0  0
 21 23  1  0  0  0
 22 28  1  0  0  0
 22 32  2  0  0  0
 26 27  1  0  0  0
 28111  1  0  0  0
 28112  1  0  0  0
 29113  1  0  0  0
 29114  1  0  0  0
 33 34  1  0  0  0
 33 66  1  0  0  0
 33 70  2  0  0  0
 34 36  1  0  0  0
 34 59  1  0  0  0
 34115  1  0  0  0
 35 44  2  0  0  0
 35 45  1  0  0  0
 35 68  1  0  0  0
 36 56  1  0  0  0
 36116  1  0  0  0
 37 39  1  0  0  0
 37 47  1  0  0  0
 37 66  1  0  0  0
 37117  1  0  0  0
 38 43  2  0  0  0
 38 46  1  0  0  0
 38 47  1  0  0  0
 39 64  1  0  0  0
 39 67  2  0  0  0
 40 52  1  0  0  0
 40 53  2  0  0  0
 40 58  1  0  0  0
 41118  1  0  0  0
 41119  1  0  0  0
 41120  1  0  0  0
 41 48  1  0  0  0
 42 43  1  0  0  0
 42 66  1  0  0  0
 42121  1  0  0  0
 42122  1  0  0  0
 43 44  1  0  0  0
 44123  1  0  0  0
 45 46  2  0  0  0
 45124  1  0  0  0
 46125  1  0  0  0
 47126  1  0  0  0
 47127  1  0  0  0
 48 56  1  0  0  0
 48 65  1  0  0  0
 48128  1  0  0  0
 49 50  1  0  0  0
 49 53  1  0  0  0
 49 64  1  0  0  0
 49129  1  0  0  0
 50 51  1  0  0  0
 50130  1  0  0  0
 50131  1  0  0  0
 51 52  1  0  0  0
 51132  1  0  0  0
 51133  1  0  0  0
 52134  1  0  0  0
 52135  1  0  0  0
 53 54  1  0  0  0
 54 55  2  0  0  0
 54136  1  0  0  0
 55 57  1  0  0  0
 55137  1  0  0  0
 56 69  2  0  0  0
 57 58  2  0  0  0
 57138  1  0  0  0
 58139  1  0  0  0
 59 60  1  0  0  0
 59 61  1  0  0  0
 59 62  1  0  0  0
 60140  1  0  0  0
 60141  1  0  0  0
 60142  1  0  0  0
 61143  1  0  0  0
 61144  1  0  0  0
 61145  1  0  0  0
 62146  1  0  0  0
 62147  1  0  0  0
 62148  1  0  0  0
 63 65  1  0  0  0
 63149  1  0  0  0
 63150  1  0  0  0
 63151  1  0  0  0
 64152  1  0  0  0
 65153  1  0  0  0
 68 87  1  0  0  0
 71 72  2  0  0  0
 71 74  1  0  0  0
 71154  1  0  0  0
 72 75  1  0  0  0
 72155  1  0  0  0
 73 74  2  0  0  0
 73 76  1  0  0  0
 73156  1  0  0  0
 74 77  1  0  0  0
 75 76  2  0  0  0
 75 88  1  0  0  0
 76 94  1  0  0  0
 77 89  1  0  0  0
 77 92  2  0  0  0
 78 90  1  0  0  0
 78 91  1  0  0  0
 78 93  2  0  0  0
 79 80  1  0  0  0
 79 81  1  0  0  0
 79157  1  0  0  0
 79158  1  0  0  0
 80 82  1  0  0  0
 80159  1  0  0  0
 80160  1  0  0  0
 81 83  1  0  0  0
 81161  1  0  0  0
 81162  1  0  0  0
 82 84  1  0  0  0
 82163  1  0  0  0
 82164  1  0  0  0
 83 85  1  0  0  0
 83165  1  0  0  0
 83166  1  0  0  0
 84 89  1  0  0  0
 84167  1  0  0  0
 84168  1  0  0  0
 85 90  1  0  0  0
 85169  1  0  0  0
 85170  1  0  0  0
 86 87  1  0  0  0
 86 91  1  0  0  0
 86171  1  0  0  0
 86172  1  0  0  0
 87173  1  0  0  0
 87174  1  0  0  0
 88175  1  0  0  0
 89176  1  0  0  0
 90177  1  0  0  0
 91178  1  0  0  0
M  ISO  4   1 100  68 101  87 101  88 100
M  END
> <chiral flag>
0

> <version>
0

> <s_m_source_file>
/data/baiqing/PycharmProjects/Reinvent-master-3.2/result/LINK_invent/BTK/process_docking_weight1_custom_sum_contain_oxygen_bond_distance_aromatic_linkinvent_7_9_3/rearranged_h_0005.sdf

> <i_m_source_file_index>
71

> <r_mmod_Potential_Energy-OPLS-2005>
-359.90576171875

> <r_mmod_Stretch_Energy-OPLS-2005>
33.1347770690918

> <r_mmod_Bend_Energy-OPLS-2005>
115.75218963623

> <r_mmod_Torsional_Energy-OPLS-2005>
234.282409667969

> <r_mmod_Improper_Torsional_Energy-OPLS-2005>
2.88712334632874

> <r_mmod_Van_der_Waal_Energy-OPLS-2005>
141.169586181641

> <r_mmod_Electrostatic_Energy-OPLS-2005>
-630.504516601562

> <r_mmod_Solvation_Energy-OPLS-2005>
-263.604827880859

> <b_mmod_Minimization_Converged-OPLS-2005>
0

> <r_mmod_RMS_Derivative-OPLS-2005>
4.58568239212036

$$$$
72
                    3D
 Structure written by MMmdl.
195204  0  0  1  0            999 V2000
  -30.6802  -14.4781   20.4863 C   0  0  0  0  0  0
  -30.4378  -12.2704   19.4431 C   0  0  0  0  0  0
  -29.5148  -12.4481   18.2209 C   0  0  0  0  0  0
  -28.0256  -12.3526   18.6213 C   0  0  0  0  0  0
  -27.6631  -13.1876   19.8833 C   0  0  2  0  0  0
  -28.7132  -12.9867   21.0002 C   0  0  0  0  0  0
  -25.2627  -13.8062   20.5811 C   0  0  0  0  0  0
  -24.1836  -13.0367   20.9192 C   0  0  0  0  0  0
  -24.6377  -11.6835   20.8730 C   0  0  0  0  0  0
  -23.9032  -10.4254   21.0402 C   0  0  0  0  0  0
  -24.3596   -9.4184   21.9180 C   0  0  0  0  0  0
  -23.6293   -8.2223   22.0737 C   0  0  0  0  0  0
  -22.4274   -8.0267   21.3537 C   0  0  0  0  0  0
  -21.9893   -9.0229   20.4625 C   0  0  0  0  0  0
  -22.7210  -10.2117   20.3043 C   0  0  0  0  0  0
  -21.6842   -6.0733   22.5281 C   0  0  0  0  0  0
  -21.3999   -6.5627   23.8216 C   0  0  0  0  0  0
  -21.3665   -5.6781   24.9172 C   0  0  0  0  0  0
  -21.6055   -4.3042   24.7216 C   0  0  0  0  0  0
  -21.8822   -3.8138   23.4329 C   0  0  0  0  0  0
  -21.9183   -4.6962   22.3388 C   0  0  0  0  0  0
  -22.7868  -13.5209   21.1838 C   0  0  0  0  0  0
  -22.1663   -4.2157   21.0976 F   0  0  0  0  0  0
  -21.5639   -3.4517   25.7726 F   0  0  0  0  0  0
  -30.0444  -13.2785   20.4363 N   0  0  0  0  0  0
  -26.3042  -12.9199   20.3431 N   0  0  0  0  0  0
  -25.9307  -11.6378   20.5770 N   0  0  0  0  0  0
  -22.0471  -12.8239   22.0384 N   0  0  0  0  0  0
  -25.4335  -15.1787   20.4467 N   0  0  0  0  0  0
  -31.8402  -14.6530   20.1030 O   0  0  0  0  0  0
  -21.6627   -6.8875   21.4250 O   0  0  0  0  0  0
  -22.3582  -14.5519   20.6673 O   0  0  0  0  0  0
  -24.6047  -31.8699   23.2115 C   0  0  0  0  0  0
  -25.8969  -32.4824   23.8409 C   0  0  1  0  0  0
  -27.2694  -27.4820   20.1084 C   0  0  0  0  0  0
  -25.5837  -33.8620   24.2349 N   0  0  0  0  0  0
  -23.3929  -30.4887   21.5480 C   0  0  2  0  0  0
  -24.8509  -28.9574   20.1150 C   0  0  0  0  0  0
  -22.7359  -29.4642   22.5004 C   0  0  0  0  0  0
  -18.0254  -28.1376   22.8499 C   0  0  0  0  0  0
  -24.1481  -36.7319   23.2647 C   0  0  0  0  0  0
  -25.9123  -30.8545   21.3541 C   0  0  0  0  0  0
  -25.9986  -29.4877   20.7126 C   0  0  0  0  0  0
  -27.2018  -28.7600   20.7126 C   0  0  0  0  0  0
  -26.1090  -26.9638   19.4931 C   0  0  0  0  0  0
  -24.8988  -27.6907   19.5024 C   0  0  0  0  0  0
  -23.6027  -29.8112   20.1654 C   0  0  0  0  0  0
  -25.4090  -36.3099   24.0355 C   0  0  1  0  0  0
  -20.5838  -28.3638   23.1359 C   0  0  2  0  0  0
  -20.6742  -26.9392   22.5430 C   0  0  0  0  0  0
  -19.5730  -26.6393   21.5221 C   0  0  0  0  0  0
  -18.1908  -26.7936   22.1631 C   0  0  0  0  0  0
  -19.1504  -28.8832   23.2932 C   0  0  0  0  0  0
  -18.9443  -30.1437   23.8938 C   0  0  0  0  0  0
  -17.6447  -30.6593   24.0565 C   0  0  0  0  0  0
  -25.9002  -34.9463   23.5151 C   0  0  0  0  0  0
  -16.5331  -29.9096   23.6325 C   0  0  0  0  0  0
  -16.7249  -28.6508   23.0362 C   0  0  0  0  0  0
  -26.4432  -31.6588   25.0710 C   0  0  0  0  0  0
  -25.3719  -31.3709   26.1482 C   0  0  0  0  0  0
  -27.0292  -30.3045   24.6057 C   0  0  0  0  0  0
  -27.6016  -32.4314   25.7445 C   0  0  0  0  0  0
  -27.5576  -37.1809   24.8465 C   0  0  0  0  0  0
  -21.4100  -29.3012   22.3766 N   0  0  0  0  0  0
  -26.4283  -37.3774   23.9417 N   0  0  0  0  0  0
  -24.6544  -31.0843   22.0989 N   0  0  0  0  0  0
  -23.4159  -28.8189   23.3025 O   0  0  0  0  0  0
  -28.4241  -26.7274   20.0909 O   0  0  0  0  0  0
  -26.5574  -34.8918   22.4722 O   0  0  0  0  0  0
  -23.5256  -32.1440   23.7540 O   0  0  0  0  0  0
  -30.4787  -19.1816   20.9705 C   0  0  0  0  0  0
  -30.5199  -17.8032   21.2636 C   0  0  0  0  0  0
  -29.5493  -18.6774   18.7869 C   0  0  0  0  0  0
  -29.5460  -17.2973   19.0736 C   0  0  0  0  0  0
  -29.9632  -19.6319   19.7392 C   0  0  0  0  0  0
  -30.0288  -16.8522   20.3406 C   0  0  0  0  0  0
  -29.4781  -21.6575   18.3970 C   0  0  0  0  0  0
  -31.4622  -27.0460   18.4062 C   0  0  0  0  0  0
  -27.2987  -15.7374   15.5908 C   0  0  0  0  0  0
  -28.8105  -15.4542   15.6642 C   0  0  0  0  0  0
  -26.6492  -15.7548   16.9829 C   0  0  0  0  0  0
  -29.5395  -16.3963   16.6486 C   0  0  0  0  0  0
  -27.3824  -16.7232   17.9167 C   0  0  0  0  0  0
  -28.8805  -16.3782   18.0454 C   0  0  0  0  0  0
  -32.5051  -24.8540   18.9619 C   0  0  0  0  0  0
  -28.4914  -22.8370   18.4409 C   0  0  0  0  0  0
  -31.3733  -26.6801   16.9138 C   0  0  0  0  0  0
  -28.9147  -24.1792   17.8016 C   0  0  0  0  0  0
  -29.9116  -26.7238   16.4107 C   0  0  0  0  0  0
  -29.4684  -24.1378   16.3626 C   0  0  0  0  0  0
  -29.4456  -25.4870   15.6157 C   0  0  0  0  0  0
  -30.3663  -25.7665   21.3193 C   0  0  0  0  0  0
  -31.6896  -26.3417   20.7608 C   0  0  0  0  0  0
  -29.1679  -26.7357   21.3142 C   0  0  0  0  0  0
  -29.7020  -21.0198   19.5580 N   0  0  0  0  0  0
  -29.8784  -15.5108   20.7916 N   0  0  0  0  0  0
  -31.8409  -26.1147   19.3167 N   0  0  0  0  0  0
  -30.0088  -21.3237   17.3356 O   0  0  0  0  0  0
  -31.1333  -28.1899   18.7347 O   0  0  0  0  0  0
  -31.4854  -12.3600   19.1497 H   0  0  0  0  0  0
  -30.3323  -11.2695   19.8656 H   0  0  0  0  0  0
  -29.7469  -11.6939   17.4672 H   0  0  0  0  0  0
  -29.7277  -13.4064   17.7550 H   0  0  0  0  0  0
  -27.8062  -11.3012   18.8067 H   0  0  0  0  0  0
  -27.3951  -12.6357   17.7780 H   0  0  0  0  0  0
  -27.6815  -14.2323   19.5972 H   0  0  0  0  0  0
  -28.6862  -11.9605   21.3693 H   0  0  0  0  0  0
  -28.4929  -13.6123   21.8666 H   0  0  0  0  0  0
  -25.2750   -9.5671   22.4753 H   0  0  0  0  0  0
  -23.9999   -7.4604   22.7461 H   0  0  0  0  0  0
  -21.0817   -8.8747   19.8945 H   0  0  0  0  0  0
  -22.3672  -10.9656   19.6152 H   0  0  0  0  0  0
  -21.1991   -7.6136   23.9729 H   0  0  0  0  0  0
  -21.1493   -6.0505   25.9094 H   0  0  0  0  0  0
  -22.0601   -2.7608   23.2821 H   0  0  0  0  0  0
  -22.4038  -11.9913   22.4823 H   0  0  0  0  0  0
  -21.1089  -13.1311   22.2525 H   0  0  0  0  0  0
  -24.6708  -15.8308   20.5881 H   0  0  0  0  0  0
  -26.2982  -15.6278   20.1798 H   0  0  0  0  0  0
  -26.7032  -32.5574   23.1182 H   0  0  0  0  0  0
  -24.9978  -33.9779   25.0483 H   0  0  0  0  0  0
  -22.6771  -31.3016   21.4056 H   0  0  0  0  0  0
  -23.3723  -35.9671   23.3297 H   0  0  0  0  0  0
  -24.3579  -36.8933   22.2063 H   0  0  0  0  0  0
  -23.7264  -37.6546   23.6647 H   0  0  0  0  0  0
  -26.0096  -31.6178   20.5804 H   0  0  0  0  0  0
  -26.8043  -30.9184   21.9653 H   0  0  0  0  0  0
  -28.0728  -29.2051   21.1711 H   0  0  0  0  0  0
  -26.1430  -25.9928   19.0201 H   0  0  0  0  0  0
  -24.0172  -27.2774   19.0342 H   0  0  0  0  0  0
  -23.6975  -30.5801   19.3975 H   0  0  0  0  0  0
  -22.7343  -29.2153   19.8811 H   0  0  0  0  0  0
  -25.1275  -36.1951   25.0849 H   0  0  0  0  0  0
  -20.9950  -28.3214   24.1476 H   0  0  0  0  0  0
  -20.5670  -26.2251   23.3611 H   0  0  0  0  0  0
  -21.6621  -26.7463   22.1228 H   0  0  0  0  0  0
  -19.6898  -25.6322   21.1243 H   0  0  0  0  0  0
  -19.6679  -27.3216   20.6772 H   0  0  0  0  0  0
  -17.4189  -26.6683   21.4023 H   0  0  0  0  0  0
  -18.0293  -26.0077   22.9032 H   0  0  0  0  0  0
  -19.7919  -30.7230   24.2344 H   0  0  0  0  0  0
  -17.5006  -31.6288   24.5150 H   0  0  0  0  0  0
  -15.5341  -30.3008   23.7637 H   0  0  0  0  0  0
  -15.8644  -28.0829   22.7077 H   0  0  0  0  0  0
  -24.5835  -30.7114   25.7833 H   0  0  0  0  0  0
  -24.8972  -32.2889   26.4963 H   0  0  0  0  0  0
  -25.8071  -30.8848   27.0220 H   0  0  0  0  0  0
  -26.2864  -29.6773   24.1123 H   0  0  0  0  0  0
  -27.4129  -29.7286   25.4490 H   0  0  0  0  0  0
  -27.8631  -30.4415   23.9169 H   0  0  0  0  0  0
  -27.2647  -33.3607   26.2050 H   0  0  0  0  0  0
  -28.3783  -32.6895   25.0232 H   0  0  0  0  0  0
  -28.0724  -31.8432   26.5336 H   0  0  0  0  0  0
  -28.2590  -38.0108   24.7480 H   0  0  0  0  0  0
  -28.1070  -36.2636   24.6291 H   0  0  0  0  0  0
  -27.2294  -37.1468   25.8870 H   0  0  0  0  0  0
  -20.9239  -29.8708   21.6985 H   0  0  0  0  0  0
  -26.0165  -38.2852   24.1404 H   0  0  0  0  0  0
  -30.7997  -19.8928   21.7190 H   0  0  0  0  0  0
  -30.8737  -17.4844   22.2353 H   0  0  0  0  0  0
  -29.1223  -19.0060   17.8511 H   0  0  0  0  0  0
  -26.8132  -14.9793   14.9744 H   0  0  0  0  0  0
  -27.1269  -16.6932   15.0937 H   0  0  0  0  0  0
  -29.2535  -15.5424   14.6701 H   0  0  0  0  0  0
  -28.9518  -14.4168   15.9608 H   0  0  0  0  0  0
  -26.6551  -14.7556   17.4130 H   0  0  0  0  0  0
  -25.6000  -16.0407   16.9045 H   0  0  0  0  0  0
  -29.5300  -17.4048   16.2364 H   0  0  0  0  0  0
  -30.5868  -16.1043   16.7290 H   0  0  0  0  0  0
  -26.9150  -16.7253   18.8990 H   0  0  0  0  0  0
  -27.2549  -17.7346   17.5319 H   0  0  0  0  0  0
  -28.9684  -15.3601   18.3959 H   0  0  0  0  0  0
  -31.8712  -24.2182   18.3457 H   0  0  0  0  0  0
  -32.7647  -24.2576   19.8369 H   0  0  0  0  0  0
  -33.4308  -25.0475   18.4169 H   0  0  0  0  0  0
  -28.2030  -23.0253   19.4755 H   0  0  0  0  0  0
  -27.5843  -22.4922   17.9421 H   0  0  0  0  0  0
  -31.8322  -25.7217   16.6851 H   0  0  0  0  0  0
  -31.9696  -27.4062   16.3574 H   0  0  0  0  0  0
  -29.6313  -24.6705   18.4545 H   0  0  0  0  0  0
  -28.0352  -24.8240   17.8097 H   0  0  0  0  0  0
  -29.7987  -27.6025   15.7735 H   0  0  0  0  0  0
  -29.2160  -26.8918   17.2347 H   0  0  0  0  0  0
  -28.8858  -23.4290   15.7726 H   0  0  0  0  0  0
  -30.4855  -23.7439   16.3756 H   0  0  0  0  0  0
  -30.0412  -25.3960   14.7070 H   0  0  0  0  0  0
  -28.4258  -25.6718   15.2752 H   0  0  0  0  0  0
  -30.5609  -25.5253   22.3655 H   0  0  0  0  0  0
  -30.1064  -24.8123   20.8570 H   0  0  0  0  0  0
  -32.5293  -25.8815   21.2827 H   0  0  0  0  0  0
  -31.7813  -27.4011   21.0115 H   0  0  0  0  0  0
  -29.5331  -27.7292   21.5670 H   0  0  0  0  0  0
  -28.4841  -26.4401   22.1142 H   0  0  0  0  0  0
  -29.4246  -21.5154   20.3937 H   0  0  0  0  0  0
  -28.9585  -15.2531   21.1108 H   0  0  0  0  0  0
  1 25  1  0  0  0
  1 30  2  0  0  0
  1 96  1  0  0  0
  2  3  1  0  0  0
  2 25  1  0  0  0
  2100  1  0  0  0
  2101  1  0  0  0
  3  4  1  0  0  0
  3102  1  0  0  0
  3103  1  0  0  0
  4  5  1  0  0  0
  4104  1  0  0  0
  4105  1  0  0  0
  5  6  1  0  0  0
  5 26  1  0  0  0
  5106  1  0  0  0
  6 25  1  0  0  0
  6107  1  0  0  0
  6108  1  0  0  0
  7  8  2  0  0  0
  7 26  1  0  0  0
  7 29  1  0  0  0
  8  9  1  0  0  0
  8 22  1  0  0  0
  9 10  1  0  0  0
  9 27  2  0  0  0
 10 11  2  0  0  0
 10 15  1  0  0  0
 11 12  1  0  0  0
 11109  1  0  0  0
 12 13  2  0  0  0
 12110  1  0  0  0
 13 14  1  0  0  0
 13 31  1  0  0  0
 14 15  2  0  0  0
 14111  1  0  0  0
 15112  1  0  0  0
 16 17  2  0  0  0
 16 21  1  0  0  0
 16 31  1  0  0  0
 17 18  1  0  0  0
 17113  1  0  0  0
 18 19  2  0  0  0
 18114  1  0  0  0
 19 20  1  0  0  0
 19 24  1  0  0  0
 20 21  2  0  0  0
 20115  1  0  0  0
 21 23  1  0  0  0
 22 28  1  0  0  0
 22 32  2  0  0  0
 26 27  1  0  0  0
 28116  1  0  0  0
 28117  1  0  0  0
 29118  1  0  0  0
 29119  1  0  0  0
 33 34  1  0  0  0
 33 66  1  0  0  0
 33 70  2  0  0  0
 34 36  1  0  0  0
 34 59  1  0  0  0
 34120  1  0  0  0
 35 44  2  0  0  0
 35 45  1  0  0  0
 35 68  1  0  0  0
 36 56  1  0  0  0
 36121  1  0  0  0
 37 39  1  0  0  0
 37 47  1  0  0  0
 37 66  1  0  0  0
 37122  1  0  0  0
 38 43  2  0  0  0
 38 46  1  0  0  0
 38 47  1  0  0  0
 39 64  1  0  0  0
 39 67  2  0  0  0
 40 52  1  0  0  0
 40 53  2  0  0  0
 40 58  1  0  0  0
 41123  1  0  0  0
 41124  1  0  0  0
 41125  1  0  0  0
 41 48  1  0  0  0
 42 43  1  0  0  0
 42 66  1  0  0  0
 42126  1  0  0  0
 42127  1  0  0  0
 43 44  1  0  0  0
 44128  1  0  0  0
 45 46  2  0  0  0
 45129  1  0  0  0
 46130  1  0  0  0
 47131  1  0  0  0
 47132  1  0  0  0
 48 56  1  0  0  0
 48 65  1  0  0  0
 48133  1  0  0  0
 49 50  1  0  0  0
 49 53  1  0  0  0
 49 64  1  0  0  0
 49134  1  0  0  0
 50 51  1  0  0  0
 50135  1  0  0  0
 50136  1  0  0  0
 51 52  1  0  0  0
 51137  1  0  0  0
 51138  1  0  0  0
 52139  1  0  0  0
 52140  1  0  0  0
 53 54  1  0  0  0
 54 55  2  0  0  0
 54141  1  0  0  0
 55 57  1  0  0  0
 55142  1  0  0  0
 56 69  2  0  0  0
 57 58  2  0  0  0
 57143  1  0  0  0
 58144  1  0  0  0
 59 60  1  0  0  0
 59 61  1  0  0  0
 59 62  1  0  0  0
 60145  1  0  0  0
 60146  1  0  0  0
 60147  1  0  0  0
 61148  1  0  0  0
 61149  1  0  0  0
 61150  1  0  0  0
 62151  1  0  0  0
 62152  1  0  0  0
 62153  1  0  0  0
 63 65  1  0  0  0
 63154  1  0  0  0
 63155  1  0  0  0
 63156  1  0  0  0
 64157  1  0  0  0
 65158  1  0  0  0
 68 94  1  0  0  0
 71 72  2  0  0  0
 71 75  1  0  0  0
 71159  1  0  0  0
 72 76  1  0  0  0
 72160  1  0  0  0
 73 74  1  0  0  0
 73 75  2  0  0  0
 73161  1  0  0  0
 74 76  2  0  0  0
 74 84  1  0  0  0
 75 95  1  0  0  0
 76 96  1  0  0  0
 77 86  1  0  0  0
 77 95  1  0  0  0
 77 98  2  0  0  0
 78 87  1  0  0  0
 78 97  1  0  0  0
 78 99  2  0  0  0
 79 80  1  0  0  0
 79 81  1  0  0  0
 79162  1  0  0  0
 79163  1  0  0  0
 80 82  1  0  0  0
 80164  1  0  0  0
 80165  1  0  0  0
 81 83  1  0  0  0
 81166  1  0  0  0
 81167  1  0  0  0
 82 84  1  0  0  0
 82168  1  0  0  0
 82169  1  0  0  0
 83 84  1  0  0  0
 83170  1  0  0  0
 83171  1  0  0  0
 84172  1  0  0  0
 85 97  1  0  0  0
 85173  1  0  0  0
 85174  1  0  0  0
 85175  1  0  0  0
 86 88  1  0  0  0
 86176  1  0  0  0
 86177  1  0  0  0
 87 89  1  0  0  0
 87178  1  0  0  0
 87179  1  0  0  0
 88 90  1  0  0  0
 88180  1  0  0  0
 88181  1  0  0  0
 89 91  1  0  0  0
 89182  1  0  0  0
 89183  1  0  0  0
 90 91  1  0  0  0
 90184  1  0  0  0
 90185  1  0  0  0
 91186  1  0  0  0
 91187  1  0  0  0
 92 93  1  0  0  0
 92 94  1  0  0  0
 92188  1  0  0  0
 92189  1  0  0  0
 93 97  1  0  0  0
 93190  1  0  0  0
 93191  1  0  0  0
 94192  1  0  0  0
 94193  1  0  0  0
 95194  1  0  0  0
 96195  1  0  0  0
M  ISO  4   1 100  68 101  94 101  96 100
M  END
> <chiral flag>
0

> <version>
0

> <s_m_source_file>
/data/baiqing/PycharmProjects/Reinvent-master-3.2/result/LINK_invent/BTK/process_docking_weight1_custom_sum_contain_oxygen_bond_distance_aromatic_linkinvent_7_9_3/rearranged_h_0005.sdf

> <i_m_source_file_index>
72

> <r_mmod_Potential_Energy-OPLS-2005>
31.0970973968506

> <r_mmod_Stretch_Energy-OPLS-2005>
40.3342971801758

> <r_mmod_Bend_Energy-OPLS-2005>
121.247756958008

> <r_mmod_Torsional_Energy-OPLS-2005>
361.490417480469

> <r_mmod_Improper_Torsional_Energy-OPLS-2005>
8.61840915679932

> <r_mmod_Van_der_Waal_Energy-OPLS-2005>
140.382125854492

> <r_mmod_Electrostatic_Energy-OPLS-2005>
-409.001312255859

> <r_mmod_Solvation_Energy-OPLS-2005>
-246.272598266602

> <b_mmod_Minimization_Converged-OPLS-2005>
0

> <r_mmod_RMS_Derivative-OPLS-2005>
2.96275496482849

$$$$
73
                    3D
 Structure written by MMmdl.
172180  0  0  1  0            999 V2000
  -30.6618  -14.4576   20.4910 C   0  0  0  0  0  0
  -30.4414  -12.2744   19.3927 C   0  0  0  0  0  0
  -29.4952  -12.4661   18.1881 C   0  0  0  0  0  0
  -28.0157  -12.3273   18.6105 C   0  0  0  0  0  0
  -27.6559  -13.1798   19.8564 C   0  0  2  0  0  0
  -28.7132  -12.9779   20.9713 C   0  0  0  0  0  0
  -25.2646  -13.8079   20.5727 C   0  0  0  0  0  0
  -24.1852  -13.0393   20.9188 C   0  0  0  0  0  0
  -24.6374  -11.6860   20.8746 C   0  0  0  0  0  0
  -23.9020  -10.4280   21.0431 C   0  0  0  0  0  0
  -24.3579   -9.4204   21.9212 C   0  0  0  0  0  0
  -23.6264   -8.2235   22.0767 C   0  0  0  0  0  0
  -22.4252   -8.0283   21.3543 C   0  0  0  0  0  0
  -21.9875   -9.0266   20.4656 C   0  0  0  0  0  0
  -22.7192  -10.2153   20.3085 C   0  0  0  0  0  0
  -21.6847   -6.0732   22.5278 C   0  0  0  0  0  0
  -21.4008   -6.5635   23.8211 C   0  0  0  0  0  0
  -21.3653   -5.6791   24.9175 C   0  0  0  0  0  0
  -21.6030   -4.3051   24.7236 C   0  0  0  0  0  0
  -21.8813   -3.8138   23.4359 C   0  0  0  0  0  0
  -21.9188   -4.6955   22.3410 C   0  0  0  0  0  0
  -22.7891  -13.5260   21.1829 C   0  0  0  0  0  0
  -22.1650   -4.2141   21.0988 F   0  0  0  0  0  0
  -21.5630   -3.4535   25.7752 F   0  0  0  0  0  0
  -30.0423  -13.2572   20.3997 N   0  0  0  0  0  0
  -26.3011  -12.9177   20.3308 N   0  0  0  0  0  0
  -25.9286  -11.6366   20.5737 N   0  0  0  0  0  0
  -22.0458  -12.8338   22.0392 N   0  0  0  0  0  0
  -25.4396  -15.1802   20.4257 N   0  0  0  0  0  0
  -31.8616  -14.6531   20.2908 O   0  0  0  0  0  0
  -21.6614   -6.8888   21.4244 O   0  0  0  0  0  0
  -22.3634  -14.5569   20.6651 O   0  0  0  0  0  0
  -24.6098  -31.8704   23.2142 C   0  0  0  0  0  0
  -25.9012  -32.4831   23.8450 C   0  0  1  0  0  0
  -27.2367  -27.4879   20.0851 C   0  0  0  0  0  0
  -25.5895  -33.8633   24.2379 N   0  0  0  0  0  0
  -23.3943  -30.4925   21.5520 C   0  0  2  0  0  0
  -24.8437  -28.9684   20.1085 C   0  0  0  0  0  0
  -22.7352  -29.4655   22.4956 C   0  0  0  0  0  0
  -18.0224  -28.1378   22.8490 C   0  0  0  0  0  0
  -24.1455  -36.7341   23.2615 C   0  0  0  0  0  0
  -25.9179  -30.8563   21.3562 C   0  0  0  0  0  0
  -25.9975  -29.4949   20.7021 C   0  0  0  0  0  0
  -27.2007  -28.7622   20.6832 C   0  0  0  0  0  0
  -26.0731  -26.9590   19.4923 C   0  0  0  0  0  0
  -24.8729  -27.6997   19.5001 C   0  0  0  0  0  0
  -23.5995  -29.8275   20.1652 C   0  0  0  0  0  0
  -25.4075  -36.3125   24.0327 C   0  0  1  0  0  0
  -20.5828  -28.3687   23.1227 C   0  0  2  0  0  0
  -20.6737  -26.9440   22.5305 C   0  0  0  0  0  0
  -19.5683  -26.6393   21.5149 C   0  0  0  0  0  0
  -18.1888  -26.7906   22.1679 C   0  0  0  0  0  0
  -19.1480  -28.8872   23.2838 C   0  0  0  0  0  0
  -18.9399  -30.1473   23.8821 C   0  0  0  0  0  0
  -17.6415  -30.6596   24.0594 C   0  0  0  0  0  0
  -25.9003  -34.9479   23.5147 C   0  0  0  0  0  0
  -16.5308  -29.9083   23.6418 C   0  0  0  0  0  0
  -16.7217  -28.6494   23.0414 C   0  0  0  0  0  0
  -26.4450  -31.6558   25.0746 C   0  0  0  0  0  0
  -25.3693  -31.3637   26.1464 C   0  0  0  0  0  0
  -27.0201  -30.2982   24.6066 C   0  0  0  0  0  0
  -27.6060  -32.4201   25.7552 C   0  0  0  0  0  0
  -27.5552  -37.1824   24.8456 C   0  0  0  0  0  0
  -21.4085  -29.3026   22.3643 N   0  0  0  0  0  0
  -26.4265  -37.3805   23.9412 N   0  0  0  0  0  0
  -24.6588  -31.0865   22.0997 N   0  0  0  0  0  0
  -23.4077  -28.8177   23.3023 O   0  0  0  0  0  0
  -28.4109  -26.7840   20.0910 O   0  0  0  0  0  0
  -26.5526  -34.8923   22.4669 O   0  0  0  0  0  0
  -23.5289  -32.1414   23.7560 O   0  0  0  0  0  0
  -29.8105  -18.2359   22.7754 C   0  0  0  0  0  0
  -30.2323  -17.0721   22.1012 C   0  0  0  0  0  0
  -28.0826  -18.6027   21.0960 C   0  0  0  0  0  0
  -28.7210  -18.9977   22.2957 C   0  0  0  0  0  0
  -29.5498  -16.6600   20.9369 C   0  0  0  0  0  0
  -28.4850  -17.4276   20.4191 C   0  0  0  0  0  0
  -27.4145  -21.0756   22.7872 C   0  0  0  0  0  0
  -26.9052  -17.7753   18.6376 C   0  0  0  0  0  0
  -28.0384  -25.2527   24.8731 C   0  0  0  0  0  0
  -26.5246  -25.0456   25.1045 C   0  0  0  0  0  0
  -28.5557  -25.0042   23.4395 C   0  0  0  0  0  0
  -26.0608  -23.5797   25.2058 C   0  0  0  0  0  0
  -28.0109  -25.9933   22.3961 C   0  0  0  0  0  0
  -25.9901  -22.8054   23.8722 C   0  0  0  0  0  0
  -28.4276  -25.6476   20.9490 C   0  0  0  0  0  0
  -29.7836  -15.4400   20.2706 N   0  0  0  0  0  0
  -28.2640  -20.0837   23.0996 N   0  0  0  0  0  0
  -26.9468  -21.7005   23.8698 N   0  0  0  0  0  0
  -27.1063  -21.4095   21.6413 O   0  0  0  0  0  0
  -27.8617  -16.9458   19.2839 O   0  0  0  0  0  0
  -31.4809  -12.4017   19.0828 H   0  0  0  0  0  0
  -30.3568  -11.2647   19.7986 H   0  0  0  0  0  0
  -29.7373  -11.7443   17.4051 H   0  0  0  0  0  0
  -29.6551  -13.4487   17.7452 H   0  0  0  0  0  0
  -27.8321  -11.2732   18.8239 H   0  0  0  0  0  0
  -27.3647  -12.5842   17.7754 H   0  0  0  0  0  0
  -27.6675  -14.2163   19.5262 H   0  0  0  0  0  0
  -28.6835  -11.9532   21.3463 H   0  0  0  0  0  0
  -28.5053  -13.6251   21.8260 H   0  0  0  0  0  0
  -25.2734   -9.5687   22.4781 H   0  0  0  0  0  0
  -23.9965   -7.4636   22.7498 H   0  0  0  0  0  0
  -21.0796   -8.8794   19.8988 H   0  0  0  0  0  0
  -22.3648  -10.9706   19.6203 H   0  0  0  0  0  0
  -21.1988   -7.6144   23.9717 H   0  0  0  0  0  0
  -21.1481   -6.0516   25.9081 H   0  0  0  0  0  0
  -22.0600   -2.7604   23.2853 H   0  0  0  0  0  0
  -22.3958  -11.9967   22.4794 H   0  0  0  0  0  0
  -21.1101  -13.1484   22.2558 H   0  0  0  0  0  0
  -24.6878  -15.8356   20.6110 H   0  0  0  0  0  0
  -26.2998  -15.6337   20.1424 H   0  0  0  0  0  0
  -26.7139  -32.5583   23.1287 H   0  0  0  0  0  0
  -25.0213  -33.9838   25.0624 H   0  0  0  0  0  0
  -22.6740  -31.3018   21.4137 H   0  0  0  0  0  0
  -23.3715  -35.9687   23.3302 H   0  0  0  0  0  0
  -24.3558  -36.8924   22.2038 H   0  0  0  0  0  0
  -23.7230  -37.6549   23.6611 H   0  0  0  0  0  0
  -26.0163  -31.6258   20.5903 H   0  0  0  0  0  0
  -26.8117  -30.9171   21.9647 H   0  0  0  0  0  0
  -28.0960  -29.1627   21.1374 H   0  0  0  0  0  0
  -26.0915  -25.9849   19.0230 H   0  0  0  0  0  0
  -23.9845  -27.2892   19.0386 H   0  0  0  0  0  0
  -23.7082  -30.6105   19.4131 H   0  0  0  0  0  0
  -22.7220  -29.2455   19.8730 H   0  0  0  0  0  0
  -25.1259  -36.2010   25.0834 H   0  0  0  0  0  0
  -20.9943  -28.3254   24.1333 H   0  0  0  0  0  0
  -20.5671  -26.2349   23.3522 H   0  0  0  0  0  0
  -21.6586  -26.7497   22.1020 H   0  0  0  0  0  0
  -19.6854  -25.6299   21.1174 H   0  0  0  0  0  0
  -19.6580  -27.3109   20.6610 H   0  0  0  0  0  0
  -17.4078  -26.6577   21.4181 H   0  0  0  0  0  0
  -18.0421  -26.0136   22.9186 H   0  0  0  0  0  0
  -19.7877  -30.7315   24.2129 H   0  0  0  0  0  0
  -17.4925  -31.6267   24.5209 H   0  0  0  0  0  0
  -15.5308  -30.2935   23.7898 H   0  0  0  0  0  0
  -15.8583  -28.0795   22.7236 H   0  0  0  0  0  0
  -24.5889  -30.6990   25.7763 H   0  0  0  0  0  0
  -24.8889  -32.2800   26.4923 H   0  0  0  0  0  0
  -25.8063  -30.8750   27.0173 H   0  0  0  0  0  0
  -26.2663  -29.6783   24.1204 H   0  0  0  0  0  0
  -27.3974  -29.7178   25.4487 H   0  0  0  0  0  0
  -27.8502  -30.4231   23.9117 H   0  0  0  0  0  0
  -27.2757  -33.3573   26.2055 H   0  0  0  0  0  0
  -28.3933  -32.6663   25.0430 H   0  0  0  0  0  0
  -28.0641  -31.8287   26.5506 H   0  0  0  0  0  0
  -28.2581  -38.0108   24.7489 H   0  0  0  0  0  0
  -28.1019  -36.2637   24.6281 H   0  0  0  0  0  0
  -27.2270  -37.1486   25.8856 H   0  0  0  0  0  0
  -20.9280  -29.8618   21.6732 H   0  0  0  0  0  0
  -26.0144  -38.2849   24.1497 H   0  0  0  0  0  0
  -30.3112  -18.5218   23.6900 H   0  0  0  0  0  0
  -31.0452  -16.4898   22.5144 H   0  0  0  0  0  0
  -27.2479  -19.1713   20.7224 H   0  0  0  0  0  0
  -26.5471  -17.2759   17.7375 H   0  0  0  0  0  0
  -27.3434  -18.7273   18.3361 H   0  0  0  0  0  0
  -26.0409  -17.9641   19.2761 H   0  0  0  0  0  0
  -28.5978  -24.6207   25.5639 H   0  0  0  0  0  0
  -28.2839  -26.2770   25.1600 H   0  0  0  0  0  0
  -25.9248  -25.5856   24.3733 H   0  0  0  0  0  0
  -26.2852  -25.5234   26.0577 H   0  0  0  0  0  0
  -28.3585  -23.9806   23.1313 H   0  0  0  0  0  0
  -29.6436  -25.0912   23.4418 H   0  0  0  0  0  0
  -25.0594  -23.5777   25.6383 H   0  0  0  0  0  0
  -26.6759  -23.0588   25.9391 H   0  0  0  0  0  0
  -28.3621  -26.9923   22.6555 H   0  0  0  0  0  0
  -26.9203  -26.0312   22.4410 H   0  0  0  0  0  0
  -26.1285  -23.4729   23.0179 H   0  0  0  0  0  0
  -24.9916  -22.3793   23.7543 H   0  0  0  0  0  0
  -27.8074  -24.8487   20.5378 H   0  0  0  0  0  0
  -29.4549  -25.2834   20.9395 H   0  0  0  0  0  0
  -28.9775  -15.1239   19.7569 H   0  0  0  0  0  0
  -28.5380  -20.0328   24.0719 H   0  0  0  0  0  0
  -27.2442  -21.3705   24.7762 H   0  0  0  0  0  0
  1 25  1  0  0  0
  1 30  2  0  0  0
  1 86  1  0  0  0
  2  3  1  0  0  0
  2 25  1  0  0  0
  2 91  1  0  0  0
  2 92  1  0  0  0
  3  4  1  0  0  0
  3 93  1  0  0  0
  3 94  1  0  0  0
  4  5  1  0  0  0
  4 95  1  0  0  0
  4 96  1  0  0  0
  5  6  1  0  0  0
  5 26  1  0  0  0
  5 97  1  0  0  0
  6 25  1  0  0  0
  6 98  1  0  0  0
  6 99  1  0  0  0
  7  8  2  0  0  0
  7 26  1  0  0  0
  7 29  1  0  0  0
  8  9  1  0  0  0
  8 22  1  0  0  0
  9 10  1  0  0  0
  9 27  2  0  0  0
 10 11  2  0  0  0
 10 15  1  0  0  0
 11 12  1  0  0  0
 11100  1  0  0  0
 12 13  2  0  0  0
 12101  1  0  0  0
 13 14  1  0  0  0
 13 31  1  0  0  0
 14 15  2  0  0  0
 14102  1  0  0  0
 15103  1  0  0  0
 16 17  2  0  0  0
 16 21  1  0  0  0
 16 31  1  0  0  0
 17 18  1  0  0  0
 17104  1  0  0  0
 18 19  2  0  0  0
 18105  1  0  0  0
 19 20  1  0  0  0
 19 24  1  0  0  0
 20 21  2  0  0  0
 20106  1  0  0  0
 21 23  1  0  0  0
 22 28  1  0  0  0
 22 32  2  0  0  0
 26 27  1  0  0  0
 28107  1  0  0  0
 28108  1  0  0  0
 29109  1  0  0  0
 29110  1  0  0  0
 33 34  1  0  0  0
 33 66  1  0  0  0
 33 70  2  0  0  0
 34 36  1  0  0  0
 34 59  1  0  0  0
 34111  1  0  0  0
 35 44  2  0  0  0
 35 45  1  0  0  0
 35 68  1  0  0  0
 36 56  1  0  0  0
 36112  1  0  0  0
 37 39  1  0  0  0
 37 47  1  0  0  0
 37 66  1  0  0  0
 37113  1  0  0  0
 38 43  2  0  0  0
 38 46  1  0  0  0
 38 47  1  0  0  0
 39 64  1  0  0  0
 39 67  2  0  0  0
 40 52  1  0  0  0
 40 53  2  0  0  0
 40 58  1  0  0  0
 41114  1  0  0  0
 41115  1  0  0  0
 41116  1  0  0  0
 41 48  1  0  0  0
 42 43  1  0  0  0
 42 66  1  0  0  0
 42117  1  0  0  0
 42118  1  0  0  0
 43 44  1  0  0  0
 44119  1  0  0  0
 45 46  2  0  0  0
 45120  1  0  0  0
 46121  1  0  0  0
 47122  1  0  0  0
 47123  1  0  0  0
 48 56  1  0  0  0
 48 65  1  0  0  0
 48124  1  0  0  0
 49 50  1  0  0  0
 49 53  1  0  0  0
 49 64  1  0  0  0
 49125  1  0  0  0
 50 51  1  0  0  0
 50126  1  0  0  0
 50127  1  0  0  0
 51 52  1  0  0  0
 51128  1  0  0  0
 51129  1  0  0  0
 52130  1  0  0  0
 52131  1  0  0  0
 53 54  1  0  0  0
 54 55  2  0  0  0
 54132  1  0  0  0
 55 57  1  0  0  0
 55133  1  0  0  0
 56 69  2  0  0  0
 57 58  2  0  0  0
 57134  1  0  0  0
 58135  1  0  0  0
 59 60  1  0  0  0
 59 61  1  0  0  0
 59 62  1  0  0  0
 60136  1  0  0  0
 60137  1  0  0  0
 60138  1  0  0  0
 61139  1  0  0  0
 61140  1  0  0  0
 61141  1  0  0  0
 62142  1  0  0  0
 62143  1  0  0  0
 62144  1  0  0  0
 63 65  1  0  0  0
 63145  1  0  0  0
 63146  1  0  0  0
 63147  1  0  0  0
 64148  1  0  0  0
 65149  1  0  0  0
 68 85  1  0  0  0
 71 72  2  0  0  0
 71 74  1  0  0  0
 71150  1  0  0  0
 72 75  1  0  0  0
 72151  1  0  0  0
 73 74  2  0  0  0
 73 76  1  0  0  0
 73152  1  0  0  0
 74 87  1  0  0  0
 75 76  2  0  0  0
 75 86  1  0  0  0
 76 90  1  0  0  0
 77 87  1  0  0  0
 77 88  1  0  0  0
 77 89  2  0  0  0
 78 90  1  0  0  0
 78153  1  0  0  0
 78154  1  0  0  0
 78155  1  0  0  0
 79 80  1  0  0  0
 79 81  1  0  0  0
 79156  1  0  0  0
 79157  1  0  0  0
 80 82  1  0  0  0
 80158  1  0  0  0
 80159  1  0  0  0
 81 83  1  0  0  0
 81160  1  0  0  0
 81161  1  0  0  0
 82 84  1  0  0  0
 82162  1  0  0  0
 82163  1  0  0  0
 83 85  1  0  0  0
 83164  1  0  0  0
 83165  1  0  0  0
 84 88  1  0  0  0
 84166  1  0  0  0
 84167  1  0  0  0
 85168  1  0  0  0
 85169  1  0  0  0
 86170  1  0  0  0
 87171  1  0  0  0
 88172  1  0  0  0
M  ISO  4   1 100  68 101  85 101  86 100
M  END
> <chiral flag>
0

> <version>
0

> <s_m_source_file>
/data/baiqing/PycharmProjects/Reinvent-master-3.2/result/LINK_invent/BTK/process_docking_weight1_custom_sum_contain_oxygen_bond_distance_aromatic_linkinvent_7_9_3/rearranged_h_0005.sdf

> <i_m_source_file_index>
73

> <r_mmod_Potential_Energy-OPLS-2005>
-109.83415222168

> <r_mmod_Stretch_Energy-OPLS-2005>
33.2313842773438

> <r_mmod_Bend_Energy-OPLS-2005>
122.486534118652

> <r_mmod_Torsional_Energy-OPLS-2005>
305.576354980469

> <r_mmod_Improper_Torsional_Energy-OPLS-2005>
18.8113422393799

> <r_mmod_Van_der_Waal_Energy-OPLS-2005>
147.622589111328

> <r_mmod_Electrostatic_Energy-OPLS-2005>
-520.564697265625

> <r_mmod_Solvation_Energy-OPLS-2005>
-237.04914855957

> <b_mmod_Minimization_Converged-OPLS-2005>
0

> <r_mmod_RMS_Derivative-OPLS-2005>
4.51326513290405

$$$$
74
                    3D
 Structure written by MMmdl.
195202  0  0  1  0            999 V2000
  -30.7717  -14.3633   20.6889 C   0  0  0  0  0  0
  -30.4244  -12.2898   19.3976 C   0  0  0  0  0  0
  -29.4877  -12.5128   18.1941 C   0  0  0  0  0  0
  -28.0131  -12.3693   18.6130 C   0  0  0  0  0  0
  -27.6697  -13.1981   19.8789 C   0  0  2  0  0  0
  -28.7080  -12.9407   20.9950 C   0  0  0  0  0  0
  -25.2629  -13.8149   20.5670 C   0  0  0  0  0  0
  -24.1861  -13.0440   20.9166 C   0  0  0  0  0  0
  -24.6384  -11.6896   20.8730 C   0  0  0  0  0  0
  -23.9048  -10.4296   21.0416 C   0  0  0  0  0  0
  -24.3608   -9.4214   21.9196 C   0  0  0  0  0  0
  -23.6281   -8.2255   22.0770 C   0  0  0  0  0  0
  -22.4271   -8.0284   21.3547 C   0  0  0  0  0  0
  -21.9895   -9.0259   20.4651 C   0  0  0  0  0  0
  -22.7224  -10.2137   20.3054 C   0  0  0  0  0  0
  -21.6841   -6.0730   22.5277 C   0  0  0  0  0  0
  -21.4008   -6.5633   23.8213 C   0  0  0  0  0  0
  -21.3646   -5.6787   24.9173 C   0  0  0  0  0  0
  -21.6054   -4.3059   24.7222 C   0  0  0  0  0  0
  -21.8814   -3.8140   23.4343 C   0  0  0  0  0  0
  -21.9199   -4.6958   22.3398 C   0  0  0  0  0  0
  -22.7885  -13.5264   21.1819 C   0  0  0  0  0  0
  -22.1663   -4.2143   21.0974 F   0  0  0  0  0  0
  -21.5630   -3.4535   25.7733 F   0  0  0  0  0  0
  -30.0536  -13.2340   20.4621 N   0  0  0  0  0  0
  -26.3068  -12.9301   20.3378 N   0  0  0  0  0  0
  -25.9312  -11.6473   20.5772 N   0  0  0  0  0  0
  -22.0488  -12.8286   22.0367 N   0  0  0  0  0  0
  -25.4403  -15.1856   20.4073 N   0  0  0  0  0  0
  -31.7907  -14.6589   20.0577 O   0  0  0  0  0  0
  -21.6640   -6.8870   21.4241 O   0  0  0  0  0  0
  -22.3590  -14.5584   20.6672 O   0  0  0  0  0  0
  -24.6036  -31.8732   23.2137 C   0  0  0  0  0  0
  -25.8921  -32.4877   23.8465 C   0  0  1  0  0  0
  -27.2832  -27.5168   20.1307 C   0  0  0  0  0  0
  -25.5762  -33.8671   24.2345 N   0  0  0  0  0  0
  -23.3893  -30.4943   21.5489 C   0  0  2  0  0  0
  -24.8458  -28.9616   20.1200 C   0  0  0  0  0  0
  -22.7369  -29.4673   22.5005 C   0  0  0  0  0  0
  -18.0266  -28.1430   22.8549 C   0  0  0  0  0  0
  -24.1467  -36.7408   23.2663 C   0  0  0  0  0  0
  -25.8968  -30.8857   21.3344 C   0  0  0  0  0  0
  -25.9911  -29.5133   20.7084 C   0  0  0  0  0  0
  -27.1991  -28.8029   20.7156 C   0  0  0  0  0  0
  -26.1206  -26.9632   19.5519 C   0  0  0  0  0  0
  -24.9039  -27.6772   19.5426 C   0  0  0  0  0  0
  -23.5989  -29.8177   20.1628 C   0  0  0  0  0  0
  -25.4073  -36.3188   24.0374 C   0  0  1  0  0  0
  -20.5869  -28.3666   23.1409 C   0  0  2  0  0  0
  -20.6748  -26.9417   22.5480 C   0  0  0  0  0  0
  -19.5691  -26.6386   21.5328 C   0  0  0  0  0  0
  -18.1870  -26.7984   22.1688 C   0  0  0  0  0  0
  -19.1535  -28.8855   23.2987 C   0  0  0  0  0  0
  -18.9489  -30.1465   23.8986 C   0  0  0  0  0  0
  -17.6476  -30.6629   24.0622 C   0  0  0  0  0  0
  -25.8949  -34.9513   23.5181 C   0  0  0  0  0  0
  -16.5370  -29.9173   23.6359 C   0  0  0  0  0  0
  -16.7238  -28.6596   23.0352 C   0  0  0  0  0  0
  -26.4329  -31.6679   25.0778 C   0  0  0  0  0  0
  -25.3549  -31.3885   26.1525 C   0  0  0  0  0  0
  -27.0186  -30.3152   24.6090 C   0  0  0  0  0  0
  -27.5906  -32.4390   25.7531 C   0  0  0  0  0  0
  -27.5575  -37.1842   24.8446 C   0  0  0  0  0  0
  -21.4087  -29.3060   22.3821 N   0  0  0  0  0  0
  -26.4279  -37.3838   23.9428 N   0  0  0  0  0  0
  -24.6488  -31.0954   22.0966 N   0  0  0  0  0  0
  -23.4237  -28.8224   23.2971 O   0  0  0  0  0  0
  -28.4540  -26.7851   20.1010 O   0  0  0  0  0  0
  -26.5582  -34.8931   22.4771 O   0  0  0  0  0  0
  -23.5232  -32.1415   23.7561 O   0  0  0  0  0  0
  -31.8179  -17.9924   23.8188 C   0  0  0  0  0  0
  -33.4736  -25.0392   22.1681 C   0  0  0  0  0  0
  -30.8301  -26.4561   20.6418 C   0  0  0  0  0  0
  -32.1454  -28.0428   22.0665 C   0  0  0  0  0  0
  -31.5342  -16.5532   23.3356 C   0  0  0  0  0  0
  -33.2244  -26.0462   21.0348 C   0  0  0  0  0  0
  -29.6082  -27.3813   20.7316 C   0  0  0  0  0  0
  -34.2728  -21.7280   24.4490 C   0  0  0  0  0  0
  -30.9071  -17.5389   27.2148 C   0  0  0  0  0  0
  -35.0701  -22.4291   23.3312 C   0  0  0  0  0  0
  -34.0136  -20.2334   24.1752 C   0  0  0  0  0  0
  -30.2826  -17.4238   28.6176 C   0  0  0  0  0  0
  -32.4352  -17.3259   27.2324 C   0  0  0  0  0  0
  -30.7719  -16.4962   21.9920 C   0  0  0  0  0  0
  -35.2386  -23.9487   23.5683 C   0  0  0  0  0  0
  -33.0484  -19.6015   25.2078 C   0  0  0  0  0  0
  -28.7451  -17.5282   28.6288 C   0  0  0  0  0  0
  -34.6157  -17.0232   25.8621 C   0  0  0  0  0  0
  -33.0789  -17.1656   25.8291 C   0  0  2  0  0  0
  -34.7555  -24.7748   22.4597 N   0  0  0  0  0  0
  -30.2997  -15.1498   21.6621 N   0  0  0  0  0  0
  -31.9997  -26.8516   21.2086 N   0  0  0  0  0  0
  -32.6527  -18.2164   24.8723 N   0  0  0  0  0  0
  -28.2688  -18.9070   28.4301 N   0  3  0  0  0  0
  -31.2886  -18.9264   23.2065 O   0  0  0  0  0  0
  -32.5333  -24.5116   22.7646 O   0  0  0  0  0  0
  -30.7223  -25.3941   20.0208 O   0  0  0  0  0  0
  -34.9924  -15.7865   26.4450 O   0  0  0  0  0  0
  -31.4656  -12.3998   19.0865 H   0  0  0  0  0  0
  -30.3373  -11.2663   19.7678 H   0  0  0  0  0  0
  -29.7199  -11.7957   17.4052 H   0  0  0  0  0  0
  -29.6567  -13.5026   17.7695 H   0  0  0  0  0  0
  -27.8223  -11.3120   18.8011 H   0  0  0  0  0  0
  -27.3573  -12.6520   17.7884 H   0  0  0  0  0  0
  -27.7285  -14.2514   19.6044 H   0  0  0  0  0  0
  -28.6700  -11.8966   21.3101 H   0  0  0  0  0  0
  -28.4515  -13.5147   21.8848 H   0  0  0  0  0  0
  -25.2739   -9.5703   22.4774 H   0  0  0  0  0  0
  -23.9985   -7.4650   22.7487 H   0  0  0  0  0  0
  -21.0831   -8.8770   19.8951 H   0  0  0  0  0  0
  -22.3680  -10.9680   19.6164 H   0  0  0  0  0  0
  -21.1981   -7.6135   23.9707 H   0  0  0  0  0  0
  -21.1468   -6.0514   25.9073 H   0  0  0  0  0  0
  -22.0603   -2.7599   23.2841 H   0  0  0  0  0  0
  -22.4060  -11.9935   22.4770 H   0  0  0  0  0  0
  -21.1111  -13.1359   22.2537 H   0  0  0  0  0  0
  -24.6850  -15.8519   20.5249 H   0  0  0  0  0  0
  -26.3028  -15.6165   20.0975 H   0  0  0  0  0  0
  -26.7060  -32.5584   23.1331 H   0  0  0  0  0  0
  -24.9749  -33.9880   25.0375 H   0  0  0  0  0  0
  -22.6733  -31.3055   21.4075 H   0  0  0  0  0  0
  -23.3665  -35.9792   23.3288 H   0  0  0  0  0  0
  -24.3586  -36.9027   22.2087 H   0  0  0  0  0  0
  -23.7262  -37.6627   23.6663 H   0  0  0  0  0  0
  -25.9541  -31.6425   20.5530 H   0  0  0  0  0  0
  -26.8069  -30.9829   21.9142 H   0  0  0  0  0  0
  -28.0573  -29.2847   21.1616 H   0  0  0  0  0  0
  -26.1539  -25.9743   19.1161 H   0  0  0  0  0  0
  -24.0182  -27.2326   19.1060 H   0  0  0  0  0  0
  -23.7032  -30.5922   19.4027 H   0  0  0  0  0  0
  -22.7268  -29.2337   19.8596 H   0  0  0  0  0  0
  -25.1234  -36.2082   25.0868 H   0  0  0  0  0  0
  -20.9963  -28.3214   24.1525 H   0  0  0  0  0  0
  -20.5728  -26.2268   23.3668 H   0  0  0  0  0  0
  -21.6595  -26.7464   22.1231 H   0  0  0  0  0  0
  -19.6845  -25.6285   21.1340 H   0  0  0  0  0  0
  -19.6662  -27.3195   20.6863 H   0  0  0  0  0  0
  -17.4180  -26.6821   21.4061 H   0  0  0  0  0  0
  -18.0153  -26.0137   22.9075 H   0  0  0  0  0  0
  -19.7963  -30.7278   24.2363 H   0  0  0  0  0  0
  -17.5057  -31.6330   24.5208 H   0  0  0  0  0  0
  -15.5378  -30.3127   23.7622 H   0  0  0  0  0  0
  -15.8626  -28.0957   22.6987 H   0  0  0  0  0  0
  -24.5641  -30.7354   25.7859 H   0  0  0  0  0  0
  -24.8829  -32.3121   26.4913 H   0  0  0  0  0  0
  -25.7792  -30.9077   27.0342 H   0  0  0  0  0  0
  -26.2826  -29.7022   24.0889 H   0  0  0  0  0  0
  -27.3769  -29.7302   25.4562 H   0  0  0  0  0  0
  -27.8688  -30.4568   23.9408 H   0  0  0  0  0  0
  -27.2498  -33.3647   26.2192 H   0  0  0  0  0  0
  -28.3657  -32.7018   25.0333 H   0  0  0  0  0  0
  -28.0627  -31.8477   26.5401 H   0  0  0  0  0  0
  -28.2546  -38.0160   24.7464 H   0  0  0  0  0  0
  -28.1084  -36.2682   24.6235 H   0  0  0  0  0  0
  -27.2318  -37.1473   25.8851 H   0  0  0  0  0  0
  -20.9186  -29.8866   21.7139 H   0  0  0  0  0  0
  -26.0174  -38.2919   24.1389 H   0  0  0  0  0  0
  -31.4772  -28.8688   21.8142 H   0  0  0  0  0  0
  -33.1574  -28.4513   22.0066 H   0  0  0  0  0  0
  -31.9696  -27.7806   23.1126 H   0  0  0  0  0  0
  -30.9527  -16.0435   24.1042 H   0  0  0  0  0  0
  -32.4826  -16.0243   23.2327 H   0  0  0  0  0  0
  -33.2105  -25.4950   20.0911 H   0  0  0  0  0  0
  -34.0830  -26.7168   20.9479 H   0  0  0  0  0  0
  -29.8660  -28.3162   20.2304 H   0  0  0  0  0  0
  -29.4146  -27.5998   21.7849 H   0  0  0  0  0  0
  -33.3126  -22.2388   24.5606 H   0  0  0  0  0  0
  -34.7933  -21.8452   25.4035 H   0  0  0  0  0  0
  -30.6815  -18.5162   26.7872 H   0  0  0  0  0  0
  -30.4456  -16.8015   26.5568 H   0  0  0  0  0  0
  -34.5909  -22.2505   22.3697 H   0  0  0  0  0  0
  -36.0607  -21.9755   23.2603 H   0  0  0  0  0  0
  -34.9597  -19.6896   24.1643 H   0  0  0  0  0  0
  -33.6052  -20.1340   23.1690 H   0  0  0  0  0  0
  -30.7184  -18.1640   29.2885 H   0  0  0  0  0  0
  -30.5551  -16.4525   29.0321 H   0  0  0  0  0  0
  -32.6540  -16.4289   27.8143 H   0  0  0  0  0  0
  -32.9024  -18.1450   27.7801 H   0  0  0  0  0  0
  -31.3989  -16.9033   21.1943 H   0  0  0  0  0  0
  -29.8887  -17.1345   22.0351 H   0  0  0  0  0  0
  -36.3008  -24.1665   23.6994 H   0  0  0  0  0  0
  -34.7596  -24.2715   24.4974 H   0  0  0  0  0  0
  -32.1460  -20.2105   25.2884 H   0  0  0  0  0  0
  -33.5104  -19.6525   26.1934 H   0  0  0  0  0  0
  -28.3676  -17.1720   29.5881 H   0  0  0  0  0  0
  -28.3123  -16.8752   27.8703 H   0  0  0  0  0  0
  -35.0822  -17.8454   26.4057 H   0  0  0  0  0  0
  -35.0142  -17.0470   24.8465 H   0  0  0  0  0  0
  -32.7200  -16.1985   25.4848 H   0  0  0  0  0  0
  -35.4604  -25.2708   21.9280 H   0  0  0  0  0  0
  -29.4691  -14.8206   22.1332 H   0  0  0  0  0  0
  -28.6264  -19.5127   29.1466 H   0  0  0  0  0  0
  -27.2661  -18.9303   28.4787 H   0  0  0  0  0  0
  -28.5441  -19.2619   27.5337 H   0  0  0  0  0  0
  -34.7353  -15.8042   27.3624 H   0  0  0  0  0  0
  1 25  1  0  0  0
  1 30  2  0  0  0
  1 91  1  0  0  0
  2  3  1  0  0  0
  2 25  1  0  0  0
  2 99  1  0  0  0
  2100  1  0  0  0
  3  4  1  0  0  0
  3101  1  0  0  0
  3102  1  0  0  0
  4  5  1  0  0  0
  4103  1  0  0  0
  4104  1  0  0  0
  5  6  1  0  0  0
  5 26  1  0  0  0
  5105  1  0  0  0
  6 25  1  0  0  0
  6106  1  0  0  0
  6107  1  0  0  0
  7  8  2  0  0  0
  7 26  1  0  0  0
  7 29  1  0  0  0
  8  9  1  0  0  0
  8 22  1  0  0  0
  9 10  1  0  0  0
  9 27  2  0  0  0
 10 11  2  0  0  0
 10 15  1  0  0  0
 11 12  1  0  0  0
 11108  1  0  0  0
 12 13  2  0  0  0
 12109  1  0  0  0
 13 14  1  0  0  0
 13 31  1  0  0  0
 14 15  2  0  0  0
 14110  1  0  0  0
 15111  1  0  0  0
 16 17  2  0  0  0
 16 21  1  0  0  0
 16 31  1  0  0  0
 17 18  1  0  0  0
 17112  1  0  0  0
 18 19  2  0  0  0
 18113  1  0  0  0
 19 20  1  0  0  0
 19 24  1  0  0  0
 20 21  2  0  0  0
 20114  1  0  0  0
 21 23  1  0  0  0
 22 28  1  0  0  0
 22 32  2  0  0  0
 26 27  1  0  0  0
 28115  1  0  0  0
 28116  1  0  0  0
 29117  1  0  0  0
 29118  1  0  0  0
 33 34  1  0  0  0
 33 66  1  0  0  0
 33 70  2  0  0  0
 34 36  1  0  0  0
 34 59  1  0  0  0
 34119  1  0  0  0
 35 44  2  0  0  0
 35 45  1  0  0  0
 35 68  1  0  0  0
 36 56  1  0  0  0
 36120  1  0  0  0
 37 39  1  0  0  0
 37 47  1  0  0  0
 37 66  1  0  0  0
 37121  1  0  0  0
 38 43  2  0  0  0
 38 46  1  0  0  0
 38 47  1  0  0  0
 39 64  1  0  0  0
 39 67  2  0  0  0
 40 52  1  0  0  0
 40 53  2  0  0  0
 40 58  1  0  0  0
 41122  1  0  0  0
 41123  1  0  0  0
 41124  1  0  0  0
 41 48  1  0  0  0
 42 43  1  0  0  0
 42 66  1  0  0  0
 42125  1  0  0  0
 42126  1  0  0  0
 43 44  1  0  0  0
 44127  1  0  0  0
 45 46  2  0  0  0
 45128  1  0  0  0
 46129  1  0  0  0
 47130  1  0  0  0
 47131  1  0  0  0
 48 56  1  0  0  0
 48 65  1  0  0  0
 48132  1  0  0  0
 49 50  1  0  0  0
 49 53  1  0  0  0
 49 64  1  0  0  0
 49133  1  0  0  0
 50 51  1  0  0  0
 50134  1  0  0  0
 50135  1  0  0  0
 51 52  1  0  0  0
 51136  1  0  0  0
 51137  1  0  0  0
 52138  1  0  0  0
 52139  1  0  0  0
 53 54  1  0  0  0
 54 55  2  0  0  0
 54140  1  0  0  0
 55 57  1  0  0  0
 55141  1  0  0  0
 56 69  2  0  0  0
 57 58  2  0  0  0
 57142  1  0  0  0
 58143  1  0  0  0
 59 60  1  0  0  0
 59 61  1  0  0  0
 59 62  1  0  0  0
 60144  1  0  0  0
 60145  1  0  0  0
 60146  1  0  0  0
 61147  1  0  0  0
 61148  1  0  0  0
 61149  1  0  0  0
 62150  1  0  0  0
 62151  1  0  0  0
 62152  1  0  0  0
 63 65  1  0  0  0
 63153  1  0  0  0
 63154  1  0  0  0
 63155  1  0  0  0
 64156  1  0  0  0
 65157  1  0  0  0
 68 77  1  0  0  0
 71 75  1  0  0  0
 71 93  1  0  0  0
 71 95  2  0  0  0
 72 76  1  0  0  0
 72 90  1  0  0  0
 72 96  2  0  0  0
 73 77  1  0  0  0
 73 92  1  0  0  0
 73 97  2  0  0  0
 74 92  1  0  0  0
 74158  1  0  0  0
 74159  1  0  0  0
 74160  1  0  0  0
 75 84  1  0  0  0
 75161  1  0  0  0
 75162  1  0  0  0
 76 92  1  0  0  0
 76163  1  0  0  0
 76164  1  0  0  0
 77165  1  0  0  0
 77166  1  0  0  0
 78 80  1  0  0  0
 78 81  1  0  0  0
 78167  1  0  0  0
 78168  1  0  0  0
 79 82  1  0  0  0
 79 83  1  0  0  0
 79169  1  0  0  0
 79170  1  0  0  0
 80 85  1  0  0  0
 80171  1  0  0  0
 80172  1  0  0  0
 81 86  1  0  0  0
 81173  1  0  0  0
 81174  1  0  0  0
 82 87  1  0  0  0
 82175  1  0  0  0
 82176  1  0  0  0
 83177  1  0  0  0
 83178  1  0  0  0
 83 89  1  0  0  0
 84 91  1  0  0  0
 84179  1  0  0  0
 84180  1  0  0  0
 85 90  1  0  0  0
 85181  1  0  0  0
 85182  1  0  0  0
 86 93  1  0  0  0
 86183  1  0  0  0
 86184  1  0  0  0
 87 94  1  0  0  0
 87185  1  0  0  0
 87186  1  0  0  0
 88 89  1  0  0  0
 88 98  1  0  0  0
 88187  1  0  0  0
 88188  1  0  0  0
 89 93  1  0  0  0
 89189  1  0  0  0
 90190  1  0  0  0
 91191  1  0  0  0
 94192  1  0  0  0
 94193  1  0  0  0
 94194  1  0  0  0
 98195  1  0  0  0
M  CHG  1  94   1
M  ISO  4   1 100  68 101  77 101  91 100
M  END
> <chiral flag>
0

> <version>
0

> <s_m_source_file>
/data/baiqing/PycharmProjects/Reinvent-master-3.2/result/LINK_invent/BTK/process_docking_weight1_custom_sum_contain_oxygen_bond_distance_aromatic_linkinvent_7_9_3/rearranged_h_0005.sdf

> <i_m_source_file_index>
74

> <r_mmod_Potential_Energy-OPLS-2005>
-346.014434814453

> <r_mmod_Stretch_Energy-OPLS-2005>
43.6180114746094

> <r_mmod_Bend_Energy-OPLS-2005>
110.597358703613

> <r_mmod_Torsional_Energy-OPLS-2005>
268.406280517578

> <r_mmod_Improper_Torsional_Energy-OPLS-2005>
2.33025503158569

> <r_mmod_Van_der_Waal_Energy-OPLS-2005>
162.672149658203

> <r_mmod_Electrostatic_Energy-OPLS-2005>
-317.623291015625

> <r_mmod_Solvation_Energy-OPLS-2005>
-623.949340820312

> <b_mmod_Minimization_Converged-OPLS-2005>
0

> <r_mmod_RMS_Derivative-OPLS-2005>
5.44752645492554

$$$$
75
                    3D
 Structure written by MMmdl.
233241  0  0  1  0            999 V2000
  -30.7181  -14.3755   20.6850 C   0  0  0  0  0  0
  -30.4265  -12.2878   19.4072 C   0  0  0  0  0  0
  -29.4979  -12.5503   18.2053 C   0  0  0  0  0  0
  -28.0140  -12.4078   18.6036 C   0  0  0  0  0  0
  -27.6695  -13.2004   19.8929 C   0  0  2  0  0  0
  -28.7016  -12.9008   21.0035 C   0  0  0  0  0  0
  -25.2575  -13.8121   20.5658 C   0  0  0  0  0  0
  -24.1815  -13.0429   20.9167 C   0  0  0  0  0  0
  -24.6357  -11.6905   20.8710 C   0  0  0  0  0  0
  -23.9017  -10.4307   21.0373 C   0  0  0  0  0  0
  -24.3588   -9.4233   21.9145 C   0  0  0  0  0  0
  -23.6326   -8.2236   22.0713 C   0  0  0  0  0  0
  -22.4292   -8.0264   21.3533 C   0  0  0  0  0  0
  -21.9901   -9.0207   20.4608 C   0  0  0  0  0  0
  -22.7189  -10.2117   20.3019 C   0  0  0  0  0  0
  -21.6869   -6.0715   22.5304 C   0  0  0  0  0  0
  -21.4012   -6.5624   23.8237 C   0  0  0  0  0  0
  -21.3665   -5.6772   24.9214 C   0  0  0  0  0  0
  -21.6062   -4.3031   24.7238 C   0  0  0  0  0  0
  -21.8832   -3.8120   23.4353 C   0  0  0  0  0  0
  -21.9197   -4.6944   22.3416 C   0  0  0  0  0  0
  -22.7838  -13.5239   21.1873 C   0  0  0  0  0  0
  -22.1663   -4.2136   21.0981 F   0  0  0  0  0  0
  -21.5658   -3.4517   25.7751 F   0  0  0  0  0  0
  -30.0494  -13.2103   20.4851 N   0  0  0  0  0  0
  -26.3029  -12.9288   20.3394 N   0  0  0  0  0  0
  -25.9282  -11.6452   20.5709 N   0  0  0  0  0  0
  -22.0458  -12.8237   22.0438 N   0  0  0  0  0  0
  -25.4344  -15.1833   20.4094 N   0  0  0  0  0  0
  -31.7488  -14.6879   20.0818 O   0  0  0  0  0  0
  -21.6655   -6.8861   21.4266 O   0  0  0  0  0  0
  -22.3555  -14.5555   20.6736 O   0  0  0  0  0  0
  -24.6140  -31.8693   23.2138 C   0  0  0  0  0  0
  -25.9035  -32.4836   23.8424 C   0  0  1  0  0  0
  -27.2351  -27.4652   20.0842 C   0  0  0  0  0  0
  -25.5905  -33.8627   24.2351 N   0  0  0  0  0  0
  -23.4001  -30.4969   21.5553 C   0  0  2  0  0  0
  -24.8453  -28.9690   20.1171 C   0  0  0  0  0  0
  -22.7397  -29.4677   22.5020 C   0  0  0  0  0  0
  -18.0268  -28.1377   22.8507 C   0  0  0  0  0  0
  -24.1491  -36.7325   23.2639 C   0  0  0  0  0  0
  -25.9286  -30.8441   21.3633 C   0  0  0  0  0  0
  -26.0044  -29.4821   20.7083 C   0  0  0  0  0  0
  -27.2059  -28.7388   20.6882 C   0  0  0  0  0  0
  -26.0609  -26.9681   19.4792 C   0  0  0  0  0  0
  -24.8638  -27.7092   19.4972 C   0  0  0  0  0  0
  -23.6051  -29.8308   20.1690 C   0  0  0  0  0  0
  -25.4111  -36.3129   24.0359 C   0  0  1  0  0  0
  -20.5863  -28.3651   23.1339 C   0  0  2  0  0  0
  -20.6760  -26.9405   22.5415 C   0  0  0  0  0  0
  -19.5737  -26.6387   21.5218 C   0  0  0  0  0  0
  -18.1914  -26.7930   22.1627 C   0  0  0  0  0  0
  -19.1518  -28.8838   23.2908 C   0  0  0  0  0  0
  -18.9440  -30.1448   23.8926 C   0  0  0  0  0  0
  -17.6443  -30.6582   24.0576 C   0  0  0  0  0  0
  -25.9040  -34.9485   23.5151 C   0  0  0  0  0  0
  -16.5336  -29.9094   23.6330 C   0  0  0  0  0  0
  -16.7255  -28.6504   23.0354 C   0  0  0  0  0  0
  -26.4475  -31.6603   25.0731 C   0  0  0  0  0  0
  -25.3755  -31.3683   26.1490 C   0  0  0  0  0  0
  -27.0297  -30.3058   24.6087 C   0  0  0  0  0  0
  -27.6064  -32.4310   25.7474 C   0  0  0  0  0  0
  -27.5589  -37.1819   24.8466 C   0  0  0  0  0  0
  -21.4123  -29.3021   22.3746 N   0  0  0  0  0  0
  -26.4288  -37.3805   23.9419 N   0  0  0  0  0  0
  -24.6660  -31.0838   22.1018 N   0  0  0  0  0  0
  -23.4176  -28.8224   23.3049 O   0  0  0  0  0  0
  -28.4043  -26.7408   20.0584 O   0  0  0  0  0  0
  -26.5567  -34.8931   22.4705 O   0  0  0  0  0  0
  -23.5343  -32.1398   23.7583 O   0  0  0  0  0  0
  -32.8121  -25.7509   20.9408 C   0  0  0  0  0  0
  -33.8953  -24.9707   20.5107 C   0  0  0  0  0  0
  -31.9117  -25.2306   21.8841 C   0  0  0  0  0  0
  -34.0820  -23.6613   20.9992 C   0  0  0  0  0  0
  -32.0673  -23.9186   22.3772 C   0  0  0  0  0  0
  -33.1550  -23.1145   21.9350 C   0  0  0  0  0  0
  -29.7358  -21.9497   12.8369 C   0  0  0  0  0  0
  -31.6815  -19.8556   22.8136 C   0  0  0  0  0  0
  -29.3193  -24.6633   17.3186 C   0  0  0  0  0  0
  -25.4492  -18.6265   15.9618 C   0  0  0  0  0  0
  -35.2797  -22.8791   20.4705 C   0  0  0  0  0  0
  -31.0451  -23.4070   23.3797 C   0  0  0  0  0  0
  -33.3127  -21.6795   22.4636 C   0  0  0  0  0  0
  -28.7396  -23.1061   12.9592 C   0  0  0  0  0  0
  -30.5459  -18.9455   22.3123 C   0  0  0  0  0  0
  -28.7956  -24.4878   15.8797 C   0  0  0  0  0  0
  -29.3642  -24.4614   13.3564 C   0  0  0  0  0  0
  -30.8430  -17.4365   22.4416 C   0  0  0  0  0  0
  -29.8999  -24.5527   14.8008 C   0  0  0  0  0  0
  -31.0375  -18.8596   16.4435 C   0  0  0  0  0  0
  -31.8897  -19.6065   17.4763 C   0  0  0  0  0  0
  -30.7901  -19.6549   15.1600 C   0  0  0  0  0  0
  -31.9788  -18.7729   18.7580 C   0  0  0  0  0  0
  -30.0745  -18.8022   14.0966 C   0  0  0  0  0  0
  -32.8136  -19.3915   19.8862 C   0  0  0  0  0  0
  -27.1848  -22.1707   18.0536 C   0  0  0  0  0  0
  -25.7396  -21.6489   17.9720 C   0  0  0  0  0  0
  -30.0637  -16.6545   21.3767 C   0  0  0  0  0  0
  -29.9554  -19.4730   12.7186 C   0  0  0  0  0  0
  -32.1660  -20.6536   20.4965 C   0  0  0  0  0  0
  -27.1965  -23.6990   18.2147 C   0  0  0  0  0  0
  -29.0292  -24.3582   19.7560 C   0  0  0  0  0  0
  -25.6310  -20.1192   17.9876 C   0  0  0  0  0  0
  -28.3111  -25.4242   20.6084 C   0  0  0  0  0  0
  -26.0056  -18.2260   14.8248 N   0  0  0  0  0  0
  -24.2751  -18.1169   16.3250 N   0  3  0  0  0  0
  -29.2062  -20.7233   12.7896 N   0  0  0  0  0  0
  -30.1044  -15.2075   21.5381 N   0  0  0  0  0  0
  -32.3184  -20.7084   21.9628 N   0  0  0  0  0  0
  -28.5450  -24.2714   18.3654 N   0  0  0  0  0  0
  -26.0823  -19.5380   16.7131 N   0  0  0  0  0  0
  -30.9497  -22.1543   12.7823 O   0  0  0  0  0  0
  -31.9571  -19.7880   24.0155 O   0  0  0  0  0  0
  -30.4424  -25.1519   17.4783 O   0  0  0  0  0  0
  -31.4709  -12.4057   19.1129 H   0  0  0  0  0  0
  -30.3281  -11.2560   19.7516 H   0  0  0  0  0  0
  -29.7368  -11.8696   17.3870 H   0  0  0  0  0  0
  -29.6780  -13.5593   17.8300 H   0  0  0  0  0  0
  -27.8078  -11.3454   18.7503 H   0  0  0  0  0  0
  -27.3739  -12.7310   17.7828 H   0  0  0  0  0  0
  -27.7375  -14.2630   19.6529 H   0  0  0  0  0  0
  -28.6658  -11.8430   21.2684 H   0  0  0  0  0  0
  -28.4431  -13.4285   21.9225 H   0  0  0  0  0  0
  -25.2717   -9.5770   22.4737 H   0  0  0  0  0  0
  -24.0082   -7.4611   22.7395 H   0  0  0  0  0  0
  -21.0844   -8.8663   19.8901 H   0  0  0  0  0  0
  -22.3586  -10.9633   19.6127 H   0  0  0  0  0  0
  -21.1973   -7.6124   23.9751 H   0  0  0  0  0  0
  -21.1496   -6.0487   25.9118 H   0  0  0  0  0  0
  -22.0597   -2.7578   23.2856 H   0  0  0  0  0  0
  -22.4055  -11.9937   22.4909 H   0  0  0  0  0  0
  -21.1017  -13.1205   22.2494 H   0  0  0  0  0  0
  -24.6729  -15.8442   20.5213 H   0  0  0  0  0  0
  -26.3001  -15.6185   20.1184 H   0  0  0  0  0  0
  -26.7118  -32.5550   23.1193 H   0  0  0  0  0  0
  -25.0121  -33.9796   25.0558 H   0  0  0  0  0  0
  -22.6871  -31.3136   21.4200 H   0  0  0  0  0  0
  -23.3755  -35.9651   23.3294 H   0  0  0  0  0  0
  -24.3596  -36.8924   22.2049 H   0  0  0  0  0  0
  -23.7236  -37.6539   23.6641 H   0  0  0  0  0  0
  -26.0403  -31.6137   20.5976 H   0  0  0  0  0  0
  -26.8164  -30.8939   21.9806 H   0  0  0  0  0  0
  -28.1043  -29.1353   21.1411 H   0  0  0  0  0  0
  -26.0609  -26.0196   18.9731 H   0  0  0  0  0  0
  -23.9772  -27.3136   19.0203 H   0  0  0  0  0  0
  -23.7062  -30.6042   19.4074 H   0  0  0  0  0  0
  -22.7310  -29.2464   19.8752 H   0  0  0  0  0  0
  -25.1290  -36.1999   25.0851 H   0  0  0  0  0  0
  -20.9954  -28.3207   24.1459 H   0  0  0  0  0  0
  -20.5695  -26.2257   23.3593 H   0  0  0  0  0  0
  -21.6628  -26.7469   22.1199 H   0  0  0  0  0  0
  -19.6899  -25.6301   21.1233 H   0  0  0  0  0  0
  -19.6684  -27.3214   20.6771 H   0  0  0  0  0  0
  -17.4198  -26.6691   21.4019 H   0  0  0  0  0  0
  -18.0298  -26.0061   22.9008 H   0  0  0  0  0  0
  -19.7912  -30.7245   24.2307 H   0  0  0  0  0  0
  -17.5002  -31.6272   24.5154 H   0  0  0  0  0  0
  -15.5341  -30.3006   23.7640 H   0  0  0  0  0  0
  -15.8641  -28.0834   22.7064 H   0  0  0  0  0  0
  -24.5934  -30.7026   25.7822 H   0  0  0  0  0  0
  -24.8942  -32.2823   26.4972 H   0  0  0  0  0  0
  -25.8117  -30.8820   27.0226 H   0  0  0  0  0  0
  -26.2819  -29.6817   24.1172 H   0  0  0  0  0  0
  -27.4114  -29.7290   25.4523 H   0  0  0  0  0  0
  -27.8643  -30.4386   23.9195 H   0  0  0  0  0  0
  -27.2710  -33.3609   26.2071 H   0  0  0  0  0  0
  -28.3850  -32.6856   25.0272 H   0  0  0  0  0  0
  -28.0765  -31.8416   26.5358 H   0  0  0  0  0  0
  -28.2613  -38.0107   24.7535 H   0  0  0  0  0  0
  -28.1065  -36.2653   24.6260 H   0  0  0  0  0  0
  -27.2304  -37.1431   25.8857 H   0  0  0  0  0  0
  -20.9282  -29.8744   21.6979 H   0  0  0  0  0  0
  -26.0192  -38.2888   24.1395 H   0  0  0  0  0  0
  -32.6701  -26.7496   20.5509 H   0  0  0  0  0  0
  -34.5855  -25.3910   19.7901 H   0  0  0  0  0  0
  -31.0927  -25.8523   22.2159 H   0  0  0  0  0  0
  -35.9518  -23.5334   19.9109 H   0  0  0  0  0  0
  -34.9647  -22.0845   19.7952 H   0  0  0  0  0  0
  -35.8701  -22.4409   21.2751 H   0  0  0  0  0  0
  -30.3495  -24.1888   23.6920 H   0  0  0  0  0  0
  -31.5321  -23.0431   24.2846 H   0  0  0  0  0  0
  -30.4512  -22.6000   22.9503 H   0  0  0  0  0  0
  -33.2819  -21.7597   23.5511 H   0  0  0  0  0  0
  -34.3022  -21.2755   22.2628 H   0  0  0  0  0  0
  -27.9532  -22.8312   13.6618 H   0  0  0  0  0  0
  -28.2551  -23.2097   11.9886 H   0  0  0  0  0  0
  -30.2669  -19.1673   21.2875 H   0  0  0  0  0  0
  -29.6494  -19.1800   22.8847 H   0  0  0  0  0  0
  -28.0499  -25.2610   15.6974 H   0  0  0  0  0  0
  -28.2880  -23.5318   15.7940 H   0  0  0  0  0  0
  -28.6248  -25.2484   13.2028 H   0  0  0  0  0  0
  -30.1778  -24.6910   12.6656 H   0  0  0  0  0  0
  -30.5646  -17.0975   23.4390 H   0  0  0  0  0  0
  -31.9105  -17.2411   22.3336 H   0  0  0  0  0  0
  -30.6355  -23.7666   14.9817 H   0  0  0  0  0  0
  -30.4442  -25.4937   14.8975 H   0  0  0  0  0  0
  -30.0745  -18.5953   16.8852 H   0  0  0  0  0  0
  -31.5309  -17.9174   16.1981 H   0  0  0  0  0  0
  -31.4460  -20.5798   17.6918 H   0  0  0  0  0  0
  -32.8896  -19.7908   17.0773 H   0  0  0  0  0  0
  -31.7387  -20.0165   14.7611 H   0  0  0  0  0  0
  -30.1967  -20.5390   15.3973 H   0  0  0  0  0  0
  -32.3907  -17.7922   18.5163 H   0  0  0  0  0  0
  -30.9666  -18.6002   19.1185 H   0  0  0  0  0  0
  -29.0828  -18.5252   14.4542 H   0  0  0  0  0  0
  -30.6179  -17.8650   13.9656 H   0  0  0  0  0  0
  -33.8202  -19.6217   19.5332 H   0  0  0  0  0  0
  -32.9544  -18.6240   20.6453 H   0  0  0  0  0  0
  -27.7452  -21.8634   17.1722 H   0  0  0  0  0  0
  -27.6867  -21.7173   18.9103 H   0  0  0  0  0  0
  -25.2598  -22.0442   17.0756 H   0  0  0  0  0  0
  -25.1667  -22.0437   18.8115 H   0  0  0  0  0  0
  -30.4167  -16.9190   20.3819 H   0  0  0  0  0  0
  -29.0137  -16.9458   21.4003 H   0  0  0  0  0  0
  -29.4331  -18.8029   12.0345 H   0  0  0  0  0  0
  -30.9466  -19.6268   12.2885 H   0  0  0  0  0  0
  -31.1138  -20.7447   20.2256 H   0  0  0  0  0  0
  -32.6099  -21.5205   20.0111 H   0  0  0  0  0  0
  -26.5968  -23.9316   19.0912 H   0  0  0  0  0  0
  -26.6663  -24.1740   17.3870 H   0  0  0  0  0  0
  -28.9094  -23.3855   20.2305 H   0  0  0  0  0  0
  -30.1025  -24.5438   19.8000 H   0  0  0  0  0  0
  -24.5933  -19.8516   18.1825 H   0  0  0  0  0  0
  -26.2146  -19.6989   18.8076 H   0  0  0  0  0  0
  -28.7910  -25.4515   21.5868 H   0  0  0  0  0  0
  -27.2860  -25.1152   20.8177 H   0  0  0  0  0  0
  -25.5714  -17.5433   14.2205 H   0  0  0  0  0  0
  -26.8863  -18.6037   14.5125 H   0  0  0  0  0  0
  -23.7868  -17.4330   15.7661 H   0  0  0  0  0  0
  -23.8360  -18.4007   17.1877 H   0  0  0  0  0  0
  -28.1983  -20.6498   12.8067 H   0  0  0  0  0  0
  -29.3301  -14.7998   22.0423 H   0  0  0  0  0  0
  -27.0004  -19.8375   16.4213 H   0  0  0  0  0  0
  1 25  1  0  0  0
  1 30  2  0  0  0
  1108  1  0  0  0
  2  3  1  0  0  0
  2 25  1  0  0  0
  2115  1  0  0  0
  2116  1  0  0  0
  3  4  1  0  0  0
  3117  1  0  0  0
  3118  1  0  0  0
  4  5  1  0  0  0
  4119  1  0  0  0
  4120  1  0  0  0
  5  6  1  0  0  0
  5 26  1  0  0  0
  5121  1  0  0  0
  6 25  1  0  0  0
  6122  1  0  0  0
  6123  1  0  0  0
  7  8  2  0  0  0
  7 26  1  0  0  0
  7 29  1  0  0  0
  8  9  1  0  0  0
  8 22  1  0  0  0
  9 10  1  0  0  0
  9 27  2  0  0  0
 10 11  2  0  0  0
 10 15  1  0  0  0
 11 12  1  0  0  0
 11124  1  0  0  0
 12 13  2  0  0  0
 12125  1  0  0  0
 13 14  1  0  0  0
 13 31  1  0  0  0
 14 15  2  0  0  0
 14126  1  0  0  0
 15127  1  0  0  0
 16 17  2  0  0  0
 16 21  1  0  0  0
 16 31  1  0  0  0
 17 18  1  0  0  0
 17128  1  0  0  0
 18 19  2  0  0  0
 18129  1  0  0  0
 19 20  1  0  0  0
 19 24  1  0  0  0
 20 21  2  0  0  0
 20130  1  0  0  0
 21 23  1  0  0  0
 22 28  1  0  0  0
 22 32  2  0  0  0
 26 27  1  0  0  0
 28131  1  0  0  0
 28132  1  0  0  0
 29133  1  0  0  0
 29134  1  0  0  0
 33 34  1  0  0  0
 33 66  1  0  0  0
 33 70  2  0  0  0
 34 36  1  0  0  0
 34 59  1  0  0  0
 34135  1  0  0  0
 35 44  2  0  0  0
 35 45  1  0  0  0
 35 68  1  0  0  0
 36 56  1  0  0  0
 36136  1  0  0  0
 37 39  1  0  0  0
 37 47  1  0  0  0
 37 66  1  0  0  0
 37137  1  0  0  0
 38 43  2  0  0  0
 38 46  1  0  0  0
 38 47  1  0  0  0
 39 64  1  0  0  0
 39 67  2  0  0  0
 40 52  1  0  0  0
 40 53  2  0  0  0
 40 58  1  0  0  0
 41138  1  0  0  0
 41139  1  0  0  0
 41140  1  0  0  0
 41 48  1  0  0  0
 42 43  1  0  0  0
 42 66  1  0  0  0
 42141  1  0  0  0
 42142  1  0  0  0
 43 44  1  0  0  0
 44143  1  0  0  0
 45 46  2  0  0  0
 45144  1  0  0  0
 46145  1  0  0  0
 47146  1  0  0  0
 47147  1  0  0  0
 48 56  1  0  0  0
 48 65  1  0  0  0
 48148  1  0  0  0
 49 50  1  0  0  0
 49 53  1  0  0  0
 49 64  1  0  0  0
 49149  1  0  0  0
 50 51  1  0  0  0
 50150  1  0  0  0
 50151  1  0  0  0
 51 52  1  0  0  0
 51152  1  0  0  0
 51153  1  0  0  0
 52154  1  0  0  0
 52155  1  0  0  0
 53 54  1  0  0  0
 54 55  2  0  0  0
 54156  1  0  0  0
 55 57  1  0  0  0
 55157  1  0  0  0
 56 69  2  0  0  0
 57 58  2  0  0  0
 57158  1  0  0  0
 58159  1  0  0  0
 59 60  1  0  0  0
 59 61  1  0  0  0
 59 62  1  0  0  0
 60160  1  0  0  0
 60161  1  0  0  0
 60162  1  0  0  0
 61163  1  0  0  0
 61164  1  0  0  0
 61165  1  0  0  0
 62166  1  0  0  0
 62167  1  0  0  0
 62168  1  0  0  0
 63 65  1  0  0  0
 63169  1  0  0  0
 63170  1  0  0  0
 63171  1  0  0  0
 64172  1  0  0  0
 65173  1  0  0  0
 68104  1  0  0  0
 71 72  2  0  0  0
 71 73  1  0  0  0
 71174  1  0  0  0
 72 74  1  0  0  0
 72175  1  0  0  0
 73 75  2  0  0  0
 73176  1  0  0  0
 74 76  2  0  0  0
 74 81  1  0  0  0
 75 76  1  0  0  0
 75 82  1  0  0  0
 76 83  1  0  0  0
 77 84  1  0  0  0
 77107  1  0  0  0
 77112  2  0  0  0
 78 85  1  0  0  0
 78109  1  0  0  0
 78113  2  0  0  0
 79 86  1  0  0  0
 79110  1  0  0  0
 79114  2  0  0  0
 80105  1  0  0  0
 80106  2  0  0  0
 80111  1  0  0  0
 81177  1  0  0  0
 81178  1  0  0  0
 81179  1  0  0  0
 82180  1  0  0  0
 82181  1  0  0  0
 82182  1  0  0  0
 83109  1  0  0  0
 83183  1  0  0  0
 83184  1  0  0  0
 84 87  1  0  0  0
 84185  1  0  0  0
 84186  1  0  0  0
 85 88  1  0  0  0
 85187  1  0  0  0
 85188  1  0  0  0
 86 89  1  0  0  0
 86189  1  0  0  0
 86190  1  0  0  0
 87 89  1  0  0  0
 87191  1  0  0  0
 87192  1  0  0  0
 88 98  1  0  0  0
 88193  1  0  0  0
 88194  1  0  0  0
 89195  1  0  0  0
 89196  1  0  0  0
 90 91  1  0  0  0
 90 92  1  0  0  0
 90197  1  0  0  0
 90198  1  0  0  0
 91 93  1  0  0  0
 91199  1  0  0  0
 91200  1  0  0  0
 92 94  1  0  0  0
 92201  1  0  0  0
 92202  1  0  0  0
 93 95  1  0  0  0
 93203  1  0  0  0
 93204  1  0  0  0
 94 99  1  0  0  0
 94205  1  0  0  0
 94206  1  0  0  0
 95100  1  0  0  0
 95207  1  0  0  0
 95208  1  0  0  0
 96 97  1  0  0  0
 96101  1  0  0  0
 96209  1  0  0  0
 96210  1  0  0  0
 97103  1  0  0  0
 97211  1  0  0  0
 97212  1  0  0  0
 98108  1  0  0  0
 98213  1  0  0  0
 98214  1  0  0  0
 99107  1  0  0  0
 99215  1  0  0  0
 99216  1  0  0  0
100109  1  0  0  0
100217  1  0  0  0
100218  1  0  0  0
101110  1  0  0  0
101219  1  0  0  0
101220  1  0  0  0
102104  1  0  0  0
102110  1  0  0  0
102221  1  0  0  0
102222  1  0  0  0
103111  1  0  0  0
103223  1  0  0  0
103224  1  0  0  0
104225  1  0  0  0
104226  1  0  0  0
105227  1  0  0  0
105228  1  0  0  0
106229  1  0  0  0
106230  1  0  0  0
107231  1  0  0  0
108232  1  0  0  0
111233  1  0  0  0
M  CHG  1 106   1
M  ISO  4   1 100  68 101 104 101 108 100
M  END
> <chiral flag>
0

> <version>
0

> <s_m_source_file>
/data/baiqing/PycharmProjects/Reinvent-master-3.2/result/LINK_invent/BTK/process_docking_weight1_custom_sum_contain_oxygen_bond_distance_aromatic_linkinvent_7_9_3/rearranged_h_0005.sdf

> <i_m_source_file_index>
75

> <r_mmod_Potential_Energy-OPLS-2005>
-402.010192871094

> <r_mmod_Stretch_Energy-OPLS-2005>
44.4494743347168

> <r_mmod_Bend_Energy-OPLS-2005>
122.439826965332

> <r_mmod_Torsional_Energy-OPLS-2005>
311.865631103516

> <r_mmod_Improper_Torsional_Energy-OPLS-2005>
4.44749116897583

> <r_mmod_Van_der_Waal_Energy-OPLS-2005>
149.637832641602

> <r_mmod_Electrostatic_Energy-OPLS-2005>
-476.296264648438

> <r_mmod_Solvation_Energy-OPLS-2005>
-566.389221191406

> <b_mmod_Minimization_Converged-OPLS-2005>
0

> <r_mmod_RMS_Derivative-OPLS-2005>
4.52885055541992

$$$$
76
                    3D
 Structure written by MMmdl.
174183  0  0  1  0            999 V2000
  -30.8050  -14.3025   20.7346 C   0  0  0  0  0  0
  -30.4126  -12.2721   19.3916 C   0  0  0  0  0  0
  -29.4861  -12.5335   18.1908 C   0  0  0  0  0  0
  -28.0114  -12.3761   18.6044 C   0  0  0  0  0  0
  -27.6691  -13.1992   19.8730 C   0  0  2  0  0  0
  -28.7009  -12.9454   20.9947 C   0  0  0  0  0  0
  -25.2640  -13.8141   20.5677 C   0  0  0  0  0  0
  -24.1871  -13.0451   20.9133 C   0  0  0  0  0  0
  -24.6388  -11.6901   20.8693 C   0  0  0  0  0  0
  -23.9032  -10.4315   21.0389 C   0  0  0  0  0  0
  -24.3598   -9.4238   21.9173 C   0  0  0  0  0  0
  -23.6290   -8.2260   22.0755 C   0  0  0  0  0  0
  -22.4271   -8.0282   21.3544 C   0  0  0  0  0  0
  -21.9900   -9.0244   20.4638 C   0  0  0  0  0  0
  -22.7211  -10.2124   20.3040 C   0  0  0  0  0  0
  -21.6847   -6.0728   22.5277 C   0  0  0  0  0  0
  -21.4015   -6.5633   23.8209 C   0  0  0  0  0  0
  -21.3671   -5.6790   24.9176 C   0  0  0  0  0  0
  -21.6036   -4.3045   24.7222 C   0  0  0  0  0  0
  -21.8826   -3.8138   23.4339 C   0  0  0  0  0  0
  -21.9197   -4.6959   22.3400 C   0  0  0  0  0  0
  -22.7891  -13.5252   21.1824 C   0  0  0  0  0  0
  -22.1667   -4.2142   21.0978 F   0  0  0  0  0  0
  -21.5631   -3.4528   25.7739 F   0  0  0  0  0  0
  -30.0610  -13.1993   20.4745 N   0  0  0  0  0  0
  -26.3063  -12.9307   20.3303 N   0  0  0  0  0  0
  -25.9307  -11.6466   20.5691 N   0  0  0  0  0  0
  -22.0510  -12.8266   22.0373 N   0  0  0  0  0  0
  -25.4401  -15.1867   20.4158 N   0  0  0  0  0  0
  -31.7540  -14.6614   20.0298 O   0  0  0  0  0  0
  -21.6641   -6.8868   21.4242 O   0  0  0  0  0  0
  -22.3594  -14.5573   20.6678 O   0  0  0  0  0  0
  -24.6151  -31.8643   23.2122 C   0  0  0  0  0  0
  -25.9078  -32.4787   23.8392 C   0  0  1  0  0  0
  -27.2232  -27.4831   20.0994 C   0  0  0  0  0  0
  -25.5947  -33.8590   24.2336 N   0  0  0  0  0  0
  -23.3895  -30.4923   21.5542 C   0  0  2  0  0  0
  -24.8319  -28.9689   20.1050 C   0  0  0  0  0  0
  -22.7386  -29.4655   22.5062 C   0  0  0  0  0  0
  -18.0198  -28.1404   22.8565 C   0  0  0  0  0  0
  -24.1455  -36.7304   23.2648 C   0  0  0  0  0  0
  -25.9113  -30.8595   21.3432 C   0  0  0  0  0  0
  -25.9885  -29.5013   20.6863 C   0  0  0  0  0  0
  -27.1924  -28.7729   20.6689 C   0  0  0  0  0  0
  -26.0642  -26.9608   19.4924 C   0  0  0  0  0  0
  -24.8653  -27.6986   19.4986 C   0  0  0  0  0  0
  -23.5872  -29.8260   20.1647 C   0  0  0  0  0  0
  -25.4084  -36.3089   24.0352 C   0  0  1  0  0  0
  -20.5808  -28.3584   23.1373 C   0  0  2  0  0  0
  -20.6647  -26.9341   22.5413 C   0  0  0  0  0  0
  -19.5561  -26.6377   21.5234 C   0  0  0  0  0  0
  -18.1779  -26.7960   22.1682 C   0  0  0  0  0  0
  -19.1491  -28.8808   23.2956 C   0  0  0  0  0  0
  -18.9488  -30.1413   23.8981 C   0  0  0  0  0  0
  -17.6514  -30.6621   24.0637 C   0  0  0  0  0  0
  -25.9023  -34.9445   23.5104 C   0  0  0  0  0  0
  -16.5371  -29.9175   23.6406 C   0  0  0  0  0  0
  -16.7217  -28.6578   23.0446 C   0  0  0  0  0  0
  -26.4528  -31.6554   25.0663 C   0  0  0  0  0  0
  -25.3802  -31.3650   26.1412 C   0  0  0  0  0  0
  -27.0395  -30.3038   24.5951 C   0  0  0  0  0  0
  -27.6106  -32.4266   25.7442 C   0  0  0  0  0  0
  -27.5546  -37.1826   24.8476 C   0  0  0  0  0  0
  -21.4112  -29.3007   22.3891 N   0  0  0  0  0  0
  -26.4226  -37.3801   23.9446 N   0  0  0  0  0  0
  -24.6580  -31.0821   22.0977 N   0  0  0  0  0  0
  -23.4188  -28.8206   23.3080 O   0  0  0  0  0  0
  -28.3519  -26.7094   20.1717 O   0  0  0  0  0  0
  -26.5540  -34.8880   22.4636 O   0  0  0  0  0  0
  -23.5375  -32.1386   23.7566 O   0  0  0  0  0  0
  -31.4986  -18.4885   22.0416 C   0  0  0  0  0  0
  -31.5233  -17.1259   21.7115 C   0  0  0  0  0  0
  -26.2006  -20.6836   24.6519 C   0  0  0  0  0  0
  -26.1676  -20.4010   22.2266 C   0  0  0  0  0  0
  -25.6993  -21.9901   24.5046 C   0  0  0  0  0  0
  -25.6590  -21.7029   22.0818 C   0  0  0  0  0  0
  -29.5905  -18.0994   23.5114 C   0  0  0  0  0  0
  -30.5243  -18.9997   22.9207 C   0  0  0  0  0  0
  -29.6689  -16.7023   23.2531 C   0  0  0  0  0  0
  -26.5275  -19.9273   23.5052 C   0  0  0  0  0  0
  -25.5289  -22.5316   23.2165 C   0  0  0  0  0  0
  -30.5996  -16.2282   22.2943 C   0  0  0  0  0  0
  -28.4422  -18.6616   24.2877 C   0  0  0  0  0  0
  -26.1268  -24.8191   22.5499 C   0  0  0  0  0  0
  -28.7225  -15.7198   23.9550 C   0  0  0  0  0  0
  -27.3521  -24.3681   21.7171 C   0  0  0  0  0  0
  -28.6903  -25.0841   21.9902 C   0  0  0  0  0  0
  -28.8178  -26.5411   21.5183 C   0  0  0  0  0  0
  -30.4803  -20.5133   23.1824 C   0  0  0  0  0  0
  -27.3170  -18.7563   23.5613 N   0  0  0  0  0  0
  -25.2865  -23.9159   23.0900 N   0  0  0  0  0  0
  -30.5277  -14.8596   21.9215 N   0  0  0  0  0  0
  -28.5492  -18.9427   25.4833 O   0  0  0  0  0  0
  -25.9405  -26.0150   22.7630 O   0  0  0  0  0  0
  -31.4789  -21.1460   22.5647 F   0  0  0  0  0  0
  -29.3431  -21.0440   22.7337 F   0  0  0  0  0  0
  -30.5993  -20.7724   24.4835 F   0  0  0  0  0  0
  -31.4596  -12.3549   19.0950 H   0  0  0  0  0  0
  -30.2867  -11.2455   19.7403 H   0  0  0  0  0  0
  -29.7260  -11.8486   17.3756 H   0  0  0  0  0  0
  -29.6524  -13.5401   17.8041 H   0  0  0  0  0  0
  -27.8257  -11.3161   18.7831 H   0  0  0  0  0  0
  -27.3535  -12.6614   17.7848 H   0  0  0  0  0  0
  -27.7304  -14.2531   19.5993 H   0  0  0  0  0  0
  -28.6382  -11.9127   21.3389 H   0  0  0  0  0  0
  -28.4383  -13.5531   21.8597 H   0  0  0  0  0  0
  -25.2750   -9.5719   22.4748 H   0  0  0  0  0  0
  -24.0002   -7.4654   22.7494 H   0  0  0  0  0  0
  -21.0828   -8.8731   19.8956 H   0  0  0  0  0  0
  -22.3654  -10.9648   19.6138 H   0  0  0  0  0  0
  -21.2005   -7.6140   23.9712 H   0  0  0  0  0  0
  -21.1488   -6.0513   25.9073 H   0  0  0  0  0  0
  -22.0596   -2.7601   23.2835 H   0  0  0  0  0  0
  -22.4107  -11.9896   22.4745 H   0  0  0  0  0  0
  -21.1113  -13.1301   22.2549 H   0  0  0  0  0  0
  -24.6780  -15.8438   20.5397 H   0  0  0  0  0  0
  -26.2960  -15.6237   20.0993 H   0  0  0  0  0  0
  -26.7157  -32.5511   23.1176 H   0  0  0  0  0  0
  -25.0255  -33.9770   25.0592 H   0  0  0  0  0  0
  -22.6703  -31.3051   21.4259 H   0  0  0  0  0  0
  -23.3684  -35.9662   23.3287 H   0  0  0  0  0  0
  -24.3579  -36.8880   22.2055 H   0  0  0  0  0  0
  -23.7199  -37.6523   23.6634 H   0  0  0  0  0  0
  -26.0015  -31.6304   20.5784 H   0  0  0  0  0  0
  -26.8139  -30.9167   21.9403 H   0  0  0  0  0  0
  -28.0878  -29.1940   21.1073 H   0  0  0  0  0  0
  -26.0706  -25.9735   19.0516 H   0  0  0  0  0  0
  -23.9790  -27.2709   19.0531 H   0  0  0  0  0  0
  -23.6978  -30.6052   19.4089 H   0  0  0  0  0  0
  -22.7031  -29.2509   19.8714 H   0  0  0  0  0  0
  -25.1264  -36.1932   25.0846 H   0  0  0  0  0  0
  -20.9876  -28.3025   24.1499 H   0  0  0  0  0  0
  -20.5502  -26.2212   23.3594 H   0  0  0  0  0  0
  -21.6525  -26.7325   22.1248 H   0  0  0  0  0  0
  -19.6637  -25.6285   21.1259 H   0  0  0  0  0  0
  -19.6405  -27.3160   20.6729 H   0  0  0  0  0  0
  -17.4005  -26.6769   21.4113 H   0  0  0  0  0  0
  -18.0030  -26.0092   22.9044 H   0  0  0  0  0  0
  -19.8012  -30.7142   24.2402 H   0  0  0  0  0  0
  -17.5146  -31.6275   24.5297 H   0  0  0  0  0  0
  -15.5413  -30.3126   23.7812 H   0  0  0  0  0  0
  -15.8560  -28.0944   22.7230 H   0  0  0  0  0  0
  -24.5972  -30.6986   25.7760 H   0  0  0  0  0  0
  -24.9027  -32.2807   26.4906 H   0  0  0  0  0  0
  -25.8177  -30.8799   27.0137 H   0  0  0  0  0  0
  -26.2916  -29.6709   24.1132 H   0  0  0  0  0  0
  -27.4416  -29.7323   25.4333 H   0  0  0  0  0  0
  -27.8596  -30.4477   23.8899 H   0  0  0  0  0  0
  -27.2751  -33.3561   26.2072 H   0  0  0  0  0  0
  -28.3911  -32.6833   25.0252 H   0  0  0  0  0  0
  -28.0773  -31.8342   26.5319 H   0  0  0  0  0  0
  -28.2624  -38.0082   24.7513 H   0  0  0  0  0  0
  -28.1004  -36.2632   24.6315 H   0  0  0  0  0  0
  -27.2287  -37.1410   25.8886 H   0  0  0  0  0  0
  -20.9182  -29.9070   21.7491 H   0  0  0  0  0  0
  -26.0086  -38.2862   24.1486 H   0  0  0  0  0  0
  -32.2069  -19.1544   21.5694 H   0  0  0  0  0  0
  -32.2586  -16.8066   20.9911 H   0  0  0  0  0  0
  -26.4173  -20.3094   25.6412 H   0  0  0  0  0  0
  -26.3869  -19.8227   21.3386 H   0  0  0  0  0  0
  -25.5351  -22.5998   25.3831 H   0  0  0  0  0  0
  -25.4892  -22.0902   21.0869 H   0  0  0  0  0  0
  -28.4791  -16.0397   24.9697 H   0  0  0  0  0  0
  -29.1671  -14.7321   24.0726 H   0  0  0  0  0  0
  -27.7932  -15.6107   23.3957 H   0  0  0  0  0  0
  -27.1087  -24.4246   20.6596 H   0  0  0  0  0  0
  -27.5781  -23.3263   21.9067 H   0  0  0  0  0  0
  -29.4858  -24.5024   21.5226 H   0  0  0  0  0  0
  -28.8994  -25.0384   23.0595 H   0  0  0  0  0  0
  -29.8639  -26.8420   21.5474 H   0  0  0  0  0  0
  -28.3171  -27.1739   22.2545 H   0  0  0  0  0  0
  -27.3713  -18.2559   22.6855 H   0  0  0  0  0  0
  -24.5748  -24.3052   23.6908 H   0  0  0  0  0  0
  -29.8674  -14.3126   22.4510 H   0  0  0  0  0  0
  1 25  1  0  0  0
  1 30  2  0  0  0
  1 92  1  0  0  0
  2  3  1  0  0  0
  2 25  1  0  0  0
  2 98  1  0  0  0
  2 99  1  0  0  0
  3  4  1  0  0  0
  3100  1  0  0  0
  3101  1  0  0  0
  4  5  1  0  0  0
  4102  1  0  0  0
  4103  1  0  0  0
  5  6  1  0  0  0
  5 26  1  0  0  0
  5104  1  0  0  0
  6 25  1  0  0  0
  6105  1  0  0  0
  6106  1  0  0  0
  7  8  2  0  0  0
  7 26  1  0  0  0
  7 29  1  0  0  0
  8  9  1  0  0  0
  8 22  1  0  0  0
  9 10  1  0  0  0
  9 27  2  0  0  0
 10 11  2  0  0  0
 10 15  1  0  0  0
 11 12  1  0  0  0
 11107  1  0  0  0
 12 13  2  0  0  0
 12108  1  0  0  0
 13 14  1  0  0  0
 13 31  1  0  0  0
 14 15  2  0  0  0
 14109  1  0  0  0
 15110  1  0  0  0
 16 17  2  0  0  0
 16 21  1  0  0  0
 16 31  1  0  0  0
 17 18  1  0  0  0
 17111  1  0  0  0
 18 19  2  0  0  0
 18112  1  0  0  0
 19 20  1  0  0  0
 19 24  1  0  0  0
 20 21  2  0  0  0
 20113  1  0  0  0
 21 23  1  0  0  0
 22 28  1  0  0  0
 22 32  2  0  0  0
 26 27  1  0  0  0
 28114  1  0  0  0
 28115  1  0  0  0
 29116  1  0  0  0
 29117  1  0  0  0
 33 34  1  0  0  0
 33 66  1  0  0  0
 33 70  2  0  0  0
 34 36  1  0  0  0
 34 59  1  0  0  0
 34118  1  0  0  0
 35 44  2  0  0  0
 35 45  1  0  0  0
 35 68  1  0  0  0
 36 56  1  0  0  0
 36119  1  0  0  0
 37 39  1  0  0  0
 37 47  1  0  0  0
 37 66  1  0  0  0
 37120  1  0  0  0
 38 43  2  0  0  0
 38 46  1  0  0  0
 38 47  1  0  0  0
 39 64  1  0  0  0
 39 67  2  0  0  0
 40 52  1  0  0  0
 40 53  2  0  0  0
 40 58  1  0  0  0
 41121  1  0  0  0
 41122  1  0  0  0
 41123  1  0  0  0
 41 48  1  0  0  0
 42 43  1  0  0  0
 42 66  1  0  0  0
 42124  1  0  0  0
 42125  1  0  0  0
 43 44  1  0  0  0
 44126  1  0  0  0
 45 46  2  0  0  0
 45127  1  0  0  0
 46128  1  0  0  0
 47129  1  0  0  0
 47130  1  0  0  0
 48 56  1  0  0  0
 48 65  1  0  0  0
 48131  1  0  0  0
 49 50  1  0  0  0
 49 53  1  0  0  0
 49 64  1  0  0  0
 49132  1  0  0  0
 50 51  1  0  0  0
 50133  1  0  0  0
 50134  1  0  0  0
 51 52  1  0  0  0
 51135  1  0  0  0
 51136  1  0  0  0
 52137  1  0  0  0
 52138  1  0  0  0
 53 54  1  0  0  0
 54 55  2  0  0  0
 54139  1  0  0  0
 55 57  1  0  0  0
 55140  1  0  0  0
 56 69  2  0  0  0
 57 58  2  0  0  0
 57141  1  0  0  0
 58142  1  0  0  0
 59 60  1  0  0  0
 59 61  1  0  0  0
 59 62  1  0  0  0
 60143  1  0  0  0
 60144  1  0  0  0
 60145  1  0  0  0
 61146  1  0  0  0
 61147  1  0  0  0
 61148  1  0  0  0
 62149  1  0  0  0
 62150  1  0  0  0
 62151  1  0  0  0
 63 65  1  0  0  0
 63152  1  0  0  0
 63153  1  0  0  0
 63154  1  0  0  0
 64155  1  0  0  0
 65156  1  0  0  0
 68 88  1  0  0  0
 71 72  2  0  0  0
 71 78  1  0  0  0
 71157  1  0  0  0
 72 82  1  0  0  0
 72158  1  0  0  0
 73 75  2  0  0  0
 73 80  1  0  0  0
 73159  1  0  0  0
 74 76  1  0  0  0
 74 80  2  0  0  0
 74160  1  0  0  0
 75 81  1  0  0  0
 75161  1  0  0  0
 76 81  2  0  0  0
 76162  1  0  0  0
 77 78  2  0  0  0
 77 79  1  0  0  0
 77 83  1  0  0  0
 78 89  1  0  0  0
 79 82  2  0  0  0
 79 85  1  0  0  0
 80 90  1  0  0  0
 81 91  1  0  0  0
 82 92  1  0  0  0
 83 90  1  0  0  0
 83 93  2  0  0  0
 84 86  1  0  0  0
 84 91  1  0  0  0
 84 94  2  0  0  0
 85163  1  0  0  0
 85164  1  0  0  0
 85165  1  0  0  0
 86 87  1  0  0  0
 86166  1  0  0  0
 86167  1  0  0  0
 87 88  1  0  0  0
 87168  1  0  0  0
 87169  1  0  0  0
 88170  1  0  0  0
 88171  1  0  0  0
 89 95  1  0  0  0
 89 96  1  0  0  0
 89 97  1  0  0  0
 90172  1  0  0  0
 91173  1  0  0  0
 92174  1  0  0  0
M  ISO  4   1 100  68 101  88 101  92 100
M  END
> <chiral flag>
0

> <version>
0

> <s_m_source_file>
/data/baiqing/PycharmProjects/Reinvent-master-3.2/result/LINK_invent/BTK/process_docking_weight1_custom_sum_contain_oxygen_bond_distance_aromatic_linkinvent_7_9_3/rearranged_h_0005.sdf

> <i_m_source_file_index>
76

> <r_mmod_Potential_Energy-OPLS-2005>
-68.4401245117188

> <r_mmod_Stretch_Energy-OPLS-2005>
37.6045799255371

> <r_mmod_Bend_Energy-OPLS-2005>
110.53636932373

> <r_mmod_Torsional_Energy-OPLS-2005>
356.085418701172

> <r_mmod_Improper_Torsional_Energy-OPLS-2005>
11.0471811294556

> <r_mmod_Van_der_Waal_Energy-OPLS-2005>
179.683990478516

> <r_mmod_Electrostatic_Energy-OPLS-2005>
-524.201049804688

> <r_mmod_Solvation_Energy-OPLS-2005>
-249.556365966797

> <b_mmod_Minimization_Converged-OPLS-2005>
0

> <r_mmod_RMS_Derivative-OPLS-2005>
5.00022029876709

$$$$
77
                    3D
 Structure written by MMmdl.
176184  0  0  1  0            999 V2000
  -30.8920  -14.0590   20.9628 C   0  0  0  0  0  0
  -30.5963  -12.2588   19.2413 C   0  0  0  0  0  0
  -29.6496  -12.4358   18.0330 C   0  0  0  0  0  0
  -28.1845  -12.2587   18.4302 C   0  0  0  0  0  0
  -27.9912  -13.1713   19.6086 C   0  0  2  0  0  0
  -28.8295  -12.8557   20.7824 C   0  0  0  0  0  0
  -25.9949  -14.6127   20.6282 C   0  0  0  0  0  0
  -23.9362  -13.6703   21.2700 C   0  0  0  0  0  0
  -24.3668  -11.9668   20.8876 C   0  0  0  0  0  0
  -23.7362  -10.6169   21.0584 C   0  0  0  0  0  0
  -24.2811   -9.5951   21.8962 C   0  0  0  0  0  0
  -23.6289   -8.3408   22.0536 C   0  0  0  0  0  0
  -22.4298   -8.0769   21.3496 C   0  0  0  0  0  0
  -21.9454   -9.0571   20.4611 C   0  0  0  0  0  0
  -22.5908  -10.2981   20.3137 C   0  0  0  0  0  0
  -21.7160   -6.0901   22.5262 C   0  0  0  0  0  0
  -21.4208   -6.5791   23.8182 C   0  0  0  0  0  0
  -21.3680   -5.6922   24.9138 C   0  0  0  0  0  0
  -21.6018   -4.3169   24.7212 C   0  0  0  0  0  0
  -21.8797   -3.8253   23.4341 C   0  0  0  0  0  0
  -21.9297   -4.7076   22.3408 C   0  0  0  0  0  0
  -22.4980  -13.9181   21.4677 C   0  0  0  0  0  0
  -22.1694   -4.2207   21.0991 F   0  0  0  0  0  0
  -21.5542   -3.4642   25.7717 F   0  0  0  0  0  0
  -30.1841  -13.0838   20.3802 N   0  0  0  0  0  0
  -26.7379  -13.1798   20.1160 N   0  0  0  0  0  0
  -25.8414  -11.8176   20.2881 N   0  0  0  0  0  0
  -21.8965  -13.0027   22.2160 N   0  0  0  0  0  0
  -26.7485  -15.7381   20.3944 N   0  0  0  0  0  0
  -31.7232  -14.7352   20.3410 O   0  0  0  0  0  0
  -21.7137   -6.9010   21.4160 O   0  0  0  0  0  0
  -21.8900  -14.7762   20.8578 O   0  0  0  0  0  0
  -24.6663  -31.8318   23.1842 C   0  0  0  0  0  0
  -25.9390  -32.4581   23.8250 C   0  0  1  0  0  0
  -26.8566  -26.8218   20.2014 C   0  0  0  0  0  0
  -25.6061  -33.8406   24.2126 N   0  0  0  0  0  0
  -23.4635  -30.4736   21.5393 C   0  0  2  0  0  0
  -24.8550  -28.9141   20.0671 C   0  0  0  0  0  0
  -22.7668  -29.4456   22.4740 C   0  0  0  0  0  0
  -18.0333  -28.1410   22.8469 C   0  0  0  0  0  0
  -24.1496  -36.7165   23.2640 C   0  0  0  0  0  0
  -26.0415  -30.6006   21.4327 C   0  0  0  0  0  0
  -26.0420  -29.2031   20.7511 C   0  0  0  0  0  0
  -27.0693  -28.1581   20.8126 C   0  0  0  0  0  0
  -25.7486  -26.7704   19.3567 C   0  0  0  0  0  0
  -24.7495  -27.7406   19.3281 C   0  0  0  0  0  0
  -23.6805  -29.8683   20.1337 C   0  0  0  0  0  0
  -25.4139  -36.2950   24.0303 C   0  0  1  0  0  0
  -20.5968  -28.3730   23.1183 C   0  0  2  0  0  0
  -20.6820  -26.9408   22.5391 C   0  0  0  0  0  0
  -19.5774  -26.6379   21.5220 C   0  0  0  0  0  0
  -18.1958  -26.7938   22.1645 C   0  0  0  0  0  0
  -19.1598  -28.8898   23.2823 C   0  0  0  0  0  0
  -18.9505  -30.1492   23.8856 C   0  0  0  0  0  0
  -17.6491  -30.6591   24.0559 C   0  0  0  0  0  0
  -25.9125  -34.9335   23.5014 C   0  0  0  0  0  0
  -16.5381  -29.9072   23.6349 C   0  0  0  0  0  0
  -16.7315  -28.6503   23.0353 C   0  0  0  0  0  0
  -26.4611  -31.6540   25.0800 C   0  0  0  0  0  0
  -25.3739  -31.3769   26.1448 C   0  0  0  0  0  0
  -27.0514  -30.2898   24.6588 C   0  0  0  0  0  0
  -27.6088  -32.4366   25.7600 C   0  0  0  0  0  0
  -27.5572  -37.1742   24.8468 C   0  0  0  0  0  0
  -21.4343  -29.3020   22.3522 N   0  0  0  0  0  0
  -26.4269  -37.3701   23.9420 N   0  0  0  0  0  0
  -24.7480  -31.0003   22.0985 N   0  0  0  0  0  0
  -23.4242  -28.7924   23.2891 O   0  0  0  0  0  0
  -27.4550  -25.4835   20.3820 O   0  0  0  0  0  0
  -26.5713  -34.8848   22.4598 O   0  0  0  0  0  0
  -23.5758  -32.1303   23.6961 O   0  0  0  0  0  0
  -24.1110  -15.3134   19.3681 C   0  0  0  0  0  0
  -24.6618  -13.6680   19.2944 C   0  0  0  0  0  0
  -25.3754  -14.6617   22.9709 C   0  0  0  0  0  0
  -24.7007  -15.9880   22.2395 C   0  0  0  0  0  0
  -24.2772  -16.4096   20.6821 C   0  0  0  0  0  0
  -25.7867  -13.2278   22.2077 C   0  0  0  0  0  0
  -25.4147  -19.1270   20.5919 C   0  0  0  0  0  0
  -24.6915  -17.1454   23.2294 C   0  0  0  0  0  0
  -20.6476  -18.0486   19.9163 C   0  0  0  0  0  0
  -25.3940  -20.8886   20.3148 C   0  0  0  0  0  0
  -21.9450  -18.3394   20.6728 C   0  0  0  0  0  0
  -26.5693  -22.2785   20.5703 C   0  0  0  0  0  0
  -29.1479  -12.5089   23.9714 C   0  0  0  0  0  0
  -23.1631  -18.5007   19.7366 C   0  0  0  0  0  0
  -30.4901  -12.8614   23.1687 C   0  0  0  0  0  0
  -26.5448  -24.0696   20.1984 C   0  0  0  0  0  0
  -27.6678  -13.0119   23.7297 C   0  0  0  0  0  0
  -30.7008  -14.0905   22.3168 N   0  0  0  0  0  0
  -24.3872  -18.0338   20.3881 N   0  0  0  0  0  0
  -26.5121  -18.7509   21.0105 O   0  0  0  0  0  0
  -26.7622  -12.3746   22.7658 O   0  0  0  0  0  0
  -31.6209  -12.4775   18.9347 H   0  0  0  0  0  0
  -30.5960  -11.2162   19.5606 H   0  0  0  0  0  0
  -29.9096  -11.7256   17.2473 H   0  0  0  0  0  0
  -29.8046  -13.4279   17.6019 H   0  0  0  0  0  0
  -27.9703  -11.2210   18.6850 H   0  0  0  0  0  0
  -27.5273  -12.5303   17.6024 H   0  0  0  0  0  0
  -28.2292  -14.1746   19.2528 H   0  0  0  0  0  0
  -28.6856  -11.8393   21.1479 H   0  0  0  0  0  0
  -28.5252  -13.5739   21.5365 H   0  0  0  0  0  0
  -25.1897   -9.7987   22.4464 H   0  0  0  0  0  0
  -24.0470   -7.5959   22.7176 H   0  0  0  0  0  0
  -21.0450   -8.8649   19.8945 H   0  0  0  0  0  0
  -22.1758  -11.0362   19.6412 H   0  0  0  0  0  0
  -21.2275   -7.6315   23.9697 H   0  0  0  0  0  0
  -21.1403   -6.0664   25.9019 H   0  0  0  0  0  0
  -22.0472   -2.7700   23.2849 H   0  0  0  0  0  0
  -22.4317  -12.2829   22.6801 H   0  0  0  0  0  0
  -20.8975  -13.0481   22.3539 H   0  0  0  0  0  0
  -26.4549  -16.6636   20.6862 H   0  0  0  0  0  0
  -27.6832  -15.7264   20.0182 H   0  0  0  0  0  0
  -26.7452  -32.5009   23.0940 H   0  0  0  0  0  0
  -25.0155  -33.9519   25.0237 H   0  0  0  0  0  0
  -22.7782  -31.3138   21.4138 H   0  0  0  0  0  0
  -23.3788  -35.9457   23.3258 H   0  0  0  0  0  0
  -24.3585  -36.8858   22.2060 H   0  0  0  0  0  0
  -23.7213  -37.6319   23.6737 H   0  0  0  0  0  0
  -26.2578  -31.3447   20.6641 H   0  0  0  0  0  0
  -26.8989  -30.6165   22.0962 H   0  0  0  0  0  0
  -27.9279  -28.3121   21.4520 H   0  0  0  0  0  0
  -25.5317  -25.8902   18.7749 H   0  0  0  0  0  0
  -23.8645  -27.5637   18.7296 H   0  0  0  0  0  0
  -23.8615  -30.6695   19.4126 H   0  0  0  0  0  0
  -22.7742  -29.3590   19.7987 H   0  0  0  0  0  0
  -25.1330  -36.1732   25.0795 H   0  0  0  0  0  0
  -21.0105  -28.3337   24.1289 H   0  0  0  0  0  0
  -20.5741  -26.2329   23.3623 H   0  0  0  0  0  0
  -21.6666  -26.7388   22.1151 H   0  0  0  0  0  0
  -19.6909  -25.6284   21.1248 H   0  0  0  0  0  0
  -19.6718  -27.3211   20.6762 H   0  0  0  0  0  0
  -17.4223  -26.6697   21.4047 H   0  0  0  0  0  0
  -18.0328  -26.0104   22.9070 H   0  0  0  0  0  0
  -19.7973  -30.7330   24.2208 H   0  0  0  0  0  0
  -17.5025  -31.6262   24.5171 H   0  0  0  0  0  0
  -15.5369  -30.2951   23.7697 H   0  0  0  0  0  0
  -15.8723  -28.0813   22.7070 H   0  0  0  0  0  0
  -24.5976  -30.7061   25.7764 H   0  0  0  0  0  0
  -24.8859  -32.2938   26.4745 H   0  0  0  0  0  0
  -25.7979  -30.9032   27.0313 H   0  0  0  0  0  0
  -26.3190  -29.6550   24.1587 H   0  0  0  0  0  0
  -27.3989  -29.7301   25.5283 H   0  0  0  0  0  0
  -27.9162  -30.4048   24.0050 H   0  0  0  0  0  0
  -27.2653  -33.3717   26.2028 H   0  0  0  0  0  0
  -28.3957  -32.6851   25.0476 H   0  0  0  0  0  0
  -28.0694  -31.8606   26.5634 H   0  0  0  0  0  0
  -28.2525  -38.0105   24.7578 H   0  0  0  0  0  0
  -28.1149  -36.2628   24.6229 H   0  0  0  0  0  0
  -27.2307  -37.1281   25.8879 H   0  0  0  0  0  0
  -20.9575  -29.8777   21.6732 H   0  0  0  0  0  0
  -26.0100  -38.2736   24.1494 H   0  0  0  0  0  0
  -23.8233  -15.7455   18.4194 H   0  0  0  0  0  0
  -24.7381  -13.0567   18.4029 H   0  0  0  0  0  0
  -25.6622  -14.7703   24.0038 H   0  0  0  0  0  0
  -24.5686  -16.7945   24.2549 H   0  0  0  0  0  0
  -23.8903  -17.8551   23.0316 H   0  0  0  0  0  0
  -25.6429  -17.6773   23.1892 H   0  0  0  0  0  0
  -19.8222  -17.8946   20.6110 H   0  0  0  0  0  0
  -20.7446  -17.1344   19.3294 H   0  0  0  0  0  0
  -20.3795  -18.8600   19.2419 H   0  0  0  0  0  0
  -24.4926  -21.2042   20.8399 H   0  0  0  0  0  0
  -25.1310  -20.9657   19.2606 H   0  0  0  0  0  0
  -22.0903  -17.5157   21.3709 H   0  0  0  0  0  0
  -21.8333  -19.2278   21.2957 H   0  0  0  0  0  0
  -27.4916  -21.9358   20.1029 H   0  0  0  0  0  0
  -26.8045  -22.2355   21.6329 H   0  0  0  0  0  0
  -29.3601  -12.8429   24.9871 H   0  0  0  0  0  0
  -29.1140  -11.4254   24.0840 H   0  0  0  0  0  0
  -23.2249  -19.5295   19.3819 H   0  0  0  0  0  0
  -23.0294  -17.9050   18.8346 H   0  0  0  0  0  0
  -30.7507  -11.9737   22.5908 H   0  0  0  0  0  0
  -31.2979  -12.8856   23.9028 H   0  0  0  0  0  0
  -25.5675  -24.3614   20.5833 H   0  0  0  0  0  0
  -26.4230  -24.0359   19.1172 H   0  0  0  0  0  0
  -27.7433  -14.0872   23.5922 H   0  0  0  0  0  0
  -27.1465  -12.8889   24.6795 H   0  0  0  0  0  0
  -31.1637  -14.8634   22.7725 H   0  0  0  0  0  0
  1 25  1  0  0  0
  1 30  2  0  0  0
  1 88  1  0  0  0
  2  3  1  0  0  0
  2 25  1  0  0  0
  2 92  1  0  0  0
  2 93  1  0  0  0
  3  4  1  0  0  0
  3 94  1  0  0  0
  3 95  1  0  0  0
  4  5  1  0  0  0
  4 96  1  0  0  0
  4 97  1  0  0  0
  5  6  1  0  0  0
  5 26  1  0  0  0
  5 98  1  0  0  0
  6 25  1  0  0  0
  6 99  1  0  0  0
  6100  1  0  0  0
  7  8  2  0  0  0
  7 26  1  0  0  0
  7 29  1  0  0  0
  8  9  1  0  0  0
  8 22  1  0  0  0
  9 10  1  0  0  0
  9 27  2  0  0  0
 10 11  2  0  0  0
 10 15  1  0  0  0
 11 12  1  0  0  0
 11101  1  0  0  0
 12 13  2  0  0  0
 12102  1  0  0  0
 13 14  1  0  0  0
 13 31  1  0  0  0
 14 15  2  0  0  0
 14103  1  0  0  0
 15104  1  0  0  0
 16 17  2  0  0  0
 16 21  1  0  0  0
 16 31  1  0  0  0
 17 18  1  0  0  0
 17105  1  0  0  0
 18 19  2  0  0  0
 18106  1  0  0  0
 19 20  1  0  0  0
 19 24  1  0  0  0
 20 21  2  0  0  0
 20107  1  0  0  0
 21 23  1  0  0  0
 22 28  1  0  0  0
 22 32  2  0  0  0
 26 27  1  0  0  0
 28108  1  0  0  0
 28109  1  0  0  0
 29110  1  0  0  0
 29111  1  0  0  0
 33 34  1  0  0  0
 33 66  1  0  0  0
 33 70  2  0  0  0
 34 36  1  0  0  0
 34 59  1  0  0  0
 34112  1  0  0  0
 35 44  2  0  0  0
 35 45  1  0  0  0
 35 68  1  0  0  0
 36 56  1  0  0  0
 36113  1  0  0  0
 37 39  1  0  0  0
 37 47  1  0  0  0
 37 66  1  0  0  0
 37114  1  0  0  0
 38 43  2  0  0  0
 38 46  1  0  0  0
 38 47  1  0  0  0
 39 64  1  0  0  0
 39 67  2  0  0  0
 40 52  1  0  0  0
 40 53  2  0  0  0
 40 58  1  0  0  0
 41115  1  0  0  0
 41116  1  0  0  0
 41117  1  0  0  0
 41 48  1  0  0  0
 42 43  1  0  0  0
 42 66  1  0  0  0
 42118  1  0  0  0
 42119  1  0  0  0
 43 44  1  0  0  0
 44120  1  0  0  0
 45 46  2  0  0  0
 45121  1  0  0  0
 46122  1  0  0  0
 47123  1  0  0  0
 47124  1  0  0  0
 48 56  1  0  0  0
 48 65  1  0  0  0
 48125  1  0  0  0
 49 50  1  0  0  0
 49 53  1  0  0  0
 49 64  1  0  0  0
 49126  1  0  0  0
 50 51  1  0  0  0
 50127  1  0  0  0
 50128  1  0  0  0
 51 52  1  0  0  0
 51129  1  0  0  0
 51130  1  0  0  0
 52131  1  0  0  0
 52132  1  0  0  0
 53 54  1  0  0  0
 54 55  2  0  0  0
 54133  1  0  0  0
 55 57  1  0  0  0
 55134  1  0  0  0
 56 69  2  0  0  0
 57 58  2  0  0  0
 57135  1  0  0  0
 58136  1  0  0  0
 59 60  1  0  0  0
 59 61  1  0  0  0
 59 62  1  0  0  0
 60137  1  0  0  0
 60138  1  0  0  0
 60139  1  0  0  0
 61140  1  0  0  0
 61141  1  0  0  0
 61142  1  0  0  0
 62143  1  0  0  0
 62144  1  0  0  0
 62145  1  0  0  0
 63 65  1  0  0  0
 63146  1  0  0  0
 63147  1  0  0  0
 63148  1  0  0  0
 64149  1  0  0  0
 65150  1  0  0  0
 68 86  1  0  0  0
 71 72  2  0  0  0
 71 75  1  0  0  0
 71151  1  0  0  0
 72 76  1  0  0  0
 72152  1  0  0  0
 73 74  1  0  0  0
 73 76  2  0  0  0
 73153  1  0  0  0
 74 75  2  0  0  0
 74 78  1  0  0  0
 75 89  1  0  0  0
 76 91  1  0  0  0
 77 80  1  0  0  0
 77 89  1  0  0  0
 77 90  2  0  0  0
 78154  1  0  0  0
 78155  1  0  0  0
 78156  1  0  0  0
 79 81  1  0  0  0
 79157  1  0  0  0
 79158  1  0  0  0
 79159  1  0  0  0
 80 82  1  0  0  0
 80160  1  0  0  0
 80161  1  0  0  0
 81 84  1  0  0  0
 81162  1  0  0  0
 81163  1  0  0  0
 82 86  1  0  0  0
 82164  1  0  0  0
 82165  1  0  0  0
 83 85  1  0  0  0
 83 87  1  0  0  0
 83166  1  0  0  0
 83167  1  0  0  0
 84 89  1  0  0  0
 84168  1  0  0  0
 84169  1  0  0  0
 85 88  1  0  0  0
 85170  1  0  0  0
 85171  1  0  0  0
 86172  1  0  0  0
 86173  1  0  0  0
 87 91  1  0  0  0
 87174  1  0  0  0
 87175  1  0  0  0
 88176  1  0  0  0
M  ISO  4   1 100  68 101  86 101  88 100
M  END
> <chiral flag>
0

> <version>
0

> <s_m_source_file>
/data/baiqing/PycharmProjects/Reinvent-master-3.2/result/LINK_invent/BTK/process_docking_weight1_custom_sum_contain_oxygen_bond_distance_aromatic_linkinvent_7_9_3/rearranged_h_0005.sdf

> <i_m_source_file_index>
77

> <r_mmod_Potential_Energy-OPLS-2005>
16245.4130859375

> <r_mmod_Stretch_Energy-OPLS-2005>
10521.5

> <r_mmod_Bend_Energy-OPLS-2005>
742.462890625

> <r_mmod_Torsional_Energy-OPLS-2005>
432.257385253906

> <r_mmod_Improper_Torsional_Energy-OPLS-2005>
25.0484523773193

> <r_mmod_Van_der_Waal_Energy-OPLS-2005>
4076.6875

> <r_mmod_Electrostatic_Energy-OPLS-2005>
-375.558410644531

> <r_mmod_Solvation_Energy-OPLS-2005>
-209.588623046875

> <b_mmod_Minimization_Converged-OPLS-2005>
0

> <r_mmod_RMS_Derivative-OPLS-2005>
12.8446054458618

$$$$
78
                    3D
 Structure written by MMmdl.
197205  0  0  1  0            999 V2000
  -30.3728  -15.1265   20.1671 C   0  0  0  0  0  0
  -30.4279  -12.6776   19.4843 C   0  0  0  0  0  0
  -29.5148  -12.5244   18.2460 C   0  0  0  0  0  0
  -28.0468  -12.3083   18.6653 C   0  0  0  0  0  0
  -27.6071  -13.2564   19.8114 C   0  0  2  0  0  0
  -28.6514  -13.3514   20.9368 C   0  0  0  0  0  0
  -25.2395  -13.8225   20.5683 C   0  0  0  0  0  0
  -24.1725  -13.0405   20.9260 C   0  0  0  0  0  0
  -24.6380  -11.6922   20.8764 C   0  0  0  0  0  0
  -23.9084  -10.4275   21.0424 C   0  0  0  0  0  0
  -24.3639   -9.4190   21.9192 C   0  0  0  0  0  0
  -23.6298   -8.2235   22.0765 C   0  0  0  0  0  0
  -22.4284   -8.0282   21.3550 C   0  0  0  0  0  0
  -21.9921   -9.0263   20.4669 C   0  0  0  0  0  0
  -22.7261  -10.2135   20.3078 C   0  0  0  0  0  0
  -21.6860   -6.0740   22.5277 C   0  0  0  0  0  0
  -21.4010   -6.5641   23.8208 C   0  0  0  0  0  0
  -21.3645   -5.6796   24.9170 C   0  0  0  0  0  0
  -21.6046   -4.3059   24.7228 C   0  0  0  0  0  0
  -21.8816   -3.8152   23.4349 C   0  0  0  0  0  0
  -21.9192   -4.6967   22.3404 C   0  0  0  0  0  0
  -22.7760  -13.5203   21.1873 C   0  0  0  0  0  0
  -22.1661   -4.2146   21.0984 F   0  0  0  0  0  0
  -21.5629   -3.4546   25.7742 F   0  0  0  0  0  0
  -29.8855  -13.8137   20.2950 N   0  0  0  0  0  0
  -26.2784  -12.9452   20.3149 N   0  0  0  0  0  0
  -25.9304  -11.6586   20.5718 N   0  0  0  0  0  0
  -22.0429  -12.8193   22.0461 N   0  0  0  0  0  0
  -25.4014  -15.1937   20.4067 N   0  0  0  0  0  0
  -31.5921  -15.1956   19.9631 O   0  0  0  0  0  0
  -21.6644   -6.8883   21.4242 O   0  0  0  0  0  0
  -22.3441  -14.5485   20.6711 O   0  0  0  0  0  0
  -24.9806  -32.0554   22.8656 C   0  0  0  0  0  0
  -26.2592  -32.4998   23.7114 C   0  0  1  0  0  0
  -27.2513  -27.4950   20.7151 C   0  0  0  0  0  0
  -26.0023  -33.8912   24.2084 N   0  0  0  0  0  0
  -23.5414  -29.8640   21.3944 C   0  0  2  0  0  0
  -24.9885  -28.6843   20.1275 C   0  0  0  0  0  0
  -22.6028  -28.8277   22.1320 C   0  0  0  0  0  0
  -17.9445  -28.1047   22.8161 C   0  0  0  0  0  0
  -24.1839  -36.6906   23.2539 C   0  0  0  0  0  0
  -26.0290  -30.8079   21.1824 C   0  0  0  0  0  0
  -26.1085  -29.4687   20.5213 C   0  0  0  0  0  0
  -27.3491  -28.8552   20.5335 C   0  0  0  0  0  0
  -26.2712  -26.7193   20.1004 C   0  0  0  0  0  0
  -25.0684  -27.3288   19.8586 C   0  0  0  0  0  0
  -23.6425  -29.1415   20.1492 C   0  0  0  0  0  0
  -25.4632  -36.2908   24.0144 C   0  0  1  0  0  0
  -20.4752  -28.2213   23.1053 C   0  0  2  0  0  0
  -20.4717  -26.7457   22.6322 C   0  0  0  0  0  0
  -19.4642  -26.5385   21.5170 C   0  0  0  0  0  0
  -18.0723  -26.7695   22.1065 C   0  0  0  0  0  0
  -19.0807  -28.8178   23.2565 C   0  0  0  0  0  0
  -18.8964  -30.0818   23.8433 C   0  0  0  0  0  0
  -17.6165  -30.6206   24.0471 C   0  0  0  0  0  0
  -26.0437  -34.9837   23.4490 C   0  0  0  0  0  0
  -16.4904  -29.9001   23.6200 C   0  0  0  0  0  0
  -16.6593  -28.6413   23.0165 C   0  0  0  0  0  0
  -26.6780  -31.6971   25.0313 C   0  0  0  0  0  0
  -25.5644  -31.5244   26.1094 C   0  0  0  0  0  0
  -27.4303  -30.3692   24.7284 C   0  0  0  0  0  0
  -27.7791  -32.5120   25.7599 C   0  0  0  0  0  0
  -27.5785  -37.2215   24.8450 C   0  0  0  0  0  0
  -21.2781  -29.0074   22.2033 N   0  0  0  0  0  0
  -26.4327  -37.4021   23.9555 N   0  0  0  0  0  0
  -24.7680  -30.9978   21.8745 N   0  0  0  0  0  0
  -23.1004  -27.9163   22.7660 O   0  0  0  0  0  0
  -27.2523  -27.3793   22.0763 O   0  0  0  0  0  0
  -26.5655  -34.9636   22.3364 O   0  0  0  0  0  0
  -24.1049  -32.8204   23.2674 O   0  0  0  0  0  0
  -29.8101  -18.6421   17.0620 C   0  0  0  0  0  0
  -29.9346  -17.5859   17.9946 C   0  0  0  0  0  0
  -28.7427  -19.0114   19.5419 C   0  0  0  0  0  0
  -29.1736  -19.8883   17.3231 C   0  0  0  0  0  0
  -29.4024  -17.6510   19.2954 C   0  0  0  0  0  0
  -28.5970  -20.1958   18.5845 C   0  0  0  0  0  0
  -23.5988  -30.0059   24.3586 C   0  0  0  0  0  0
  -29.2101  -20.9314   16.2194 C   0  0  0  0  0  0
  -18.7693  -34.1567   24.9589 C   0  0  0  0  0  0
  -20.6238  -34.1516   26.6887 C   0  0  0  0  0  0
  -25.1509  -29.1511   23.8704 C   0  0  0  0  0  0
  -25.6637  -28.9709   17.4674 C   0  0  0  0  0  0
  -24.4420  -30.2883   17.7949 C   0  0  0  0  0  0
  -25.6597  -27.2005   17.1452 C   0  0  0  0  0  0
  -24.0162  -31.5851   19.0618 C   0  0  0  0  0  0
  -26.8914  -25.9218   17.4117 C   0  0  0  0  0  0
  -22.8479  -32.1760   20.3987 C   0  0  0  0  0  0
  -27.0181  -24.1521   17.2308 C   0  0  0  0  0  0
  -20.9117  -32.9085   24.4700 C   0  0  0  0  0  0
  -22.1478  -31.8185   22.1464 C   0  0  0  0  0  0
  -21.8139  -31.6797   24.8029 C   0  0  0  0  0  0
  -25.9916  -27.7391   23.0829 C   0  0  0  0  0  0
  -27.0900  -22.6243   18.1407 C   0  0  0  0  0  0
  -19.9315  -33.3483   25.5736 C   0  0  0  0  0  0
  -29.5045  -16.3093   20.1360 N   0  0  0  0  0  0
  -22.5969  -31.0038   23.6922 N   0  0  0  0  0  0
  -23.2711  -29.6480   25.4974 O   0  0  0  0  0  0
  -28.1568  -21.6248   18.8261 O   0  0  0  0  0  0
  -31.4547  -12.8619   19.1631 H   0  0  0  0  0  0
  -30.4612  -11.7561   20.0667 H   0  0  0  0  0  0
  -29.8539  -11.6951   17.6234 H   0  0  0  0  0  0
  -29.5858  -13.4203   17.6275 H   0  0  0  0  0  0
  -27.9426  -11.2717   18.9832 H   0  0  0  0  0  0
  -27.3877  -12.4280   17.8047 H   0  0  0  0  0  0
  -27.5436  -14.2436   19.3543 H   0  0  0  0  0  0
  -28.7883  -12.3897   21.4345 H   0  0  0  0  0  0
  -28.3385  -14.0615   21.7054 H   0  0  0  0  0  0
  -25.2788   -9.5659   22.4764 H   0  0  0  0  0  0
  -24.0001   -7.4631   22.7484 H   0  0  0  0  0  0
  -21.0851   -8.8801   19.8985 H   0  0  0  0  0  0
  -22.3717  -10.9686   19.6199 H   0  0  0  0  0  0
  -21.2003   -7.6150   23.9706 H   0  0  0  0  0  0
  -21.1466   -6.0532   25.9069 H   0  0  0  0  0  0
  -22.0611   -2.7618   23.2856 H   0  0  0  0  0  0
  -22.4079  -11.9879   22.4848 H   0  0  0  0  0  0
  -21.1062  -13.1216   22.2676 H   0  0  0  0  0  0
  -24.6221  -15.8360   20.5085 H   0  0  0  0  0  0
  -26.2209  -15.6316   20.0019 H   0  0  0  0  0  0
  -27.1291  -32.5584   23.0584 H   0  0  0  0  0  0
  -25.5528  -33.9610   25.1095 H   0  0  0  0  0  0
  -22.6391  -30.1294   20.9132 H   0  0  0  0  0  0
  -23.4156  -35.9198   23.3373 H   0  0  0  0  0  0
  -24.3808  -36.8534   22.1910 H   0  0  0  0  0  0
  -23.7556  -37.6043   23.6624 H   0  0  0  0  0  0
  -26.3043  -31.6031   20.4949 H   0  0  0  0  0  0
  -26.8618  -30.8199   21.8765 H   0  0  0  0  0  0
  -28.1931  -29.3728   20.9712 H   0  0  0  0  0  0
  -26.3101  -25.6402   20.1286 H   0  0  0  0  0  0
  -24.2289  -26.6970   19.6066 H   0  0  0  0  0  0
  -23.0517  -29.4531   19.2975 H   0  0  0  0  0  0
  -23.0193  -28.2384   20.0593 H   0  0  0  0  0  0
  -25.1933  -36.1244   25.0602 H   0  0  0  0  0  0
  -20.9436  -28.2525   24.0937 H   0  0  0  0  0  0
  -20.1698  -26.1202   23.4761 H   0  0  0  0  0  0
  -21.4299  -26.3249   22.3288 H   0  0  0  0  0  0
  -19.5338  -25.5249   21.1169 H   0  0  0  0  0  0
  -19.6703  -27.2247   20.6911 H   0  0  0  0  0  0
  -17.3253  -26.7077   21.3135 H   0  0  0  0  0  0
  -17.8371  -25.9865   22.8308 H   0  0  0  0  0  0
  -19.7481  -30.6418   24.1227 H   0  0  0  0  0  0
  -17.4982  -31.5753   24.5387 H   0  0  0  0  0  0
  -15.4968  -30.3105   23.7451 H   0  0  0  0  0  0
  -15.7942  -28.0767   22.6903 H   0  0  0  0  0  0
  -25.3614  -30.4901   26.3678 H   0  0  0  0  0  0
  -24.6524  -32.0339   25.8235 H   0  0  0  0  0  0
  -25.8281  -31.9894   27.0572 H   0  0  0  0  0  0
  -27.4091  -30.0532   23.6949 H   0  0  0  0  0  0
  -27.1293  -29.5428   25.3735 H   0  0  0  0  0  0
  -28.5039  -30.4421   24.9152 H   0  0  0  0  0  0
  -27.4352  -33.4624   26.1716 H   0  0  0  0  0  0
  -28.6058  -32.7480   25.0860 H   0  0  0  0  0  0
  -28.2115  -31.9609   26.5980 H   0  0  0  0  0  0
  -28.2161  -38.1058   24.8143 H   0  0  0  0  0  0
  -28.1950  -36.3675   24.5584 H   0  0  0  0  0  0
  -27.2692  -37.0960   25.8838 H   0  0  0  0  0  0
  -20.8364  -29.7698   21.7113 H   0  0  0  0  0  0
  -25.9770  -38.2841   24.1712 H   0  0  0  0  0  0
  -30.2494  -18.4780   16.0893 H   0  0  0  0  0  0
  -30.4380  -16.6840   17.6765 H   0  0  0  0  0  0
  -28.3348  -19.1660   20.5300 H   0  0  0  0  0  0
  -29.6465  -20.5304   15.3037 H   0  0  0  0  0  0
  -29.8127  -21.7893   16.5195 H   0  0  0  0  0  0
  -28.2083  -21.2756   15.9708 H   0  0  0  0  0  0
  -17.9915  -34.3680   25.6946 H   0  0  0  0  0  0
  -18.2935  -33.6098   24.1427 H   0  0  0  0  0  0
  -19.1140  -35.1107   24.5537 H   0  0  0  0  0  0
  -21.0863  -35.0659   26.3084 H   0  0  0  0  0  0
  -21.4004  -33.5644   27.1776 H   0  0  0  0  0  0
  -19.9165  -34.4549   27.4617 H   0  0  0  0  0  0
  -24.8913  -28.3867   24.6052 H   0  0  0  0  0  0
  -25.0271  -29.0258   22.8498 H   0  0  0  0  0  0
  -26.5439  -29.1558   18.0723 H   0  0  0  0  0  0
  -26.0623  -29.3132   16.5108 H   0  0  0  0  0  0
  -23.5132  -29.9518   17.3372 H   0  0  0  0  0  0
  -24.7789  -30.9781   17.0153 H   0  0  0  0  0  0
  -25.4946  -27.1627   16.0687 H   0  0  0  0  0  0
  -24.7044  -26.7980   17.4799 H   0  0  0  0  0  0
  -23.5886  -32.2588   18.3193 H   0  0  0  0  0  0
  -24.9242  -32.1468   19.2076 H   0  0  0  0  0  0
  -27.5929  -26.2041   18.1893 H   0  0  0  0  0  0
  -27.5271  -26.1965   16.5674 H   0  0  0  0  0  0
  -21.9338  -32.3810   19.8406 H   0  0  0  0  0  0
  -23.2565  -33.1791   20.5440 H   0  0  0  0  0  0
  -27.8724  -24.0304   16.5630 H   0  0  0  0  0  0
  -26.1751  -23.9631   16.5664 H   0  0  0  0  0  0
  -20.2950  -32.6956   23.6011 H   0  0  0  0  0  0
  -21.5347  -33.7617   24.1985 H   0  0  0  0  0  0
  -21.1288  -31.4944   21.9458 H   0  0  0  0  0  0
  -21.9658  -32.8578   22.3606 H   0  0  0  0  0  0
  -21.2395  -30.9541   25.3804 H   0  0  0  0  0  0
  -22.5073  -32.0574   25.5503 H   0  0  0  0  0  0
  -25.2591  -26.9762   22.8209 H   0  0  0  0  0  0
  -26.4280  -27.2691   23.9616 H   0  0  0  0  0  0
  -26.6197  -21.9266   17.4451 H   0  0  0  0  0  0
  -26.3187  -22.7343   18.9045 H   0  0  0  0  0  0
  -19.5078  -32.4456   26.0192 H   0  0  0  0  0  0
  -28.6654  -16.1330   20.6678 H   0  0  0  0  0  0
  1 25  1  0  0  0
  1 30  2  0  0  0
  1 95  1  0  0  0
  2  3  1  0  0  0
  2 25  1  0  0  0
  2 99  1  0  0  0
  2100  1  0  0  0
  3  4  1  0  0  0
  3101  1  0  0  0
  3102  1  0  0  0
  4  5  1  0  0  0
  4103  1  0  0  0
  4104  1  0  0  0
  5  6  1  0  0  0
  5 26  1  0  0  0
  5105  1  0  0  0
  6 25  1  0  0  0
  6106  1  0  0  0
  6107  1  0  0  0
  7  8  2  0  0  0
  7 26  1  0  0  0
  7 29  1  0  0  0
  8  9  1  0  0  0
  8 22  1  0  0  0
  9 10  1  0  0  0
  9 27  2  0  0  0
 10 11  2  0  0  0
 10 15  1  0  0  0
 11 12  1  0  0  0
 11108  1  0  0  0
 12 13  2  0  0  0
 12109  1  0  0  0
 13 14  1  0  0  0
 13 31  1  0  0  0
 14 15  2  0  0  0
 14110  1  0  0  0
 15111  1  0  0  0
 16 17  2  0  0  0
 16 21  1  0  0  0
 16 31  1  0  0  0
 17 18  1  0  0  0
 17112  1  0  0  0
 18 19  2  0  0  0
 18113  1  0  0  0
 19 20  1  0  0  0
 19 24  1  0  0  0
 20 21  2  0  0  0
 20114  1  0  0  0
 21 23  1  0  0  0
 22 28  1  0  0  0
 22 32  2  0  0  0
 26 27  1  0  0  0
 28115  1  0  0  0
 28116  1  0  0  0
 29117  1  0  0  0
 29118  1  0  0  0
 33 34  1  0  0  0
 33 66  1  0  0  0
 33 70  2  0  0  0
 34 36  1  0  0  0
 34 59  1  0  0  0
 34119  1  0  0  0
 35 44  2  0  0  0
 35 45  1  0  0  0
 35 68  1  0  0  0
 36 56  1  0  0  0
 36120  1  0  0  0
 37 39  1  0  0  0
 37 47  1  0  0  0
 37 66  1  0  0  0
 37121  1  0  0  0
 38 43  2  0  0  0
 38 46  1  0  0  0
 38 47  1  0  0  0
 39 64  1  0  0  0
 39 67  2  0  0  0
 40 52  1  0  0  0
 40 53  2  0  0  0
 40 58  1  0  0  0
 41122  1  0  0  0
 41123  1  0  0  0
 41124  1  0  0  0
 41 48  1  0  0  0
 42 43  1  0  0  0
 42 66  1  0  0  0
 42125  1  0  0  0
 42126  1  0  0  0
 43 44  1  0  0  0
 44127  1  0  0  0
 45 46  2  0  0  0
 45128  1  0  0  0
 46129  1  0  0  0
 47130  1  0  0  0
 47131  1  0  0  0
 48 56  1  0  0  0
 48 65  1  0  0  0
 48132  1  0  0  0
 49 50  1  0  0  0
 49 53  1  0  0  0
 49 64  1  0  0  0
 49133  1  0  0  0
 50 51  1  0  0  0
 50134  1  0  0  0
 50135  1  0  0  0
 51 52  1  0  0  0
 51136  1  0  0  0
 51137  1  0  0  0
 52138  1  0  0  0
 52139  1  0  0  0
 53 54  1  0  0  0
 54 55  2  0  0  0
 54140  1  0  0  0
 55 57  1  0  0  0
 55141  1  0  0  0
 56 69  2  0  0  0
 57 58  2  0  0  0
 57142  1  0  0  0
 58143  1  0  0  0
 59 60  1  0  0  0
 59 61  1  0  0  0
 59 62  1  0  0  0
 60144  1  0  0  0
 60145  1  0  0  0
 60146  1  0  0  0
 61147  1  0  0  0
 61148  1  0  0  0
 61149  1  0  0  0
 62150  1  0  0  0
 62151  1  0  0  0
 62152  1  0  0  0
 63 65  1  0  0  0
 63153  1  0  0  0
 63154  1  0  0  0
 63155  1  0  0  0
 64156  1  0  0  0
 65157  1  0  0  0
 68 92  1  0  0  0
 71 72  2  0  0  0
 71 74  1  0  0  0
 71158  1  0  0  0
 72 75  1  0  0  0
 72159  1  0  0  0
 73 75  2  0  0  0
 73 76  1  0  0  0
 73160  1  0  0  0
 74 76  2  0  0  0
 74 78  1  0  0  0
 75 95  1  0  0  0
 76 98  1  0  0  0
 77 81  1  0  0  0
 77 96  1  0  0  0
 77 97  2  0  0  0
 78161  1  0  0  0
 78162  1  0  0  0
 78163  1  0  0  0
 79164  1  0  0  0
 79165  1  0  0  0
 79166  1  0  0  0
 79 94  1  0  0  0
 80 94  1  0  0  0
 80167  1  0  0  0
 80168  1  0  0  0
 80169  1  0  0  0
 81 92  1  0  0  0
 81170  1  0  0  0
 81171  1  0  0  0
 82 83  1  0  0  0
 82 84  1  0  0  0
 82172  1  0  0  0
 82173  1  0  0  0
 83 85  1  0  0  0
 83174  1  0  0  0
 83175  1  0  0  0
 84 86  1  0  0  0
 84176  1  0  0  0
 84177  1  0  0  0
 85 87  1  0  0  0
 85178  1  0  0  0
 85179  1  0  0  0
 86 88  1  0  0  0
 86180  1  0  0  0
 86181  1  0  0  0
 87 90  1  0  0  0
 87182  1  0  0  0
 87183  1  0  0  0
 88 93  1  0  0  0
 88184  1  0  0  0
 88185  1  0  0  0
 89 91  1  0  0  0
 89 94  1  0  0  0
 89186  1  0  0  0
 89187  1  0  0  0
 90 96  1  0  0  0
 90188  1  0  0  0
 90189  1  0  0  0
 91 96  1  0  0  0
 91190  1  0  0  0
 91191  1  0  0  0
 92192  1  0  0  0
 92193  1  0  0  0
 93 98  1  0  0  0
 93194  1  0  0  0
 93195  1  0  0  0
 94196  1  0  0  0
 95197  1  0  0  0
M  ISO  4   1 100  68 101  92 101  95 100
M  END
> <chiral flag>
0

> <version>
0

> <s_m_source_file>
/data/baiqing/PycharmProjects/Reinvent-master-3.2/result/LINK_invent/BTK/process_docking_weight1_custom_sum_contain_oxygen_bond_distance_aromatic_linkinvent_7_9_3/rearranged_h_0005.sdf

> <i_m_source_file_index>
78

> <r_mmod_Potential_Energy-OPLS-2005>
6537.38037109375

> <r_mmod_Stretch_Energy-OPLS-2005>
1914.01574707031

> <r_mmod_Bend_Energy-OPLS-2005>
1939.4609375

> <r_mmod_Torsional_Energy-OPLS-2005>
613.8671875

> <r_mmod_Improper_Torsional_Energy-OPLS-2005>
32.6384773254395

> <r_mmod_Van_der_Waal_Energy-OPLS-2005>
1146.12768554688

> <r_mmod_Electrostatic_Energy-OPLS-2005>
-380.777709960938

> <r_mmod_Solvation_Energy-OPLS-2005>
-190.826904296875

> <b_mmod_Minimization_Converged-OPLS-2005>
0

> <r_mmod_RMS_Derivative-OPLS-2005>
8.35095310211182

$$$$
79
                    3D
 Structure written by MMmdl.
155164  0  0  1  0            999 V2000
  -30.6188  -14.6877   20.4703 C   0  0  0  0  0  0
  -30.4365  -12.4155   19.4645 C   0  0  0  0  0  0
  -29.5104  -12.5025   18.2310 C   0  0  0  0  0  0
  -28.0348  -12.3332   18.6437 C   0  0  0  0  0  0
  -27.6488  -13.2216   19.8569 C   0  0  2  0  0  0
  -28.6939  -13.1179   20.9908 C   0  0  0  0  0  0
  -25.2537  -13.8177   20.5673 C   0  0  0  0  0  0
  -24.1811  -13.0437   20.9183 C   0  0  0  0  0  0
  -24.6390  -11.6913   20.8731 C   0  0  0  0  0  0
  -23.9063  -10.4290   21.0400 C   0  0  0  0  0  0
  -24.3617   -9.4209   21.9182 C   0  0  0  0  0  0
  -23.6291   -8.2249   22.0760 C   0  0  0  0  0  0
  -22.4278   -8.0279   21.3547 C   0  0  0  0  0  0
  -21.9909   -9.0252   20.4653 C   0  0  0  0  0  0
  -22.7234  -10.2129   20.3055 C   0  0  0  0  0  0
  -21.6852   -6.0733   22.5278 C   0  0  0  0  0  0
  -21.4017   -6.5637   23.8211 C   0  0  0  0  0  0
  -21.3658   -5.6791   24.9170 C   0  0  0  0  0  0
  -21.6045   -4.3055   24.7223 C   0  0  0  0  0  0
  -21.8817   -3.8144   23.4345 C   0  0  0  0  0  0
  -21.9195   -4.6960   22.3399 C   0  0  0  0  0  0
  -22.7834  -13.5224   21.1846 C   0  0  0  0  0  0
  -22.1659   -4.2145   21.0978 F   0  0  0  0  0  0
  -21.5631   -3.4538   25.7735 F   0  0  0  0  0  0
  -30.0048  -13.4595   20.4186 N   0  0  0  0  0  0
  -26.2968  -12.9368   20.3297 N   0  0  0  0  0  0
  -25.9321  -11.6520   20.5755 N   0  0  0  0  0  0
  -22.0484  -12.8217   22.0409 N   0  0  0  0  0  0
  -25.4244  -15.1895   20.4063 N   0  0  0  0  0  0
  -31.7969  -14.8092   20.1226 O   0  0  0  0  0  0
  -21.6645   -6.8875   21.4242 O   0  0  0  0  0  0
  -22.3524  -14.5536   20.6703 O   0  0  0  0  0  0
  -24.6274  -31.8592   23.2021 C   0  0  0  0  0  0
  -25.9115  -32.4777   23.8349 C   0  0  1  0  0  0
  -27.2229  -27.3032   20.1121 C   0  0  0  0  0  0
  -25.5929  -33.8580   24.2289 N   0  0  0  0  0  0
  -23.4219  -30.4846   21.5446 C   0  0  2  0  0  0
  -24.8683  -28.9410   20.1116 C   0  0  0  0  0  0
  -22.7479  -29.4622   22.4915 C   0  0  0  0  0  0
  -18.0290  -28.1387   22.8493 C   0  0  0  0  0  0
  -24.1489  -36.7281   23.2641 C   0  0  0  0  0  0
  -25.9663  -30.7855   21.3759 C   0  0  0  0  0  0
  -26.0405  -29.4123   20.7162 C   0  0  0  0  0  0
  -27.2208  -28.6071   20.7050 C   0  0  0  0  0  0
  -26.0213  -26.8906   19.4864 C   0  0  0  0  0  0
  -24.8627  -27.6857   19.4878 C   0  0  0  0  0  0
  -23.6382  -29.8233   20.1590 C   0  0  0  0  0  0
  -25.4117  -36.3084   24.0330 C   0  0  1  0  0  0
  -20.5888  -28.3684   23.1285 C   0  0  2  0  0  0
  -20.6785  -26.9402   22.5413 C   0  0  0  0  0  0
  -19.5756  -26.6385   21.5215 C   0  0  0  0  0  0
  -18.1932  -26.7937   22.1620 C   0  0  0  0  0  0
  -19.1544  -28.8852   23.2893 C   0  0  0  0  0  0
  -18.9469  -30.1458   23.8897 C   0  0  0  0  0  0
  -17.6470  -30.6597   24.0563 C   0  0  0  0  0  0
  -25.9052  -34.9453   23.5108 C   0  0  0  0  0  0
  -16.5361  -29.9099   23.6327 C   0  0  0  0  0  0
  -16.7275  -28.6514   23.0355 C   0  0  0  0  0  0
  -26.4501  -31.6592   25.0717 C   0  0  0  0  0  0
  -25.3732  -31.3739   26.1439 C   0  0  0  0  0  0
  -27.0339  -30.3018   24.6159 C   0  0  0  0  0  0
  -27.6058  -32.4328   25.7493 C   0  0  0  0  0  0
  -27.5583  -37.1802   24.8471 C   0  0  0  0  0  0
  -21.4187  -29.3055   22.3681 N   0  0  0  0  0  0
  -26.4297  -37.3779   23.9411 N   0  0  0  0  0  0
  -24.6910  -31.0591   22.0980 N   0  0  0  0  0  0
  -23.4216  -28.8146   23.2969 O   0  0  0  0  0  0
  -28.3323  -26.4350   20.1546 O   0  0  0  0  0  0
  -26.5610  -34.8927   22.4673 O   0  0  0  0  0  0
  -23.5430  -32.1392   23.7342 O   0  0  0  0  0  0
  -31.3020  -19.2784   20.0583 C   0  0  0  0  0  0
  -31.1936  -17.8619   20.1812 C   0  0  0  0  0  0
  -28.8955  -18.1292   20.8469 C   0  0  0  0  0  0
  -30.2158  -20.1526   20.3266 C   0  0  0  0  0  0
  -29.0033  -19.5578   20.7172 C   0  0  0  0  0  0
  -29.9854  -17.2329   20.5861 C   0  0  0  0  0  0
  -29.2916  -23.9855   20.2641 C   0  0  0  0  0  0
  -27.8494  -20.5086   21.0333 C   0  0  0  0  0  0
  -30.3722  -21.7059   20.2333 C   0  0  0  0  0  0
  -27.8739  -21.8701   20.2608 C   0  0  0  0  0  0
  -28.0696  -24.9691   20.0300 C   0  0  0  0  0  0
  -29.1623  -22.5979   20.2942 N   0  0  0  0  0  0
  -29.8113  -15.7733   20.7403 N   0  0  0  0  0  0
  -30.4087  -24.5053   20.3682 O   0  0  0  0  0  0
  -31.4780  -12.5366   19.1621 H   0  0  0  0  0  0
  -30.3739  -11.4298   19.9283 H   0  0  0  0  0  0
  -29.7833  -11.7410   17.4991 H   0  0  0  0  0  0
  -29.6450  -13.4661   17.7365 H   0  0  0  0  0  0
  -27.8825  -11.2820   18.8926 H   0  0  0  0  0  0
  -27.3791  -12.5406   17.7973 H   0  0  0  0  0  0
  -27.6541  -14.2496   19.4935 H   0  0  0  0  0  0
  -28.7134  -12.1100   21.4068 H   0  0  0  0  0  0
  -28.4344  -13.7788   21.8195 H   0  0  0  0  0  0
  -25.2763   -9.5679   22.4758 H   0  0  0  0  0  0
  -23.9993   -7.4638   22.7479 H   0  0  0  0  0  0
  -21.0843   -8.8763   19.8957 H   0  0  0  0  0  0
  -22.3690  -10.9665   19.6161 H   0  0  0  0  0  0
  -21.2011   -7.6149   23.9707 H   0  0  0  0  0  0
  -21.1483   -6.0528   25.9072 H   0  0  0  0  0  0
  -22.0600   -2.7609   23.2845 H   0  0  0  0  0  0
  -22.4109  -11.9868   22.4773 H   0  0  0  0  0  0
  -21.1109  -13.1252   22.2641 H   0  0  0  0  0  0
  -24.6529  -15.8401   20.5056 H   0  0  0  0  0  0
  -26.2629  -15.6246   20.0450 H   0  0  0  0  0  0
  -26.7171  -32.5440   23.1082 H   0  0  0  0  0  0
  -25.0092  -33.9733   25.0449 H   0  0  0  0  0  0
  -22.7183  -31.3069   21.4020 H   0  0  0  0  0  0
  -23.3758  -35.9604   23.3301 H   0  0  0  0  0  0
  -24.3583  -36.8899   22.2057 H   0  0  0  0  0  0
  -23.7241  -37.6486   23.6658 H   0  0  0  0  0  0
  -26.0998  -31.5485   20.6080 H   0  0  0  0  0  0
  -26.8479  -30.8345   22.0038 H   0  0  0  0  0  0
  -28.1209  -28.9644   21.1862 H   0  0  0  0  0  0
  -25.9390  -25.9343   18.9931 H   0  0  0  0  0  0
  -23.9632  -27.3201   19.0117 H   0  0  0  0  0  0
  -23.7629  -30.6027   19.4058 H   0  0  0  0  0  0
  -22.7567  -29.2576   19.8518 H   0  0  0  0  0  0
  -25.1307  -36.1924   25.0821 H   0  0  0  0  0  0
  -20.9989  -28.3247   24.1399 H   0  0  0  0  0  0
  -20.5687  -26.2285   23.3609 H   0  0  0  0  0  0
  -21.6653  -26.7448   22.1196 H   0  0  0  0  0  0
  -19.6914  -25.6298   21.1241 H   0  0  0  0  0  0
  -19.6695  -27.3201   20.6748 H   0  0  0  0  0  0
  -17.4211  -26.6684   21.4014 H   0  0  0  0  0  0
  -18.0322  -26.0096   22.9022 H   0  0  0  0  0  0
  -19.7951  -30.7280   24.2265 H   0  0  0  0  0  0
  -17.5031  -31.6276   24.5166 H   0  0  0  0  0  0
  -15.5363  -30.3007   23.7667 H   0  0  0  0  0  0
  -15.8669  -28.0842   22.7063 H   0  0  0  0  0  0
  -24.5912  -30.7078   25.7774 H   0  0  0  0  0  0
  -24.8917  -32.2914   26.4836 H   0  0  0  0  0  0
  -25.8057  -30.8944   27.0231 H   0  0  0  0  0  0
  -26.2906  -29.6770   24.1186 H   0  0  0  0  0  0
  -27.4067  -29.7265   25.4648 H   0  0  0  0  0  0
  -27.8768  -30.4322   23.9361 H   0  0  0  0  0  0
  -27.2666  -33.3641   26.2047 H   0  0  0  0  0  0
  -28.3887  -32.6865   25.0327 H   0  0  0  0  0  0
  -28.0697  -31.8458   26.5434 H   0  0  0  0  0  0
  -28.2606  -38.0096   24.7524 H   0  0  0  0  0  0
  -28.1076  -36.2631   24.6290 H   0  0  0  0  0  0
  -27.2303  -37.1450   25.8877 H   0  0  0  0  0  0
  -20.9345  -29.8797   21.6918 H   0  0  0  0  0  0
  -26.0165  -38.2848   24.1419 H   0  0  0  0  0  0
  -32.2515  -19.6997   19.7579 H   0  0  0  0  0  0
  -32.0703  -17.2697   19.9603 H   0  0  0  0  0  0
  -27.9473  -17.7159   21.1626 H   0  0  0  0  0  0
  -27.8760  -20.7113   22.1046 H   0  0  0  0  0  0
  -26.9031  -19.9990   20.8453 H   0  0  0  0  0  0
  -30.8957  -21.9237   19.3003 H   0  0  0  0  0  0
  -31.0534  -22.0029   21.0333 H   0  0  0  0  0  0
  -27.0663  -22.4885   20.6517 H   0  0  0  0  0  0
  -27.6314  -21.6873   19.2130 H   0  0  0  0  0  0
  -27.2683  -24.7013   20.7188 H   0  0  0  0  0  0
  -27.7248  -24.7575   19.0183 H   0  0  0  0  0  0
  -28.8826  -15.4951   21.0156 H   0  0  0  0  0  0
  1 25  1  0  0  0
  1 30  2  0  0  0
  1 83  1  0  0  0
  2  3  1  0  0  0
  2 25  1  0  0  0
  2 85  1  0  0  0
  2 86  1  0  0  0
  3  4  1  0  0  0
  3 87  1  0  0  0
  3 88  1  0  0  0
  4  5  1  0  0  0
  4 89  1  0  0  0
  4 90  1  0  0  0
  5  6  1  0  0  0
  5 26  1  0  0  0
  5 91  1  0  0  0
  6 25  1  0  0  0
  6 92  1  0  0  0
  6 93  1  0  0  0
  7  8  2  0  0  0
  7 26  1  0  0  0
  7 29  1  0  0  0
  8  9  1  0  0  0
  8 22  1  0  0  0
  9 10  1  0  0  0
  9 27  2  0  0  0
 10 11  2  0  0  0
 10 15  1  0  0  0
 11 12  1  0  0  0
 11 94  1  0  0  0
 12 13  2  0  0  0
 12 95  1  0  0  0
 13 14  1  0  0  0
 13 31  1  0  0  0
 14 15  2  0  0  0
 14 96  1  0  0  0
 15 97  1  0  0  0
 16 17  2  0  0  0
 16 21  1  0  0  0
 16 31  1  0  0  0
 17 18  1  0  0  0
 17 98  1  0  0  0
 18 19  2  0  0  0
 18 99  1  0  0  0
 19 20  1  0  0  0
 19 24  1  0  0  0
 20 21  2  0  0  0
 20100  1  0  0  0
 21 23  1  0  0  0
 22 28  1  0  0  0
 22 32  2  0  0  0
 26 27  1  0  0  0
 28101  1  0  0  0
 28102  1  0  0  0
 29103  1  0  0  0
 29104  1  0  0  0
 33 34  1  0  0  0
 33 66  1  0  0  0
 33 70  2  0  0  0
 34 36  1  0  0  0
 34 59  1  0  0  0
 34105  1  0  0  0
 35 44  2  0  0  0
 35 45  1  0  0  0
 35 68  1  0  0  0
 36 56  1  0  0  0
 36106  1  0  0  0
 37 39  1  0  0  0
 37 47  1  0  0  0
 37 66  1  0  0  0
 37107  1  0  0  0
 38 43  2  0  0  0
 38 46  1  0  0  0
 38 47  1  0  0  0
 39 64  1  0  0  0
 39 67  2  0  0  0
 40 52  1  0  0  0
 40 53  2  0  0  0
 40 58  1  0  0  0
 41108  1  0  0  0
 41109  1  0  0  0
 41110  1  0  0  0
 41 48  1  0  0  0
 42 43  1  0  0  0
 42 66  1  0  0  0
 42111  1  0  0  0
 42112  1  0  0  0
 43 44  1  0  0  0
 44113  1  0  0  0
 45 46  2  0  0  0
 45114  1  0  0  0
 46115  1  0  0  0
 47116  1  0  0  0
 47117  1  0  0  0
 48 56  1  0  0  0
 48 65  1  0  0  0
 48118  1  0  0  0
 49 50  1  0  0  0
 49 53  1  0  0  0
 49 64  1  0  0  0
 49119  1  0  0  0
 50 51  1  0  0  0
 50120  1  0  0  0
 50121  1  0  0  0
 51 52  1  0  0  0
 51122  1  0  0  0
 51123  1  0  0  0
 52124  1  0  0  0
 52125  1  0  0  0
 53 54  1  0  0  0
 54 55  2  0  0  0
 54126  1  0  0  0
 55 57  1  0  0  0
 55127  1  0  0  0
 56 69  2  0  0  0
 57 58  2  0  0  0
 57128  1  0  0  0
 58129  1  0  0  0
 59 60  1  0  0  0
 59 61  1  0  0  0
 59 62  1  0  0  0
 60130  1  0  0  0
 60131  1  0  0  0
 60132  1  0  0  0
 61133  1  0  0  0
 61134  1  0  0  0
 61135  1  0  0  0
 62136  1  0  0  0
 62137  1  0  0  0
 62138  1  0  0  0
 63 65  1  0  0  0
 63139  1  0  0  0
 63140  1  0  0  0
 63141  1  0  0  0
 64142  1  0  0  0
 65143  1  0  0  0
 68 81  1  0  0  0
 71 72  2  0  0  0
 71 74  1  0  0  0
 71144  1  0  0  0
 72 76  1  0  0  0
 72145  1  0  0  0
 73 75  1  0  0  0
 73 76  2  0  0  0
 73146  1  0  0  0
 74 75  2  0  0  0
 74 79  1  0  0  0
 75 78  1  0  0  0
 76 83  1  0  0  0
 77 81  1  0  0  0
 77 82  1  0  0  0
 77 84  2  0  0  0
 78 80  1  0  0  0
 78147  1  0  0  0
 78148  1  0  0  0
 79 82  1  0  0  0
 79149  1  0  0  0
 79150  1  0  0  0
 80 82  1  0  0  0
 80151  1  0  0  0
 80152  1  0  0  0
 81153  1  0  0  0
 81154  1  0  0  0
 83155  1  0  0  0
M  ISO  4   1 100  68 101  81 101  83 100
M  END
> <chiral flag>
0

> <version>
0

> <s_m_source_file>
/data/baiqing/PycharmProjects/Reinvent-master-3.2/result/LINK_invent/BTK/process_docking_weight1_custom_sum_contain_oxygen_bond_distance_aromatic_linkinvent_7_9_3/rearranged_h_0005.sdf

> <i_m_source_file_index>
79

> <r_mmod_Potential_Energy-OPLS-2005>
103.37141418457

> <r_mmod_Stretch_Energy-OPLS-2005>
94.1952133178711

> <r_mmod_Bend_Energy-OPLS-2005>
140.898803710938

> <r_mmod_Torsional_Energy-OPLS-2005>
243.7373046875

> <r_mmod_Improper_Torsional_Energy-OPLS-2005>
4.75913619995117

> <r_mmod_Van_der_Waal_Energy-OPLS-2005>
152.199447631836

> <r_mmod_Electrostatic_Energy-OPLS-2005>
-346.654174804688

> <r_mmod_Solvation_Energy-OPLS-2005>
-247.07112121582

> <b_mmod_Minimization_Converged-OPLS-2005>
0

> <r_mmod_RMS_Derivative-OPLS-2005>
1.63017416000366

$$$$
80
                    3D
 Structure written by MMmdl.
195203  0  0  1  0            999 V2000
  -30.2369  -14.7627   19.8923 C   0  0  0  0  0  0
  -30.4862  -12.3713   19.5428 C   0  0  0  0  0  0
  -29.6305  -12.0932   18.3041 C   0  0  0  0  0  0
  -28.1233  -12.3707   18.5420 C   0  0  0  0  0  0
  -27.6917  -12.6742   20.0439 C   0  0  2  0  0  0
  -28.6876  -13.2881   21.0107 C   0  0  0  0  0  0
  -25.2715  -13.6802   20.7762 C   0  0  0  0  0  0
  -24.1253  -12.9727   21.0167 C   0  0  0  0  0  0
  -24.5076  -11.6295   20.8679 C   0  0  0  0  0  0
  -23.7850  -10.4148   21.0374 C   0  0  0  0  0  0
  -24.2139   -9.4887   21.9949 C   0  0  0  0  0  0
  -23.5205   -8.2821   22.1376 C   0  0  0  0  0  0
  -22.3698   -8.0314   21.3599 C   0  0  0  0  0  0
  -21.9436   -8.9778   20.4107 C   0  0  0  0  0  0
  -22.6678  -10.1576   20.2335 C   0  0  0  0  0  0
  -21.6625   -6.0837   22.5494 C   0  0  0  0  0  0
  -21.3673   -6.5703   23.8378 C   0  0  0  0  0  0
  -21.3496   -5.6926   24.9331 C   0  0  0  0  0  0
  -21.6060   -4.3218   24.7418 C   0  0  0  0  0  0
  -21.8818   -3.8307   23.4522 C   0  0  0  0  0  0
  -21.9091   -4.7095   22.3558 C   0  0  0  0  0  0
  -22.7501  -13.5132   21.3391 C   0  0  0  0  0  0
  -22.1622   -4.2262   21.1182 F   0  0  0  0  0  0
  -21.5585   -3.4743   25.7939 F   0  0  0  0  0  0
  -29.8820  -13.5161   20.2462 N   0  0  0  0  0  0
  -26.2559  -12.7447   20.4080 N   0  0  0  0  0  0
  -25.7635  -11.5141   20.5262 N   0  0  0  0  0  0
  -21.7985  -12.7871   21.9282 N   0  0  0  0  0  0
  -25.5137  -15.0324   20.9257 N   0  0  0  0  0  0
  -31.4503  -15.0391   19.9557 O   0  0  0  0  0  0
  -21.6156   -6.8961   21.4433 O   0  0  0  0  0  0
  -22.4646  -14.6668   21.0692 O   0  0  0  0  0  0
  -24.6450  -31.9375   23.2601 C   0  0  0  0  0  0
  -25.9482  -32.5031   23.8811 C   0  0  1  0  0  0
  -26.4316  -27.2349   20.2814 C   0  0  0  0  0  0
  -25.6531  -33.8797   24.2658 N   0  0  0  0  0  0
  -23.4576  -30.5906   21.6407 C   0  0  2  0  0  0
  -24.8209  -29.2722   19.9102 C   0  0  0  0  0  0
  -23.0203  -29.4880   22.6617 C   0  0  0  0  0  0
  -18.3153  -28.2002   22.2543 C   0  0  0  0  0  0
  -24.1528  -36.7289   23.2552 C   0  0  0  0  0  0
  -25.9789  -30.8124   21.4663 C   0  0  0  0  0  0
  -25.9350  -29.4871   20.7370 C   0  0  0  0  0  0
  -26.8965  -28.4613   20.8204 C   0  0  0  0  0  0
  -25.9033  -27.2875   19.0135 C   0  0  0  0  0  0
  -24.8956  -28.2527   18.9330 C   0  0  0  0  0  0
  -23.6585  -30.2124   20.1436 C   0  0  0  0  0  0
  -25.4181  -36.3078   24.0200 C   0  0  1  0  0  0
  -21.1180  -28.2244   23.6354 C   0  0  2  0  0  0
  -21.6711  -26.2566   23.0050 C   0  0  0  0  0  0
  -20.1970  -25.3846   21.5122 C   0  0  0  0  0  0
  -18.5042  -26.5599   21.3113 C   0  0  0  0  0  0
  -19.4125  -28.8786   23.2277 C   0  0  0  0  0  0
  -18.9961  -30.0155   23.9799 C   0  0  0  0  0  0
  -17.6632  -30.4778   24.0160 C   0  0  0  0  0  0
  -25.9220  -34.9499   23.5046 C   0  0  0  0  0  0
  -16.6526  -29.7615   23.3337 C   0  0  0  0  0  0
  -16.9896  -28.6449   22.5175 C   0  0  0  0  0  0
  -26.4663  -31.6522   25.0977 C   0  0  0  0  0  0
  -25.3905  -31.3824   26.1725 C   0  0  0  0  0  0
  -27.0466  -30.2888   24.6342 C   0  0  0  0  0  0
  -27.6062  -32.4292   25.7814 C   0  0  0  0  0  0
  -27.5544  -37.1852   24.8416 C   0  0  0  0  0  0
  -21.7593  -29.3932   22.9663 N   0  0  0  0  0  0
  -26.4305  -37.3788   23.9301 N   0  0  0  0  0  0
  -24.7136  -31.1612   22.1542 N   0  0  0  0  0  0
  -23.8177  -28.7468   23.2177 O   0  0  0  0  0  0
  -25.3113  -26.7816   21.0233 O   0  0  0  0  0  0
  -26.5515  -34.8877   22.4422 O   0  0  0  0  0  0
  -23.5699  -32.2230   23.7931 O   0  0  0  0  0  0
  -26.3656  -17.9287   19.1308 C   0  0  0  0  0  0
  -27.6554  -17.3104   19.2671 C   0  0  0  0  0  0
  -25.2431  -17.2391   18.6479 C   0  0  0  0  0  0
  -26.7005  -15.3231   18.3698 C   0  0  0  0  0  0
  -27.8875  -15.9393   18.9739 C   0  0  0  0  0  0
  -25.3745  -15.8959   18.2597 C   0  0  0  0  0  0
  -19.5753  -14.3635   19.3202 C   0  0  0  0  0  0
  -21.9813  -27.4532   20.6611 C   0  0  0  0  0  0
  -17.7923  -12.7454   19.9450 C   0  0  0  0  0  0
  -20.6795  -13.5198   18.6581 C   0  0  0  0  0  0
  -23.5999  -26.5345   20.7015 C   0  0  0  0  0  0
  -21.8072  -14.2586   17.7806 C   0  0  0  0  0  0
  -20.2251  -20.8210   22.9907 C   0  0  0  0  0  0
  -19.2781  -19.5629   23.1401 C   0  0  0  0  0  0
  -19.5367  -22.1461   23.5236 C   0  0  0  0  0  0
  -19.8656  -18.1461   22.7184 C   0  0  0  0  0  0
  -20.2855  -23.5380   23.7337 C   0  0  0  0  0  0
  -18.9869  -16.8163   22.8210 C   0  0  0  0  0  0
  -19.2675  -24.8243   23.8168 C   0  0  0  0  0  0
  -19.5778  -15.5862   22.0489 C   0  0  0  0  0  0
  -19.4969  -26.4715   23.4293 C   0  0  0  0  0  0
  -18.6736  -14.3402   21.6979 C   0  0  0  0  0  0
  -22.8581  -15.4273   18.1819 C   0  0  0  0  0  0
  -29.3445  -15.4749   19.0629 N   0  0  0  0  0  0
  -20.6301  -27.5786   21.4966 N   0  0  0  0  0  0
  -18.8091  -13.7856   20.3016 N   0  0  0  0  0  0
  -19.5213  -15.5594   19.0262 O   0  0  0  0  0  0
  -21.8089  -28.0062   19.5874 O   0  0  0  0  0  0
  -24.2613  -15.0783   17.8917 O   0  0  0  0  0  0
  -31.5412  -12.5383   19.2780 H   0  0  0  0  0  0
  -30.4751  -11.4825   20.1548 H   0  0  0  0  0  0
  -29.7607  -11.0515   18.0438 H   0  0  0  0  0  0
  -30.0280  -12.6363   17.4461 H   0  0  0  0  0  0
  -27.5198  -11.5960   18.0875 H   0  0  0  0  0  0
  -28.0923  -13.2267   17.8975 H   0  0  0  0  0  0
  -27.9342  -11.6490   20.3570 H   0  0  0  0  0  0
  -28.9290  -12.6146   21.8417 H   0  0  0  0  0  0
  -28.3386  -14.2238   21.4747 H   0  0  0  0  0  0
  -25.0519   -9.7370   22.6344 H   0  0  0  0  0  0
  -23.8662   -7.5685   22.8690 H   0  0  0  0  0  0
  -21.0636   -8.7879   19.8101 H   0  0  0  0  0  0
  -22.3936  -10.8719   19.4807 H   0  0  0  0  0  0
  -21.1467   -7.6210   23.9761 H   0  0  0  0  0  0
  -21.1082   -6.0771   25.9160 H   0  0  0  0  0  0
  -22.0552   -2.7771   23.3212 H   0  0  0  0  0  0
  -21.7936  -11.8187   22.1729 H   0  0  0  0  0  0
  -20.9340  -13.3074   22.0411 H   0  0  0  0  0  0
  -24.8505  -15.7442   21.2547 H   0  0  0  0  0  0
  -26.3528  -15.4226   20.5220 H   0  0  0  0  0  0
  -26.7289  -32.5530   23.1345 H   0  0  0  0  0  0
  -25.0837  -34.0061   25.0912 H   0  0  0  0  0  0
  -22.6738  -31.3578   21.6737 H   0  0  0  0  0  0
  -23.3665  -35.9734   23.3163 H   0  0  0  0  0  0
  -24.3588  -36.8994   22.1981 H   0  0  0  0  0  0
  -23.7473  -37.6516   23.6653 H   0  0  0  0  0  0
  -26.1820  -31.5846   20.7240 H   0  0  0  0  0  0
  -26.8437  -30.7696   22.1242 H   0  0  0  0  0  0
  -27.7220  -28.5085   21.5112 H   0  0  0  0  0  0
  -25.8277  -26.4034   18.3992 H   0  0  0  0  0  0
  -24.1531  -28.1707   18.1452 H   0  0  0  0  0  0
  -23.9481  -31.1223   19.6122 H   0  0  0  0  0  0
  -22.7317  -30.0247   19.6484 H   0  0  0  0  0  0
  -25.1335  -36.1810   25.0687 H   0  0  0  0  0  0
  -21.3548  -28.3351   24.7010 H   0  0  0  0  0  0
  -21.6703  -25.6544   23.9104 H   0  0  0  0  0  0
  -22.7393  -26.1657   22.8943 H   0  0  0  0  0  0
  -19.9167  -24.3332   21.4963 H   0  0  0  0  0  0
  -20.6824  -25.3047   20.5449 H   0  0  0  0  0  0
  -18.3984  -26.7673   20.2385 H   0  0  0  0  0  0
  -17.6314  -25.9610   21.5691 H   0  0  0  0  0  0
  -19.7044  -30.5253   24.6244 H   0  0  0  0  0  0
  -17.3830  -31.3146   24.6366 H   0  0  0  0  0  0
  -15.6254  -30.0524   23.4047 H   0  0  0  0  0  0
  -16.1809  -28.1189   22.0235 H   0  0  0  0  0  0
  -24.6042  -30.7112   25.8286 H   0  0  0  0  0  0
  -24.9221  -32.3113   26.4926 H   0  0  0  0  0  0
  -25.8339  -30.9299   27.0609 H   0  0  0  0  0  0
  -26.3120  -29.6638   24.1255 H   0  0  0  0  0  0
  -27.4078  -29.6992   25.4774 H   0  0  0  0  0  0
  -27.8996  -30.4023   23.9652 H   0  0  0  0  0  0
  -27.2380  -33.3528   26.2222 H   0  0  0  0  0  0
  -28.3932  -32.6962   25.0770 H   0  0  0  0  0  0
  -28.0495  -31.8589   26.5955 H   0  0  0  0  0  0
  -28.2481  -38.0224   24.7416 H   0  0  0  0  0  0
  -28.1132  -36.2698   24.6274 H   0  0  0  0  0  0
  -27.2181  -37.1514   25.8820 H   0  0  0  0  0  0
  -21.1486  -30.0858   22.5793 H   0  0  0  0  0  0
  -25.9977  -38.2711   24.1499 H   0  0  0  0  0  0
  -26.2555  -18.9663   19.4043 H   0  0  0  0  0  0
  -28.4664  -17.9472   19.5689 H   0  0  0  0  0  0
  -24.2843  -17.7452   18.6095 H   0  0  0  0  0  0
  -26.6335  -14.3061   18.0624 H   0  0  0  0  0  0
  -17.8862  -12.3782   18.9163 H   0  0  0  0  0  0
  -16.7865  -13.1672   19.9626 H   0  0  0  0  0  0
  -17.7585  -11.8811   20.6178 H   0  0  0  0  0  0
  -20.1210  -12.8074   18.0397 H   0  0  0  0  0  0
  -21.1570  -12.8785   19.3759 H   0  0  0  0  0  0
  -23.6048  -26.2006   19.6563 H   0  0  0  0  0  0
  -23.4220  -25.5551   21.1429 H   0  0  0  0  0  0
  -21.2243  -14.5611   16.9036 H   0  0  0  0  0  0
  -22.4493  -13.4644   17.4065 H   0  0  0  0  0  0
  -20.4851  -20.9622   21.9409 H   0  0  0  0  0  0
  -21.1733  -20.6401   23.5050 H   0  0  0  0  0  0
  -18.3758  -19.7763   22.5627 H   0  0  0  0  0  0
  -18.9513  -19.5543   24.1829 H   0  0  0  0  0  0
  -19.0580  -21.8815   24.4618 H   0  0  0  0  0  0
  -18.7295  -22.3200   22.8118 H   0  0  0  0  0  0
  -20.7535  -18.0045   23.3357 H   0  0  0  0  0  0
  -20.2202  -18.2489   21.6871 H   0  0  0  0  0  0
  -21.0550  -23.6094   22.9575 H   0  0  0  0  0  0
  -20.9258  -23.4857   24.6124 H   0  0  0  0  0  0
  -17.9866  -17.0240   22.4426 H   0  0  0  0  0  0
  -18.8642  -16.4792   23.8586 H   0  0  0  0  0  0
  -18.8344  -24.7820   24.8185 H   0  0  0  0  0  0
  -18.4281  -24.5357   23.1799 H   0  0  0  0  0  0
  -20.4342  -15.1970   22.5915 H   0  0  0  0  0  0
  -20.0378  -15.9950   21.1732 H   0  0  0  0  0  0
  -19.8491  -26.6564   24.4562 H   0  0  0  0  0  0
  -18.4423  -26.6113   23.7335 H   0  0  0  0  0  0
  -17.6279  -14.5055   21.9339 H   0  0  0  0  0  0
  -18.9619  -13.5649   22.4132 H   0  0  0  0  0  0
  -22.7555  -15.8335   19.1882 H   0  0  0  0  0  0
  -22.6152  -16.2622   17.5195 H   0  0  0  0  0  0
  -29.8967  -16.1612   18.5871 H   0  0  0  0  0  0
  -20.0702  -28.3328   21.1040 H   0  0  0  0  0  0
  1 25  1  0  0  0
  1 30  2  0  0  0
  1 94  1  0  0  0
  2  3  1  0  0  0
  2 25  1  0  0  0
  2100  1  0  0  0
  2101  1  0  0  0
  3  4  1  0  0  0
  3102  1  0  0  0
  3103  1  0  0  0
  4  5  1  0  0  0
  4104  1  0  0  0
  4105  1  0  0  0
  5  6  1  0  0  0
  5 26  1  0  0  0
  5106  1  0  0  0
  6 25  1  0  0  0
  6107  1  0  0  0
  6108  1  0  0  0
  7  8  2  0  0  0
  7 26  1  0  0  0
  7 29  1  0  0  0
  8  9  1  0  0  0
  8 22  1  0  0  0
  9 10  1  0  0  0
  9 27  2  0  0  0
 10 11  2  0  0  0
 10 15  1  0  0  0
 11 12  1  0  0  0
 11109  1  0  0  0
 12 13  2  0  0  0
 12110  1  0  0  0
 13 14  1  0  0  0
 13 31  1  0  0  0
 14 15  2  0  0  0
 14111  1  0  0  0
 15112  1  0  0  0
 16 17  2  0  0  0
 16 21  1  0  0  0
 16 31  1  0  0  0
 17 18  1  0  0  0
 17113  1  0  0  0
 18 19  2  0  0  0
 18114  1  0  0  0
 19 20  1  0  0  0
 19 24  1  0  0  0
 20 21  2  0  0  0
 20115  1  0  0  0
 21 23  1  0  0  0
 22 28  1  0  0  0
 22 32  2  0  0  0
 26 27  1  0  0  0
 28116  1  0  0  0
 28117  1  0  0  0
 29118  1  0  0  0
 29119  1  0  0  0
 33 34  1  0  0  0
 33 66  1  0  0  0
 33 70  2  0  0  0
 34 36  1  0  0  0
 34 59  1  0  0  0
 34120  1  0  0  0
 35 44  2  0  0  0
 35 45  1  0  0  0
 35 68  1  0  0  0
 36 56  1  0  0  0
 36121  1  0  0  0
 37 39  1  0  0  0
 37 47  1  0  0  0
 37 66  1  0  0  0
 37122  1  0  0  0
 38 43  2  0  0  0
 38 46  1  0  0  0
 38 47  1  0  0  0
 39 64  1  0  0  0
 39 67  2  0  0  0
 40 52  1  0  0  0
 40 53  2  0  0  0
 40 58  1  0  0  0
 41123  1  0  0  0
 41124  1  0  0  0
 41125  1  0  0  0
 41 48  1  0  0  0
 42 43  1  0  0  0
 42 66  1  0  0  0
 42126  1  0  0  0
 42127  1  0  0  0
 43 44  1  0  0  0
 44128  1  0  0  0
 45 46  2  0  0  0
 45129  1  0  0  0
 46130  1  0  0  0
 47131  1  0  0  0
 47132  1  0  0  0
 48 56  1  0  0  0
 48 65  1  0  0  0
 48133  1  0  0  0
 49 50  1  0  0  0
 49 53  1  0  0  0
 49 64  1  0  0  0
 49134  1  0  0  0
 50 51  1  0  0  0
 50135  1  0  0  0
 50136  1  0  0  0
 51 52  1  0  0  0
 51137  1  0  0  0
 51138  1  0  0  0
 52139  1  0  0  0
 52140  1  0  0  0
 53 54  1  0  0  0
 54 55  2  0  0  0
 54141  1  0  0  0
 55 57  1  0  0  0
 55142  1  0  0  0
 56 69  2  0  0  0
 57 58  2  0  0  0
 57143  1  0  0  0
 58144  1  0  0  0
 59 60  1  0  0  0
 59 61  1  0  0  0
 59 62  1  0  0  0
 60145  1  0  0  0
 60146  1  0  0  0
 60147  1  0  0  0
 61148  1  0  0  0
 61149  1  0  0  0
 61150  1  0  0  0
 62151  1  0  0  0
 62152  1  0  0  0
 62153  1  0  0  0
 63 65  1  0  0  0
 63154  1  0  0  0
 63155  1  0  0  0
 63156  1  0  0  0
 64157  1  0  0  0
 65158  1  0  0  0
 68 81  1  0  0  0
 71 72  2  0  0  0
 71 73  1  0  0  0
 71159  1  0  0  0
 72 75  1  0  0  0
 72160  1  0  0  0
 73 76  2  0  0  0
 73161  1  0  0  0
 74 75  2  0  0  0
 74 76  1  0  0  0
 74162  1  0  0  0
 75 94  1  0  0  0
 76 99  1  0  0  0
 77 80  1  0  0  0
 77 96  1  0  0  0
 77 97  2  0  0  0
 78 81  1  0  0  0
 78 95  1  0  0  0
 78 98  2  0  0  0
 79 96  1  0  0  0
 79163  1  0  0  0
 79164  1  0  0  0
 79165  1  0  0  0
 80 82  1  0  0  0
 80166  1  0  0  0
 80167  1  0  0  0
 81168  1  0  0  0
 81169  1  0  0  0
 82 93  1  0  0  0
 82170  1  0  0  0
 82171  1  0  0  0
 83 84  1  0  0  0
 83 85  1  0  0  0
 83172  1  0  0  0
 83173  1  0  0  0
 84 86  1  0  0  0
 84174  1  0  0  0
 84175  1  0  0  0
 85 87  1  0  0  0
 85176  1  0  0  0
 85177  1  0  0  0
 86 88  1  0  0  0
 86178  1  0  0  0
 86179  1  0  0  0
 87 89  1  0  0  0
 87180  1  0  0  0
 87181  1  0  0  0
 88 90  1  0  0  0
 88182  1  0  0  0
 88183  1  0  0  0
 89 91  1  0  0  0
 89184  1  0  0  0
 89185  1  0  0  0
 90 92  1  0  0  0
 90186  1  0  0  0
 90187  1  0  0  0
 91 95  1  0  0  0
 91188  1  0  0  0
 91189  1  0  0  0
 92 96  1  0  0  0
 92190  1  0  0  0
 92191  1  0  0  0
 93 99  1  0  0  0
 93192  1  0  0  0
 93193  1  0  0  0
 94194  1  0  0  0
 95195  1  0  0  0
M  ISO  4   1 100  68 101  81 101  94 100
M  END
> <chiral flag>
0

> <version>
0

> <s_m_source_file>
/data/baiqing/PycharmProjects/Reinvent-master-3.2/result/LINK_invent/BTK/process_docking_weight1_custom_sum_contain_oxygen_bond_distance_aromatic_linkinvent_7_9_3/rearranged_h_0005.sdf

> <i_m_source_file_index>
80

> <r_mmod_Potential_Energy-OPLS-2005>
9700.6640625

> <r_mmod_Stretch_Energy-OPLS-2005>
4064.47485351562

> <r_mmod_Bend_Energy-OPLS-2005>
1046.05859375

> <r_mmod_Torsional_Energy-OPLS-2005>
674.4052734375

> <r_mmod_Improper_Torsional_Energy-OPLS-2005>
59.7024192810059

> <r_mmod_Van_der_Waal_Energy-OPLS-2005>
2191.47875976562

> <r_mmod_Electrostatic_Energy-OPLS-2005>
-431.758453369141

> <r_mmod_Solvation_Energy-OPLS-2005>
-211.030960083008

> <b_mmod_Minimization_Converged-OPLS-2005>
0

> <r_mmod_RMS_Derivative-OPLS-2005>
39.9445457458496

$$$$
82
                    3D
 Structure written by MMmdl.
149157  0  0  1  0            999 V2000
  -30.2773  -15.6596   20.3398 C   0  0  0  0  0  0
  -30.4297  -13.1024   19.5348 C   0  0  0  0  0  0
  -29.5506  -12.6625   18.3275 C   0  0  0  0  0  0
  -28.1252  -12.3029   18.7706 C   0  0  0  0  0  0
  -27.5982  -13.3090   19.8160 C   0  0  2  0  0  0
  -28.6155  -13.6391   20.9339 C   0  0  0  0  0  0
  -25.2328  -13.8275   20.5793 C   0  0  0  0  0  0
  -24.1726  -13.0425   20.9307 C   0  0  0  0  0  0
  -24.6428  -11.6942   20.8779 C   0  0  0  0  0  0
  -23.9138  -10.4290   21.0406 C   0  0  0  0  0  0
  -24.3664   -9.4195   21.9185 C   0  0  0  0  0  0
  -23.6319   -8.2242   22.0759 C   0  0  0  0  0  0
  -22.4296   -8.0300   21.3552 C   0  0  0  0  0  0
  -21.9941   -9.0285   20.4657 C   0  0  0  0  0  0
  -22.7300  -10.2146   20.3066 C   0  0  0  0  0  0
  -21.6863   -6.0754   22.5276 C   0  0  0  0  0  0
  -21.4022   -6.5652   23.8211 C   0  0  0  0  0  0
  -21.3656   -5.6801   24.9172 C   0  0  0  0  0  0
  -21.6036   -4.3066   24.7222 C   0  0  0  0  0  0
  -21.8822   -3.8161   23.4349 C   0  0  0  0  0  0
  -21.9192   -4.6978   22.3400 C   0  0  0  0  0  0
  -22.7732  -13.5154   21.1942 C   0  0  0  0  0  0
  -22.1660   -4.2165   21.0980 F   0  0  0  0  0  0
  -21.5616   -3.4544   25.7735 F   0  0  0  0  0  0
  -29.7860  -14.2770   20.2850 N   0  0  0  0  0  0
  -26.2788  -12.9616   20.3249 N   0  0  0  0  0  0
  -25.9377  -11.6686   20.5723 N   0  0  0  0  0  0
  -22.0404  -12.8117   22.0486 N   0  0  0  0  0  0
  -25.3859  -15.2008   20.4154 N   0  0  0  0  0  0
  -31.5104  -15.6260   20.1608 O   0  0  0  0  0  0
  -21.6646   -6.8907   21.4246 O   0  0  0  0  0  0
  -22.3396  -14.5457   20.6792 O   0  0  0  0  0  0
  -24.6864  -31.7966   23.1508 C   0  0  0  0  0  0
  -25.9439  -32.4443   23.8070 C   0  0  1  0  0  0
  -27.2297  -26.6684   20.2336 C   0  0  0  0  0  0
  -25.6010  -33.8270   24.1957 N   0  0  0  0  0  0
  -23.5141  -30.3967   21.5043 C   0  0  2  0  0  0
  -24.9742  -28.7287   20.1234 C   0  0  0  0  0  0
  -22.7778  -29.4299   22.4711 C   0  0  0  0  0  0
  -18.0341  -28.1424   22.8430 C   0  0  0  0  0  0
  -24.1508  -36.7138   23.2644 C   0  0  0  0  0  0
  -26.0951  -30.5188   21.4214 C   0  0  0  0  0  0
  -26.1598  -29.0773   20.7805 C   0  0  0  0  0  0
  -27.2690  -28.0741   20.8060 C   0  0  0  0  0  0
  -26.0161  -26.5429   19.5098 C   0  0  0  0  0  0
  -24.9419  -27.4861   19.4660 C   0  0  0  0  0  0
  -23.7723  -29.6885   20.1420 C   0  0  0  0  0  0
  -25.4156  -36.2883   24.0277 C   0  0  1  0  0  0
  -20.5977  -28.3790   23.1132 C   0  0  2  0  0  0
  -20.6792  -26.9445   22.5401 C   0  0  0  0  0  0
  -19.5781  -26.6384   21.5191 C   0  0  0  0  0  0
  -18.1975  -26.7940   22.1612 C   0  0  0  0  0  0
  -19.1610  -28.8927   23.2758 C   0  0  0  0  0  0
  -18.9503  -30.1507   23.8817 C   0  0  0  0  0  0
  -17.6487  -30.6590   24.0560 C   0  0  0  0  0  0
  -25.9136  -34.9265   23.4964 C   0  0  0  0  0  0
  -16.5385  -29.9076   23.6341 C   0  0  0  0  0  0
  -16.7321  -28.6511   23.0340 C   0  0  0  0  0  0
  -26.4623  -31.6466   25.0681 C   0  0  0  0  0  0
  -25.3709  -31.3795   26.1320 C   0  0  0  0  0  0
  -27.0525  -30.2791   24.6578 C   0  0  0  0  0  0
  -27.6103  -32.4289   25.7479 C   0  0  0  0  0  0
  -27.5573  -37.1733   24.8463 C   0  0  0  0  0  0
  -21.4430  -29.3020   22.3440 N   0  0  0  0  0  0
  -26.4286  -37.3641   23.9392 N   0  0  0  0  0  0
  -24.7890  -30.9379   22.0784 N   0  0  0  0  0  0
  -23.4206  -28.7912   23.3078 O   0  0  0  0  0  0
  -28.2138  -25.4530   20.2558 O   0  0  0  0  0  0
  -26.5780  -34.8843   22.4583 O   0  0  0  0  0  0
  -23.5881  -32.1067   23.6433 O   0  0  0  0  0  0
  -27.6531  -20.9431   20.4754 C   0  0  0  0  0  0
  -29.7788  -21.4553   20.2288 C   0  0  0  0  0  0
  -27.9776  -19.4493   20.4922 C   0  0  0  0  0  0
  -30.1423  -19.9403   20.2417 C   0  0  0  0  0  0
  -28.4663  -22.1841   20.3367 C   0  0  0  0  0  0
  -29.2714  -18.7157   20.3778 C   0  0  0  0  0  0
  -26.7618  -18.5493   20.6492 C   0  0  0  0  0  0
  -31.6246  -19.6456   20.0878 C   0  0  0  0  0  0
  -29.4392  -16.9806   20.4176 N   0  0  0  0  0  0
  -27.8251  -23.7007   20.3310 N   0  0  0  0  0  0
  -31.4103  -13.3876   19.1523 H   0  0  0  0  0  0
  -30.6183  -12.2635   20.2058 H   0  0  0  0  0  0
  -30.0028  -11.8175   17.8082 H   0  0  0  0  0  0
  -29.5061  -13.4771   17.6031 H   0  0  0  0  0  0
  -28.1513  -11.3029   19.2063 H   0  0  0  0  0  0
  -27.4566  -12.2482   17.9109 H   0  0  0  0  0  0
  -27.4587  -14.2305   19.2473 H   0  0  0  0  0  0
  -28.8843  -12.7515   21.5082 H   0  0  0  0  0  0
  -28.1794  -14.3429   21.6439 H   0  0  0  0  0  0
  -25.2808   -9.5645   22.4771 H   0  0  0  0  0  0
  -24.0012   -7.4625   22.7474 H   0  0  0  0  0  0
  -21.0869   -8.8839   19.8967 H   0  0  0  0  0  0
  -22.3777  -10.9700   19.6192 H   0  0  0  0  0  0
  -21.2020   -7.6159   23.9717 H   0  0  0  0  0  0
  -21.1470   -6.0534   25.9073 H   0  0  0  0  0  0
  -22.0595   -2.7626   23.2848 H   0  0  0  0  0  0
  -22.4047  -11.9776   22.4849 H   0  0  0  0  0  0
  -21.1020  -13.1121   22.2732 H   0  0  0  0  0  0
  -24.5952  -15.8310   20.4988 H   0  0  0  0  0  0
  -26.1869  -15.6243   19.9685 H   0  0  0  0  0  0
  -26.7515  -32.4918   23.0778 H   0  0  0  0  0  0
  -25.0042  -33.9302   25.0031 H   0  0  0  0  0  0
  -22.8414  -31.2348   21.3107 H   0  0  0  0  0  0
  -23.3778  -35.9461   23.3271 H   0  0  0  0  0  0
  -24.3566  -36.8826   22.2064 H   0  0  0  0  0  0
  -23.7267  -37.6313   23.6732 H   0  0  0  0  0  0
  -26.2964  -31.2374   20.6255 H   0  0  0  0  0  0
  -26.9469  -30.5968   22.0844 H   0  0  0  0  0  0
  -28.1636  -28.3527   21.3437 H   0  0  0  0  0  0
  -25.8569  -25.6081   18.9913 H   0  0  0  0  0  0
  -24.0488  -27.2110   18.9218 H   0  0  0  0  0  0
  -23.9532  -30.4465   19.3795 H   0  0  0  0  0  0
  -22.8765  -29.1576   19.8148 H   0  0  0  0  0  0
  -25.1360  -36.1659   25.0767 H   0  0  0  0  0  0
  -21.0060  -28.3418   24.1257 H   0  0  0  0  0  0
  -20.5631  -26.2413   23.3670 H   0  0  0  0  0  0
  -21.6662  -26.7354   22.1253 H   0  0  0  0  0  0
  -19.6946  -25.6283   21.1253 H   0  0  0  0  0  0
  -19.6719  -27.3179   20.6711 H   0  0  0  0  0  0
  -17.4232  -26.6654   21.4041 H   0  0  0  0  0  0
  -18.0388  -26.0118   22.9052 H   0  0  0  0  0  0
  -19.7982  -30.7346   24.2164 H   0  0  0  0  0  0
  -17.5035  -31.6253   24.5203 H   0  0  0  0  0  0
  -15.5389  -30.2944   23.7702 H   0  0  0  0  0  0
  -15.8725  -28.0804   22.7073 H   0  0  0  0  0  0
  -24.5902  -30.7128   25.7640 H   0  0  0  0  0  0
  -24.8909  -32.3027   26.4574 H   0  0  0  0  0  0
  -25.7917  -30.9081   27.0215 H   0  0  0  0  0  0
  -26.3257  -29.6434   24.1525 H   0  0  0  0  0  0
  -27.3886  -29.7193   25.5313 H   0  0  0  0  0  0
  -27.9261  -30.3875   24.0150 H   0  0  0  0  0  0
  -27.2688  -33.3660   26.1883 H   0  0  0  0  0  0
  -28.4012  -32.6726   25.0369 H   0  0  0  0  0  0
  -28.0674  -31.8533   26.5541 H   0  0  0  0  0  0
  -28.2576  -38.0039   24.7474 H   0  0  0  0  0  0
  -28.1088  -36.2559   24.6337 H   0  0  0  0  0  0
  -27.2279  -37.1425   25.8865 H   0  0  0  0  0  0
  -20.9760  -29.8639   21.6458 H   0  0  0  0  0  0
  -26.0117  -38.2698   24.1378 H   0  0  0  0  0  0
  -26.5992  -21.1554   20.5904 H   0  0  0  0  0  0
  -30.6250  -22.1186   20.1198 H   0  0  0  0  0  0
  -26.6295  -18.2559   21.6908 H   0  0  0  0  0  0
  -26.8644  -17.6454   20.0514 H   0  0  0  0  0  0
  -25.8461  -19.0403   20.3199 H   0  0  0  0  0  0
  -32.1750  -19.9490   20.9792 H   0  0  0  0  0  0
  -32.0377  -20.1857   19.2351 H   0  0  0  0  0  0
  -31.8091  -18.5839   19.9246 H   0  0  0  0  0  0
  -28.5090  -16.6137   20.5471 H   0  0  0  0  0  0
  -26.8116  -23.6560   20.4054 H   0  0  0  0  0  0
  1 25  1  0  0  0
  1 30  2  0  0  0
  1 79  1  0  0  0
  2  3  1  0  0  0
  2 25  1  0  0  0
  2 81  1  0  0  0
  2 82  1  0  0  0
  3  4  1  0  0  0
  3 83  1  0  0  0
  3 84  1  0  0  0
  4  5  1  0  0  0
  4 85  1  0  0  0
  4 86  1  0  0  0
  5  6  1  0  0  0
  5 26  1  0  0  0
  5 87  1  0  0  0
  6 25  1  0  0  0
  6 88  1  0  0  0
  6 89  1  0  0  0
  7  8  2  0  0  0
  7 26  1  0  0  0
  7 29  1  0  0  0
  8  9  1  0  0  0
  8 22  1  0  0  0
  9 10  1  0  0  0
  9 27  2  0  0  0
 10 11  2  0  0  0
 10 15  1  0  0  0
 11 12  1  0  0  0
 11 90  1  0  0  0
 12 13  2  0  0  0
 12 91  1  0  0  0
 13 14  1  0  0  0
 13 31  1  0  0  0
 14 15  2  0  0  0
 14 92  1  0  0  0
 15 93  1  0  0  0
 16 17  2  0  0  0
 16 21  1  0  0  0
 16 31  1  0  0  0
 17 18  1  0  0  0
 17 94  1  0  0  0
 18 19  2  0  0  0
 18 95  1  0  0  0
 19 20  1  0  0  0
 19 24  1  0  0  0
 20 21  2  0  0  0
 20 96  1  0  0  0
 21 23  1  0  0  0
 22 28  1  0  0  0
 22 32  2  0  0  0
 26 27  1  0  0  0
 28 97  1  0  0  0
 28 98  1  0  0  0
 29 99  1  0  0  0
 29100  1  0  0  0
 33 34  1  0  0  0
 33 66  1  0  0  0
 33 70  2  0  0  0
 34 36  1  0  0  0
 34 59  1  0  0  0
 34101  1  0  0  0
 35 44  2  0  0  0
 35 45  1  0  0  0
 35 68  1  0  0  0
 36 56  1  0  0  0
 36102  1  0  0  0
 37 39  1  0  0  0
 37 47  1  0  0  0
 37 66  1  0  0  0
 37103  1  0  0  0
 38 43  2  0  0  0
 38 46  1  0  0  0
 38 47  1  0  0  0
 39 64  1  0  0  0
 39 67  2  0  0  0
 40 52  1  0  0  0
 40 53  2  0  0  0
 40 58  1  0  0  0
 41104  1  0  0  0
 41105  1  0  0  0
 41106  1  0  0  0
 41 48  1  0  0  0
 42 43  1  0  0  0
 42 66  1  0  0  0
 42107  1  0  0  0
 42108  1  0  0  0
 43 44  1  0  0  0
 44109  1  0  0  0
 45 46  2  0  0  0
 45110  1  0  0  0
 46111  1  0  0  0
 47112  1  0  0  0
 47113  1  0  0  0
 48 56  1  0  0  0
 48 65  1  0  0  0
 48114  1  0  0  0
 49 50  1  0  0  0
 49 53  1  0  0  0
 49 64  1  0  0  0
 49115  1  0  0  0
 50 51  1  0  0  0
 50116  1  0  0  0
 50117  1  0  0  0
 51 52  1  0  0  0
 51118  1  0  0  0
 51119  1  0  0  0
 52120  1  0  0  0
 52121  1  0  0  0
 53 54  1  0  0  0
 54 55  2  0  0  0
 54122  1  0  0  0
 55 57  1  0  0  0
 55123  1  0  0  0
 56 69  2  0  0  0
 57 58  2  0  0  0
 57124  1  0  0  0
 58125  1  0  0  0
 59 60  1  0  0  0
 59 61  1  0  0  0
 59 62  1  0  0  0
 60126  1  0  0  0
 60127  1  0  0  0
 60128  1  0  0  0
 61129  1  0  0  0
 61130  1  0  0  0
 61131  1  0  0  0
 62132  1  0  0  0
 62133  1  0  0  0
 62134  1  0  0  0
 63 65  1  0  0  0
 63135  1  0  0  0
 63136  1  0  0  0
 63137  1  0  0  0
 64138  1  0  0  0
 65139  1  0  0  0
 68 80  1  0  0  0
 71 73  2  0  0  0
 71 75  1  0  0  0
 71140  1  0  0  0
 72 74  1  0  0  0
 72 75  2  0  0  0
 72141  1  0  0  0
 73 76  1  0  0  0
 73 77  1  0  0  0
 74 76  2  0  0  0
 74 78  1  0  0  0
 75 80  1  0  0  0
 76 79  1  0  0  0
 77142  1  0  0  0
 77143  1  0  0  0
 77144  1  0  0  0
 78145  1  0  0  0
 78146  1  0  0  0
 78147  1  0  0  0
 79148  1  0  0  0
 80149  1  0  0  0
M  ISO  4   1 100  68 101  79 100  80 101
M  END
> <chiral flag>
0

> <version>
0

> <s_m_source_file>
/data/baiqing/PycharmProjects/Reinvent-master-3.2/result/LINK_invent/BTK/process_docking_weight1_custom_sum_contain_oxygen_bond_distance_aromatic_linkinvent_7_9_3/rearranged_h_0005.sdf

> <i_m_source_file_index>
81

> <r_mmod_Potential_Energy-OPLS-2005>
2370.30541992188

> <r_mmod_Stretch_Energy-OPLS-2005>
966.22412109375

> <r_mmod_Bend_Energy-OPLS-2005>
748.819091796875

> <r_mmod_Torsional_Energy-OPLS-2005>
199.463165283203

> <r_mmod_Improper_Torsional_Energy-OPLS-2005>
4.03211784362793

> <r_mmod_Van_der_Waal_Energy-OPLS-2005>
130.607986450195

> <r_mmod_Electrostatic_Energy-OPLS-2005>
-402.4658203125

> <r_mmod_Solvation_Energy-OPLS-2005>
-224.63981628418

> <b_mmod_Minimization_Converged-OPLS-2005>
0

> <r_mmod_RMS_Derivative-OPLS-2005>
2.57914090156555

$$$$
83
                    3D
 Structure written by MMmdl.
190198  0  0  1  0            999 V2000
  -30.6921  -14.4638   20.5035 C   0  0  0  0  0  0
  -30.4192  -12.2774   19.4270 C   0  0  0  0  0  0
  -29.4894  -12.4518   18.2086 C   0  0  0  0  0  0
  -28.0078  -12.3452   18.6209 C   0  0  0  0  0  0
  -27.6582  -13.1952   19.8736 C   0  0  2  0  0  0
  -28.7039  -12.9958   20.9943 C   0  0  0  0  0  0
  -25.2585  -13.8142   20.5674 C   0  0  0  0  0  0
  -24.1830  -13.0428   20.9181 C   0  0  0  0  0  0
  -24.6369  -11.6894   20.8752 C   0  0  0  0  0  0
  -23.9036  -10.4282   21.0405 C   0  0  0  0  0  0
  -24.3610   -9.4201   21.9178 C   0  0  0  0  0  0
  -23.6292   -8.2236   22.0742 C   0  0  0  0  0  0
  -22.4274   -8.0274   21.3534 C   0  0  0  0  0  0
  -21.9899   -9.0243   20.4634 C   0  0  0  0  0  0
  -22.7216  -10.2127   20.3042 C   0  0  0  0  0  0
  -21.6851   -6.0735   22.5276 C   0  0  0  0  0  0
  -21.4020   -6.5639   23.8212 C   0  0  0  0  0  0
  -21.3662   -5.6789   24.9171 C   0  0  0  0  0  0
  -21.6044   -4.3052   24.7222 C   0  0  0  0  0  0
  -21.8822   -3.8143   23.4340 C   0  0  0  0  0  0
  -21.9196   -4.6960   22.3399 C   0  0  0  0  0  0
  -22.7857  -13.5234   21.1837 C   0  0  0  0  0  0
  -22.1659   -4.2142   21.0974 F   0  0  0  0  0  0
  -21.5627   -3.4539   25.7735 F   0  0  0  0  0  0
  -30.0330  -13.2801   20.4290 N   0  0  0  0  0  0
  -26.3005  -12.9282   20.3392 N   0  0  0  0  0  0
  -25.9296  -11.6455   20.5828 N   0  0  0  0  0  0
  -22.0494  -12.8237   22.0395 N   0  0  0  0  0  0
  -25.4302  -15.1861   20.4052 N   0  0  0  0  0  0
  -31.8571  -14.6154   20.1237 O   0  0  0  0  0  0
  -21.6637   -6.8875   21.4235 O   0  0  0  0  0  0
  -22.3550  -14.5547   20.6680 O   0  0  0  0  0  0
  -24.6097  -31.8695   23.2092 C   0  0  0  0  0  0
  -25.8997  -32.4829   23.8397 C   0  0  1  0  0  0
  -27.2406  -27.4691   20.1037 C   0  0  0  0  0  0
  -25.5854  -33.8623   24.2326 N   0  0  0  0  0  0
  -23.3985  -30.4915   21.5495 C   0  0  2  0  0  0
  -24.8472  -28.9603   20.1171 C   0  0  0  0  0  0
  -22.7391  -29.4665   22.4993 C   0  0  0  0  0  0
  -18.0275  -28.1370   22.8498 C   0  0  0  0  0  0
  -24.1480  -36.7318   23.2644 C   0  0  0  0  0  0
  -25.9232  -30.8469   21.3582 C   0  0  0  0  0  0
  -26.0049  -29.4854   20.7056 C   0  0  0  0  0  0
  -27.2081  -28.7489   20.6905 C   0  0  0  0  0  0
  -26.0706  -26.9468   19.5125 C   0  0  0  0  0  0
  -24.8727  -27.6875   19.5177 C   0  0  0  0  0  0
  -23.6049  -29.8203   20.1653 C   0  0  0  0  0  0
  -25.4096  -36.3112   24.0344 C   0  0  1  0  0  0
  -20.5869  -28.3637   23.1323 C   0  0  2  0  0  0
  -20.6756  -26.9376   22.5417 C   0  0  0  0  0  0
  -19.5731  -26.6375   21.5212 C   0  0  0  0  0  0
  -18.1915  -26.7924   22.1628 C   0  0  0  0  0  0
  -19.1526  -28.8822   23.2912 C   0  0  0  0  0  0
  -18.9464  -30.1450   23.8886 C   0  0  0  0  0  0
  -17.6464  -30.6577   24.0572 C   0  0  0  0  0  0
  -25.9020  -34.9468   23.5132 C   0  0  0  0  0  0
  -16.5351  -29.9071   23.6352 C   0  0  0  0  0  0
  -16.7268  -28.6499   23.0350 C   0  0  0  0  0  0
  -26.4431  -31.6606   25.0713 C   0  0  0  0  0  0
  -25.3710  -31.3728   26.1476 C   0  0  0  0  0  0
  -27.0263  -30.3051   24.6073 C   0  0  0  0  0  0
  -27.6014  -32.4328   25.7464 C   0  0  0  0  0  0
  -27.5581  -37.1806   24.8465 C   0  0  0  0  0  0
  -21.4124  -29.3010   22.3723 N   0  0  0  0  0  0
  -26.4284  -37.3793   23.9416 N   0  0  0  0  0  0
  -24.6620  -31.0825   22.0978 N   0  0  0  0  0  0
  -23.4177  -28.8224   23.3045 O   0  0  0  0  0  0
  -28.4014  -26.7376   20.1319 O   0  0  0  0  0  0
  -26.5611  -34.8918   22.4716 O   0  0  0  0  0  0
  -23.5293  -32.1446   23.7487 O   0  0  0  0  0  0
  -30.3431  -18.5195   18.5945 C   0  0  0  0  0  0
  -30.5571  -17.8429   21.2939 C   0  0  0  0  0  0
  -30.0248  -17.2147   19.0041 C   0  0  0  0  0  0
  -30.1796  -16.8495   20.3645 C   0  0  0  0  0  0
  -30.8027  -19.4926   19.5055 C   0  0  0  0  0  0
  -30.8482  -19.1682   20.8927 C   0  0  0  0  0  0
  -33.6429  -23.7158   18.1722 C   0  0  0  0  0  0
  -31.4050  -25.6119   22.7699 C   0  0  0  0  0  0
  -29.5339  -16.2452   17.9470 C   0  0  0  0  0  0
  -32.4496  -22.0693   21.5036 C   0  0  0  0  0  0
  -32.1758  -23.3527   17.9258 C   0  0  0  0  0  0
  -32.5076  -26.6448   23.0226 C   0  0  0  0  0  0
  -33.8676  -26.2129   22.4321 C   0  0  0  0  0  0
  -31.9593  -22.0428   17.1450 C   0  0  0  0  0  0
  -33.9020  -26.2461   20.8927 C   0  0  0  0  0  0
  -35.1645  -25.6054   20.2866 C   0  0  0  0  0  0
  -35.1619  -25.5977   18.7439 C   0  0  0  0  0  0
  -29.6356  -24.8969   21.1698 C   0  0  0  0  0  0
  -31.0707  -21.4435   21.7495 C   0  0  0  0  0  0
  -32.1272  -20.7580   17.9729 C   0  0  0  0  0  0
  -28.2679  -25.5232   20.8720 C   0  0  0  0  0  0
  -29.9253  -15.5231   20.8161 N   0  0  0  0  0  0
  -33.9259  -25.0213   18.2215 N   0  0  0  0  0  0
  -30.5590  -25.8615   21.7633 N   0  0  0  0  0  0
  -34.4961  -22.8463   18.3536 O   0  0  0  0  0  0
  -31.3561  -24.5868   23.4506 O   0  0  0  0  0  0
  -31.1618  -20.7333   19.0291 O   0  0  0  0  0  0
  -31.1856  -20.0325   21.9184 O   0  0  0  0  0  0
  -31.4626  -12.3679   19.1205 H   0  0  0  0  0  0
  -30.3178  -11.2755   19.8455 H   0  0  0  0  0  0
  -29.7184  -11.6959   17.4560 H   0  0  0  0  0  0
  -29.6683  -13.4100   17.7274 H   0  0  0  0  0  0
  -27.8017  -11.2932   18.8213 H   0  0  0  0  0  0
  -27.3637  -12.6230   17.7853 H   0  0  0  0  0  0
  -27.6897  -14.2377   19.5689 H   0  0  0  0  0  0
  -28.6755  -11.9684   21.3608 H   0  0  0  0  0  0
  -28.4816  -13.6267   21.8571 H   0  0  0  0  0  0
  -25.2750   -9.5698   22.4757 H   0  0  0  0  0  0
  -24.0009   -7.4629   22.7458 H   0  0  0  0  0  0
  -21.0830   -8.8753   19.8945 H   0  0  0  0  0  0
  -22.3657  -10.9673   19.6163 H   0  0  0  0  0  0
  -21.2012   -7.6146   23.9720 H   0  0  0  0  0  0
  -21.1483   -6.0511   25.9079 H   0  0  0  0  0  0
  -22.0599   -2.7601   23.2839 H   0  0  0  0  0  0
  -22.4111  -11.9910   22.4807 H   0  0  0  0  0  0
  -21.1108  -13.1260   22.2592 H   0  0  0  0  0  0
  -24.6583  -15.8375   20.5001 H   0  0  0  0  0  0
  -26.2805  -15.6275   20.0787 H   0  0  0  0  0  0
  -26.7067  -32.5540   23.1174 H   0  0  0  0  0  0
  -24.9945  -33.9798   25.0429 H   0  0  0  0  0  0
  -22.6873  -31.3083   21.4106 H   0  0  0  0  0  0
  -23.3730  -35.9666   23.3316 H   0  0  0  0  0  0
  -24.3580  -36.8915   22.2059 H   0  0  0  0  0  0
  -23.7237  -37.6525   23.6647 H   0  0  0  0  0  0
  -26.0336  -31.6120   20.5889 H   0  0  0  0  0  0
  -26.8120  -30.9013   21.9752 H   0  0  0  0  0  0
  -28.1039  -29.1498   21.1449 H   0  0  0  0  0  0
  -26.0830  -25.9711   19.0490 H   0  0  0  0  0  0
  -23.9817  -27.2739   19.0646 H   0  0  0  0  0  0
  -23.7103  -30.5930   19.4032 H   0  0  0  0  0  0
  -22.7311  -29.2350   19.8725 H   0  0  0  0  0  0
  -25.1281  -36.1972   25.0838 H   0  0  0  0  0  0
  -20.9985  -28.3178   24.1439 H   0  0  0  0  0  0
  -20.5645  -26.2241   23.3594 H   0  0  0  0  0  0
  -21.6629  -26.7406   22.1220 H   0  0  0  0  0  0
  -19.6877  -25.6294   21.1215 H   0  0  0  0  0  0
  -19.6658  -27.3212   20.6763 H   0  0  0  0  0  0
  -17.4195  -26.6688   21.4024 H   0  0  0  0  0  0
  -18.0306  -26.0059   22.9015 H   0  0  0  0  0  0
  -19.7939  -30.7288   24.2204 H   0  0  0  0  0  0
  -17.5017  -31.6258   24.5180 H   0  0  0  0  0  0
  -15.5352  -30.2967   23.7682 H   0  0  0  0  0  0
  -15.8676  -28.0822   22.7039 H   0  0  0  0  0  0
  -24.5837  -30.7133   25.7811 H   0  0  0  0  0  0
  -24.8962  -32.2907   26.4959 H   0  0  0  0  0  0
  -25.8058  -30.8851   27.0213 H   0  0  0  0  0  0
  -26.2814  -29.6816   24.1112 H   0  0  0  0  0  0
  -27.4046  -29.7262   25.4508 H   0  0  0  0  0  0
  -27.8636  -30.4395   23.9220 H   0  0  0  0  0  0
  -27.2639  -33.3612   26.2091 H   0  0  0  0  0  0
  -28.3785  -32.6922   25.0265 H   0  0  0  0  0  0
  -28.0731  -31.8432   26.5333 H   0  0  0  0  0  0
  -28.2603  -38.0099   24.7513 H   0  0  0  0  0  0
  -28.1072  -36.2629   24.6289 H   0  0  0  0  0  0
  -27.2312  -37.1468   25.8873 H   0  0  0  0  0  0
  -20.9265  -29.8716   21.6943 H   0  0  0  0  0  0
  -26.0166  -38.2873   24.1407 H   0  0  0  0  0  0
  -30.2250  -18.7782   17.5522 H   0  0  0  0  0  0
  -30.6322  -17.5873   22.3411 H   0  0  0  0  0  0
  -29.3069  -16.7589   17.0124 H   0  0  0  0  0  0
  -28.6239  -15.7453   18.2674 H   0  0  0  0  0  0
  -30.3028  -15.5063   17.7318 H   0  0  0  0  0  0
  -33.1038  -21.9049   22.3596 H   0  0  0  0  0  0
  -32.3685  -23.1449   21.3518 H   0  0  0  0  0  0
  -32.9418  -21.6575   20.6256 H   0  0  0  0  0  0
  -31.7047  -24.1698   17.3777 H   0  0  0  0  0  0
  -31.6643  -23.3036   18.8870 H   0  0  0  0  0  0
  -32.6125  -26.7669   24.1016 H   0  0  0  0  0  0
  -32.2129  -27.6197   22.6319 H   0  0  0  0  0  0
  -34.1087  -25.2077   22.7844 H   0  0  0  0  0  0
  -34.6523  -26.8625   22.8239 H   0  0  0  0  0  0
  -32.6436  -22.0162   16.2955 H   0  0  0  0  0  0
  -30.9576  -22.0495   16.7160 H   0  0  0  0  0  0
  -33.8135  -27.2765   20.5461 H   0  0  0  0  0  0
  -33.0264  -25.7231   20.5108 H   0  0  0  0  0  0
  -35.2545  -24.5791   20.6471 H   0  0  0  0  0  0
  -36.0518  -26.1298   20.6417 H   0  0  0  0  0  0
  -36.0283  -25.0559   18.3623 H   0  0  0  0  0  0
  -35.2513  -26.6183   18.3699 H   0  0  0  0  0  0
  -30.0794  -24.5226   20.2477 H   0  0  0  0  0  0
  -29.4914  -24.0295   21.8161 H   0  0  0  0  0  0
  -30.3440  -21.7324   20.9914 H   0  0  0  0  0  0
  -30.6646  -21.8465   22.6764 H   0  0  0  0  0  0
  -33.1231  -20.6875   18.4068 H   0  0  0  0  0  0
  -32.0468  -19.9124   17.2900 H   0  0  0  0  0  0
  -27.7484  -25.7096   21.8143 H   0  0  0  0  0  0
  -27.6642  -24.8045   20.3163 H   0  0  0  0  0  0
  -28.9940  -15.3212   21.1486 H   0  0  0  0  0  0
  -33.1736  -25.6680   18.0191 H   0  0  0  0  0  0
  -30.6421  -26.7491   21.2852 H   0  0  0  0  0  0
  1 25  1  0  0  0
  1 30  2  0  0  0
  1 92  1  0  0  0
  2  3  1  0  0  0
  2 25  1  0  0  0
  2 99  1  0  0  0
  2100  1  0  0  0
  3  4  1  0  0  0
  3101  1  0  0  0
  3102  1  0  0  0
  4  5  1  0  0  0
  4103  1  0  0  0
  4104  1  0  0  0
  5  6  1  0  0  0
  5 26  1  0  0  0
  5105  1  0  0  0
  6 25  1  0  0  0
  6106  1  0  0  0
  6107  1  0  0  0
  7  8  2  0  0  0
  7 26  1  0  0  0
  7 29  1  0  0  0
  8  9  1  0  0  0
  8 22  1  0  0  0
  9 10  1  0  0  0
  9 27  2  0  0  0
 10 11  2  0  0  0
 10 15  1  0  0  0
 11 12  1  0  0  0
 11108  1  0  0  0
 12 13  2  0  0  0
 12109  1  0  0  0
 13 14  1  0  0  0
 13 31  1  0  0  0
 14 15  2  0  0  0
 14110  1  0  0  0
 15111  1  0  0  0
 16 17  2  0  0  0
 16 21  1  0  0  0
 16 31  1  0  0  0
 17 18  1  0  0  0
 17112  1  0  0  0
 18 19  2  0  0  0
 18113  1  0  0  0
 19 20  1  0  0  0
 19 24  1  0  0  0
 20 21  2  0  0  0
 20114  1  0  0  0
 21 23  1  0  0  0
 22 28  1  0  0  0
 22 32  2  0  0  0
 26 27  1  0  0  0
 28115  1  0  0  0
 28116  1  0  0  0
 29117  1  0  0  0
 29118  1  0  0  0
 33 34  1  0  0  0
 33 66  1  0  0  0
 33 70  2  0  0  0
 34 36  1  0  0  0
 34 59  1  0  0  0
 34119  1  0  0  0
 35 44  2  0  0  0
 35 45  1  0  0  0
 35 68  1  0  0  0
 36 56  1  0  0  0
 36120  1  0  0  0
 37 39  1  0  0  0
 37 47  1  0  0  0
 37 66  1  0  0  0
 37121  1  0  0  0
 38 43  2  0  0  0
 38 46  1  0  0  0
 38 47  1  0  0  0
 39 64  1  0  0  0
 39 67  2  0  0  0
 40 52  1  0  0  0
 40 53  2  0  0  0
 40 58  1  0  0  0
 41122  1  0  0  0
 41123  1  0  0  0
 41124  1  0  0  0
 41 48  1  0  0  0
 42 43  1  0  0  0
 42 66  1  0  0  0
 42125  1  0  0  0
 42126  1  0  0  0
 43 44  1  0  0  0
 44127  1  0  0  0
 45 46  2  0  0  0
 45128  1  0  0  0
 46129  1  0  0  0
 47130  1  0  0  0
 47131  1  0  0  0
 48 56  1  0  0  0
 48 65  1  0  0  0
 48132  1  0  0  0
 49 50  1  0  0  0
 49 53  1  0  0  0
 49 64  1  0  0  0
 49133  1  0  0  0
 50 51  1  0  0  0
 50134  1  0  0  0
 50135  1  0  0  0
 51 52  1  0  0  0
 51136  1  0  0  0
 51137  1  0  0  0
 52138  1  0  0  0
 52139  1  0  0  0
 53 54  1  0  0  0
 54 55  2  0  0  0
 54140  1  0  0  0
 55 57  1  0  0  0
 55141  1  0  0  0
 56 69  2  0  0  0
 57 58  2  0  0  0
 57142  1  0  0  0
 58143  1  0  0  0
 59 60  1  0  0  0
 59 61  1  0  0  0
 59 62  1  0  0  0
 60144  1  0  0  0
 60145  1  0  0  0
 60146  1  0  0  0
 61147  1  0  0  0
 61148  1  0  0  0
 61149  1  0  0  0
 62150  1  0  0  0
 62151  1  0  0  0
 62152  1  0  0  0
 63 65  1  0  0  0
 63153  1  0  0  0
 63154  1  0  0  0
 63155  1  0  0  0
 64156  1  0  0  0
 65157  1  0  0  0
 68 91  1  0  0  0
 71 73  2  0  0  0
 71 75  1  0  0  0
 71158  1  0  0  0
 72 74  2  0  0  0
 72 76  1  0  0  0
 72159  1  0  0  0
 73 74  1  0  0  0
 73 79  1  0  0  0
 74 92  1  0  0  0
 75 76  2  0  0  0
 75 97  1  0  0  0
 76 98  1  0  0  0
 77 81  1  0  0  0
 77 93  1  0  0  0
 77 95  2  0  0  0
 78 82  1  0  0  0
 78 94  1  0  0  0
 78 96  2  0  0  0
 79160  1  0  0  0
 79161  1  0  0  0
 79162  1  0  0  0
 80 89  1  0  0  0
 80163  1  0  0  0
 80164  1  0  0  0
 80165  1  0  0  0
 81 84  1  0  0  0
 81166  1  0  0  0
 81167  1  0  0  0
 82 83  1  0  0  0
 82168  1  0  0  0
 82169  1  0  0  0
 83 85  1  0  0  0
 83170  1  0  0  0
 83171  1  0  0  0
 84 90  1  0  0  0
 84172  1  0  0  0
 84173  1  0  0  0
 85 86  1  0  0  0
 85174  1  0  0  0
 85175  1  0  0  0
 86 87  1  0  0  0
 86176  1  0  0  0
 86177  1  0  0  0
 87 93  1  0  0  0
 87178  1  0  0  0
 87179  1  0  0  0
 88 91  1  0  0  0
 88 94  1  0  0  0
 88180  1  0  0  0
 88181  1  0  0  0
 89 98  1  0  0  0
 89182  1  0  0  0
 89183  1  0  0  0
 90 97  1  0  0  0
 90184  1  0  0  0
 90185  1  0  0  0
 91186  1  0  0  0
 91187  1  0  0  0
 92188  1  0  0  0
 93189  1  0  0  0
 94190  1  0  0  0
M  ISO  4   1 100  68 101  91 101  92 100
M  END
> <chiral flag>
0

> <version>
0

> <s_m_source_file>
/data/baiqing/PycharmProjects/Reinvent-master-3.2/result/LINK_invent/BTK/process_docking_weight1_custom_sum_contain_oxygen_bond_distance_aromatic_linkinvent_7_9_3/rearranged_h_0005.sdf

> <i_m_source_file_index>
82

> <r_mmod_Potential_Energy-OPLS-2005>
-218.204559326172

> <r_mmod_Stretch_Energy-OPLS-2005>
35.780330657959

> <r_mmod_Bend_Energy-OPLS-2005>
110.424575805664

> <r_mmod_Torsional_Energy-OPLS-2005>
298.549682617188

> <r_mmod_Improper_Torsional_Energy-OPLS-2005>
6.55394220352173

> <r_mmod_Van_der_Waal_Energy-OPLS-2005>
143.376388549805

> <r_mmod_Electrostatic_Energy-OPLS-2005>
-554.824890136719

> <r_mmod_Solvation_Energy-OPLS-2005>
-272.940979003906

> <b_mmod_Minimization_Converged-OPLS-2005>
0

> <r_mmod_RMS_Derivative-OPLS-2005>
2.35221290588379

$$$$
84
                    3D
 Structure written by MMmdl.
154162  0  0  1  0            999 V2000
  -30.6755  -14.4856   20.5768 C   0  0  0  0  0  0
  -30.4342  -12.3171   19.4176 C   0  0  0  0  0  0
  -29.4979  -12.5126   18.2056 C   0  0  0  0  0  0
  -28.0186  -12.3671   18.6170 C   0  0  0  0  0  0
  -27.6648  -13.1978   19.8787 C   0  0  2  0  0  0
  -28.7076  -12.9625   20.9954 C   0  0  0  0  0  0
  -25.2602  -13.8130   20.5673 C   0  0  0  0  0  0
  -24.1842  -13.0423   20.9167 C   0  0  0  0  0  0
  -24.6385  -11.6887   20.8730 C   0  0  0  0  0  0
  -23.9043  -10.4283   21.0398 C   0  0  0  0  0  0
  -24.3599   -9.4204   21.9179 C   0  0  0  0  0  0
  -23.6282   -8.2238   22.0750 C   0  0  0  0  0  0
  -22.4265   -8.0274   21.3540 C   0  0  0  0  0  0
  -21.9891   -9.0244   20.4642 C   0  0  0  0  0  0
  -22.7215  -10.2127   20.3049 C   0  0  0  0  0  0
  -21.6847   -6.0734   22.5281 C   0  0  0  0  0  0
  -21.4010   -6.5638   23.8215 C   0  0  0  0  0  0
  -21.3657   -5.6790   24.9177 C   0  0  0  0  0  0
  -21.6046   -4.3054   24.7227 C   0  0  0  0  0  0
  -21.8819   -3.8146   23.4348 C   0  0  0  0  0  0
  -21.9189   -4.6963   22.3404 C   0  0  0  0  0  0
  -22.7867  -13.5235   21.1838 C   0  0  0  0  0  0
  -22.1658   -4.2149   21.0981 F   0  0  0  0  0  0
  -21.5629   -3.4536   25.7739 F   0  0  0  0  0  0
  -30.0402  -13.2864   20.4518 N   0  0  0  0  0  0
  -26.3039  -12.9284   20.3378 N   0  0  0  0  0  0
  -25.9314  -11.6454   20.5768 N   0  0  0  0  0  0
  -22.0499  -12.8240   22.0398 N   0  0  0  0  0  0
  -25.4309  -15.1846   20.4077 N   0  0  0  0  0  0
  -31.7868  -14.7150   20.0889 O   0  0  0  0  0  0
  -21.6629   -6.8873   21.4241 O   0  0  0  0  0  0
  -22.3561  -14.5548   20.6692 O   0  0  0  0  0  0
  -24.6151  -31.8672   23.2098 C   0  0  0  0  0  0
  -25.9041  -32.4819   23.8398 C   0  0  1  0  0  0
  -27.2388  -27.4345   20.0997 C   0  0  0  0  0  0
  -25.5895  -33.8618   24.2330 N   0  0  0  0  0  0
  -23.4050  -30.4890   21.5488 C   0  0  2  0  0  0
  -24.8559  -28.9546   20.1136 C   0  0  0  0  0  0
  -22.7418  -29.4648   22.4978 C   0  0  0  0  0  0
  -18.0273  -28.1376   22.8491 C   0  0  0  0  0  0
  -24.1485  -36.7316   23.2637 C   0  0  0  0  0  0
  -25.9338  -30.8323   21.3646 C   0  0  0  0  0  0
  -26.0148  -29.4661   20.7128 C   0  0  0  0  0  0
  -27.2123  -28.7122   20.7056 C   0  0  0  0  0  0
  -26.0685  -26.9379   19.4924 C   0  0  0  0  0  0
  -24.8772  -27.6891   19.5001 C   0  0  0  0  0  0
  -23.6163  -29.8202   20.1638 C   0  0  0  0  0  0
  -25.4103  -36.3112   24.0340 C   0  0  1  0  0  0
  -20.5865  -28.3664   23.1313 C   0  0  2  0  0  0
  -20.6760  -26.9399   22.5417 C   0  0  0  0  0  0
  -19.5740  -26.6384   21.5212 C   0  0  0  0  0  0
  -18.1920  -26.7923   22.1622 C   0  0  0  0  0  0
  -19.1523  -28.8836   23.2899 C   0  0  0  0  0  0
  -18.9451  -30.1442   23.8910 C   0  0  0  0  0  0
  -17.6454  -30.6584   24.0563 C   0  0  0  0  0  0
  -25.9033  -34.9476   23.5134 C   0  0  0  0  0  0
  -16.5344  -29.9087   23.6323 C   0  0  0  0  0  0
  -16.7261  -28.6501   23.0347 C   0  0  0  0  0  0
  -26.4474  -31.6595   25.0723 C   0  0  0  0  0  0
  -25.3747  -31.3694   26.1476 C   0  0  0  0  0  0
  -27.0307  -30.3037   24.6097 C   0  0  0  0  0  0
  -27.6053  -32.4313   25.7484 C   0  0  0  0  0  0
  -27.5587  -37.1801   24.8456 C   0  0  0  0  0  0
  -21.4145  -29.3031   22.3720 N   0  0  0  0  0  0
  -26.4285  -37.3801   23.9423 N   0  0  0  0  0  0
  -24.6693  -31.0768   22.0998 N   0  0  0  0  0  0
  -23.4184  -28.8193   23.3028 O   0  0  0  0  0  0
  -28.3688  -26.6472   20.1027 O   0  0  0  0  0  0
  -26.5596  -34.8928   22.4695 O   0  0  0  0  0  0
  -23.5340  -32.1421   23.7489 O   0  0  0  0  0  0
  -28.8313  -17.2028   19.9449 C   0  0  0  0  0  0
  -30.6632  -17.8086   21.4193 C   0  0  0  0  0  0
  -28.6050  -18.5670   19.6701 C   0  0  0  0  0  0
  -30.4286  -19.1810   21.1450 C   0  0  0  0  0  0
  -29.8580  -16.8071   20.8280 C   0  0  0  0  0  0
  -29.3791  -19.5781   20.2763 C   0  0  0  0  0  0
  -28.8315  -23.2801   20.3855 C   0  0  0  0  0  0
  -29.3915  -24.5523   21.0758 C   0  0  0  0  0  0
  -29.6401  -21.9813   20.6659 C   0  0  0  0  0  0
  -28.4049  -25.7441   21.2175 C   0  0  0  0  0  0
  -29.9575  -15.4355   21.2065 N   0  0  0  0  0  0
  -29.0320  -20.8859   19.9737 O   0  0  0  0  0  0
  -31.4757  -12.4372   19.1133 H   0  0  0  0  0  0
  -30.3545  -11.3010   19.8065 H   0  0  0  0  0  0
  -29.7398  -11.7918   17.4231 H   0  0  0  0  0  0
  -29.6606  -13.5003   17.7710 H   0  0  0  0  0  0
  -27.8282  -11.3100   18.8058 H   0  0  0  0  0  0
  -27.3681  -12.6487   17.7880 H   0  0  0  0  0  0
  -27.7112  -14.2455   19.5883 H   0  0  0  0  0  0
  -28.6895  -11.9185   21.3125 H   0  0  0  0  0  0
  -28.4599  -13.5349   21.8901 H   0  0  0  0  0  0
  -25.2743   -9.5684   22.4755 H   0  0  0  0  0  0
  -23.9992   -7.4627   22.7466 H   0  0  0  0  0  0
  -21.0821   -8.8758   19.8950 H   0  0  0  0  0  0
  -22.3669  -10.9663   19.6158 H   0  0  0  0  0  0
  -21.2003   -7.6145   23.9723 H   0  0  0  0  0  0
  -21.1479   -6.0517   25.9082 H   0  0  0  0  0  0
  -22.0603   -2.7608   23.2846 H   0  0  0  0  0  0
  -22.4096  -11.9892   22.4784 H   0  0  0  0  0  0
  -21.1127  -13.1289   22.2612 H   0  0  0  0  0  0
  -24.6616  -15.8368   20.5163 H   0  0  0  0  0  0
  -26.2840  -15.6286   20.0960 H   0  0  0  0  0  0
  -26.7115  -32.5537   23.1169 H   0  0  0  0  0  0
  -25.0047  -33.9783   25.0475 H   0  0  0  0  0  0
  -22.6937  -31.3056   21.4079 H   0  0  0  0  0  0
  -23.3751  -35.9643   23.3285 H   0  0  0  0  0  0
  -24.3588  -36.8946   22.2055 H   0  0  0  0  0  0
  -23.7226  -37.6513   23.6658 H   0  0  0  0  0  0
  -26.0464  -31.5983   20.5961 H   0  0  0  0  0  0
  -26.8208  -30.8871   21.9834 H   0  0  0  0  0  0
  -28.1067  -29.0996   21.1735 H   0  0  0  0  0  0
  -26.0792  -25.9628   19.0255 H   0  0  0  0  0  0
  -23.9870  -27.2886   19.0350 H   0  0  0  0  0  0
  -23.7247  -30.5947   19.4035 H   0  0  0  0  0  0
  -22.7412  -29.2391   19.8674 H   0  0  0  0  0  0
  -25.1275  -36.1974   25.0832 H   0  0  0  0  0  0
  -20.9956  -28.3229   24.1433 H   0  0  0  0  0  0
  -20.5657  -26.2274   23.3606 H   0  0  0  0  0  0
  -21.6632  -26.7437   22.1211 H   0  0  0  0  0  0
  -19.6901  -25.6298   21.1232 H   0  0  0  0  0  0
  -19.6681  -27.3200   20.6748 H   0  0  0  0  0  0
  -17.4190  -26.6672   21.4024 H   0  0  0  0  0  0
  -18.0320  -26.0061   22.9015 H   0  0  0  0  0  0
  -19.7929  -30.7252   24.2285 H   0  0  0  0  0  0
  -17.5012  -31.6266   24.5161 H   0  0  0  0  0  0
  -15.5346  -30.2994   23.7641 H   0  0  0  0  0  0
  -15.8659  -28.0827   22.7054 H   0  0  0  0  0  0
  -24.5910  -30.7058   25.7810 H   0  0  0  0  0  0
  -24.8955  -32.2848   26.4957 H   0  0  0  0  0  0
  -25.8108  -30.8834   27.0214 H   0  0  0  0  0  0
  -26.2851  -29.6793   24.1161 H   0  0  0  0  0  0
  -27.4090  -29.7277   25.4554 H   0  0  0  0  0  0
  -27.8680  -30.4358   23.9241 H   0  0  0  0  0  0
  -27.2673  -33.3596   26.2100 H   0  0  0  0  0  0
  -28.3841  -32.6899   25.0298 H   0  0  0  0  0  0
  -28.0745  -31.8413   26.5367 H   0  0  0  0  0  0
  -28.2574  -38.0131   24.7559 H   0  0  0  0  0  0
  -28.1116  -36.2668   24.6205 H   0  0  0  0  0  0
  -27.2318  -37.1356   25.8860 H   0  0  0  0  0  0
  -20.9305  -29.8761   21.6948 H   0  0  0  0  0  0
  -26.0173  -38.2872   24.1458 H   0  0  0  0  0  0
  -28.1911  -16.4684   19.4806 H   0  0  0  0  0  0
  -31.4452  -17.5332   22.1133 H   0  0  0  0  0  0
  -27.8028  -18.8432   19.0003 H   0  0  0  0  0  0
  -31.0561  -19.9164   21.6268 H   0  0  0  0  0  0
  -28.7664  -23.4536   19.3107 H   0  0  0  0  0  0
  -27.8085  -23.1144   20.7249 H   0  0  0  0  0  0
  -30.3134  -24.8783   20.5932 H   0  0  0  0  0  0
  -29.6789  -24.2650   22.0882 H   0  0  0  0  0  0
  -29.6517  -21.7891   21.7399 H   0  0  0  0  0  0
  -30.6738  -22.0941   20.3368 H   0  0  0  0  0  0
  -28.7055  -26.3349   22.0844 H   0  0  0  0  0  0
  -27.4089  -25.3630   21.4531 H   0  0  0  0  0  0
  -29.1125  -15.0532   21.6036 H   0  0  0  0  0  0
  1 25  1  0  0  0
  1 30  2  0  0  0
  1 81  1  0  0  0
  2  3  1  0  0  0
  2 25  1  0  0  0
  2 83  1  0  0  0
  2 84  1  0  0  0
  3  4  1  0  0  0
  3 85  1  0  0  0
  3 86  1  0  0  0
  4  5  1  0  0  0
  4 87  1  0  0  0
  4 88  1  0  0  0
  5  6  1  0  0  0
  5 26  1  0  0  0
  5 89  1  0  0  0
  6 25  1  0  0  0
  6 90  1  0  0  0
  6 91  1  0  0  0
  7  8  2  0  0  0
  7 26  1  0  0  0
  7 29  1  0  0  0
  8  9  1  0  0  0
  8 22  1  0  0  0
  9 10  1  0  0  0
  9 27  2  0  0  0
 10 11  2  0  0  0
 10 15  1  0  0  0
 11 12  1  0  0  0
 11 92  1  0  0  0
 12 13  2  0  0  0
 12 93  1  0  0  0
 13 14  1  0  0  0
 13 31  1  0  0  0
 14 15  2  0  0  0
 14 94  1  0  0  0
 15 95  1  0  0  0
 16 17  2  0  0  0
 16 21  1  0  0  0
 16 31  1  0  0  0
 17 18  1  0  0  0
 17 96  1  0  0  0
 18 19  2  0  0  0
 18 97  1  0  0  0
 19 20  1  0  0  0
 19 24  1  0  0  0
 20 21  2  0  0  0
 20 98  1  0  0  0
 21 23  1  0  0  0
 22 28  1  0  0  0
 22 32  2  0  0  0
 26 27  1  0  0  0
 28 99  1  0  0  0
 28100  1  0  0  0
 29101  1  0  0  0
 29102  1  0  0  0
 33 34  1  0  0  0
 33 66  1  0  0  0
 33 70  2  0  0  0
 34 36  1  0  0  0
 34 59  1  0  0  0
 34103  1  0  0  0
 35 44  2  0  0  0
 35 45  1  0  0  0
 35 68  1  0  0  0
 36 56  1  0  0  0
 36104  1  0  0  0
 37 39  1  0  0  0
 37 47  1  0  0  0
 37 66  1  0  0  0
 37105  1  0  0  0
 38 43  2  0  0  0
 38 46  1  0  0  0
 38 47  1  0  0  0
 39 64  1  0  0  0
 39 67  2  0  0  0
 40 52  1  0  0  0
 40 53  2  0  0  0
 40 58  1  0  0  0
 41106  1  0  0  0
 41107  1  0  0  0
 41108  1  0  0  0
 41 48  1  0  0  0
 42 43  1  0  0  0
 42 66  1  0  0  0
 42109  1  0  0  0
 42110  1  0  0  0
 43 44  1  0  0  0
 44111  1  0  0  0
 45 46  2  0  0  0
 45112  1  0  0  0
 46113  1  0  0  0
 47114  1  0  0  0
 47115  1  0  0  0
 48 56  1  0  0  0
 48 65  1  0  0  0
 48116  1  0  0  0
 49 50  1  0  0  0
 49 53  1  0  0  0
 49 64  1  0  0  0
 49117  1  0  0  0
 50 51  1  0  0  0
 50118  1  0  0  0
 50119  1  0  0  0
 51 52  1  0  0  0
 51120  1  0  0  0
 51121  1  0  0  0
 52122  1  0  0  0
 52123  1  0  0  0
 53 54  1  0  0  0
 54 55  2  0  0  0
 54124  1  0  0  0
 55 57  1  0  0  0
 55125  1  0  0  0
 56 69  2  0  0  0
 57 58  2  0  0  0
 57126  1  0  0  0
 58127  1  0  0  0
 59 60  1  0  0  0
 59 61  1  0  0  0
 59 62  1  0  0  0
 60128  1  0  0  0
 60129  1  0  0  0
 60130  1  0  0  0
 61131  1  0  0  0
 61132  1  0  0  0
 61133  1  0  0  0
 62134  1  0  0  0
 62135  1  0  0  0
 62136  1  0  0  0
 63 65  1  0  0  0
 63137  1  0  0  0
 63138  1  0  0  0
 63139  1  0  0  0
 64140  1  0  0  0
 65141  1  0  0  0
 68 80  1  0  0  0
 71 73  2  0  0  0
 71 75  1  0  0  0
 71142  1  0  0  0
 72 74  1  0  0  0
 72 75  2  0  0  0
 72143  1  0  0  0
 73 76  1  0  0  0
 73144  1  0  0  0
 74 76  2  0  0  0
 74145  1  0  0  0
 75 81  1  0  0  0
 76 82  1  0  0  0
 77 78  1  0  0  0
 77 79  1  0  0  0
 77146  1  0  0  0
 77147  1  0  0  0
 78 80  1  0  0  0
 78148  1  0  0  0
 78149  1  0  0  0
 79 82  1  0  0  0
 79150  1  0  0  0
 79151  1  0  0  0
 80152  1  0  0  0
 80153  1  0  0  0
 81154  1  0  0  0
M  ISO  4   1 100  68 101  80 101  81 100
M  END
> <chiral flag>
0

> <version>
0

> <s_m_source_file>
/data/baiqing/PycharmProjects/Reinvent-master-3.2/result/LINK_invent/BTK/process_docking_weight1_custom_sum_contain_oxygen_bond_distance_aromatic_linkinvent_7_9_3/rearranged_h_0005.sdf

> <i_m_source_file_index>
83

> <r_mmod_Potential_Energy-OPLS-2005>
-26.1432418823242

> <r_mmod_Stretch_Energy-OPLS-2005>
38.0520858764648

> <r_mmod_Bend_Energy-OPLS-2005>
103.493583679199

> <r_mmod_Torsional_Energy-OPLS-2005>
269.066009521484

> <r_mmod_Improper_Torsional_Energy-OPLS-2005>
5.56116437911987

> <r_mmod_Van_der_Waal_Energy-OPLS-2005>
142.235061645508

> <r_mmod_Electrostatic_Energy-OPLS-2005>
-386.073486328125

> <r_mmod_Solvation_Energy-OPLS-2005>
-212.002868652344

> <b_mmod_Minimization_Converged-OPLS-2005>
0

> <r_mmod_RMS_Derivative-OPLS-2005>
0.609314560890198

$$$$
85
                    3D
 Structure written by MMmdl.
148156  0  0  1  0            999 V2000
  -30.5229  -14.9232   20.4181 C   0  0  0  0  0  0
  -30.4522  -12.5679   19.4857 C   0  0  0  0  0  0
  -29.5227  -12.5332   18.2487 C   0  0  0  0  0  0
  -28.0534  -12.3247   18.6659 C   0  0  0  0  0  0
  -27.6357  -13.2432   19.8441 C   0  0  2  0  0  0
  -28.6845  -13.2333   20.9779 C   0  0  0  0  0  0
  -25.2456  -13.8175   20.5705 C   0  0  0  0  0  0
  -24.1773  -13.0399   20.9199 C   0  0  0  0  0  0
  -24.6405  -11.6897   20.8735 C   0  0  0  0  0  0
  -23.9085  -10.4272   21.0392 C   0  0  0  0  0  0
  -24.3628   -9.4192   21.9179 C   0  0  0  0  0  0
  -23.6291   -8.2235   22.0754 C   0  0  0  0  0  0
  -22.4274   -8.0279   21.3544 C   0  0  0  0  0  0
  -21.9913   -9.0252   20.4647 C   0  0  0  0  0  0
  -22.7251  -10.2121   20.3049 C   0  0  0  0  0  0
  -21.6852   -6.0729   22.5276 C   0  0  0  0  0  0
  -21.4014   -6.5632   23.8209 C   0  0  0  0  0  0
  -21.3661   -5.6786   24.9172 C   0  0  0  0  0  0
  -21.6045   -4.3049   24.7224 C   0  0  0  0  0  0
  -21.8819   -3.8140   23.4346 C   0  0  0  0  0  0
  -21.9192   -4.6956   22.3400 C   0  0  0  0  0  0
  -22.7793  -13.5178   21.1865 C   0  0  0  0  0  0
  -22.1662   -4.2142   21.0978 F   0  0  0  0  0  0
  -21.5629   -3.4535   25.7738 F   0  0  0  0  0  0
  -29.9675  -13.6465   20.3882 N   0  0  0  0  0  0
  -26.2919  -12.9426   20.3274 N   0  0  0  0  0  0
  -25.9344  -11.6552   20.5738 N   0  0  0  0  0  0
  -22.0453  -12.8180   22.0439 N   0  0  0  0  0  0
  -25.3985  -15.1905   20.4184 N   0  0  0  0  0  0
  -31.7200  -15.0470   20.1363 O   0  0  0  0  0  0
  -21.6638   -6.8877   21.4241 O   0  0  0  0  0  0
  -22.3469  -14.5485   20.6719 O   0  0  0  0  0  0
  -24.6439  -31.8448   23.1893 C   0  0  0  0  0  0
  -25.9212  -32.4700   23.8284 C   0  0  1  0  0  0
  -27.2223  -27.1432   20.1398 C   0  0  0  0  0  0
  -25.5958  -33.8506   24.2198 N   0  0  0  0  0  0
  -23.4477  -30.4650   21.5350 C   0  0  2  0  0  0
  -24.8980  -28.8964   20.1096 C   0  0  0  0  0  0
  -22.7575  -29.4549   22.4860 C   0  0  0  0  0  0
  -18.0310  -28.1394   22.8479 C   0  0  0  0  0  0
  -24.1494  -36.7257   23.2643 C   0  0  0  0  0  0
  -26.0046  -30.7195   21.3893 C   0  0  0  0  0  0
  -26.0766  -29.3321   20.7284 C   0  0  0  0  0  0
  -27.2389  -28.4715   20.7288 C   0  0  0  0  0  0
  -26.0152  -26.8130   19.4806 C   0  0  0  0  0  0
  -24.8797  -27.6491   19.4716 C   0  0  0  0  0  0
  -23.6743  -29.7971   20.1537 C   0  0  0  0  0  0
  -25.4126  -36.3034   24.0315 C   0  0  1  0  0  0
  -20.5923  -28.3721   23.1235 C   0  0  2  0  0  0
  -20.6792  -26.9422   22.5404 C   0  0  0  0  0  0
  -19.5763  -26.6377   21.5215 C   0  0  0  0  0  0
  -18.1947  -26.7931   22.1629 C   0  0  0  0  0  0
  -19.1567  -28.8877   23.2848 C   0  0  0  0  0  0
  -18.9481  -30.1472   23.8873 C   0  0  0  0  0  0
  -17.6475  -30.6587   24.0559 C   0  0  0  0  0  0
  -25.9075  -34.9408   23.5066 C   0  0  0  0  0  0
  -16.5367  -29.9078   23.6333 C   0  0  0  0  0  0
  -16.7295  -28.6499   23.0353 C   0  0  0  0  0  0
  -26.4526  -31.6565   25.0726 C   0  0  0  0  0  0
  -25.3704  -31.3764   26.1418 C   0  0  0  0  0  0
  -27.0383  -30.2952   24.6315 C   0  0  0  0  0  0
  -27.6058  -32.4329   25.7509 C   0  0  0  0  0  0
  -27.5573  -37.1795   24.8471 C   0  0  0  0  0  0
  -21.4268  -29.3048   22.3605 N   0  0  0  0  0  0
  -26.4295  -37.3740   23.9396 N   0  0  0  0  0  0
  -24.7183  -31.0306   22.0927 N   0  0  0  0  0  0
  -23.4220  -28.8092   23.3006 O   0  0  0  0  0  0
  -28.2679  -26.1479   20.2098 O   0  0  0  0  0  0
  -26.5660  -34.8903   22.4644 O   0  0  0  0  0  0
  -23.5556  -32.1328   23.7105 O   0  0  0  0  0  0
  -30.2961  -20.0170   20.4256 C   0  0  0  0  0  0
  -30.5838  -18.5770   20.5039 C   0  0  0  0  0  0
  -28.0053  -19.5294   20.1717 C   0  0  0  0  0  0
  -28.9753  -20.5791   20.2571 C   0  0  0  0  0  0
  -29.5783  -17.5427   20.4311 C   0  0  0  0  0  0
  -28.2822  -18.1155   20.2590 C   0  0  0  0  0  0
  -28.9344  -23.3662   20.2880 C   0  0  0  0  0  0
  -27.9293  -24.6471   19.9728 C   0  0  0  0  0  0
  -28.4899  -22.0311   20.1185 N   0  0  0  0  0  0
  -29.6452  -16.0185   20.5765 N   0  0  0  0  0  0
  -30.0846  -23.5963   20.6703 O   0  0  0  0  0  0
  -27.2386  -17.2582   20.1703 F   0  0  0  0  0  0
  -31.4835  -12.7374   19.1725 H   0  0  0  0  0  0
  -30.4493  -11.6058   20.0004 H   0  0  0  0  0  0
  -29.8323  -11.7426   17.5639 H   0  0  0  0  0  0
  -29.6152  -13.4694   17.6962 H   0  0  0  0  0  0
  -27.9392  -11.2796   18.9559 H   0  0  0  0  0  0
  -27.3917  -12.4779   17.8127 H   0  0  0  0  0  0
  -27.6038  -14.2530   19.4341 H   0  0  0  0  0  0
  -28.7633  -12.2428   21.4286 H   0  0  0  0  0  0
  -28.3903  -13.9113   21.7806 H   0  0  0  0  0  0
  -25.2773   -9.5664   22.4755 H   0  0  0  0  0  0
  -23.9994   -7.4627   22.7479 H   0  0  0  0  0  0
  -21.0839   -8.8777   19.8956 H   0  0  0  0  0  0
  -22.3714  -10.9663   19.6160 H   0  0  0  0  0  0
  -21.2007   -7.6141   23.9710 H   0  0  0  0  0  0
  -21.1483   -6.0517   25.9074 H   0  0  0  0  0  0
  -22.0597   -2.7603   23.2849 H   0  0  0  0  0  0
  -22.4080  -11.9853   22.4836 H   0  0  0  0  0  0
  -21.1076  -13.1210   22.2656 H   0  0  0  0  0  0
  -24.6180  -15.8228   20.5520 H   0  0  0  0  0  0
  -26.2437  -15.6829   20.1485 H   0  0  0  0  0  0
  -26.7281  -32.5307   23.1018 H   0  0  0  0  0  0
  -25.0079  -33.9622   25.0327 H   0  0  0  0  0  0
  -22.7503  -31.2911   21.3817 H   0  0  0  0  0  0
  -23.3749  -35.9597   23.3317 H   0  0  0  0  0  0
  -24.3572  -36.8874   22.2054 H   0  0  0  0  0  0
  -23.7264  -37.6465   23.6670 H   0  0  0  0  0  0
  -26.1626  -31.4759   20.6192 H   0  0  0  0  0  0
  -26.8744  -30.7677   22.0330 H   0  0  0  0  0  0
  -28.1348  -28.7996   21.2373 H   0  0  0  0  0  0
  -25.9045  -25.8650   18.9778 H   0  0  0  0  0  0
  -23.9813  -27.3108   18.9740 H   0  0  0  0  0  0
  -23.8102  -30.5729   19.3992 H   0  0  0  0  0  0
  -22.7896  -29.2391   19.8428 H   0  0  0  0  0  0
  -25.1316  -36.1868   25.0809 H   0  0  0  0  0  0
  -21.0022  -28.3313   24.1353 H   0  0  0  0  0  0
  -20.5686  -26.2335   23.3625 H   0  0  0  0  0  0
  -21.6658  -26.7423   22.1202 H   0  0  0  0  0  0
  -19.6920  -25.6283   21.1257 H   0  0  0  0  0  0
  -19.6691  -27.3177   20.6736 H   0  0  0  0  0  0
  -17.4212  -26.6676   21.4036 H   0  0  0  0  0  0
  -18.0343  -26.0079   22.9032 H   0  0  0  0  0  0
  -19.7955  -30.7300   24.2230 H   0  0  0  0  0  0
  -17.5023  -31.6265   24.5165 H   0  0  0  0  0  0
  -15.5365  -30.2969   23.7664 H   0  0  0  0  0  0
  -15.8699  -28.0805   22.7076 H   0  0  0  0  0  0
  -24.5888  -30.7108   25.7740 H   0  0  0  0  0  0
  -24.8889  -32.2949   26.4781 H   0  0  0  0  0  0
  -25.7979  -30.8978   27.0237 H   0  0  0  0  0  0
  -26.3001  -29.6681   24.1303 H   0  0  0  0  0  0
  -27.3961  -29.7250   25.4899 H   0  0  0  0  0  0
  -27.8927  -30.4174   23.9656 H   0  0  0  0  0  0
  -27.2650  -33.3642   26.2044 H   0  0  0  0  0  0
  -28.3889  -32.6872   25.0355 H   0  0  0  0  0  0
  -28.0704  -31.8486   26.5461 H   0  0  0  0  0  0
  -28.2612  -38.0067   24.7470 H   0  0  0  0  0  0
  -28.1046  -36.2597   24.6360 H   0  0  0  0  0  0
  -27.2283  -37.1519   25.8873 H   0  0  0  0  0  0
  -20.9477  -29.8763   21.6786 H   0  0  0  0  0  0
  -26.0164  -38.2818   24.1361 H   0  0  0  0  0  0
  -31.1302  -20.7013   20.4938 H   0  0  0  0  0  0
  -31.6119  -18.2747   20.6419 H   0  0  0  0  0  0
  -26.9705  -19.8057   20.0355 H   0  0  0  0  0  0
  -27.0130  -24.4341   20.5243 H   0  0  0  0  0  0
  -27.6767  -24.5464   18.9172 H   0  0  0  0  0  0
  -27.5204  -22.0610   19.8323 H   0  0  0  0  0  0
  -28.7156  -15.6558   20.7243 H   0  0  0  0  0  0
  1 25  1  0  0  0
  1 30  2  0  0  0
  1 80  1  0  0  0
  2  3  1  0  0  0
  2 25  1  0  0  0
  2 83  1  0  0  0
  2 84  1  0  0  0
  3  4  1  0  0  0
  3 85  1  0  0  0
  3 86  1  0  0  0
  4  5  1  0  0  0
  4 87  1  0  0  0
  4 88  1  0  0  0
  5  6  1  0  0  0
  5 26  1  0  0  0
  5 89  1  0  0  0
  6 25  1  0  0  0
  6 90  1  0  0  0
  6 91  1  0  0  0
  7  8  2  0  0  0
  7 26  1  0  0  0
  7 29  1  0  0  0
  8  9  1  0  0  0
  8 22  1  0  0  0
  9 10  1  0  0  0
  9 27  2  0  0  0
 10 11  2  0  0  0
 10 15  1  0  0  0
 11 12  1  0  0  0
 11 92  1  0  0  0
 12 13  2  0  0  0
 12 93  1  0  0  0
 13 14  1  0  0  0
 13 31  1  0  0  0
 14 15  2  0  0  0
 14 94  1  0  0  0
 15 95  1  0  0  0
 16 17  2  0  0  0
 16 21  1  0  0  0
 16 31  1  0  0  0
 17 18  1  0  0  0
 17 96  1  0  0  0
 18 19  2  0  0  0
 18 97  1  0  0  0
 19 20  1  0  0  0
 19 24  1  0  0  0
 20 21  2  0  0  0
 20 98  1  0  0  0
 21 23  1  0  0  0
 22 28  1  0  0  0
 22 32  2  0  0  0
 26 27  1  0  0  0
 28 99  1  0  0  0
 28100  1  0  0  0
 29101  1  0  0  0
 29102  1  0  0  0
 33 34  1  0  0  0
 33 66  1  0  0  0
 33 70  2  0  0  0
 34 36  1  0  0  0
 34 59  1  0  0  0
 34103  1  0  0  0
 35 44  2  0  0  0
 35 45  1  0  0  0
 35 68  1  0  0  0
 36 56  1  0  0  0
 36104  1  0  0  0
 37 39  1  0  0  0
 37 47  1  0  0  0
 37 66  1  0  0  0
 37105  1  0  0  0
 38 43  2  0  0  0
 38 46  1  0  0  0
 38 47  1  0  0  0
 39 64  1  0  0  0
 39 67  2  0  0  0
 40 52  1  0  0  0
 40 53  2  0  0  0
 40 58  1  0  0  0
 41106  1  0  0  0
 41107  1  0  0  0
 41108  1  0  0  0
 41 48  1  0  0  0
 42 43  1  0  0  0
 42 66  1  0  0  0
 42109  1  0  0  0
 42110  1  0  0  0
 43 44  1  0  0  0
 44111  1  0  0  0
 45 46  2  0  0  0
 45112  1  0  0  0
 46113  1  0  0  0
 47114  1  0  0  0
 47115  1  0  0  0
 48 56  1  0  0  0
 48 65  1  0  0  0
 48116  1  0  0  0
 49 50  1  0  0  0
 49 53  1  0  0  0
 49 64  1  0  0  0
 49117  1  0  0  0
 50 51  1  0  0  0
 50118  1  0  0  0
 50119  1  0  0  0
 51 52  1  0  0  0
 51120  1  0  0  0
 51121  1  0  0  0
 52122  1  0  0  0
 52123  1  0  0  0
 53 54  1  0  0  0
 54 55  2  0  0  0
 54124  1  0  0  0
 55 57  1  0  0  0
 55125  1  0  0  0
 56 69  2  0  0  0
 57 58  2  0  0  0
 57126  1  0  0  0
 58127  1  0  0  0
 59 60  1  0  0  0
 59 61  1  0  0  0
 59 62  1  0  0  0
 60128  1  0  0  0
 60129  1  0  0  0
 60130  1  0  0  0
 61131  1  0  0  0
 61132  1  0  0  0
 61133  1  0  0  0
 62134  1  0  0  0
 62135  1  0  0  0
 62136  1  0  0  0
 63 65  1  0  0  0
 63137  1  0  0  0
 63138  1  0  0  0
 63139  1  0  0  0
 64140  1  0  0  0
 65141  1  0  0  0
 68 78  1  0  0  0
 71 72  2  0  0  0
 71 74  1  0  0  0
 71142  1  0  0  0
 72 75  1  0  0  0
 72143  1  0  0  0
 73 74  2  0  0  0
 73 76  1  0  0  0
 73144  1  0  0  0
 74 79  1  0  0  0
 75 76  2  0  0  0
 75 80  1  0  0  0
 76 82  1  0  0  0
 77 78  1  0  0  0
 77 79  1  0  0  0
 77 81  2  0  0  0
 78145  1  0  0  0
 78146  1  0  0  0
 79147  1  0  0  0
 80148  1  0  0  0
M  ISO  4   1 100  68 101  78 101  80 100
M  END
> <chiral flag>
0

> <version>
0

> <s_m_source_file>
/data/baiqing/PycharmProjects/Reinvent-master-3.2/result/LINK_invent/BTK/process_docking_weight1_custom_sum_contain_oxygen_bond_distance_aromatic_linkinvent_7_9_3/rearranged_h_0005.sdf

> <i_m_source_file_index>
84

> <r_mmod_Potential_Energy-OPLS-2005>
393.216552734375

> <r_mmod_Stretch_Energy-OPLS-2005>
217.871948242188

> <r_mmod_Bend_Energy-OPLS-2005>
284.265167236328

> <r_mmod_Torsional_Energy-OPLS-2005>
220.855941772461

> <r_mmod_Improper_Torsional_Energy-OPLS-2005>
4.66032266616821

> <r_mmod_Van_der_Waal_Energy-OPLS-2005>
131.992782592773

> <r_mmod_Electrostatic_Energy-OPLS-2005>
-408.452697753906

> <r_mmod_Solvation_Energy-OPLS-2005>
-240.841186523438

> <b_mmod_Minimization_Converged-OPLS-2005>
0

> <r_mmod_RMS_Derivative-OPLS-2005>
0.679981827735901

$$$$
86
                    3D
 Structure written by MMmdl.
187195  0  0  1  0            999 V2000
  -31.0413  -14.0674   20.7835 C   0  0  0  0  0  0
  -30.4139  -12.2605   19.3225 C   0  0  0  0  0  0
  -29.4596  -12.5668   18.1694 C   0  0  0  0  0  0
  -28.0120  -12.3860   18.6299 C   0  0  0  0  0  0
  -27.7020  -13.2073   19.9053 C   0  0  2  0  0  0
  -28.7684  -12.9863   21.0207 C   0  0  0  0  0  0
  -25.2799  -13.8148   20.5701 C   0  0  0  0  0  0
  -24.2022  -13.0404   20.9106 C   0  0  0  0  0  0
  -24.6532  -11.6861   20.8604 C   0  0  0  0  0  0
  -23.9148  -10.4263   21.0292 C   0  0  0  0  0  0
  -24.3677   -9.4178   21.9081 C   0  0  0  0  0  0
  -23.6310   -8.2263   22.0684 C   0  0  0  0  0  0
  -22.4297   -8.0281   21.3510 C   0  0  0  0  0  0
  -21.9965   -9.0247   20.4607 C   0  0  0  0  0  0
  -22.7310  -10.2100   20.2976 C   0  0  0  0  0  0
  -21.6867   -6.0704   22.5209 C   0  0  0  0  0  0
  -21.4041   -6.5628   23.8140 C   0  0  0  0  0  0
  -21.3649   -5.6788   24.9106 C   0  0  0  0  0  0
  -21.6064   -4.3051   24.7166 C   0  0  0  0  0  0
  -21.8867   -3.8139   23.4298 C   0  0  0  0  0  0
  -21.9206   -4.6931   22.3341 C   0  0  0  0  0  0
  -22.8022  -13.5151   21.1742 C   0  0  0  0  0  0
  -22.1688   -4.2124   21.0924 F   0  0  0  0  0  0
  -21.5637   -3.4575   25.7697 F   0  0  0  0  0  0
  -30.1272  -13.1357   20.4634 N   0  0  0  0  0  0
  -26.3304  -12.9326   20.3604 N   0  0  0  0  0  0
  -25.9532  -11.6472   20.5868 N   0  0  0  0  0  0
  -22.0754  -12.8104   22.0328 N   0  0  0  0  0  0
  -25.4561  -15.1855   20.4036 N   0  0  0  0  0  0
  -31.5887  -14.8122   19.9679 O   0  0  0  0  0  0
  -21.6649   -6.8893   21.4200 O   0  0  0  0  0  0
  -22.3633  -14.5415   20.6553 O   0  0  0  0  0  0
  -24.6092  -31.8729   23.2117 C   0  0  0  0  0  0
  -25.8994  -32.4855   23.8412 C   0  0  1  0  0  0
  -27.2412  -27.4821   20.1016 C   0  0  0  0  0  0
  -25.5872  -33.8647   24.2344 N   0  0  0  0  0  0
  -23.3979  -30.4937   21.5475 C   0  0  2  0  0  0
  -24.8482  -28.9617   20.1164 C   0  0  0  0  0  0
  -22.7393  -29.4679   22.4974 C   0  0  0  0  0  0
  -18.0280  -28.1391   22.8491 C   0  0  0  0  0  0
  -24.1486  -36.7338   23.2637 C   0  0  0  0  0  0
  -25.9179  -30.8530   21.3567 C   0  0  0  0  0  0
  -26.0014  -29.4871   20.7142 C   0  0  0  0  0  0
  -27.2017  -28.7496   20.7132 C   0  0  0  0  0  0
  -26.0833  -26.9593   19.4942 C   0  0  0  0  0  0
  -24.8821  -27.6944   19.5047 C   0  0  0  0  0  0
  -23.6076  -29.8233   20.1622 C   0  0  0  0  0  0
  -25.4105  -36.3131   24.0336 C   0  0  1  0  0  0
  -20.5862  -28.3671   23.1332 C   0  0  2  0  0  0
  -20.6760  -26.9408   22.5426 C   0  0  0  0  0  0
  -19.5737  -26.6407   21.5221 C   0  0  0  0  0  0
  -18.1926  -26.7937   22.1649 C   0  0  0  0  0  0
  -19.1522  -28.8847   23.2927 C   0  0  0  0  0  0
  -18.9457  -30.1441   23.8945 C   0  0  0  0  0  0
  -17.6451  -30.6596   24.0588 C   0  0  0  0  0  0
  -25.9017  -34.9490   23.5143 C   0  0  0  0  0  0
  -16.5345  -29.9108   23.6308 C   0  0  0  0  0  0
  -16.7258  -28.6533   23.0320 C   0  0  0  0  0  0
  -26.4449  -31.6614   25.0713 C   0  0  0  0  0  0
  -25.3746  -31.3724   26.1493 C   0  0  0  0  0  0
  -27.0241  -30.3056   24.6035 C   0  0  0  0  0  0
  -27.6056  -32.4318   25.7450 C   0  0  0  0  0  0
  -27.5572  -37.1838   24.8473 C   0  0  0  0  0  0
  -21.4124  -29.3045   22.3728 N   0  0  0  0  0  0
  -26.4304  -37.3795   23.9388 N   0  0  0  0  0  0
  -24.6594  -31.0856   22.0996 N   0  0  0  0  0  0
  -23.4187  -28.8222   23.3012 O   0  0  0  0  0  0
  -28.3955  -26.7471   20.1109 O   0  0  0  0  0  0
  -26.5579  -34.8933   22.4699 O   0  0  0  0  0  0
  -23.5300  -32.1430   23.7550 O   0  0  0  0  0  0
  -31.7598  -14.4528   25.9957 C   0  0  0  0  0  0
  -33.7490  -15.7479   25.4223 C   0  0  0  0  0  0
  -32.3501  -13.2952   25.4583 C   0  0  0  0  0  0
  -34.3349  -14.5843   24.8810 C   0  0  0  0  0  0
  -32.4184  -15.6961   25.8931 C   0  0  0  0  0  0
  -33.5971  -13.3818   24.8042 C   0  0  0  0  0  0
  -31.6604  -16.9341   26.0583 C   0  0  0  0  0  0
  -29.6272  -18.0809   25.1176 C   0  0  0  0  0  0
  -26.4066  -18.4713   22.8657 C   0  0  0  0  0  0
  -33.9716  -10.9809   24.4787 C   0  0  0  0  0  0
  -28.4778  -17.7394   24.1567 C   0  0  0  0  0  0
  -28.5817  -23.7147   22.3464 C   0  0  0  0  0  0
  -28.7061  -22.2207   22.0150 C   0  0  0  0  0  0
  -28.6063  -24.5726   21.0747 C   0  0  0  0  0  0
  -33.1899  -13.8184   21.9927 C   0  0  0  0  0  0
  -33.8614  -12.5129   22.5123 C   0  0  0  0  0  0
  -28.1159  -21.3189   23.1083 C   0  0  0  0  0  0
  -28.6154  -26.0783   21.3502 C   0  0  0  0  0  0
  -27.6351  -18.9464   23.6731 C   0  0  1  0  0  0
  -30.5205  -16.9930   25.3418 N   0  0  0  0  0  0
  -31.7268  -13.6883   21.8736 N   0  0  0  0  0  0
  -34.0453  -12.3495   23.9651 N   0  0  0  0  0  0
  -32.1358  -17.9434   26.7953 N   0  3  0  0  0  0
  -28.4344  -19.9000   22.8637 N   0  3  0  0  0  0
  -29.8054  -19.2053   25.5980 O   0  0  0  0  0  0
  -31.4419  -12.3714   18.9719 H   0  0  0  0  0  0
  -30.3109  -11.2217   19.6368 H   0  0  0  0  0  0
  -29.6806  -11.9202   17.3191 H   0  0  0  0  0  0
  -29.6164  -13.5868   17.8222 H   0  0  0  0  0  0
  -27.8575  -11.3221   18.8155 H   0  0  0  0  0  0
  -27.3264  -12.6684   17.8322 H   0  0  0  0  0  0
  -27.7714  -14.2568   19.6174 H   0  0  0  0  0  0
  -28.6749  -11.9877   21.4503 H   0  0  0  0  0  0
  -28.6182  -13.6907   21.8434 H   0  0  0  0  0  0
  -25.2820   -9.5634   22.4646 H   0  0  0  0  0  0
  -23.9946   -7.4709   22.7475 H   0  0  0  0  0  0
  -21.0856   -8.8810   19.8985 H   0  0  0  0  0  0
  -22.3741  -10.9635   19.6116 H   0  0  0  0  0  0
  -21.2040   -7.6149   23.9637 H   0  0  0  0  0  0
  -21.1432   -6.0514   25.9006 H   0  0  0  0  0  0
  -22.0651   -2.7605   23.2789 H   0  0  0  0  0  0
  -22.4486  -11.9820   22.4755 H   0  0  0  0  0  0
  -21.1312  -13.0973   22.2505 H   0  0  0  0  0  0
  -24.7019  -15.8551   20.5160 H   0  0  0  0  0  0
  -26.3184  -15.6200   20.0977 H   0  0  0  0  0  0
  -26.7074  -32.5593   23.1206 H   0  0  0  0  0  0
  -25.0047  -33.9823   25.0501 H   0  0  0  0  0  0
  -22.6847  -31.3090   21.4074 H   0  0  0  0  0  0
  -23.3714  -35.9719   23.3387 H   0  0  0  0  0  0
  -24.3561  -36.8850   22.2033 H   0  0  0  0  0  0
  -23.7292  -37.6599   23.6576 H   0  0  0  0  0  0
  -26.0129  -31.6138   20.5810 H   0  0  0  0  0  0
  -26.8133  -30.9210   21.9631 H   0  0  0  0  0  0
  -28.0904  -29.1454   21.1841 H   0  0  0  0  0  0
  -26.1118  -25.9845   19.0279 H   0  0  0  0  0  0
  -23.9948  -27.2827   19.0449 H   0  0  0  0  0  0
  -23.7188  -30.5980   19.4021 H   0  0  0  0  0  0
  -22.7338  -29.2416   19.8630 H   0  0  0  0  0  0
  -25.1291  -36.2026   25.0833 H   0  0  0  0  0  0
  -20.9973  -28.3248   24.1443 H   0  0  0  0  0  0
  -20.5667  -26.2287   23.3619 H   0  0  0  0  0  0
  -21.6631  -26.7465   22.1211 H   0  0  0  0  0  0
  -19.6906  -25.6331   21.1225 H   0  0  0  0  0  0
  -19.6677  -27.3241   20.6773 H   0  0  0  0  0  0
  -17.4189  -26.6659   21.4064 H   0  0  0  0  0  0
  -18.0361  -26.0085   22.9060 H   0  0  0  0  0  0
  -19.7923  -30.7242   24.2349 H   0  0  0  0  0  0
  -17.5007  -31.6261   24.5221 H   0  0  0  0  0  0
  -15.5341  -30.3035   23.7599 H   0  0  0  0  0  0
  -15.8665  -28.0875   22.6985 H   0  0  0  0  0  0
  -24.5884  -30.7107   25.7840 H   0  0  0  0  0  0
  -24.8985  -32.2887   26.4992 H   0  0  0  0  0  0
  -25.8123  -30.8851   27.0217 H   0  0  0  0  0  0
  -26.2738  -29.6859   24.1108 H   0  0  0  0  0  0
  -27.4038  -29.7257   25.4461 H   0  0  0  0  0  0
  -27.8575  -30.4380   23.9130 H   0  0  0  0  0  0
  -27.2698  -33.3617   26.2062 H   0  0  0  0  0  0
  -28.3836  -32.6887   25.0241 H   0  0  0  0  0  0
  -28.0758  -31.8417   26.5333 H   0  0  0  0  0  0
  -28.2664  -38.0059   24.7416 H   0  0  0  0  0  0
  -28.0990  -36.2590   24.6434 H   0  0  0  0  0  0
  -27.2276  -37.1661   25.8875 H   0  0  0  0  0  0
  -20.9280  -29.8766   21.6950 H   0  0  0  0  0  0
  -26.0215  -38.2899   24.1329 H   0  0  0  0  0  0
  -30.7547  -14.3899   26.3937 H   0  0  0  0  0  0
  -34.2735  -16.6908   25.3422 H   0  0  0  0  0  0
  -31.7804  -12.3774   25.4494 H   0  0  0  0  0  0
  -35.3062  -14.6613   24.4114 H   0  0  0  0  0  0
  -25.8068  -17.7562   23.4305 H   0  0  0  0  0  0
  -26.7044  -17.9773   21.9404 H   0  0  0  0  0  0
  -25.7499  -19.3010   22.5990 H   0  0  0  0  0  0
  -32.9432  -10.6574   24.6445 H   0  0  0  0  0  0
  -34.5176  -10.8739   25.4172 H   0  0  0  0  0  0
  -34.4077  -10.2882   23.7565 H   0  0  0  0  0  0
  -27.8300  -17.0290   24.6743 H   0  0  0  0  0  0
  -28.8873  -17.2058   23.2986 H   0  0  0  0  0  0
  -29.3853  -24.0020   23.0250 H   0  0  0  0  0  0
  -27.6503  -23.8984   22.8835 H   0  0  0  0  0  0
  -29.7564  -21.9785   21.8407 H   0  0  0  0  0  0
  -28.1884  -22.0057   21.0783 H   0  0  0  0  0  0
  -27.7246  -24.3246   20.4817 H   0  0  0  0  0  0
  -29.4745  -24.3127   20.4667 H   0  0  0  0  0  0
  -33.6087  -13.9641   20.9956 H   0  0  0  0  0  0
  -33.4710  -14.7294   22.5142 H   0  0  0  0  0  0
  -34.8689  -12.4653   22.0897 H   0  0  0  0  0  0
  -33.3327  -11.6492   22.0988 H   0  0  0  0  0  0
  -27.0338  -21.4568   23.1409 H   0  0  0  0  0  0
  -28.5017  -21.6029   24.0884 H   0  0  0  0  0  0
  -29.5744  -26.3815   21.7680 H   0  0  0  0  0  0
  -27.8577  -26.3220   22.0999 H   0  0  0  0  0  0
  -27.2773  -19.4615   24.5671 H   0  0  0  0  0  0
  -30.3645  -16.1101   24.8873 H   0  0  0  0  0  0
  -31.2881  -12.9822   22.4482 H   0  0  0  0  0  0
  -32.9827  -17.8282   27.3337 H   0  0  0  0  0  0
  -31.6335  -18.8180   26.8378 H   0  0  0  0  0  0
  -29.4134  -19.7927   23.0773 H   0  0  0  0  0  0
  -28.3120  -19.6894   21.8867 H   0  0  0  0  0  0
  1 25  1  0  0  0
  1 30  2  0  0  0
  1 91  1  0  0  0
  2  3  1  0  0  0
  2 25  1  0  0  0
  2 96  1  0  0  0
  2 97  1  0  0  0
  3  4  1  0  0  0
  3 98  1  0  0  0
  3 99  1  0  0  0
  4  5  1  0  0  0
  4100  1  0  0  0
  4101  1  0  0  0
  5  6  1  0  0  0
  5 26  1  0  0  0
  5102  1  0  0  0
  6 25  1  0  0  0
  6103  1  0  0  0
  6104  1  0  0  0
  7  8  2  0  0  0
  7 26  1  0  0  0
  7 29  1  0  0  0
  8  9  1  0  0  0
  8 22  1  0  0  0
  9 10  1  0  0  0
  9 27  2  0  0  0
 10 11  2  0  0  0
 10 15  1  0  0  0
 11 12  1  0  0  0
 11105  1  0  0  0
 12 13  2  0  0  0
 12106  1  0  0  0
 13 14  1  0  0  0
 13 31  1  0  0  0
 14 15  2  0  0  0
 14107  1  0  0  0
 15108  1  0  0  0
 16 17  2  0  0  0
 16 21  1  0  0  0
 16 31  1  0  0  0
 17 18  1  0  0  0
 17109  1  0  0  0
 18 19  2  0  0  0
 18110  1  0  0  0
 19 20  1  0  0  0
 19 24  1  0  0  0
 20 21  2  0  0  0
 20111  1  0  0  0
 21 23  1  0  0  0
 22 28  1  0  0  0
 22 32  2  0  0  0
 26 27  1  0  0  0
 28112  1  0  0  0
 28113  1  0  0  0
 29114  1  0  0  0
 29115  1  0  0  0
 33 34  1  0  0  0
 33 66  1  0  0  0
 33 70  2  0  0  0
 34 36  1  0  0  0
 34 59  1  0  0  0
 34116  1  0  0  0
 35 44  2  0  0  0
 35 45  1  0  0  0
 35 68  1  0  0  0
 36 56  1  0  0  0
 36117  1  0  0  0
 37 39  1  0  0  0
 37 47  1  0  0  0
 37 66  1  0  0  0
 37118  1  0  0  0
 38 43  2  0  0  0
 38 46  1  0  0  0
 38 47  1  0  0  0
 39 64  1  0  0  0
 39 67  2  0  0  0
 40 52  1  0  0  0
 40 53  2  0  0  0
 40 58  1  0  0  0
 41119  1  0  0  0
 41120  1  0  0  0
 41121  1  0  0  0
 41 48  1  0  0  0
 42 43  1  0  0  0
 42 66  1  0  0  0
 42122  1  0  0  0
 42123  1  0  0  0
 43 44  1  0  0  0
 44124  1  0  0  0
 45 46  2  0  0  0
 45125  1  0  0  0
 46126  1  0  0  0
 47127  1  0  0  0
 47128  1  0  0  0
 48 56  1  0  0  0
 48 65  1  0  0  0
 48129  1  0  0  0
 49 50  1  0  0  0
 49 53  1  0  0  0
 49 64  1  0  0  0
 49130  1  0  0  0
 50 51  1  0  0  0
 50131  1  0  0  0
 50132  1  0  0  0
 51 52  1  0  0  0
 51133  1  0  0  0
 51134  1  0  0  0
 52135  1  0  0  0
 52136  1  0  0  0
 53 54  1  0  0  0
 54 55  2  0  0  0
 54137  1  0  0  0
 55 57  1  0  0  0
 55138  1  0  0  0
 56 69  2  0  0  0
 57 58  2  0  0  0
 57139  1  0  0  0
 58140  1  0  0  0
 59 60  1  0  0  0
 59 61  1  0  0  0
 59 62  1  0  0  0
 60141  1  0  0  0
 60142  1  0  0  0
 60143  1  0  0  0
 61144  1  0  0  0
 61145  1  0  0  0
 61146  1  0  0  0
 62147  1  0  0  0
 62148  1  0  0  0
 62149  1  0  0  0
 63 65  1  0  0  0
 63150  1  0  0  0
 63151  1  0  0  0
 63152  1  0  0  0
 64153  1  0  0  0
 65154  1  0  0  0
 68 88  1  0  0  0
 71 73  2  0  0  0
 71 75  1  0  0  0
 71155  1  0  0  0
 72 74  1  0  0  0
 72 75  2  0  0  0
 72156  1  0  0  0
 73 76  1  0  0  0
 73157  1  0  0  0
 74 76  2  0  0  0
 74158  1  0  0  0
 75 77  1  0  0  0
 76 92  1  0  0  0
 77 90  1  0  0  0
 77 93  2  0  0  0
 78 81  1  0  0  0
 78 90  1  0  0  0
 78 95  2  0  0  0
 79159  1  0  0  0
 79160  1  0  0  0
 79161  1  0  0  0
 79 89  1  0  0  0
 80 92  1  0  0  0
 80162  1  0  0  0
 80163  1  0  0  0
 80164  1  0  0  0
 81 89  1  0  0  0
 81165  1  0  0  0
 81166  1  0  0  0
 82 83  1  0  0  0
 82 84  1  0  0  0
 82167  1  0  0  0
 82168  1  0  0  0
 83 87  1  0  0  0
 83169  1  0  0  0
 83170  1  0  0  0
 84 88  1  0  0  0
 84171  1  0  0  0
 84172  1  0  0  0
 85 86  1  0  0  0
 85 91  1  0  0  0
 85173  1  0  0  0
 85174  1  0  0  0
 86 92  1  0  0  0
 86175  1  0  0  0
 86176  1  0  0  0
 87 94  1  0  0  0
 87177  1  0  0  0
 87178  1  0  0  0
 88179  1  0  0  0
 88180  1  0  0  0
 89 94  1  0  0  0
 89181  1  0  0  0
 90182  1  0  0  0
 91183  1  0  0  0
 93184  1  0  0  0
 93185  1  0  0  0
 94186  1  0  0  0
 94187  1  0  0  0
M  CHG  2  93   1  94   1
M  ISO  4   1 100  68 101  88 101  91 100
M  END
> <chiral flag>
0

> <version>
0

> <s_m_source_file>
/data/baiqing/PycharmProjects/Reinvent-master-3.2/result/LINK_invent/BTK/process_docking_weight1_custom_sum_contain_oxygen_bond_distance_aromatic_linkinvent_7_9_3/rearranged_h_0005.sdf

> <i_m_source_file_index>
85

> <r_mmod_Potential_Energy-OPLS-2005>
-331.857391357422

> <r_mmod_Stretch_Energy-OPLS-2005>
34.9438591003418

> <r_mmod_Bend_Energy-OPLS-2005>
128.278991699219

> <r_mmod_Torsional_Energy-OPLS-2005>
324.414642333984

> <r_mmod_Improper_Torsional_Energy-OPLS-2005>
27.0240669250488

> <r_mmod_Van_der_Waal_Energy-OPLS-2005>
153.435623168945

> <r_mmod_Electrostatic_Energy-OPLS-2005>
-111.004165649414

> <r_mmod_Solvation_Energy-OPLS-2005>
-922.726623535156

> <b_mmod_Minimization_Converged-OPLS-2005>
0

> <r_mmod_RMS_Derivative-OPLS-2005>
5.97168350219727

$$$$
87
                    3D
 Structure written by MMmdl.
176185  0  0  1  0            999 V2000
  -30.8781  -14.2260   20.8105 C   0  0  0  0  0  0
  -30.4049  -12.2991   19.3599 C   0  0  0  0  0  0
  -29.4633  -12.5447   18.1738 C   0  0  0  0  0  0
  -28.0019  -12.3705   18.6136 C   0  0  0  0  0  0
  -27.6641  -13.2062   19.8744 C   0  0  2  0  0  0
  -28.7047  -12.9821   20.9953 C   0  0  0  0  0  0
  -25.2606  -13.8165   20.5685 C   0  0  0  0  0  0
  -24.1854  -13.0444   20.9162 C   0  0  0  0  0  0
  -24.6403  -11.6909   20.8728 C   0  0  0  0  0  0
  -23.9067  -10.4294   21.0400 C   0  0  0  0  0  0
  -24.3615   -9.4212   21.9183 C   0  0  0  0  0  0
  -23.6291   -8.2247   22.0757 C   0  0  0  0  0  0
  -22.4280   -8.0281   21.3545 C   0  0  0  0  0  0
  -21.9911   -9.0256   20.4650 C   0  0  0  0  0  0
  -22.7233  -10.2137   20.3056 C   0  0  0  0  0  0
  -21.6855   -6.0736   22.5280 C   0  0  0  0  0  0
  -21.4017   -6.5637   23.8213 C   0  0  0  0  0  0
  -21.3659   -5.6788   24.9176 C   0  0  0  0  0  0
  -21.6042   -4.3058   24.7224 C   0  0  0  0  0  0
  -21.8820   -3.8147   23.4352 C   0  0  0  0  0  0
  -21.9193   -4.6965   22.3409 C   0  0  0  0  0  0
  -22.7877  -13.5248   21.1832 C   0  0  0  0  0  0
  -22.1662   -4.2150   21.0992 F   0  0  0  0  0  0
  -21.5625   -3.4548   25.7736 F   0  0  0  0  0  0
  -30.0542  -13.2161   20.4527 N   0  0  0  0  0  0
  -26.3049  -12.9331   20.3380 N   0  0  0  0  0  0
  -25.9331  -11.6493   20.5769 N   0  0  0  0  0  0
  -22.0519  -12.8240   22.0382 N   0  0  0  0  0  0
  -25.4338  -15.1883   20.4104 N   0  0  0  0  0  0
  -31.7536  -14.6905   20.0720 O   0  0  0  0  0  0
  -21.6641   -6.8879   21.4246 O   0  0  0  0  0  0
  -22.3566  -14.5555   20.6686 O   0  0  0  0  0  0
  -24.6080  -31.8679   23.2116 C   0  0  0  0  0  0
  -25.8994  -32.4827   23.8396 C   0  0  1  0  0  0
  -27.2499  -27.4824   20.1134 C   0  0  0  0  0  0
  -25.5869  -33.8627   24.2345 N   0  0  0  0  0  0
  -23.3957  -30.4892   21.5473 C   0  0  2  0  0  0
  -24.8480  -28.9594   20.1125 C   0  0  0  0  0  0
  -22.7372  -29.4643   22.4975 C   0  0  0  0  0  0
  -18.0263  -28.1382   22.8490 C   0  0  0  0  0  0
  -24.1485  -36.7304   23.2647 C   0  0  0  0  0  0
  -25.9154  -30.8567   21.3518 C   0  0  0  0  0  0
  -26.0008  -29.4937   20.7035 C   0  0  0  0  0  0
  -27.2061  -28.7652   20.6945 C   0  0  0  0  0  0
  -26.0891  -26.9520   19.5139 C   0  0  0  0  0  0
  -24.8861  -27.6862   19.5121 C   0  0  0  0  0  0
  -23.6026  -29.8164   20.1619 C   0  0  0  0  0  0
  -25.4114  -36.3110   24.0346 C   0  0  1  0  0  0
  -20.5853  -28.3648   23.1337 C   0  0  2  0  0  0
  -20.6749  -26.9387   22.5435 C   0  0  0  0  0  0
  -19.5748  -26.6382   21.5205 C   0  0  0  0  0  0
  -18.1913  -26.7936   22.1605 C   0  0  0  0  0  0
  -19.1507  -28.8830   23.2913 C   0  0  0  0  0  0
  -18.9438  -30.1421   23.8944 C   0  0  0  0  0  0
  -17.6448  -30.6587   24.0570 C   0  0  0  0  0  0
  -25.9032  -34.9483   23.5154 C   0  0  0  0  0  0
  -16.5339  -29.9100   23.6328 C   0  0  0  0  0  0
  -16.7248  -28.6510   23.0357 C   0  0  0  0  0  0
  -26.4481  -31.6585   25.0683 C   0  0  0  0  0  0
  -25.3791  -31.3681   26.1459 C   0  0  0  0  0  0
  -27.0296  -30.3035   24.5970 C   0  0  0  0  0  0
  -27.6049  -32.4310   25.7451 C   0  0  0  0  0  0
  -27.5601  -37.1806   24.8466 C   0  0  0  0  0  0
  -21.4107  -29.3010   22.3728 N   0  0  0  0  0  0
  -26.4316  -37.3785   23.9421 N   0  0  0  0  0  0
  -24.6576  -31.0835   22.0974 N   0  0  0  0  0  0
  -23.4159  -28.8181   23.3000 O   0  0  0  0  0  0
  -28.4137  -26.7567   20.1088 O   0  0  0  0  0  0
  -26.5577  -34.8939   22.4699 O   0  0  0  0  0  0
  -23.5292  -32.1393   23.7554 O   0  0  0  0  0  0
  -31.4057  -16.2011   24.6632 C   0  0  0  0  0  0
  -31.6627  -17.3230   25.4776 C   0  0  0  0  0  0
  -32.7045  -23.4737   25.6727 C   0  0  0  0  0  0
  -32.0136  -24.6835   25.4766 C   0  0  0  0  0  0
  -33.5280  -16.5484   23.5290 C   0  0  0  0  0  0
  -31.2115  -22.9173   27.5149 C   0  0  0  0  0  0
  -32.3439  -15.8027   23.6906 C   0  0  0  0  0  0
  -33.7929  -17.6717   24.3378 C   0  0  0  0  0  0
  -32.2789  -22.5645   26.6597 C   0  0  0  0  0  0
  -32.8558  -18.0716   25.3228 C   0  0  0  0  0  0
  -30.8934  -25.0105   26.2793 C   0  0  0  0  0  0
  -30.5259  -24.1323   27.3235 C   0  0  0  0  0  0
  -32.3394  -20.1347   26.5944 C   0  0  0  0  0  0
  -35.1052  -18.4147   24.1339 C   0  0  0  0  0  0
  -32.1577  -14.5214   22.8932 C   0  0  0  0  0  0
  -29.2476  -26.8459   22.4541 C   0  0  0  0  0  0
  -29.5602  -26.0101   23.7088 C   0  0  0  0  0  0
  -28.6452  -26.0059   21.3050 C   0  0  0  0  0  0
  -30.1779  -26.8375   24.8564 C   0  0  0  0  0  0
  -32.9470  -21.3181   26.7550 N   0  0  0  0  0  0
  -33.1768  -19.1940   26.1377 N   0  0  0  0  0  0
  -30.9103  -14.4010   22.1397 N   0  0  0  0  0  0
  -31.1525  -19.9393   26.8674 O   0  0  0  0  0  0
  -30.1269  -26.1441   26.1028 O   0  0  0  0  0  0
  -29.4835  -24.4436   28.1316 F   0  0  0  0  0  0
  -31.4435  -12.4108   19.0414 H   0  0  0  0  0  0
  -30.3113  -11.2704   19.7115 H   0  0  0  0  0  0
  -29.6943  -11.8555   17.3610 H   0  0  0  0  0  0
  -29.6163  -13.5509   17.7801 H   0  0  0  0  0  0
  -27.8361  -11.3115   18.8142 H   0  0  0  0  0  0
  -27.3292  -12.6340   17.7967 H   0  0  0  0  0  0
  -27.7162  -14.2554   19.5854 H   0  0  0  0  0  0
  -28.6456  -11.9625   21.3812 H   0  0  0  0  0  0
  -28.4728  -13.6434   21.8318 H   0  0  0  0  0  0
  -25.2770   -9.5685   22.4755 H   0  0  0  0  0  0
  -23.9998   -7.4644   22.7488 H   0  0  0  0  0  0
  -21.0835   -8.8777   19.8967 H   0  0  0  0  0  0
  -22.3693  -10.9675   19.6165 H   0  0  0  0  0  0
  -21.2014   -7.6139   23.9714 H   0  0  0  0  0  0
  -21.1478   -6.0523   25.9070 H   0  0  0  0  0  0
  -22.0600   -2.7613   23.2854 H   0  0  0  0  0  0
  -22.4125  -11.9893   22.4758 H   0  0  0  0  0  0
  -21.1150  -13.1284   22.2607 H   0  0  0  0  0  0
  -24.6747  -15.8504   20.5274 H   0  0  0  0  0  0
  -26.2992  -15.6265   20.1167 H   0  0  0  0  0  0
  -26.7068  -32.5590   23.1181 H   0  0  0  0  0  0
  -25.0082  -33.9798   25.0528 H   0  0  0  0  0  0
  -22.6819  -31.3023   21.4069 H   0  0  0  0  0  0
  -23.3764  -35.9618   23.3315 H   0  0  0  0  0  0
  -24.3605  -36.8915   22.2064 H   0  0  0  0  0  0
  -23.7216  -37.6511   23.6643 H   0  0  0  0  0  0
  -26.0123  -31.6267   20.5839 H   0  0  0  0  0  0
  -26.8081  -30.9165   21.9629 H   0  0  0  0  0  0
  -28.0997  -29.1867   21.1317 H   0  0  0  0  0  0
  -26.1204  -25.9724   19.0584 H   0  0  0  0  0  0
  -24.0000  -27.2665   19.0567 H   0  0  0  0  0  0
  -23.6983  -30.5884   19.3976 H   0  0  0  0  0  0
  -22.7326  -29.2256   19.8723 H   0  0  0  0  0  0
  -25.1289  -36.1994   25.0836 H   0  0  0  0  0  0
  -20.9956  -28.3203   24.1457 H   0  0  0  0  0  0
  -20.5653  -26.2249   23.3610 H   0  0  0  0  0  0
  -21.6622  -26.7436   22.1227 H   0  0  0  0  0  0
  -19.6935  -25.6293   21.1225 H   0  0  0  0  0  0
  -19.6727  -27.3203   20.6748 H   0  0  0  0  0  0
  -17.4195  -26.6691   21.3984 H   0  0  0  0  0  0
  -18.0303  -26.0068   22.8990 H   0  0  0  0  0  0
  -19.7912  -30.7196   24.2381 H   0  0  0  0  0  0
  -17.5009  -31.6291   24.5115 H   0  0  0  0  0  0
  -15.5346  -30.3020   23.7637 H   0  0  0  0  0  0
  -15.8642  -28.0835   22.7101 H   0  0  0  0  0  0
  -24.5915  -30.7077   25.7807 H   0  0  0  0  0  0
  -24.9064  -32.2867   26.4935 H   0  0  0  0  0  0
  -25.8152  -30.8803   27.0189 H   0  0  0  0  0  0
  -26.2775  -29.6816   24.1096 H   0  0  0  0  0  0
  -27.4177  -29.7245   25.4352 H   0  0  0  0  0  0
  -27.8571  -30.4355   23.8990 H   0  0  0  0  0  0
  -27.2605  -33.3561   26.2075 H   0  0  0  0  0  0
  -28.3818  -32.6969   25.0268 H   0  0  0  0  0  0
  -28.0769  -31.8430   26.5330 H   0  0  0  0  0  0
  -28.2591  -38.0124   24.7519 H   0  0  0  0  0  0
  -28.1104  -36.2659   24.6250 H   0  0  0  0  0  0
  -27.2319  -37.1405   25.8865 H   0  0  0  0  0  0
  -20.9234  -29.8732   21.6972 H   0  0  0  0  0  0
  -26.0215  -38.2861   24.1460 H   0  0  0  0  0  0
  -30.5032  -15.6263   24.8182 H   0  0  0  0  0  0
  -30.9380  -17.5799   26.2370 H   0  0  0  0  0  0
  -33.5367  -23.2321   25.0269 H   0  0  0  0  0  0
  -32.3524  -25.3368   24.6890 H   0  0  0  0  0  0
  -34.2578  -16.2377   22.7931 H   0  0  0  0  0  0
  -30.8913  -22.2478   28.2995 H   0  0  0  0  0  0
  -35.4749  -18.2774   23.1176 H   0  0  0  0  0  0
  -35.8619  -18.0329   24.8200 H   0  0  0  0  0  0
  -35.0023  -19.4880   24.2919 H   0  0  0  0  0  0
  -32.1811  -13.6940   23.6037 H   0  0  0  0  0  0
  -33.0265  -14.3585   22.2517 H   0  0  0  0  0  0
  -30.1574  -27.3369   22.1117 H   0  0  0  0  0  0
  -28.5573  -27.6383   22.7399 H   0  0  0  0  0  0
  -30.2272  -25.1901   23.4408 H   0  0  0  0  0  0
  -28.6386  -25.5485   24.0623 H   0  0  0  0  0  0
  -27.7243  -25.5183   21.6345 H   0  0  0  0  0  0
  -29.3368  -25.2008   21.0522 H   0  0  0  0  0  0
  -29.5924  -27.7480   24.9890 H   0  0  0  0  0  0
  -31.1883  -27.1735   24.6220 H   0  0  0  0  0  0
  -33.9309  -21.3356   26.5299 H   0  0  0  0  0  0
  -34.1443  -19.4735   26.0885 H   0  0  0  0  0  0
  -30.1425  -13.9778   22.6386 H   0  0  0  0  0  0
  1 25  1  0  0  0
  1 30  2  0  0  0
  1 92  1  0  0  0
  2  3  1  0  0  0
  2 25  1  0  0  0
  2 96  1  0  0  0
  2 97  1  0  0  0
  3  4  1  0  0  0
  3 98  1  0  0  0
  3 99  1  0  0  0
  4  5  1  0  0  0
  4100  1  0  0  0
  4101  1  0  0  0
  5  6  1  0  0  0
  5 26  1  0  0  0
  5102  1  0  0  0
  6 25  1  0  0  0
  6103  1  0  0  0
  6104  1  0  0  0
  7  8  2  0  0  0
  7 26  1  0  0  0
  7 29  1  0  0  0
  8  9  1  0  0  0
  8 22  1  0  0  0
  9 10  1  0  0  0
  9 27  2  0  0  0
 10 11  2  0  0  0
 10 15  1  0  0  0
 11 12  1  0  0  0
 11105  1  0  0  0
 12 13  2  0  0  0
 12106  1  0  0  0
 13 14  1  0  0  0
 13 31  1  0  0  0
 14 15  2  0  0  0
 14107  1  0  0  0
 15108  1  0  0  0
 16 17  2  0  0  0
 16 21  1  0  0  0
 16 31  1  0  0  0
 17 18  1  0  0  0
 17109  1  0  0  0
 18 19  2  0  0  0
 18110  1  0  0  0
 19 20  1  0  0  0
 19 24  1  0  0  0
 20 21  2  0  0  0
 20111  1  0  0  0
 21 23  1  0  0  0
 22 28  1  0  0  0
 22 32  2  0  0  0
 26 27  1  0  0  0
 28112  1  0  0  0
 28113  1  0  0  0
 29114  1  0  0  0
 29115  1  0  0  0
 33 34  1  0  0  0
 33 66  1  0  0  0
 33 70  2  0  0  0
 34 36  1  0  0  0
 34 59  1  0  0  0
 34116  1  0  0  0
 35 44  2  0  0  0
 35 45  1  0  0  0
 35 68  1  0  0  0
 36 56  1  0  0  0
 36117  1  0  0  0
 37 39  1  0  0  0
 37 47  1  0  0  0
 37 66  1  0  0  0
 37118  1  0  0  0
 38 43  2  0  0  0
 38 46  1  0  0  0
 38 47  1  0  0  0
 39 64  1  0  0  0
 39 67  2  0  0  0
 40 52  1  0  0  0
 40 53  2  0  0  0
 40 58  1  0  0  0
 41119  1  0  0  0
 41120  1  0  0  0
 41121  1  0  0  0
 41 48  1  0  0  0
 42 43  1  0  0  0
 42 66  1  0  0  0
 42122  1  0  0  0
 42123  1  0  0  0
 43 44  1  0  0  0
 44124  1  0  0  0
 45 46  2  0  0  0
 45125  1  0  0  0
 46126  1  0  0  0
 47127  1  0  0  0
 47128  1  0  0  0
 48 56  1  0  0  0
 48 65  1  0  0  0
 48129  1  0  0  0
 49 50  1  0  0  0
 49 53  1  0  0  0
 49 64  1  0  0  0
 49130  1  0  0  0
 50 51  1  0  0  0
 50131  1  0  0  0
 50132  1  0  0  0
 51 52  1  0  0  0
 51133  1  0  0  0
 51134  1  0  0  0
 52135  1  0  0  0
 52136  1  0  0  0
 53 54  1  0  0  0
 54 55  2  0  0  0
 54137  1  0  0  0
 55 57  1  0  0  0
 55138  1  0  0  0
 56 69  2  0  0  0
 57 58  2  0  0  0
 57139  1  0  0  0
 58140  1  0  0  0
 59 60  1  0  0  0
 59 61  1  0  0  0
 59 62  1  0  0  0
 60141  1  0  0  0
 60142  1  0  0  0
 60143  1  0  0  0
 61144  1  0  0  0
 61145  1  0  0  0
 61146  1  0  0  0
 62147  1  0  0  0
 62148  1  0  0  0
 62149  1  0  0  0
 63 65  1  0  0  0
 63150  1  0  0  0
 63151  1  0  0  0
 63152  1  0  0  0
 64153  1  0  0  0
 65154  1  0  0  0
 68 88  1  0  0  0
 71 72  2  0  0  0
 71 77  1  0  0  0
 71155  1  0  0  0
 72 80  1  0  0  0
 72156  1  0  0  0
 73 74  2  0  0  0
 73 79  1  0  0  0
 73157  1  0  0  0
 74 81  1  0  0  0
 74158  1  0  0  0
 75 77  2  0  0  0
 75 78  1  0  0  0
 75159  1  0  0  0
 76 79  2  0  0  0
 76 82  1  0  0  0
 76160  1  0  0  0
 77 85  1  0  0  0
 78 80  2  0  0  0
 78 84  1  0  0  0
 79 90  1  0  0  0
 80 91  1  0  0  0
 81 82  2  0  0  0
 81 94  1  0  0  0
 82 95  1  0  0  0
 83 90  1  0  0  0
 83 91  1  0  0  0
 83 93  2  0  0  0
 84161  1  0  0  0
 84162  1  0  0  0
 84163  1  0  0  0
 85 92  1  0  0  0
 85164  1  0  0  0
 85165  1  0  0  0
 86 87  1  0  0  0
 86 88  1  0  0  0
 86166  1  0  0  0
 86167  1  0  0  0
 87 89  1  0  0  0
 87168  1  0  0  0
 87169  1  0  0  0
 88170  1  0  0  0
 88171  1  0  0  0
 89 94  1  0  0  0
 89172  1  0  0  0
 89173  1  0  0  0
 90174  1  0  0  0
 91175  1  0  0  0
 92176  1  0  0  0
M  ISO  4   1 100  68 101  88 101  92 100
M  END
> <chiral flag>
0

> <version>
0

> <s_m_source_file>
/data/baiqing/PycharmProjects/Reinvent-master-3.2/result/LINK_invent/BTK/process_docking_weight1_custom_sum_contain_oxygen_bond_distance_aromatic_linkinvent_7_9_3/rearranged_h_0005.sdf

> <i_m_source_file_index>
86

> <r_mmod_Potential_Energy-OPLS-2005>
-143.597930908203

> <r_mmod_Stretch_Energy-OPLS-2005>
34.5009269714355

> <r_mmod_Bend_Energy-OPLS-2005>
101.510040283203

> <r_mmod_Torsional_Energy-OPLS-2005>
290.093414306641

> <r_mmod_Improper_Torsional_Energy-OPLS-2005>
14.8952436447144

> <r_mmod_Van_der_Waal_Energy-OPLS-2005>
176.455215454102

> <r_mmod_Electrostatic_Energy-OPLS-2005>
-513.511108398438

> <r_mmod_Solvation_Energy-OPLS-2005>
-259.530792236328

> <b_mmod_Minimization_Converged-OPLS-2005>
0

> <r_mmod_RMS_Derivative-OPLS-2005>
2.47493529319763

$$$$
88
                    3D
 Structure written by MMmdl.
163171  0  0  1  0            999 V2000
  -30.7764  -14.3337   20.7179 C   0  0  0  0  0  0
  -30.4223  -12.2868   19.3800 C   0  0  0  0  0  0
  -29.4843  -12.5377   18.1852 C   0  0  0  0  0  0
  -28.0088  -12.3900   18.6021 C   0  0  0  0  0  0
  -27.6713  -13.1975   19.8821 C   0  0  2  0  0  0
  -28.7081  -12.9106   20.9900 C   0  0  0  0  0  0
  -25.2638  -13.8144   20.5664 C   0  0  0  0  0  0
  -24.1867  -13.0439   20.9155 C   0  0  0  0  0  0
  -24.6401  -11.6901   20.8716 C   0  0  0  0  0  0
  -23.9055  -10.4294   21.0396 C   0  0  0  0  0  0
  -24.3610   -9.4212   21.9177 C   0  0  0  0  0  0
  -23.6287   -8.2245   22.0751 C   0  0  0  0  0  0
  -22.4268   -8.0282   21.3541 C   0  0  0  0  0  0
  -21.9903   -9.0257   20.4644 C   0  0  0  0  0  0
  -22.7228  -10.2133   20.3049 C   0  0  0  0  0  0
  -21.6852   -6.0736   22.5276 C   0  0  0  0  0  0
  -21.4005   -6.5642   23.8211 C   0  0  0  0  0  0
  -21.3654   -5.6791   24.9177 C   0  0  0  0  0  0
  -21.6045   -4.3057   24.7224 C   0  0  0  0  0  0
  -21.8821   -3.8149   23.4350 C   0  0  0  0  0  0
  -21.9194   -4.6962   22.3404 C   0  0  0  0  0  0
  -22.7890  -13.5253   21.1822 C   0  0  0  0  0  0
  -22.1665   -4.2150   21.0982 F   0  0  0  0  0  0
  -21.5630   -3.4540   25.7740 F   0  0  0  0  0  0
  -30.0550  -13.2109   20.4630 N   0  0  0  0  0  0
  -26.3076  -12.9300   20.3379 N   0  0  0  0  0  0
  -25.9326  -11.6465   20.5743 N   0  0  0  0  0  0
  -22.0517  -12.8257   22.0377 N   0  0  0  0  0  0
  -25.4394  -15.1857   20.4072 N   0  0  0  0  0  0
  -31.7645  -14.6583   20.0505 O   0  0  0  0  0  0
  -21.6636   -6.8878   21.4241 O   0  0  0  0  0  0
  -22.3584  -14.5559   20.6668 O   0  0  0  0  0  0
  -24.6086  -31.8704   23.2101 C   0  0  0  0  0  0
  -25.8987  -32.4844   23.8393 C   0  0  1  0  0  0
  -27.2494  -27.4825   20.0882 C   0  0  0  0  0  0
  -25.5832  -33.8634   24.2319 N   0  0  0  0  0  0
  -23.3958  -30.4907   21.5505 C   0  0  2  0  0  0
  -24.8448  -28.9476   20.1279 C   0  0  0  0  0  0
  -22.7371  -29.4692   22.5032 C   0  0  0  0  0  0
  -18.0263  -28.1405   22.8515 C   0  0  0  0  0  0
  -24.1473  -36.7321   23.2642 C   0  0  0  0  0  0
  -25.9175  -30.8487   21.3542 C   0  0  0  0  0  0
  -26.0003  -29.4807   20.7138 C   0  0  0  0  0  0
  -27.2064  -28.7547   20.6908 C   0  0  0  0  0  0
  -26.0806  -26.9381   19.5188 C   0  0  0  0  0  0
  -24.8755  -27.6710   19.5341 C   0  0  0  0  0  0
  -23.6028  -29.8082   20.1712 C   0  0  0  0  0  0
  -25.4091  -36.3118   24.0345 C   0  0  1  0  0  0
  -20.5848  -28.3671   23.1352 C   0  0  2  0  0  0
  -20.6752  -26.9410   22.5445 C   0  0  0  0  0  0
  -19.5728  -26.6401   21.5238 C   0  0  0  0  0  0
  -18.1903  -26.7956   22.1644 C   0  0  0  0  0  0
  -19.1514  -28.8852   23.2934 C   0  0  0  0  0  0
  -18.9453  -30.1464   23.8932 C   0  0  0  0  0  0
  -17.6463  -30.6612   24.0588 C   0  0  0  0  0  0
  -25.9006  -34.9485   23.5132 C   0  0  0  0  0  0
  -16.5347  -29.9130   23.6338 C   0  0  0  0  0  0
  -16.7260  -28.6548   23.0353 C   0  0  0  0  0  0
  -26.4415  -31.6618   25.0716 C   0  0  0  0  0  0
  -25.3680  -31.3751   26.1465 C   0  0  0  0  0  0
  -27.0219  -30.3057   24.6080 C   0  0  0  0  0  0
  -27.5989  -32.4335   25.7482 C   0  0  0  0  0  0
  -27.5576  -37.1810   24.8469 C   0  0  0  0  0  0
  -21.4105  -29.3043   22.3755 N   0  0  0  0  0  0
  -26.4289  -37.3795   23.9413 N   0  0  0  0  0  0
  -24.6589  -31.0836   22.0979 N   0  0  0  0  0  0
  -23.4156  -28.8251   23.3078 O   0  0  0  0  0  0
  -28.4494  -26.8375   19.9726 O   0  0  0  0  0  0
  -26.5605  -34.8935   22.4716 O   0  0  0  0  0  0
  -23.5291  -32.1448   23.7516 O   0  0  0  0  0  0
  -29.9153  -16.9566   23.1679 C   0  0  0  0  0  0
  -32.0916  -16.7979   22.0900 C   0  0  0  0  0  0
  -30.2829  -18.1955   23.7260 C   0  0  0  0  0  0
  -32.4539  -18.0410   22.6416 C   0  0  0  0  0  0
  -30.8058  -16.2556   22.3281 C   0  0  0  0  0  0
  -31.5418  -18.7603   23.4477 C   0  0  0  0  0  0
  -32.1101  -24.6382   22.3868 C   0  0  0  0  0  0
  -32.8341  -23.2846   22.4655 C   0  0  0  0  0  0
  -30.6435  -24.5185   21.9240 C   0  0  0  0  0  0
  -32.1892  -22.2878   23.4440 C   0  0  0  0  0  0
  -30.1406  -25.7848   21.2231 C   0  0  0  0  0  0
  -32.6658  -20.8493   23.2170 C   0  0  0  0  0  0
  -28.6595  -25.7239   20.8211 C   0  0  0  0  0  0
  -30.3582  -15.0154   21.7973 N   0  0  0  0  0  0
  -31.8228  -19.9946   23.9832 O   0  0  0  0  0  0
  -31.4634  -12.3983   19.0708 H   0  0  0  0  0  0
  -30.3301  -11.2561   19.7265 H   0  0  0  0  0  0
  -29.7150  -11.8470   17.3728 H   0  0  0  0  0  0
  -29.6549  -13.5408   17.7914 H   0  0  0  0  0  0
  -27.8114  -11.3305   18.7681 H   0  0  0  0  0  0
  -27.3564  -12.6951   17.7833 H   0  0  0  0  0  0
  -27.7389  -14.2557   19.6278 H   0  0  0  0  0  0
  -28.6694  -11.8567   21.2710 H   0  0  0  0  0  0
  -28.4496  -13.4545   21.8985 H   0  0  0  0  0  0
  -25.2759   -9.5690   22.4747 H   0  0  0  0  0  0
  -23.9999   -7.4639   22.7472 H   0  0  0  0  0  0
  -21.0832   -8.8771   19.8953 H   0  0  0  0  0  0
  -22.3688  -10.9670   19.6154 H   0  0  0  0  0  0
  -21.1987   -7.6145   23.9712 H   0  0  0  0  0  0
  -21.1473   -6.0524   25.9076 H   0  0  0  0  0  0
  -22.0603   -2.7610   23.2849 H   0  0  0  0  0  0
  -22.4116  -11.9924   22.4787 H   0  0  0  0  0  0
  -21.1127  -13.1291   22.2546 H   0  0  0  0  0  0
  -24.6805  -15.8491   20.5204 H   0  0  0  0  0  0
  -26.3014  -15.6194   20.0992 H   0  0  0  0  0  0
  -26.7064  -32.5568   23.1171 H   0  0  0  0  0  0
  -24.9901  -33.9795   25.0412 H   0  0  0  0  0  0
  -22.6836  -31.3056   21.4048 H   0  0  0  0  0  0
  -23.3722  -35.9667   23.3326 H   0  0  0  0  0  0
  -24.3564  -36.8915   22.2051 H   0  0  0  0  0  0
  -23.7245  -37.6543   23.6642 H   0  0  0  0  0  0
  -26.0155  -31.6099   20.5787 H   0  0  0  0  0  0
  -26.8101  -30.9135   21.9654 H   0  0  0  0  0  0
  -28.1085  -29.1755   21.1140 H   0  0  0  0  0  0
  -26.1132  -25.9676   19.0439 H   0  0  0  0  0  0
  -23.9847  -27.2540   19.0838 H   0  0  0  0  0  0
  -23.7005  -30.5724   19.3989 H   0  0  0  0  0  0
  -22.7316  -29.2145   19.8884 H   0  0  0  0  0  0
  -25.1277  -36.1972   25.0843 H   0  0  0  0  0  0
  -20.9940  -28.3232   24.1474 H   0  0  0  0  0  0
  -20.5646  -26.2278   23.3627 H   0  0  0  0  0  0
  -21.6623  -26.7459   22.1231 H   0  0  0  0  0  0
  -19.6877  -25.6313   21.1260 H   0  0  0  0  0  0
  -19.6674  -27.3226   20.6777 H   0  0  0  0  0  0
  -17.4174  -26.6715   21.4046 H   0  0  0  0  0  0
  -18.0294  -26.0113   22.9047 H   0  0  0  0  0  0
  -19.7931  -30.7283   24.2292 H   0  0  0  0  0  0
  -17.5027  -31.6297   24.5194 H   0  0  0  0  0  0
  -15.5352  -30.3056   23.7658 H   0  0  0  0  0  0
  -15.8649  -28.0896   22.7036 H   0  0  0  0  0  0
  -24.5843  -30.7100   25.7818 H   0  0  0  0  0  0
  -24.8866  -32.2917   26.4886 H   0  0  0  0  0  0
  -25.8016  -30.8947   27.0240 H   0  0  0  0  0  0
  -26.2758  -29.6876   24.1070 H   0  0  0  0  0  0
  -27.3909  -29.7248   25.4540 H   0  0  0  0  0  0
  -27.8624  -30.4372   23.9264 H   0  0  0  0  0  0
  -27.2587  -33.3613   26.2091 H   0  0  0  0  0  0
  -28.3773  -32.6927   25.0298 H   0  0  0  0  0  0
  -28.0668  -31.8440   26.5377 H   0  0  0  0  0  0
  -28.2608  -38.0091   24.7487 H   0  0  0  0  0  0
  -28.1053  -36.2623   24.6313 H   0  0  0  0  0  0
  -27.2301  -37.1487   25.8876 H   0  0  0  0  0  0
  -20.9245  -29.8736   21.6964 H   0  0  0  0  0  0
  -26.0181  -38.2878   24.1405 H   0  0  0  0  0  0
  -28.9322  -16.5602   23.3798 H   0  0  0  0  0  0
  -32.8239  -16.2822   21.4875 H   0  0  0  0  0  0
  -29.5814  -18.7296   24.3516 H   0  0  0  0  0  0
  -33.4411  -18.4307   22.4376 H   0  0  0  0  0  0
  -32.6632  -25.2653   21.6857 H   0  0  0  0  0  0
  -32.1579  -25.1532   23.3478 H   0  0  0  0  0  0
  -33.8769  -23.4441   22.7455 H   0  0  0  0  0  0
  -32.8609  -22.8540   21.4635 H   0  0  0  0  0  0
  -30.0061  -24.2880   22.7789 H   0  0  0  0  0  0
  -30.5421  -23.6816   21.2306 H   0  0  0  0  0  0
  -31.1067  -22.2948   23.3189 H   0  0  0  0  0  0
  -32.3777  -22.5924   24.4740 H   0  0  0  0  0  0
  -30.7412  -25.9416   20.3256 H   0  0  0  0  0  0
  -30.3068  -26.6560   21.8579 H   0  0  0  0  0  0
  -33.7095  -20.7244   23.5088 H   0  0  0  0  0  0
  -32.5900  -20.6267   22.1501 H   0  0  0  0  0  0
  -28.0183  -25.7448   21.7038 H   0  0  0  0  0  0
  -28.4394  -24.8106   20.2669 H   0  0  0  0  0  0
  -29.5358  -14.6228   22.2299 H   0  0  0  0  0  0
  1 25  1  0  0  0
  1 30  2  0  0  0
  1 84  1  0  0  0
  2  3  1  0  0  0
  2 25  1  0  0  0
  2 86  1  0  0  0
  2 87  1  0  0  0
  3  4  1  0  0  0
  3 88  1  0  0  0
  3 89  1  0  0  0
  4  5  1  0  0  0
  4 90  1  0  0  0
  4 91  1  0  0  0
  5  6  1  0  0  0
  5 26  1  0  0  0
  5 92  1  0  0  0
  6 25  1  0  0  0
  6 93  1  0  0  0
  6 94  1  0  0  0
  7  8  2  0  0  0
  7 26  1  0  0  0
  7 29  1  0  0  0
  8  9  1  0  0  0
  8 22  1  0  0  0
  9 10  1  0  0  0
  9 27  2  0  0  0
 10 11  2  0  0  0
 10 15  1  0  0  0
 11 12  1  0  0  0
 11 95  1  0  0  0
 12 13  2  0  0  0
 12 96  1  0  0  0
 13 14  1  0  0  0
 13 31  1  0  0  0
 14 15  2  0  0  0
 14 97  1  0  0  0
 15 98  1  0  0  0
 16 17  2  0  0  0
 16 21  1  0  0  0
 16 31  1  0  0  0
 17 18  1  0  0  0
 17 99  1  0  0  0
 18 19  2  0  0  0
 18100  1  0  0  0
 19 20  1  0  0  0
 19 24  1  0  0  0
 20 21  2  0  0  0
 20101  1  0  0  0
 21 23  1  0  0  0
 22 28  1  0  0  0
 22 32  2  0  0  0
 26 27  1  0  0  0
 28102  1  0  0  0
 28103  1  0  0  0
 29104  1  0  0  0
 29105  1  0  0  0
 33 34  1  0  0  0
 33 66  1  0  0  0
 33 70  2  0  0  0
 34 36  1  0  0  0
 34 59  1  0  0  0
 34106  1  0  0  0
 35 44  2  0  0  0
 35 45  1  0  0  0
 35 68  1  0  0  0
 36 56  1  0  0  0
 36107  1  0  0  0
 37 39  1  0  0  0
 37 47  1  0  0  0
 37 66  1  0  0  0
 37108  1  0  0  0
 38 43  2  0  0  0
 38 46  1  0  0  0
 38 47  1  0  0  0
 39 64  1  0  0  0
 39 67  2  0  0  0
 40 52  1  0  0  0
 40 53  2  0  0  0
 40 58  1  0  0  0
 41109  1  0  0  0
 41110  1  0  0  0
 41111  1  0  0  0
 41 48  1  0  0  0
 42 43  1  0  0  0
 42 66  1  0  0  0
 42112  1  0  0  0
 42113  1  0  0  0
 43 44  1  0  0  0
 44114  1  0  0  0
 45 46  2  0  0  0
 45115  1  0  0  0
 46116  1  0  0  0
 47117  1  0  0  0
 47118  1  0  0  0
 48 56  1  0  0  0
 48 65  1  0  0  0
 48119  1  0  0  0
 49 50  1  0  0  0
 49 53  1  0  0  0
 49 64  1  0  0  0
 49120  1  0  0  0
 50 51  1  0  0  0
 50121  1  0  0  0
 50122  1  0  0  0
 51 52  1  0  0  0
 51123  1  0  0  0
 51124  1  0  0  0
 52125  1  0  0  0
 52126  1  0  0  0
 53 54  1  0  0  0
 54 55  2  0  0  0
 54127  1  0  0  0
 55 57  1  0  0  0
 55128  1  0  0  0
 56 69  2  0  0  0
 57 58  2  0  0  0
 57129  1  0  0  0
 58130  1  0  0  0
 59 60  1  0  0  0
 59 61  1  0  0  0
 59 62  1  0  0  0
 60131  1  0  0  0
 60132  1  0  0  0
 60133  1  0  0  0
 61134  1  0  0  0
 61135  1  0  0  0
 61136  1  0  0  0
 62137  1  0  0  0
 62138  1  0  0  0
 62139  1  0  0  0
 63 65  1  0  0  0
 63140  1  0  0  0
 63141  1  0  0  0
 63142  1  0  0  0
 64143  1  0  0  0
 65144  1  0  0  0
 68 83  1  0  0  0
 71 73  2  0  0  0
 71 75  1  0  0  0
 71145  1  0  0  0
 72 74  1  0  0  0
 72 75  2  0  0  0
 72146  1  0  0  0
 73 76  1  0  0  0
 73147  1  0  0  0
 74 76  2  0  0  0
 74148  1  0  0  0
 75 84  1  0  0  0
 76 85  1  0  0  0
 77 78  1  0  0  0
 77 79  1  0  0  0
 77149  1  0  0  0
 77150  1  0  0  0
 78 80  1  0  0  0
 78151  1  0  0  0
 78152  1  0  0  0
 79 81  1  0  0  0
 79153  1  0  0  0
 79154  1  0  0  0
 80 82  1  0  0  0
 80155  1  0  0  0
 80156  1  0  0  0
 81 83  1  0  0  0
 81157  1  0  0  0
 81158  1  0  0  0
 82 85  1  0  0  0
 82159  1  0  0  0
 82160  1  0  0  0
 83161  1  0  0  0
 83162  1  0  0  0
 84163  1  0  0  0
M  ISO  4   1 100  68 101  83 101  84 100
M  END
> <chiral flag>
0

> <version>
0

> <s_m_source_file>
/data/baiqing/PycharmProjects/Reinvent-master-3.2/result/LINK_invent/BTK/process_docking_weight1_custom_sum_contain_oxygen_bond_distance_aromatic_linkinvent_7_9_3/rearranged_h_0005.sdf

> <i_m_source_file_index>
87

> <r_mmod_Potential_Energy-OPLS-2005>
-32.1577224731445

> <r_mmod_Stretch_Energy-OPLS-2005>
31.2237071990967

> <r_mmod_Bend_Energy-OPLS-2005>
98.69189453125

> <r_mmod_Torsional_Energy-OPLS-2005>
248.4345703125

> <r_mmod_Improper_Torsional_Energy-OPLS-2005>
2.38074588775635

> <r_mmod_Van_der_Waal_Energy-OPLS-2005>
160.730239868164

> <r_mmod_Electrostatic_Energy-OPLS-2005>
-379.757232666016

> <r_mmod_Solvation_Energy-OPLS-2005>
-201.947113037109

> <b_mmod_Minimization_Converged-OPLS-2005>
0

> <r_mmod_RMS_Derivative-OPLS-2005>
1.44358515739441

$$$$
89
                    3D
 Structure written by MMmdl.
179187  0  0  1  0            999 V2000
  -30.7736  -14.3365   20.7358 C   0  0  0  0  0  0
  -30.4203  -12.3020   19.3778 C   0  0  0  0  0  0
  -29.4804  -12.5418   18.1832 C   0  0  0  0  0  0
  -28.0061  -12.3888   18.6026 C   0  0  0  0  0  0
  -27.6660  -13.1990   19.8806 C   0  0  2  0  0  0
  -28.7014  -12.9175   20.9879 C   0  0  0  0  0  0
  -25.2607  -13.8147   20.5671 C   0  0  0  0  0  0
  -24.1843  -13.0436   20.9154 C   0  0  0  0  0  0
  -24.6387  -11.6897   20.8715 C   0  0  0  0  0  0
  -23.9052  -10.4288   21.0398 C   0  0  0  0  0  0
  -24.3607   -9.4210   21.9180 C   0  0  0  0  0  0
  -23.6286   -8.2246   22.0755 C   0  0  0  0  0  0
  -22.4266   -8.0280   21.3545 C   0  0  0  0  0  0
  -21.9901   -9.0250   20.4646 C   0  0  0  0  0  0
  -22.7225  -10.2132   20.3051 C   0  0  0  0  0  0
  -21.6853   -6.0731   22.5279 C   0  0  0  0  0  0
  -21.4012   -6.5638   23.8210 C   0  0  0  0  0  0
  -21.3658   -5.6790   24.9174 C   0  0  0  0  0  0
  -21.6048   -4.3055   24.7220 C   0  0  0  0  0  0
  -21.8821   -3.8146   23.4345 C   0  0  0  0  0  0
  -21.9192   -4.6959   22.3403 C   0  0  0  0  0  0
  -22.7872  -13.5253   21.1832 C   0  0  0  0  0  0
  -22.1661   -4.2145   21.0979 F   0  0  0  0  0  0
  -21.5631   -3.4544   25.7736 F   0  0  0  0  0  0
  -30.0443  -13.2263   20.4554 N   0  0  0  0  0  0
  -26.3040  -12.9301   20.3379 N   0  0  0  0  0  0
  -25.9310  -11.6466   20.5745 N   0  0  0  0  0  0
  -22.0513  -12.8236   22.0383 N   0  0  0  0  0  0
  -25.4352  -15.1858   20.4088 N   0  0  0  0  0  0
  -31.7807  -14.6654   20.0984 O   0  0  0  0  0  0
  -21.6641   -6.8873   21.4241 O   0  0  0  0  0  0
  -22.3556  -14.5566   20.6696 O   0  0  0  0  0  0
  -24.6063  -31.8714   23.2128 C   0  0  0  0  0  0
  -25.8977  -32.4848   23.8409 C   0  0  1  0  0  0
  -27.2633  -27.4872   20.0897 C   0  0  0  0  0  0
  -25.5849  -33.8645   24.2338 N   0  0  0  0  0  0
  -23.3938  -30.4918   21.5507 C   0  0  2  0  0  0
  -24.8458  -28.9576   20.1197 C   0  0  0  0  0  0
  -22.7370  -29.4666   22.5009 C   0  0  0  0  0  0
  -18.0268  -28.1365   22.8496 C   0  0  0  0  0  0
  -24.1479  -36.7336   23.2643 C   0  0  0  0  0  0
  -25.9124  -30.8523   21.3580 C   0  0  0  0  0  0
  -25.9952  -29.4857   20.7169 C   0  0  0  0  0  0
  -27.1985  -28.7559   20.7149 C   0  0  0  0  0  0
  -26.0918  -26.9584   19.5081 C   0  0  0  0  0  0
  -24.8844  -27.6860   19.5183 C   0  0  0  0  0  0
  -23.6027  -29.8171   20.1671 C   0  0  0  0  0  0
  -25.4095  -36.3128   24.0344 C   0  0  1  0  0  0
  -20.5852  -28.3638   23.1334 C   0  0  2  0  0  0
  -20.6753  -26.9383   22.5413 C   0  0  0  0  0  0
  -19.5736  -26.6380   21.5206 C   0  0  0  0  0  0
  -18.1911  -26.7914   22.1621 C   0  0  0  0  0  0
  -19.1517  -28.8817   23.2917 C   0  0  0  0  0  0
  -18.9455  -30.1430   23.8920 C   0  0  0  0  0  0
  -17.6459  -30.6576   24.0576 C   0  0  0  0  0  0
  -25.9014  -34.9491   23.5141 C   0  0  0  0  0  0
  -16.5349  -29.9083   23.6335 C   0  0  0  0  0  0
  -16.7258  -28.6507   23.0337 C   0  0  0  0  0  0
  -26.4425  -31.6618   25.0720 C   0  0  0  0  0  0
  -25.3713  -31.3723   26.1490 C   0  0  0  0  0  0
  -27.0240  -30.3070   24.6039 C   0  0  0  0  0  0
  -27.6004  -32.4330   25.7465 C   0  0  0  0  0  0
  -27.5583  -37.1810   24.8458 C   0  0  0  0  0  0
  -21.4103  -29.3021   22.3752 N   0  0  0  0  0  0
  -26.4283  -37.3807   23.9421 N   0  0  0  0  0  0
  -24.6554  -31.0854   22.1008 N   0  0  0  0  0  0
  -23.4170  -28.8211   23.3028 O   0  0  0  0  0  0
  -28.4149  -26.7353   19.9974 O   0  0  0  0  0  0
  -26.5589  -34.8931   22.4710 O   0  0  0  0  0  0
  -23.5272  -32.1437   23.7554 O   0  0  0  0  0  0
  -32.9527  -17.0039   23.5927 C   0  0  0  0  0  0
  -32.3491  -16.0685   22.7329 C   0  0  0  0  0  0
  -30.7604  -17.8848   24.1605 C   0  0  0  0  0  0
  -30.1385  -16.9482   23.3047 C   0  0  0  0  0  0
  -32.1603  -17.9230   24.3185 C   0  0  0  0  0  0
  -30.9432  -16.0297   22.5783 C   0  0  0  0  0  0
  -33.9435  -19.2652   25.4772 C   0  0  0  0  0  0
  -30.8407  -26.5755   19.8191 C   0  0  0  0  0  0
  -34.1096  -20.4439   26.4404 C   0  0  0  0  0  0
  -29.6452  -27.3635   20.3639 C   0  0  0  0  0  0
  -33.6165  -21.7877   25.8618 C   0  0  0  0  0  0
  -34.2615  -22.1833   24.5211 C   0  0  0  0  0  0
  -33.7462  -23.5257   23.9887 C   0  0  0  0  0  0
  -34.1082  -23.7242   22.5115 C   0  0  0  0  0  0
  -33.6041  -25.0583   21.9485 C   0  0  0  0  0  0
  -33.7026  -25.1021   20.4141 C   0  0  0  0  0  0
  -33.3378  -26.4631   19.7960 C   0  0  0  0  0  0
  -28.6136  -16.9518   23.1744 C   0  0  0  0  0  0
  -32.6769  -18.8960   25.2210 N   0  0  0  0  0  0
  -30.3122  -15.0305   21.7860 N   0  0  0  0  0  0
  -32.0457  -26.9714   20.2484 N   0  0  0  0  0  0
  -34.9459  -18.7320   24.9990 O   0  0  0  0  0  0
  -30.6886  -25.6556   19.0095 O   0  0  0  0  0  0
  -28.0345  -17.7959   24.0304 F   0  0  0  0  0  0
  -28.2706  -17.3167   21.9388 F   0  0  0  0  0  0
  -28.1239  -15.7327   23.4087 F   0  0  0  0  0  0
  -31.4611  -12.4224   19.0708 H   0  0  0  0  0  0
  -30.3344  -11.2729   19.7306 H   0  0  0  0  0  0
  -29.7137  -11.8482   17.3744 H   0  0  0  0  0  0
  -29.6435  -13.5439   17.7832 H   0  0  0  0  0  0
  -27.8153  -11.3290   18.7740 H   0  0  0  0  0  0
  -27.3509  -12.6875   17.7837 H   0  0  0  0  0  0
  -27.7300  -14.2569   19.6240 H   0  0  0  0  0  0
  -28.6681  -11.8653   21.2750 H   0  0  0  0  0  0
  -28.4336  -13.4609   21.8940 H   0  0  0  0  0  0
  -25.2754   -9.5695   22.4752 H   0  0  0  0  0  0
  -23.9999   -7.4643   22.7477 H   0  0  0  0  0  0
  -21.0834   -8.8769   19.8949 H   0  0  0  0  0  0
  -22.3687  -10.9670   19.6159 H   0  0  0  0  0  0
  -21.2004   -7.6142   23.9713 H   0  0  0  0  0  0
  -21.1479   -6.0519   25.9073 H   0  0  0  0  0  0
  -22.0600   -2.7606   23.2848 H   0  0  0  0  0  0
  -22.4119  -11.9884   22.4751 H   0  0  0  0  0  0
  -21.1138  -13.1270   22.2604 H   0  0  0  0  0  0
  -24.6788  -15.8484   20.5373 H   0  0  0  0  0  0
  -26.3068  -15.6279   20.1445 H   0  0  0  0  0  0
  -26.7055  -32.5582   23.1189 H   0  0  0  0  0  0
  -24.9963  -33.9824   25.0455 H   0  0  0  0  0  0
  -22.6802  -31.3063   21.4084 H   0  0  0  0  0  0
  -23.3736  -35.9674   23.3293 H   0  0  0  0  0  0
  -24.3591  -36.8965   22.2066 H   0  0  0  0  0  0
  -23.7228  -37.6536   23.6659 H   0  0  0  0  0  0
  -26.0071  -31.6142   20.5827 H   0  0  0  0  0  0
  -26.8064  -30.9201   21.9660 H   0  0  0  0  0  0
  -28.0634  -29.1915   21.1920 H   0  0  0  0  0  0
  -26.1221  -25.9865   19.0349 H   0  0  0  0  0  0
  -23.9996  -27.2663   19.0589 H   0  0  0  0  0  0
  -23.7060  -30.5892   19.4036 H   0  0  0  0  0  0
  -22.7306  -29.2294   19.8749 H   0  0  0  0  0  0
  -25.1272  -36.1998   25.0837 H   0  0  0  0  0  0
  -20.9945  -28.3185   24.1453 H   0  0  0  0  0  0
  -20.5640  -26.2247   23.3588 H   0  0  0  0  0  0
  -21.6625  -26.7406   22.1215 H   0  0  0  0  0  0
  -19.6894  -25.6295   21.1226 H   0  0  0  0  0  0
  -19.6686  -27.3206   20.6751 H   0  0  0  0  0  0
  -17.4183  -26.6679   21.4019 H   0  0  0  0  0  0
  -18.0303  -26.0038   22.9001 H   0  0  0  0  0  0
  -19.7932  -30.7253   24.2275 H   0  0  0  0  0  0
  -17.5020  -31.6267   24.5157 H   0  0  0  0  0  0
  -15.5355  -30.3005   23.7637 H   0  0  0  0  0  0
  -15.8657  -28.0858   22.7004 H   0  0  0  0  0  0
  -24.5862  -30.7086   25.7851 H   0  0  0  0  0  0
  -24.8926  -32.2886   26.4957 H   0  0  0  0  0  0
  -25.8085  -30.8887   27.0235 H   0  0  0  0  0  0
  -26.2772  -29.6858   24.1079 H   0  0  0  0  0  0
  -27.4031  -29.7267   25.4459 H   0  0  0  0  0  0
  -27.8589  -30.4421   23.9158 H   0  0  0  0  0  0
  -27.2621  -33.3614   26.2079 H   0  0  0  0  0  0
  -28.3786  -32.6924   25.0276 H   0  0  0  0  0  0
  -28.0693  -31.8437   26.5350 H   0  0  0  0  0  0
  -28.2568  -38.0136   24.7536 H   0  0  0  0  0  0
  -28.1108  -36.2668   24.6225 H   0  0  0  0  0  0
  -27.2325  -37.1403   25.8867 H   0  0  0  0  0  0
  -20.9240  -29.8760   21.7005 H   0  0  0  0  0  0
  -26.0176  -38.2884   24.1439 H   0  0  0  0  0  0
  -34.0272  -16.9773   23.6831 H   0  0  0  0  0  0
  -32.9861  -15.3650   22.2172 H   0  0  0  0  0  0
  -30.1462  -18.5838   24.7085 H   0  0  0  0  0  0
  -35.1613  -20.5307   26.7146 H   0  0  0  0  0  0
  -33.5767  -20.2227   27.3659 H   0  0  0  0  0  0
  -29.7161  -28.3671   19.9406 H   0  0  0  0  0  0
  -29.7175  -27.4411   21.4501 H   0  0  0  0  0  0
  -33.8055  -22.5726   26.5952 H   0  0  0  0  0  0
  -32.5328  -21.7499   25.7417 H   0  0  0  0  0  0
  -34.0487  -21.4152   23.7768 H   0  0  0  0  0  0
  -35.3471  -22.2194   24.6221 H   0  0  0  0  0  0
  -34.1439  -24.3428   24.5928 H   0  0  0  0  0  0
  -32.6606  -23.5640   24.0905 H   0  0  0  0  0  0
  -33.6748  -22.9069   21.9330 H   0  0  0  0  0  0
  -35.1891  -23.6537   22.3775 H   0  0  0  0  0  0
  -34.1745  -25.8796   22.3857 H   0  0  0  0  0  0
  -32.5662  -25.2087   22.2490 H   0  0  0  0  0  0
  -33.0585  -24.3301   19.9903 H   0  0  0  0  0  0
  -34.7173  -24.8439   20.1071 H   0  0  0  0  0  0
  -33.3510  -26.3952   18.7063 H   0  0  0  0  0  0
  -34.0995  -27.1970   20.0623 H   0  0  0  0  0  0
  -31.9839  -19.4439   25.7110 H   0  0  0  0  0  0
  -29.3998  -14.7392   22.1057 H   0  0  0  0  0  0
  -32.0642  -27.7346   20.9134 H   0  0  0  0  0  0
  1 25  1  0  0  0
  1 30  2  0  0  0
  1 90  1  0  0  0
  2  3  1  0  0  0
  2 25  1  0  0  0
  2 97  1  0  0  0
  2 98  1  0  0  0
  3  4  1  0  0  0
  3 99  1  0  0  0
  3100  1  0  0  0
  4  5  1  0  0  0
  4101  1  0  0  0
  4102  1  0  0  0
  5  6  1  0  0  0
  5 26  1  0  0  0
  5103  1  0  0  0
  6 25  1  0  0  0
  6104  1  0  0  0
  6105  1  0  0  0
  7  8  2  0  0  0
  7 26  1  0  0  0
  7 29  1  0  0  0
  8  9  1  0  0  0
  8 22  1  0  0  0
  9 10  1  0  0  0
  9 27  2  0  0  0
 10 11  2  0  0  0
 10 15  1  0  0  0
 11 12  1  0  0  0
 11106  1  0  0  0
 12 13  2  0  0  0
 12107  1  0  0  0
 13 14  1  0  0  0
 13 31  1  0  0  0
 14 15  2  0  0  0
 14108  1  0  0  0
 15109  1  0  0  0
 16 17  2  0  0  0
 16 21  1  0  0  0
 16 31  1  0  0  0
 17 18  1  0  0  0
 17110  1  0  0  0
 18 19  2  0  0  0
 18111  1  0  0  0
 19 20  1  0  0  0
 19 24  1  0  0  0
 20 21  2  0  0  0
 20112  1  0  0  0
 21 23  1  0  0  0
 22 28  1  0  0  0
 22 32  2  0  0  0
 26 27  1  0  0  0
 28113  1  0  0  0
 28114  1  0  0  0
 29115  1  0  0  0
 29116  1  0  0  0
 33 34  1  0  0  0
 33 66  1  0  0  0
 33 70  2  0  0  0
 34 36  1  0  0  0
 34 59  1  0  0  0
 34117  1  0  0  0
 35 44  2  0  0  0
 35 45  1  0  0  0
 35 68  1  0  0  0
 36 56  1  0  0  0
 36118  1  0  0  0
 37 39  1  0  0  0
 37 47  1  0  0  0
 37 66  1  0  0  0
 37119  1  0  0  0
 38 43  2  0  0  0
 38 46  1  0  0  0
 38 47  1  0  0  0
 39 64  1  0  0  0
 39 67  2  0  0  0
 40 52  1  0  0  0
 40 53  2  0  0  0
 40 58  1  0  0  0
 41120  1  0  0  0
 41121  1  0  0  0
 41122  1  0  0  0
 41 48  1  0  0  0
 42 43  1  0  0  0
 42 66  1  0  0  0
 42123  1  0  0  0
 42124  1  0  0  0
 43 44  1  0  0  0
 44125  1  0  0  0
 45 46  2  0  0  0
 45126  1  0  0  0
 46127  1  0  0  0
 47128  1  0  0  0
 47129  1  0  0  0
 48 56  1  0  0  0
 48 65  1  0  0  0
 48130  1  0  0  0
 49 50  1  0  0  0
 49 53  1  0  0  0
 49 64  1  0  0  0
 49131  1  0  0  0
 50 51  1  0  0  0
 50132  1  0  0  0
 50133  1  0  0  0
 51 52  1  0  0  0
 51134  1  0  0  0
 51135  1  0  0  0
 52136  1  0  0  0
 52137  1  0  0  0
 53 54  1  0  0  0
 54 55  2  0  0  0
 54138  1  0  0  0
 55 57  1  0  0  0
 55139  1  0  0  0
 56 69  2  0  0  0
 57 58  2  0  0  0
 57140  1  0  0  0
 58141  1  0  0  0
 59 60  1  0  0  0
 59 61  1  0  0  0
 59 62  1  0  0  0
 60142  1  0  0  0
 60143  1  0  0  0
 60144  1  0  0  0
 61145  1  0  0  0
 61146  1  0  0  0
 61147  1  0  0  0
 62148  1  0  0  0
 62149  1  0  0  0
 62150  1  0  0  0
 63 65  1  0  0  0
 63151  1  0  0  0
 63152  1  0  0  0
 63153  1  0  0  0
 64154  1  0  0  0
 65155  1  0  0  0
 68 80  1  0  0  0
 71 72  2  0  0  0
 71 75  1  0  0  0
 71156  1  0  0  0
 72 76  1  0  0  0
 72157  1  0  0  0
 73 74  1  0  0  0
 73 75  2  0  0  0
 73158  1  0  0  0
 74 76  2  0  0  0
 74 88  1  0  0  0
 75 89  1  0  0  0
 76 90  1  0  0  0
 77 79  1  0  0  0
 77 89  1  0  0  0
 77 92  2  0  0  0
 78 80  1  0  0  0
 78 91  1  0  0  0
 78 93  2  0  0  0
 79 81  1  0  0  0
 79159  1  0  0  0
 79160  1  0  0  0
 80161  1  0  0  0
 80162  1  0  0  0
 81 82  1  0  0  0
 81163  1  0  0  0
 81164  1  0  0  0
 82 83  1  0  0  0
 82165  1  0  0  0
 82166  1  0  0  0
 83 84  1  0  0  0
 83167  1  0  0  0
 83168  1  0  0  0
 84 85  1  0  0  0
 84169  1  0  0  0
 84170  1  0  0  0
 85 86  1  0  0  0
 85171  1  0  0  0
 85172  1  0  0  0
 86 87  1  0  0  0
 86173  1  0  0  0
 86174  1  0  0  0
 87 91  1  0  0  0
 87175  1  0  0  0
 87176  1  0  0  0
 88 94  1  0  0  0
 88 95  1  0  0  0
 88 96  1  0  0  0
 89177  1  0  0  0
 90178  1  0  0  0
 91179  1  0  0  0
M  ISO  4   1 100  68 101  80 101  90 100
M  END
> <chiral flag>
0

> <version>
0

> <s_m_source_file>
/data/baiqing/PycharmProjects/Reinvent-master-3.2/result/LINK_invent/BTK/process_docking_weight1_custom_sum_contain_oxygen_bond_distance_aromatic_linkinvent_7_9_3/rearranged_h_0005.sdf

> <i_m_source_file_index>
88

> <r_mmod_Potential_Energy-OPLS-2005>
-104.166259765625

> <r_mmod_Stretch_Energy-OPLS-2005>
34.2517395019531

> <r_mmod_Bend_Energy-OPLS-2005>
112.050971984863

> <r_mmod_Torsional_Energy-OPLS-2005>
219.364624023438

> <r_mmod_Improper_Torsional_Energy-OPLS-2005>
1.90803575515747

> <r_mmod_Van_der_Waal_Energy-OPLS-2005>
169.811386108398

> <r_mmod_Electrostatic_Energy-OPLS-2005>
-385.42822265625

> <r_mmod_Solvation_Energy-OPLS-2005>
-262.546081542969

> <b_mmod_Minimization_Converged-OPLS-2005>
0

> <r_mmod_RMS_Derivative-OPLS-2005>
1.21680164337158

$$$$
90
                    3D
 Structure written by MMmdl.
167175  0  0  1  0            999 V2000
  -30.7531  -14.3664   20.6908 C   0  0  0  0  0  0
  -30.4237  -12.2909   19.3937 C   0  0  0  0  0  0
  -29.4936  -12.5382   18.1912 C   0  0  0  0  0  0
  -28.0172  -12.3840   18.6036 C   0  0  0  0  0  0
  -27.6683  -13.2005   19.8757 C   0  0  2  0  0  0
  -28.7018  -12.9356   20.9914 C   0  0  0  0  0  0
  -25.2619  -13.8145   20.5616 C   0  0  0  0  0  0
  -24.1874  -13.0435   20.9176 C   0  0  0  0  0  0
  -24.6411  -11.6902   20.8749 C   0  0  0  0  0  0
  -23.9051  -10.4302   21.0412 C   0  0  0  0  0  0
  -24.3612   -9.4220   21.9183 C   0  0  0  0  0  0
  -23.6298   -8.2251   22.0747 C   0  0  0  0  0  0
  -22.4281   -8.0289   21.3539 C   0  0  0  0  0  0
  -21.9910   -9.0264   20.4637 C   0  0  0  0  0  0
  -22.7231  -10.2146   20.3047 C   0  0  0  0  0  0
  -21.6860   -6.0740   22.5279 C   0  0  0  0  0  0
  -21.4021   -6.5637   23.8222 C   0  0  0  0  0  0
  -21.3660   -5.6778   24.9176 C   0  0  0  0  0  0
  -21.6052   -4.3043   24.7222 C   0  0  0  0  0  0
  -21.8825   -3.8141   23.4351 C   0  0  0  0  0  0
  -21.9203   -4.6964   22.3405 C   0  0  0  0  0  0
  -22.7897  -13.5252   21.1843 C   0  0  0  0  0  0
  -22.1655   -4.2151   21.0978 F   0  0  0  0  0  0
  -21.5635   -3.4522   25.7737 F   0  0  0  0  0  0
  -30.0529  -13.2258   20.4651 N   0  0  0  0  0  0
  -26.3056  -12.9297   20.3341 N   0  0  0  0  0  0
  -25.9341  -11.6460   20.5769 N   0  0  0  0  0  0
  -22.0494  -12.8267   22.0383 N   0  0  0  0  0  0
  -25.4356  -15.1859   20.3931 N   0  0  0  0  0  0
  -31.7610  -14.6850   20.0490 O   0  0  0  0  0  0
  -21.6654   -6.8886   21.4240 O   0  0  0  0  0  0
  -22.3586  -14.5545   20.6670 O   0  0  0  0  0  0
  -24.6154  -31.8676   23.2111 C   0  0  0  0  0  0
  -25.9041  -32.4822   23.8401 C   0  0  1  0  0  0
  -27.2491  -27.4822   20.0718 C   0  0  0  0  0  0
  -25.5897  -33.8622   24.2325 N   0  0  0  0  0  0
  -23.4028  -30.4931   21.5494 C   0  0  2  0  0  0
  -24.8479  -28.9567   20.1204 C   0  0  0  0  0  0
  -22.7397  -29.4676   22.4967 C   0  0  0  0  0  0
  -18.0284  -28.1384   22.8481 C   0  0  0  0  0  0
  -24.1485  -36.7357   23.2639 C   0  0  0  0  0  0
  -25.9271  -30.8464   21.3542 C   0  0  0  0  0  0
  -26.0051  -29.4795   20.7115 C   0  0  0  0  0  0
  -27.2071  -28.7437   20.6955 C   0  0  0  0  0  0
  -26.0694  -26.9445   19.5128 C   0  0  0  0  0  0
  -24.8715  -27.6815   19.5252 C   0  0  0  0  0  0
  -23.6122  -29.8239   20.1637 C   0  0  0  0  0  0
  -25.4095  -36.3123   24.0344 C   0  0  1  0  0  0
  -20.5864  -28.3681   23.1284 C   0  0  2  0  0  0
  -20.6757  -26.9412   22.5396 C   0  0  0  0  0  0
  -19.5750  -26.6401   21.5177 C   0  0  0  0  0  0
  -18.1931  -26.7937   22.1593 C   0  0  0  0  0  0
  -19.1535  -28.8851   23.2885 C   0  0  0  0  0  0
  -18.9462  -30.1441   23.8912 C   0  0  0  0  0  0
  -17.6462  -30.6586   24.0574 C   0  0  0  0  0  0
  -25.9019  -34.9480   23.5138 C   0  0  0  0  0  0
  -16.5356  -29.9094   23.6320 C   0  0  0  0  0  0
  -16.7268  -28.6505   23.0338 C   0  0  0  0  0  0
  -26.4464  -31.6607   25.0733 C   0  0  0  0  0  0
  -25.3742  -31.3719   26.1495 C   0  0  0  0  0  0
  -27.0274  -30.3058   24.6081 C   0  0  0  0  0  0
  -27.6045  -32.4311   25.7509 C   0  0  0  0  0  0
  -27.5579  -37.1824   24.8457 C   0  0  0  0  0  0
  -21.4130  -29.3047   22.3687 N   0  0  0  0  0  0
  -26.4281  -37.3803   23.9416 N   0  0  0  0  0  0
  -24.6677  -31.0810   22.0987 N   0  0  0  0  0  0
  -23.4163  -28.8213   23.3008 O   0  0  0  0  0  0
  -28.4350  -26.7937   20.0145 O   0  0  0  0  0  0
  -26.5567  -34.8922   22.4688 O   0  0  0  0  0  0
  -23.5348  -32.1402   23.7513 O   0  0  0  0  0  0
  -30.0411  -18.1616   23.7533 C   0  0  0  0  0  0
  -29.9894  -16.8146   23.3547 C   0  0  0  0  0  0
  -30.5795  -19.1340   22.8912 C   0  0  0  0  0  0
  -31.0363  -17.4082   21.2340 C   0  0  0  0  0  0
  -30.4778  -16.4272   22.0929 C   0  0  0  0  0  0
  -31.0869  -18.7662   21.6193 C   0  0  0  0  0  0
  -31.9576  -26.2751   18.2284 C   0  0  0  0  0  0
  -31.2901  -27.5783   18.6702 C   0  0  0  0  0  0
  -29.8232  -27.6645   18.1943 C   0  0  0  0  0  0
  -31.9022  -23.3480   19.9051 C   0  0  0  0  0  0
  -32.2090  -21.8443   19.8841 C   0  0  0  0  0  0
  -32.9243  -24.1628   19.0925 C   0  0  0  0  0  0
  -28.9045  -26.5227   18.6950 C   0  0  0  0  0  0
  -31.4339  -21.0527   20.9461 C   0  0  0  0  0  0
  -30.3080  -15.0628   21.7441 N   0  0  0  0  0  0
  -32.6010  -25.5821   19.1717 N   0  0  0  0  0  0
  -31.8243  -25.8663   17.0735 O   0  0  0  0  0  0
  -31.6304  -19.6595   20.7191 O   0  0  0  0  0  0
  -31.4674  -12.4040   19.0933 H   0  0  0  0  0  0
  -30.3237  -11.2646   19.7504 H   0  0  0  0  0  0
  -29.7298  -11.8494   17.3775 H   0  0  0  0  0  0
  -29.6634  -13.5424   17.8025 H   0  0  0  0  0  0
  -27.8329  -11.3250   18.7856 H   0  0  0  0  0  0
  -27.3635  -12.6705   17.7780 H   0  0  0  0  0  0
  -27.7259  -14.2567   19.6126 H   0  0  0  0  0  0
  -28.6696  -11.8911   21.3050 H   0  0  0  0  0  0
  -28.4286  -13.5100   21.8769 H   0  0  0  0  0  0
  -25.2759   -9.5714   22.4745 H   0  0  0  0  0  0
  -24.0023   -7.4653   22.7466 H   0  0  0  0  0  0
  -21.0841   -8.8789   19.8939 H   0  0  0  0  0  0
  -22.3699  -10.9689   19.6150 H   0  0  0  0  0  0
  -21.2001   -7.6141   23.9730 H   0  0  0  0  0  0
  -21.1468   -6.0498   25.9085 H   0  0  0  0  0  0
  -22.0603   -2.7602   23.2852 H   0  0  0  0  0  0
  -22.4042  -11.9931   22.4822 H   0  0  0  0  0  0
  -21.1087  -13.1310   22.2475 H   0  0  0  0  0  0
  -24.6737  -15.8473   20.4927 H   0  0  0  0  0  0
  -26.2904  -15.6146   20.0589 H   0  0  0  0  0  0
  -26.7126  -32.5541   23.1181 H   0  0  0  0  0  0
  -25.0052  -33.9764   25.0477 H   0  0  0  0  0  0
  -22.6972  -31.3132   21.4053 H   0  0  0  0  0  0
  -23.3725  -35.9710   23.3287 H   0  0  0  0  0  0
  -24.3587  -36.8979   22.2053 H   0  0  0  0  0  0
  -23.7237  -37.6571   23.6648 H   0  0  0  0  0  0
  -26.0194  -31.6055   20.5760 H   0  0  0  0  0  0
  -26.8244  -30.9145   21.9581 H   0  0  0  0  0  0
  -28.1084  -29.1527   21.1295 H   0  0  0  0  0  0
  -26.0791  -25.9603   19.0644 H   0  0  0  0  0  0
  -23.9798  -27.2648   19.0767 H   0  0  0  0  0  0
  -23.7263  -30.5979   19.4047 H   0  0  0  0  0  0
  -22.7378  -29.2436   19.8642 H   0  0  0  0  0  0
  -25.1252  -36.2007   25.0834 H   0  0  0  0  0  0
  -20.9961  -28.3242   24.1398 H   0  0  0  0  0  0
  -20.5613  -26.2291   23.3588 H   0  0  0  0  0  0
  -21.6638  -26.7420   22.1221 H   0  0  0  0  0  0
  -19.6913  -25.6305   21.1223 H   0  0  0  0  0  0
  -19.6714  -27.3193   20.6694 H   0  0  0  0  0  0
  -17.4199  -26.6682   21.4001 H   0  0  0  0  0  0
  -18.0347  -26.0062   22.8975 H   0  0  0  0  0  0
  -19.7938  -30.7249   24.2295 H   0  0  0  0  0  0
  -17.5026  -31.6271   24.5172 H   0  0  0  0  0  0
  -15.5354  -30.3013   23.7637 H   0  0  0  0  0  0
  -15.8658  -28.0837   22.7045 H   0  0  0  0  0  0
  -24.5946  -30.7008   25.7876 H   0  0  0  0  0  0
  -24.8907  -32.2876   26.4922 H   0  0  0  0  0  0
  -25.8130  -30.8954   27.0274 H   0  0  0  0  0  0
  -26.2807  -29.6846   24.1135 H   0  0  0  0  0  0
  -27.4048  -29.7262   25.4514 H   0  0  0  0  0  0
  -27.8636  -30.4389   23.9211 H   0  0  0  0  0  0
  -27.2688  -33.3626   26.2088 H   0  0  0  0  0  0
  -28.3897  -32.6834   25.0367 H   0  0  0  0  0  0
  -28.0674  -31.8425   26.5442 H   0  0  0  0  0  0
  -28.2583  -38.0128   24.7491 H   0  0  0  0  0  0
  -28.1077  -36.2655   24.6285 H   0  0  0  0  0  0
  -27.2304  -37.1494   25.8859 H   0  0  0  0  0  0
  -20.9278  -29.8799   21.6942 H   0  0  0  0  0  0
  -26.0184  -38.2894   24.1399 H   0  0  0  0  0  0
  -29.6597  -18.4476   24.7236 H   0  0  0  0  0  0
  -29.5628  -16.0814   24.0276 H   0  0  0  0  0  0
  -30.5918  -20.1539   23.2424 H   0  0  0  0  0  0
  -31.4110  -17.1371   20.2589 H   0  0  0  0  0  0
  -31.8638  -28.4121   18.2653 H   0  0  0  0  0  0
  -31.3311  -27.6759   19.7565 H   0  0  0  0  0  0
  -29.8186  -27.6684   17.1034 H   0  0  0  0  0  0
  -29.4052  -28.6282   18.4819 H   0  0  0  0  0  0
  -31.8930  -23.7068   20.9353 H   0  0  0  0  0  0
  -30.8956  -23.5161   19.5169 H   0  0  0  0  0  0
  -33.2753  -21.6897   20.0516 H   0  0  0  0  0  0
  -31.9903  -21.4562   18.8899 H   0  0  0  0  0  0
  -32.9518  -23.8140   18.0572 H   0  0  0  0  0  0
  -33.9266  -24.0137   19.4944 H   0  0  0  0  0  0
  -29.4168  -25.5612   18.7207 H   0  0  0  0  0  0
  -28.0894  -26.3840   17.9836 H   0  0  0  0  0  0
  -30.3686  -21.2865   20.9037 H   0  0  0  0  0  0
  -31.8141  -21.3424   21.9255 H   0  0  0  0  0  0
  -29.6107  -14.5680   22.2793 H   0  0  0  0  0  0
  -32.7430  -26.0340   20.0671 H   0  0  0  0  0  0
  1 25  1  0  0  0
  1 30  2  0  0  0
  1 85  1  0  0  0
  2  3  1  0  0  0
  2 25  1  0  0  0
  2 89  1  0  0  0
  2 90  1  0  0  0
  3  4  1  0  0  0
  3 91  1  0  0  0
  3 92  1  0  0  0
  4  5  1  0  0  0
  4 93  1  0  0  0
  4 94  1  0  0  0
  5  6  1  0  0  0
  5 26  1  0  0  0
  5 95  1  0  0  0
  6 25  1  0  0  0
  6 96  1  0  0  0
  6 97  1  0  0  0
  7  8  2  0  0  0
  7 26  1  0  0  0
  7 29  1  0  0  0
  8  9  1  0  0  0
  8 22  1  0  0  0
  9 10  1  0  0  0
  9 27  2  0  0  0
 10 11  2  0  0  0
 10 15  1  0  0  0
 11 12  1  0  0  0
 11 98  1  0  0  0
 12 13  2  0  0  0
 12 99  1  0  0  0
 13 14  1  0  0  0
 13 31  1  0  0  0
 14 15  2  0  0  0
 14100  1  0  0  0
 15101  1  0  0  0
 16 17  2  0  0  0
 16 21  1  0  0  0
 16 31  1  0  0  0
 17 18  1  0  0  0
 17102  1  0  0  0
 18 19  2  0  0  0
 18103  1  0  0  0
 19 20  1  0  0  0
 19 24  1  0  0  0
 20 21  2  0  0  0
 20104  1  0  0  0
 21 23  1  0  0  0
 22 28  1  0  0  0
 22 32  2  0  0  0
 26 27  1  0  0  0
 28105  1  0  0  0
 28106  1  0  0  0
 29107  1  0  0  0
 29108  1  0  0  0
 33 34  1  0  0  0
 33 66  1  0  0  0
 33 70  2  0  0  0
 34 36  1  0  0  0
 34 59  1  0  0  0
 34109  1  0  0  0
 35 44  2  0  0  0
 35 45  1  0  0  0
 35 68  1  0  0  0
 36 56  1  0  0  0
 36110  1  0  0  0
 37 39  1  0  0  0
 37 47  1  0  0  0
 37 66  1  0  0  0
 37111  1  0  0  0
 38 43  2  0  0  0
 38 46  1  0  0  0
 38 47  1  0  0  0
 39 64  1  0  0  0
 39 67  2  0  0  0
 40 52  1  0  0  0
 40 53  2  0  0  0
 40 58  1  0  0  0
 41112  1  0  0  0
 41113  1  0  0  0
 41114  1  0  0  0
 41 48  1  0  0  0
 42 43  1  0  0  0
 42 66  1  0  0  0
 42115  1  0  0  0
 42116  1  0  0  0
 43 44  1  0  0  0
 44117  1  0  0  0
 45 46  2  0  0  0
 45118  1  0  0  0
 46119  1  0  0  0
 47120  1  0  0  0
 47121  1  0  0  0
 48 56  1  0  0  0
 48 65  1  0  0  0
 48122  1  0  0  0
 49 50  1  0  0  0
 49 53  1  0  0  0
 49 64  1  0  0  0
 49123  1  0  0  0
 50 51  1  0  0  0
 50124  1  0  0  0
 50125  1  0  0  0
 51 52  1  0  0  0
 51126  1  0  0  0
 51127  1  0  0  0
 52128  1  0  0  0
 52129  1  0  0  0
 53 54  1  0  0  0
 54 55  2  0  0  0
 54130  1  0  0  0
 55 57  1  0  0  0
 55131  1  0  0  0
 56 69  2  0  0  0
 57 58  2  0  0  0
 57132  1  0  0  0
 58133  1  0  0  0
 59 60  1  0  0  0
 59 61  1  0  0  0
 59 62  1  0  0  0
 60134  1  0  0  0
 60135  1  0  0  0
 60136  1  0  0  0
 61137  1  0  0  0
 61138  1  0  0  0
 61139  1  0  0  0
 62140  1  0  0  0
 62141  1  0  0  0
 62142  1  0  0  0
 63 65  1  0  0  0
 63143  1  0  0  0
 63144  1  0  0  0
 63145  1  0  0  0
 64146  1  0  0  0
 65147  1  0  0  0
 68 83  1  0  0  0
 71 72  2  0  0  0
 71 73  1  0  0  0
 71148  1  0  0  0
 72 75  1  0  0  0
 72149  1  0  0  0
 73 76  2  0  0  0
 73150  1  0  0  0
 74 75  2  0  0  0
 74 76  1  0  0  0
 74151  1  0  0  0
 75 85  1  0  0  0
 76 88  1  0  0  0
 77 78  1  0  0  0
 77 86  1  0  0  0
 77 87  2  0  0  0
 78 79  1  0  0  0
 78152  1  0  0  0
 78153  1  0  0  0
 79 83  1  0  0  0
 79154  1  0  0  0
 79155  1  0  0  0
 80 81  1  0  0  0
 80 82  1  0  0  0
 80156  1  0  0  0
 80157  1  0  0  0
 81 84  1  0  0  0
 81158  1  0  0  0
 81159  1  0  0  0
 82 86  1  0  0  0
 82160  1  0  0  0
 82161  1  0  0  0
 83162  1  0  0  0
 83163  1  0  0  0
 84 88  1  0  0  0
 84164  1  0  0  0
 84165  1  0  0  0
 85166  1  0  0  0
 86167  1  0  0  0
M  ISO  4   1 100  68 101  83 101  85 100
M  END
> <chiral flag>
0

> <version>
0

> <s_m_source_file>
/data/baiqing/PycharmProjects/Reinvent-master-3.2/result/LINK_invent/BTK/process_docking_weight1_custom_sum_contain_oxygen_bond_distance_aromatic_linkinvent_7_9_3/rearranged_h_0005.sdf

> <i_m_source_file_index>
89

> <r_mmod_Potential_Energy-OPLS-2005>
-155.284393310547

> <r_mmod_Stretch_Energy-OPLS-2005>
33.0739936828613

> <r_mmod_Bend_Energy-OPLS-2005>
101.944664001465

> <r_mmod_Torsional_Energy-OPLS-2005>
224.819473266602

> <r_mmod_Improper_Torsional_Energy-OPLS-2005>
3.75300526618958

> <r_mmod_Van_der_Waal_Energy-OPLS-2005>
164.992736816406

> <r_mmod_Electrostatic_Energy-OPLS-2005>
-447.421569824219

> <r_mmod_Solvation_Energy-OPLS-2005>
-243.420272827148

> <b_mmod_Minimization_Converged-OPLS-2005>
0

> <r_mmod_RMS_Derivative-OPLS-2005>
3.61577725410461

$$$$
91
                    3D
 Structure written by MMmdl.
196204  0  0  1  0            999 V2000
  -31.8597  -13.6689   20.9414 C   0  0  0  0  0  0
  -31.0603  -13.1059   18.7692 C   0  0  0  0  0  0
  -29.6054  -12.4248   17.8093 C   0  0  0  0  0  0
  -27.8303  -12.3149   18.3501 C   0  0  0  0  0  0
  -27.1017  -13.1869   19.7978 C   0  0  2  0  0  0
  -28.1041  -13.9416   21.1790 C   0  0  0  0  0  0
  -25.0035  -13.7876   20.6351 C   0  0  0  0  0  0
  -23.9862  -12.9972   20.9987 C   0  0  0  0  0  0
  -24.4764  -11.6496   20.9370 C   0  0  0  0  0  0
  -23.8058  -10.3896   21.0800 C   0  0  0  0  0  0
  -24.3047   -9.3897   21.9351 C   0  0  0  0  0  0
  -23.5980   -8.1828   22.0722 C   0  0  0  0  0  0
  -22.3987   -7.9850   21.3482 C   0  0  0  0  0  0
  -21.9455   -8.9733   20.4600 C   0  0  0  0  0  0
  -22.6515  -10.1714   20.3166 C   0  0  0  0  0  0
  -21.6718   -6.0515   22.5293 C   0  0  0  0  0  0
  -21.3936   -6.5503   23.8199 C   0  0  0  0  0  0
  -21.3634   -5.6698   24.9194 C   0  0  0  0  0  0
  -21.6064   -4.2959   24.7279 C   0  0  0  0  0  0
  -21.8827   -3.8013   23.4411 C   0  0  0  0  0  0
  -21.9150   -4.6792   22.3446 C   0  0  0  0  0  0
  -22.6139  -13.4852   21.2498 C   0  0  0  0  0  0
  -22.1655   -4.1977   21.1032 F   0  0  0  0  0  0
  -21.5630   -3.4481   25.7813 F   0  0  0  0  0  0
  -30.8507  -13.9883   20.3024 N   0  0  0  0  0  0
  -25.9447  -12.8609   20.3092 N   0  0  0  0  0  0
  -25.7310  -11.5893   20.5844 N   0  0  0  0  0  0
  -21.8896  -12.7859   22.1077 N   0  0  0  0  0  0
  -25.1828  -15.1720   20.4977 N   0  0  0  0  0  0
  -32.8660  -14.2932   20.6908 O   0  0  0  0  0  0
  -21.6429   -6.8475   21.4173 O   0  0  0  0  0  0
  -22.2107  -14.5282   20.7336 O   0  0  0  0  0  0
  -24.6273  -31.8635   23.2037 C   0  0  0  0  0  0
  -25.9098  -32.4814   23.8377 C   0  0  1  0  0  0
  -27.1972  -27.3613   20.0562 C   0  0  0  0  0  0
  -25.5895  -33.8615   24.2292 N   0  0  0  0  0  0
  -23.4153  -30.4954   21.5473 C   0  0  2  0  0  0
  -24.8451  -28.9485   20.1183 C   0  0  0  0  0  0
  -22.7480  -29.4665   22.4915 C   0  0  0  0  0  0
  -18.0320  -28.1374   22.8506 C   0  0  0  0  0  0
  -24.1503  -36.7315   23.2634 C   0  0  0  0  0  0
  -25.9582  -30.8032   21.3643 C   0  0  0  0  0  0
  -26.0223  -29.4363   20.6978 C   0  0  0  0  0  0
  -27.2097  -28.6518   20.6537 C   0  0  0  0  0  0
  -25.9955  -26.9175   19.4588 C   0  0  0  0  0  0
  -24.8231  -27.6868   19.5046 C   0  0  0  0  0  0
  -23.6228  -29.8333   20.1645 C   0  0  0  0  0  0
  -25.4120  -36.3116   24.0342 C   0  0  1  0  0  0
  -20.5918  -28.3692   23.1256 C   0  0  2  0  0  0
  -20.6783  -26.9409   22.5381 C   0  0  0  0  0  0
  -19.5744  -26.6384   21.5193 C   0  0  0  0  0  0
  -18.1941  -26.7925   22.1637 C   0  0  0  0  0  0
  -19.1573  -28.8844   23.2890 C   0  0  0  0  0  0
  -18.9489  -30.1441   23.8910 C   0  0  0  0  0  0
  -17.6483  -30.6571   24.0562 C   0  0  0  0  0  0
  -25.9056  -34.9479   23.5126 C   0  0  0  0  0  0
  -16.5375  -29.9065   23.6315 C   0  0  0  0  0  0
  -16.7305  -28.6476   23.0358 C   0  0  0  0  0  0
  -26.4473  -31.6623   25.0746 C   0  0  0  0  0  0
  -25.3675  -31.3781   26.1455 C   0  0  0  0  0  0
  -27.0272  -30.3047   24.6155 C   0  0  0  0  0  0
  -27.6076  -32.4312   25.7476 C   0  0  0  0  0  0
  -27.5600  -37.1810   24.8466 C   0  0  0  0  0  0
  -21.4195  -29.3078   22.3670 N   0  0  0  0  0  0
  -26.4315  -37.3788   23.9404 N   0  0  0  0  0  0
  -24.6867  -31.0698   22.0954 N   0  0  0  0  0  0
  -23.4213  -28.8178   23.2972 O   0  0  0  0  0  0
  -28.3105  -26.5288   20.0397 O   0  0  0  0  0  0
  -26.5650  -34.8921   22.4713 O   0  0  0  0  0  0
  -23.5445  -32.1400   23.7380 O   0  0  0  0  0  0
  -29.9925  -14.1405   22.5970 C   0  0  0  0  0  0
  -29.3465  -12.4083   20.2675 C   0  0  0  0  0  0
  -29.7706  -15.5545   21.7872 C   0  0  0  0  0  0
  -29.0163  -14.3786   19.2103 C   0  0  0  0  0  0
  -30.0034  -12.6524   21.8511 C   0  0  0  0  0  0
  -29.2900  -15.7667   20.1980 C   0  0  0  0  0  0
  -27.9913  -18.1260   23.1680 C   0  0  0  0  0  0
  -27.9349  -18.0949   21.8284 C   0  0  0  0  0  0
  -28.8705  -21.4206   18.9092 C   0  0  0  0  0  0
  -35.7772  -19.9793   14.6987 C   0  0  0  0  0  0
  -34.5952  -21.9892   15.5330 C   0  0  0  0  0  0
  -29.1547  -18.1409   20.9193 C   0  0  0  0  0  0
  -28.1609  -22.5429   19.7181 C   0  0  0  0  0  0
  -28.4855  -24.0334   19.3094 C   0  0  0  0  0  0
  -30.4985  -18.8935   14.9870 C   0  0  0  0  0  0
  -31.5861  -19.0348   16.0598 C   0  0  0  0  0  0
  -29.1683  -18.3331   15.5145 C   0  0  0  0  0  0
  -32.9634  -19.2926   15.4398 C   0  0  0  0  0  0
  -28.4519  -19.2232   16.5470 C   0  0  0  0  0  0
  -28.3734  -17.6216   18.6194 C   0  0  0  0  0  0
  -34.0298  -19.7639   16.4554 C   0  0  0  0  0  0
  -28.0727  -25.1179   20.3661 C   0  0  0  0  0  0
  -28.8346  -19.0307   18.0390 C   0  0  2  0  0  0
  -31.4486  -12.6563   21.7426 N   0  0  0  0  0  0
  -28.2644  -20.2115   18.7494 N   0  0  0  0  0  0
  -29.1075  -17.1539   19.8196 N   0  0  0  0  0  0
  -35.0770  -20.6195   15.8386 N   0  3  0  0  0  0
  -29.9930  -21.6397   18.4582 O   0  0  0  0  0  0
  -31.6201  -13.7571   18.0959 H   0  0  0  0  0  0
  -31.7336  -12.2578   18.9234 H   0  0  0  0  0  0
  -29.8881  -11.4452   17.4180 H   0  0  0  0  0  0
  -29.5796  -13.0199   16.8962 H   0  0  0  0  0  0
  -27.6075  -11.2601   18.4997 H   0  0  0  0  0  0
  -27.2179  -12.5434   17.4842 H   0  0  0  0  0  0
  -26.7672  -14.0104   19.1594 H   0  0  0  0  0  0
  -27.7971  -13.3465   22.0563 H   0  0  0  0  0  0
  -27.5620  -14.8541   21.4628 H   0  0  0  0  0  0
  -25.2131   -9.5553   22.4967 H   0  0  0  0  0  0
  -23.9789   -7.4212   22.7368 H   0  0  0  0  0  0
  -21.0410   -8.8109   19.8883 H   0  0  0  0  0  0
  -22.2871  -10.9282   19.6365 H   0  0  0  0  0  0
  -21.1914   -7.6014   23.9654 H   0  0  0  0  0  0
  -21.1482   -6.0455   25.9093 H   0  0  0  0  0  0
  -22.0665   -2.7473   23.2954 H   0  0  0  0  0  0
  -22.2563  -11.9605   22.5547 H   0  0  0  0  0  0
  -20.9514  -13.0804   22.3321 H   0  0  0  0  0  0
  -24.4155  -15.8119   20.6724 H   0  0  0  0  0  0
  -26.0270  -15.6253   20.1752 H   0  0  0  0  0  0
  -26.7174  -32.5446   23.1142 H   0  0  0  0  0  0
  -24.9974  -33.9766   25.0388 H   0  0  0  0  0  0
  -22.7096  -31.3162   21.4054 H   0  0  0  0  0  0
  -23.3764  -35.9643   23.3289 H   0  0  0  0  0  0
  -24.3609  -36.8933   22.2048 H   0  0  0  0  0  0
  -23.7244  -37.6518   23.6646 H   0  0  0  0  0  0
  -26.0939  -31.5660   20.5964 H   0  0  0  0  0  0
  -26.8439  -30.8445   21.9864 H   0  0  0  0  0  0
  -28.1290  -29.0188   21.0863 H   0  0  0  0  0  0
  -25.9536  -25.9649   18.9521 H   0  0  0  0  0  0
  -23.9054  -27.3155   19.0641 H   0  0  0  0  0  0
  -23.7570  -30.6052   19.4077 H   0  0  0  0  0  0
  -22.7384  -29.2754   19.8579 H   0  0  0  0  0  0
  -25.1300  -36.1992   25.0837 H   0  0  0  0  0  0
  -21.0075  -28.3271   24.1346 H   0  0  0  0  0  0
  -20.5640  -26.2324   23.3594 H   0  0  0  0  0  0
  -21.6651  -26.7392   22.1189 H   0  0  0  0  0  0
  -19.6877  -25.6289   21.1222 H   0  0  0  0  0  0
  -19.6644  -27.3192   20.6713 H   0  0  0  0  0  0
  -17.4192  -26.6695   21.4047 H   0  0  0  0  0  0
  -18.0343  -26.0050   22.9022 H   0  0  0  0  0  0
  -19.7954  -30.7266   24.2279 H   0  0  0  0  0  0
  -17.5021  -31.6250   24.5173 H   0  0  0  0  0  0
  -15.5366  -30.2968   23.7596 H   0  0  0  0  0  0
  -15.8719  -28.0773   22.7070 H   0  0  0  0  0  0
  -24.5810  -30.7208   25.7744 H   0  0  0  0  0  0
  -24.8915  -32.2964   26.4905 H   0  0  0  0  0  0
  -25.7948  -30.8896   27.0219 H   0  0  0  0  0  0
  -26.2832  -29.6843   24.1155 H   0  0  0  0  0  0
  -27.3955  -29.7274   25.4646 H   0  0  0  0  0  0
  -27.8716  -30.4359   23.9381 H   0  0  0  0  0  0
  -27.2767  -33.3622   26.2086 H   0  0  0  0  0  0
  -28.3863  -32.6847   25.0268 H   0  0  0  0  0  0
  -28.0762  -31.8390   26.5346 H   0  0  0  0  0  0
  -28.2631  -38.0099   24.7529 H   0  0  0  0  0  0
  -28.1098  -36.2639   24.6297 H   0  0  0  0  0  0
  -27.2322  -37.1466   25.8869 H   0  0  0  0  0  0
  -20.9341  -29.8850   21.6944 H   0  0  0  0  0  0
  -26.0222  -38.2880   24.1359 H   0  0  0  0  0  0
  -30.3862  -14.2131   23.6007 H   0  0  0  0  0  0
  -29.3088  -11.3806   19.9222 H   0  0  0  0  0  0
  -29.9656  -16.3820   22.4374 H   0  0  0  0  0  0
  -28.6843  -14.5747   18.1990 H   0  0  0  0  0  0
  -27.0966  -18.0869   23.7733 H   0  0  0  0  0  0
  -28.9339  -18.1922   23.6911 H   0  0  0  0  0  0
  -26.9664  -18.0379   21.3489 H   0  0  0  0  0  0
  -36.5740  -20.6205   14.3247 H   0  0  0  0  0  0
  -35.1036  -19.7774   13.8649 H   0  0  0  0  0  0
  -36.2254  -19.0335   15.0045 H   0  0  0  0  0  0
  -35.4278  -22.6337   15.2538 H   0  0  0  0  0  0
  -34.1133  -22.4378   16.4030 H   0  0  0  0  0  0
  -33.8779  -22.0012   14.7124 H   0  0  0  0  0  0
  -30.0883  -18.0845   21.4732 H   0  0  0  0  0  0
  -29.2367  -19.1570   20.5701 H   0  0  0  0  0  0
  -28.4501  -22.3973   20.7592 H   0  0  0  0  0  0
  -27.0850  -22.3746   19.6856 H   0  0  0  0  0  0
  -27.9724  -24.2465   18.3717 H   0  0  0  0  0  0
  -29.5519  -24.1396   19.0996 H   0  0  0  0  0  0
  -30.8575  -18.2344   14.1958 H   0  0  0  0  0  0
  -30.3385  -19.8641   14.5117 H   0  0  0  0  0  0
  -31.6152  -18.1496   16.6995 H   0  0  0  0  0  0
  -31.3345  -19.8839   16.6956 H   0  0  0  0  0  0
  -29.3151  -17.3273   15.8973 H   0  0  0  0  0  0
  -28.5068  -18.2172   14.6543 H   0  0  0  0  0  0
  -32.8326  -20.0443   14.6643 H   0  0  0  0  0  0
  -33.3218  -18.3973   14.9285 H   0  0  0  0  0  0
  -27.3754  -19.0827   16.4495 H   0  0  0  0  0  0
  -28.6178  -20.2611   16.2474 H   0  0  0  0  0  0
  -28.4800  -16.8593   17.8498 H   0  0  0  0  0  0
  -27.3056  -17.6517   18.8331 H   0  0  0  0  0  0
  -34.4956  -18.8996   16.9337 H   0  0  0  0  0  0
  -33.5623  -20.3235   17.2680 H   0  0  0  0  0  0
  -28.6323  -24.9110   21.2781 H   0  0  0  0  0  0
  -27.0354  -24.9307   20.6507 H   0  0  0  0  0  0
  -29.9181  -19.0725   18.1251 H   0  0  0  0  0  0
  -32.0497  -12.3025   22.4762 H   0  0  0  0  0  0
  -27.3726  -20.0699   19.2023 H   0  0  0  0  0  0
  -35.7766  -20.7423   16.5572 H   0  0  0  0  0  0
  1 25  1  0  0  0
  1 30  2  0  0  0
  1 94  1  0  0  0
  2  3  1  0  0  0
  2 25  1  0  0  0
  2 99  1  0  0  0
  2100  1  0  0  0
  3  4  1  0  0  0
  3101  1  0  0  0
  3102  1  0  0  0
  4  5  1  0  0  0
  4103  1  0  0  0
  4104  1  0  0  0
  5  6  1  0  0  0
  5 26  1  0  0  0
  5105  1  0  0  0
  6 25  1  0  0  0
  6106  1  0  0  0
  6107  1  0  0  0
  7  8  2  0  0  0
  7 26  1  0  0  0
  7 29  1  0  0  0
  8  9  1  0  0  0
  8 22  1  0  0  0
  9 10  1  0  0  0
  9 27  2  0  0  0
 10 11  2  0  0  0
 10 15  1  0  0  0
 11 12  1  0  0  0
 11108  1  0  0  0
 12 13  2  0  0  0
 12109  1  0  0  0
 13 14  1  0  0  0
 13 31  1  0  0  0
 14 15  2  0  0  0
 14110  1  0  0  0
 15111  1  0  0  0
 16 17  2  0  0  0
 16 21  1  0  0  0
 16 31  1  0  0  0
 17 18  1  0  0  0
 17112  1  0  0  0
 18 19  2  0  0  0
 18113  1  0  0  0
 19 20  1  0  0  0
 19 24  1  0  0  0
 20 21  2  0  0  0
 20114  1  0  0  0
 21 23  1  0  0  0
 22 28  1  0  0  0
 22 32  2  0  0  0
 26 27  1  0  0  0
 28115  1  0  0  0
 28116  1  0  0  0
 29117  1  0  0  0
 29118  1  0  0  0
 33 34  1  0  0  0
 33 66  1  0  0  0
 33 70  2  0  0  0
 34 36  1  0  0  0
 34 59  1  0  0  0
 34119  1  0  0  0
 35 44  2  0  0  0
 35 45  1  0  0  0
 35 68  1  0  0  0
 36 56  1  0  0  0
 36120  1  0  0  0
 37 39  1  0  0  0
 37 47  1  0  0  0
 37 66  1  0  0  0
 37121  1  0  0  0
 38 43  2  0  0  0
 38 46  1  0  0  0
 38 47  1  0  0  0
 39 64  1  0  0  0
 39 67  2  0  0  0
 40 52  1  0  0  0
 40 53  2  0  0  0
 40 58  1  0  0  0
 41122  1  0  0  0
 41123  1  0  0  0
 41124  1  0  0  0
 41 48  1  0  0  0
 42 43  1  0  0  0
 42 66  1  0  0  0
 42125  1  0  0  0
 42126  1  0  0  0
 43 44  1  0  0  0
 44127  1  0  0  0
 45 46  2  0  0  0
 45128  1  0  0  0
 46129  1  0  0  0
 47130  1  0  0  0
 47131  1  0  0  0
 48 56  1  0  0  0
 48 65  1  0  0  0
 48132  1  0  0  0
 49 50  1  0  0  0
 49 53  1  0  0  0
 49 64  1  0  0  0
 49133  1  0  0  0
 50 51  1  0  0  0
 50134  1  0  0  0
 50135  1  0  0  0
 51 52  1  0  0  0
 51136  1  0  0  0
 51137  1  0  0  0
 52138  1  0  0  0
 52139  1  0  0  0
 53 54  1  0  0  0
 54 55  2  0  0  0
 54140  1  0  0  0
 55 57  1  0  0  0
 55141  1  0  0  0
 56 69  2  0  0  0
 57 58  2  0  0  0
 57142  1  0  0  0
 58143  1  0  0  0
 59 60  1  0  0  0
 59 61  1  0  0  0
 59 62  1  0  0  0
 60144  1  0  0  0
 60145  1  0  0  0
 60146  1  0  0  0
 61147  1  0  0  0
 61148  1  0  0  0
 61149  1  0  0  0
 62150  1  0  0  0
 62151  1  0  0  0
 62152  1  0  0  0
 63 65  1  0  0  0
 63153  1  0  0  0
 63154  1  0  0  0
 63155  1  0  0  0
 64156  1  0  0  0
 65157  1  0  0  0
 68 92  1  0  0  0
 71 73  2  0  0  0
 71 75  1  0  0  0
 71158  1  0  0  0
 72 74  1  0  0  0
 72 75  2  0  0  0
 72159  1  0  0  0
 73 76  1  0  0  0
 73160  1  0  0  0
 74 76  2  0  0  0
 74161  1  0  0  0
 75 94  1  0  0  0
 76 96  1  0  0  0
 77 78  2  0  0  0
 77162  1  0  0  0
 77163  1  0  0  0
 78 82  1  0  0  0
 78164  1  0  0  0
 79 83  1  0  0  0
 79 95  1  0  0  0
 79 98  2  0  0  0
 80165  1  0  0  0
 80166  1  0  0  0
 80167  1  0  0  0
 80 97  1  0  0  0
 81 97  1  0  0  0
 81168  1  0  0  0
 81169  1  0  0  0
 81170  1  0  0  0
 82 96  1  0  0  0
 82171  1  0  0  0
 82172  1  0  0  0
 83 84  1  0  0  0
 83173  1  0  0  0
 83174  1  0  0  0
 84 92  1  0  0  0
 84175  1  0  0  0
 84176  1  0  0  0
 85 86  1  0  0  0
 85 87  1  0  0  0
 85177  1  0  0  0
 85178  1  0  0  0
 86 88  1  0  0  0
 86179  1  0  0  0
 86180  1  0  0  0
 87 89  1  0  0  0
 87181  1  0  0  0
 87182  1  0  0  0
 88 91  1  0  0  0
 88183  1  0  0  0
 88184  1  0  0  0
 89185  1  0  0  0
 89186  1  0  0  0
 89 93  1  0  0  0
 90 93  1  0  0  0
 90 96  1  0  0  0
 90187  1  0  0  0
 90188  1  0  0  0
 91 97  1  0  0  0
 91189  1  0  0  0
 91190  1  0  0  0
 92191  1  0  0  0
 92192  1  0  0  0
 93 95  1  0  0  0
 93193  1  0  0  0
 94194  1  0  0  0
 95195  1  0  0  0
 97196  1  0  0  0
M  CHG  1  97   1
M  ISO  4   1 100  68 101  92 101  94 100
M  END
> <chiral flag>
0

> <version>
0

> <s_m_source_file>
/data/baiqing/PycharmProjects/Reinvent-master-3.2/result/LINK_invent/BTK/process_docking_weight1_custom_sum_contain_oxygen_bond_distance_aromatic_linkinvent_7_9_3/rearranged_h_0005.sdf

> <i_m_source_file_index>
90

> <r_mmod_Potential_Energy-OPLS-2005>
10210.951171875

> <r_mmod_Stretch_Energy-OPLS-2005>
5938.75732421875

> <r_mmod_Bend_Energy-OPLS-2005>
465.826141357422

> <r_mmod_Torsional_Energy-OPLS-2005>
489.777587890625

> <r_mmod_Improper_Torsional_Energy-OPLS-2005>
33.8795776367188

> <r_mmod_Van_der_Waal_Energy-OPLS-2005>
3243.87670898438

> <r_mmod_Electrostatic_Energy-OPLS-2005>
-427.018218994141

> <r_mmod_Solvation_Energy-OPLS-2005>
-426.092315673828

> <b_mmod_Minimization_Converged-OPLS-2005>
0

> <r_mmod_RMS_Derivative-OPLS-2005>
10.2161340713501

$$$$
92
                    3D
 Structure written by MMmdl.
188197  0  0  1  0            999 V2000
  -30.0035  -15.5094   20.5509 C   0  0  0  0  0  0
  -30.4164  -13.0276   19.6500 C   0  0  0  0  0  0
  -29.5908  -12.6645   18.3831 C   0  0  0  0  0  0
  -28.1477  -12.2774   18.7681 C   0  0  0  0  0  0
  -27.5806  -13.2623   19.8114 C   0  0  2  0  0  0
  -28.5215  -13.4558   21.0073 C   0  0  0  0  0  0
  -25.2226  -13.8196   20.5572 C   0  0  0  0  0  0
  -24.1668  -13.0360   20.9204 C   0  0  0  0  0  0
  -24.6332  -11.6865   20.8699 C   0  0  0  0  0  0
  -23.9030  -10.4256   21.0391 C   0  0  0  0  0  0
  -24.3636   -9.4166   21.9132 C   0  0  0  0  0  0
  -23.6297   -8.2216   22.0724 C   0  0  0  0  0  0
  -22.4252   -8.0287   21.3531 C   0  0  0  0  0  0
  -21.9901   -9.0244   20.4606 C   0  0  0  0  0  0
  -22.7239  -10.2090   20.2995 C   0  0  0  0  0  0
  -21.6828   -6.0739   22.5308 C   0  0  0  0  0  0
  -21.3994   -6.5637   23.8252 C   0  0  0  0  0  0
  -21.3656   -5.6765   24.9203 C   0  0  0  0  0  0
  -21.6056   -4.3041   24.7250 C   0  0  0  0  0  0
  -21.8818   -3.8155   23.4378 C   0  0  0  0  0  0
  -21.9188   -4.6972   22.3436 C   0  0  0  0  0  0
  -22.7709  -13.5141   21.1893 C   0  0  0  0  0  0
  -22.1649   -4.2214   21.0991 F   0  0  0  0  0  0
  -21.5631   -3.4506   25.7731 F   0  0  0  0  0  0
  -29.6968  -14.1083   20.4600 N   0  0  0  0  0  0
  -26.2514  -12.9400   20.2788 N   0  0  0  0  0  0
  -25.9173  -11.6519   20.5443 N   0  0  0  0  0  0
  -22.0346  -12.8191   22.0508 N   0  0  0  0  0  0
  -25.3799  -15.1959   20.4101 N   0  0  0  0  0  0
  -31.2113  -15.6484   20.2443 O   0  0  0  0  0  0
  -21.6587   -6.8894   21.4265 O   0  0  0  0  0  0
  -22.3414  -14.5468   20.6733 O   0  0  0  0  0  0
  -24.5897  -31.7492   23.3130 C   0  0  0  0  0  0
  -25.8784  -32.4408   23.8544 C   0  0  1  0  0  0
  -27.6882  -27.5447   20.0252 C   0  0  0  0  0  0
  -25.5751  -33.8359   24.2224 N   0  0  0  0  0  0
  -23.1882  -29.8095   22.0210 C   0  0  2  0  0  0
  -25.5932  -28.8062   18.9694 C   0  0  0  0  0  0
  -22.5601  -29.1829   23.1092 C   0  0  0  0  0  0
  -17.9112  -28.1270   22.8878 C   0  0  0  0  0  0
  -24.1528  -36.7107   23.2600 C   0  0  0  0  0  0
  -26.0883  -30.7535   21.3820 C   0  0  0  0  0  0
  -26.4981  -29.6898   19.9715 C   0  0  0  0  0  0
  -27.6012  -28.9084   20.3646 C   0  0  0  0  0  0
  -26.7909  -26.8313   19.2474 C   0  0  0  0  0  0
  -25.8727  -27.5357   18.5651 C   0  0  0  0  0  0
  -23.9709  -28.3500   19.1885 C   0  0  0  0  0  0
  -25.4137  -36.2892   24.0304 C   0  0  1  0  0  0
  -20.3722  -28.2357   23.4796 C   0  0  2  0  0  0
  -20.4661  -26.7900   22.9542 C   0  0  0  0  0  0
  -19.4815  -26.4244   21.8216 C   0  0  0  0  0  0
  -18.0580  -26.7537   22.2518 C   0  0  0  0  0  0
  -19.0080  -28.8464   23.4089 C   0  0  0  0  0  0
  -18.8328  -30.1385   23.9487 C   0  0  0  0  0  0
  -17.5474  -30.6961   24.0284 C   0  0  0  0  0  0
  -25.9025  -34.9214   23.5067 C   0  0  0  0  0  0
  -16.4418  -29.9520   23.5770 C   0  0  0  0  0  0
  -16.6268  -28.6816   23.0003 C   0  0  0  0  0  0
  -26.4507  -31.6627   25.1023 C   0  0  0  0  0  0
  -25.3827  -31.3844   26.1912 C   0  0  0  0  0  0
  -27.0592  -30.3004   24.6877 C   0  0  0  0  0  0
  -27.5962  -32.4709   25.7540 C   0  0  0  0  0  0
  -27.5596  -37.1620   24.8480 C   0  0  0  0  0  0
  -21.2642  -29.1353   22.8718 N   0  0  0  0  0  0
  -26.4318  -37.3570   23.9394 N   0  0  0  0  0  0
  -24.6555  -30.7692   22.3760 N   0  0  0  0  0  0
  -23.2226  -28.6228   23.9521 O   0  0  0  0  0  0
  -28.7147  -26.8347   20.4745 O   0  0  0  0  0  0
  -26.5635  -34.8646   22.4678 O   0  0  0  0  0  0
  -23.5044  -32.0942   23.7915 O   0  0  0  0  0  0
  -26.9941  -20.9868   23.4784 C   0  0  0  0  0  0
  -27.5716  -19.8952   22.7612 C   0  0  0  0  0  0
  -26.4212  -22.1693   22.9221 C   0  0  0  0  0  0
  -24.8025  -28.5588   21.2250 C   0  0  0  0  0  0
  -24.0235  -30.3056   20.0896 C   0  0  0  0  0  0
  -27.0392  -21.2130   20.8219 C   0  0  0  0  0  0
  -27.6943  -19.8342   21.3454 C   0  0  0  0  0  0
  -26.3426  -22.4748   21.5351 C   0  0  0  0  0  0
  -24.1387  -27.1250   21.3681 C   0  0  0  0  0  0
  -22.4455  -30.0338   19.7823 C   0  0  0  0  0  0
  -22.6223  -27.3171   20.9213 C   0  0  0  0  0  0
  -21.8418  -28.6028   20.2498 C   0  0  0  0  0  0
  -25.9993  -26.0788   22.7492 C   0  0  0  0  0  0
  -31.2503  -28.3835   24.5600 C   0  0  0  0  0  0
  -28.6618  -18.3955   20.6380 C   0  0  0  0  0  0
  -25.4494  -24.0724   21.0832 C   0  0  0  0  0  0
  -27.2927  -25.3114   23.1065 C   0  0  0  0  0  0
  -30.6943  -27.2170   23.7214 C   0  0  0  0  0  0
  -30.2837  -24.6142   21.1903 C   0  0  0  0  0  0
  -30.0885  -25.1627   19.7312 C   0  0  0  0  0  0
  -29.1421  -26.9780   23.7483 C   0  0  0  0  0  0
  -29.6216  -24.7408   22.6089 C   0  0  0  0  0  0
  -29.8230  -26.6687   19.6179 C   0  0  0  0  0  0
  -29.0036  -16.6696   20.8533 N   0  0  0  0  0  0
  -25.1114  -25.7151   21.7350 N   0  0  0  0  0  0
  -28.6575  -25.8848   22.8333 N   0  3  1  0  0  0
  -25.7877  -27.0143   23.5259 O   0  0  0  0  0  0
  -21.6636  -30.9645   19.1904 F   0  0  0  0  0  0
  -21.9831  -26.1328   20.7472 F   0  0  0  0  0  0
  -20.5895  -28.4368   19.8140 F   0  0  0  0  0  0
  -31.4136  -13.3539   19.3543 H   0  0  0  0  0  0
  -30.5894  -12.1526   20.2772 H   0  0  0  0  0  0
  -30.0869  -11.8764   17.8204 H   0  0  0  0  0  0
  -29.5765  -13.5299   17.7169 H   0  0  0  0  0  0
  -28.1671  -11.2850   19.2124 H   0  0  0  0  0  0
  -27.5235  -12.2116   17.8822 H   0  0  0  0  0  0
  -27.4991  -14.1996   19.2564 H   0  0  0  0  0  0
  -28.7648  -12.5172   21.5141 H   0  0  0  0  0  0
  -28.0626  -14.1243   21.7404 H   0  0  0  0  0  0
  -25.2832   -9.5636   22.4637 H   0  0  0  0  0  0
  -24.0022   -7.4622   22.7473 H   0  0  0  0  0  0
  -21.0812   -8.8762   19.8964 H   0  0  0  0  0  0
  -22.3744  -10.9585   19.6082 H   0  0  0  0  0  0
  -21.1917   -7.6144   23.9798 H   0  0  0  0  0  0
  -21.1473   -6.0470   25.9120 H   0  0  0  0  0  0
  -22.0593   -2.7637   23.2838 H   0  0  0  0  0  0
  -22.3910  -11.9899   22.5065 H   0  0  0  0  0  0
  -21.0923  -13.1240   22.2579 H   0  0  0  0  0  0
  -24.5659  -15.7974   20.4562 H   0  0  0  0  0  0
  -26.1847  -15.6694   20.0271 H   0  0  0  0  0  0
  -26.6688  -32.4754   23.1107 H   0  0  0  0  0  0
  -25.0217  -33.9727   25.0567 H   0  0  0  0  0  0
  -22.5486  -30.7083   21.9561 H   0  0  0  0  0  0
  -23.3859  -35.9383   23.3223 H   0  0  0  0  0  0
  -24.3667  -36.8721   22.2032 H   0  0  0  0  0  0
  -23.7212  -37.6243   23.6652 H   0  0  0  0  0  0
  -26.2695  -31.7667   21.0377 H   0  0  0  0  0  0
  -26.9138  -30.5883   22.0642 H   0  0  0  0  0  0
  -28.3181  -29.3031   21.0716 H   0  0  0  0  0  0
  -26.9561  -25.7910   19.0132 H   0  0  0  0  0  0
  -25.3046  -26.9887   17.8226 H   0  0  0  0  0  0
  -23.5461  -28.7293   18.2403 H   0  0  0  0  0  0
  -23.7072  -27.2990   18.9588 H   0  0  0  0  0  0
  -25.1275  -36.1726   25.0787 H   0  0  0  0  0  0
  -20.6294  -28.2027   24.5382 H   0  0  0  0  0  0
  -20.1158  -26.1793   23.7896 H   0  0  0  0  0  0
  -21.4892  -26.4285   22.8890 H   0  0  0  0  0  0
  -19.5543  -25.3558   21.5980 H   0  0  0  0  0  0
  -19.6493  -26.9101   20.8829 H   0  0  0  0  0  0
  -17.3868  -26.6736   21.3948 H   0  0  0  0  0  0
  -17.7215  -26.0133   22.9787 H   0  0  0  0  0  0
  -19.6716  -30.7032   24.3365 H   0  0  0  0  0  0
  -17.3940  -31.6782   24.4526 H   0  0  0  0  0  0
  -15.4431  -30.3634   23.6444 H   0  0  0  0  0  0
  -15.7678  -28.1317   22.6377 H   0  0  0  0  0  0
  -24.6042  -30.7036   25.8518 H   0  0  0  0  0  0
  -24.8933  -32.3024   26.5152 H   0  0  0  0  0  0
  -25.8246  -30.9283   27.0804 H   0  0  0  0  0  0
  -26.3537  -29.6501   24.1751 H   0  0  0  0  0  0
  -27.3951  -29.7422   25.5630 H   0  0  0  0  0  0
  -27.9380  -30.4314   24.0564 H   0  0  0  0  0  0
  -27.2421  -33.4053   26.1969 H   0  0  0  0  0  0
  -28.3659  -32.7298   25.0244 H   0  0  0  0  0  0
  -28.0856  -31.9126   26.5545 H   0  0  0  0  0  0
  -28.2471  -38.0004   24.7543 H   0  0  0  0  0  0
  -28.1183  -36.2503   24.6323 H   0  0  0  0  0  0
  -27.2288  -37.1277   25.8854 H   0  0  0  0  0  0
  -20.8958  -29.6326   22.0706 H   0  0  0  0  0  0
  -26.0205  -38.2636   24.1407 H   0  0  0  0  0  0
  -27.0003  -20.9252   24.5568 H   0  0  0  0  0  0
  -27.9590  -19.0911   23.3628 H   0  0  0  0  0  0
  -26.0393  -22.8725   23.6440 H   0  0  0  0  0  0
  -25.7199  -28.5237   21.7869 H   0  0  0  0  0  0
  -24.4393  -31.2799   19.8323 H   0  0  0  0  0  0
  -27.0979  -21.3322   19.7495 H   0  0  0  0  0  0
  -32.3224  -28.5214   24.3542 H   0  0  0  0  0  0
  -31.1657  -28.1933   25.6394 H   0  0  0  0  0  0
  -30.7333  -29.3122   24.3110 H   0  0  0  0  0  0
  -29.6823  -18.7856   20.6839 H   0  0  0  0  0  0
  -28.4243  -18.4311   19.5767 H   0  0  0  0  0  0
  -24.4609  -23.6864   20.8347 H   0  0  0  0  0  0
  -25.8483  -24.2826   20.0962 H   0  0  0  0  0  0
  -27.2882  -24.4425   22.5070 H   0  0  0  0  0  0
  -27.2366  -24.9836   24.1442 H   0  0  0  0  0  0
  -31.2348  -26.3580   24.1145 H   0  0  0  0  0  0
  -31.0406  -27.3392   22.6961 H   0  0  0  0  0  0
  -29.2102  -24.6121   21.0148 H   0  0  0  0  0  0
  -30.9452  -25.4378   21.4335 H   0  0  0  0  0  0
  -29.3259  -24.6254   19.1481 H   0  0  0  0  0  0
  -31.0112  -24.9621   19.1888 H   0  0  0  0  0  0
  -28.6405  -27.9063   23.4559 H   0  0  0  0  0  0
  -28.8300  -26.7782   24.7736 H   0  0  0  0  0  0
  -30.3730  -24.6971   23.3840 H   0  0  0  0  0  0
  -29.1646  -23.7771   22.8416 H   0  0  0  0  0  0
  -29.6377  -26.9733   18.5795 H   0  0  0  0  0  0
  -30.6669  -27.2538   19.9950 H   0  0  0  0  0  0
  -28.1950  -16.2531   21.2918 H   0  0  0  0  0  0
  -28.6003  -26.3364   21.9209 H   0  0  0  0  0  0
  1 25  1  0  0  0
  1 30  2  0  0  0
  1 94  1  0  0  0
  2  3  1  0  0  0
  2 25  1  0  0  0
  2101  1  0  0  0
  2102  1  0  0  0
  3  4  1  0  0  0
  3103  1  0  0  0
  3104  1  0  0  0
  4  5  1  0  0  0
  4105  1  0  0  0
  4106  1  0  0  0
  5  6  1  0  0  0
  5 26  1  0  0  0
  5107  1  0  0  0
  6 25  1  0  0  0
  6108  1  0  0  0
  6109  1  0  0  0
  7  8  2  0  0  0
  7 26  1  0  0  0
  7 29  1  0  0  0
  8  9  1  0  0  0
  8 22  1  0  0  0
  9 10  1  0  0  0
  9 27  2  0  0  0
 10 11  2  0  0  0
 10 15  1  0  0  0
 11 12  1  0  0  0
 11110  1  0  0  0
 12 13  2  0  0  0
 12111  1  0  0  0
 13 14  1  0  0  0
 13 31  1  0  0  0
 14 15  2  0  0  0
 14112  1  0  0  0
 15113  1  0  0  0
 16 17  2  0  0  0
 16 21  1  0  0  0
 16 31  1  0  0  0
 17 18  1  0  0  0
 17114  1  0  0  0
 18 19  2  0  0  0
 18115  1  0  0  0
 19 20  1  0  0  0
 19 24  1  0  0  0
 20 21  2  0  0  0
 20116  1  0  0  0
 21 23  1  0  0  0
 22 28  1  0  0  0
 22 32  2  0  0  0
 26 27  1  0  0  0
 28117  1  0  0  0
 28118  1  0  0  0
 29119  1  0  0  0
 29120  1  0  0  0
 33 34  1  0  0  0
 33 66  1  0  0  0
 33 70  2  0  0  0
 34 36  1  0  0  0
 34 59  1  0  0  0
 34121  1  0  0  0
 35 44  2  0  0  0
 35 45  1  0  0  0
 35 68  1  0  0  0
 36 56  1  0  0  0
 36122  1  0  0  0
 37 39  1  0  0  0
 37 47  1  0  0  0
 37 66  1  0  0  0
 37123  1  0  0  0
 38 43  2  0  0  0
 38 46  1  0  0  0
 38 47  1  0  0  0
 39 64  1  0  0  0
 39 67  2  0  0  0
 40 52  1  0  0  0
 40 53  2  0  0  0
 40 58  1  0  0  0
 41124  1  0  0  0
 41125  1  0  0  0
 41126  1  0  0  0
 41 48  1  0  0  0
 42 43  1  0  0  0
 42 66  1  0  0  0
 42127  1  0  0  0
 42128  1  0  0  0
 43 44  1  0  0  0
 44129  1  0  0  0
 45 46  2  0  0  0
 45130  1  0  0  0
 46131  1  0  0  0
 47132  1  0  0  0
 47133  1  0  0  0
 48 56  1  0  0  0
 48 65  1  0  0  0
 48134  1  0  0  0
 49 50  1  0  0  0
 49 53  1  0  0  0
 49 64  1  0  0  0
 49135  1  0  0  0
 50 51  1  0  0  0
 50136  1  0  0  0
 50137  1  0  0  0
 51 52  1  0  0  0
 51138  1  0  0  0
 51139  1  0  0  0
 52140  1  0  0  0
 52141  1  0  0  0
 53 54  1  0  0  0
 54 55  2  0  0  0
 54142  1  0  0  0
 55 57  1  0  0  0
 55143  1  0  0  0
 56 69  2  0  0  0
 57 58  2  0  0  0
 57144  1  0  0  0
 58145  1  0  0  0
 59 60  1  0  0  0
 59 61  1  0  0  0
 59 62  1  0  0  0
 60146  1  0  0  0
 60147  1  0  0  0
 60148  1  0  0  0
 61149  1  0  0  0
 61150  1  0  0  0
 61151  1  0  0  0
 62152  1  0  0  0
 62153  1  0  0  0
 62154  1  0  0  0
 63 65  1  0  0  0
 63155  1  0  0  0
 63156  1  0  0  0
 63157  1  0  0  0
 64158  1  0  0  0
 65159  1  0  0  0
 68 93  1  0  0  0
 71 72  2  0  0  0
 71 73  1  0  0  0
 71160  1  0  0  0
 72 77  1  0  0  0
 72161  1  0  0  0
 73 78  2  0  0  0
 73162  1  0  0  0
 74 75  2  0  0  0
 74 79  1  0  0  0
 74163  1  0  0  0
 75 80  1  0  0  0
 75164  1  0  0  0
 76 77  2  0  0  0
 76 78  1  0  0  0
 76165  1  0  0  0
 77 85  1  0  0  0
 78 86  1  0  0  0
 79 81  2  0  0  0
 79 95  1  0  0  0
 80 82  2  0  0  0
 80 98  1  0  0  0
 81 82  1  0  0  0
 81 99  1  0  0  0
 82100  1  0  0  0
 83 87  1  0  0  0
 83 95  1  0  0  0
 83 97  2  0  0  0
 84 88  1  0  0  0
 84166  1  0  0  0
 84167  1  0  0  0
 84168  1  0  0  0
 85 94  1  0  0  0
 85169  1  0  0  0
 85170  1  0  0  0
 86 95  1  0  0  0
 86171  1  0  0  0
 86172  1  0  0  0
 87173  1  0  0  0
 87174  1  0  0  0
 87 96  1  0  0  0
 88 91  1  0  0  0
 88175  1  0  0  0
 88176  1  0  0  0
 89 90  1  0  0  0
 89 92  1  0  0  0
 89177  1  0  0  0
 89178  1  0  0  0
 90 93  1  0  0  0
 90179  1  0  0  0
 90180  1  0  0  0
 91 96  1  0  0  0
 91181  1  0  0  0
 91182  1  0  0  0
 92 96  1  0  0  0
 92183  1  0  0  0
 92184  1  0  0  0
 93185  1  0  0  0
 93186  1  0  0  0
 94187  1  0  0  0
 96188  1  0  0  0
M  CHG  1  96   1
M  ISO  4   1 100  68 101  93 101  94 100
M  END
> <chiral flag>
0

> <version>
0

> <s_m_source_file>
/data/baiqing/PycharmProjects/Reinvent-master-3.2/result/LINK_invent/BTK/process_docking_weight1_custom_sum_contain_oxygen_bond_distance_aromatic_linkinvent_7_9_3/rearranged_h_0005.sdf

> <i_m_source_file_index>
91

> <r_mmod_Potential_Energy-OPLS-2005>
12871.8466796875

> <r_mmod_Stretch_Energy-OPLS-2005>
7039.77197265625

> <r_mmod_Bend_Energy-OPLS-2005>
1277.08239746094

> <r_mmod_Torsional_Energy-OPLS-2005>
513.81103515625

> <r_mmod_Improper_Torsional_Energy-OPLS-2005>
41.9557952880859

> <r_mmod_Van_der_Waal_Energy-OPLS-2005>
3023.58325195312

> <r_mmod_Electrostatic_Energy-OPLS-2005>
-373.087249755859

> <r_mmod_Solvation_Energy-OPLS-2005>
-407.617614746094

> <b_mmod_Minimization_Converged-OPLS-2005>
0

> <r_mmod_RMS_Derivative-OPLS-2005>
22.7549076080322

$$$$
93
                    3D
 Structure written by MMmdl.
200208  0  0  1  0            999 V2000
  -31.3440  -13.4657   20.9166 C   0  0  0  0  0  0
  -31.1093  -13.7823   18.9186 C   0  0  0  0  0  0
  -29.1943  -11.7510   17.3181 C   0  0  0  0  0  0
  -27.5100  -11.9399   18.2334 C   0  0  0  0  0  0
  -27.3272  -13.0891   19.7427 C   0  0  2  0  0  0
  -28.6592  -13.9296   20.8140 C   0  0  0  0  0  0
  -25.1745  -13.7921   20.7002 C   0  0  0  0  0  0
  -24.1095  -13.0200   21.0113 C   0  0  0  0  0  0
  -24.5658  -11.6638   20.9550 C   0  0  0  0  0  0
  -23.8605  -10.4054   21.0723 C   0  0  0  0  0  0
  -24.3342   -9.3972   21.9349 C   0  0  0  0  0  0
  -23.6142   -8.1955   22.0732 C   0  0  0  0  0  0
  -22.4147   -8.0066   21.3483 C   0  0  0  0  0  0
  -21.9752   -9.0033   20.4593 C   0  0  0  0  0  0
  -22.6943  -10.1950   20.3160 C   0  0  0  0  0  0
  -21.6738   -6.0696   22.5284 C   0  0  0  0  0  0
  -21.3905   -6.5612   23.8224 C   0  0  0  0  0  0
  -21.3664   -5.6788   24.9195 C   0  0  0  0  0  0
  -21.6039   -4.3059   24.7244 C   0  0  0  0  0  0
  -21.8816   -3.8137   23.4367 C   0  0  0  0  0  0
  -21.9141   -4.6941   22.3410 C   0  0  0  0  0  0
  -22.7181  -13.5108   21.2225 C   0  0  0  0  0  0
  -22.1638   -4.2131   21.0993 F   0  0  0  0  0  0
  -21.5654   -3.4538   25.7764 F   0  0  0  0  0  0
  -30.3394  -14.1630   20.3928 N   0  0  0  0  0  0
  -26.1663  -12.8696   20.4526 N   0  0  0  0  0  0
  -25.8512  -11.5981   20.6871 N   0  0  0  0  0  0
  -21.9664  -12.8140   22.0608 N   0  0  0  0  0  0
  -25.3595  -15.1661   20.5228 N   0  0  0  0  0  0
  -32.3319  -14.1845   21.0968 O   0  0  0  0  0  0
  -21.6477   -6.8735   21.4210 O   0  0  0  0  0  0
  -22.3140  -14.5451   20.6886 O   0  0  0  0  0  0
  -24.6107  -31.8706   23.2130 C   0  0  0  0  0  0
  -25.9017  -32.4842   23.8410 C   0  0  1  0  0  0
  -27.2589  -27.4806   20.0663 C   0  0  0  0  0  0
  -25.5896  -33.8640   24.2353 N   0  0  0  0  0  0
  -23.3996  -30.4898   21.5543 C   0  0  2  0  0  0
  -24.8518  -28.9556   20.1262 C   0  0  0  0  0  0
  -22.7390  -29.4666   22.5037 C   0  0  0  0  0  0
  -18.0261  -28.1389   22.8499 C   0  0  0  0  0  0
  -24.1495  -36.7326   23.2635 C   0  0  0  0  0  0
  -25.9246  -30.8470   21.3614 C   0  0  0  0  0  0
  -26.0083  -29.4787   20.7186 C   0  0  0  0  0  0
  -27.2135  -28.7447   20.7001 C   0  0  0  0  0  0
  -26.0883  -26.9683   19.4769 C   0  0  0  0  0  0
  -24.8816  -27.6913   19.5104 C   0  0  0  0  0  0
  -23.6095  -29.8135   20.1732 C   0  0  0  0  0  0
  -25.4109  -36.3120   24.0341 C   0  0  1  0  0  0
  -20.5850  -28.3674   23.1349 C   0  0  2  0  0  0
  -20.6769  -26.9421   22.5434 C   0  0  0  0  0  0
  -19.5747  -26.6400   21.5232 C   0  0  0  0  0  0
  -18.1914  -26.7940   22.1629 C   0  0  0  0  0  0
  -19.1507  -28.8846   23.2920 C   0  0  0  0  0  0
  -18.9439  -30.1453   23.8927 C   0  0  0  0  0  0
  -17.6443  -30.6597   24.0574 C   0  0  0  0  0  0
  -25.9034  -34.9485   23.5144 C   0  0  0  0  0  0
  -16.5335  -29.9101   23.6327 C   0  0  0  0  0  0
  -16.7250  -28.6521   23.0340 C   0  0  0  0  0  0
  -26.4472  -31.6588   25.0701 C   0  0  0  0  0  0
  -25.3753  -31.3686   26.1453 C   0  0  0  0  0  0
  -27.0299  -30.3036   24.6032 C   0  0  0  0  0  0
  -27.6065  -32.4298   25.7437 C   0  0  0  0  0  0
  -27.5593  -37.1792   24.8455 C   0  0  0  0  0  0
  -21.4121  -29.3033   22.3750 N   0  0  0  0  0  0
  -26.4293  -37.3803   23.9421 N   0  0  0  0  0  0
  -24.6632  -31.0813   22.1033 N   0  0  0  0  0  0
  -23.4151  -28.8213   23.3083 O   0  0  0  0  0  0
  -28.4118  -26.7433   19.9272 O   0  0  0  0  0  0
  -26.5592  -34.8929   22.4701 O   0  0  0  0  0  0
  -23.5307  -32.1441   23.7546 O   0  0  0  0  0  0
  -29.5595  -12.2118   19.4068 C   0  0  0  0  0  0
  -31.6202  -11.6677   17.8365 C   0  0  0  0  0  0
  -29.0726  -13.8169   18.1302 C   0  0  0  0  0  0
  -31.2812  -12.7802   16.7112 C   0  0  0  0  0  0
  -30.8683  -11.4690   19.2397 C   0  0  0  0  0  0
  -30.0818  -13.8770   16.7922 C   0  0  0  0  0  0
  -31.8351  -25.0234   19.2666 C   0  0  0  0  0  0
  -28.3137  -15.1833   18.2483 C   0  0  0  0  0  0
  -32.1090  -12.7518   15.4382 C   0  0  0  0  0  0
  -36.1300  -22.8749   16.1944 C   0  0  0  0  0  0
  -35.8830  -23.3744   18.5765 C   0  0  0  0  0  0
  -32.4901  -24.8830   17.8826 C   0  0  0  0  0  0
  -33.8896  -25.5516   17.8165 C   0  0  0  0  0  0
  -30.7518  -19.5570   17.3159 C   0  0  0  0  0  0
  -30.2103  -21.0117   17.4062 C   0  0  0  0  0  0
  -30.0715  -18.6304   16.2609 C   0  0  0  0  0  0
  -30.8104  -21.8403   18.5744 C   0  0  0  0  0  0
  -30.5709  -17.1508   16.2684 C   0  0  0  0  0  0
  -29.1695  -25.0156   21.4153 C   0  0  0  0  0  0
  -30.1544  -23.2445   18.7056 C   0  0  0  0  0  0
  -30.3891  -24.1338   21.0367 C   0  0  0  0  0  0
  -34.8867  -24.8828   16.8520 C   0  0  0  0  0  0
  -29.5835  -16.1134   15.6586 C   0  0  0  0  0  0
  -29.2010  -26.5273   21.0889 C   0  0  0  0  0  0
  -31.4661  -12.0592   20.5318 N   0  0  0  0  0  0
  -30.8333  -24.1806   19.6300 N   0  0  0  0  0  0
  -35.2723  -23.4938   17.2293 N   0  3  0  0  0  0
  -32.2900  -25.8738   20.0398 O   0  0  0  0  0  0
  -30.0619  -14.7497   15.6962 O   0  0  0  0  0  0
  -31.1808  -14.8332   18.5871 H   0  0  0  0  0  0
  -32.2172  -13.6954   18.8152 H   0  0  0  0  0  0
  -29.4363  -10.6798   17.3683 H   0  0  0  0  0  0
  -29.0005  -11.8612   16.2392 H   0  0  0  0  0  0
  -27.2073  -10.9287   18.5123 H   0  0  0  0  0  0
  -26.7546  -12.2403   17.5050 H   0  0  0  0  0  0
  -26.8191  -13.8086   19.1272 H   0  0  0  0  0  0
  -28.6869  -13.3889   21.7580 H   0  0  0  0  0  0
  -28.2987  -14.9038   21.1427 H   0  0  0  0  0  0
  -25.2368   -9.5521   22.5098 H   0  0  0  0  0  0
  -23.9869   -7.4306   22.7380 H   0  0  0  0  0  0
  -21.0721   -8.8505   19.8881 H   0  0  0  0  0  0
  -22.3347  -10.9598   19.6422 H   0  0  0  0  0  0
  -21.1852   -7.6098   23.9711 H   0  0  0  0  0  0
  -21.1509   -6.0518   25.9097 H   0  0  0  0  0  0
  -22.0611   -2.7594   23.2845 H   0  0  0  0  0  0
  -22.3238  -11.9920   22.5270 H   0  0  0  0  0  0
  -21.0197  -13.1102   22.2487 H   0  0  0  0  0  0
  -24.5920  -15.8156   20.6459 H   0  0  0  0  0  0
  -26.2214  -15.6151   20.2447 H   0  0  0  0  0  0
  -26.7107  -32.5568   23.1201 H   0  0  0  0  0  0
  -25.0058  -33.9816   25.0503 H   0  0  0  0  0  0
  -22.6859  -31.3031   21.4096 H   0  0  0  0  0  0
  -23.3773  -35.9636   23.3251 H   0  0  0  0  0  0
  -24.3624  -36.8986   22.2063 H   0  0  0  0  0  0
  -23.7211  -37.6504   23.6678 H   0  0  0  0  0  0
  -26.0182  -31.6071   20.5849 H   0  0  0  0  0  0
  -26.8213  -30.9184   21.9657 H   0  0  0  0  0  0
  -28.1091  -29.1656   21.1335 H   0  0  0  0  0  0
  -26.1230  -26.0106   18.9785 H   0  0  0  0  0  0
  -23.9973  -27.2750   19.0486 H   0  0  0  0  0  0
  -23.7088  -30.5822   19.4057 H   0  0  0  0  0  0
  -22.7404  -29.2186   19.8875 H   0  0  0  0  0  0
  -25.1273  -36.1993   25.0832 H   0  0  0  0  0  0
  -20.9932  -28.3250   24.1475 H   0  0  0  0  0  0
  -20.5708  -26.2280   23.3611 H   0  0  0  0  0  0
  -21.6635  -26.7490   22.1202 H   0  0  0  0  0  0
  -19.6916  -25.6314   21.1248 H   0  0  0  0  0  0
  -19.6696  -27.3228   20.6776 H   0  0  0  0  0  0
  -17.4194  -26.6694   21.4023 H   0  0  0  0  0  0
  -18.0305  -26.0075   22.9016 H   0  0  0  0  0  0
  -19.7914  -30.7261   24.2310 H   0  0  0  0  0  0
  -17.5000  -31.6280   24.5175 H   0  0  0  0  0  0
  -15.5337  -30.3015   23.7645 H   0  0  0  0  0  0
  -15.8645  -28.0861   22.7030 H   0  0  0  0  0  0
  -24.5901  -30.7074   25.7775 H   0  0  0  0  0  0
  -24.8971  -32.2845   26.4932 H   0  0  0  0  0  0
  -25.8098  -30.8805   27.0180 H   0  0  0  0  0  0
  -26.2822  -29.6769   24.1156 H   0  0  0  0  0  0
  -27.4180  -29.7284   25.4447 H   0  0  0  0  0  0
  -27.8600  -30.4377   23.9093 H   0  0  0  0  0  0
  -27.2706  -33.3591   26.2046 H   0  0  0  0  0  0
  -28.3831  -32.6867   25.0221 H   0  0  0  0  0  0
  -28.0780  -31.8396   26.5302 H   0  0  0  0  0  0
  -28.2572  -38.0130   24.7569 H   0  0  0  0  0  0
  -28.1125  -36.2662   24.6188 H   0  0  0  0  0  0
  -27.2328  -37.1334   25.8861 H   0  0  0  0  0  0
  -20.9280  -29.8712   21.6939 H   0  0  0  0  0  0
  -26.0183  -38.2872   24.1463 H   0  0  0  0  0  0
  -29.1052  -11.7992   20.3078 H   0  0  0  0  0  0
  -32.5134  -11.0830   17.6767 H   0  0  0  0  0  0
  -27.9337  -15.5435   19.1939 H   0  0  0  0  0  0
  -27.4860  -15.2125   17.5393 H   0  0  0  0  0  0
  -28.9942  -15.9963   18.0457 H   0  0  0  0  0  0
  -32.6391  -11.8029   15.3321 H   0  0  0  0  0  0
  -32.8290  -13.5714   15.4240 H   0  0  0  0  0  0
  -31.4558  -12.8471   14.5695 H   0  0  0  0  0  0
  -36.3326  -21.8295   16.4291 H   0  0  0  0  0  0
  -37.0843  -23.3981   16.1172 H   0  0  0  0  0  0
  -35.6462  -22.9049   15.2178 H   0  0  0  0  0  0
  -36.2122  -22.3519   18.7657 H   0  0  0  0  0  0
  -35.1762  -23.6231   19.3684 H   0  0  0  0  0  0
  -36.7509  -24.0275   18.6757 H   0  0  0  0  0  0
  -31.8273  -25.3026   17.1250 H   0  0  0  0  0  0
  -32.5816  -23.8258   17.6494 H   0  0  0  0  0  0
  -34.3595  -25.6158   18.7985 H   0  0  0  0  0  0
  -33.7514  -26.5902   17.5112 H   0  0  0  0  0  0
  -30.6197  -19.1023   18.2975 H   0  0  0  0  0  0
  -31.8297  -19.5848   17.1445 H   0  0  0  0  0  0
  -29.1262  -20.9758   17.5295 H   0  0  0  0  0  0
  -30.3909  -21.5361   16.4662 H   0  0  0  0  0  0
  -30.1976  -19.0430   15.2569 H   0  0  0  0  0  0
  -28.9980  -18.6340   16.4506 H   0  0  0  0  0  0
  -31.8903  -21.9132   18.4500 H   0  0  0  0  0  0
  -30.6602  -21.2991   19.5108 H   0  0  0  0  0  0
  -30.8202  -16.8636   17.2883 H   0  0  0  0  0  0
  -31.5033  -17.0951   15.7094 H   0  0  0  0  0  0
  -29.0642  -24.9184   22.4966 H   0  0  0  0  0  0
  -28.2582  -24.5792   21.0059 H   0  0  0  0  0  0
  -29.1270  -23.1169   19.0474 H   0  0  0  0  0  0
  -30.0618  -23.7087   17.7215 H   0  0  0  0  0  0
  -30.1541  -23.0976   21.2859 H   0  0  0  0  0  0
  -31.2200  -24.3867   21.7000 H   0  0  0  0  0  0
  -35.7906  -25.4947   16.8088 H   0  0  0  0  0  0
  -34.4623  -24.8843   15.8456 H   0  0  0  0  0  0
  -29.4897  -16.3535   14.5998 H   0  0  0  0  0  0
  -28.5612  -16.2339   16.0039 H   0  0  0  0  0  0
  -28.8227  -27.0836   21.9464 H   0  0  0  0  0  0
  -30.2045  -26.9052   20.9052 H   0  0  0  0  0  0
  -32.3323  -11.6288   20.8332 H   0  0  0  0  0  0
  -34.4283  -22.9404   17.2469 H   0  0  0  0  0  0
  1 25  1  0  0  0
  1 30  2  0  0  0
  1 95  1  0  0  0
  2  3  1  0  0  0
  2 25  1  0  0  0
  2100  1  0  0  0
  2101  1  0  0  0
  3  4  1  0  0  0
  3102  1  0  0  0
  3103  1  0  0  0
  4  5  1  0  0  0
  4104  1  0  0  0
  4105  1  0  0  0
  5  6  1  0  0  0
  5 26  1  0  0  0
  5106  1  0  0  0
  6 25  1  0  0  0
  6107  1  0  0  0
  6108  1  0  0  0
  7  8  2  0  0  0
  7 26  1  0  0  0
  7 29  1  0  0  0
  8  9  1  0  0  0
  8 22  1  0  0  0
  9 10  1  0  0  0
  9 27  2  0  0  0
 10 11  2  0  0  0
 10 15  1  0  0  0
 11 12  1  0  0  0
 11109  1  0  0  0
 12 13  2  0  0  0
 12110  1  0  0  0
 13 14  1  0  0  0
 13 31  1  0  0  0
 14 15  2  0  0  0
 14111  1  0  0  0
 15112  1  0  0  0
 16 17  2  0  0  0
 16 21  1  0  0  0
 16 31  1  0  0  0
 17 18  1  0  0  0
 17113  1  0  0  0
 18 19  2  0  0  0
 18114  1  0  0  0
 19 20  1  0  0  0
 19 24  1  0  0  0
 20 21  2  0  0  0
 20115  1  0  0  0
 21 23  1  0  0  0
 22 28  1  0  0  0
 22 32  2  0  0  0
 26 27  1  0  0  0
 28116  1  0  0  0
 28117  1  0  0  0
 29118  1  0  0  0
 29119  1  0  0  0
 33 34  1  0  0  0
 33 66  1  0  0  0
 33 70  2  0  0  0
 34 36  1  0  0  0
 34 59  1  0  0  0
 34120  1  0  0  0
 35 44  2  0  0  0
 35 45  1  0  0  0
 35 68  1  0  0  0
 36 56  1  0  0  0
 36121  1  0  0  0
 37 39  1  0  0  0
 37 47  1  0  0  0
 37 66  1  0  0  0
 37122  1  0  0  0
 38 43  2  0  0  0
 38 46  1  0  0  0
 38 47  1  0  0  0
 39 64  1  0  0  0
 39 67  2  0  0  0
 40 52  1  0  0  0
 40 53  2  0  0  0
 40 58  1  0  0  0
 41123  1  0  0  0
 41124  1  0  0  0
 41125  1  0  0  0
 41 48  1  0  0  0
 42 43  1  0  0  0
 42 66  1  0  0  0
 42126  1  0  0  0
 42127  1  0  0  0
 43 44  1  0  0  0
 44128  1  0  0  0
 45 46  2  0  0  0
 45129  1  0  0  0
 46130  1  0  0  0
 47131  1  0  0  0
 47132  1  0  0  0
 48 56  1  0  0  0
 48 65  1  0  0  0
 48133  1  0  0  0
 49 50  1  0  0  0
 49 53  1  0  0  0
 49 64  1  0  0  0
 49134  1  0  0  0
 50 51  1  0  0  0
 50135  1  0  0  0
 50136  1  0  0  0
 51 52  1  0  0  0
 51137  1  0  0  0
 51138  1  0  0  0
 52139  1  0  0  0
 52140  1  0  0  0
 53 54  1  0  0  0
 54 55  2  0  0  0
 54141  1  0  0  0
 55 57  1  0  0  0
 55142  1  0  0  0
 56 69  2  0  0  0
 57 58  2  0  0  0
 57143  1  0  0  0
 58144  1  0  0  0
 59 60  1  0  0  0
 59 61  1  0  0  0
 59 62  1  0  0  0
 60145  1  0  0  0
 60146  1  0  0  0
 60147  1  0  0  0
 61148  1  0  0  0
 61149  1  0  0  0
 61150  1  0  0  0
 62151  1  0  0  0
 62152  1  0  0  0
 62153  1  0  0  0
 63 65  1  0  0  0
 63154  1  0  0  0
 63155  1  0  0  0
 63156  1  0  0  0
 64157  1  0  0  0
 65158  1  0  0  0
 68 94  1  0  0  0
 71 73  2  0  0  0
 71 75  1  0  0  0
 71159  1  0  0  0
 72 74  1  0  0  0
 72 75  2  0  0  0
 72160  1  0  0  0
 73 76  1  0  0  0
 73 78  1  0  0  0
 74 76  2  0  0  0
 74 79  1  0  0  0
 75 95  1  0  0  0
 76 99  1  0  0  0
 77 82  1  0  0  0
 77 96  1  0  0  0
 77 98  2  0  0  0
 78161  1  0  0  0
 78162  1  0  0  0
 78163  1  0  0  0
 79164  1  0  0  0
 79165  1  0  0  0
 79166  1  0  0  0
 80167  1  0  0  0
 80168  1  0  0  0
 80169  1  0  0  0
 80 97  1  0  0  0
 81 97  1  0  0  0
 81170  1  0  0  0
 81171  1  0  0  0
 81172  1  0  0  0
 82 83  1  0  0  0
 82173  1  0  0  0
 82174  1  0  0  0
 83 92  1  0  0  0
 83175  1  0  0  0
 83176  1  0  0  0
 84 85  1  0  0  0
 84 86  1  0  0  0
 84177  1  0  0  0
 84178  1  0  0  0
 85 87  1  0  0  0
 85179  1  0  0  0
 85180  1  0  0  0
 86 88  1  0  0  0
 86181  1  0  0  0
 86182  1  0  0  0
 87 90  1  0  0  0
 87183  1  0  0  0
 87184  1  0  0  0
 88 93  1  0  0  0
 88185  1  0  0  0
 88186  1  0  0  0
 89 91  1  0  0  0
 89 94  1  0  0  0
 89187  1  0  0  0
 89188  1  0  0  0
 90 96  1  0  0  0
 90189  1  0  0  0
 90190  1  0  0  0
 91 96  1  0  0  0
 91191  1  0  0  0
 91192  1  0  0  0
 92 97  1  0  0  0
 92193  1  0  0  0
 92194  1  0  0  0
 93 99  1  0  0  0
 93195  1  0  0  0
 93196  1  0  0  0
 94197  1  0  0  0
 94198  1  0  0  0
 95199  1  0  0  0
 97200  1  0  0  0
M  CHG  1  97   1
M  ISO  4   1 100  68 101  94 101  95 100
M  END
> <chiral flag>
0

> <version>
0

> <s_m_source_file>
/data/baiqing/PycharmProjects/Reinvent-master-3.2/result/LINK_invent/BTK/process_docking_weight1_custom_sum_contain_oxygen_bond_distance_aromatic_linkinvent_7_9_3/rearranged_h_0005.sdf

> <i_m_source_file_index>
92

> <r_mmod_Potential_Energy-OPLS-2005>
9964.2578125

> <r_mmod_Stretch_Energy-OPLS-2005>
5463.6337890625

> <r_mmod_Bend_Energy-OPLS-2005>
575.853820800781

> <r_mmod_Torsional_Energy-OPLS-2005>
554.808898925781

> <r_mmod_Improper_Torsional_Energy-OPLS-2005>
70.417610168457

> <r_mmod_Van_der_Waal_Energy-OPLS-2005>
3030.66552734375

> <r_mmod_Electrostatic_Energy-OPLS-2005>
-308.672180175781

> <r_mmod_Solvation_Energy-OPLS-2005>
-445.684722900391

> <b_mmod_Minimization_Converged-OPLS-2005>
0

> <r_mmod_RMS_Derivative-OPLS-2005>
9.03544998168945

$$$$
94
                    3D
 Structure written by MMmdl.
175183  0  0  1  0            999 V2000
  -30.8502  -14.2908   20.7061 C   0  0  0  0  0  0
  -30.3944  -12.2590   19.3936 C   0  0  0  0  0  0
  -29.4717  -12.5082   18.1891 C   0  0  0  0  0  0
  -27.9995  -12.3661   18.6086 C   0  0  0  0  0  0
  -27.6598  -13.2107   19.8629 C   0  0  2  0  0  0
  -28.6965  -12.9952   20.9889 C   0  0  0  0  0  0
  -25.2571  -13.8177   20.5652 C   0  0  0  0  0  0
  -24.1829  -13.0458   20.9180 C   0  0  0  0  0  0
  -24.6382  -11.6916   20.8732 C   0  0  0  0  0  0
  -23.9060  -10.4295   21.0410 C   0  0  0  0  0  0
  -24.3608   -9.4201   21.9188 C   0  0  0  0  0  0
  -23.6280   -8.2232   22.0741 C   0  0  0  0  0  0
  -22.4261   -8.0277   21.3536 C   0  0  0  0  0  0
  -21.9901   -9.0246   20.4632 C   0  0  0  0  0  0
  -22.7236  -10.2128   20.3050 C   0  0  0  0  0  0
  -21.6844   -6.0745   22.5279 C   0  0  0  0  0  0
  -21.4003   -6.5643   23.8211 C   0  0  0  0  0  0
  -21.3658   -5.6797   24.9179 C   0  0  0  0  0  0
  -21.6049   -4.3062   24.7222 C   0  0  0  0  0  0
  -21.8823   -3.8152   23.4345 C   0  0  0  0  0  0
  -21.9185   -4.6967   22.3400 C   0  0  0  0  0  0
  -22.7844  -13.5230   21.1887 C   0  0  0  0  0  0
  -22.1666   -4.2154   21.0985 F   0  0  0  0  0  0
  -21.5615   -3.4551   25.7740 F   0  0  0  0  0  0
  -30.0582  -13.2104   20.4647 N   0  0  0  0  0  0
  -26.3016  -12.9363   20.3303 N   0  0  0  0  0  0
  -25.9304  -11.6521   20.5734 N   0  0  0  0  0  0
  -22.0501  -12.8178   22.0435 N   0  0  0  0  0  0
  -25.4329  -15.1885   20.4039 N   0  0  0  0  0  0
  -31.7614  -14.6217   19.9394 O   0  0  0  0  0  0
  -21.6621   -6.8886   21.4240 O   0  0  0  0  0  0
  -22.3518  -14.5555   20.6778 O   0  0  0  0  0  0
  -24.6094  -31.8702   23.2141 C   0  0  0  0  0  0
  -25.9007  -32.4835   23.8423 C   0  0  1  0  0  0
  -27.2444  -27.4827   20.0730 C   0  0  0  0  0  0
  -25.5891  -33.8637   24.2360 N   0  0  0  0  0  0
  -23.3957  -30.4931   21.5531 C   0  0  2  0  0  0
  -24.8438  -28.9585   20.1229 C   0  0  0  0  0  0
  -22.7378  -29.4662   22.5012 C   0  0  0  0  0  0
  -18.0261  -28.1363   22.8493 C   0  0  0  0  0  0
  -24.1481  -36.7319   23.2638 C   0  0  0  0  0  0
  -25.9191  -30.8488   21.3597 C   0  0  0  0  0  0
  -26.0000  -29.4832   20.7139 C   0  0  0  0  0  0
  -27.2026  -28.7483   20.6975 C   0  0  0  0  0  0
  -26.0692  -26.9481   19.5091 C   0  0  0  0  0  0
  -24.8687  -27.6849   19.5252 C   0  0  0  0  0  0
  -23.6040  -29.8221   20.1687 C   0  0  0  0  0  0
  -25.4096  -36.3123   24.0347 C   0  0  1  0  0  0
  -20.5848  -28.3644   23.1331 C   0  0  2  0  0  0
  -20.6753  -26.9387   22.5417 C   0  0  0  0  0  0
  -19.5734  -26.6382   21.5206 C   0  0  0  0  0  0
  -18.1911  -26.7914   22.1614 C   0  0  0  0  0  0
  -19.1509  -28.8820   23.2909 C   0  0  0  0  0  0
  -18.9440  -30.1430   23.8910 C   0  0  0  0  0  0
  -17.6446  -30.6576   24.0557 C   0  0  0  0  0  0
  -25.9021  -34.9486   23.5145 C   0  0  0  0  0  0
  -16.5336  -29.9077   23.6327 C   0  0  0  0  0  0
  -16.7252  -28.6491   23.0354 C   0  0  0  0  0  0
  -26.4462  -31.6594   25.0723 C   0  0  0  0  0  0
  -25.3758  -31.3669   26.1490 C   0  0  0  0  0  0
  -27.0283  -30.3052   24.6041 C   0  0  0  0  0  0
  -27.6047  -32.4299   25.7483 C   0  0  0  0  0  0
  -27.5577  -37.1811   24.8465 C   0  0  0  0  0  0
  -21.4113  -29.3021   22.3750 N   0  0  0  0  0  0
  -26.4286  -37.3805   23.9417 N   0  0  0  0  0  0
  -24.6596  -31.0839   22.1019 N   0  0  0  0  0  0
  -23.4166  -28.8214   23.3046 O   0  0  0  0  0  0
  -28.4059  -26.7585   19.9919 O   0  0  0  0  0  0
  -26.5575  -34.8924   22.4702 O   0  0  0  0  0  0
  -23.5299  -32.1439   23.7560 O   0  0  0  0  0  0
  -32.2388  -16.7079   22.6603 C   0  0  0  0  0  0
  -30.9148  -18.5633   21.0130 C   0  0  0  0  0  0
  -31.0999  -16.3002   21.9236 C   0  0  0  0  0  0
  -32.0978  -18.9376   21.6804 C   0  0  0  0  0  0
  -32.7420  -18.0150   22.5310 C   0  0  0  0  0  0
  -30.4231  -17.2480   21.1198 C   0  0  0  0  0  0
  -31.2449  -26.7357   20.7953 C   0  0  0  0  0  0
  -30.8983  -14.1385   23.1248 C   0  0  0  0  0  0
  -32.7115  -23.0699   18.3136 C   0  0  0  0  0  0
  -32.7337  -21.6597   18.9168 C   0  0  0  0  0  0
  -31.4201  -23.3588   17.5205 C   0  0  0  0  0  0
  -33.9275  -21.4389   19.8611 C   0  0  0  0  0  0
  -31.0029  -24.8389   17.5815 C   0  0  0  0  0  0
  -33.8162  -20.1352   20.6605 C   0  0  0  0  0  0
  -29.3988  -27.3631   19.1630 C   0  0  0  0  0  0
  -30.7319  -26.6205   19.3485 C   0  0  2  0  0  0
  -30.7132  -14.9240   21.8962 N   0  0  0  0  0  0
  -30.6091  -25.1943   18.9644 N   0  3  0  0  0  0
  -32.6320  -20.1785   21.4532 O   0  0  0  0  0  0
  -33.8652  -18.3750   23.1993 F   0  0  0  0  0  0
  -29.3226  -16.8830   20.4175 F   0  0  0  0  0  0
  -31.4380  -12.3245   19.0840 H   0  0  0  0  0  0
  -30.2641  -11.2393   19.7606 H   0  0  0  0  0  0
  -29.6954  -11.7995   17.3896 H   0  0  0  0  0  0
  -29.6510  -13.5033   17.7797 H   0  0  0  0  0  0
  -27.8102  -11.3110   18.8088 H   0  0  0  0  0  0
  -27.3429  -12.6353   17.7791 H   0  0  0  0  0  0
  -27.7086  -14.2567   19.5600 H   0  0  0  0  0  0
  -28.6203  -11.9797   21.3801 H   0  0  0  0  0  0
  -28.4583  -13.6644   21.8158 H   0  0  0  0  0  0
  -25.2752   -9.5659   22.4768 H   0  0  0  0  0  0
  -23.9987   -7.4607   22.7445 H   0  0  0  0  0  0
  -21.0841   -8.8760   19.8924 H   0  0  0  0  0  0
  -22.3712  -10.9652   19.6149 H   0  0  0  0  0  0
  -21.1996   -7.6154   23.9720 H   0  0  0  0  0  0
  -21.1485   -6.0528   25.9081 H   0  0  0  0  0  0
  -22.0602   -2.7617   23.2840 H   0  0  0  0  0  0
  -22.4093  -11.9793   22.4754 H   0  0  0  0  0  0
  -21.1126  -13.1183   22.2696 H   0  0  0  0  0  0
  -24.6773  -15.8564   20.5132 H   0  0  0  0  0  0
  -26.3019  -15.6182   20.1100 H   0  0  0  0  0  0
  -26.7081  -32.5577   23.1198 H   0  0  0  0  0  0
  -25.0071  -33.9807   25.0526 H   0  0  0  0  0  0
  -22.6827  -31.3085   21.4148 H   0  0  0  0  0  0
  -23.3739  -35.9654   23.3307 H   0  0  0  0  0  0
  -24.3579  -36.8919   22.2051 H   0  0  0  0  0  0
  -23.7230  -37.6529   23.6636 H   0  0  0  0  0  0
  -26.0181  -31.6125   20.5870 H   0  0  0  0  0  0
  -26.8118  -30.9107   21.9701 H   0  0  0  0  0  0
  -28.0929  -29.1551   21.1567 H   0  0  0  0  0  0
  -26.0897  -25.9727   19.0435 H   0  0  0  0  0  0
  -23.9769  -27.2697   19.0762 H   0  0  0  0  0  0
  -23.7110  -30.5958   19.4072 H   0  0  0  0  0  0
  -22.7290  -29.2397   19.8738 H   0  0  0  0  0  0
  -25.1265  -36.1993   25.0838 H   0  0  0  0  0  0
  -20.9936  -28.3202   24.1450 H   0  0  0  0  0  0
  -20.5653  -26.2248   23.3595 H   0  0  0  0  0  0
  -21.6626  -26.7436   22.1212 H   0  0  0  0  0  0
  -19.6901  -25.6300   21.1217 H   0  0  0  0  0  0
  -19.6679  -27.3207   20.6746 H   0  0  0  0  0  0
  -17.4189  -26.6673   21.4007 H   0  0  0  0  0  0
  -18.0306  -26.0042   22.8995 H   0  0  0  0  0  0
  -19.7919  -30.7239   24.2285 H   0  0  0  0  0  0
  -17.5004  -31.6259   24.5155 H   0  0  0  0  0  0
  -15.5337  -30.2981   23.7645 H   0  0  0  0  0  0
  -15.8652  -28.0813   22.7065 H   0  0  0  0  0  0
  -24.5936  -30.7001   25.7846 H   0  0  0  0  0  0
  -24.8938  -32.2806   26.4973 H   0  0  0  0  0  0
  -25.8145  -30.8834   27.0225 H   0  0  0  0  0  0
  -26.2804  -29.6824   24.1120 H   0  0  0  0  0  0
  -27.4110  -29.7265   25.4455 H   0  0  0  0  0  0
  -27.8611  -30.4395   23.9134 H   0  0  0  0  0  0
  -27.2678  -33.3588   26.2092 H   0  0  0  0  0  0
  -28.3844  -32.6868   25.0304 H   0  0  0  0  0  0
  -28.0725  -31.8400   26.5374 H   0  0  0  0  0  0
  -28.2595  -38.0110   24.7517 H   0  0  0  0  0  0
  -28.1067  -36.2639   24.6273 H   0  0  0  0  0  0
  -27.2298  -37.1448   25.8871 H   0  0  0  0  0  0
  -20.9269  -29.8738   21.6976 H   0  0  0  0  0  0
  -26.0174  -38.2880   24.1429 H   0  0  0  0  0  0
  -32.7831  -16.0083   23.2744 H   0  0  0  0  0  0
  -30.4120  -19.2698   20.3698 H   0  0  0  0  0  0
  -31.3506  -27.7798   21.0897 H   0  0  0  0  0  0
  -32.2238  -26.2675   20.9111 H   0  0  0  0  0  0
  -30.5636  -26.2638   21.5058 H   0  0  0  0  0  0
  -30.2364  -13.2763   23.1863 H   0  0  0  0  0  0
  -30.7120  -14.7514   24.0077 H   0  0  0  0  0  0
  -31.9219  -13.7638   23.1840 H   0  0  0  0  0  0
  -33.5814  -23.2287   17.6744 H   0  0  0  0  0  0
  -32.8189  -23.7829   19.1307 H   0  0  0  0  0  0
  -32.7319  -20.9081   18.1260 H   0  0  0  0  0  0
  -31.8118  -21.5147   19.4808 H   0  0  0  0  0  0
  -30.5966  -22.7431   17.8858 H   0  0  0  0  0  0
  -31.5722  -23.0615   16.4814 H   0  0  0  0  0  0
  -34.0112  -22.2702   20.5608 H   0  0  0  0  0  0
  -34.8540  -21.4313   19.2842 H   0  0  0  0  0  0
  -30.1681  -25.0298   16.9059 H   0  0  0  0  0  0
  -31.8332  -25.4551   17.2332 H   0  0  0  0  0  0
  -34.6861  -20.0124   21.3071 H   0  0  0  0  0  0
  -33.8069  -19.2885   19.9705 H   0  0  0  0  0  0
  -29.0783  -27.3272   18.1199 H   0  0  0  0  0  0
  -29.5422  -28.4151   19.4130 H   0  0  0  0  0  0
  -31.4763  -27.0984   18.7093 H   0  0  0  0  0  0
  -31.2308  -24.6743   19.5611 H   0  0  0  0  0  0
  -29.6722  -24.8679   19.1532 H   0  0  0  0  0  0
  1 25  1  0  0  0
  1 30  2  0  0  0
  1 87  1  0  0  0
  2  3  1  0  0  0
  2 25  1  0  0  0
  2 92  1  0  0  0
  2 93  1  0  0  0
  3  4  1  0  0  0
  3 94  1  0  0  0
  3 95  1  0  0  0
  4  5  1  0  0  0
  4 96  1  0  0  0
  4 97  1  0  0  0
  5  6  1  0  0  0
  5 26  1  0  0  0
  5 98  1  0  0  0
  6 25  1  0  0  0
  6 99  1  0  0  0
  6100  1  0  0  0
  7  8  2  0  0  0
  7 26  1  0  0  0
  7 29  1  0  0  0
  8  9  1  0  0  0
  8 22  1  0  0  0
  9 10  1  0  0  0
  9 27  2  0  0  0
 10 11  2  0  0  0
 10 15  1  0  0  0
 11 12  1  0  0  0
 11101  1  0  0  0
 12 13  2  0  0  0
 12102  1  0  0  0
 13 14  1  0  0  0
 13 31  1  0  0  0
 14 15  2  0  0  0
 14103  1  0  0  0
 15104  1  0  0  0
 16 17  2  0  0  0
 16 21  1  0  0  0
 16 31  1  0  0  0
 17 18  1  0  0  0
 17105  1  0  0  0
 18 19  2  0  0  0
 18106  1  0  0  0
 19 20  1  0  0  0
 19 24  1  0  0  0
 20 21  2  0  0  0
 20107  1  0  0  0
 21 23  1  0  0  0
 22 28  1  0  0  0
 22 32  2  0  0  0
 26 27  1  0  0  0
 28108  1  0  0  0
 28109  1  0  0  0
 29110  1  0  0  0
 29111  1  0  0  0
 33 34  1  0  0  0
 33 66  1  0  0  0
 33 70  2  0  0  0
 34 36  1  0  0  0
 34 59  1  0  0  0
 34112  1  0  0  0
 35 44  2  0  0  0
 35 45  1  0  0  0
 35 68  1  0  0  0
 36 56  1  0  0  0
 36113  1  0  0  0
 37 39  1  0  0  0
 37 47  1  0  0  0
 37 66  1  0  0  0
 37114  1  0  0  0
 38 43  2  0  0  0
 38 46  1  0  0  0
 38 47  1  0  0  0
 39 64  1  0  0  0
 39 67  2  0  0  0
 40 52  1  0  0  0
 40 53  2  0  0  0
 40 58  1  0  0  0
 41115  1  0  0  0
 41116  1  0  0  0
 41117  1  0  0  0
 41 48  1  0  0  0
 42 43  1  0  0  0
 42 66  1  0  0  0
 42118  1  0  0  0
 42119  1  0  0  0
 43 44  1  0  0  0
 44120  1  0  0  0
 45 46  2  0  0  0
 45121  1  0  0  0
 46122  1  0  0  0
 47123  1  0  0  0
 47124  1  0  0  0
 48 56  1  0  0  0
 48 65  1  0  0  0
 48125  1  0  0  0
 49 50  1  0  0  0
 49 53  1  0  0  0
 49 64  1  0  0  0
 49126  1  0  0  0
 50 51  1  0  0  0
 50127  1  0  0  0
 50128  1  0  0  0
 51 52  1  0  0  0
 51129  1  0  0  0
 51130  1  0  0  0
 52131  1  0  0  0
 52132  1  0  0  0
 53 54  1  0  0  0
 54 55  2  0  0  0
 54133  1  0  0  0
 55 57  1  0  0  0
 55134  1  0  0  0
 56 69  2  0  0  0
 57 58  2  0  0  0
 57135  1  0  0  0
 58136  1  0  0  0
 59 60  1  0  0  0
 59 61  1  0  0  0
 59 62  1  0  0  0
 60137  1  0  0  0
 60138  1  0  0  0
 60139  1  0  0  0
 61140  1  0  0  0
 61141  1  0  0  0
 61142  1  0  0  0
 62143  1  0  0  0
 62144  1  0  0  0
 62145  1  0  0  0
 63 65  1  0  0  0
 63146  1  0  0  0
 63147  1  0  0  0
 63148  1  0  0  0
 64149  1  0  0  0
 65150  1  0  0  0
 68 85  1  0  0  0
 71 73  2  0  0  0
 71 75  1  0  0  0
 71151  1  0  0  0
 72 74  1  0  0  0
 72 76  2  0  0  0
 72152  1  0  0  0
 73 76  1  0  0  0
 73 87  1  0  0  0
 74 75  2  0  0  0
 74 89  1  0  0  0
 75 90  1  0  0  0
 76 91  1  0  0  0
 77153  1  0  0  0
 77154  1  0  0  0
 77155  1  0  0  0
 77 86  1  0  0  0
 78 87  1  0  0  0
 78156  1  0  0  0
 78157  1  0  0  0
 78158  1  0  0  0
 79 80  1  0  0  0
 79 81  1  0  0  0
 79159  1  0  0  0
 79160  1  0  0  0
 80 82  1  0  0  0
 80161  1  0  0  0
 80162  1  0  0  0
 81 83  1  0  0  0
 81163  1  0  0  0
 81164  1  0  0  0
 82 84  1  0  0  0
 82165  1  0  0  0
 82166  1  0  0  0
 83 88  1  0  0  0
 83167  1  0  0  0
 83168  1  0  0  0
 84 89  1  0  0  0
 84169  1  0  0  0
 84170  1  0  0  0
 85 86  1  0  0  0
 85171  1  0  0  0
 85172  1  0  0  0
 86 88  1  0  0  0
 86173  1  0  0  0
 88174  1  0  0  0
 88175  1  0  0  0
M  CHG  1  88   1
M  ISO  4   1 100  68 101  85 101  87 100
M  END
> <chiral flag>
0

> <version>
0

> <s_m_source_file>
/data/baiqing/PycharmProjects/Reinvent-master-3.2/result/LINK_invent/BTK/process_docking_weight1_custom_sum_contain_oxygen_bond_distance_aromatic_linkinvent_7_9_3/rearranged_h_0005.sdf

> <i_m_source_file_index>
93

> <r_mmod_Potential_Energy-OPLS-2005>
50.1022834777832

> <r_mmod_Stretch_Energy-OPLS-2005>
34.4826469421387

> <r_mmod_Bend_Energy-OPLS-2005>
93.0976791381836

> <r_mmod_Torsional_Energy-OPLS-2005>
375.300598144531

> <r_mmod_Improper_Torsional_Energy-OPLS-2005>
5.77250146865845

> <r_mmod_Van_der_Waal_Energy-OPLS-2005>
160.775436401367

> <r_mmod_Electrostatic_Energy-OPLS-2005>
-232.223037719727

> <r_mmod_Solvation_Energy-OPLS-2005>
-396.402160644531

> <b_mmod_Minimization_Converged-OPLS-2005>
0

> <r_mmod_RMS_Derivative-OPLS-2005>
2.13953733444214

$$$$
95
                    3D
 Structure written by MMmdl.
171179  0  0  1  0            999 V2000
  -30.6808  -14.4160   20.5829 C   0  0  0  0  0  0
  -30.4359  -12.2938   19.3581 C   0  0  0  0  0  0
  -29.4753  -12.4979   18.1670 C   0  0  0  0  0  0
  -27.9950  -12.3771   18.5939 C   0  0  0  0  0  0
  -27.6599  -13.1910   19.8728 C   0  0  2  0  0  0
  -28.7142  -12.9239   20.9682 C   0  0  0  0  0  0
  -25.2600  -13.8102   20.5726 C   0  0  0  0  0  0
  -24.1828  -13.0400   20.9147 C   0  0  0  0  0  0
  -24.6370  -11.6864   20.8712 C   0  0  0  0  0  0
  -23.9023  -10.4275   21.0384 C   0  0  0  0  0  0
  -24.3590   -9.4213   21.9173 C   0  0  0  0  0  0
  -23.6297   -8.2235   22.0744 C   0  0  0  0  0  0
  -22.4268   -8.0258   21.3547 C   0  0  0  0  0  0
  -21.9890   -9.0213   20.4636 C   0  0  0  0  0  0
  -22.7193  -10.2105   20.3047 C   0  0  0  0  0  0
  -21.6850   -6.0733   22.5279 C   0  0  0  0  0  0
  -21.4002   -6.5638   23.8217 C   0  0  0  0  0  0
  -21.3659   -5.6788   24.9177 C   0  0  0  0  0  0
  -21.6060   -4.3057   24.7226 C   0  0  0  0  0  0
  -21.8818   -3.8145   23.4345 C   0  0  0  0  0  0
  -21.9204   -4.6960   22.3404 C   0  0  0  0  0  0
  -22.7853  -13.5211   21.1821 C   0  0  0  0  0  0
  -22.1672   -4.2152   21.0985 F   0  0  0  0  0  0
  -21.5636   -3.4539   25.7742 F   0  0  0  0  0  0
  -30.0376  -13.2394   20.4008 N   0  0  0  0  0  0
  -26.3046  -12.9267   20.3458 N   0  0  0  0  0  0
  -25.9316  -11.6431   20.5787 N   0  0  0  0  0  0
  -22.0502  -12.8202   22.0375 N   0  0  0  0  0  0
  -25.4232  -15.1842   20.4264 N   0  0  0  0  0  0
  -31.8498  -14.6385   20.2611 O   0  0  0  0  0  0
  -21.6639   -6.8852   21.4239 O   0  0  0  0  0  0
  -22.3556  -14.5549   20.6690 O   0  0  0  0  0  0
  -24.6069  -31.8698   23.2102 C   0  0  0  0  0  0
  -25.8984  -32.4836   23.8396 C   0  0  1  0  0  0
  -27.2405  -27.4728   20.0637 C   0  0  0  0  0  0
  -25.5822  -33.8634   24.2296 N   0  0  0  0  0  0
  -23.3926  -30.4904   21.5561 C   0  0  2  0  0  0
  -24.8347  -28.9558   20.1235 C   0  0  0  0  0  0
  -22.7360  -29.4674   22.5078 C   0  0  0  0  0  0
  -18.0243  -28.1371   22.8493 C   0  0  0  0  0  0
  -24.1473  -36.7313   23.2642 C   0  0  0  0  0  0
  -25.9197  -30.8397   21.3617 C   0  0  0  0  0  0
  -25.9942  -29.4781   20.7082 C   0  0  0  0  0  0
  -27.1944  -28.7392   20.6833 C   0  0  0  0  0  0
  -26.0545  -26.9498   19.4957 C   0  0  0  0  0  0
  -24.8564  -27.6870   19.5227 C   0  0  0  0  0  0
  -23.5934  -29.8120   20.1757 C   0  0  0  0  0  0
  -25.4096  -36.3114   24.0320 C   0  0  1  0  0  0
  -20.5825  -28.3640   23.1338 C   0  0  2  0  0  0
  -20.6726  -26.9377   22.5435 C   0  0  0  0  0  0
  -19.5729  -26.6374   21.5206 C   0  0  0  0  0  0
  -18.1901  -26.7918   22.1625 C   0  0  0  0  0  0
  -19.1491  -28.8829   23.2909 C   0  0  0  0  0  0
  -18.9429  -30.1437   23.8907 C   0  0  0  0  0  0
  -17.6437  -30.6585   24.0567 C   0  0  0  0  0  0
  -25.9012  -34.9477   23.5109 C   0  0  0  0  0  0
  -16.5324  -29.9084   23.6343 C   0  0  0  0  0  0
  -16.7236  -28.6504   23.0356 C   0  0  0  0  0  0
  -26.4424  -31.6639   25.0736 C   0  0  0  0  0  0
  -25.3681  -31.3748   26.1479 C   0  0  0  0  0  0
  -27.0257  -30.3076   24.6145 C   0  0  0  0  0  0
  -27.6009  -32.4382   25.7480 C   0  0  0  0  0  0
  -27.5566  -37.1787   24.8457 C   0  0  0  0  0  0
  -21.4100  -29.3012   22.3773 N   0  0  0  0  0  0
  -26.4282  -37.3798   23.9401 N   0  0  0  0  0  0
  -24.6591  -31.0801   22.1017 N   0  0  0  0  0  0
  -23.4161  -28.8232   23.3117 O   0  0  0  0  0  0
  -28.4536  -26.8178   20.0414 O   0  0  0  0  0  0
  -26.5607  -34.8921   22.4688 O   0  0  0  0  0  0
  -23.5260  -32.1474   23.7480 O   0  0  0  0  0  0
  -28.1647  -17.8047   23.0607 C   0  0  0  0  0  0
  -28.9585  -17.7074   24.2197 C   0  0  0  0  0  0
  -30.4596  -16.1574   23.0788 C   0  0  0  0  0  0
  -28.5142  -17.0765   21.9023 C   0  0  0  0  0  0
  -29.6495  -16.2334   21.9242 C   0  0  0  0  0  0
  -30.1080  -16.8933   24.2274 C   0  0  0  0  0  0
  -28.9239  -22.5098   16.7454 C   0  0  0  0  0  0
  -26.4817  -19.9667   18.4968 C   0  0  0  0  0  0
  -27.2648  -18.7193   18.9389 C   0  0  0  0  0  0
  -27.1295  -20.7533   17.3347 C   0  0  0  0  0  0
  -28.7182  -26.1050   17.6922 C   0  0  0  0  0  0
  -27.0078  -18.3281   20.3952 C   0  0  0  0  0  0
  -29.1388  -24.9753   16.7307 C   0  0  0  0  0  0
  -28.6419  -25.6948   19.1829 C   0  0  0  0  0  0
  -28.4997  -21.3783   17.6928 C   0  0  0  0  0  0
  -29.8200  -15.4135   20.7824 N   0  0  0  0  0  0
  -27.7696  -17.1285   20.7112 N   0  0  0  0  0  0
  -28.4595  -23.7257   17.0469 N   0  0  0  0  0  0
  -29.7363  -22.3109   15.8385 O   0  0  0  0  0  0
  -28.4322  -21.8836   18.9288 F   0  0  0  0  0  0
  -29.4625  -20.4521   17.6737 F   0  0  0  0  0  0
  -31.0655  -16.7718   25.6582 Cl  0  0  0  0  0  0
  -31.4672  -12.4495   19.0344 H   0  0  0  0  0  0
  -30.3808  -11.2712   19.7329 H   0  0  0  0  0  0
  -29.6929  -11.7668   17.3875 H   0  0  0  0  0  0
  -29.6429  -13.4763   17.7159 H   0  0  0  0  0  0
  -27.7781  -11.3211   18.7547 H   0  0  0  0  0  0
  -27.3494  -12.6947   17.7747 H   0  0  0  0  0  0
  -27.7029  -14.2433   19.5972 H   0  0  0  0  0  0
  -28.6902  -11.8770   21.2703 H   0  0  0  0  0  0
  -28.4987  -13.4995   21.8718 H   0  0  0  0  0  0
  -25.2727   -9.5715   22.4758 H   0  0  0  0  0  0
  -24.0030   -7.4619   22.7448 H   0  0  0  0  0  0
  -21.0829   -8.8683   19.8941 H   0  0  0  0  0  0
  -22.3612  -10.9633   19.6156 H   0  0  0  0  0  0
  -21.1964   -7.6141   23.9712 H   0  0  0  0  0  0
  -21.1502   -6.0525   25.9084 H   0  0  0  0  0  0
  -22.0604   -2.7612   23.2843 H   0  0  0  0  0  0
  -22.4130  -11.9893   22.4791 H   0  0  0  0  0  0
  -21.1113  -13.1191   22.2569 H   0  0  0  0  0  0
  -24.6463  -15.8143   20.5793 H   0  0  0  0  0  0
  -26.3119  -15.6837   20.3903 H   0  0  0  0  0  0
  -26.7061  -32.5580   23.1164 H   0  0  0  0  0  0
  -24.9873  -33.9850   25.0362 H   0  0  0  0  0  0
  -22.6800  -31.3033   21.4111 H   0  0  0  0  0  0
  -23.3733  -35.9657   23.3347 H   0  0  0  0  0  0
  -24.3560  -36.8898   22.2053 H   0  0  0  0  0  0
  -23.7225  -37.6512   23.6657 H   0  0  0  0  0  0
  -26.0297  -31.6081   20.5966 H   0  0  0  0  0  0
  -26.8070  -30.8899   21.9791 H   0  0  0  0  0  0
  -28.0930  -29.1479   21.1245 H   0  0  0  0  0  0
  -26.0315  -25.9814   19.0205 H   0  0  0  0  0  0
  -23.9605  -27.2744   19.0758 H   0  0  0  0  0  0
  -23.6789  -30.5745   19.4022 H   0  0  0  0  0  0
  -22.7241  -29.2104   19.9038 H   0  0  0  0  0  0
  -25.1287  -36.1971   25.0814 H   0  0  0  0  0  0
  -20.9898  -28.3182   24.1465 H   0  0  0  0  0  0
  -20.5600  -26.2247   23.3617 H   0  0  0  0  0  0
  -21.6601  -26.7422   22.1241 H   0  0  0  0  0  0
  -19.6907  -25.6286   21.1233 H   0  0  0  0  0  0
  -19.6664  -27.3180   20.6730 H   0  0  0  0  0  0
  -17.4162  -26.6622   21.4043 H   0  0  0  0  0  0
  -18.0332  -26.0065   22.9036 H   0  0  0  0  0  0
  -19.7909  -30.7235   24.2285 H   0  0  0  0  0  0
  -17.5006  -31.6285   24.5138 H   0  0  0  0  0  0
  -15.5339  -30.2999   23.7674 H   0  0  0  0  0  0
  -15.8632  -28.0843   22.7073 H   0  0  0  0  0  0
  -24.5823  -30.7142   25.7802 H   0  0  0  0  0  0
  -24.8912  -32.2911   26.4983 H   0  0  0  0  0  0
  -25.8014  -30.8867   27.0218 H   0  0  0  0  0  0
  -26.2827  -29.6841   24.1164 H   0  0  0  0  0  0
  -27.3950  -29.7317   25.4643 H   0  0  0  0  0  0
  -27.8698  -30.4389   23.9365 H   0  0  0  0  0  0
  -27.2626  -33.3657   26.2111 H   0  0  0  0  0  0
  -28.3769  -32.6985   25.0272 H   0  0  0  0  0  0
  -28.0739  -31.8496   26.5345 H   0  0  0  0  0  0
  -28.2593  -38.0076   24.7511 H   0  0  0  0  0  0
  -28.1049  -36.2601   24.6300 H   0  0  0  0  0  0
  -27.2285  -37.1459   25.8862 H   0  0  0  0  0  0
  -20.9242  -29.8731   21.6995 H   0  0  0  0  0  0
  -26.0166  -38.2871   24.1435 H   0  0  0  0  0  0
  -27.2848  -18.4315   23.0833 H   0  0  0  0  0  0
  -28.6776  -18.2567   25.1068 H   0  0  0  0  0  0
  -31.3249  -15.5119   23.1106 H   0  0  0  0  0  0
  -26.3508  -20.6408   19.3446 H   0  0  0  0  0  0
  -25.4724  -19.6664   18.2122 H   0  0  0  0  0  0
  -28.3351  -18.8906   18.8561 H   0  0  0  0  0  0
  -27.0409  -17.8915   18.2634 H   0  0  0  0  0  0
  -26.4354  -21.5433   17.0416 H   0  0  0  0  0  0
  -27.2279  -20.1134   16.4578 H   0  0  0  0  0  0
  -27.7633  -26.5160   17.3644 H   0  0  0  0  0  0
  -29.4402  -26.9151   17.5883 H   0  0  0  0  0  0
  -25.9440  -18.1494   20.5669 H   0  0  0  0  0  0
  -27.3038  -19.1670   21.0289 H   0  0  0  0  0  0
  -30.2180  -24.8272   16.8147 H   0  0  0  0  0  0
  -28.9451  -25.2573   15.6954 H   0  0  0  0  0  0
  -27.8893  -24.9307   19.3713 H   0  0  0  0  0  0
  -29.5882  -25.2345   19.4696 H   0  0  0  0  0  0
  -28.9205  -15.1882   20.3905 H   0  0  0  0  0  0
  -28.3201  -16.8133   19.9195 H   0  0  0  0  0  0
  -27.7386  -23.7593   17.7539 H   0  0  0  0  0  0
  1 25  1  0  0  0
  1 30  2  0  0  0
  1 86  1  0  0  0
  2  3  1  0  0  0
  2 25  1  0  0  0
  2 93  1  0  0  0
  2 94  1  0  0  0
  3  4  1  0  0  0
  3 95  1  0  0  0
  3 96  1  0  0  0
  4  5  1  0  0  0
  4 97  1  0  0  0
  4 98  1  0  0  0
  5  6  1  0  0  0
  5 26  1  0  0  0
  5 99  1  0  0  0
  6 25  1  0  0  0
  6100  1  0  0  0
  6101  1  0  0  0
  7  8  2  0  0  0
  7 26  1  0  0  0
  7 29  1  0  0  0
  8  9  1  0  0  0
  8 22  1  0  0  0
  9 10  1  0  0  0
  9 27  2  0  0  0
 10 11  2  0  0  0
 10 15  1  0  0  0
 11 12  1  0  0  0
 11102  1  0  0  0
 12 13  2  0  0  0
 12103  1  0  0  0
 13 14  1  0  0  0
 13 31  1  0  0  0
 14 15  2  0  0  0
 14104  1  0  0  0
 15105  1  0  0  0
 16 17  2  0  0  0
 16 21  1  0  0  0
 16 31  1  0  0  0
 17 18  1  0  0  0
 17106  1  0  0  0
 18 19  2  0  0  0
 18107  1  0  0  0
 19 20  1  0  0  0
 19 24  1  0  0  0
 20 21  2  0  0  0
 20108  1  0  0  0
 21 23  1  0  0  0
 22 28  1  0  0  0
 22 32  2  0  0  0
 26 27  1  0  0  0
 28109  1  0  0  0
 28110  1  0  0  0
 29111  1  0  0  0
 29112  1  0  0  0
 33 34  1  0  0  0
 33 66  1  0  0  0
 33 70  2  0  0  0
 34 36  1  0  0  0
 34 59  1  0  0  0
 34113  1  0  0  0
 35 44  2  0  0  0
 35 45  1  0  0  0
 35 68  1  0  0  0
 36 56  1  0  0  0
 36114  1  0  0  0
 37 39  1  0  0  0
 37 47  1  0  0  0
 37 66  1  0  0  0
 37115  1  0  0  0
 38 43  2  0  0  0
 38 46  1  0  0  0
 38 47  1  0  0  0
 39 64  1  0  0  0
 39 67  2  0  0  0
 40 52  1  0  0  0
 40 53  2  0  0  0
 40 58  1  0  0  0
 41116  1  0  0  0
 41117  1  0  0  0
 41118  1  0  0  0
 41 48  1  0  0  0
 42 43  1  0  0  0
 42 66  1  0  0  0
 42119  1  0  0  0
 42120  1  0  0  0
 43 44  1  0  0  0
 44121  1  0  0  0
 45 46  2  0  0  0
 45122  1  0  0  0
 46123  1  0  0  0
 47124  1  0  0  0
 47125  1  0  0  0
 48 56  1  0  0  0
 48 65  1  0  0  0
 48126  1  0  0  0
 49 50  1  0  0  0
 49 53  1  0  0  0
 49 64  1  0  0  0
 49127  1  0  0  0
 50 51  1  0  0  0
 50128  1  0  0  0
 50129  1  0  0  0
 51 52  1  0  0  0
 51130  1  0  0  0
 51131  1  0  0  0
 52132  1  0  0  0
 52133  1  0  0  0
 53 54  1  0  0  0
 54 55  2  0  0  0
 54134  1  0  0  0
 55 57  1  0  0  0
 55135  1  0  0  0
 56 69  2  0  0  0
 57 58  2  0  0  0
 57136  1  0  0  0
 58137  1  0  0  0
 59 60  1  0  0  0
 59 61  1  0  0  0
 59 62  1  0  0  0
 60138  1  0  0  0
 60139  1  0  0  0
 60140  1  0  0  0
 61141  1  0  0  0
 61142  1  0  0  0
 61143  1  0  0  0
 62144  1  0  0  0
 62145  1  0  0  0
 62146  1  0  0  0
 63 65  1  0  0  0
 63147  1  0  0  0
 63148  1  0  0  0
 63149  1  0  0  0
 64150  1  0  0  0
 65151  1  0  0  0
 68 84  1  0  0  0
 71 72  2  0  0  0
 71 74  1  0  0  0
 71152  1  0  0  0
 72 76  1  0  0  0
 72153  1  0  0  0
 73 75  1  0  0  0
 73 76  2  0  0  0
 73154  1  0  0  0
 74 75  2  0  0  0
 74 87  1  0  0  0
 75 86  1  0  0  0
 76 92  1  0  0  0
 77 85  1  0  0  0
 77 88  1  0  0  0
 77 89  2  0  0  0
 78 79  1  0  0  0
 78 80  1  0  0  0
 78155  1  0  0  0
 78156  1  0  0  0
 79 82  1  0  0  0
 79157  1  0  0  0
 79158  1  0  0  0
 80 85  1  0  0  0
 80159  1  0  0  0
 80160  1  0  0  0
 81 83  1  0  0  0
 81 84  1  0  0  0
 81161  1  0  0  0
 81162  1  0  0  0
 82 87  1  0  0  0
 82163  1  0  0  0
 82164  1  0  0  0
 83 88  1  0  0  0
 83165  1  0  0  0
 83166  1  0  0  0
 84167  1  0  0  0
 84168  1  0  0  0
 85 90  1  0  0  0
 85 91  1  0  0  0
 86169  1  0  0  0
 87170  1  0  0  0
 88171  1  0  0  0
M  ISO  4   1 100  68 101  84 101  86 100
M  END
> <chiral flag>
0

> <version>
0

> <s_m_source_file>
/data/baiqing/PycharmProjects/Reinvent-master-3.2/result/LINK_invent/BTK/process_docking_weight1_custom_sum_contain_oxygen_bond_distance_aromatic_linkinvent_7_9_3/rearranged_h_0005.sdf

> <i_m_source_file_index>
94

> <r_mmod_Potential_Energy-OPLS-2005>
-98.4200973510742

> <r_mmod_Stretch_Energy-OPLS-2005>
32.4630546569824

> <r_mmod_Bend_Energy-OPLS-2005>
116.263763427734

> <r_mmod_Torsional_Energy-OPLS-2005>
269.640411376953

> <r_mmod_Improper_Torsional_Energy-OPLS-2005>
20.4482345581055

> <r_mmod_Van_der_Waal_Energy-OPLS-2005>
169.608993530273

> <r_mmod_Electrostatic_Energy-OPLS-2005>
-493.351409912109

> <r_mmod_Solvation_Energy-OPLS-2005>
-228.771011352539

> <b_mmod_Minimization_Converged-OPLS-2005>
0

> <r_mmod_RMS_Derivative-OPLS-2005>
3.49055147171021

$$$$
