0
                    3D
 Structure written by MMmdl.
154163  0  0  1  0            999 V2000
  -30.4175  -15.3253   20.3574 C   0  0  0  0  0  0
  -30.4381  -12.8537   19.5080 C   0  0  0  0  0  0
  -29.5390  -12.5770   18.2768 C   0  0  0  0  0  0
  -28.0895  -12.2954   18.7135 C   0  0  0  0  0  0
  -27.6054  -13.2791   19.8089 C   0  0  2  0  0  0
  -28.6425  -13.4809   20.9322 C   0  0  0  0  0  0
  -25.2367  -13.8258   20.5734 C   0  0  0  0  0  0
  -24.1733  -13.0444   20.9290 C   0  0  0  0  0  0
  -24.6393  -11.6937   20.8761 C   0  0  0  0  0  0
  -23.9100  -10.4291   21.0399 C   0  0  0  0  0  0
  -24.3649   -9.4207   21.9176 C   0  0  0  0  0  0
  -23.6316   -8.2245   22.0743 C   0  0  0  0  0  0
  -22.4297   -8.0288   21.3542 C   0  0  0  0  0  0
  -21.9940   -9.0266   20.4648 C   0  0  0  0  0  0
  -22.7271  -10.2142   20.3049 C   0  0  0  0  0  0
  -21.6862   -6.0742   22.5278 C   0  0  0  0  0  0
  -21.4023   -6.5634   23.8218 C   0  0  0  0  0  0
  -21.3679   -5.6782   24.9178 C   0  0  0  0  0  0
  -21.6032   -4.3041   24.7215 C   0  0  0  0  0  0
  -21.8814   -3.8144   23.4331 C   0  0  0  0  0  0
  -21.9208   -4.6969   22.3395 C   0  0  0  0  0  0
  -22.7745  -13.5199   21.1954 C   0  0  0  0  0  0
  -22.1659   -4.2155   21.0968 F   0  0  0  0  0  0
  -21.5636   -3.4525   25.7728 F   0  0  0  0  0  0
  -29.8569  -14.0116   20.2848 N   0  0  0  0  0  0
  -26.2781  -12.9527   20.3157 N   0  0  0  0  0  0
  -25.9327  -11.6634   20.5697 N   0  0  0  0  0  0
  -22.0374  -12.8192   22.0494 N   0  0  0  0  0  0
  -25.3967  -15.2000   20.4165 N   0  0  0  0  0  0
  -31.6524  -15.3122   20.2546 O   0  0  0  0  0  0
  -21.6645   -6.8891   21.4246 O   0  0  0  0  0  0
  -22.3412  -14.5491   20.6800 O   0  0  0  0  0  0
  -24.6669  -31.8178   23.1641 C   0  0  0  0  0  0
  -25.9324  -32.4561   23.8121 C   0  0  1  0  0  0
  -27.2339  -26.8794   20.1848 C   0  0  0  0  0  0
  -25.5984  -33.8374   24.2037 N   0  0  0  0  0  0
  -23.4870  -30.4245   21.5164 C   0  0  2  0  0  0
  -24.9422  -28.7949   20.1229 C   0  0  0  0  0  0
  -22.7667  -29.4416   22.4779 C   0  0  0  0  0  0
  -18.0314  -28.1402   22.8463 C   0  0  0  0  0  0
  -24.1506  -36.7205   23.2648 C   0  0  0  0  0  0
  -26.0583  -30.6059   21.4033 C   0  0  0  0  0  0
  -26.1297  -29.1874   20.7537 C   0  0  0  0  0  0
  -27.2705  -28.2549   20.7542 C   0  0  0  0  0  0
  -26.0106  -26.6456   19.5199 C   0  0  0  0  0  0
  -24.9095  -27.5444   19.4867 C   0  0  0  0  0  0
  -23.7322  -29.7300   20.1482 C   0  0  0  0  0  0
  -25.4139  -36.2944   24.0292 C   0  0  1  0  0  0
  -20.5938  -28.3766   23.1172 C   0  0  2  0  0  0
  -20.6810  -26.9450   22.5397 C   0  0  0  0  0  0
  -19.5786  -26.6384   21.5207 C   0  0  0  0  0  0
  -18.1963  -26.7930   22.1617 C   0  0  0  0  0  0
  -19.1580  -28.8904   23.2811 C   0  0  0  0  0  0
  -18.9493  -30.1491   23.8844 C   0  0  0  0  0  0
  -17.6494  -30.6599   24.0548 C   0  0  0  0  0  0
  -25.9112  -34.9328   23.4987 C   0  0  0  0  0  0
  -16.5381  -29.9087   23.6339 C   0  0  0  0  0  0
  -16.7304  -28.6504   23.0368 C   0  0  0  0  0  0
  -26.4561  -31.6513   25.0664 C   0  0  0  0  0  0
  -25.3681  -31.3789   26.1320 C   0  0  0  0  0  0
  -27.0471  -30.2866   24.6452 C   0  0  0  0  0  0
  -27.6032  -32.4334   25.7481 C   0  0  0  0  0  0
  -27.5571  -37.1751   24.8451 C   0  0  0  0  0  0
  -21.4328  -29.3053   22.3520 N   0  0  0  0  0  0
  -26.4272  -37.3690   23.9404 N   0  0  0  0  0  0
  -24.7597  -30.9771   22.0826 N   0  0  0  0  0  0
  -23.4172  -28.7990   23.3055 O   0  0  0  0  0  0
  -28.2492  -25.7656   20.1590 O   0  0  0  0  0  0
  -26.5730  -34.8871   22.4586 O   0  0  0  0  0  0
  -23.5726  -32.1185   23.6714 O   0  0  0  0  0  0
  -29.6720  -20.0032   18.6462 C   0  0  0  0  0  0
  -28.8903  -21.1968   20.6001 C   0  0  0  0  0  0
  -29.5588  -21.2658   17.9927 C   0  0  0  0  0  0
  -29.1348  -22.4758   18.5890 C   0  0  0  0  0  0
  -29.3711  -19.8288   20.0178 C   0  0  0  0  0  0
  -28.7299  -22.6034   19.9411 C   0  0  0  0  0  0
  -29.1626  -23.6064   17.5883 C   0  0  0  0  0  0
  -29.7210  -22.9916   16.2882 C   0  0  0  0  0  0
  -29.9172  -21.4785   16.5390 C   0  0  2  0  0  0
  -29.7888  -18.2543   20.7173 C   0  0  0  0  0  0
  -28.0213  -24.1402   20.4778 C   0  0  0  0  0  0
  -29.6442  -16.6084   20.3394 N   0  0  0  0  0  0
  -28.8482  -20.5284   15.4685 Cl  0  0  0  0  0  0
  -31.4529  -13.0743   19.1742 H   0  0  0  0  0  0
  -30.5178  -11.9588   20.1275 H   0  0  0  0  0  0
  -29.9263  -11.7315   17.7052 H   0  0  0  0  0  0
  -29.5659  -13.4401   17.6092 H   0  0  0  0  0  0
  -28.0655  -11.2771   19.1050 H   0  0  0  0  0  0
  -27.4198  -12.3123   17.8522 H   0  0  0  0  0  0
  -27.5099  -14.2389   19.3007 H   0  0  0  0  0  0
  -28.8262  -12.5503   21.4719 H   0  0  0  0  0  0
  -28.2721  -14.2021   21.6643 H   0  0  0  0  0  0
  -25.2783   -9.5696   22.4774 H   0  0  0  0  0  0
  -24.0032   -7.4621   22.7444 H   0  0  0  0  0  0
  -21.0878   -8.8782   19.8950 H   0  0  0  0  0  0
  -22.3715  -10.9687   19.6169 H   0  0  0  0  0  0
  -21.2013   -7.6139   23.9729 H   0  0  0  0  0  0
  -21.1501   -6.0501   25.9082 H   0  0  0  0  0  0
  -22.0587   -2.7604   23.2826 H   0  0  0  0  0  0
  -22.3988  -11.9898   22.4965 H   0  0  0  0  0  0
  -21.0957  -13.1194   22.2603 H   0  0  0  0  0  0
  -24.6215  -15.8451   20.5280 H   0  0  0  0  0  0
  -26.2292  -15.6436   20.0515 H   0  0  0  0  0  0
  -26.7394  -32.5100   23.0832 H   0  0  0  0  0  0
  -25.0058  -33.9416   25.0143 H   0  0  0  0  0  0
  -22.8055  -31.2565   21.3339 H   0  0  0  0  0  0
  -23.3769  -35.9537   23.3263 H   0  0  0  0  0  0
  -24.3610  -36.8904   22.2078 H   0  0  0  0  0  0
  -23.7261  -37.6376   23.6744 H   0  0  0  0  0  0
  -26.2416  -31.3398   20.6175 H   0  0  0  0  0  0
  -26.9172  -30.6706   22.0597 H   0  0  0  0  0  0
  -28.1745  -28.5624   21.2622 H   0  0  0  0  0  0
  -25.8845  -25.6942   19.0230 H   0  0  0  0  0  0
  -24.0111  -27.2322   18.9741 H   0  0  0  0  0  0
  -23.8955  -30.4912   19.3840 H   0  0  0  0  0  0
  -22.8407  -29.1843   19.8311 H   0  0  0  0  0  0
  -25.1348  -36.1730   25.0787 H   0  0  0  0  0  0
  -21.0032  -28.3380   24.1300 H   0  0  0  0  0  0
  -20.5695  -26.2384   23.3646 H   0  0  0  0  0  0
  -21.6668  -26.7432   22.1204 H   0  0  0  0  0  0
  -19.6963  -25.6284   21.1283 H   0  0  0  0  0  0
  -19.6719  -27.3148   20.6700 H   0  0  0  0  0  0
  -17.4238  -26.6653   21.4032 H   0  0  0  0  0  0
  -18.0374  -26.0081   22.9024 H   0  0  0  0  0  0
  -19.7979  -30.7318   24.2193 H   0  0  0  0  0  0
  -17.5053  -31.6266   24.5162 H   0  0  0  0  0  0
  -15.5385  -30.2983   23.7705 H   0  0  0  0  0  0
  -15.8694  -28.0811   22.7126 H   0  0  0  0  0  0
  -24.5836  -30.7184   25.7619 H   0  0  0  0  0  0
  -24.8922  -32.3017   26.4643 H   0  0  0  0  0  0
  -25.7899  -30.8992   27.0166 H   0  0  0  0  0  0
  -26.3154  -29.6514   24.1462 H   0  0  0  0  0  0
  -27.3971  -29.7255   25.5130 H   0  0  0  0  0  0
  -27.9105  -30.4008   23.9898 H   0  0  0  0  0  0
  -27.2560  -33.3653   26.1944 H   0  0  0  0  0  0
  -28.3905  -32.6870   25.0373 H   0  0  0  0  0  0
  -28.0638  -31.8554   26.5502 H   0  0  0  0  0  0
  -28.2543  -38.0089   24.7530 H   0  0  0  0  0  0
  -28.1112  -36.2619   24.6243 H   0  0  0  0  0  0
  -27.2297  -37.1339   25.8852 H   0  0  0  0  0  0
  -20.9602  -29.8718   21.6624 H   0  0  0  0  0  0
  -26.0116  -38.2751   24.1412 H   0  0  0  0  0  0
  -30.0469  -19.1612   18.0788 H   0  0  0  0  0  0
  -28.6163  -21.1701   21.6465 H   0  0  0  0  0  0
  -29.8079  -24.4086   17.9429 H   0  0  0  0  0  0
  -28.1638  -24.0152   17.4396 H   0  0  0  0  0  0
  -30.6807  -23.4498   16.0421 H   0  0  0  0  0  0
  -29.0674  -23.1902   15.4371 H   0  0  0  0  0  0
  -30.9476  -21.1729   16.3517 H   0  0  0  0  0  0
  -30.8562  -18.3626   20.9228 H   0  0  0  0  0  0
  -29.3417  -18.3058   21.7095 H   0  0  0  0  0  0
  -28.1591  -24.0905   21.5572 H   0  0  0  0  0  0
  -26.9507  -23.9833   20.3387 H   0  0  0  0  0  0
  -28.6702  -16.3770   20.2141 H   0  0  0  0  0  0
  1 25  1  0  0  0
  1 30  2  0  0  0
  1 82  1  0  0  0
  2  3  1  0  0  0
  2 25  1  0  0  0
  2 84  1  0  0  0
  2 85  1  0  0  0
  3  4  1  0  0  0
  3 86  1  0  0  0
  3 87  1  0  0  0
  4  5  1  0  0  0
  4 88  1  0  0  0
  4 89  1  0  0  0
  5  6  1  0  0  0
  5 26  1  0  0  0
  5 90  1  0  0  0
  6 25  1  0  0  0
  6 91  1  0  0  0
  6 92  1  0  0  0
  7  8  2  0  0  0
  7 26  1  0  0  0
  7 29  1  0  0  0
  8  9  1  0  0  0
  8 22  1  0  0  0
  9 10  1  0  0  0
  9 27  2  0  0  0
 10 11  2  0  0  0
 10 15  1  0  0  0
 11 12  1  0  0  0
 11 93  1  0  0  0
 12 13  2  0  0  0
 12 94  1  0  0  0
 13 14  1  0  0  0
 13 31  1  0  0  0
 14 15  2  0  0  0
 14 95  1  0  0  0
 15 96  1  0  0  0
 16 17  2  0  0  0
 16 21  1  0  0  0
 16 31  1  0  0  0
 17 18  1  0  0  0
 17 97  1  0  0  0
 18 19  2  0  0  0
 18 98  1  0  0  0
 19 20  1  0  0  0
 19 24  1  0  0  0
 20 21  2  0  0  0
 20 99  1  0  0  0
 21 23  1  0  0  0
 22 28  1  0  0  0
 22 32  2  0  0  0
 26 27  1  0  0  0
 28100  1  0  0  0
 28101  1  0  0  0
 29102  1  0  0  0
 29103  1  0  0  0
 33 34  1  0  0  0
 33 66  1  0  0  0
 33 70  2  0  0  0
 34 36  1  0  0  0
 34 59  1  0  0  0
 34104  1  0  0  0
 35 44  2  0  0  0
 35 45  1  0  0  0
 35 68  1  0  0  0
 36 56  1  0  0  0
 36105  1  0  0  0
 37 39  1  0  0  0
 37 47  1  0  0  0
 37 66  1  0  0  0
 37106  1  0  0  0
 38 43  2  0  0  0
 38 46  1  0  0  0
 38 47  1  0  0  0
 39 64  1  0  0  0
 39 67  2  0  0  0
 40 52  1  0  0  0
 40 53  2  0  0  0
 40 58  1  0  0  0
 41107  1  0  0  0
 41108  1  0  0  0
 41109  1  0  0  0
 41 48  1  0  0  0
 42 43  1  0  0  0
 42 66  1  0  0  0
 42110  1  0  0  0
 42111  1  0  0  0
 43 44  1  0  0  0
 44112  1  0  0  0
 45 46  2  0  0  0
 45113  1  0  0  0
 46114  1  0  0  0
 47115  1  0  0  0
 47116  1  0  0  0
 48 56  1  0  0  0
 48 65  1  0  0  0
 48117  1  0  0  0
 49 50  1  0  0  0
 49 53  1  0  0  0
 49 64  1  0  0  0
 49118  1  0  0  0
 50 51  1  0  0  0
 50119  1  0  0  0
 50120  1  0  0  0
 51 52  1  0  0  0
 51121  1  0  0  0
 51122  1  0  0  0
 52123  1  0  0  0
 52124  1  0  0  0
 53 54  1  0  0  0
 54 55  2  0  0  0
 54125  1  0  0  0
 55 57  1  0  0  0
 55126  1  0  0  0
 56 69  2  0  0  0
 57 58  2  0  0  0
 57127  1  0  0  0
 58128  1  0  0  0
 59 60  1  0  0  0
 59 61  1  0  0  0
 59 62  1  0  0  0
 60129  1  0  0  0
 60130  1  0  0  0
 60131  1  0  0  0
 61132  1  0  0  0
 61133  1  0  0  0
 61134  1  0  0  0
 62135  1  0  0  0
 62136  1  0  0  0
 62137  1  0  0  0
 63 65  1  0  0  0
 63138  1  0  0  0
 63139  1  0  0  0
 63140  1  0  0  0
 64141  1  0  0  0
 65142  1  0  0  0
 68 81  1  0  0  0
 71 73  2  0  0  0
 71 75  1  0  0  0
 71143  1  0  0  0
 72 75  2  0  0  0
 72 76  1  0  0  0
 72144  1  0  0  0
 73 74  1  0  0  0
 73 79  1  0  0  0
 74 76  2  0  0  0
 74 77  1  0  0  0
 75 80  1  0  0  0
 76 81  1  0  0  0
 77 78  1  0  0  0
 77145  1  0  0  0
 77146  1  0  0  0
 78 79  1  0  0  0
 78147  1  0  0  0
 78148  1  0  0  0
 79 83  1  0  0  0
 79149  1  0  0  0
 80 82  1  0  0  0
 80150  1  0  0  0
 80151  1  0  0  0
 81152  1  0  0  0
 81153  1  0  0  0
 82154  1  0  0  0
M  ISO  4   1 100  68 101  81 101  82 100
M  END
> <chiral flag>
0

> <version>
0

> <s_m_source_file>
/data/baiqing/PycharmProjects/Reinvent-master-3.2/result/LINK_invent/BTK/process_docking_weight1_custom_sum_contain_oxygen_bond_distance_aromatic_linkinvent_7_9_3/rearranged_h_0034.sdf

> <i_m_source_file_index>
1

> <r_mmod_Potential_Energy-OPLS-2005>
1449.09240722656

> <r_mmod_Stretch_Energy-OPLS-2005>
650.356689453125

> <r_mmod_Bend_Energy-OPLS-2005>
484.814971923828

> <r_mmod_Torsional_Energy-OPLS-2005>
266.483428955078

> <r_mmod_Improper_Torsional_Energy-OPLS-2005>
6.4079418182373

> <r_mmod_Van_der_Waal_Energy-OPLS-2005>
116.279365539551

> <r_mmod_Electrostatic_Energy-OPLS-2005>
-387.281646728516

> <r_mmod_Solvation_Energy-OPLS-2005>
-213.098678588867

> <b_mmod_Minimization_Converged-OPLS-2005>
0

> <r_mmod_RMS_Derivative-OPLS-2005>
3.08061695098877

$$$$
1
                    3D
 Structure written by MMmdl.
156164  0  0  1  0            999 V2000
  -30.5974  -14.8477   20.4241 C   0  0  0  0  0  0
  -30.4277  -12.5190   19.4891 C   0  0  0  0  0  0
  -29.5149  -12.5161   18.2437 C   0  0  0  0  0  0
  -28.0416  -12.3326   18.6546 C   0  0  0  0  0  0
  -27.6323  -13.2474   19.8405 C   0  0  2  0  0  0
  -28.6763  -13.2426   20.9770 C   0  0  0  0  0  0
  -25.2465  -13.8223   20.5709 C   0  0  0  0  0  0
  -24.1781  -13.0442   20.9221 C   0  0  0  0  0  0
  -24.6400  -11.6926   20.8747 C   0  0  0  0  0  0
  -23.9086  -10.4296   21.0399 C   0  0  0  0  0  0
  -24.3632   -9.4209   21.9179 C   0  0  0  0  0  0
  -23.6301   -8.2246   22.0752 C   0  0  0  0  0  0
  -22.4281   -8.0286   21.3545 C   0  0  0  0  0  0
  -21.9925   -9.0258   20.4644 C   0  0  0  0  0  0
  -22.7256  -10.2135   20.3048 C   0  0  0  0  0  0
  -21.6854   -6.0736   22.5275 C   0  0  0  0  0  0
  -21.4018   -6.5642   23.8210 C   0  0  0  0  0  0
  -21.3662   -5.6790   24.9173 C   0  0  0  0  0  0
  -21.6040   -4.3053   24.7221 C   0  0  0  0  0  0
  -21.8818   -3.8148   23.4344 C   0  0  0  0  0  0
  -21.9198   -4.6964   22.3400 C   0  0  0  0  0  0
  -22.7798  -13.5210   21.1877 C   0  0  0  0  0  0
  -22.1658   -4.2150   21.0976 F   0  0  0  0  0  0
  -21.5635   -3.4535   25.7736 F   0  0  0  0  0  0
  -29.9619  -13.6164   20.3786 N   0  0  0  0  0  0
  -26.2893  -12.9460   20.3250 N   0  0  0  0  0  0
  -25.9334  -11.6586   20.5731 N   0  0  0  0  0  0
  -22.0448  -12.8191   22.0430 N   0  0  0  0  0  0
  -25.4127  -15.1955   20.4138 N   0  0  0  0  0  0
  -31.8009  -14.8850   20.1542 O   0  0  0  0  0  0
  -21.6643   -6.8882   21.4238 O   0  0  0  0  0  0
  -22.3477  -14.5514   20.6726 O   0  0  0  0  0  0
  -24.6387  -31.8484   23.1896 C   0  0  0  0  0  0
  -25.9170  -32.4721   23.8287 C   0  0  1  0  0  0
  -27.2170  -27.1836   20.1411 C   0  0  0  0  0  0
  -25.5930  -33.8526   24.2206 N   0  0  0  0  0  0
  -23.4403  -30.4676   21.5345 C   0  0  2  0  0  0
  -24.8888  -28.9012   20.1069 C   0  0  0  0  0  0
  -22.7544  -29.4566   22.4873 C   0  0  0  0  0  0
  -18.0303  -28.1398   22.8491 C   0  0  0  0  0  0
  -24.1482  -36.7262   23.2641 C   0  0  0  0  0  0
  -25.9926  -30.7349   21.3830 C   0  0  0  0  0  0
  -26.0624  -29.3505   20.7251 C   0  0  0  0  0  0
  -27.2269  -28.5052   20.7284 C   0  0  0  0  0  0
  -26.0226  -26.8264   19.4784 C   0  0  0  0  0  0
  -24.8782  -27.6513   19.4702 C   0  0  0  0  0  0
  -23.6639  -29.7990   20.1519 C   0  0  0  0  0  0
  -25.4113  -36.3049   24.0325 C   0  0  1  0  0  0
  -20.5911  -28.3714   23.1250 C   0  0  2  0  0  0
  -20.6780  -26.9417   22.5411 C   0  0  0  0  0  0
  -19.5755  -26.6383   21.5217 C   0  0  0  0  0  0
  -18.1935  -26.7940   22.1628 C   0  0  0  0  0  0
  -19.1560  -28.8872   23.2862 C   0  0  0  0  0  0
  -18.9482  -30.1473   23.8887 C   0  0  0  0  0  0
  -17.6478  -30.6598   24.0572 C   0  0  0  0  0  0
  -25.9063  -34.9424   23.5075 C   0  0  0  0  0  0
  -16.5370  -29.9098   23.6337 C   0  0  0  0  0  0
  -16.7285  -28.6510   23.0362 C   0  0  0  0  0  0
  -26.4505  -31.6575   25.0721 C   0  0  0  0  0  0
  -25.3702  -31.3758   26.1426 C   0  0  0  0  0  0
  -27.0356  -30.2977   24.6265 C   0  0  0  0  0  0
  -27.6044  -32.4327   25.7510 C   0  0  0  0  0  0
  -27.5572  -37.1788   24.8473 C   0  0  0  0  0  0
  -21.4240  -29.3048   22.3634 N   0  0  0  0  0  0
  -26.4278  -37.3761   23.9420 N   0  0  0  0  0  0
  -24.7100  -31.0386   22.0907 N   0  0  0  0  0  0
  -23.4208  -28.8111   23.3006 O   0  0  0  0  0  0
  -28.2878  -26.2381   20.2280 O   0  0  0  0  0  0
  -26.5654  -34.8914   22.4656 O   0  0  0  0  0  0
  -23.5512  -32.1335   23.7140 O   0  0  0  0  0  0
  -28.7264  -19.5196   21.0665 C   0  0  0  0  0  0
  -30.4576  -19.9854   19.5326 C   0  0  0  0  0  0
  -29.8048  -18.9704   20.3006 C   0  0  0  0  0  0
  -28.3966  -20.9417   21.1076 C   0  0  0  0  0  0
  -29.1250  -21.9632   20.3873 C   0  0  0  0  0  0
  -30.1492  -21.3937   19.5647 C   0  0  0  0  0  0
  -27.6743  -21.4834   23.4777 C   0  0  0  0  0  0
  -27.2484  -21.3576   22.0111 C   0  0  0  0  0  0
  -29.0444  -23.5792   20.6757 C   0  0  0  0  0  0
  -30.4723  -17.4760   20.3533 C   0  0  0  0  0  0
  -28.0984  -24.7318   19.9682 C   0  0  0  0  0  0
  -29.8776  -16.0538   20.5417 N   0  0  0  0  0  0
  -31.1410  -22.4355   18.6067 Cl  0  0  0  0  0  0
  -31.4688  -12.6419   19.1860 H   0  0  0  0  0  0
  -30.3812  -11.5585   20.0051 H   0  0  0  0  0  0
  -29.8134  -11.7237   17.5559 H   0  0  0  0  0  0
  -29.6327  -13.4547   17.6995 H   0  0  0  0  0  0
  -27.9073  -11.2867   18.9310 H   0  0  0  0  0  0
  -27.3877  -12.5065   17.7990 H   0  0  0  0  0  0
  -27.6066  -14.2587   19.4343 H   0  0  0  0  0  0
  -28.7372  -12.2621   21.4514 H   0  0  0  0  0  0
  -28.3970  -13.9498   21.7594 H   0  0  0  0  0  0
  -25.2776   -9.5683   22.4755 H   0  0  0  0  0  0
  -24.0006   -7.4639   22.7475 H   0  0  0  0  0  0
  -21.0857   -8.8779   19.8949 H   0  0  0  0  0  0
  -22.3716  -10.9673   19.6156 H   0  0  0  0  0  0
  -21.2005   -7.6148   23.9713 H   0  0  0  0  0  0
  -21.1486   -6.0521   25.9076 H   0  0  0  0  0  0
  -22.0597   -2.7611   23.2839 H   0  0  0  0  0  0
  -22.4071  -11.9858   22.4820 H   0  0  0  0  0  0
  -21.1057  -13.1202   22.2619 H   0  0  0  0  0  0
  -24.6448  -15.8470   20.5328 H   0  0  0  0  0  0
  -26.2548  -15.6380   20.0692 H   0  0  0  0  0  0
  -26.7247  -32.5348   23.1028 H   0  0  0  0  0  0
  -25.0070  -33.9658   25.0350 H   0  0  0  0  0  0
  -22.7404  -31.2916   21.3825 H   0  0  0  0  0  0
  -23.3758  -35.9582   23.3305 H   0  0  0  0  0  0
  -24.3568  -36.8884   22.2055 H   0  0  0  0  0  0
  -23.7220  -37.6452   23.6675 H   0  0  0  0  0  0
  -26.1455  -31.4898   20.6109 H   0  0  0  0  0  0
  -26.8646  -30.7838   22.0232 H   0  0  0  0  0  0
  -28.1201  -28.8418   21.2350 H   0  0  0  0  0  0
  -25.9436  -25.8754   18.9749 H   0  0  0  0  0  0
  -23.9826  -27.3051   18.9730 H   0  0  0  0  0  0
  -23.7982  -30.5738   19.3959 H   0  0  0  0  0  0
  -22.7805  -29.2378   19.8420 H   0  0  0  0  0  0
  -25.1295  -36.1882   25.0818 H   0  0  0  0  0  0
  -21.0011  -28.3296   24.1366 H   0  0  0  0  0  0
  -20.5658  -26.2329   23.3627 H   0  0  0  0  0  0
  -21.6649  -26.7415   22.1220 H   0  0  0  0  0  0
  -19.6907  -25.6289   21.1258 H   0  0  0  0  0  0
  -19.6698  -27.3196   20.6745 H   0  0  0  0  0  0
  -17.4205  -26.6706   21.4022 H   0  0  0  0  0  0
  -18.0322  -26.0083   22.9020 H   0  0  0  0  0  0
  -19.7956  -30.7301   24.2245 H   0  0  0  0  0  0
  -17.5031  -31.6275   24.5179 H   0  0  0  0  0  0
  -15.5370  -30.3000   23.7654 H   0  0  0  0  0  0
  -15.8686  -28.0825   22.7080 H   0  0  0  0  0  0
  -24.5933  -30.7026   25.7788 H   0  0  0  0  0  0
  -24.8828  -32.2929   26.4743 H   0  0  0  0  0  0
  -25.8012  -30.9050   27.0272 H   0  0  0  0  0  0
  -26.2960  -29.6724   24.1258 H   0  0  0  0  0  0
  -27.3975  -29.7248   25.4815 H   0  0  0  0  0  0
  -27.8866  -30.4237   23.9572 H   0  0  0  0  0  0
  -27.2656  -33.3673   26.1994 H   0  0  0  0  0  0
  -28.3912  -32.6804   25.0373 H   0  0  0  0  0  0
  -28.0641  -31.8503   26.5501 H   0  0  0  0  0  0
  -28.2593  -38.0084   24.7518 H   0  0  0  0  0  0
  -28.1059  -36.2616   24.6297 H   0  0  0  0  0  0
  -27.2293  -37.1431   25.8875 H   0  0  0  0  0  0
  -20.9433  -29.8772   21.6839 H   0  0  0  0  0  0
  -26.0147  -38.2831   24.1425 H   0  0  0  0  0  0
  -28.1635  -18.8440   21.6959 H   0  0  0  0  0  0
  -31.2968  -19.6871   18.9210 H   0  0  0  0  0  0
  -26.8311  -21.7851   24.1002 H   0  0  0  0  0  0
  -28.4607  -22.2280   23.6032 H   0  0  0  0  0  0
  -28.0478  -20.5337   23.8615 H   0  0  0  0  0  0
  -26.4492  -20.6194   21.9256 H   0  0  0  0  0  0
  -26.8161  -22.2960   21.6619 H   0  0  0  0  0  0
  -30.0665  -23.9411   20.5747 H   0  0  0  0  0  0
  -28.8654  -23.6710   21.7462 H   0  0  0  0  0  0
  -31.2376  -17.5563   21.1263 H   0  0  0  0  0  0
  -31.0425  -17.4007   19.4258 H   0  0  0  0  0  0
  -27.0738  -24.4621   20.2216 H   0  0  0  0  0  0
  -28.1776  -24.6025   18.8886 H   0  0  0  0  0  0
  -28.8854  -15.9862   20.7070 H   0  0  0  0  0  0
  1 25  1  0  0  0
  1 30  2  0  0  0
  1 82  1  0  0  0
  2  3  1  0  0  0
  2 25  1  0  0  0
  2 84  1  0  0  0
  2 85  1  0  0  0
  3  4  1  0  0  0
  3 86  1  0  0  0
  3 87  1  0  0  0
  4  5  1  0  0  0
  4 88  1  0  0  0
  4 89  1  0  0  0
  5  6  1  0  0  0
  5 26  1  0  0  0
  5 90  1  0  0  0
  6 25  1  0  0  0
  6 91  1  0  0  0
  6 92  1  0  0  0
  7  8  2  0  0  0
  7 26  1  0  0  0
  7 29  1  0  0  0
  8  9  1  0  0  0
  8 22  1  0  0  0
  9 10  1  0  0  0
  9 27  2  0  0  0
 10 11  2  0  0  0
 10 15  1  0  0  0
 11 12  1  0  0  0
 11 93  1  0  0  0
 12 13  2  0  0  0
 12 94  1  0  0  0
 13 14  1  0  0  0
 13 31  1  0  0  0
 14 15  2  0  0  0
 14 95  1  0  0  0
 15 96  1  0  0  0
 16 17  2  0  0  0
 16 21  1  0  0  0
 16 31  1  0  0  0
 17 18  1  0  0  0
 17 97  1  0  0  0
 18 19  2  0  0  0
 18 98  1  0  0  0
 19 20  1  0  0  0
 19 24  1  0  0  0
 20 21  2  0  0  0
 20 99  1  0  0  0
 21 23  1  0  0  0
 22 28  1  0  0  0
 22 32  2  0  0  0
 26 27  1  0  0  0
 28100  1  0  0  0
 28101  1  0  0  0
 29102  1  0  0  0
 29103  1  0  0  0
 33 34  1  0  0  0
 33 66  1  0  0  0
 33 70  2  0  0  0
 34 36  1  0  0  0
 34 59  1  0  0  0
 34104  1  0  0  0
 35 44  2  0  0  0
 35 45  1  0  0  0
 35 68  1  0  0  0
 36 56  1  0  0  0
 36105  1  0  0  0
 37 39  1  0  0  0
 37 47  1  0  0  0
 37 66  1  0  0  0
 37106  1  0  0  0
 38 43  2  0  0  0
 38 46  1  0  0  0
 38 47  1  0  0  0
 39 64  1  0  0  0
 39 67  2  0  0  0
 40 52  1  0  0  0
 40 53  2  0  0  0
 40 58  1  0  0  0
 41107  1  0  0  0
 41108  1  0  0  0
 41109  1  0  0  0
 41 48  1  0  0  0
 42 43  1  0  0  0
 42 66  1  0  0  0
 42110  1  0  0  0
 42111  1  0  0  0
 43 44  1  0  0  0
 44112  1  0  0  0
 45 46  2  0  0  0
 45113  1  0  0  0
 46114  1  0  0  0
 47115  1  0  0  0
 47116  1  0  0  0
 48 56  1  0  0  0
 48 65  1  0  0  0
 48117  1  0  0  0
 49 50  1  0  0  0
 49 53  1  0  0  0
 49 64  1  0  0  0
 49118  1  0  0  0
 50 51  1  0  0  0
 50119  1  0  0  0
 50120  1  0  0  0
 51 52  1  0  0  0
 51121  1  0  0  0
 51122  1  0  0  0
 52123  1  0  0  0
 52124  1  0  0  0
 53 54  1  0  0  0
 54 55  2  0  0  0
 54125  1  0  0  0
 55 57  1  0  0  0
 55126  1  0  0  0
 56 69  2  0  0  0
 57 58  2  0  0  0
 57127  1  0  0  0
 58128  1  0  0  0
 59 60  1  0  0  0
 59 61  1  0  0  0
 59 62  1  0  0  0
 60129  1  0  0  0
 60130  1  0  0  0
 60131  1  0  0  0
 61132  1  0  0  0
 61133  1  0  0  0
 61134  1  0  0  0
 62135  1  0  0  0
 62136  1  0  0  0
 62137  1  0  0  0
 63 65  1  0  0  0
 63138  1  0  0  0
 63139  1  0  0  0
 63140  1  0  0  0
 64141  1  0  0  0
 65142  1  0  0  0
 68 81  1  0  0  0
 71 73  2  0  0  0
 71 74  1  0  0  0
 71143  1  0  0  0
 72 73  1  0  0  0
 72 76  2  0  0  0
 72144  1  0  0  0
 73 80  1  0  0  0
 74 75  2  0  0  0
 74 78  1  0  0  0
 75 76  1  0  0  0
 75 79  1  0  0  0
 76 83  1  0  0  0
 77 78  1  0  0  0
 77145  1  0  0  0
 77146  1  0  0  0
 77147  1  0  0  0
 78148  1  0  0  0
 78149  1  0  0  0
 79 81  1  0  0  0
 79150  1  0  0  0
 79151  1  0  0  0
 80 82  1  0  0  0
 80152  1  0  0  0
 80153  1  0  0  0
 81154  1  0  0  0
 81155  1  0  0  0
 82156  1  0  0  0
M  ISO  4   1 100  68 101  81 101  82 100
M  END
> <chiral flag>
0

> <version>
0

> <s_m_source_file>
/data/baiqing/PycharmProjects/Reinvent-master-3.2/result/LINK_invent/BTK/process_docking_weight1_custom_sum_contain_oxygen_bond_distance_aromatic_linkinvent_7_9_3/rearranged_h_0034.sdf

> <i_m_source_file_index>
2

> <r_mmod_Potential_Energy-OPLS-2005>
305.706939697266

> <r_mmod_Stretch_Energy-OPLS-2005>
184.672256469727

> <r_mmod_Bend_Energy-OPLS-2005>
244.100036621094

> <r_mmod_Torsional_Energy-OPLS-2005>
213.813522338867

> <r_mmod_Improper_Torsional_Energy-OPLS-2005>
7.86385488510132

> <r_mmod_Van_der_Waal_Energy-OPLS-2005>
134.273712158203

> <r_mmod_Electrostatic_Energy-OPLS-2005>
-412.726409912109

> <r_mmod_Solvation_Energy-OPLS-2005>
-206.181137084961

> <b_mmod_Minimization_Converged-OPLS-2005>
0

> <r_mmod_RMS_Derivative-OPLS-2005>
1.46582746505737

$$$$
2
                    3D
 Structure written by MMmdl.
155163  0  0  1  0            999 V2000
  -30.6453  -14.6791   20.4783 C   0  0  0  0  0  0
  -30.4366  -12.4126   19.4694 C   0  0  0  0  0  0
  -29.5160  -12.5141   18.2336 C   0  0  0  0  0  0
  -28.0386  -12.3469   18.6390 C   0  0  0  0  0  0
  -27.6499  -13.2315   19.8523 C   0  0  2  0  0  0
  -28.6948  -13.1427   20.9881 C   0  0  0  0  0  0
  -25.2550  -13.8206   20.5690 C   0  0  0  0  0  0
  -24.1828  -13.0444   20.9193 C   0  0  0  0  0  0
  -24.6424  -11.6926   20.8728 C   0  0  0  0  0  0
  -23.9086  -10.4297   21.0410 C   0  0  0  0  0  0
  -24.3633   -9.4198   21.9187 C   0  0  0  0  0  0
  -23.6299   -8.2238   22.0757 C   0  0  0  0  0  0
  -22.4279   -8.0288   21.3546 C   0  0  0  0  0  0
  -21.9928   -9.0261   20.4641 C   0  0  0  0  0  0
  -22.7266  -10.2140   20.3053 C   0  0  0  0  0  0
  -21.6845   -6.0734   22.5275 C   0  0  0  0  0  0
  -21.4017   -6.5640   23.8211 C   0  0  0  0  0  0
  -21.3663   -5.6789   24.9174 C   0  0  0  0  0  0
  -21.6045   -4.3054   24.7213 C   0  0  0  0  0  0
  -21.8823   -3.8146   23.4333 C   0  0  0  0  0  0
  -21.9204   -4.6965   22.3396 C   0  0  0  0  0  0
  -22.7842  -13.5226   21.1861 C   0  0  0  0  0  0
  -22.1673   -4.2152   21.0976 F   0  0  0  0  0  0
  -21.5626   -3.4540   25.7730 F   0  0  0  0  0  0
  -30.0129  -13.4607   20.4227 N   0  0  0  0  0  0
  -26.2987  -12.9413   20.3277 N   0  0  0  0  0  0
  -25.9357  -11.6556   20.5717 N   0  0  0  0  0  0
  -22.0499  -12.8190   22.0403 N   0  0  0  0  0  0
  -25.4233  -15.1929   20.4155 N   0  0  0  0  0  0
  -31.8144  -14.7706   20.0942 O   0  0  0  0  0  0
  -21.6635   -6.8892   21.4249 O   0  0  0  0  0  0
  -22.3528  -14.5537   20.6727 O   0  0  0  0  0  0
  -24.6297  -31.8594   23.2052 C   0  0  0  0  0  0
  -25.9147  -32.4764   23.8380 C   0  0  1  0  0  0
  -27.2258  -27.3024   20.1035 C   0  0  0  0  0  0
  -25.6014  -33.8580   24.2327 N   0  0  0  0  0  0
  -23.4234  -30.4847   21.5460 C   0  0  2  0  0  0
  -24.8710  -28.9417   20.1078 C   0  0  0  0  0  0
  -22.7499  -29.4615   22.4911 C   0  0  0  0  0  0
  -18.0299  -28.1354   22.8450 C   0  0  0  0  0  0
  -24.1524  -36.7268   23.2629 C   0  0  0  0  0  0
  -25.9701  -30.7770   21.3866 C   0  0  0  0  0  0
  -26.0406  -29.4076   20.7209 C   0  0  0  0  0  0
  -27.2180  -28.5974   20.7142 C   0  0  0  0  0  0
  -26.0348  -26.9119   19.4438 C   0  0  0  0  0  0
  -24.8703  -27.6996   19.4603 C   0  0  0  0  0  0
  -23.6421  -29.8253   20.1596 C   0  0  0  0  0  0
  -25.4148  -36.3070   24.0323 C   0  0  1  0  0  0
  -20.5899  -28.3687   23.1244 C   0  0  2  0  0  0
  -20.6804  -26.9409   22.5378 C   0  0  0  0  0  0
  -19.5791  -26.6355   21.5175 C   0  0  0  0  0  0
  -18.1965  -26.7899   22.1571 C   0  0  0  0  0  0
  -19.1544  -28.8835   23.2841 C   0  0  0  0  0  0
  -18.9465  -30.1434   23.8861 C   0  0  0  0  0  0
  -17.6463  -30.6554   24.0540 C   0  0  0  0  0  0
  -25.9075  -34.9441   23.5101 C   0  0  0  0  0  0
  -16.5357  -29.9040   23.6315 C   0  0  0  0  0  0
  -16.7279  -28.6454   23.0336 C   0  0  0  0  0  0
  -26.4546  -31.6560   25.0741 C   0  0  0  0  0  0
  -25.3800  -31.3671   26.1473 C   0  0  0  0  0  0
  -27.0409  -30.2990   24.6202 C   0  0  0  0  0  0
  -27.6112  -32.4289   25.7507 C   0  0  0  0  0  0
  -27.5603  -37.1798   24.8462 C   0  0  0  0  0  0
  -21.4201  -29.3051   22.3647 N   0  0  0  0  0  0
  -26.4321  -37.3766   23.9398 N   0  0  0  0  0  0
  -24.6921  -31.0588   22.1008 N   0  0  0  0  0  0
  -23.4222  -28.8152   23.2996 O   0  0  0  0  0  0
  -28.3311  -26.4262   20.1779 O   0  0  0  0  0  0
  -26.5582  -34.8879   22.4629 O   0  0  0  0  0  0
  -23.5447  -32.1409   23.7361 O   0  0  0  0  0  0
  -28.9929  -20.6607   21.6109 C   0  0  0  0  0  0
  -29.8399  -18.8164   20.4835 C   0  0  0  0  0  0
  -29.3858  -19.3521   21.7285 C   0  0  0  0  0  0
  -29.7224  -19.9193   19.6294 C   0  0  0  0  0  0
  -30.0715  -20.0130   18.1732 C   0  0  0  0  0  0
  -30.4122  -17.3754   20.1515 C   0  0  0  0  0  0
  -29.9012  -16.0320   20.8690 C   0  0  0  0  0  0
  -29.0288  -23.7907   20.3745 C   0  0  0  0  0  0
  -28.7269  -22.3723   19.6947 C   0  0  0  0  0  0
  -28.1388  -24.9950   19.8068 C   0  0  0  0  0  0
  -29.1836  -21.0566   20.2972 N   0  0  0  0  0  0
  -29.3230  -18.4812   23.2163 Cl  0  0  0  0  0  0
  -31.4805  -12.5204   19.1674 H   0  0  0  0  0  0
  -30.3621  -11.4291   19.9333 H   0  0  0  0  0  0
  -29.7886  -11.7600   17.4934 H   0  0  0  0  0  0
  -29.6561  -13.4824   17.7493 H   0  0  0  0  0  0
  -27.8795  -11.2957   18.8802 H   0  0  0  0  0  0
  -27.3888  -12.5666   17.7913 H   0  0  0  0  0  0
  -27.6506  -14.2565   19.4846 H   0  0  0  0  0  0
  -28.7037  -12.1446   21.4277 H   0  0  0  0  0  0
  -28.4390  -13.8278   21.7966 H   0  0  0  0  0  0
  -25.2795   -9.5651   22.4742 H   0  0  0  0  0  0
  -24.0012   -7.4618   22.7459 H   0  0  0  0  0  0
  -21.0869   -8.8789   19.8927 H   0  0  0  0  0  0
  -22.3758  -10.9675   19.6142 H   0  0  0  0  0  0
  -21.2005   -7.6150   23.9723 H   0  0  0  0  0  0
  -21.1486   -6.0513   25.9080 H   0  0  0  0  0  0
  -22.0604   -2.7601   23.2830 H   0  0  0  0  0  0
  -22.4142  -11.9870   22.4799 H   0  0  0  0  0  0
  -21.1108  -13.1181   22.2619 H   0  0  0  0  0  0
  -24.6585  -15.8487   20.5373 H   0  0  0  0  0  0
  -26.2834  -15.6396   20.1202 H   0  0  0  0  0  0
  -26.7210  -32.5430   23.1114 H   0  0  0  0  0  0
  -25.0388  -33.9771   25.0623 H   0  0  0  0  0  0
  -22.7171  -31.3053   21.4031 H   0  0  0  0  0  0
  -23.3796  -35.9584   23.3262 H   0  0  0  0  0  0
  -24.3631  -36.8919   22.2046 H   0  0  0  0  0  0
  -23.7248  -37.6453   23.6661 H   0  0  0  0  0  0
  -26.1243  -31.5426   20.6253 H   0  0  0  0  0  0
  -26.8423  -30.8118   22.0273 H   0  0  0  0  0  0
  -28.1111  -28.9444   21.2161 H   0  0  0  0  0  0
  -25.9637  -25.9800   18.9063 H   0  0  0  0  0  0
  -23.9789  -27.3464   18.9587 H   0  0  0  0  0  0
  -23.7721  -30.6050   19.4085 H   0  0  0  0  0  0
  -22.7604  -29.2635   19.8460 H   0  0  0  0  0  0
  -25.1321  -36.1926   25.0812 H   0  0  0  0  0  0
  -20.9993  -28.3260   24.1361 H   0  0  0  0  0  0
  -20.5730  -26.2291   23.3576 H   0  0  0  0  0  0
  -21.6676  -26.7462   22.1168 H   0  0  0  0  0  0
  -19.6988  -25.6260   21.1227 H   0  0  0  0  0  0
  -19.6735  -27.3132   20.6687 H   0  0  0  0  0  0
  -17.4252  -26.6622   21.3964 H   0  0  0  0  0  0
  -18.0379  -26.0027   22.8958 H   0  0  0  0  0  0
  -19.7946  -30.7248   24.2232 H   0  0  0  0  0  0
  -17.5012  -31.6234   24.5145 H   0  0  0  0  0  0
  -15.5353  -30.2932   23.7647 H   0  0  0  0  0  0
  -15.8680  -28.0761   22.7074 H   0  0  0  0  0  0
  -24.5972  -30.7024   25.7789 H   0  0  0  0  0  0
  -24.8998  -32.2826   26.4938 H   0  0  0  0  0  0
  -25.8149  -30.8815   27.0220 H   0  0  0  0  0  0
  -26.2982  -29.6695   24.1281 H   0  0  0  0  0  0
  -27.4184  -29.7273   25.4692 H   0  0  0  0  0  0
  -27.8822  -30.4280   23.9386 H   0  0  0  0  0  0
  -27.2745  -33.3592   26.2091 H   0  0  0  0  0  0
  -28.3919  -32.6850   25.0331 H   0  0  0  0  0  0
  -28.0786  -31.8414   26.5424 H   0  0  0  0  0  0
  -28.2584  -38.0135   24.7559 H   0  0  0  0  0  0
  -28.1143  -36.2664   24.6240 H   0  0  0  0  0  0
  -27.2321  -37.1376   25.8865 H   0  0  0  0  0  0
  -20.9392  -29.8764   21.6826 H   0  0  0  0  0  0
  -26.0191  -38.2837   24.1399 H   0  0  0  0  0  0
  -28.5722  -21.3361   22.3431 H   0  0  0  0  0  0
  -30.6014  -19.1273   17.8220 H   0  0  0  0  0  0
  -30.7214  -20.8652   17.9783 H   0  0  0  0  0  0
  -29.1764  -20.1261   17.5611 H   0  0  0  0  0  0
  -31.4912  -17.4458   20.2902 H   0  0  0  0  0  0
  -30.2804  -17.2256   19.0798 H   0  0  0  0  0  0
  -28.8340  -15.9229   20.6762 H   0  0  0  0  0  0
  -30.0072  -16.1356   21.9465 H   0  0  0  0  0  0
  -30.0841  -24.0252   20.2386 H   0  0  0  0  0  0
  -28.8725  -23.7215   21.4508 H   0  0  0  0  0  0
  -29.0818  -22.4247   18.6654 H   0  0  0  0  0  0
  -27.6435  -22.2852   19.6041 H   0  0  0  0  0  0
  -27.1294  -24.6980   20.0836 H   0  0  0  0  0  0
  -28.1830  -24.9530   18.7184 H   0  0  0  0  0  0
  1 25  1  0  0  0
  1 30  2  0  0  0
  1 77  1  0  0  0
  2  3  1  0  0  0
  2 25  1  0  0  0
  2 83  1  0  0  0
  2 84  1  0  0  0
  3  4  1  0  0  0
  3 85  1  0  0  0
  3 86  1  0  0  0
  4  5  1  0  0  0
  4 87  1  0  0  0
  4 88  1  0  0  0
  5  6  1  0  0  0
  5 26  1  0  0  0
  5 89  1  0  0  0
  6 25  1  0  0  0
  6 90  1  0  0  0
  6 91  1  0  0  0
  7  8  2  0  0  0
  7 26  1  0  0  0
  7 29  1  0  0  0
  8  9  1  0  0  0
  8 22  1  0  0  0
  9 10  1  0  0  0
  9 27  2  0  0  0
 10 11  2  0  0  0
 10 15  1  0  0  0
 11 12  1  0  0  0
 11 92  1  0  0  0
 12 13  2  0  0  0
 12 93  1  0  0  0
 13 14  1  0  0  0
 13 31  1  0  0  0
 14 15  2  0  0  0
 14 94  1  0  0  0
 15 95  1  0  0  0
 16 17  2  0  0  0
 16 21  1  0  0  0
 16 31  1  0  0  0
 17 18  1  0  0  0
 17 96  1  0  0  0
 18 19  2  0  0  0
 18 97  1  0  0  0
 19 20  1  0  0  0
 19 24  1  0  0  0
 20 21  2  0  0  0
 20 98  1  0  0  0
 21 23  1  0  0  0
 22 28  1  0  0  0
 22 32  2  0  0  0
 26 27  1  0  0  0
 28 99  1  0  0  0
 28100  1  0  0  0
 29101  1  0  0  0
 29102  1  0  0  0
 33 34  1  0  0  0
 33 66  1  0  0  0
 33 70  2  0  0  0
 34 36  1  0  0  0
 34 59  1  0  0  0
 34103  1  0  0  0
 35 44  2  0  0  0
 35 45  1  0  0  0
 35 68  1  0  0  0
 36 56  1  0  0  0
 36104  1  0  0  0
 37 39  1  0  0  0
 37 47  1  0  0  0
 37 66  1  0  0  0
 37105  1  0  0  0
 38 43  2  0  0  0
 38 46  1  0  0  0
 38 47  1  0  0  0
 39 64  1  0  0  0
 39 67  2  0  0  0
 40 52  1  0  0  0
 40 53  2  0  0  0
 40 58  1  0  0  0
 41106  1  0  0  0
 41107  1  0  0  0
 41108  1  0  0  0
 41 48  1  0  0  0
 42 43  1  0  0  0
 42 66  1  0  0  0
 42109  1  0  0  0
 42110  1  0  0  0
 43 44  1  0  0  0
 44111  1  0  0  0
 45 46  2  0  0  0
 45112  1  0  0  0
 46113  1  0  0  0
 47114  1  0  0  0
 47115  1  0  0  0
 48 56  1  0  0  0
 48 65  1  0  0  0
 48116  1  0  0  0
 49 50  1  0  0  0
 49 53  1  0  0  0
 49 64  1  0  0  0
 49117  1  0  0  0
 50 51  1  0  0  0
 50118  1  0  0  0
 50119  1  0  0  0
 51 52  1  0  0  0
 51120  1  0  0  0
 51121  1  0  0  0
 52122  1  0  0  0
 52123  1  0  0  0
 53 54  1  0  0  0
 54 55  2  0  0  0
 54124  1  0  0  0
 55 57  1  0  0  0
 55125  1  0  0  0
 56 69  2  0  0  0
 57 58  2  0  0  0
 57126  1  0  0  0
 58127  1  0  0  0
 59 60  1  0  0  0
 59 61  1  0  0  0
 59 62  1  0  0  0
 60128  1  0  0  0
 60129  1  0  0  0
 60130  1  0  0  0
 61131  1  0  0  0
 61132  1  0  0  0
 61133  1  0  0  0
 62134  1  0  0  0
 62135  1  0  0  0
 62136  1  0  0  0
 63 65  1  0  0  0
 63137  1  0  0  0
 63138  1  0  0  0
 63139  1  0  0  0
 64140  1  0  0  0
 65141  1  0  0  0
 68 80  1  0  0  0
 71 73  2  0  0  0
 71 81  1  0  0  0
 71142  1  0  0  0
 72 73  1  0  0  0
 72 74  2  0  0  0
 72 76  1  0  0  0
 73 82  1  0  0  0
 74 75  1  0  0  0
 74 81  1  0  0  0
 75143  1  0  0  0
 75144  1  0  0  0
 75145  1  0  0  0
 76 77  1  0  0  0
 76146  1  0  0  0
 76147  1  0  0  0
 77148  1  0  0  0
 77149  1  0  0  0
 78 79  1  0  0  0
 78 80  1  0  0  0
 78150  1  0  0  0
 78151  1  0  0  0
 79 81  1  0  0  0
 79152  1  0  0  0
 79153  1  0  0  0
 80154  1  0  0  0
 80155  1  0  0  0
M  ISO  4   1 100  68 101  77 100  80 101
M  END
> <chiral flag>
0

> <version>
0

> <s_m_source_file>
/data/baiqing/PycharmProjects/Reinvent-master-3.2/result/LINK_invent/BTK/process_docking_weight1_custom_sum_contain_oxygen_bond_distance_aromatic_linkinvent_7_9_3/rearranged_h_0034.sdf

> <i_m_source_file_index>
3

> <r_mmod_Potential_Energy-OPLS-2005>
78.885139465332

> <r_mmod_Stretch_Energy-OPLS-2005>
96.4302291870117

> <r_mmod_Bend_Energy-OPLS-2005>
156.299957275391

> <r_mmod_Torsional_Energy-OPLS-2005>
185.44352722168

> <r_mmod_Improper_Torsional_Energy-OPLS-2005>
3.98812866210938

> <r_mmod_Van_der_Waal_Energy-OPLS-2005>
121.1689453125

> <r_mmod_Electrostatic_Energy-OPLS-2005>
-347.513793945312

> <r_mmod_Solvation_Energy-OPLS-2005>
-198.494827270508

> <b_mmod_Minimization_Converged-OPLS-2005>
0

> <r_mmod_RMS_Derivative-OPLS-2005>
2.49133586883545

$$$$
3
                    3D
 Structure written by MMmdl.
156164  0  0  1  0            999 V2000
  -30.6367  -14.6647   20.4683 C   0  0  0  0  0  0
  -30.4332  -12.4040   19.4655 C   0  0  0  0  0  0
  -29.5123  -12.5299   18.2304 C   0  0  0  0  0  0
  -28.0330  -12.3653   18.6321 C   0  0  0  0  0  0
  -27.6538  -13.2289   19.8657 C   0  0  2  0  0  0
  -28.7008  -13.1059   20.9995 C   0  0  0  0  0  0
  -25.2572  -13.8181   20.5726 C   0  0  0  0  0  0
  -24.1839  -13.0440   20.9198 C   0  0  0  0  0  0
  -24.6405  -11.6912   20.8731 C   0  0  0  0  0  0
  -23.9079  -10.4300   21.0398 C   0  0  0  0  0  0
  -24.3625   -9.4214   21.9185 C   0  0  0  0  0  0
  -23.6307   -8.2249   22.0743 C   0  0  0  0  0  0
  -22.4284   -8.0294   21.3549 C   0  0  0  0  0  0
  -21.9931   -9.0262   20.4644 C   0  0  0  0  0  0
  -22.7245  -10.2143   20.3048 C   0  0  0  0  0  0
  -21.6858   -6.0747   22.5283 C   0  0  0  0  0  0
  -21.4008   -6.5649   23.8215 C   0  0  0  0  0  0
  -21.3647   -5.6794   24.9181 C   0  0  0  0  0  0
  -21.6034   -4.3063   24.7227 C   0  0  0  0  0  0
  -21.8817   -3.8153   23.4355 C   0  0  0  0  0  0
  -21.9197   -4.6974   22.3408 C   0  0  0  0  0  0
  -22.7864  -13.5248   21.1866 C   0  0  0  0  0  0
  -22.1673   -4.2157   21.0994 F   0  0  0  0  0  0
  -21.5626   -3.4541   25.7743 F   0  0  0  0  0  0
  -30.0182  -13.4405   20.4353 N   0  0  0  0  0  0
  -26.3000  -12.9384   20.3333 N   0  0  0  0  0  0
  -25.9346  -11.6524   20.5738 N   0  0  0  0  0  0
  -22.0501  -12.8230   22.0406 N   0  0  0  0  0  0
  -25.4281  -15.1910   20.4181 N   0  0  0  0  0  0
  -31.8012  -14.7979   20.0792 O   0  0  0  0  0  0
  -21.6641   -6.8892   21.4250 O   0  0  0  0  0  0
  -22.3558  -14.5550   20.6698 O   0  0  0  0  0  0
  -24.6290  -31.8575   23.1954 C   0  0  0  0  0  0
  -25.9130  -32.4749   23.8299 C   0  0  1  0  0  0
  -27.2306  -27.2842   20.1292 C   0  0  0  0  0  0
  -25.5946  -33.8547   24.2249 N   0  0  0  0  0  0
  -23.4252  -30.4748   21.5384 C   0  0  2  0  0  0
  -24.8758  -28.9285   20.1033 C   0  0  0  0  0  0
  -22.7490  -29.4598   22.4915 C   0  0  0  0  0  0
  -18.0288  -28.1395   22.8503 C   0  0  0  0  0  0
  -24.1469  -36.7261   23.2637 C   0  0  0  0  0  0
  -25.9676  -30.7749   21.3746 C   0  0  0  0  0  0
  -26.0427  -29.3991   20.7193 C   0  0  0  0  0  0
  -27.2194  -28.5872   20.7258 C   0  0  0  0  0  0
  -26.0424  -26.8819   19.4739 C   0  0  0  0  0  0
  -24.8806  -27.6768   19.4697 C   0  0  0  0  0  0
  -23.6426  -29.8079   20.1540 C   0  0  0  0  0  0
  -25.4087  -36.3058   24.0343 C   0  0  1  0  0  0
  -20.5890  -28.3678   23.1290 C   0  0  2  0  0  0
  -20.6766  -26.9399   22.5424 C   0  0  0  0  0  0
  -19.5737  -26.6403   21.5217 C   0  0  0  0  0  0
  -18.1921  -26.7945   22.1640 C   0  0  0  0  0  0
  -19.1543  -28.8860   23.2895 C   0  0  0  0  0  0
  -18.9471  -30.1465   23.8908 C   0  0  0  0  0  0
  -17.6474  -30.6607   24.0560 C   0  0  0  0  0  0
  -25.9048  -34.9440   23.5085 C   0  0  0  0  0  0
  -16.5359  -29.9110   23.6339 C   0  0  0  0  0  0
  -16.7279  -28.6523   23.0369 C   0  0  0  0  0  0
  -26.4476  -31.6564   25.0696 C   0  0  0  0  0  0
  -25.3706  -31.3732   26.1432 C   0  0  0  0  0  0
  -27.0284  -30.2970   24.6158 C   0  0  0  0  0  0
  -27.6047  -32.4284   25.7489 C   0  0  0  0  0  0
  -27.5555  -37.1783   24.8471 C   0  0  0  0  0  0
  -21.4201  -29.3024   22.3674 N   0  0  0  0  0  0
  -26.4257  -37.3772   23.9431 N   0  0  0  0  0  0
  -24.6919  -31.0549   22.0928 N   0  0  0  0  0  0
  -23.4187  -28.8163   23.3044 O   0  0  0  0  0  0
  -28.3357  -26.4084   20.2051 O   0  0  0  0  0  0
  -26.5618  -34.8943   22.4660 O   0  0  0  0  0  0
  -23.5458  -32.1411   23.7260 O   0  0  0  0  0  0
  -30.8551  -18.5836   21.8181 C   0  0  0  0  0  0
  -30.0137  -18.4817   20.7026 C   0  0  0  0  0  0
  -29.6312  -21.0100   20.8195 C   0  0  0  0  0  0
  -30.5638  -21.0442   21.9061 C   0  0  0  0  0  0
  -29.3940  -19.7025   20.2361 C   0  0  0  0  0  0
  -31.1326  -19.8330   22.4057 C   0  0  0  0  0  0
  -31.0007  -22.3639   22.5282 C   0  0  0  0  0  0
  -28.8306  -22.2798   20.2517 C   0  0  0  0  0  0
  -29.9069  -17.0955   19.9635 C   0  0  0  0  0  0
  -29.1418  -23.8405   20.5494 C   0  0  0  0  0  0
  -28.1255  -24.9439   19.9779 C   0  0  0  0  0  0
  -29.8454  -15.7651   20.6898 N   0  0  0  0  0  0
  -28.5400  -19.6144   19.1896 F   0  0  0  0  0  0
  -32.2220  -19.8169   23.7511 Cl  0  0  0  0  0  0
  -31.4777  -12.5124   19.1658 H   0  0  0  0  0  0
  -30.3537  -11.4118   19.9114 H   0  0  0  0  0  0
  -29.7862  -11.7943   17.4732 H   0  0  0  0  0  0
  -29.6537  -13.5082   17.7671 H   0  0  0  0  0  0
  -27.8603  -11.3102   18.8489 H   0  0  0  0  0  0
  -27.3867  -12.6153   17.7883 H   0  0  0  0  0  0
  -27.6639  -14.2624   19.5199 H   0  0  0  0  0  0
  -28.7139  -12.0910   21.3983 H   0  0  0  0  0  0
  -28.4500  -13.7584   21.8382 H   0  0  0  0  0  0
  -25.2763   -9.5705   22.4770 H   0  0  0  0  0  0
  -24.0012   -7.4646   22.7466 H   0  0  0  0  0  0
  -21.0853   -8.8771   19.8971 H   0  0  0  0  0  0
  -22.3680  -10.9687   19.6165 H   0  0  0  0  0  0
  -21.1981   -7.6150   23.9723 H   0  0  0  0  0  0
  -21.1475   -6.0531   25.9086 H   0  0  0  0  0  0
  -22.0603   -2.7621   23.2850 H   0  0  0  0  0  0
  -22.4098  -11.9889   22.4787 H   0  0  0  0  0  0
  -21.1115  -13.1276   22.2574 H   0  0  0  0  0  0
  -24.6662  -15.8494   20.5391 H   0  0  0  0  0  0
  -26.2739  -15.6324   20.0834 H   0  0  0  0  0  0
  -26.7204  -32.5405   23.1051 H   0  0  0  0  0  0
  -25.0080  -33.9654   25.0380 H   0  0  0  0  0  0
  -22.7201  -31.2944   21.3891 H   0  0  0  0  0  0
  -23.3755  -35.9572   23.3313 H   0  0  0  0  0  0
  -24.3554  -36.8861   22.2044 H   0  0  0  0  0  0
  -23.7215  -37.6471   23.6644 H   0  0  0  0  0  0
  -26.0967  -31.5343   20.6017 H   0  0  0  0  0  0
  -26.8503  -30.8259   22.0017 H   0  0  0  0  0  0
  -28.1076  -28.9378   21.2344 H   0  0  0  0  0  0
  -25.9843  -25.9278   18.9712 H   0  0  0  0  0  0
  -23.9925  -27.3113   18.9699 H   0  0  0  0  0  0
  -23.7530  -30.5808   19.3927 H   0  0  0  0  0  0
  -22.7679  -29.2273   19.8543 H   0  0  0  0  0  0
  -25.1264  -36.1889   25.0843 H   0  0  0  0  0  0
  -20.9958  -28.3254   24.1415 H   0  0  0  0  0  0
  -20.5625  -26.2285   23.3609 H   0  0  0  0  0  0
  -21.6632  -26.7411   22.1217 H   0  0  0  0  0  0
  -19.6870  -25.6314   21.1230 H   0  0  0  0  0  0
  -19.6682  -27.3230   20.6751 H   0  0  0  0  0  0
  -17.4176  -26.6702   21.4059 H   0  0  0  0  0  0
  -18.0333  -26.0091   22.9039 H   0  0  0  0  0  0
  -19.7949  -30.7276   24.2284 H   0  0  0  0  0  0
  -17.5039  -31.6283   24.5152 H   0  0  0  0  0  0
  -15.5361  -30.3012   23.7667 H   0  0  0  0  0  0
  -15.8679  -28.0834   22.7091 H   0  0  0  0  0  0
  -24.5930  -30.6986   25.7814 H   0  0  0  0  0  0
  -24.8820  -32.2891   26.4778 H   0  0  0  0  0  0
  -25.8070  -30.9026   27.0250 H   0  0  0  0  0  0
  -26.2848  -29.6789   24.1110 H   0  0  0  0  0  0
  -27.3866  -29.7169   25.4666 H   0  0  0  0  0  0
  -27.8779  -30.4218   23.9437 H   0  0  0  0  0  0
  -27.2673  -33.3620   26.2002 H   0  0  0  0  0  0
  -28.3924  -32.6765   25.0363 H   0  0  0  0  0  0
  -28.0614  -31.8418   26.5465 H   0  0  0  0  0  0
  -28.2586  -38.0068   24.7533 H   0  0  0  0  0  0
  -28.1047  -36.2616   24.6287 H   0  0  0  0  0  0
  -27.2286  -37.1418   25.8876 H   0  0  0  0  0  0
  -20.9395  -29.8730   21.6855 H   0  0  0  0  0  0
  -26.0141  -38.2844   24.1478 H   0  0  0  0  0  0
  -31.3374  -17.6945   22.2010 H   0  0  0  0  0  0
  -31.3702  -23.0207   21.7427 H   0  0  0  0  0  0
  -31.8252  -22.2825   23.2324 H   0  0  0  0  0  0
  -30.1821  -22.8370   23.0662 H   0  0  0  0  0  0
  -27.7939  -22.1096   20.5441 H   0  0  0  0  0  0
  -28.8232  -22.1669   19.1673 H   0  0  0  0  0  0
  -30.7614  -17.0630   19.2852 H   0  0  0  0  0  0
  -29.0368  -17.1379   19.3071 H   0  0  0  0  0  0
  -30.1397  -24.0764   20.1806 H   0  0  0  0  0  0
  -29.1449  -24.0003   21.6237 H   0  0  0  0  0  0
  -27.1531  -24.6684   20.3883 H   0  0  0  0  0  0
  -28.0488  -24.7985   18.9014 H   0  0  0  0  0  0
  -28.9407  -15.5368   21.0729 H   0  0  0  0  0  0
  1 25  1  0  0  0
  1 30  2  0  0  0
  1 82  1  0  0  0
  2  3  1  0  0  0
  2 25  1  0  0  0
  2 85  1  0  0  0
  2 86  1  0  0  0
  3  4  1  0  0  0
  3 87  1  0  0  0
  3 88  1  0  0  0
  4  5  1  0  0  0
  4 89  1  0  0  0
  4 90  1  0  0  0
  5  6  1  0  0  0
  5 26  1  0  0  0
  5 91  1  0  0  0
  6 25  1  0  0  0
  6 92  1  0  0  0
  6 93  1  0  0  0
  7  8  2  0  0  0
  7 26  1  0  0  0
  7 29  1  0  0  0
  8  9  1  0  0  0
  8 22  1  0  0  0
  9 10  1  0  0  0
  9 27  2  0  0  0
 10 11  2  0  0  0
 10 15  1  0  0  0
 11 12  1  0  0  0
 11 94  1  0  0  0
 12 13  2  0  0  0
 12 95  1  0  0  0
 13 14  1  0  0  0
 13 31  1  0  0  0
 14 15  2  0  0  0
 14 96  1  0  0  0
 15 97  1  0  0  0
 16 17  2  0  0  0
 16 21  1  0  0  0
 16 31  1  0  0  0
 17 18  1  0  0  0
 17 98  1  0  0  0
 18 19  2  0  0  0
 18 99  1  0  0  0
 19 20  1  0  0  0
 19 24  1  0  0  0
 20 21  2  0  0  0
 20100  1  0  0  0
 21 23  1  0  0  0
 22 28  1  0  0  0
 22 32  2  0  0  0
 26 27  1  0  0  0
 28101  1  0  0  0
 28102  1  0  0  0
 29103  1  0  0  0
 29104  1  0  0  0
 33 34  1  0  0  0
 33 66  1  0  0  0
 33 70  2  0  0  0
 34 36  1  0  0  0
 34 59  1  0  0  0
 34105  1  0  0  0
 35 44  2  0  0  0
 35 45  1  0  0  0
 35 68  1  0  0  0
 36 56  1  0  0  0
 36106  1  0  0  0
 37 39  1  0  0  0
 37 47  1  0  0  0
 37 66  1  0  0  0
 37107  1  0  0  0
 38 43  2  0  0  0
 38 46  1  0  0  0
 38 47  1  0  0  0
 39 64  1  0  0  0
 39 67  2  0  0  0
 40 52  1  0  0  0
 40 53  2  0  0  0
 40 58  1  0  0  0
 41108  1  0  0  0
 41109  1  0  0  0
 41110  1  0  0  0
 41 48  1  0  0  0
 42 43  1  0  0  0
 42 66  1  0  0  0
 42111  1  0  0  0
 42112  1  0  0  0
 43 44  1  0  0  0
 44113  1  0  0  0
 45 46  2  0  0  0
 45114  1  0  0  0
 46115  1  0  0  0
 47116  1  0  0  0
 47117  1  0  0  0
 48 56  1  0  0  0
 48 65  1  0  0  0
 48118  1  0  0  0
 49 50  1  0  0  0
 49 53  1  0  0  0
 49 64  1  0  0  0
 49119  1  0  0  0
 50 51  1  0  0  0
 50120  1  0  0  0
 50121  1  0  0  0
 51 52  1  0  0  0
 51122  1  0  0  0
 51123  1  0  0  0
 52124  1  0  0  0
 52125  1  0  0  0
 53 54  1  0  0  0
 54 55  2  0  0  0
 54126  1  0  0  0
 55 57  1  0  0  0
 55127  1  0  0  0
 56 69  2  0  0  0
 57 58  2  0  0  0
 57128  1  0  0  0
 58129  1  0  0  0
 59 60  1  0  0  0
 59 61  1  0  0  0
 59 62  1  0  0  0
 60130  1  0  0  0
 60131  1  0  0  0
 60132  1  0  0  0
 61133  1  0  0  0
 61134  1  0  0  0
 61135  1  0  0  0
 62136  1  0  0  0
 62137  1  0  0  0
 62138  1  0  0  0
 63 65  1  0  0  0
 63139  1  0  0  0
 63140  1  0  0  0
 63141  1  0  0  0
 64142  1  0  0  0
 65143  1  0  0  0
 68 81  1  0  0  0
 71 72  2  0  0  0
 71 76  1  0  0  0
 71144  1  0  0  0
 72 75  1  0  0  0
 72 79  1  0  0  0
 73 74  1  0  0  0
 73 75  2  0  0  0
 73 78  1  0  0  0
 74 76  2  0  0  0
 74 77  1  0  0  0
 75 83  1  0  0  0
 76 84  1  0  0  0
 77145  1  0  0  0
 77146  1  0  0  0
 77147  1  0  0  0
 78 80  1  0  0  0
 78148  1  0  0  0
 78149  1  0  0  0
 79 82  1  0  0  0
 79150  1  0  0  0
 79151  1  0  0  0
 80 81  1  0  0  0
 80152  1  0  0  0
 80153  1  0  0  0
 81154  1  0  0  0
 81155  1  0  0  0
 82156  1  0  0  0
M  ISO  4   1 100  68 101  81 101  82 100
M  END
> <chiral flag>
0

> <version>
0

> <s_m_source_file>
/data/baiqing/PycharmProjects/Reinvent-master-3.2/result/LINK_invent/BTK/process_docking_weight1_custom_sum_contain_oxygen_bond_distance_aromatic_linkinvent_7_9_3/rearranged_h_0034.sdf

> <i_m_source_file_index>
4

> <r_mmod_Potential_Energy-OPLS-2005>
95.8432846069336

> <r_mmod_Stretch_Energy-OPLS-2005>
107.103637695312

> <r_mmod_Bend_Energy-OPLS-2005>
162.357940673828

> <r_mmod_Torsional_Energy-OPLS-2005>
214.364822387695

> <r_mmod_Improper_Torsional_Energy-OPLS-2005>
8.43815422058105

> <r_mmod_Van_der_Waal_Energy-OPLS-2005>
151.051956176758

> <r_mmod_Electrostatic_Energy-OPLS-2005>
-404.895385742188

> <r_mmod_Solvation_Energy-OPLS-2005>
-204.681228637695

> <b_mmod_Minimization_Converged-OPLS-2005>
0

> <r_mmod_RMS_Derivative-OPLS-2005>
3.19845700263977

$$$$
4
                    3D
 Structure written by MMmdl.
155163  0  0  1  0            999 V2000
  -30.5272  -14.9773   20.4228 C   0  0  0  0  0  0
  -30.4398  -12.6089   19.5018 C   0  0  0  0  0  0
  -29.5222  -12.5332   18.2589 C   0  0  0  0  0  0
  -28.0561  -12.3141   18.6769 C   0  0  0  0  0  0
  -27.6270  -13.2501   19.8370 C   0  0  2  0  0  0
  -28.6680  -13.2893   20.9754 C   0  0  0  0  0  0
  -25.2449  -13.8216   20.5713 C   0  0  0  0  0  0
  -24.1770  -13.0437   20.9233 C   0  0  0  0  0  0
  -24.6390  -11.6924   20.8755 C   0  0  0  0  0  0
  -23.9077  -10.4292   21.0408 C   0  0  0  0  0  0
  -24.3625   -9.4207   21.9185 C   0  0  0  0  0  0
  -23.6298   -8.2242   22.0753 C   0  0  0  0  0  0
  -22.4280   -8.0280   21.3544 C   0  0  0  0  0  0
  -21.9918   -9.0255   20.4646 C   0  0  0  0  0  0
  -22.7248  -10.2133   20.3057 C   0  0  0  0  0  0
  -21.6854   -6.0736   22.5278 C   0  0  0  0  0  0
  -21.4015   -6.5640   23.8211 C   0  0  0  0  0  0
  -21.3661   -5.6792   24.9174 C   0  0  0  0  0  0
  -21.6044   -4.3055   24.7224 C   0  0  0  0  0  0
  -21.8819   -3.8147   23.4346 C   0  0  0  0  0  0
  -21.9193   -4.6963   22.3402 C   0  0  0  0  0  0
  -22.7791  -13.5206   21.1888 C   0  0  0  0  0  0
  -22.1662   -4.2149   21.0979 F   0  0  0  0  0  0
  -21.5629   -3.4539   25.7737 F   0  0  0  0  0  0
  -29.9387  -13.7118   20.3742 N   0  0  0  0  0  0
  -26.2871  -12.9451   20.3238 N   0  0  0  0  0  0
  -25.9321  -11.6579   20.5735 N   0  0  0  0  0  0
  -22.0444  -12.8191   22.0444 N   0  0  0  0  0  0
  -25.4109  -15.1946   20.4134 N   0  0  0  0  0  0
  -31.7338  -15.0389   20.1624 O   0  0  0  0  0  0
  -21.6642   -6.8879   21.4240 O   0  0  0  0  0  0
  -22.3472  -14.5508   20.6730 O   0  0  0  0  0  0
  -24.6447  -31.8421   23.1875 C   0  0  0  0  0  0
  -25.9214  -32.4682   23.8266 C   0  0  1  0  0  0
  -27.2067  -27.0911   20.1859 C   0  0  0  0  0  0
  -25.5956  -33.8491   24.2178 N   0  0  0  0  0  0
  -23.4496  -30.4597   21.5335 C   0  0  2  0  0  0
  -24.8984  -28.8736   20.1215 C   0  0  0  0  0  0
  -22.7570  -29.4534   22.4864 C   0  0  0  0  0  0
  -18.0307  -28.1393   22.8474 C   0  0  0  0  0  0
  -24.1492  -36.7250   23.2643 C   0  0  0  0  0  0
  -26.0069  -30.6987   21.3972 C   0  0  0  0  0  0
  -26.0729  -29.3007   20.7541 C   0  0  0  0  0  0
  -27.2267  -28.4257   20.7701 C   0  0  0  0  0  0
  -26.0270  -26.7989   19.4700 C   0  0  0  0  0  0
  -24.8888  -27.6348   19.4637 C   0  0  0  0  0  0
  -23.6797  -29.7839   20.1555 C   0  0  0  0  0  0
  -25.4126  -36.3025   24.0313 C   0  0  1  0  0  0
  -20.5918  -28.3718   23.1231 C   0  0  2  0  0  0
  -20.6793  -26.9420   22.5402 C   0  0  0  0  0  0
  -19.5767  -26.6374   21.5211 C   0  0  0  0  0  0
  -18.1947  -26.7931   22.1621 C   0  0  0  0  0  0
  -19.1563  -28.8875   23.2845 C   0  0  0  0  0  0
  -18.9479  -30.1470   23.8872 C   0  0  0  0  0  0
  -17.6475  -30.6589   24.0558 C   0  0  0  0  0  0
  -25.9078  -34.9401   23.5056 C   0  0  0  0  0  0
  -16.5367  -29.9081   23.6335 C   0  0  0  0  0  0
  -16.7291  -28.6500   23.0355 C   0  0  0  0  0  0
  -26.4529  -31.6562   25.0720 C   0  0  0  0  0  0
  -25.3703  -31.3761   26.1408 C   0  0  0  0  0  0
  -27.0404  -30.2952   24.6334 C   0  0  0  0  0  0
  -27.6051  -32.4339   25.7507 C   0  0  0  0  0  0
  -27.5575  -37.1783   24.8465 C   0  0  0  0  0  0
  -21.4263  -29.3042   22.3603 N   0  0  0  0  0  0
  -26.4287  -37.3741   23.9407 N   0  0  0  0  0  0
  -24.7201  -31.0239   22.0935 N   0  0  0  0  0  0
  -23.4200  -28.8088   23.3029 O   0  0  0  0  0  0
  -28.3014  -26.1474   20.1092 O   0  0  0  0  0  0
  -26.5667  -34.8902   22.4638 O   0  0  0  0  0  0
  -23.5560  -32.1322   23.7071 O   0  0  0  0  0  0
  -26.2971  -23.6636   20.3932 C   0  0  0  0  0  0
  -26.7369  -21.0347   19.9620 C   0  0  0  0  0  0
  -27.6593  -23.2986   20.3731 C   0  0  0  0  0  0
  -27.9064  -21.7838   20.2593 C   0  0  0  0  0  0
  -25.2580  -22.7736   20.1333 C   0  0  0  0  0  0
  -23.8127  -23.2267   20.1443 C   0  0  0  0  0  0
  -29.1698  -20.7130   20.4195 C   0  0  0  0  0  0
  -28.5219  -24.6714   20.6569 C   0  0  0  0  0  0
  -28.9607  -18.9968   20.3970 C   0  0  0  0  0  0
  -30.0880  -17.7275   20.5232 C   0  0  0  0  0  0
  -25.4763  -21.4852   19.8782 N   0  0  0  0  0  0
  -29.7458  -16.1684   20.5602 N   0  0  0  0  0  0
  -31.4718  -12.7741   19.1889 H   0  0  0  0  0  0
  -30.4414  -11.6610   20.0421 H   0  0  0  0  0  0
  -29.8470  -11.7308   17.5952 H   0  0  0  0  0  0
  -29.6055  -13.4583   17.6861 H   0  0  0  0  0  0
  -27.9568  -11.2738   18.9893 H   0  0  0  0  0  0
  -27.3928  -12.4396   17.8204 H   0  0  0  0  0  0
  -27.5867  -14.2498   19.4035 H   0  0  0  0  0  0
  -28.7628  -12.3159   21.4590 H   0  0  0  0  0  0
  -28.3620  -13.9930   21.7512 H   0  0  0  0  0  0
  -25.2768   -9.5683   22.4763 H   0  0  0  0  0  0
  -24.0006   -7.4634   22.7473 H   0  0  0  0  0  0
  -21.0849   -8.8775   19.8951 H   0  0  0  0  0  0
  -22.3706  -10.9673   19.6168 H   0  0  0  0  0  0
  -21.2008   -7.6148   23.9714 H   0  0  0  0  0  0
  -21.1483   -6.0523   25.9076 H   0  0  0  0  0  0
  -22.0597   -2.7609   23.2846 H   0  0  0  0  0  0
  -22.4072  -11.9859   22.4835 H   0  0  0  0  0  0
  -21.1057  -13.1204   22.2648 H   0  0  0  0  0  0
  -24.6389  -15.8434   20.5227 H   0  0  0  0  0  0
  -26.2478  -15.6351   20.0550 H   0  0  0  0  0  0
  -26.7275  -32.5278   23.0987 H   0  0  0  0  0  0
  -25.0074  -33.9603   25.0306 H   0  0  0  0  0  0
  -22.7539  -31.2863   21.3752 H   0  0  0  0  0  0
  -23.3761  -35.9575   23.3291 H   0  0  0  0  0  0
  -24.3575  -36.8898   22.2060 H   0  0  0  0  0  0
  -23.7242  -37.6438   23.6691 H   0  0  0  0  0  0
  -26.1671  -31.4430   20.6161 H   0  0  0  0  0  0
  -26.8767  -30.7548   22.0398 H   0  0  0  0  0  0
  -28.1286  -28.7583   21.2645 H   0  0  0  0  0  0
  -25.9743  -25.8829   18.9000 H   0  0  0  0  0  0
  -24.0048  -27.3150   18.9295 H   0  0  0  0  0  0
  -23.8245  -30.5552   19.3982 H   0  0  0  0  0  0
  -22.7933  -29.2293   19.8422 H   0  0  0  0  0  0
  -25.1316  -36.1850   25.0805 H   0  0  0  0  0  0
  -21.0008  -28.3310   24.1354 H   0  0  0  0  0  0
  -20.5688  -26.2331   23.3622 H   0  0  0  0  0  0
  -21.6659  -26.7425   22.1199 H   0  0  0  0  0  0
  -19.6929  -25.6277   21.1260 H   0  0  0  0  0  0
  -19.6706  -27.3168   20.6728 H   0  0  0  0  0  0
  -17.4216  -26.6673   21.4025 H   0  0  0  0  0  0
  -18.0347  -26.0079   22.9024 H   0  0  0  0  0  0
  -19.7954  -30.7293   24.2231 H   0  0  0  0  0  0
  -17.5028  -31.6267   24.5164 H   0  0  0  0  0  0
  -15.5365  -30.2975   23.7672 H   0  0  0  0  0  0
  -15.8692  -28.0810   22.7084 H   0  0  0  0  0  0
  -24.5893  -30.7099   25.7725 H   0  0  0  0  0  0
  -24.8882  -32.2945   26.4764 H   0  0  0  0  0  0
  -25.7977  -30.8978   27.0230 H   0  0  0  0  0  0
  -26.3033  -29.6662   24.1329 H   0  0  0  0  0  0
  -27.3985  -29.7268   25.4928 H   0  0  0  0  0  0
  -27.8955  -30.4175   23.9684 H   0  0  0  0  0  0
  -27.2636  -33.3661   26.2019 H   0  0  0  0  0  0
  -28.3894  -32.6866   25.0359 H   0  0  0  0  0  0
  -28.0684  -31.8511   26.5478 H   0  0  0  0  0  0
  -28.2584  -38.0087   24.7512 H   0  0  0  0  0  0
  -28.1080  -36.2615   24.6295 H   0  0  0  0  0  0
  -27.2291  -37.1431   25.8868 H   0  0  0  0  0  0
  -20.9481  -29.8746   21.6769 H   0  0  0  0  0  0
  -26.0152  -38.2808   24.1409 H   0  0  0  0  0  0
  -26.0271  -24.6674   20.6664 H   0  0  0  0  0  0
  -26.7636  -19.9715   19.8075 H   0  0  0  0  0  0
  -23.2893  -22.8049   21.0025 H   0  0  0  0  0  0
  -23.3007  -22.9046   19.2373 H   0  0  0  0  0  0
  -23.7371  -24.3128   20.2031 H   0  0  0  0  0  0
  -29.8855  -20.9661   19.6369 H   0  0  0  0  0  0
  -29.6702  -20.9698   21.3536 H   0  0  0  0  0  0
  -29.5454  -24.4197   20.3794 H   0  0  0  0  0  0
  -28.5531  -24.7706   21.7422 H   0  0  0  0  0  0
  -28.4616  -18.7758   19.4538 H   0  0  0  0  0  0
  -28.2212  -18.7857   21.1700 H   0  0  0  0  0  0
  -30.8019  -17.8548   19.7083 H   0  0  0  0  0  0
  -30.6704  -17.9147   21.4261 H   0  0  0  0  0  0
  -28.7691  -15.9703   20.7194 H   0  0  0  0  0  0
  1 25  1  0  0  0
  1 30  2  0  0  0
  1 82  1  0  0  0
  2  3  1  0  0  0
  2 25  1  0  0  0
  2 83  1  0  0  0
  2 84  1  0  0  0
  3  4  1  0  0  0
  3 85  1  0  0  0
  3 86  1  0  0  0
  4  5  1  0  0  0
  4 87  1  0  0  0
  4 88  1  0  0  0
  5  6  1  0  0  0
  5 26  1  0  0  0
  5 89  1  0  0  0
  6 25  1  0  0  0
  6 90  1  0  0  0
  6 91  1  0  0  0
  7  8  2  0  0  0
  7 26  1  0  0  0
  7 29  1  0  0  0
  8  9  1  0  0  0
  8 22  1  0  0  0
  9 10  1  0  0  0
  9 27  2  0  0  0
 10 11  2  0  0  0
 10 15  1  0  0  0
 11 12  1  0  0  0
 11 92  1  0  0  0
 12 13  2  0  0  0
 12 93  1  0  0  0
 13 14  1  0  0  0
 13 31  1  0  0  0
 14 15  2  0  0  0
 14 94  1  0  0  0
 15 95  1  0  0  0
 16 17  2  0  0  0
 16 21  1  0  0  0
 16 31  1  0  0  0
 17 18  1  0  0  0
 17 96  1  0  0  0
 18 19  2  0  0  0
 18 97  1  0  0  0
 19 20  1  0  0  0
 19 24  1  0  0  0
 20 21  2  0  0  0
 20 98  1  0  0  0
 21 23  1  0  0  0
 22 28  1  0  0  0
 22 32  2  0  0  0
 26 27  1  0  0  0
 28 99  1  0  0  0
 28100  1  0  0  0
 29101  1  0  0  0
 29102  1  0  0  0
 33 34  1  0  0  0
 33 66  1  0  0  0
 33 70  2  0  0  0
 34 36  1  0  0  0
 34 59  1  0  0  0
 34103  1  0  0  0
 35 44  2  0  0  0
 35 45  1  0  0  0
 35 68  1  0  0  0
 36 56  1  0  0  0
 36104  1  0  0  0
 37 39  1  0  0  0
 37 47  1  0  0  0
 37 66  1  0  0  0
 37105  1  0  0  0
 38 43  2  0  0  0
 38 46  1  0  0  0
 38 47  1  0  0  0
 39 64  1  0  0  0
 39 67  2  0  0  0
 40 52  1  0  0  0
 40 53  2  0  0  0
 40 58  1  0  0  0
 41106  1  0  0  0
 41107  1  0  0  0
 41108  1  0  0  0
 41 48  1  0  0  0
 42 43  1  0  0  0
 42 66  1  0  0  0
 42109  1  0  0  0
 42110  1  0  0  0
 43 44  1  0  0  0
 44111  1  0  0  0
 45 46  2  0  0  0
 45112  1  0  0  0
 46113  1  0  0  0
 47114  1  0  0  0
 47115  1  0  0  0
 48 56  1  0  0  0
 48 65  1  0  0  0
 48116  1  0  0  0
 49 50  1  0  0  0
 49 53  1  0  0  0
 49 64  1  0  0  0
 49117  1  0  0  0
 50 51  1  0  0  0
 50118  1  0  0  0
 50119  1  0  0  0
 51 52  1  0  0  0
 51120  1  0  0  0
 51121  1  0  0  0
 52122  1  0  0  0
 52123  1  0  0  0
 53 54  1  0  0  0
 54 55  2  0  0  0
 54124  1  0  0  0
 55 57  1  0  0  0
 55125  1  0  0  0
 56 69  2  0  0  0
 57 58  2  0  0  0
 57126  1  0  0  0
 58127  1  0  0  0
 59 60  1  0  0  0
 59 61  1  0  0  0
 59 62  1  0  0  0
 60128  1  0  0  0
 60129  1  0  0  0
 60130  1  0  0  0
 61131  1  0  0  0
 61132  1  0  0  0
 61133  1  0  0  0
 62134  1  0  0  0
 62135  1  0  0  0
 62136  1  0  0  0
 63 65  1  0  0  0
 63137  1  0  0  0
 63138  1  0  0  0
 63139  1  0  0  0
 64140  1  0  0  0
 65141  1  0  0  0
 68 78  1  0  0  0
 71 73  2  0  0  0
 71 75  1  0  0  0
 71142  1  0  0  0
 72 74  2  0  0  0
 72 81  1  0  0  0
 72143  1  0  0  0
 73 74  1  0  0  0
 73 78  1  0  0  0
 74 77  1  0  0  0
 75 76  1  0  0  0
 75 81  2  0  0  0
 76144  1  0  0  0
 76145  1  0  0  0
 76146  1  0  0  0
 77 79  1  0  0  0
 77147  1  0  0  0
 77148  1  0  0  0
 78149  1  0  0  0
 78150  1  0  0  0
 79 80  1  0  0  0
 79151  1  0  0  0
 79152  1  0  0  0
 80 82  1  0  0  0
 80153  1  0  0  0
 80154  1  0  0  0
 82155  1  0  0  0
M  ISO  4   1 100  68 101  78 101  82 100
M  END
> <chiral flag>
0

> <version>
0

> <s_m_source_file>
/data/baiqing/PycharmProjects/Reinvent-master-3.2/result/LINK_invent/BTK/process_docking_weight1_custom_sum_contain_oxygen_bond_distance_aromatic_linkinvent_7_9_3/rearranged_h_0034.sdf

> <i_m_source_file_index>
5

> <r_mmod_Potential_Energy-OPLS-2005>
571.636901855469

> <r_mmod_Stretch_Energy-OPLS-2005>
331.643432617188

> <r_mmod_Bend_Energy-OPLS-2005>
380.7587890625

> <r_mmod_Torsional_Energy-OPLS-2005>
231.391403198242

> <r_mmod_Improper_Torsional_Energy-OPLS-2005>
5.85608577728271

> <r_mmod_Van_der_Waal_Energy-OPLS-2005>
138.974029541016

> <r_mmod_Electrostatic_Energy-OPLS-2005>
-499.144775390625

> <r_mmod_Solvation_Energy-OPLS-2005>
-227.695724487305

> <b_mmod_Minimization_Converged-OPLS-2005>
0

> <r_mmod_RMS_Derivative-OPLS-2005>
0.184875249862671

$$$$
5
                    3D
 Structure written by MMmdl.
172181  0  0  1  0            999 V2000
  -31.0349  -14.1223   20.7469 C   0  0  0  0  0  0
  -30.4124  -12.2345   19.3744 C   0  0  0  0  0  0
  -29.4789  -12.5776   18.2051 C   0  0  0  0  0  0
  -28.0251  -12.4011   18.6459 C   0  0  0  0  0  0
  -27.7056  -13.2217   19.9209 C   0  0  2  0  0  0
  -28.7665  -13.0152   21.0471 C   0  0  0  0  0  0
  -25.2743  -13.8229   20.5757 C   0  0  0  0  0  0
  -24.1942  -13.0478   20.9136 C   0  0  0  0  0  0
  -24.6515  -11.6955   20.8681 C   0  0  0  0  0  0
  -23.9150  -10.4296   21.0383 C   0  0  0  0  0  0
  -24.3647   -9.4211   21.9190 C   0  0  0  0  0  0
  -23.6312   -8.2255   22.0765 C   0  0  0  0  0  0
  -22.4315   -8.0293   21.3579 C   0  0  0  0  0  0
  -21.9963   -9.0256   20.4651 C   0  0  0  0  0  0
  -22.7310  -10.2116   20.3052 C   0  0  0  0  0  0
  -21.6890   -6.0740   22.5269 C   0  0  0  0  0  0
  -21.4022   -6.5660   23.8190 C   0  0  0  0  0  0
  -21.3627   -5.6806   24.9138 C   0  0  0  0  0  0
  -21.6000   -4.3052   24.7192 C   0  0  0  0  0  0
  -21.8822   -3.8156   23.4309 C   0  0  0  0  0  0
  -21.9233   -4.6966   22.3391 C   0  0  0  0  0  0
  -22.7940  -13.5219   21.1794 C   0  0  0  0  0  0
  -22.1709   -4.2157   21.0979 F   0  0  0  0  0  0
  -21.5596   -3.4561   25.7711 F   0  0  0  0  0  0
  -30.1500  -13.1174   20.5216 N   0  0  0  0  0  0
  -26.3312  -12.9475   20.3698 N   0  0  0  0  0  0
  -25.9517  -11.6591   20.5891 N   0  0  0  0  0  0
  -22.0625  -12.8166   22.0324 N   0  0  0  0  0  0
  -25.4381  -15.1953   20.4161 N   0  0  0  0  0  0
  -31.4642  -14.8247   19.8491 O   0  0  0  0  0  0
  -21.6681   -6.8898   21.4255 O   0  0  0  0  0  0
  -22.3611  -14.5565   20.6704 O   0  0  0  0  0  0
  -24.6246  -31.8655   23.2070 C   0  0  0  0  0  0
  -25.9144  -32.4781   23.8387 C   0  0  1  0  0  0
  -27.2778  -27.4227   20.0940 C   0  0  0  0  0  0
  -25.6034  -33.8569   24.2373 N   0  0  0  0  0  0
  -23.4117  -30.4827   21.5504 C   0  0  2  0  0  0
  -24.8644  -28.9310   20.1300 C   0  0  0  0  0  0
  -22.7432  -29.4688   22.5070 C   0  0  0  0  0  0
  -18.0272  -28.1388   22.8494 C   0  0  0  0  0  0
  -24.1469  -36.7204   23.2630 C   0  0  0  0  0  0
  -25.9406  -30.8250   21.3595 C   0  0  0  0  0  0
  -26.0257  -29.4533   20.7145 C   0  0  0  0  0  0
  -27.2351  -28.7083   20.6890 C   0  0  0  0  0  0
  -26.0915  -26.9124   19.5215 C   0  0  0  0  0  0
  -24.8920  -27.6598   19.5305 C   0  0  0  0  0  0
  -23.6223  -29.7988   20.1723 C   0  0  0  0  0  0
  -25.4100  -36.3054   24.0359 C   0  0  1  0  0  0
  -20.5851  -28.3680   23.1316 C   0  0  2  0  0  0
  -20.6749  -26.9418   22.5419 C   0  0  0  0  0  0
  -19.5736  -26.6404   21.5200 C   0  0  0  0  0  0
  -18.1903  -26.7978   22.1566 C   0  0  0  0  0  0
  -19.1513  -28.8840   23.2889 C   0  0  0  0  0  0
  -18.9465  -30.1460   23.8865 C   0  0  0  0  0  0
  -17.6451  -30.6589   24.0566 C   0  0  0  0  0  0
  -25.9057  -34.9439   23.5145 C   0  0  0  0  0  0
  -16.5341  -29.9067   23.6375 C   0  0  0  0  0  0
  -16.7252  -28.6497   23.0378 C   0  0  0  0  0  0
  -26.4563  -31.6489   25.0676 C   0  0  0  0  0  0
  -25.3853  -31.3599   26.1447 C   0  0  0  0  0  0
  -27.0293  -30.2892   24.6004 C   0  0  0  0  0  0
  -27.6285  -32.4063   25.7377 C   0  0  0  0  0  0
  -27.5585  -37.1734   24.8458 C   0  0  0  0  0  0
  -21.4162  -29.3024   22.3738 N   0  0  0  0  0  0
  -26.4237  -37.3803   23.9501 N   0  0  0  0  0  0
  -24.6768  -31.0725   22.0997 N   0  0  0  0  0  0
  -23.4166  -28.8278   23.3191 O   0  0  0  0  0  0
  -28.4629  -26.7011   20.0017 O   0  0  0  0  0  0
  -26.5541  -34.8894   22.4646 O   0  0  0  0  0  0
  -23.5432  -32.1441   23.7464 O   0  0  0  0  0  0
  -34.2295  -18.5897   20.7776 C   0  0  0  0  0  0
  -33.4324  -17.8053   18.6239 C   0  0  0  0  0  0
  -34.4640  -17.2526   21.1757 C   0  0  0  0  0  0
  -33.6984  -16.4693   19.0159 C   0  0  0  0  0  0
  -31.9124  -23.5751   20.3145 C   0  0  0  0  0  0
  -33.6180  -18.8779   19.5313 C   0  0  0  0  0  0
  -34.1101  -16.1738   20.3389 C   0  0  0  0  0  0
  -30.9797  -24.6474   20.3814 C   0  0  0  0  0  0
  -31.4979  -22.2299   20.1676 C   0  0  0  0  0  0
  -30.1128  -21.9845   19.9666 C   0  0  0  0  0  0
  -29.5785  -24.3924   20.3423 C   0  0  0  0  0  0
  -29.1661  -23.0523   20.0677 C   0  0  0  0  0  0
  -31.5118  -26.0675   20.5224 C   0  0  0  0  0  0
  -29.6525  -20.5494   19.7019 C   0  0  0  0  0  0
  -33.0981  -20.2958   19.1858 C   0  0  0  0  0  0
  -34.1416  -14.7296   20.8817 C   0  0  0  0  0  0
  -32.5021  -21.0699   20.4061 C   0  0  0  0  0  0
  -28.5366  -25.4783   20.7680 C   0  0  0  0  0  0
  -33.1807  -14.4452   22.0999 C   0  0  0  0  0  0
  -31.7873  -13.9610   21.8539 N   0  0  0  0  0  0
  -27.4771  -22.7001   19.9042 Cl  0  0  0  0  0  0
  -31.4539  -12.3082   19.0489 H   0  0  0  0  0  0
  -30.2728  -11.1966   19.6750 H   0  0  0  0  0  0
  -29.6997  -11.9455   17.3445 H   0  0  0  0  0  0
  -29.6496  -13.6055   17.8909 H   0  0  0  0  0  0
  -27.8506  -11.3406   18.8252 H   0  0  0  0  0  0
  -27.3520  -12.6948   17.8410 H   0  0  0  0  0  0
  -27.7600  -14.2732   19.6378 H   0  0  0  0  0  0
  -28.6335  -12.0369   21.5157 H   0  0  0  0  0  0
  -28.6123  -13.7496   21.8407 H   0  0  0  0  0  0
  -25.2793   -9.5661   22.4750 H   0  0  0  0  0  0
  -24.0002   -7.4657   22.7512 H   0  0  0  0  0  0
  -21.0901   -8.8764   19.8943 H   0  0  0  0  0  0
  -22.3823  -10.9627   19.6096 H   0  0  0  0  0  0
  -21.1998   -7.6170   23.9658 H   0  0  0  0  0  0
  -21.1458   -6.0571   25.9039 H   0  0  0  0  0  0
  -22.0620   -2.7627   23.2850 H   0  0  0  0  0  0
  -22.4317  -11.9809   22.4630 H   0  0  0  0  0  0
  -21.1193  -13.1049   22.2523 H   0  0  0  0  0  0
  -24.6621  -15.8401   20.5179 H   0  0  0  0  0  0
  -26.2973  -15.6538   20.1338 H   0  0  0  0  0  0
  -26.7220  -32.5500   23.1155 H   0  0  0  0  0  0
  -25.0373  -33.9735   25.0657 H   0  0  0  0  0  0
  -22.7041  -31.3011   21.4019 H   0  0  0  0  0  0
  -23.3891  -35.9352   23.3011 H   0  0  0  0  0  0
  -24.3654  -36.9111   22.2103 H   0  0  0  0  0  0
  -23.6935  -37.6200   23.6813 H   0  0  0  0  0  0
  -26.0420  -31.5838   20.5815 H   0  0  0  0  0  0
  -26.8327  -30.8944   21.9694 H   0  0  0  0  0  0
  -28.1368  -29.1224   21.1150 H   0  0  0  0  0  0
  -26.1005  -25.9414   19.0440 H   0  0  0  0  0  0
  -24.0023  -27.2475   19.0737 H   0  0  0  0  0  0
  -23.7271  -30.5652   19.4049 H   0  0  0  0  0  0
  -22.7483  -29.2127   19.8833 H   0  0  0  0  0  0
  -25.1250  -36.1896   25.0844 H   0  0  0  0  0  0
  -20.9910  -28.3209   24.1448 H   0  0  0  0  0  0
  -20.5648  -26.2280   23.3619 H   0  0  0  0  0  0
  -21.6643  -26.7460   22.1203 H   0  0  0  0  0  0
  -19.6907  -25.6309   21.1216 H   0  0  0  0  0  0
  -19.6720  -27.3221   20.6750 H   0  0  0  0  0  0
  -17.4234  -26.6849   21.3882 H   0  0  0  0  0  0
  -18.0189  -26.0048   22.8848 H   0  0  0  0  0  0
  -19.7942  -30.7327   24.2192 H   0  0  0  0  0  0
  -17.5006  -31.6286   24.5162 H   0  0  0  0  0  0
  -15.5344  -30.2955   23.7761 H   0  0  0  0  0  0
  -15.8646  -28.0820   22.7107 H   0  0  0  0  0  0
  -24.6019  -30.6959   25.7763 H   0  0  0  0  0  0
  -24.9066  -32.2733   26.4981 H   0  0  0  0  0  0
  -25.8220  -30.8670   27.0139 H   0  0  0  0  0  0
  -26.2697  -29.6588   24.1340 H   0  0  0  0  0  0
  -27.4333  -29.7218   25.4394 H   0  0  0  0  0  0
  -27.8464  -30.4138   23.8904 H   0  0  0  0  0  0
  -27.3248  -33.3652   26.1578 H   0  0  0  0  0  0
  -28.4303  -32.6002   25.0241 H   0  0  0  0  0  0
  -28.0602  -31.8256   26.5535 H   0  0  0  0  0  0
  -28.2503  -38.0132   24.7705 H   0  0  0  0  0  0
  -28.1188  -36.2692   24.6018 H   0  0  0  0  0  0
  -27.2369  -37.1040   25.8866 H   0  0  0  0  0  0
  -20.9384  -29.8641   21.6832 H   0  0  0  0  0  0
  -26.0100  -38.2846   24.1655 H   0  0  0  0  0  0
  -34.4644  -19.3822   21.4771 H   0  0  0  0  0  0
  -33.0275  -17.9893   17.6354 H   0  0  0  0  0  0
  -34.8637  -17.0475   22.1584 H   0  0  0  0  0  0
  -33.4946  -15.6616   18.3230 H   0  0  0  0  0  0
  -32.9678  -23.7890   20.4341 H   0  0  0  0  0  0
  -32.5942  -26.0868   20.6418 H   0  0  0  0  0  0
  -31.0742  -26.5804   21.3765 H   0  0  0  0  0  0
  -31.2760  -26.6399   19.6252 H   0  0  0  0  0  0
  -30.2533  -20.0900   18.9200 H   0  0  0  0  0  0
  -28.6278  -20.4746   19.3489 H   0  0  0  0  0  0
  -29.7441  -19.9317   20.5962 H   0  0  0  0  0  0
  -32.3397  -20.1843   18.4118 H   0  0  0  0  0  0
  -33.8976  -20.8780   18.7295 H   0  0  0  0  0  0
  -35.1690  -14.5312   21.1987 H   0  0  0  0  0  0
  -33.9712  -14.0056   20.0819 H   0  0  0  0  0  0
  -32.0006  -20.3488   21.0474 H   0  0  0  0  0  0
  -33.3247  -21.4456   21.0164 H   0  0  0  0  0  0
  -28.8139  -25.7811   21.7788 H   0  0  0  0  0  0
  -27.5447  -25.0506   20.9060 H   0  0  0  0  0  0
  -33.1782  -15.2921   22.7881 H   0  0  0  0  0  0
  -33.6495  -13.6441   22.6781 H   0  0  0  0  0  0
  -31.4287  -13.3180   22.5512 H   0  0  0  0  0  0
  1 25  1  0  0  0
  1 30  2  0  0  0
  1 90  1  0  0  0
  2  3  1  0  0  0
  2 25  1  0  0  0
  2 92  1  0  0  0
  2 93  1  0  0  0
  3  4  1  0  0  0
  3 94  1  0  0  0
  3 95  1  0  0  0
  4  5  1  0  0  0
  4 96  1  0  0  0
  4 97  1  0  0  0
  5  6  1  0  0  0
  5 26  1  0  0  0
  5 98  1  0  0  0
  6 25  1  0  0  0
  6 99  1  0  0  0
  6100  1  0  0  0
  7  8  2  0  0  0
  7 26  1  0  0  0
  7 29  1  0  0  0
  8  9  1  0  0  0
  8 22  1  0  0  0
  9 10  1  0  0  0
  9 27  2  0  0  0
 10 11  2  0  0  0
 10 15  1  0  0  0
 11 12  1  0  0  0
 11101  1  0  0  0
 12 13  2  0  0  0
 12102  1  0  0  0
 13 14  1  0  0  0
 13 31  1  0  0  0
 14 15  2  0  0  0
 14103  1  0  0  0
 15104  1  0  0  0
 16 17  2  0  0  0
 16 21  1  0  0  0
 16 31  1  0  0  0
 17 18  1  0  0  0
 17105  1  0  0  0
 18 19  2  0  0  0
 18106  1  0  0  0
 19 20  1  0  0  0
 19 24  1  0  0  0
 20 21  2  0  0  0
 20107  1  0  0  0
 21 23  1  0  0  0
 22 28  1  0  0  0
 22 32  2  0  0  0
 26 27  1  0  0  0
 28108  1  0  0  0
 28109  1  0  0  0
 29110  1  0  0  0
 29111  1  0  0  0
 33 34  1  0  0  0
 33 66  1  0  0  0
 33 70  2  0  0  0
 34 36  1  0  0  0
 34 59  1  0  0  0
 34112  1  0  0  0
 35 44  2  0  0  0
 35 45  1  0  0  0
 35 68  1  0  0  0
 36 56  1  0  0  0
 36113  1  0  0  0
 37 39  1  0  0  0
 37 47  1  0  0  0
 37 66  1  0  0  0
 37114  1  0  0  0
 38 43  2  0  0  0
 38 46  1  0  0  0
 38 47  1  0  0  0
 39 64  1  0  0  0
 39 67  2  0  0  0
 40 52  1  0  0  0
 40 53  2  0  0  0
 40 58  1  0  0  0
 41115  1  0  0  0
 41116  1  0  0  0
 41117  1  0  0  0
 41 48  1  0  0  0
 42 43  1  0  0  0
 42 66  1  0  0  0
 42118  1  0  0  0
 42119  1  0  0  0
 43 44  1  0  0  0
 44120  1  0  0  0
 45 46  2  0  0  0
 45121  1  0  0  0
 46122  1  0  0  0
 47123  1  0  0  0
 47124  1  0  0  0
 48 56  1  0  0  0
 48 65  1  0  0  0
 48125  1  0  0  0
 49 50  1  0  0  0
 49 53  1  0  0  0
 49 64  1  0  0  0
 49126  1  0  0  0
 50 51  1  0  0  0
 50127  1  0  0  0
 50128  1  0  0  0
 51 52  1  0  0  0
 51129  1  0  0  0
 51130  1  0  0  0
 52131  1  0  0  0
 52132  1  0  0  0
 53 54  1  0  0  0
 54 55  2  0  0  0
 54133  1  0  0  0
 55 57  1  0  0  0
 55134  1  0  0  0
 56 69  2  0  0  0
 57 58  2  0  0  0
 57135  1  0  0  0
 58136  1  0  0  0
 59 60  1  0  0  0
 59 61  1  0  0  0
 59 62  1  0  0  0
 60137  1  0  0  0
 60138  1  0  0  0
 60139  1  0  0  0
 61140  1  0  0  0
 61141  1  0  0  0
 61142  1  0  0  0
 62143  1  0  0  0
 62144  1  0  0  0
 62145  1  0  0  0
 63 65  1  0  0  0
 63146  1  0  0  0
 63147  1  0  0  0
 63148  1  0  0  0
 64149  1  0  0  0
 65150  1  0  0  0
 68 88  1  0  0  0
 71 73  2  0  0  0
 71 76  1  0  0  0
 71151  1  0  0  0
 72 74  1  0  0  0
 72 76  2  0  0  0
 72152  1  0  0  0
 73 77  1  0  0  0
 73153  1  0  0  0
 74 77  2  0  0  0
 74154  1  0  0  0
 75 78  2  0  0  0
 75 79  1  0  0  0
 75155  1  0  0  0
 76 85  1  0  0  0
 77 86  1  0  0  0
 78 81  1  0  0  0
 78 83  1  0  0  0
 79 80  2  0  0  0
 79 87  1  0  0  0
 80 82  1  0  0  0
 80 84  1  0  0  0
 81 82  2  0  0  0
 81 88  1  0  0  0
 82 91  1  0  0  0
 83156  1  0  0  0
 83157  1  0  0  0
 83158  1  0  0  0
 84159  1  0  0  0
 84160  1  0  0  0
 84161  1  0  0  0
 85 87  1  0  0  0
 85162  1  0  0  0
 85163  1  0  0  0
 86 89  1  0  0  0
 86164  1  0  0  0
 86165  1  0  0  0
 87166  1  0  0  0
 87167  1  0  0  0
 88168  1  0  0  0
 88169  1  0  0  0
 89 90  1  0  0  0
 89170  1  0  0  0
 89171  1  0  0  0
 90172  1  0  0  0
M  ISO  4   1 100  68 101  88 101  90 100
M  END
> <chiral flag>
0

> <version>
0

> <s_m_source_file>
/data/baiqing/PycharmProjects/Reinvent-master-3.2/result/LINK_invent/BTK/process_docking_weight1_custom_sum_contain_oxygen_bond_distance_aromatic_linkinvent_7_9_3/rearranged_h_0034.sdf

> <i_m_source_file_index>
6

> <r_mmod_Potential_Energy-OPLS-2005>
156.221084594727

> <r_mmod_Stretch_Energy-OPLS-2005>
64.17431640625

> <r_mmod_Bend_Energy-OPLS-2005>
118.11164855957

> <r_mmod_Torsional_Energy-OPLS-2005>
305.416046142578

> <r_mmod_Improper_Torsional_Energy-OPLS-2005>
18.978343963623

> <r_mmod_Van_der_Waal_Energy-OPLS-2005>
167.974395751953

> <r_mmod_Electrostatic_Energy-OPLS-2005>
-360.251129150391

> <r_mmod_Solvation_Energy-OPLS-2005>
-202.230560302734

> <b_mmod_Minimization_Converged-OPLS-2005>
0

> <r_mmod_RMS_Derivative-OPLS-2005>
7.1233115196228

$$$$
6
                    3D
 Structure written by MMmdl.
167175  0  0  1  0            999 V2000
  -30.7540  -14.3584   20.7194 C   0  0  0  0  0  0
  -30.4275  -12.2996   19.3876 C   0  0  0  0  0  0
  -29.4848  -12.5303   18.1916 C   0  0  0  0  0  0
  -28.0095  -12.3798   18.6102 C   0  0  0  0  0  0
  -27.6677  -13.1972   19.8817 C   0  0  2  0  0  0
  -28.7027  -12.9179   20.9926 C   0  0  0  0  0  0
  -25.2593  -13.8145   20.5653 C   0  0  0  0  0  0
  -24.1836  -13.0429   20.9159 C   0  0  0  0  0  0
  -24.6383  -11.6901   20.8741 C   0  0  0  0  0  0
  -23.9058  -10.4293   21.0419 C   0  0  0  0  0  0
  -24.3621   -9.4206   21.9198 C   0  0  0  0  0  0
  -23.6305   -8.2240   22.0763 C   0  0  0  0  0  0
  -22.4278   -8.0284   21.3554 C   0  0  0  0  0  0
  -21.9912   -9.0249   20.4649 C   0  0  0  0  0  0
  -22.7239  -10.2127   20.3065 C   0  0  0  0  0  0
  -21.6851   -6.0740   22.5288 C   0  0  0  0  0  0
  -21.4016   -6.5643   23.8223 C   0  0  0  0  0  0
  -21.3658   -5.6794   24.9183 C   0  0  0  0  0  0
  -21.6046   -4.3059   24.7237 C   0  0  0  0  0  0
  -21.8824   -3.8149   23.4357 C   0  0  0  0  0  0
  -21.9191   -4.6964   22.3411 C   0  0  0  0  0  0
  -22.7848  -13.5230   21.1834 C   0  0  0  0  0  0
  -22.1652   -4.2147   21.0986 F   0  0  0  0  0  0
  -21.5638   -3.4542   25.7746 F   0  0  0  0  0  0
  -30.0527  -13.2211   20.4702 N   0  0  0  0  0  0
  -26.3038  -12.9303   20.3371 N   0  0  0  0  0  0
  -25.9299  -11.6471   20.5764 N   0  0  0  0  0  0
  -22.0483  -12.8241   22.0392 N   0  0  0  0  0  0
  -25.4327  -15.1874   20.4060 N   0  0  0  0  0  0
  -31.7466  -14.7119   20.0740 O   0  0  0  0  0  0
  -21.6643   -6.8876   21.4247 O   0  0  0  0  0  0
  -22.3534  -14.5537   20.6669 O   0  0  0  0  0  0
  -24.6110  -31.8688   23.2109 C   0  0  0  0  0  0
  -25.9015  -32.4826   23.8398 C   0  0  1  0  0  0
  -27.2453  -27.4638   20.0917 C   0  0  0  0  0  0
  -25.5879  -33.8627   24.2329 N   0  0  0  0  0  0
  -23.3981  -30.4911   21.5516 C   0  0  2  0  0  0
  -24.8452  -28.9578   20.1158 C   0  0  0  0  0  0
  -22.7397  -29.4657   22.5015 C   0  0  0  0  0  0
  -18.0266  -28.1366   22.8494 C   0  0  0  0  0  0
  -24.1485  -36.7327   23.2641 C   0  0  0  0  0  0
  -25.9222  -30.8449   21.3581 C   0  0  0  0  0  0
  -26.0014  -29.4811   20.7054 C   0  0  0  0  0  0
  -27.2026  -28.7430   20.6845 C   0  0  0  0  0  0
  -26.0683  -26.9413   19.5058 C   0  0  0  0  0  0
  -24.8721  -27.6864   19.5142 C   0  0  0  0  0  0
  -23.6038  -29.8188   20.1672 C   0  0  0  0  0  0
  -25.4105  -36.3120   24.0340 C   0  0  1  0  0  0
  -20.5853  -28.3650   23.1336 C   0  0  2  0  0  0
  -20.6758  -26.9388   22.5424 C   0  0  0  0  0  0
  -19.5738  -26.6377   21.5214 C   0  0  0  0  0  0
  -18.1917  -26.7917   22.1622 C   0  0  0  0  0  0
  -19.1514  -28.8823   23.2913 C   0  0  0  0  0  0
  -18.9447  -30.1434   23.8911 C   0  0  0  0  0  0
  -17.6449  -30.6577   24.0561 C   0  0  0  0  0  0
  -25.9030  -34.9480   23.5138 C   0  0  0  0  0  0
  -16.5342  -29.9078   23.6320 C   0  0  0  0  0  0
  -16.7257  -28.6494   23.0345 C   0  0  0  0  0  0
  -26.4456  -31.6597   25.0713 C   0  0  0  0  0  0
  -25.3746  -31.3690   26.1480 C   0  0  0  0  0  0
  -27.0280  -30.3042   24.6067 C   0  0  0  0  0  0
  -27.6043  -32.4308   25.7474 C   0  0  0  0  0  0
  -27.5579  -37.1813   24.8461 C   0  0  0  0  0  0
  -21.4128  -29.3020   22.3746 N   0  0  0  0  0  0
  -26.4289  -37.3799   23.9409 N   0  0  0  0  0  0
  -24.6614  -31.0818   22.0993 N   0  0  0  0  0  0
  -23.4180  -28.8214   23.3057 O   0  0  0  0  0  0
  -28.4486  -26.7954   20.0958 O   0  0  0  0  0  0
  -26.5596  -34.8927   22.4705 O   0  0  0  0  0  0
  -23.5317  -32.1435   23.7521 O   0  0  0  0  0  0
  -31.4826  -23.4524   21.4193 C   0  0  0  0  0  0
  -30.9017  -25.3170   19.5056 C   0  0  0  0  0  0
  -30.1324  -23.8423   21.2738 C   0  0  0  0  0  0
  -29.8417  -24.8235   20.2917 C   0  0  0  0  0  0
  -32.4678  -24.0209   20.5968 C   0  0  0  0  0  0
  -29.0318  -23.2387   22.1498 C   0  0  0  0  0  0
  -28.4403  -25.3728   20.0401 C   0  0  0  0  0  0
  -29.4700  -22.0838   23.0719 C   0  0  0  0  0  0
  -28.2985  -21.4845   23.8690 C   0  0  0  0  0  0
  -28.7194  -20.4109   24.8942 C   0  0  0  0  0  0
  -28.6441  -18.9484   24.4101 C   0  0  0  0  0  0
  -29.7491  -18.4828   23.4402 C   0  0  0  0  0  0
  -29.5702  -16.9991   23.0708 C   0  0  0  0  0  0
  -30.6642  -16.4215   22.1515 C   0  0  0  0  0  0
  -32.1852  -24.9314   19.6451 N   0  0  0  0  0  0
  -30.2872  -15.0683   21.7558 N   0  0  0  0  0  0
  -34.1100  -23.5365   20.7987 Cl  0  0  0  0  0  0
  -31.4658  -12.4289   19.0781 H   0  0  0  0  0  0
  -30.3526  -11.2692   19.7389 H   0  0  0  0  0  0
  -29.7129  -11.8241   17.3920 H   0  0  0  0  0  0
  -29.6486  -13.5289   17.7801 H   0  0  0  0  0  0
  -27.8209  -11.3222   18.7941 H   0  0  0  0  0  0
  -27.3548  -12.6710   17.7878 H   0  0  0  0  0  0
  -27.7314  -14.2515   19.6141 H   0  0  0  0  0  0
  -28.6655  -11.8685   21.2893 H   0  0  0  0  0  0
  -28.4344  -13.4728   21.8919 H   0  0  0  0  0  0
  -25.2765   -9.5675   22.4774 H   0  0  0  0  0  0
  -24.0017   -7.4617   22.7484 H   0  0  0  0  0  0
  -21.0848   -8.8770   19.8944 H   0  0  0  0  0  0
  -22.3718  -10.9670   19.6174 H   0  0  0  0  0  0
  -21.2010   -7.6141   23.9726 H   0  0  0  0  0  0
  -21.1477   -6.0519   25.9081 H   0  0  0  0  0  0
  -22.0606   -2.7608   23.2862 H   0  0  0  0  0  0
  -22.4085  -11.9905   22.4818 H   0  0  0  0  0  0
  -21.1096  -13.1282   22.2577 H   0  0  0  0  0  0
  -24.6704  -15.8482   20.5101 H   0  0  0  0  0  0
  -26.2986  -15.6237   20.1131 H   0  0  0  0  0  0
  -26.7089  -32.5551   23.1175 H   0  0  0  0  0  0
  -25.0012  -33.9792   25.0459 H   0  0  0  0  0  0
  -22.6848  -31.3059   21.4120 H   0  0  0  0  0  0
  -23.3735  -35.9668   23.3315 H   0  0  0  0  0  0
  -24.3582  -36.8937   22.2052 H   0  0  0  0  0  0
  -23.7243  -37.6540   23.6651 H   0  0  0  0  0  0
  -26.0307  -31.6136   20.5922 H   0  0  0  0  0  0
  -26.8107  -30.8977   21.9756 H   0  0  0  0  0  0
  -28.1000  -29.1510   21.1291 H   0  0  0  0  0  0
  -26.0616  -25.9727   19.0287 H   0  0  0  0  0  0
  -23.9817  -27.2784   19.0550 H   0  0  0  0  0  0
  -23.7064  -30.5907   19.4041 H   0  0  0  0  0  0
  -22.7300  -29.2338   19.8756 H   0  0  0  0  0  0
  -25.1278  -36.1989   25.0827 H   0  0  0  0  0  0
  -20.9939  -28.3205   24.1461 H   0  0  0  0  0  0
  -20.5669  -26.2251   23.3607 H   0  0  0  0  0  0
  -21.6636  -26.7441   22.1216 H   0  0  0  0  0  0
  -19.6909  -25.6295   21.1230 H   0  0  0  0  0  0
  -19.6682  -27.3203   20.6758 H   0  0  0  0  0  0
  -17.4195  -26.6670   21.4016 H   0  0  0  0  0  0
  -18.0310  -26.0044   22.9001 H   0  0  0  0  0  0
  -19.7928  -30.7239   24.2289 H   0  0  0  0  0  0
  -17.5012  -31.6262   24.5156 H   0  0  0  0  0  0
  -15.5348  -30.2985   23.7638 H   0  0  0  0  0  0
  -15.8662  -28.0823   22.7049 H   0  0  0  0  0  0
  -24.5904  -30.7052   25.7828 H   0  0  0  0  0  0
  -24.8952  -32.2836   26.4974 H   0  0  0  0  0  0
  -25.8114  -30.8830   27.0213 H   0  0  0  0  0  0
  -26.2808  -29.6811   24.1140 H   0  0  0  0  0  0
  -27.4082  -29.7265   25.4501 H   0  0  0  0  0  0
  -27.8626  -30.4369   23.9182 H   0  0  0  0  0  0
  -27.2672  -33.3599   26.2087 H   0  0  0  0  0  0
  -28.3833  -32.6888   25.0287 H   0  0  0  0  0  0
  -28.0734  -31.8411   26.5363 H   0  0  0  0  0  0
  -28.2603  -38.0107   24.7510 H   0  0  0  0  0  0
  -28.1069  -36.2640   24.6279 H   0  0  0  0  0  0
  -27.2302  -37.1461   25.8866 H   0  0  0  0  0  0
  -20.9287  -29.8734   21.6965 H   0  0  0  0  0  0
  -26.0185  -38.2882   24.1401 H   0  0  0  0  0  0
  -31.7937  -22.7252   22.1538 H   0  0  0  0  0  0
  -30.7152  -26.0539   18.7383 H   0  0  0  0  0  0
  -28.2352  -22.8753   21.4989 H   0  0  0  0  0  0
  -28.6040  -24.0392   22.7562 H   0  0  0  0  0  0
  -27.7211  -24.9945   20.7660 H   0  0  0  0  0  0
  -28.1181  -25.0364   19.0541 H   0  0  0  0  0  0
  -30.2245  -22.4451   23.7714 H   0  0  0  0  0  0
  -29.9373  -21.3042   22.4732 H   0  0  0  0  0  0
  -27.5351  -21.0919   23.1949 H   0  0  0  0  0  0
  -27.8157  -22.2987   24.4126 H   0  0  0  0  0  0
  -28.0317  -20.4929   25.7370 H   0  0  0  0  0  0
  -29.7012  -20.6333   25.3124 H   0  0  0  0  0  0
  -27.6633  -18.7629   23.9696 H   0  0  0  0  0  0
  -28.6925  -18.3119   25.2951 H   0  0  0  0  0  0
  -30.7300  -18.6362   23.8946 H   0  0  0  0  0  0
  -29.7263  -19.0786   22.5290 H   0  0  0  0  0  0
  -28.5973  -16.8811   22.5918 H   0  0  0  0  0  0
  -29.5290  -16.4107   23.9883 H   0  0  0  0  0  0
  -30.7827  -17.0486   21.2651 H   0  0  0  0  0  0
  -31.6272  -16.3994   22.6651 H   0  0  0  0  0  0
  -29.5306  -14.6381   22.2655 H   0  0  0  0  0  0
  1 25  1  0  0  0
  1 30  2  0  0  0
  1 86  1  0  0  0
  2  3  1  0  0  0
  2 25  1  0  0  0
  2 88  1  0  0  0
  2 89  1  0  0  0
  3  4  1  0  0  0
  3 90  1  0  0  0
  3 91  1  0  0  0
  4  5  1  0  0  0
  4 92  1  0  0  0
  4 93  1  0  0  0
  5  6  1  0  0  0
  5 26  1  0  0  0
  5 94  1  0  0  0
  6 25  1  0  0  0
  6 95  1  0  0  0
  6 96  1  0  0  0
  7  8  2  0  0  0
  7 26  1  0  0  0
  7 29  1  0  0  0
  8  9  1  0  0  0
  8 22  1  0  0  0
  9 10  1  0  0  0
  9 27  2  0  0  0
 10 11  2  0  0  0
 10 15  1  0  0  0
 11 12  1  0  0  0
 11 97  1  0  0  0
 12 13  2  0  0  0
 12 98  1  0  0  0
 13 14  1  0  0  0
 13 31  1  0  0  0
 14 15  2  0  0  0
 14 99  1  0  0  0
 15100  1  0  0  0
 16 17  2  0  0  0
 16 21  1  0  0  0
 16 31  1  0  0  0
 17 18  1  0  0  0
 17101  1  0  0  0
 18 19  2  0  0  0
 18102  1  0  0  0
 19 20  1  0  0  0
 19 24  1  0  0  0
 20 21  2  0  0  0
 20103  1  0  0  0
 21 23  1  0  0  0
 22 28  1  0  0  0
 22 32  2  0  0  0
 26 27  1  0  0  0
 28104  1  0  0  0
 28105  1  0  0  0
 29106  1  0  0  0
 29107  1  0  0  0
 33 34  1  0  0  0
 33 66  1  0  0  0
 33 70  2  0  0  0
 34 36  1  0  0  0
 34 59  1  0  0  0
 34108  1  0  0  0
 35 44  2  0  0  0
 35 45  1  0  0  0
 35 68  1  0  0  0
 36 56  1  0  0  0
 36109  1  0  0  0
 37 39  1  0  0  0
 37 47  1  0  0  0
 37 66  1  0  0  0
 37110  1  0  0  0
 38 43  2  0  0  0
 38 46  1  0  0  0
 38 47  1  0  0  0
 39 64  1  0  0  0
 39 67  2  0  0  0
 40 52  1  0  0  0
 40 53  2  0  0  0
 40 58  1  0  0  0
 41111  1  0  0  0
 41112  1  0  0  0
 41113  1  0  0  0
 41 48  1  0  0  0
 42 43  1  0  0  0
 42 66  1  0  0  0
 42114  1  0  0  0
 42115  1  0  0  0
 43 44  1  0  0  0
 44116  1  0  0  0
 45 46  2  0  0  0
 45117  1  0  0  0
 46118  1  0  0  0
 47119  1  0  0  0
 47120  1  0  0  0
 48 56  1  0  0  0
 48 65  1  0  0  0
 48121  1  0  0  0
 49 50  1  0  0  0
 49 53  1  0  0  0
 49 64  1  0  0  0
 49122  1  0  0  0
 50 51  1  0  0  0
 50123  1  0  0  0
 50124  1  0  0  0
 51 52  1  0  0  0
 51125  1  0  0  0
 51126  1  0  0  0
 52127  1  0  0  0
 52128  1  0  0  0
 53 54  1  0  0  0
 54 55  2  0  0  0
 54129  1  0  0  0
 55 57  1  0  0  0
 55130  1  0  0  0
 56 69  2  0  0  0
 57 58  2  0  0  0
 57131  1  0  0  0
 58132  1  0  0  0
 59 60  1  0  0  0
 59 61  1  0  0  0
 59 62  1  0  0  0
 60133  1  0  0  0
 60134  1  0  0  0
 60135  1  0  0  0
 61136  1  0  0  0
 61137  1  0  0  0
 61138  1  0  0  0
 62139  1  0  0  0
 62140  1  0  0  0
 62141  1  0  0  0
 63 65  1  0  0  0
 63142  1  0  0  0
 63143  1  0  0  0
 63144  1  0  0  0
 64145  1  0  0  0
 65146  1  0  0  0
 68 77  1  0  0  0
 71 73  2  0  0  0
 71 75  1  0  0  0
 71147  1  0  0  0
 72 74  2  0  0  0
 72 85  1  0  0  0
 72148  1  0  0  0
 73 74  1  0  0  0
 73 76  1  0  0  0
 74 77  1  0  0  0
 75 85  2  0  0  0
 75 87  1  0  0  0
 76 78  1  0  0  0
 76149  1  0  0  0
 76150  1  0  0  0
 77151  1  0  0  0
 77152  1  0  0  0
 78 79  1  0  0  0
 78153  1  0  0  0
 78154  1  0  0  0
 79 80  1  0  0  0
 79155  1  0  0  0
 79156  1  0  0  0
 80 81  1  0  0  0
 80157  1  0  0  0
 80158  1  0  0  0
 81 82  1  0  0  0
 81159  1  0  0  0
 81160  1  0  0  0
 82 83  1  0  0  0
 82161  1  0  0  0
 82162  1  0  0  0
 83 84  1  0  0  0
 83163  1  0  0  0
 83164  1  0  0  0
 84 86  1  0  0  0
 84165  1  0  0  0
 84166  1  0  0  0
 86167  1  0  0  0
M  ISO  4   1 100  68 101  77 101  86 100
M  END
> <chiral flag>
0

> <version>
0

> <s_m_source_file>
/data/baiqing/PycharmProjects/Reinvent-master-3.2/result/LINK_invent/BTK/process_docking_weight1_custom_sum_contain_oxygen_bond_distance_aromatic_linkinvent_7_9_3/rearranged_h_0034.sdf

> <i_m_source_file_index>
7

> <r_mmod_Potential_Energy-OPLS-2005>
-202.949371337891

> <r_mmod_Stretch_Energy-OPLS-2005>
33.1804656982422

> <r_mmod_Bend_Energy-OPLS-2005>
99.3777847290039

> <r_mmod_Torsional_Energy-OPLS-2005>
210.647109985352

> <r_mmod_Improper_Torsional_Energy-OPLS-2005>
1.81988000869751

> <r_mmod_Van_der_Waal_Energy-OPLS-2005>
157.794128417969

> <r_mmod_Electrostatic_Energy-OPLS-2005>
-501.581665039062

> <r_mmod_Solvation_Energy-OPLS-2005>
-212.619155883789

> <b_mmod_Minimization_Converged-OPLS-2005>
0

> <r_mmod_RMS_Derivative-OPLS-2005>
2.40935206413269

$$$$
7
                    3D
 Structure written by MMmdl.
158166  0  0  1  0            999 V2000
  -30.6903  -14.5969   20.4705 C   0  0  0  0  0  0
  -30.4182  -12.3530   19.4885 C   0  0  0  0  0  0
  -29.5144  -12.4907   18.2459 C   0  0  0  0  0  0
  -28.0342  -12.3488   18.6428 C   0  0  0  0  0  0
  -27.6503  -13.2335   19.8624 C   0  0  2  0  0  0
  -28.6897  -13.1365   21.0053 C   0  0  0  0  0  0
  -25.2482  -13.8179   20.5654 C   0  0  0  0  0  0
  -24.1793  -13.0426   20.9219 C   0  0  0  0  0  0
  -24.6410  -11.6929   20.8786 C   0  0  0  0  0  0
  -23.9100  -10.4308   21.0421 C   0  0  0  0  0  0
  -24.3648   -9.4218   21.9201 C   0  0  0  0  0  0
  -23.6314   -8.2243   22.0749 C   0  0  0  0  0  0
  -22.4288   -8.0284   21.3535 C   0  0  0  0  0  0
  -21.9941   -9.0280   20.4654 C   0  0  0  0  0  0
  -22.7267  -10.2154   20.3076 C   0  0  0  0  0  0
  -21.6862   -6.0761   22.5274 C   0  0  0  0  0  0
  -21.4031   -6.5652   23.8216 C   0  0  0  0  0  0
  -21.3672   -5.6796   24.9171 C   0  0  0  0  0  0
  -21.6039   -4.3057   24.7216 C   0  0  0  0  0  0
  -21.8811   -3.8157   23.4329 C   0  0  0  0  0  0
  -21.9190   -4.6987   22.3391 C   0  0  0  0  0  0
  -22.7797  -13.5203   21.1861 C   0  0  0  0  0  0
  -22.1637   -4.2179   21.0966 F   0  0  0  0  0  0
  -21.5644   -3.4531   25.7720 F   0  0  0  0  0  0
  -30.0173  -13.4089   20.4404 N   0  0  0  0  0  0
  -26.2971  -12.9425   20.3317 N   0  0  0  0  0  0
  -25.9354  -11.6566   20.5808 N   0  0  0  0  0  0
  -22.0411  -12.8261   22.0444 N   0  0  0  0  0  0
  -25.4074  -15.1869   20.3928 N   0  0  0  0  0  0
  -31.8730  -14.6623   20.1240 O   0  0  0  0  0  0
  -21.6624   -6.8890   21.4230 O   0  0  0  0  0  0
  -22.3486  -14.5495   20.6660 O   0  0  0  0  0  0
  -24.6213  -31.8680   23.2073 C   0  0  0  0  0  0
  -25.9108  -32.4800   23.8376 C   0  0  1  0  0  0
  -27.1960  -27.3552   20.0959 C   0  0  0  0  0  0
  -25.5959  -33.8606   24.2293 N   0  0  0  0  0  0
  -23.4074  -30.5008   21.5547 C   0  0  2  0  0  0
  -24.8439  -28.9729   20.1068 C   0  0  0  0  0  0
  -22.7422  -29.4680   22.4943 C   0  0  0  0  0  0
  -18.0291  -28.1378   22.8490 C   0  0  0  0  0  0
  -24.1497  -36.7298   23.2621 C   0  0  0  0  0  0
  -25.9485  -30.8070   21.3785 C   0  0  0  0  0  0
  -26.0154  -29.4419   20.7150 C   0  0  0  0  0  0
  -27.1931  -28.6409   20.7125 C   0  0  0  0  0  0
  -26.0066  -26.9542   19.4386 C   0  0  0  0  0  0
  -24.8389  -27.7323   19.4644 C   0  0  0  0  0  0
  -23.6118  -29.8507   20.1640 C   0  0  0  0  0  0
  -25.4120  -36.3094   24.0301 C   0  0  1  0  0  0
  -20.5885  -28.3684   23.1294 C   0  0  2  0  0  0
  -20.6783  -26.9395   22.5427 C   0  0  0  0  0  0
  -19.5746  -26.6364   21.5248 C   0  0  0  0  0  0
  -18.1931  -26.7915   22.1642 C   0  0  0  0  0  0
  -19.1537  -28.8832   23.2890 C   0  0  0  0  0  0
  -18.9465  -30.1444   23.8881 C   0  0  0  0  0  0
  -17.6466  -30.6578   24.0564 C   0  0  0  0  0  0
  -25.9061  -34.9469   23.5081 C   0  0  0  0  0  0
  -16.5365  -29.9075   23.6341 C   0  0  0  0  0  0
  -16.7273  -28.6508   23.0333 C   0  0  0  0  0  0
  -26.4495  -31.6573   25.0725 C   0  0  0  0  0  0
  -25.3707  -31.3799   26.1442 C   0  0  0  0  0  0
  -27.0311  -30.2968   24.6199 C   0  0  0  0  0  0
  -27.6031  -32.4304   25.7527 C   0  0  0  0  0  0
  -27.5578  -37.1811   24.8447 C   0  0  0  0  0  0
  -21.4149  -29.3047   22.3658 N   0  0  0  0  0  0
  -26.4291  -37.3782   23.9382 N   0  0  0  0  0  0
  -24.6778  -31.0730   22.1035 N   0  0  0  0  0  0
  -23.4182  -28.8185   23.2975 O   0  0  0  0  0  0
  -28.3033  -26.4959   20.1574 O   0  0  0  0  0  0
  -26.5606  -34.8936   22.4639 O   0  0  0  0  0  0
  -23.5403  -32.1477   23.7453 O   0  0  0  0  0  0
  -30.3637  -20.8470   20.0095 C   0  0  0  0  0  0
  -30.7993  -19.4946   19.9858 C   0  0  0  0  0  0
  -29.8531  -18.4294   20.1192 C   0  0  0  0  0  0
  -28.9985  -21.1464   20.1565 C   0  0  0  0  0  0
  -28.5124  -18.8398   20.3453 C   0  0  0  0  0  0
  -32.2730  -19.2393   19.7118 C   0  0  0  0  0  0
  -27.3737  -17.8441   20.4460 C   0  0  0  0  0  0
  -30.2517  -16.9504   19.7483 C   0  0  0  0  0  0
  -28.3759  -22.5269   19.8056 C   0  0  0  0  0  0
  -28.9619  -23.9037   20.3176 C   0  0  0  0  0  0
  -28.0355  -25.0828   19.8498 C   0  0  0  0  0  0
  -28.1138  -20.1424   20.3725 N   0  0  0  0  0  0
  -29.9537  -15.7429   20.5862 N   0  0  0  0  0  0
  -31.4691  -12.4266   19.1976 H   0  0  0  0  0  0
  -30.3077  -11.3703   19.9494 H   0  0  0  0  0  0
  -29.7779  -11.7383   17.4995 H   0  0  0  0  0  0
  -29.6804  -13.4604   17.7770 H   0  0  0  0  0  0
  -27.8617  -11.2987   18.8770 H   0  0  0  0  0  0
  -27.3939  -12.5765   17.7892 H   0  0  0  0  0  0
  -27.6561  -14.2645   19.5046 H   0  0  0  0  0  0
  -28.6753  -12.1526   21.4734 H   0  0  0  0  0  0
  -28.4529  -13.8563   21.7930 H   0  0  0  0  0  0
  -25.2808   -9.5686   22.4775 H   0  0  0  0  0  0
  -24.0033   -7.4638   22.7469 H   0  0  0  0  0  0
  -21.0865   -8.8819   19.8980 H   0  0  0  0  0  0
  -22.3732  -10.9707   19.6195 H   0  0  0  0  0  0
  -21.2009   -7.6159   23.9744 H   0  0  0  0  0  0
  -21.1513   -6.0510   25.9085 H   0  0  0  0  0  0
  -22.0577   -2.7625   23.2797 H   0  0  0  0  0  0
  -22.3992  -11.9946   22.4931 H   0  0  0  0  0  0
  -21.1032  -13.1325   22.2618 H   0  0  0  0  0  0
  -24.6206  -15.8217   20.4691 H   0  0  0  0  0  0
  -26.2273  -15.6150   19.9882 H   0  0  0  0  0  0
  -26.7158  -32.5483   23.1114 H   0  0  0  0  0  0
  -25.0136  -33.9748   25.0466 H   0  0  0  0  0  0
  -22.7009  -31.3245   21.4284 H   0  0  0  0  0  0
  -23.3749  -35.9635   23.3280 H   0  0  0  0  0  0
  -24.3615  -36.8918   22.2036 H   0  0  0  0  0  0
  -23.7263  -37.6501   23.6654 H   0  0  0  0  0  0
  -26.0883  -31.5772   20.6169 H   0  0  0  0  0  0
  -26.8250  -30.8427   22.0105 H   0  0  0  0  0  0
  -28.0865  -28.9912   21.2098 H   0  0  0  0  0  0
  -25.9363  -26.0245   18.8951 H   0  0  0  0  0  0
  -23.9394  -27.3784   18.9805 H   0  0  0  0  0  0
  -23.7259  -30.6381   19.4168 H   0  0  0  0  0  0
  -22.7293  -29.2849   19.8599 H   0  0  0  0  0  0
  -25.1300  -36.1947   25.0782 H   0  0  0  0  0  0
  -21.0034  -28.3282   24.1397 H   0  0  0  0  0  0
  -20.5769  -26.2276   23.3628 H   0  0  0  0  0  0
  -21.6648  -26.7462   22.1184 H   0  0  0  0  0  0
  -19.6913  -25.6288   21.1239 H   0  0  0  0  0  0
  -19.6692  -27.3195   20.6797 H   0  0  0  0  0  0
  -17.4224  -26.6684   21.4010 H   0  0  0  0  0  0
  -18.0299  -26.0054   22.9019 H   0  0  0  0  0  0
  -19.7947  -30.7260   24.2235 H   0  0  0  0  0  0
  -17.5032  -31.6261   24.5157 H   0  0  0  0  0  0
  -15.5364  -30.2969   23.7674 H   0  0  0  0  0  0
  -15.8684  -28.0838   22.7026 H   0  0  0  0  0  0
  -24.5858  -30.7164   25.7805 H   0  0  0  0  0  0
  -24.8952  -32.3024   26.4785 H   0  0  0  0  0  0
  -25.8004  -30.9042   27.0263 H   0  0  0  0  0  0
  -26.2907  -29.6742   24.1156 H   0  0  0  0  0  0
  -27.3882  -29.7212   25.4748 H   0  0  0  0  0  0
  -27.8833  -30.4177   23.9505 H   0  0  0  0  0  0
  -27.2576  -33.3542   26.2181 H   0  0  0  0  0  0
  -28.3839  -32.6951   25.0387 H   0  0  0  0  0  0
  -28.0695  -31.8385   26.5411 H   0  0  0  0  0  0
  -28.2596  -38.0110   24.7496 H   0  0  0  0  0  0
  -28.1072  -36.2638   24.6272 H   0  0  0  0  0  0
  -27.2287  -37.1459   25.8849 H   0  0  0  0  0  0
  -20.9290  -29.8791   21.6892 H   0  0  0  0  0  0
  -26.0160  -38.2829   24.1434 H   0  0  0  0  0  0
  -31.0673  -21.6468   19.8184 H   0  0  0  0  0  0
  -32.8563  -20.1553   19.7919 H   0  0  0  0  0  0
  -32.4162  -18.8522   18.7031 H   0  0  0  0  0  0
  -32.6896  -18.5264   20.4239 H   0  0  0  0  0  0
  -27.5526  -17.1210   21.2398 H   0  0  0  0  0  0
  -27.2566  -17.3098   19.5020 H   0  0  0  0  0  0
  -26.4259  -18.3377   20.6727 H   0  0  0  0  0  0
  -31.3061  -16.9262   19.4832 H   0  0  0  0  0  0
  -29.7533  -16.7608   18.7932 H   0  0  0  0  0  0
  -27.3195  -22.4811   20.0795 H   0  0  0  0  0  0
  -28.3737  -22.5639   18.7130 H   0  0  0  0  0  0
  -29.9748  -24.0460   19.9372 H   0  0  0  0  0  0
  -29.0152  -23.9144   21.4071 H   0  0  0  0  0  0
  -27.0640  -24.8147   20.2731 H   0  0  0  0  0  0
  -27.9403  -25.0096   18.7652 H   0  0  0  0  0  0
  -29.0145  -15.6297   20.9308 H   0  0  0  0  0  0
  1 25  1  0  0  0
  1 30  2  0  0  0
  1 83  1  0  0  0
  2  3  1  0  0  0
  2 25  1  0  0  0
  2 84  1  0  0  0
  2 85  1  0  0  0
  3  4  1  0  0  0
  3 86  1  0  0  0
  3 87  1  0  0  0
  4  5  1  0  0  0
  4 88  1  0  0  0
  4 89  1  0  0  0
  5  6  1  0  0  0
  5 26  1  0  0  0
  5 90  1  0  0  0
  6 25  1  0  0  0
  6 91  1  0  0  0
  6 92  1  0  0  0
  7  8  2  0  0  0
  7 26  1  0  0  0
  7 29  1  0  0  0
  8  9  1  0  0  0
  8 22  1  0  0  0
  9 10  1  0  0  0
  9 27  2  0  0  0
 10 11  2  0  0  0
 10 15  1  0  0  0
 11 12  1  0  0  0
 11 93  1  0  0  0
 12 13  2  0  0  0
 12 94  1  0  0  0
 13 14  1  0  0  0
 13 31  1  0  0  0
 14 15  2  0  0  0
 14 95  1  0  0  0
 15 96  1  0  0  0
 16 17  2  0  0  0
 16 21  1  0  0  0
 16 31  1  0  0  0
 17 18  1  0  0  0
 17 97  1  0  0  0
 18 19  2  0  0  0
 18 98  1  0  0  0
 19 20  1  0  0  0
 19 24  1  0  0  0
 20 21  2  0  0  0
 20 99  1  0  0  0
 21 23  1  0  0  0
 22 28  1  0  0  0
 22 32  2  0  0  0
 26 27  1  0  0  0
 28100  1  0  0  0
 28101  1  0  0  0
 29102  1  0  0  0
 29103  1  0  0  0
 33 34  1  0  0  0
 33 66  1  0  0  0
 33 70  2  0  0  0
 34 36  1  0  0  0
 34 59  1  0  0  0
 34104  1  0  0  0
 35 44  2  0  0  0
 35 45  1  0  0  0
 35 68  1  0  0  0
 36 56  1  0  0  0
 36105  1  0  0  0
 37 39  1  0  0  0
 37 47  1  0  0  0
 37 66  1  0  0  0
 37106  1  0  0  0
 38 43  2  0  0  0
 38 46  1  0  0  0
 38 47  1  0  0  0
 39 64  1  0  0  0
 39 67  2  0  0  0
 40 52  1  0  0  0
 40 53  2  0  0  0
 40 58  1  0  0  0
 41107  1  0  0  0
 41108  1  0  0  0
 41109  1  0  0  0
 41 48  1  0  0  0
 42 43  1  0  0  0
 42 66  1  0  0  0
 42110  1  0  0  0
 42111  1  0  0  0
 43 44  1  0  0  0
 44112  1  0  0  0
 45 46  2  0  0  0
 45113  1  0  0  0
 46114  1  0  0  0
 47115  1  0  0  0
 47116  1  0  0  0
 48 56  1  0  0  0
 48 65  1  0  0  0
 48117  1  0  0  0
 49 50  1  0  0  0
 49 53  1  0  0  0
 49 64  1  0  0  0
 49118  1  0  0  0
 50 51  1  0  0  0
 50119  1  0  0  0
 50120  1  0  0  0
 51 52  1  0  0  0
 51121  1  0  0  0
 51122  1  0  0  0
 52123  1  0  0  0
 52124  1  0  0  0
 53 54  1  0  0  0
 54 55  2  0  0  0
 54125  1  0  0  0
 55 57  1  0  0  0
 55126  1  0  0  0
 56 69  2  0  0  0
 57 58  2  0  0  0
 57127  1  0  0  0
 58128  1  0  0  0
 59 60  1  0  0  0
 59 61  1  0  0  0
 59 62  1  0  0  0
 60129  1  0  0  0
 60130  1  0  0  0
 60131  1  0  0  0
 61132  1  0  0  0
 61133  1  0  0  0
 61134  1  0  0  0
 62135  1  0  0  0
 62136  1  0  0  0
 62137  1  0  0  0
 63 65  1  0  0  0
 63138  1  0  0  0
 63139  1  0  0  0
 63140  1  0  0  0
 64141  1  0  0  0
 65142  1  0  0  0
 68 81  1  0  0  0
 71 72  2  0  0  0
 71 74  1  0  0  0
 71143  1  0  0  0
 72 73  1  0  0  0
 72 76  1  0  0  0
 73 75  2  0  0  0
 73 78  1  0  0  0
 74 79  1  0  0  0
 74 82  2  0  0  0
 75 77  1  0  0  0
 75 82  1  0  0  0
 76144  1  0  0  0
 76145  1  0  0  0
 76146  1  0  0  0
 77147  1  0  0  0
 77148  1  0  0  0
 77149  1  0  0  0
 78 83  1  0  0  0
 78150  1  0  0  0
 78151  1  0  0  0
 79 80  1  0  0  0
 79152  1  0  0  0
 79153  1  0  0  0
 80 81  1  0  0  0
 80154  1  0  0  0
 80155  1  0  0  0
 81156  1  0  0  0
 81157  1  0  0  0
 83158  1  0  0  0
M  ISO  4   1 100  68 101  81 101  83 100
M  END
> <chiral flag>
0

> <version>
0

> <s_m_source_file>
/data/baiqing/PycharmProjects/Reinvent-master-3.2/result/LINK_invent/BTK/process_docking_weight1_custom_sum_contain_oxygen_bond_distance_aromatic_linkinvent_7_9_3/rearranged_h_0034.sdf

> <i_m_source_file_index>
8

> <r_mmod_Potential_Energy-OPLS-2005>
-94.1860961914062

> <r_mmod_Stretch_Energy-OPLS-2005>
64.6386871337891

> <r_mmod_Bend_Energy-OPLS-2005>
144.948837280273

> <r_mmod_Torsional_Energy-OPLS-2005>
229.769149780273

> <r_mmod_Improper_Torsional_Energy-OPLS-2005>
13.4152116775513

> <r_mmod_Van_der_Waal_Energy-OPLS-2005>
161.235153198242

> <r_mmod_Electrostatic_Energy-OPLS-2005>
-527.846130371094

> <r_mmod_Solvation_Energy-OPLS-2005>
-224.743957519531

> <b_mmod_Minimization_Converged-OPLS-2005>
0

> <r_mmod_RMS_Derivative-OPLS-2005>
4.2855544090271

$$$$
8
                    3D
 Structure written by MMmdl.
156164  0  0  1  0            999 V2000
  -30.4668  -15.0243   20.3497 C   0  0  0  0  0  0
  -30.4378  -12.6316   19.4925 C   0  0  0  0  0  0
  -29.5198  -12.5297   18.2528 C   0  0  0  0  0  0
  -28.0531  -12.3149   18.6712 C   0  0  0  0  0  0
  -27.6191  -13.2441   19.8345 C   0  0  2  0  0  0
  -28.6630  -13.2845   20.9686 C   0  0  0  0  0  0
  -25.2396  -13.8192   20.5703 C   0  0  0  0  0  0
  -24.1708  -13.0392   20.9253 C   0  0  0  0  0  0
  -24.6304  -11.6870   20.8678 C   0  0  0  0  0  0
  -23.8974  -10.4244   21.0352 C   0  0  0  0  0  0
  -24.3535   -9.4194   21.9150 C   0  0  0  0  0  0
  -23.6247   -8.2208   22.0743 C   0  0  0  0  0  0
  -22.4248   -8.0195   21.3509 C   0  0  0  0  0  0
  -21.9826   -9.0159   20.4628 C   0  0  0  0  0  0
  -22.7120  -10.2074   20.3045 C   0  0  0  0  0  0
  -21.6884   -6.0654   22.5253 C   0  0  0  0  0  0
  -21.4010   -6.5583   23.8158 C   0  0  0  0  0  0
  -21.3684   -5.6771   24.9143 C   0  0  0  0  0  0
  -21.6064   -4.3038   24.7240 C   0  0  0  0  0  0
  -21.8817   -3.8091   23.4374 C   0  0  0  0  0  0
  -21.9193   -4.6874   22.3403 C   0  0  0  0  0  0
  -22.7735  -13.5183   21.1907 C   0  0  0  0  0  0
  -22.1660   -4.2025   21.0991 F   0  0  0  0  0  0
  -21.5638   -3.4553   25.7788 F   0  0  0  0  0  0
  -29.9248  -13.7337   20.3598 N   0  0  0  0  0  0
  -26.2796  -12.9389   20.3196 N   0  0  0  0  0  0
  -25.9246  -11.6524   20.5667 N   0  0  0  0  0  0
  -22.0419  -12.8145   22.0494 N   0  0  0  0  0  0
  -25.4056  -15.1917   20.4093 N   0  0  0  0  0  0
  -31.6665  -15.1088   20.0577 O   0  0  0  0  0  0
  -21.6657   -6.8772   21.4204 O   0  0  0  0  0  0
  -22.3368  -14.5483   20.6809 O   0  0  0  0  0  0
  -24.6576  -31.8307   23.1770 C   0  0  0  0  0  0
  -25.9302  -32.4614   23.8184 C   0  0  1  0  0  0
  -27.2262  -27.0568   20.1539 C   0  0  0  0  0  0
  -25.5974  -33.8419   24.2055 N   0  0  0  0  0  0
  -23.4651  -30.4474   21.5271 C   0  0  2  0  0  0
  -24.9111  -28.8529   20.1158 C   0  0  0  0  0  0
  -22.7625  -29.4453   22.4805 C   0  0  0  0  0  0
  -18.0324  -28.1407   22.8447 C   0  0  0  0  0  0
  -24.1503  -36.7269   23.2641 C   0  0  0  0  0  0
  -26.0277  -30.6840   21.3822 C   0  0  0  0  0  0
  -26.0970  -29.2871   20.7227 C   0  0  0  0  0  0
  -27.2585  -28.4147   20.7010 C   0  0  0  0  0  0
  -26.0088  -26.7308   19.5238 C   0  0  0  0  0  0
  -24.8857  -27.5921   19.4972 C   0  0  0  0  0  0
  -23.6953  -29.7676   20.1506 C   0  0  0  0  0  0
  -25.4135  -36.2964   24.0272 C   0  0  1  0  0  0
  -20.5943  -28.3714   23.1214 C   0  0  2  0  0  0
  -20.6798  -26.9392   22.5395 C   0  0  0  0  0  0
  -19.5778  -26.6358   21.5206 C   0  0  0  0  0  0
  -18.1963  -26.7938   22.1612 C   0  0  0  0  0  0
  -19.1577  -28.8891   23.2829 C   0  0  0  0  0  0
  -18.9501  -30.1499   23.8830 C   0  0  0  0  0  0
  -17.6478  -30.6579   24.0563 C   0  0  0  0  0  0
  -25.9110  -34.9354   23.4977 C   0  0  0  0  0  0
  -16.5381  -29.9063   23.6345 C   0  0  0  0  0  0
  -16.7312  -28.6524   23.0308 C   0  0  0  0  0  0
  -26.4548  -31.6558   25.0700 C   0  0  0  0  0  0
  -25.3669  -31.3826   26.1356 C   0  0  0  0  0  0
  -27.0423  -30.2926   24.6390 C   0  0  0  0  0  0
  -27.6060  -32.4371   25.7489 C   0  0  0  0  0  0
  -27.5569  -37.1744   24.8437 C   0  0  0  0  0  0
  -21.4300  -29.3044   22.3578 N   0  0  0  0  0  0
  -26.4272  -37.3695   23.9392 N   0  0  0  0  0  0
  -24.7391  -31.0087   22.0862 N   0  0  0  0  0  0
  -23.4212  -28.7956   23.2963 O   0  0  0  0  0  0
  -28.3126  -26.0864   20.0802 O   0  0  0  0  0  0
  -26.5731  -34.8890   22.4565 O   0  0  0  0  0  0
  -23.5676  -32.1207   23.6936 O   0  0  0  0  0  0
  -29.6613  -21.4361   22.0782 C   0  0  0  0  0  0
  -29.7069  -19.1226   21.1047 C   0  0  0  0  0  0
  -29.3482  -20.6325   20.9651 C   0  0  0  0  0  0
  -30.3092  -20.9424   23.2051 C   0  0  0  0  0  0
  -30.2995  -18.7906   22.3719 C   0  0  0  0  0  0
  -30.8301  -21.8543   24.2948 C   0  0  0  0  0  0
  -30.7785  -17.4085   22.7846 C   0  0  0  0  0  0
  -29.6594  -17.7742   20.0991 C   0  0  0  0  0  0
  -28.4074  -24.5823   20.6201 C   0  0  0  0  0  0
  -28.1458  -22.9834   19.9940 C   0  0  0  0  0  0
  -30.5827  -19.6545   23.3573 N   0  0  0  0  0  0
  -29.6292  -16.1904   20.4719 N   0  0  0  0  0  0
  -28.8747  -21.5497   19.9160 O   0  0  0  0  0  0
  -31.4641  -12.8086   19.1729 H   0  0  0  0  0  0
  -30.4615  -11.6829   20.0341 H   0  0  0  0  0  0
  -29.8438  -11.7085   17.6137 H   0  0  0  0  0  0
  -29.6061  -13.4346   17.6470 H   0  0  0  0  0  0
  -27.9505  -11.2730   18.9781 H   0  0  0  0  0  0
  -27.3932  -12.4433   17.8114 H   0  0  0  0  0  0
  -27.5743  -14.2430   19.4019 H   0  0  0  0  0  0
  -28.7696  -12.2991   21.4272 H   0  0  0  0  0  0
  -28.3538  -13.9632   21.7644 H   0  0  0  0  0  0
  -25.2656   -9.5737   22.4716 H   0  0  0  0  0  0
  -23.9974   -7.4640   22.7490 H   0  0  0  0  0  0
  -21.0743   -8.8604   19.8957 H   0  0  0  0  0  0
  -22.3478  -10.9567   19.6153 H   0  0  0  0  0  0
  -21.1996   -7.6102   23.9606 H   0  0  0  0  0  0
  -21.1526   -6.0539   25.9036 H   0  0  0  0  0  0
  -22.0590   -2.7539   23.2938 H   0  0  0  0  0  0
  -22.4071  -11.9845   22.4949 H   0  0  0  0  0  0
  -21.0990  -13.1051   22.2640 H   0  0  0  0  0  0
  -24.6409  -15.8488   20.5288 H   0  0  0  0  0  0
  -26.2323  -15.6209   20.0148 H   0  0  0  0  0  0
  -26.7364  -32.5142   23.0891 H   0  0  0  0  0  0
  -24.9959  -33.9519   25.0086 H   0  0  0  0  0  0
  -22.7779  -31.2784   21.3557 H   0  0  0  0  0  0
  -23.3745  -35.9626   23.3251 H   0  0  0  0  0  0
  -24.3579  -36.8992   22.2076 H   0  0  0  0  0  0
  -23.7311  -37.6444   23.6767 H   0  0  0  0  0  0
  -26.1964  -31.4314   20.6056 H   0  0  0  0  0  0
  -26.8985  -30.7302   22.0262 H   0  0  0  0  0  0
  -28.1854  -28.7640   21.1346 H   0  0  0  0  0  0
  -25.9263  -25.7731   19.0329 H   0  0  0  0  0  0
  -23.9840  -27.2571   19.0011 H   0  0  0  0  0  0
  -23.8358  -30.5381   19.3910 H   0  0  0  0  0  0
  -22.8091  -29.2133   19.8405 H   0  0  0  0  0  0
  -25.1315  -36.1737   25.0766 H   0  0  0  0  0  0
  -21.0076  -28.3313   24.1313 H   0  0  0  0  0  0
  -20.5687  -26.2298   23.3612 H   0  0  0  0  0  0
  -21.6650  -26.7342   22.1164 H   0  0  0  0  0  0
  -19.6920  -25.6258   21.1253 H   0  0  0  0  0  0
  -19.6751  -27.3159   20.6746 H   0  0  0  0  0  0
  -17.4206  -26.6701   21.4037 H   0  0  0  0  0  0
  -18.0342  -26.0106   22.9038 H   0  0  0  0  0  0
  -19.7981  -30.7365   24.2126 H   0  0  0  0  0  0
  -17.5026  -31.6238   24.5195 H   0  0  0  0  0  0
  -15.5378  -30.2924   23.7743 H   0  0  0  0  0  0
  -15.8720  -28.0862   22.6972 H   0  0  0  0  0  0
  -24.5793  -30.7262   25.7616 H   0  0  0  0  0  0
  -24.8929  -32.3059   26.4724 H   0  0  0  0  0  0
  -25.7838  -30.8950   27.0176 H   0  0  0  0  0  0
  -26.3063  -29.6615   24.1397 H   0  0  0  0  0  0
  -27.3972  -29.7283   25.5029 H   0  0  0  0  0  0
  -27.8981  -30.4098   23.9742 H   0  0  0  0  0  0
  -27.2617  -33.3702   26.1978 H   0  0  0  0  0  0
  -28.3895  -32.6919   25.0330 H   0  0  0  0  0  0
  -28.0715  -31.8566   26.5467 H   0  0  0  0  0  0
  -28.2475  -38.0137   24.7511 H   0  0  0  0  0  0
  -28.1131  -36.2633   24.6167 H   0  0  0  0  0  0
  -27.2281  -37.1318   25.8836 H   0  0  0  0  0  0
  -20.9543  -29.8793   21.6753 H   0  0  0  0  0  0
  -26.0103  -38.2712   24.1470 H   0  0  0  0  0  0
  -29.4855  -22.4967   22.0507 H   0  0  0  0  0  0
  -30.2518  -21.7590   25.2120 H   0  0  0  0  0  0
  -30.7962  -22.8966   23.9823 H   0  0  0  0  0  0
  -31.8679  -21.6031   24.5306 H   0  0  0  0  0  0
  -31.4619  -17.0086   22.0441 H   0  0  0  0  0  0
  -29.9385  -16.7306   22.9427 H   0  0  0  0  0  0
  -31.3492  -17.4125   23.7153 H   0  0  0  0  0  0
  -28.7727  -17.9140   19.4760 H   0  0  0  0  0  0
  -30.4984  -17.9066   19.4154 H   0  0  0  0  0  0
  -29.4342  -24.5434   20.9865 H   0  0  0  0  0  0
  -27.8332  -24.6142   21.5474 H   0  0  0  0  0  0
  -27.9264  -23.1665   18.9429 H   0  0  0  0  0  0
  -27.1687  -22.7167   20.3995 H   0  0  0  0  0  0
  -28.7047  -15.9042   20.7563 H   0  0  0  0  0  0
  1 25  1  0  0  0
  1 30  2  0  0  0
  1 82  1  0  0  0
  2  3  1  0  0  0
  2 25  1  0  0  0
  2 84  1  0  0  0
  2 85  1  0  0  0
  3  4  1  0  0  0
  3 86  1  0  0  0
  3 87  1  0  0  0
  4  5  1  0  0  0
  4 88  1  0  0  0
  4 89  1  0  0  0
  5  6  1  0  0  0
  5 26  1  0  0  0
  5 90  1  0  0  0
  6 25  1  0  0  0
  6 91  1  0  0  0
  6 92  1  0  0  0
  7  8  2  0  0  0
  7 26  1  0  0  0
  7 29  1  0  0  0
  8  9  1  0  0  0
  8 22  1  0  0  0
  9 10  1  0  0  0
  9 27  2  0  0  0
 10 11  2  0  0  0
 10 15  1  0  0  0
 11 12  1  0  0  0
 11 93  1  0  0  0
 12 13  2  0  0  0
 12 94  1  0  0  0
 13 14  1  0  0  0
 13 31  1  0  0  0
 14 15  2  0  0  0
 14 95  1  0  0  0
 15 96  1  0  0  0
 16 17  2  0  0  0
 16 21  1  0  0  0
 16 31  1  0  0  0
 17 18  1  0  0  0
 17 97  1  0  0  0
 18 19  2  0  0  0
 18 98  1  0  0  0
 19 20  1  0  0  0
 19 24  1  0  0  0
 20 21  2  0  0  0
 20 99  1  0  0  0
 21 23  1  0  0  0
 22 28  1  0  0  0
 22 32  2  0  0  0
 26 27  1  0  0  0
 28100  1  0  0  0
 28101  1  0  0  0
 29102  1  0  0  0
 29103  1  0  0  0
 33 34  1  0  0  0
 33 66  1  0  0  0
 33 70  2  0  0  0
 34 36  1  0  0  0
 34 59  1  0  0  0
 34104  1  0  0  0
 35 44  2  0  0  0
 35 45  1  0  0  0
 35 68  1  0  0  0
 36 56  1  0  0  0
 36105  1  0  0  0
 37 39  1  0  0  0
 37 47  1  0  0  0
 37 66  1  0  0  0
 37106  1  0  0  0
 38 43  2  0  0  0
 38 46  1  0  0  0
 38 47  1  0  0  0
 39 64  1  0  0  0
 39 67  2  0  0  0
 40 52  1  0  0  0
 40 53  2  0  0  0
 40 58  1  0  0  0
 41107  1  0  0  0
 41108  1  0  0  0
 41109  1  0  0  0
 41 48  1  0  0  0
 42 43  1  0  0  0
 42 66  1  0  0  0
 42110  1  0  0  0
 42111  1  0  0  0
 43 44  1  0  0  0
 44112  1  0  0  0
 45 46  2  0  0  0
 45113  1  0  0  0
 46114  1  0  0  0
 47115  1  0  0  0
 47116  1  0  0  0
 48 56  1  0  0  0
 48 65  1  0  0  0
 48117  1  0  0  0
 49 50  1  0  0  0
 49 53  1  0  0  0
 49 64  1  0  0  0
 49118  1  0  0  0
 50 51  1  0  0  0
 50119  1  0  0  0
 50120  1  0  0  0
 51 52  1  0  0  0
 51121  1  0  0  0
 51122  1  0  0  0
 52123  1  0  0  0
 52124  1  0  0  0
 53 54  1  0  0  0
 54 55  2  0  0  0
 54125  1  0  0  0
 55 57  1  0  0  0
 55126  1  0  0  0
 56 69  2  0  0  0
 57 58  2  0  0  0
 57127  1  0  0  0
 58128  1  0  0  0
 59 60  1  0  0  0
 59 61  1  0  0  0
 59 62  1  0  0  0
 60129  1  0  0  0
 60130  1  0  0  0
 60131  1  0  0  0
 61132  1  0  0  0
 61133  1  0  0  0
 61134  1  0  0  0
 62135  1  0  0  0
 62136  1  0  0  0
 62137  1  0  0  0
 63 65  1  0  0  0
 63138  1  0  0  0
 63139  1  0  0  0
 63140  1  0  0  0
 64141  1  0  0  0
 65142  1  0  0  0
 68 79  1  0  0  0
 71 73  2  0  0  0
 71 74  1  0  0  0
 71143  1  0  0  0
 72 73  1  0  0  0
 72 75  2  0  0  0
 72 78  1  0  0  0
 73 83  1  0  0  0
 74 76  1  0  0  0
 74 81  2  0  0  0
 75 77  1  0  0  0
 75 81  1  0  0  0
 76144  1  0  0  0
 76145  1  0  0  0
 76146  1  0  0  0
 77147  1  0  0  0
 77148  1  0  0  0
 77149  1  0  0  0
 78 82  1  0  0  0
 78150  1  0  0  0
 78151  1  0  0  0
 79 80  1  0  0  0
 79152  1  0  0  0
 79153  1  0  0  0
 80 83  1  0  0  0
 80154  1  0  0  0
 80155  1  0  0  0
 82156  1  0  0  0
M  ISO  4   1 100  68 101  79 101  82 100
M  END
> <chiral flag>
0

> <version>
0

> <s_m_source_file>
/data/baiqing/PycharmProjects/Reinvent-master-3.2/result/LINK_invent/BTK/process_docking_weight1_custom_sum_contain_oxygen_bond_distance_aromatic_linkinvent_7_9_3/rearranged_h_0034.sdf

> <i_m_source_file_index>
9

> <r_mmod_Potential_Energy-OPLS-2005>
754.601135253906

> <r_mmod_Stretch_Energy-OPLS-2005>
407.525329589844

> <r_mmod_Bend_Energy-OPLS-2005>
476.630584716797

> <r_mmod_Torsional_Energy-OPLS-2005>
226.331802368164

> <r_mmod_Improper_Torsional_Energy-OPLS-2005>
6.21100425720215

> <r_mmod_Van_der_Waal_Energy-OPLS-2005>
146.372482299805

> <r_mmod_Electrostatic_Energy-OPLS-2005>
-527.2119140625

> <r_mmod_Solvation_Energy-OPLS-2005>
-232.983154296875

> <b_mmod_Minimization_Converged-OPLS-2005>
0

> <r_mmod_RMS_Derivative-OPLS-2005>
5.95976543426514

$$$$
9
                    3D
 Structure written by MMmdl.
160168  0  0  1  0            999 V2000
  -30.7057  -14.5866   20.5186 C   0  0  0  0  0  0
  -30.4183  -12.3709   19.4454 C   0  0  0  0  0  0
  -29.4983  -12.5011   18.2152 C   0  0  0  0  0  0
  -28.0212  -12.3556   18.6269 C   0  0  0  0  0  0
  -27.6498  -13.2272   19.8574 C   0  0  2  0  0  0
  -28.6969  -13.1044   20.9871 C   0  0  0  0  0  0
  -25.2527  -13.8191   20.5662 C   0  0  0  0  0  0
  -24.1828  -13.0438   20.9204 C   0  0  0  0  0  0
  -24.6414  -11.6921   20.8761 C   0  0  0  0  0  0
  -23.9082  -10.4297   21.0412 C   0  0  0  0  0  0
  -24.3628   -9.4210   21.9183 C   0  0  0  0  0  0
  -23.6301   -8.2246   22.0754 C   0  0  0  0  0  0
  -22.4279   -8.0293   21.3550 C   0  0  0  0  0  0
  -21.9921   -9.0264   20.4644 C   0  0  0  0  0  0
  -22.7256  -10.2142   20.3055 C   0  0  0  0  0  0
  -21.6852   -6.0743   22.5278 C   0  0  0  0  0  0
  -21.4007   -6.5639   23.8214 C   0  0  0  0  0  0
  -21.3661   -5.6788   24.9172 C   0  0  0  0  0  0
  -21.6042   -4.3052   24.7220 C   0  0  0  0  0  0
  -21.8821   -3.8152   23.4338 C   0  0  0  0  0  0
  -21.9191   -4.6971   22.3397 C   0  0  0  0  0  0
  -22.7836  -13.5226   21.1847 C   0  0  0  0  0  0
  -22.1660   -4.2158   21.0974 F   0  0  0  0  0  0
  -21.5638   -3.4534   25.7728 F   0  0  0  0  0  0
  -30.0121  -13.4128   20.4094 N   0  0  0  0  0  0
  -26.2979  -12.9407   20.3305 N   0  0  0  0  0  0
  -25.9347  -11.6553   20.5769 N   0  0  0  0  0  0
  -22.0467  -12.8223   22.0397 N   0  0  0  0  0  0
  -25.4179  -15.1906   20.4009 N   0  0  0  0  0  0
  -31.8754  -14.6651   20.1368 O   0  0  0  0  0  0
  -21.6647   -6.8886   21.4240 O   0  0  0  0  0  0
  -22.3520  -14.5524   20.6681 O   0  0  0  0  0  0
  -24.6236  -31.8637   23.2066 C   0  0  0  0  0  0
  -25.9096  -32.4797   23.8388 C   0  0  1  0  0  0
  -27.2094  -27.3396   20.0984 C   0  0  0  0  0  0
  -25.5912  -33.8601   24.2292 N   0  0  0  0  0  0
  -23.4144  -30.4937   21.5492 C   0  0  2  0  0  0
  -24.8562  -28.9622   20.1067 C   0  0  0  0  0  0
  -22.7458  -29.4669   22.4948 C   0  0  0  0  0  0
  -18.0280  -28.1392   22.8492 C   0  0  0  0  0  0
  -24.1478  -36.7311   23.2644 C   0  0  0  0  0  0
  -25.9585  -30.7980   21.3790 C   0  0  0  0  0  0
  -26.0277  -29.4313   20.7151 C   0  0  0  0  0  0
  -27.2069  -28.6297   20.7083 C   0  0  0  0  0  0
  -26.0158  -26.9380   19.4458 C   0  0  0  0  0  0
  -24.8505  -27.7181   19.4668 C   0  0  0  0  0  0
  -23.6259  -29.8400   20.1605 C   0  0  0  0  0  0
  -25.4103  -36.3107   24.0329 C   0  0  1  0  0  0
  -20.5877  -28.3692   23.1283 C   0  0  2  0  0  0
  -20.6779  -26.9420   22.5409 C   0  0  0  0  0  0
  -19.5755  -26.6388   21.5218 C   0  0  0  0  0  0
  -18.1928  -26.7935   22.1621 C   0  0  0  0  0  0
  -19.1534  -28.8862   23.2886 C   0  0  0  0  0  0
  -18.9463  -30.1464   23.8909 C   0  0  0  0  0  0
  -17.6469  -30.6604   24.0569 C   0  0  0  0  0  0
  -25.9039  -34.9467   23.5114 C   0  0  0  0  0  0
  -16.5358  -29.9109   23.6327 C   0  0  0  0  0  0
  -16.7269  -28.6515   23.0362 C   0  0  0  0  0  0
  -26.4474  -31.6602   25.0749 C   0  0  0  0  0  0
  -25.3720  -31.3731   26.1484 C   0  0  0  0  0  0
  -27.0301  -30.3025   24.6187 C   0  0  0  0  0  0
  -27.6029  -32.4343   25.7519 C   0  0  0  0  0  0
  -27.5577  -37.1816   24.8463 C   0  0  0  0  0  0
  -21.4174  -29.3059   22.3683 N   0  0  0  0  0  0
  -26.4283  -37.3801   23.9405 N   0  0  0  0  0  0
  -24.6844  -31.0682   22.1012 N   0  0  0  0  0  0
  -23.4200  -28.8200   23.3004 O   0  0  0  0  0  0
  -28.3095  -26.4699   20.1689 O   0  0  0  0  0  0
  -26.5635  -34.8925   22.4699 O   0  0  0  0  0  0
  -23.5402  -32.1431   23.7401 O   0  0  0  0  0  0
  -28.2263  -20.0931   20.9325 C   0  0  0  0  0  0
  -30.3286  -20.7442   19.9680 C   0  0  0  0  0  0
  -29.0101  -21.0994   20.3163 C   0  0  0  0  0  0
  -28.7261  -18.7824   21.1857 C   0  0  0  0  0  0
  -30.0564  -18.4189   20.8252 C   0  0  0  0  0  0
  -30.8644  -19.4428   20.2323 C   0  0  0  0  0  0
  -27.8105  -17.7882   21.8787 C   0  0  0  0  0  0
  -33.0558  -20.1795   19.5332 C   0  0  0  0  0  0
  -28.3811  -22.4620   19.8895 C   0  0  0  0  0  0
  -30.6988  -17.0303   21.2022 C   0  0  0  0  0  0
  -28.9575  -23.8588   20.3616 C   0  0  0  0  0  0
  -28.0265  -25.0473   19.8979 C   0  0  0  0  0  0
  -30.0405  -15.7105   20.9162 N   0  0  0  0  0  0
  -32.1769  -19.1321   19.9394 O   0  0  0  0  0  0
  -31.4635  -12.4592   19.1426 H   0  0  0  0  0  0
  -30.3240  -11.3818   19.8961 H   0  0  0  0  0  0
  -29.7564  -11.7473   17.4708 H   0  0  0  0  0  0
  -29.6542  -13.4699   17.7360 H   0  0  0  0  0  0
  -27.8432  -11.3034   18.8492 H   0  0  0  0  0  0
  -27.3730  -12.6008   17.7844 H   0  0  0  0  0  0
  -27.6632  -14.2619   19.5143 H   0  0  0  0  0  0
  -28.7003  -12.0948   21.4015 H   0  0  0  0  0  0
  -28.4551  -13.7724   21.8147 H   0  0  0  0  0  0
  -25.2775   -9.5693   22.4759 H   0  0  0  0  0  0
  -24.0015   -7.4634   22.7469 H   0  0  0  0  0  0
  -21.0855   -8.8785   19.8941 H   0  0  0  0  0  0
  -22.3716  -10.9685   19.6172 H   0  0  0  0  0  0
  -21.1996   -7.6146   23.9723 H   0  0  0  0  0  0
  -21.1479   -6.0513   25.9076 H   0  0  0  0  0  0
  -22.0601   -2.7617   23.2831 H   0  0  0  0  0  0
  -22.4075  -11.9912   22.4836 H   0  0  0  0  0  0
  -21.1078  -13.1254   22.2561 H   0  0  0  0  0  0
  -24.6416  -15.8367   20.4943 H   0  0  0  0  0  0
  -26.2448  -15.6212   20.0090 H   0  0  0  0  0  0
  -26.7176  -32.5453   23.1149 H   0  0  0  0  0  0
  -25.0020  -33.9770   25.0406 H   0  0  0  0  0  0
  -22.7081  -31.3152   21.4129 H   0  0  0  0  0  0
  -23.3741  -35.9648   23.3314 H   0  0  0  0  0  0
  -24.3587  -36.8919   22.2062 H   0  0  0  0  0  0
  -23.7221  -37.6513   23.6662 H   0  0  0  0  0  0
  -26.0955  -31.5640   20.6148 H   0  0  0  0  0  0
  -26.8390  -30.8391   22.0082 H   0  0  0  0  0  0
  -28.1012  -28.9797   21.2055 H   0  0  0  0  0  0
  -25.9384  -26.0011   18.9160 H   0  0  0  0  0  0
  -23.9534  -27.3576   18.9799 H   0  0  0  0  0  0
  -23.7461  -30.6220   19.4097 H   0  0  0  0  0  0
  -22.7447  -29.2733   19.8530 H   0  0  0  0  0  0
  -25.1283  -36.1981   25.0823 H   0  0  0  0  0  0
  -20.9961  -28.3268   24.1404 H   0  0  0  0  0  0
  -20.5689  -26.2306   23.3613 H   0  0  0  0  0  0
  -21.6655  -26.7474   22.1206 H   0  0  0  0  0  0
  -19.6919  -25.6301   21.1251 H   0  0  0  0  0  0
  -19.6693  -27.3200   20.6754 H   0  0  0  0  0  0
  -17.4205  -26.6683   21.4019 H   0  0  0  0  0  0
  -18.0332  -26.0083   22.9018 H   0  0  0  0  0  0
  -19.7948  -30.7266   24.2282 H   0  0  0  0  0  0
  -17.5037  -31.6284   24.5178 H   0  0  0  0  0  0
  -15.5364  -30.3031   23.7656 H   0  0  0  0  0  0
  -15.8653  -28.0843   22.7090 H   0  0  0  0  0  0
  -24.5913  -30.7049   25.7832 H   0  0  0  0  0  0
  -24.8895  -32.2892   26.4908 H   0  0  0  0  0  0
  -25.8071  -30.8937   27.0262 H   0  0  0  0  0  0
  -26.2862  -29.6802   24.1205 H   0  0  0  0  0  0
  -27.3993  -29.7255   25.4677 H   0  0  0  0  0  0
  -27.8733  -30.4315   23.9401 H   0  0  0  0  0  0
  -27.2634  -33.3645   26.2095 H   0  0  0  0  0  0
  -28.3845  -32.6907   25.0353 H   0  0  0  0  0  0
  -28.0695  -31.8475   26.5447 H   0  0  0  0  0  0
  -28.2608  -38.0101   24.7527 H   0  0  0  0  0  0
  -28.1060  -36.2645   24.6272 H   0  0  0  0  0  0
  -27.2315  -37.1443   25.8871 H   0  0  0  0  0  0
  -20.9346  -29.8794   21.6909 H   0  0  0  0  0  0
  -26.0166  -38.2875   24.1418 H   0  0  0  0  0  0
  -27.2037  -20.3254   21.1992 H   0  0  0  0  0  0
  -30.9174  -21.5005   19.4730 H   0  0  0  0  0  0
  -26.9411  -18.2811   22.3149 H   0  0  0  0  0  0
  -28.3306  -17.2724   22.6863 H   0  0  0  0  0  0
  -27.4469  -17.0481   21.1674 H   0  0  0  0  0  0
  -32.8210  -20.5264   18.5255 H   0  0  0  0  0  0
  -34.0817  -19.8143   19.5216 H   0  0  0  0  0  0
  -33.0318  -21.0271   20.2205 H   0  0  0  0  0  0
  -27.3273  -22.4250   20.1687 H   0  0  0  0  0  0
  -28.3739  -22.4609   18.7983 H   0  0  0  0  0  0
  -30.8602  -17.0546   22.2806 H   0  0  0  0  0  0
  -31.7079  -17.0035   20.7932 H   0  0  0  0  0  0
  -29.9670  -23.9963   19.9747 H   0  0  0  0  0  0
  -29.0389  -23.8731   21.4490 H   0  0  0  0  0  0
  -27.0629  -24.8058   20.3505 H   0  0  0  0  0  0
  -27.8984  -24.9508   18.8183 H   0  0  0  0  0  0
  -29.0628  -15.6174   21.1408 H   0  0  0  0  0  0
  1 25  1  0  0  0
  1 30  2  0  0  0
  1 83  1  0  0  0
  2  3  1  0  0  0
  2 25  1  0  0  0
  2 85  1  0  0  0
  2 86  1  0  0  0
  3  4  1  0  0  0
  3 87  1  0  0  0
  3 88  1  0  0  0
  4  5  1  0  0  0
  4 89  1  0  0  0
  4 90  1  0  0  0
  5  6  1  0  0  0
  5 26  1  0  0  0
  5 91  1  0  0  0
  6 25  1  0  0  0
  6 92  1  0  0  0
  6 93  1  0  0  0
  7  8  2  0  0  0
  7 26  1  0  0  0
  7 29  1  0  0  0
  8  9  1  0  0  0
  8 22  1  0  0  0
  9 10  1  0  0  0
  9 27  2  0  0  0
 10 11  2  0  0  0
 10 15  1  0  0  0
 11 12  1  0  0  0
 11 94  1  0  0  0
 12 13  2  0  0  0
 12 95  1  0  0  0
 13 14  1  0  0  0
 13 31  1  0  0  0
 14 15  2  0  0  0
 14 96  1  0  0  0
 15 97  1  0  0  0
 16 17  2  0  0  0
 16 21  1  0  0  0
 16 31  1  0  0  0
 17 18  1  0  0  0
 17 98  1  0  0  0
 18 19  2  0  0  0
 18 99  1  0  0  0
 19 20  1  0  0  0
 19 24  1  0  0  0
 20 21  2  0  0  0
 20100  1  0  0  0
 21 23  1  0  0  0
 22 28  1  0  0  0
 22 32  2  0  0  0
 26 27  1  0  0  0
 28101  1  0  0  0
 28102  1  0  0  0
 29103  1  0  0  0
 29104  1  0  0  0
 33 34  1  0  0  0
 33 66  1  0  0  0
 33 70  2  0  0  0
 34 36  1  0  0  0
 34 59  1  0  0  0
 34105  1  0  0  0
 35 44  2  0  0  0
 35 45  1  0  0  0
 35 68  1  0  0  0
 36 56  1  0  0  0
 36106  1  0  0  0
 37 39  1  0  0  0
 37 47  1  0  0  0
 37 66  1  0  0  0
 37107  1  0  0  0
 38 43  2  0  0  0
 38 46  1  0  0  0
 38 47  1  0  0  0
 39 64  1  0  0  0
 39 67  2  0  0  0
 40 52  1  0  0  0
 40 53  2  0  0  0
 40 58  1  0  0  0
 41108  1  0  0  0
 41109  1  0  0  0
 41110  1  0  0  0
 41 48  1  0  0  0
 42 43  1  0  0  0
 42 66  1  0  0  0
 42111  1  0  0  0
 42112  1  0  0  0
 43 44  1  0  0  0
 44113  1  0  0  0
 45 46  2  0  0  0
 45114  1  0  0  0
 46115  1  0  0  0
 47116  1  0  0  0
 47117  1  0  0  0
 48 56  1  0  0  0
 48 65  1  0  0  0
 48118  1  0  0  0
 49 50  1  0  0  0
 49 53  1  0  0  0
 49 64  1  0  0  0
 49119  1  0  0  0
 50 51  1  0  0  0
 50120  1  0  0  0
 50121  1  0  0  0
 51 52  1  0  0  0
 51122  1  0  0  0
 51123  1  0  0  0
 52124  1  0  0  0
 52125  1  0  0  0
 53 54  1  0  0  0
 54 55  2  0  0  0
 54126  1  0  0  0
 55 57  1  0  0  0
 55127  1  0  0  0
 56 69  2  0  0  0
 57 58  2  0  0  0
 57128  1  0  0  0
 58129  1  0  0  0
 59 60  1  0  0  0
 59 61  1  0  0  0
 59 62  1  0  0  0
 60130  1  0  0  0
 60131  1  0  0  0
 60132  1  0  0  0
 61133  1  0  0  0
 61134  1  0  0  0
 61135  1  0  0  0
 62136  1  0  0  0
 62137  1  0  0  0
 62138  1  0  0  0
 63 65  1  0  0  0
 63139  1  0  0  0
 63140  1  0  0  0
 63141  1  0  0  0
 64142  1  0  0  0
 65143  1  0  0  0
 68 82  1  0  0  0
 71 73  2  0  0  0
 71 74  1  0  0  0
 71144  1  0  0  0
 72 73  1  0  0  0
 72 76  2  0  0  0
 72145  1  0  0  0
 73 79  1  0  0  0
 74 75  2  0  0  0
 74 77  1  0  0  0
 75 76  1  0  0  0
 75 80  1  0  0  0
 76 84  1  0  0  0
 77146  1  0  0  0
 77147  1  0  0  0
 77148  1  0  0  0
 78 84  1  0  0  0
 78149  1  0  0  0
 78150  1  0  0  0
 78151  1  0  0  0
 79 81  1  0  0  0
 79152  1  0  0  0
 79153  1  0  0  0
 80 83  1  0  0  0
 80154  1  0  0  0
 80155  1  0  0  0
 81 82  1  0  0  0
 81156  1  0  0  0
 81157  1  0  0  0
 82158  1  0  0  0
 82159  1  0  0  0
 83160  1  0  0  0
M  ISO  4   1 100  68 101  82 101  83 100
M  END
> <chiral flag>
0

> <version>
0

> <s_m_source_file>
/data/baiqing/PycharmProjects/Reinvent-master-3.2/result/LINK_invent/BTK/process_docking_weight1_custom_sum_contain_oxygen_bond_distance_aromatic_linkinvent_7_9_3/rearranged_h_0034.sdf

> <i_m_source_file_index>
10

> <r_mmod_Potential_Energy-OPLS-2005>
12.834846496582

> <r_mmod_Stretch_Energy-OPLS-2005>
71.3640670776367

> <r_mmod_Bend_Energy-OPLS-2005>
144.88346862793

> <r_mmod_Torsional_Energy-OPLS-2005>
201.135681152344

> <r_mmod_Improper_Torsional_Energy-OPLS-2005>
4.76599502563477

> <r_mmod_Van_der_Waal_Energy-OPLS-2005>
164.585647583008

> <r_mmod_Electrostatic_Energy-OPLS-2005>
-402.488891601562

> <r_mmod_Solvation_Energy-OPLS-2005>
-214.275955200195

> <b_mmod_Minimization_Converged-OPLS-2005>
0

> <r_mmod_RMS_Derivative-OPLS-2005>
2.09468746185303

$$$$
10
                    3D
 Structure written by MMmdl.
165173  0  0  1  0            999 V2000
  -30.6978  -14.3946   20.6975 C   0  0  0  0  0  0
  -30.4367  -12.3069   19.4020 C   0  0  0  0  0  0
  -29.5002  -12.5426   18.2003 C   0  0  0  0  0  0
  -28.0180  -12.4000   18.6096 C   0  0  0  0  0  0
  -27.6731  -13.1988   19.8935 C   0  0  2  0  0  0
  -28.7067  -12.8914   21.0002 C   0  0  0  0  0  0
  -25.2636  -13.8145   20.5700 C   0  0  0  0  0  0
  -24.1871  -13.0446   20.9179 C   0  0  0  0  0  0
  -24.6399  -11.6899   20.8720 C   0  0  0  0  0  0
  -23.9033  -10.4308   21.0396 C   0  0  0  0  0  0
  -24.3583   -9.4218   21.9180 C   0  0  0  0  0  0
  -23.6282   -8.2238   22.0748 C   0  0  0  0  0  0
  -22.4260   -8.0287   21.3539 C   0  0  0  0  0  0
  -21.9875   -9.0249   20.4629 C   0  0  0  0  0  0
  -22.7187  -10.2147   20.3047 C   0  0  0  0  0  0
  -21.6857   -6.0736   22.5284 C   0  0  0  0  0  0
  -21.4023   -6.5638   23.8211 C   0  0  0  0  0  0
  -21.3648   -5.6793   24.9168 C   0  0  0  0  0  0
  -21.6045   -4.3052   24.7232 C   0  0  0  0  0  0
  -21.8819   -3.8144   23.4347 C   0  0  0  0  0  0
  -21.9204   -4.6966   22.3406 C   0  0  0  0  0  0
  -22.7897  -13.5244   21.1844 C   0  0  0  0  0  0
  -22.1675   -4.2145   21.0993 F   0  0  0  0  0  0
  -21.5618   -3.4540   25.7745 F   0  0  0  0  0  0
  -30.0446  -13.2256   20.4764 N   0  0  0  0  0  0
  -26.3072  -12.9286   20.3414 N   0  0  0  0  0  0
  -25.9330  -11.6455   20.5773 N   0  0  0  0  0  0
  -22.0552  -12.8253   22.0404 N   0  0  0  0  0  0
  -25.4425  -15.1862   20.4137 N   0  0  0  0  0  0
  -31.7429  -14.7126   20.1157 O   0  0  0  0  0  0
  -21.6625   -6.8880   21.4240 O   0  0  0  0  0  0
  -22.3569  -14.5558   20.6720 O   0  0  0  0  0  0
  -24.6095  -31.8716   23.2145 C   0  0  0  0  0  0
  -25.9023  -32.4843   23.8414 C   0  0  1  0  0  0
  -27.2458  -27.4921   20.0852 C   0  0  0  0  0  0
  -25.5893  -33.8641   24.2317 N   0  0  0  0  0  0
  -23.3936  -30.4997   21.5519 C   0  0  2  0  0  0
  -24.8384  -28.9707   20.1176 C   0  0  0  0  0  0
  -22.7369  -29.4723   22.4990 C   0  0  0  0  0  0
  -18.0277  -28.1369   22.8459 C   0  0  0  0  0  0
  -24.1497  -36.7327   23.2636 C   0  0  0  0  0  0
  -25.9170  -30.8585   21.3562 C   0  0  0  0  0  0
  -25.9917  -29.4965   20.7071 C   0  0  0  0  0  0
  -27.1950  -28.7651   20.6884 C   0  0  0  0  0  0
  -26.0650  -26.9587   19.5123 C   0  0  0  0  0  0
  -24.8656  -27.6974   19.5228 C   0  0  0  0  0  0
  -23.5973  -29.8327   20.1658 C   0  0  0  0  0  0
  -25.4115  -36.3096   24.0317 C   0  0  1  0  0  0
  -20.5850  -28.3673   23.1303 C   0  0  2  0  0  0
  -20.6803  -26.9399   22.5425 C   0  0  0  0  0  0
  -19.5789  -26.6345   21.5237 C   0  0  0  0  0  0
  -18.1952  -26.7904   22.1605 C   0  0  0  0  0  0
  -19.1508  -28.8842   23.2875 C   0  0  0  0  0  0
  -18.9447  -30.1446   23.8882 C   0  0  0  0  0  0
  -17.6452  -30.6584   24.0530 C   0  0  0  0  0  0
  -25.9047  -34.9475   23.5117 C   0  0  0  0  0  0
  -16.5343  -29.9074   23.6295 C   0  0  0  0  0  0
  -16.7269  -28.6485   23.0311 C   0  0  0  0  0  0
  -26.4478  -31.6600   25.0713 C   0  0  0  0  0  0
  -25.3756  -31.3719   26.1469 C   0  0  0  0  0  0
  -27.0308  -30.3035   24.6080 C   0  0  0  0  0  0
  -27.6048  -32.4316   25.7477 C   0  0  0  0  0  0
  -27.5573  -37.1818   24.8457 C   0  0  0  0  0  0
  -21.4086  -29.3051   22.3706 N   0  0  0  0  0  0
  -26.4297  -37.3773   23.9393 N   0  0  0  0  0  0
  -24.6578  -31.0903   22.0989 N   0  0  0  0  0  0
  -23.4173  -28.8237   23.3015 O   0  0  0  0  0  0
  -28.4697  -26.8601   20.0805 O   0  0  0  0  0  0
  -26.5592  -34.8926   22.4667 O   0  0  0  0  0  0
  -23.5321  -32.1438   23.7577 O   0  0  0  0  0  0
  -27.9696  -17.1076   22.6601 C   0  0  0  0  0  0
  -29.0388  -18.6137   21.0891 C   0  0  0  0  0  0
  -29.0921  -17.4492   21.8746 C   0  0  0  0  0  0
  -26.8154  -17.9257   22.6786 C   0  0  0  0  0  0
  -27.8764  -19.4135   21.0512 C   0  0  0  0  0  0
  -26.7564  -19.0823   21.8552 C   0  0  0  0  0  0
  -25.6566  -17.5689   23.6030 C   0  0  0  0  0  0
  -25.5205  -19.9788   21.8853 C   0  0  0  0  0  0
  -27.8867  -20.6243   20.1305 C   0  0  0  0  0  0
  -30.3584  -16.5900   21.8724 C   0  0  0  0  0  0
  -28.1112  -21.9501   20.8726 C   0  0  0  0  0  0
  -28.2769  -23.1001   19.8745 C   0  0  0  0  0  0
  -28.2116  -24.4970   20.5076 C   0  0  0  0  0  0
  -28.6053  -25.5781   19.4938 C   0  0  0  0  0  0
  -30.0862  -15.1838   21.5904 N   0  0  0  0  0  0
  -31.4794  -12.4312   19.1074 H   0  0  0  0  0  0
  -30.3512  -11.2802   19.7621 H   0  0  0  0  0  0
  -29.7318  -11.8364   17.4037 H   0  0  0  0  0  0
  -29.6706  -13.5409   17.7914 H   0  0  0  0  0  0
  -27.8213  -11.3386   18.7793 H   0  0  0  0  0  0
  -27.3663  -12.7086   17.7904 H   0  0  0  0  0  0
  -27.7399  -14.2589   19.6438 H   0  0  0  0  0  0
  -28.6852  -11.8294   21.2437 H   0  0  0  0  0  0
  -28.4553  -13.3925   21.9355 H   0  0  0  0  0  0
  -25.2744   -9.5710   22.4727 H   0  0  0  0  0  0
  -24.0020   -7.4620   22.7475 H   0  0  0  0  0  0
  -21.0784   -8.8730   19.8946 H   0  0  0  0  0  0
  -22.3614  -10.9676   19.6139 H   0  0  0  0  0  0
  -21.2011   -7.6145   23.9705 H   0  0  0  0  0  0
  -21.1471   -6.0528   25.9068 H   0  0  0  0  0  0
  -22.0614   -2.7610   23.2850 H   0  0  0  0  0  0
  -22.4151  -11.9872   22.4742 H   0  0  0  0  0  0
  -21.1186  -13.1305   22.2663 H   0  0  0  0  0  0
  -24.6951  -15.8611   20.5368 H   0  0  0  0  0  0
  -26.3231  -15.6147   20.1595 H   0  0  0  0  0  0
  -26.7086  -32.5560   23.1185 H   0  0  0  0  0  0
  -25.0043  -33.9817   25.0453 H   0  0  0  0  0  0
  -22.6813  -31.3164   21.4149 H   0  0  0  0  0  0
  -23.3723  -35.9705   23.3333 H   0  0  0  0  0  0
  -24.3588  -36.8918   22.2048 H   0  0  0  0  0  0
  -23.7319  -37.6569   23.6638 H   0  0  0  0  0  0
  -26.0247  -31.6332   20.5940 H   0  0  0  0  0  0
  -26.8045  -30.9093   21.9723 H   0  0  0  0  0  0
  -28.0880  -29.1837   21.1282 H   0  0  0  0  0  0
  -26.0454  -25.9839   19.0501 H   0  0  0  0  0  0
  -23.9745  -27.2813   19.0730 H   0  0  0  0  0  0
  -23.7013  -30.6097   19.4077 H   0  0  0  0  0  0
  -22.7228  -29.2514   19.8676 H   0  0  0  0  0  0
  -25.1307  -36.1962   25.0814 H   0  0  0  0  0  0
  -20.9964  -28.3265   24.1421 H   0  0  0  0  0  0
  -20.5776  -26.2277   23.3627 H   0  0  0  0  0  0
  -21.6681  -26.7519   22.1194 H   0  0  0  0  0  0
  -19.7001  -25.6258   21.1317 H   0  0  0  0  0  0
  -19.6767  -27.3111   20.6745 H   0  0  0  0  0  0
  -17.4238  -26.6593   21.3997 H   0  0  0  0  0  0
  -18.0351  -26.0041   22.9000 H   0  0  0  0  0  0
  -19.7913  -30.7276   24.2260 H   0  0  0  0  0  0
  -17.4978  -31.6249   24.5113 H   0  0  0  0  0  0
  -15.5349  -30.2943   23.7631 H   0  0  0  0  0  0
  -15.8686  -28.0818   22.7013 H   0  0  0  0  0  0
  -24.5886  -30.7121   25.7806 H   0  0  0  0  0  0
  -24.9008  -32.2900   26.4947 H   0  0  0  0  0  0
  -25.8118  -30.8851   27.0202 H   0  0  0  0  0  0
  -26.2847  -29.6781   24.1170 H   0  0  0  0  0  0
  -27.4117  -29.7292   25.4538 H   0  0  0  0  0  0
  -27.8660  -30.4340   23.9192 H   0  0  0  0  0  0
  -27.2637  -33.3567   26.2145 H   0  0  0  0  0  0
  -28.3822  -32.6977   25.0293 H   0  0  0  0  0  0
  -28.0767  -31.8400   26.5338 H   0  0  0  0  0  0
  -28.2599  -38.0098   24.7437 H   0  0  0  0  0  0
  -28.1051  -36.2620   24.6349 H   0  0  0  0  0  0
  -27.2277  -37.1548   25.8857 H   0  0  0  0  0  0
  -20.9218  -29.8706   21.6872 H   0  0  0  0  0  0
  -26.0179  -38.2859   24.1362 H   0  0  0  0  0  0
  -28.0016  -16.2172   23.2717 H   0  0  0  0  0  0
  -29.8977  -18.9043   20.5010 H   0  0  0  0  0  0
  -25.9315  -16.8016   24.3282 H   0  0  0  0  0  0
  -24.7940  -17.2067   23.0425 H   0  0  0  0  0  0
  -25.3437  -18.4430   24.1739 H   0  0  0  0  0  0
  -24.6053  -19.4161   22.0840 H   0  0  0  0  0  0
  -25.3571  -20.5129   20.9485 H   0  0  0  0  0  0
  -25.6387  -20.7199   22.6780 H   0  0  0  0  0  0
  -26.9742  -20.6585   19.5327 H   0  0  0  0  0  0
  -28.6804  -20.4959   19.3931 H   0  0  0  0  0  0
  -31.0773  -16.9933   21.1569 H   0  0  0  0  0  0
  -30.8347  -16.6539   22.8514 H   0  0  0  0  0  0
  -27.2837  -22.1467   21.5498 H   0  0  0  0  0  0
  -29.0016  -21.8822   21.4999 H   0  0  0  0  0  0
  -27.5106  -23.0292   19.1000 H   0  0  0  0  0  0
  -29.2336  -22.9762   19.3644 H   0  0  0  0  0  0
  -28.8825  -24.5606   21.3643 H   0  0  0  0  0  0
  -27.2097  -24.6871   20.8911 H   0  0  0  0  0  0
  -28.0671  -25.4949   18.5497 H   0  0  0  0  0  0
  -29.6579  -25.4547   19.2399 H   0  0  0  0  0  0
  -29.2726  -14.7839   22.0280 H   0  0  0  0  0  0
  1 25  1  0  0  0
  1 30  2  0  0  0
  1 85  1  0  0  0
  2  3  1  0  0  0
  2 25  1  0  0  0
  2 86  1  0  0  0
  2 87  1  0  0  0
  3  4  1  0  0  0
  3 88  1  0  0  0
  3 89  1  0  0  0
  4  5  1  0  0  0
  4 90  1  0  0  0
  4 91  1  0  0  0
  5  6  1  0  0  0
  5 26  1  0  0  0
  5 92  1  0  0  0
  6 25  1  0  0  0
  6 93  1  0  0  0
  6 94  1  0  0  0
  7  8  2  0  0  0
  7 26  1  0  0  0
  7 29  1  0  0  0
  8  9  1  0  0  0
  8 22  1  0  0  0
  9 10  1  0  0  0
  9 27  2  0  0  0
 10 11  2  0  0  0
 10 15  1  0  0  0
 11 12  1  0  0  0
 11 95  1  0  0  0
 12 13  2  0  0  0
 12 96  1  0  0  0
 13 14  1  0  0  0
 13 31  1  0  0  0
 14 15  2  0  0  0
 14 97  1  0  0  0
 15 98  1  0  0  0
 16 17  2  0  0  0
 16 21  1  0  0  0
 16 31  1  0  0  0
 17 18  1  0  0  0
 17 99  1  0  0  0
 18 19  2  0  0  0
 18100  1  0  0  0
 19 20  1  0  0  0
 19 24  1  0  0  0
 20 21  2  0  0  0
 20101  1  0  0  0
 21 23  1  0  0  0
 22 28  1  0  0  0
 22 32  2  0  0  0
 26 27  1  0  0  0
 28102  1  0  0  0
 28103  1  0  0  0
 29104  1  0  0  0
 29105  1  0  0  0
 33 34  1  0  0  0
 33 66  1  0  0  0
 33 70  2  0  0  0
 34 36  1  0  0  0
 34 59  1  0  0  0
 34106  1  0  0  0
 35 44  2  0  0  0
 35 45  1  0  0  0
 35 68  1  0  0  0
 36 56  1  0  0  0
 36107  1  0  0  0
 37 39  1  0  0  0
 37 47  1  0  0  0
 37 66  1  0  0  0
 37108  1  0  0  0
 38 43  2  0  0  0
 38 46  1  0  0  0
 38 47  1  0  0  0
 39 64  1  0  0  0
 39 67  2  0  0  0
 40 52  1  0  0  0
 40 53  2  0  0  0
 40 58  1  0  0  0
 41109  1  0  0  0
 41110  1  0  0  0
 41111  1  0  0  0
 41 48  1  0  0  0
 42 43  1  0  0  0
 42 66  1  0  0  0
 42112  1  0  0  0
 42113  1  0  0  0
 43 44  1  0  0  0
 44114  1  0  0  0
 45 46  2  0  0  0
 45115  1  0  0  0
 46116  1  0  0  0
 47117  1  0  0  0
 47118  1  0  0  0
 48 56  1  0  0  0
 48 65  1  0  0  0
 48119  1  0  0  0
 49 50  1  0  0  0
 49 53  1  0  0  0
 49 64  1  0  0  0
 49120  1  0  0  0
 50 51  1  0  0  0
 50121  1  0  0  0
 50122  1  0  0  0
 51 52  1  0  0  0
 51123  1  0  0  0
 51124  1  0  0  0
 52125  1  0  0  0
 52126  1  0  0  0
 53 54  1  0  0  0
 54 55  2  0  0  0
 54127  1  0  0  0
 55 57  1  0  0  0
 55128  1  0  0  0
 56 69  2  0  0  0
 57 58  2  0  0  0
 57129  1  0  0  0
 58130  1  0  0  0
 59 60  1  0  0  0
 59 61  1  0  0  0
 59 62  1  0  0  0
 60131  1  0  0  0
 60132  1  0  0  0
 60133  1  0  0  0
 61134  1  0  0  0
 61135  1  0  0  0
 61136  1  0  0  0
 62137  1  0  0  0
 62138  1  0  0  0
 62139  1  0  0  0
 63 65  1  0  0  0
 63140  1  0  0  0
 63141  1  0  0  0
 63142  1  0  0  0
 64143  1  0  0  0
 65144  1  0  0  0
 68 84  1  0  0  0
 71 73  2  0  0  0
 71 74  1  0  0  0
 71145  1  0  0  0
 72 73  1  0  0  0
 72 75  2  0  0  0
 72146  1  0  0  0
 73 80  1  0  0  0
 74 76  2  0  0  0
 74 77  1  0  0  0
 75 76  1  0  0  0
 75 79  1  0  0  0
 76 78  1  0  0  0
 77147  1  0  0  0
 77148  1  0  0  0
 77149  1  0  0  0
 78150  1  0  0  0
 78151  1  0  0  0
 78152  1  0  0  0
 79 81  1  0  0  0
 79153  1  0  0  0
 79154  1  0  0  0
 80 85  1  0  0  0
 80155  1  0  0  0
 80156  1  0  0  0
 81 82  1  0  0  0
 81157  1  0  0  0
 81158  1  0  0  0
 82 83  1  0  0  0
 82159  1  0  0  0
 82160  1  0  0  0
 83 84  1  0  0  0
 83161  1  0  0  0
 83162  1  0  0  0
 84163  1  0  0  0
 84164  1  0  0  0
 85165  1  0  0  0
M  ISO  4   1 100  68 101  84 101  85 100
M  END
> <chiral flag>
0

> <version>
0

> <s_m_source_file>
/data/baiqing/PycharmProjects/Reinvent-master-3.2/result/LINK_invent/BTK/process_docking_weight1_custom_sum_contain_oxygen_bond_distance_aromatic_linkinvent_7_9_3/rearranged_h_0034.sdf

> <i_m_source_file_index>
11

> <r_mmod_Potential_Energy-OPLS-2005>
-141.171936035156

> <r_mmod_Stretch_Energy-OPLS-2005>
32.9892845153809

> <r_mmod_Bend_Energy-OPLS-2005>
96.9917068481445

> <r_mmod_Torsional_Energy-OPLS-2005>
185.415802001953

> <r_mmod_Improper_Torsional_Energy-OPLS-2005>
2.13372588157654

> <r_mmod_Van_der_Waal_Energy-OPLS-2005>
156.528915405273

> <r_mmod_Electrostatic_Energy-OPLS-2005>
-431.848419189453

> <r_mmod_Solvation_Energy-OPLS-2005>
-193.955490112305

> <b_mmod_Minimization_Converged-OPLS-2005>
0

> <r_mmod_RMS_Derivative-OPLS-2005>
5.62913131713867

$$$$
11
                    3D
 Structure written by MMmdl.
162170  0  0  1  0            999 V2000
  -30.6844  -14.5492   20.5618 C   0  0  0  0  0  0
  -30.4343  -12.3620   19.4307 C   0  0  0  0  0  0
  -29.5020  -12.5049   18.2106 C   0  0  0  0  0  0
  -28.0246  -12.3618   18.6245 C   0  0  0  0  0  0
  -27.6596  -13.2148   19.8701 C   0  0  2  0  0  0
  -28.7056  -13.0442   20.9947 C   0  0  0  0  0  0
  -25.2594  -13.8183   20.5671 C   0  0  0  0  0  0
  -24.1856  -13.0456   20.9201 C   0  0  0  0  0  0
  -24.6414  -11.6922   20.8746 C   0  0  0  0  0  0
  -23.9074  -10.4305   21.0402 C   0  0  0  0  0  0
  -24.3630   -9.4221   21.9172 C   0  0  0  0  0  0
  -23.6300   -8.2255   22.0740 C   0  0  0  0  0  0
  -22.4280   -8.0292   21.3534 C   0  0  0  0  0  0
  -21.9922   -9.0270   20.4636 C   0  0  0  0  0  0
  -22.7247  -10.2148   20.3048 C   0  0  0  0  0  0
  -21.6866   -6.0737   22.5271 C   0  0  0  0  0  0
  -21.4014   -6.5640   23.8202 C   0  0  0  0  0  0
  -21.3658   -5.6792   24.9164 C   0  0  0  0  0  0
  -21.6053   -4.3054   24.7219 C   0  0  0  0  0  0
  -21.8829   -3.8145   23.4339 C   0  0  0  0  0  0
  -21.9200   -4.6963   22.3393 C   0  0  0  0  0  0
  -22.7876  -13.5247   21.1863 C   0  0  0  0  0  0
  -22.1665   -4.2153   21.0971 F   0  0  0  0  0  0
  -21.5633   -3.4533   25.7733 F   0  0  0  0  0  0
  -30.0238  -13.3652   20.4263 N   0  0  0  0  0  0
  -26.3032  -12.9353   20.3351 N   0  0  0  0  0  0
  -25.9349  -11.6513   20.5787 N   0  0  0  0  0  0
  -22.0513  -12.8226   22.0404 N   0  0  0  0  0  0
  -25.4319  -15.1895   20.4043 N   0  0  0  0  0  0
  -31.8336  -14.7153   20.1430 O   0  0  0  0  0  0
  -21.6654   -6.8878   21.4232 O   0  0  0  0  0  0
  -22.3559  -14.5544   20.6695 O   0  0  0  0  0  0
  -24.6213  -31.8632   23.2077 C   0  0  0  0  0  0
  -25.9079  -32.4794   23.8393 C   0  0  1  0  0  0
  -27.2188  -27.3801   20.1092 C   0  0  0  0  0  0
  -25.5925  -33.8595   24.2302 N   0  0  0  0  0  0
  -23.4107  -30.4897   21.5500 C   0  0  2  0  0  0
  -24.8527  -28.9476   20.1168 C   0  0  0  0  0  0
  -22.7444  -29.4646   22.4971 C   0  0  0  0  0  0
  -18.0275  -28.1384   22.8493 C   0  0  0  0  0  0
  -24.1487  -36.7307   23.2638 C   0  0  0  0  0  0
  -25.9456  -30.8123   21.3679 C   0  0  0  0  0  0
  -26.0172  -29.4401   20.7198 C   0  0  0  0  0  0
  -27.2054  -28.6655   20.7104 C   0  0  0  0  0  0
  -26.0406  -26.9172   19.4885 C   0  0  0  0  0  0
  -24.8616  -27.6872   19.4958 C   0  0  0  0  0  0
  -23.6184  -29.8232   20.1646 C   0  0  0  0  0  0
  -25.4111  -36.3088   24.0324 C   0  0  1  0  0  0
  -20.5872  -28.3679   23.1310 C   0  0  2  0  0  0
  -20.6774  -26.9408   22.5422 C   0  0  0  0  0  0
  -19.5753  -26.6381   21.5226 C   0  0  0  0  0  0
  -18.1925  -26.7928   22.1629 C   0  0  0  0  0  0
  -19.1525  -28.8846   23.2896 C   0  0  0  0  0  0
  -18.9460  -30.1450   23.8903 C   0  0  0  0  0  0
  -17.6459  -30.6589   24.0568 C   0  0  0  0  0  0
  -25.9050  -34.9454   23.5108 C   0  0  0  0  0  0
  -16.5349  -29.9092   23.6342 C   0  0  0  0  0  0
  -16.7261  -28.6511   23.0352 C   0  0  0  0  0  0
  -26.4463  -31.6592   25.0742 C   0  0  0  0  0  0
  -25.3708  -31.3705   26.1487 C   0  0  0  0  0  0
  -27.0298  -30.3043   24.6125 C   0  0  0  0  0  0
  -27.6056  -32.4309   25.7480 C   0  0  0  0  0  0
  -27.5575  -37.1805   24.8465 C   0  0  0  0  0  0
  -21.4169  -29.3037   22.3718 N   0  0  0  0  0  0
  -26.4290  -37.3783   23.9401 N   0  0  0  0  0  0
  -24.6783  -31.0720   22.0988 N   0  0  0  0  0  0
  -23.4192  -28.8176   23.3032 O   0  0  0  0  0  0
  -28.3629  -26.6043   20.0510 O   0  0  0  0  0  0
  -26.5623  -34.8914   22.4674 O   0  0  0  0  0  0
  -23.5397  -32.1383   23.7461 O   0  0  0  0  0  0
  -29.6219  -22.0398   18.0109 C   0  0  0  0  0  0
  -28.5995  -21.6828   20.5666 C   0  0  0  0  0  0
  -29.6783  -20.7552   18.5956 C   0  0  0  0  0  0
  -29.0287  -23.1387   18.6624 C   0  0  0  0  0  0
  -29.1674  -20.5470   19.9097 C   0  0  0  0  0  0
  -28.5078  -22.9773   19.9659 C   0  0  0  0  0  0
  -30.2598  -19.6464   17.7329 C   0  0  0  0  0  0
  -28.9390  -24.4613   17.9206 C   0  0  0  0  0  0
  -29.1170  -19.1625   20.6409 C   0  0  0  0  0  0
  -27.7501  -24.1246   20.6859 C   0  0  0  0  0  0
  -30.2117  -18.0707   20.3560 C   0  0  0  0  0  0
  -30.4384  -16.9419   21.4179 C   0  0  0  0  0  0
  -28.4703  -25.4923   20.9780 C   0  0  0  0  0  0
  -29.9630  -15.5798   21.0647 N   0  0  0  0  0  0
  -31.4750  -12.4813   19.1236 H   0  0  0  0  0  0
  -30.3602  -11.3619   19.8595 H   0  0  0  0  0  0
  -29.7549  -11.7539   17.4611 H   0  0  0  0  0  0
  -29.6578  -13.4743   17.7331 H   0  0  0  0  0  0
  -27.8433  -11.3061   18.8282 H   0  0  0  0  0  0
  -27.3750  -12.6252   17.7899 H   0  0  0  0  0  0
  -27.6886  -14.2567   19.5516 H   0  0  0  0  0  0
  -28.7123  -12.0225   21.3758 H   0  0  0  0  0  0
  -28.4593  -13.6764   21.8497 H   0  0  0  0  0  0
  -25.2780   -9.5714   22.4732 H   0  0  0  0  0  0
  -24.0035   -7.4658   22.7453 H   0  0  0  0  0  0
  -21.0858   -8.8780   19.8939 H   0  0  0  0  0  0
  -22.3698  -10.9687   19.6159 H   0  0  0  0  0  0
  -21.1985   -7.6147   23.9702 H   0  0  0  0  0  0
  -21.1474   -6.0518   25.9069 H   0  0  0  0  0  0
  -22.0606   -2.7612   23.2837 H   0  0  0  0  0  0
  -22.4152  -11.9913   22.4816 H   0  0  0  0  0  0
  -21.1111  -13.1211   22.2569 H   0  0  0  0  0  0
  -24.6647  -15.8456   20.5021 H   0  0  0  0  0  0
  -26.2798  -15.6225   20.0585 H   0  0  0  0  0  0
  -26.7161  -32.5449   23.1167 H   0  0  0  0  0  0
  -25.0091  -33.9768   25.0455 H   0  0  0  0  0  0
  -22.7034  -31.3099   21.4110 H   0  0  0  0  0  0
  -23.3737  -35.9657   23.3316 H   0  0  0  0  0  0
  -24.3589  -36.8909   22.2053 H   0  0  0  0  0  0
  -23.7252  -37.6517   23.6655 H   0  0  0  0  0  0
  -26.0685  -31.5696   20.5925 H   0  0  0  0  0  0
  -26.8337  -30.8647   21.9869 H   0  0  0  0  0  0
  -28.1099  -29.0421   21.1665 H   0  0  0  0  0  0
  -26.0242  -25.9648   18.9812 H   0  0  0  0  0  0
  -23.9708  -27.3077   19.0151 H   0  0  0  0  0  0
  -23.7301  -30.5980   19.4055 H   0  0  0  0  0  0
  -22.7386  -29.2488   19.8690 H   0  0  0  0  0  0
  -25.1280  -36.1963   25.0817 H   0  0  0  0  0  0
  -20.9966  -28.3246   24.1429 H   0  0  0  0  0  0
  -20.5705  -26.2273   23.3604 H   0  0  0  0  0  0
  -21.6637  -26.7462   22.1190 H   0  0  0  0  0  0
  -19.6915  -25.6295   21.1246 H   0  0  0  0  0  0
  -19.6695  -27.3206   20.6765 H   0  0  0  0  0  0
  -17.4194  -26.6690   21.4024 H   0  0  0  0  0  0
  -18.0317  -26.0060   22.9016 H   0  0  0  0  0  0
  -19.7932  -30.7271   24.2270 H   0  0  0  0  0  0
  -17.5012  -31.6273   24.5167 H   0  0  0  0  0  0
  -15.5352  -30.2998   23.7655 H   0  0  0  0  0  0
  -15.8659  -28.0838   22.7062 H   0  0  0  0  0  0
  -24.5893  -30.7035   25.7818 H   0  0  0  0  0  0
  -24.8873  -32.2844   26.4936 H   0  0  0  0  0  0
  -25.8031  -30.8868   27.0255 H   0  0  0  0  0  0
  -26.2843  -29.6816   24.1162 H   0  0  0  0  0  0
  -27.4065  -29.7270   25.4581 H   0  0  0  0  0  0
  -27.8674  -30.4376   23.9274 H   0  0  0  0  0  0
  -27.2712  -33.3628   26.2048 H   0  0  0  0  0  0
  -28.3839  -32.6837   25.0263 H   0  0  0  0  0  0
  -28.0745  -31.8426   26.5378 H   0  0  0  0  0  0
  -28.2591  -38.0106   24.7513 H   0  0  0  0  0  0
  -28.1064  -36.2634   24.6277 H   0  0  0  0  0  0
  -27.2300  -37.1439   25.8872 H   0  0  0  0  0  0
  -20.9347  -29.8731   21.6904 H   0  0  0  0  0  0
  -26.0171  -38.2852   24.1425 H   0  0  0  0  0  0
  -30.0146  -22.1838   17.0138 H   0  0  0  0  0  0
  -28.1798  -21.5412   21.5537 H   0  0  0  0  0  0
  -30.5599  -20.0148   16.7521 H   0  0  0  0  0  0
  -29.5266  -18.8557   17.5681 H   0  0  0  0  0  0
  -31.1590  -19.2269   18.1763 H   0  0  0  0  0  0
  -29.6676  -25.1659   18.3192 H   0  0  0  0  0  0
  -27.9430  -24.8988   17.9983 H   0  0  0  0  0  0
  -29.1532  -24.3400   16.8583 H   0  0  0  0  0  0
  -28.1335  -18.7258   20.4659 H   0  0  0  0  0  0
  -29.1430  -19.3783   21.7095 H   0  0  0  0  0  0
  -27.4501  -23.7267   21.6562 H   0  0  0  0  0  0
  -26.8080  -24.2904   20.1688 H   0  0  0  0  0  0
  -31.1614  -18.6030   20.3024 H   0  0  0  0  0  0
  -30.0617  -17.6060   19.3839 H   0  0  0  0  0  0
  -30.0027  -17.2365   22.3720 H   0  0  0  0  0  0
  -31.5102  -16.8757   21.6159 H   0  0  0  0  0  0
  -29.5304  -25.2958   21.1397 H   0  0  0  0  0  0
  -28.1083  -25.8574   21.9406 H   0  0  0  0  0  0
  -29.0078  -15.3621   21.3105 H   0  0  0  0  0  0
  1 25  1  0  0  0
  1 30  2  0  0  0
  1 84  1  0  0  0
  2  3  1  0  0  0
  2 25  1  0  0  0
  2 85  1  0  0  0
  2 86  1  0  0  0
  3  4  1  0  0  0
  3 87  1  0  0  0
  3 88  1  0  0  0
  4  5  1  0  0  0
  4 89  1  0  0  0
  4 90  1  0  0  0
  5  6  1  0  0  0
  5 26  1  0  0  0
  5 91  1  0  0  0
  6 25  1  0  0  0
  6 92  1  0  0  0
  6 93  1  0  0  0
  7  8  2  0  0  0
  7 26  1  0  0  0
  7 29  1  0  0  0
  8  9  1  0  0  0
  8 22  1  0  0  0
  9 10  1  0  0  0
  9 27  2  0  0  0
 10 11  2  0  0  0
 10 15  1  0  0  0
 11 12  1  0  0  0
 11 94  1  0  0  0
 12 13  2  0  0  0
 12 95  1  0  0  0
 13 14  1  0  0  0
 13 31  1  0  0  0
 14 15  2  0  0  0
 14 96  1  0  0  0
 15 97  1  0  0  0
 16 17  2  0  0  0
 16 21  1  0  0  0
 16 31  1  0  0  0
 17 18  1  0  0  0
 17 98  1  0  0  0
 18 19  2  0  0  0
 18 99  1  0  0  0
 19 20  1  0  0  0
 19 24  1  0  0  0
 20 21  2  0  0  0
 20100  1  0  0  0
 21 23  1  0  0  0
 22 28  1  0  0  0
 22 32  2  0  0  0
 26 27  1  0  0  0
 28101  1  0  0  0
 28102  1  0  0  0
 29103  1  0  0  0
 29104  1  0  0  0
 33 34  1  0  0  0
 33 66  1  0  0  0
 33 70  2  0  0  0
 34 36  1  0  0  0
 34 59  1  0  0  0
 34105  1  0  0  0
 35 44  2  0  0  0
 35 45  1  0  0  0
 35 68  1  0  0  0
 36 56  1  0  0  0
 36106  1  0  0  0
 37 39  1  0  0  0
 37 47  1  0  0  0
 37 66  1  0  0  0
 37107  1  0  0  0
 38 43  2  0  0  0
 38 46  1  0  0  0
 38 47  1  0  0  0
 39 64  1  0  0  0
 39 67  2  0  0  0
 40 52  1  0  0  0
 40 53  2  0  0  0
 40 58  1  0  0  0
 41108  1  0  0  0
 41109  1  0  0  0
 41110  1  0  0  0
 41 48  1  0  0  0
 42 43  1  0  0  0
 42 66  1  0  0  0
 42111  1  0  0  0
 42112  1  0  0  0
 43 44  1  0  0  0
 44113  1  0  0  0
 45 46  2  0  0  0
 45114  1  0  0  0
 46115  1  0  0  0
 47116  1  0  0  0
 47117  1  0  0  0
 48 56  1  0  0  0
 48 65  1  0  0  0
 48118  1  0  0  0
 49 50  1  0  0  0
 49 53  1  0  0  0
 49 64  1  0  0  0
 49119  1  0  0  0
 50 51  1  0  0  0
 50120  1  0  0  0
 50121  1  0  0  0
 51 52  1  0  0  0
 51122  1  0  0  0
 51123  1  0  0  0
 52124  1  0  0  0
 52125  1  0  0  0
 53 54  1  0  0  0
 54 55  2  0  0  0
 54126  1  0  0  0
 55 57  1  0  0  0
 55127  1  0  0  0
 56 69  2  0  0  0
 57 58  2  0  0  0
 57128  1  0  0  0
 58129  1  0  0  0
 59 60  1  0  0  0
 59 61  1  0  0  0
 59 62  1  0  0  0
 60130  1  0  0  0
 60131  1  0  0  0
 60132  1  0  0  0
 61133  1  0  0  0
 61134  1  0  0  0
 61135  1  0  0  0
 62136  1  0  0  0
 62137  1  0  0  0
 62138  1  0  0  0
 63 65  1  0  0  0
 63139  1  0  0  0
 63140  1  0  0  0
 63141  1  0  0  0
 64142  1  0  0  0
 65143  1  0  0  0
 68 83  1  0  0  0
 71 73  2  0  0  0
 71 74  1  0  0  0
 71144  1  0  0  0
 72 75  2  0  0  0
 72 76  1  0  0  0
 72145  1  0  0  0
 73 75  1  0  0  0
 73 77  1  0  0  0
 74 76  2  0  0  0
 74 78  1  0  0  0
 75 79  1  0  0  0
 76 80  1  0  0  0
 77146  1  0  0  0
 77147  1  0  0  0
 77148  1  0  0  0
 78149  1  0  0  0
 78150  1  0  0  0
 78151  1  0  0  0
 79 81  1  0  0  0
 79152  1  0  0  0
 79153  1  0  0  0
 80 83  1  0  0  0
 80154  1  0  0  0
 80155  1  0  0  0
 81 82  1  0  0  0
 81156  1  0  0  0
 81157  1  0  0  0
 82 84  1  0  0  0
 82158  1  0  0  0
 82159  1  0  0  0
 83160  1  0  0  0
 83161  1  0  0  0
 84162  1  0  0  0
M  ISO  4   1 100  68 101  83 101  84 100
M  END
> <chiral flag>
0

> <version>
0

> <s_m_source_file>
/data/baiqing/PycharmProjects/Reinvent-master-3.2/result/LINK_invent/BTK/process_docking_weight1_custom_sum_contain_oxygen_bond_distance_aromatic_linkinvent_7_9_3/rearranged_h_0034.sdf

> <i_m_source_file_index>
12

> <r_mmod_Potential_Energy-OPLS-2005>
8.73692321777344

> <r_mmod_Stretch_Energy-OPLS-2005>
54.1397438049316

> <r_mmod_Bend_Energy-OPLS-2005>
130.568023681641

> <r_mmod_Torsional_Energy-OPLS-2005>
238.691040039062

> <r_mmod_Improper_Torsional_Energy-OPLS-2005>
3.52683877944946

> <r_mmod_Van_der_Waal_Energy-OPLS-2005>
149.118194580078

> <r_mmod_Electrostatic_Energy-OPLS-2005>
-386.856475830078

> <r_mmod_Solvation_Energy-OPLS-2005>
-204.298767089844

> <b_mmod_Minimization_Converged-OPLS-2005>
0

> <r_mmod_RMS_Derivative-OPLS-2005>
2.86645579338074

$$$$
13
                    3D
 Structure written by MMmdl.
159167  0  0  1  0            999 V2000
  -30.5534  -14.9542   20.4256 C   0  0  0  0  0  0
  -30.4377  -12.5927   19.5013 C   0  0  0  0  0  0
  -29.5262  -12.5487   18.2533 C   0  0  0  0  0  0
  -28.0565  -12.3365   18.6604 C   0  0  0  0  0  0
  -27.6321  -13.2571   19.8359 C   0  0  2  0  0  0
  -28.6721  -13.2894   20.9776 C   0  0  0  0  0  0
  -25.2481  -13.8239   20.5699 C   0  0  0  0  0  0
  -24.1802  -13.0450   20.9193 C   0  0  0  0  0  0
  -24.6425  -11.6935   20.8713 C   0  0  0  0  0  0
  -23.9116  -10.4297   21.0373 C   0  0  0  0  0  0
  -24.3666   -9.4210   21.9153 C   0  0  0  0  0  0
  -23.6328   -8.2256   22.0749 C   0  0  0  0  0  0
  -22.4299   -8.0289   21.3549 C   0  0  0  0  0  0
  -21.9946   -9.0255   20.4645 C   0  0  0  0  0  0
  -22.7290  -10.2127   20.3024 C   0  0  0  0  0  0
  -21.6870   -6.0745   22.5281 C   0  0  0  0  0  0
  -21.4019   -6.5642   23.8215 C   0  0  0  0  0  0
  -21.3661   -5.6787   24.9171 C   0  0  0  0  0  0
  -21.6046   -4.3051   24.7218 C   0  0  0  0  0  0
  -21.8829   -3.8152   23.4339 C   0  0  0  0  0  0
  -21.9205   -4.6974   22.3400 C   0  0  0  0  0  0
  -22.7822  -13.5209   21.1857 C   0  0  0  0  0  0
  -22.1672   -4.2157   21.0978 F   0  0  0  0  0  0
  -21.5631   -3.4534   25.7735 F   0  0  0  0  0  0
  -29.9537  -13.6938   20.3881 N   0  0  0  0  0  0
  -26.2916  -12.9486   20.3219 N   0  0  0  0  0  0
  -25.9357  -11.6605   20.5687 N   0  0  0  0  0  0
  -22.0483  -12.8180   22.0407 N   0  0  0  0  0  0
  -25.4152  -15.1972   20.4164 N   0  0  0  0  0  0
  -31.7448  -15.0133   20.1031 O   0  0  0  0  0  0
  -21.6665   -6.8886   21.4243 O   0  0  0  0  0  0
  -22.3505  -14.5513   20.6711 O   0  0  0  0  0  0
  -24.6436  -31.8387   23.1850 C   0  0  0  0  0  0
  -25.9210  -32.4648   23.8237 C   0  0  1  0  0  0
  -27.2149  -27.1149   20.1768 C   0  0  0  0  0  0
  -25.5958  -33.8449   24.2151 N   0  0  0  0  0  0
  -23.4498  -30.4625   21.5235 C   0  0  2  0  0  0
  -24.9027  -28.8840   20.1118 C   0  0  0  0  0  0
  -22.7571  -29.4530   22.4745 C   0  0  0  0  0  0
  -18.0334  -28.1423   22.8457 C   0  0  0  0  0  0
  -24.1502  -36.7251   23.2645 C   0  0  0  0  0  0
  -26.0069  -30.7120   21.3843 C   0  0  0  0  0  0
  -26.0787  -29.3191   20.7345 C   0  0  0  0  0  0
  -27.2365  -28.4513   20.7508 C   0  0  0  0  0  0
  -26.0196  -26.7908   19.5000 C   0  0  0  0  0  0
  -24.8875  -27.6324   19.4781 C   0  0  0  0  0  0
  -23.6827  -29.7899   20.1435 C   0  0  0  0  0  0
  -25.4123  -36.2990   24.0307 C   0  0  1  0  0  0
  -20.5944  -28.3745   23.1224 C   0  0  2  0  0  0
  -20.6833  -26.9442   22.5402 C   0  0  0  0  0  0
  -19.5804  -26.6396   21.5226 C   0  0  0  0  0  0
  -18.1976  -26.7959   22.1614 C   0  0  0  0  0  0
  -19.1587  -28.8900   23.2848 C   0  0  0  0  0  0
  -18.9499  -30.1496   23.8869 C   0  0  0  0  0  0
  -17.6488  -30.6605   24.0567 C   0  0  0  0  0  0
  -25.9070  -34.9371   23.5032 C   0  0  0  0  0  0
  -16.5385  -29.9092   23.6333 C   0  0  0  0  0  0
  -16.7316  -28.6531   23.0328 C   0  0  0  0  0  0
  -26.4546  -31.6530   25.0687 C   0  0  0  0  0  0
  -25.3751  -31.3755   26.1408 C   0  0  0  0  0  0
  -27.0405  -30.2912   24.6279 C   0  0  0  0  0  0
  -27.6033  -32.4310   25.7511 C   0  0  0  0  0  0
  -27.5575  -37.1783   24.8461 C   0  0  0  0  0  0
  -21.4263  -29.3060   22.3544 N   0  0  0  0  0  0
  -26.4278  -37.3716   23.9406 N   0  0  0  0  0  0
  -24.7198  -31.0255   22.0859 N   0  0  0  0  0  0
  -23.4217  -28.8088   23.2916 O   0  0  0  0  0  0
  -28.2568  -26.1106   20.2431 O   0  0  0  0  0  0
  -26.5657  -34.8876   22.4611 O   0  0  0  0  0  0
  -23.5558  -32.1241   23.7076 O   0  0  0  0  0  0
  -28.5846  -21.4518   22.1998 C   0  0  0  0  0  0
  -29.0653  -19.0164   22.1590 C   0  0  0  0  0  0
  -29.3663  -20.4022   20.1822 C   0  0  0  0  0  0
  -28.6606  -20.1906   22.8395 C   0  0  0  0  0  0
  -28.9184  -21.6678   20.8420 C   0  0  0  0  0  0
  -29.4514  -19.0445   20.8050 C   0  0  0  0  0  0
  -28.3673  -20.1163   24.3271 C   0  0  0  0  0  0
  -26.2740  -23.9117   22.4359 C   0  0  0  0  0  0
  -28.9461  -23.2374   20.2487 C   0  0  0  0  0  0
  -30.0598  -17.6459   20.1612 C   0  0  0  0  0  0
  -27.5654  -24.6754   22.0981 C   0  0  0  0  0  0
  -27.9640  -24.6056   20.6033 C   0  0  1  0  0  0
  -29.7937  -16.1461   20.6031 N   0  0  0  0  0  0
  -31.4729  -12.7408   19.1898 H   0  0  0  0  0  0
  -30.4175  -11.6359   20.0251 H   0  0  0  0  0  0
  -29.8440  -11.7579   17.5719 H   0  0  0  0  0  0
  -29.6220  -13.4857   17.7002 H   0  0  0  0  0  0
  -27.9366  -11.2899   18.9416 H   0  0  0  0  0  0
  -27.4057  -12.4979   17.7994 H   0  0  0  0  0  0
  -27.5929  -14.2604   19.4097 H   0  0  0  0  0  0
  -28.7528  -12.3179   21.4668 H   0  0  0  0  0  0
  -28.3715  -14.0056   21.7444 H   0  0  0  0  0  0
  -25.2806   -9.5706   22.4728 H   0  0  0  0  0  0
  -24.0044   -7.4659   22.7470 H   0  0  0  0  0  0
  -21.0883   -8.8764   19.8950 H   0  0  0  0  0  0
  -22.3729  -10.9659   19.6132 H   0  0  0  0  0  0
  -21.1988   -7.6145   23.9724 H   0  0  0  0  0  0
  -21.1484   -6.0510   25.9078 H   0  0  0  0  0  0
  -22.0605   -2.7613   23.2838 H   0  0  0  0  0  0
  -22.4119  -11.9826   22.4758 H   0  0  0  0  0  0
  -21.1097  -13.1181   22.2618 H   0  0  0  0  0  0
  -24.6463  -15.8503   20.5198 H   0  0  0  0  0  0
  -26.2672  -15.6405   20.0981 H   0  0  0  0  0  0
  -26.7250  -32.5247   23.0942 H   0  0  0  0  0  0
  -25.0120  -33.9549   25.0310 H   0  0  0  0  0  0
  -22.7556  -31.2892   21.3612 H   0  0  0  0  0  0
  -23.3749  -35.9605   23.3282 H   0  0  0  0  0  0
  -24.3606  -36.8900   22.2071 H   0  0  0  0  0  0
  -23.7291  -37.6453   23.6697 H   0  0  0  0  0  0
  -26.1642  -31.4619   20.6078 H   0  0  0  0  0  0
  -26.8779  -30.7657   22.0239 H   0  0  0  0  0  0
  -28.1289  -28.7778   21.2662 H   0  0  0  0  0  0
  -25.9358  -25.8420   18.9912 H   0  0  0  0  0  0
  -23.9919  -27.2969   18.9740 H   0  0  0  0  0  0
  -23.8320  -30.5623   19.3887 H   0  0  0  0  0  0
  -22.7979  -29.2385   19.8206 H   0  0  0  0  0  0
  -25.1327  -36.1794   25.0802 H   0  0  0  0  0  0
  -21.0077  -28.3354   24.1335 H   0  0  0  0  0  0
  -20.5792  -26.2332   23.3609 H   0  0  0  0  0  0
  -21.6692  -26.7477   22.1166 H   0  0  0  0  0  0
  -19.6965  -25.6308   21.1262 H   0  0  0  0  0  0
  -19.6769  -27.3204   20.6761 H   0  0  0  0  0  0
  -17.4261  -26.6726   21.3997 H   0  0  0  0  0  0
  -18.0349  -26.0124   22.9027 H   0  0  0  0  0  0
  -19.7976  -30.7344   24.2203 H   0  0  0  0  0  0
  -17.5038  -31.6273   24.5206 H   0  0  0  0  0  0
  -15.5386  -30.2991   23.7683 H   0  0  0  0  0  0
  -15.8719  -28.0864   22.7009 H   0  0  0  0  0  0
  -24.5976  -30.7001   25.7825 H   0  0  0  0  0  0
  -24.8911  -32.2959   26.4693 H   0  0  0  0  0  0
  -25.8106  -30.9113   27.0266 H   0  0  0  0  0  0
  -26.3034  -29.6618   24.1281 H   0  0  0  0  0  0
  -27.4020  -29.7212   25.4849 H   0  0  0  0  0  0
  -27.8930  -30.4130   23.9582 H   0  0  0  0  0  0
  -27.2585  -33.3641   26.1974 H   0  0  0  0  0  0
  -28.3954  -32.6802   25.0438 H   0  0  0  0  0  0
  -28.0565  -31.8503   26.5556 H   0  0  0  0  0  0
  -28.2554  -38.0112   24.7506 H   0  0  0  0  0  0
  -28.1106  -36.2637   24.6283 H   0  0  0  0  0  0
  -27.2294  -37.1425   25.8862 H   0  0  0  0  0  0
  -20.9448  -29.8739   21.6704 H   0  0  0  0  0  0
  -26.0124  -38.2766   24.1437 H   0  0  0  0  0  0
  -28.3031  -22.2806   22.8209 H   0  0  0  0  0  0
  -29.1413  -18.0874   22.7084 H   0  0  0  0  0  0
  -29.7064  -20.4816   19.1576 H   0  0  0  0  0  0
  -27.6481  -20.8777   24.6324 H   0  0  0  0  0  0
  -29.2862  -20.2826   24.8903 H   0  0  0  0  0  0
  -27.9681  -19.1435   24.6141 H   0  0  0  0  0  0
  -25.4036  -24.4588   22.0719 H   0  0  0  0  0  0
  -26.1604  -23.7930   23.5136 H   0  0  0  0  0  0
  -26.2452  -22.9196   21.9843 H   0  0  0  0  0  0
  -28.9526  -23.1368   19.1640 H   0  0  0  0  0  0
  -29.9586  -23.5628   20.4866 H   0  0  0  0  0  0
  -31.1430  -17.7717   20.1935 H   0  0  0  0  0  0
  -29.8142  -17.6823   19.0991 H   0  0  0  0  0  0
  -28.4036  -24.3639   22.7190 H   0  0  0  0  0  0
  -27.3907  -25.7060   22.4044 H   0  0  0  0  0  0
  -27.0420  -24.3690   20.0773 H   0  0  0  0  0  0
  -28.8438  -15.9715   20.8953 H   0  0  0  0  0  0
  1 25  1  0  0  0
  1 30  2  0  0  0
  1 83  1  0  0  0
  2  3  1  0  0  0
  2 25  1  0  0  0
  2 84  1  0  0  0
  2 85  1  0  0  0
  3  4  1  0  0  0
  3 86  1  0  0  0
  3 87  1  0  0  0
  4  5  1  0  0  0
  4 88  1  0  0  0
  4 89  1  0  0  0
  5  6  1  0  0  0
  5 26  1  0  0  0
  5 90  1  0  0  0
  6 25  1  0  0  0
  6 91  1  0  0  0
  6 92  1  0  0  0
  7  8  2  0  0  0
  7 26  1  0  0  0
  7 29  1  0  0  0
  8  9  1  0  0  0
  8 22  1  0  0  0
  9 10  1  0  0  0
  9 27  2  0  0  0
 10 11  2  0  0  0
 10 15  1  0  0  0
 11 12  1  0  0  0
 11 93  1  0  0  0
 12 13  2  0  0  0
 12 94  1  0  0  0
 13 14  1  0  0  0
 13 31  1  0  0  0
 14 15  2  0  0  0
 14 95  1  0  0  0
 15 96  1  0  0  0
 16 17  2  0  0  0
 16 21  1  0  0  0
 16 31  1  0  0  0
 17 18  1  0  0  0
 17 97  1  0  0  0
 18 19  2  0  0  0
 18 98  1  0  0  0
 19 20  1  0  0  0
 19 24  1  0  0  0
 20 21  2  0  0  0
 20 99  1  0  0  0
 21 23  1  0  0  0
 22 28  1  0  0  0
 22 32  2  0  0  0
 26 27  1  0  0  0
 28100  1  0  0  0
 28101  1  0  0  0
 29102  1  0  0  0
 29103  1  0  0  0
 33 34  1  0  0  0
 33 66  1  0  0  0
 33 70  2  0  0  0
 34 36  1  0  0  0
 34 59  1  0  0  0
 34104  1  0  0  0
 35 44  2  0  0  0
 35 45  1  0  0  0
 35 68  1  0  0  0
 36 56  1  0  0  0
 36105  1  0  0  0
 37 39  1  0  0  0
 37 47  1  0  0  0
 37 66  1  0  0  0
 37106  1  0  0  0
 38 43  2  0  0  0
 38 46  1  0  0  0
 38 47  1  0  0  0
 39 64  1  0  0  0
 39 67  2  0  0  0
 40 52  1  0  0  0
 40 53  2  0  0  0
 40 58  1  0  0  0
 41107  1  0  0  0
 41108  1  0  0  0
 41109  1  0  0  0
 41 48  1  0  0  0
 42 43  1  0  0  0
 42 66  1  0  0  0
 42110  1  0  0  0
 42111  1  0  0  0
 43 44  1  0  0  0
 44112  1  0  0  0
 45 46  2  0  0  0
 45113  1  0  0  0
 46114  1  0  0  0
 47115  1  0  0  0
 47116  1  0  0  0
 48 56  1  0  0  0
 48 65  1  0  0  0
 48117  1  0  0  0
 49 50  1  0  0  0
 49 53  1  0  0  0
 49 64  1  0  0  0
 49118  1  0  0  0
 50 51  1  0  0  0
 50119  1  0  0  0
 50120  1  0  0  0
 51 52  1  0  0  0
 51121  1  0  0  0
 51122  1  0  0  0
 52123  1  0  0  0
 52124  1  0  0  0
 53 54  1  0  0  0
 54 55  2  0  0  0
 54125  1  0  0  0
 55 57  1  0  0  0
 55126  1  0  0  0
 56 69  2  0  0  0
 57 58  2  0  0  0
 57127  1  0  0  0
 58128  1  0  0  0
 59 60  1  0  0  0
 59 61  1  0  0  0
 59 62  1  0  0  0
 60129  1  0  0  0
 60130  1  0  0  0
 60131  1  0  0  0
 61132  1  0  0  0
 61133  1  0  0  0
 61134  1  0  0  0
 62135  1  0  0  0
 62136  1  0  0  0
 62137  1  0  0  0
 63 65  1  0  0  0
 63138  1  0  0  0
 63139  1  0  0  0
 63140  1  0  0  0
 64141  1  0  0  0
 65142  1  0  0  0
 68 82  1  0  0  0
 71 74  2  0  0  0
 71 75  1  0  0  0
 71143  1  0  0  0
 72 74  1  0  0  0
 72 76  2  0  0  0
 72144  1  0  0  0
 73 75  2  0  0  0
 73 76  1  0  0  0
 73145  1  0  0  0
 74 77  1  0  0  0
 75 79  1  0  0  0
 76 80  1  0  0  0
 77146  1  0  0  0
 77147  1  0  0  0
 77148  1  0  0  0
 78 81  1  0  0  0
 78149  1  0  0  0
 78150  1  0  0  0
 78151  1  0  0  0
 79152  1  0  0  0
 79153  1  0  0  0
 79 82  1  0  0  0
 80 83  1  0  0  0
 80154  1  0  0  0
 80155  1  0  0  0
 81 82  1  0  0  0
 81156  1  0  0  0
 81157  1  0  0  0
 82158  1  0  0  0
 83159  1  0  0  0
M  ISO  4   1 100  68 101  82 101  83 100
M  END
> <chiral flag>
0

> <version>
0

> <s_m_source_file>
/data/baiqing/PycharmProjects/Reinvent-master-3.2/result/LINK_invent/BTK/process_docking_weight1_custom_sum_contain_oxygen_bond_distance_aromatic_linkinvent_7_9_3/rearranged_h_0034.sdf

> <i_m_source_file_index>
13

> <r_mmod_Potential_Energy-OPLS-2005>
520.364379882812

> <r_mmod_Stretch_Energy-OPLS-2005>
289.971282958984

> <r_mmod_Bend_Energy-OPLS-2005>
263.330139160156

> <r_mmod_Torsional_Energy-OPLS-2005>
226.837097167969

> <r_mmod_Improper_Torsional_Energy-OPLS-2005>
6.437659740448

> <r_mmod_Van_der_Waal_Energy-OPLS-2005>
129.563400268555

> <r_mmod_Electrostatic_Energy-OPLS-2005>
-396.548614501953

> <r_mmod_Solvation_Energy-OPLS-2005>
-203.289657592773

> <b_mmod_Minimization_Converged-OPLS-2005>
0

> <r_mmod_RMS_Derivative-OPLS-2005>
3.11851096153259

$$$$
14
                    3D
 Structure written by MMmdl.
169178  0  0  1  0            999 V2000
  -30.6818  -14.4966   20.4967 C   0  0  0  0  0  0
  -30.4233  -12.3068   19.4313 C   0  0  0  0  0  0
  -29.4986  -12.4765   18.2084 C   0  0  0  0  0  0
  -28.0165  -12.3436   18.6159 C   0  0  0  0  0  0
  -27.6464  -13.2139   19.8515 C   0  0  2  0  0  0
  -28.6883  -13.0369   20.9795 C   0  0  0  0  0  0
  -25.2521  -13.8192   20.5669 C   0  0  0  0  0  0
  -24.1810  -13.0467   20.9231 C   0  0  0  0  0  0
  -24.6340  -11.6930   20.8752 C   0  0  0  0  0  0
  -23.9011  -10.4331   21.0421 C   0  0  0  0  0  0
  -24.3565   -9.4243   21.9185 C   0  0  0  0  0  0
  -23.6268   -8.2258   22.0725 C   0  0  0  0  0  0
  -22.4247   -8.0283   21.3523 C   0  0  0  0  0  0
  -21.9882   -9.0265   20.4624 C   0  0  0  0  0  0
  -22.7187  -10.2159   20.3056 C   0  0  0  0  0  0
  -21.6858   -6.0749   22.5300 C   0  0  0  0  0  0
  -21.4017   -6.5643   23.8237 C   0  0  0  0  0  0
  -21.3646   -5.6784   24.9197 C   0  0  0  0  0  0
  -21.6042   -4.3050   24.7233 C   0  0  0  0  0  0
  -21.8807   -3.8141   23.4346 C   0  0  0  0  0  0
  -21.9192   -4.6975   22.3416 C   0  0  0  0  0  0
  -22.7826  -13.5256   21.1899 C   0  0  0  0  0  0
  -22.1655   -4.2168   21.0988 F   0  0  0  0  0  0
  -21.5610   -3.4515   25.7733 F   0  0  0  0  0  0
  -30.0194  -13.3181   20.4170 N   0  0  0  0  0  0
  -26.2931  -12.9378   20.3257 N   0  0  0  0  0  0
  -25.9254  -11.6520   20.5694 N   0  0  0  0  0  0
  -22.0416  -12.8307   22.0452 N   0  0  0  0  0  0
  -25.4203  -15.1934   20.4032 N   0  0  0  0  0  0
  -31.8605  -14.6258   20.1487 O   0  0  0  0  0  0
  -21.6610   -6.8887   21.4251 O   0  0  0  0  0  0
  -22.3529  -14.5566   20.6714 O   0  0  0  0  0  0
  -24.6140  -31.8730   23.2077 C   0  0  0  0  0  0
  -25.9035  -32.4859   23.8416 C   0  0  1  0  0  0
  -27.2426  -27.4611   20.1020 C   0  0  0  0  0  0
  -25.5878  -33.8658   24.2329 N   0  0  0  0  0  0
  -23.4052  -30.4901   21.5471 C   0  0  2  0  0  0
  -24.8564  -28.9588   20.1166 C   0  0  0  0  0  0
  -22.7414  -29.4687   22.4990 C   0  0  0  0  0  0
  -18.0275  -28.1365   22.8498 C   0  0  0  0  0  0
  -24.1487  -36.7341   23.2632 C   0  0  0  0  0  0
  -25.9274  -30.8466   21.3563 C   0  0  0  0  0  0
  -26.0094  -29.4778   20.7158 C   0  0  0  0  0  0
  -27.2087  -28.7338   20.7131 C   0  0  0  0  0  0
  -26.0843  -26.9578   19.4747 C   0  0  0  0  0  0
  -24.8860  -27.6954   19.4937 C   0  0  0  0  0  0
  -23.6124  -29.8149   20.1649 C   0  0  0  0  0  0
  -25.4111  -36.3146   24.0336 C   0  0  1  0  0  0
  -20.5852  -28.3662   23.1297 C   0  0  2  0  0  0
  -20.6754  -26.9392   22.5408 C   0  0  0  0  0  0
  -19.5738  -26.6387   21.5193 C   0  0  0  0  0  0
  -18.1920  -26.7910   22.1621 C   0  0  0  0  0  0
  -19.1517  -28.8829   23.2909 C   0  0  0  0  0  0
  -18.9452  -30.1427   23.8929 C   0  0  0  0  0  0
  -17.6454  -30.6578   24.0551 C   0  0  0  0  0  0
  -25.9022  -34.9512   23.5123 C   0  0  0  0  0  0
  -16.5349  -29.9082   23.6312 C   0  0  0  0  0  0
  -16.7266  -28.6490   23.0365 C   0  0  0  0  0  0
  -26.4477  -31.6595   25.0713 C   0  0  0  0  0  0
  -25.3744  -31.3698   26.1450 C   0  0  0  0  0  0
  -27.0254  -30.3036   24.6013 C   0  0  0  0  0  0
  -27.6077  -32.4299   25.7479 C   0  0  0  0  0  0
  -27.5596  -37.1825   24.8470 C   0  0  0  0  0  0
  -21.4143  -29.3042   22.3726 N   0  0  0  0  0  0
  -26.4307  -37.3819   23.9406 N   0  0  0  0  0  0
  -24.6668  -31.0831   22.0973 N   0  0  0  0  0  0
  -23.4189  -28.8239   23.3048 O   0  0  0  0  0  0
  -28.3541  -26.6537   20.1358 O   0  0  0  0  0  0
  -26.5602  -34.8962   22.4700 O   0  0  0  0  0  0
  -23.5322  -32.1473   23.7467 O   0  0  0  0  0  0
  -28.2399  -22.0906   21.2804 C   0  0  0  0  0  0
  -28.2790  -21.9340   19.8637 C   0  0  0  0  0  0
  -28.0565  -20.8129   21.7419 C   0  0  0  0  0  0
  -27.3001  -24.3833   21.9488 C   0  0  0  0  0  0
  -29.8500  -23.9425   22.0071 C   0  0  0  0  0  0
  -27.7716  -25.7761   22.3979 C   0  0  0  0  0  0
  -30.0096  -25.3051   21.2771 C   0  0  0  0  0  0
  -28.4215  -23.3423   22.1230 C   0  0  2  0  0  0
  -28.8596  -26.3305   21.4461 C   0  0  1  0  0  0
  -28.4356  -22.9911   18.8085 C   0  0  0  0  0  0
  -27.8813  -20.3210   23.1432 C   0  0  0  0  0  0
  -29.5844  -18.0500   21.2635 C   0  0  0  0  0  0
  -28.2480  -18.5033   20.6206 C   0  0  0  0  0  0
  -30.3842  -16.9548   20.5284 C   0  0  0  0  0  0
  -28.2305  -20.6599   19.4991 N   0  0  0  0  0  0
  -28.1431  -19.9615   20.6523 N   0  0  0  0  0  0
  -29.9144  -15.5789   20.7358 N   0  0  0  0  0  0
  -31.4682  -12.4112   19.1270 H   0  0  0  0  0  0
  -30.3331  -11.3098   19.8640 H   0  0  0  0  0  0
  -29.7497  -11.7378   17.4463 H   0  0  0  0  0  0
  -29.6684  -13.4503   17.7513 H   0  0  0  0  0  0
  -27.8317  -11.2923   18.8418 H   0  0  0  0  0  0
  -27.3743  -12.5901   17.7699 H   0  0  0  0  0  0
  -27.6697  -14.2505   19.5160 H   0  0  0  0  0  0
  -28.6612  -12.0153   21.3579 H   0  0  0  0  0  0
  -28.4598  -13.6828   21.8319 H   0  0  0  0  0  0
  -25.2688   -9.5751   22.4770 H   0  0  0  0  0  0
  -23.9989   -7.4657   22.7420 H   0  0  0  0  0  0
  -21.0818   -8.8777   19.8937 H   0  0  0  0  0  0
  -22.3614  -10.9697   19.6172 H   0  0  0  0  0  0
  -21.2008   -7.6145   23.9762 H   0  0  0  0  0  0
  -21.1474   -6.0497   25.9113 H   0  0  0  0  0  0
  -22.0592   -2.7597   23.2847 H   0  0  0  0  0  0
  -22.3892  -11.9965   22.4960 H   0  0  0  0  0  0
  -21.1014  -13.1388   22.2516 H   0  0  0  0  0  0
  -24.6465  -15.8447   20.4943 H   0  0  0  0  0  0
  -26.2509  -15.6283   20.0278 H   0  0  0  0  0  0
  -26.7113  -32.5563   23.1193 H   0  0  0  0  0  0
  -25.0012  -33.9816   25.0471 H   0  0  0  0  0  0
  -22.6932  -31.3055   21.4009 H   0  0  0  0  0  0
  -23.3742  -35.9675   23.3340 H   0  0  0  0  0  0
  -24.3575  -36.8917   22.2033 H   0  0  0  0  0  0
  -23.7252  -37.6573   23.6616 H   0  0  0  0  0  0
  -26.0112  -31.6044   20.5762 H   0  0  0  0  0  0
  -26.8283  -30.9213   21.9572 H   0  0  0  0  0  0
  -28.0975  -29.1285   21.1825 H   0  0  0  0  0  0
  -26.1042  -25.9847   19.0002 H   0  0  0  0  0  0
  -23.9945  -27.2863   19.0353 H   0  0  0  0  0  0
  -23.7136  -30.5849   19.3989 H   0  0  0  0  0  0
  -22.7442  -29.2209   19.8753 H   0  0  0  0  0  0
  -25.1276  -36.2040   25.0825 H   0  0  0  0  0  0
  -20.9930  -28.3223   24.1426 H   0  0  0  0  0  0
  -20.5589  -26.2282   23.3613 H   0  0  0  0  0  0
  -21.6625  -26.7409   22.1223 H   0  0  0  0  0  0
  -19.6882  -25.6299   21.1224 H   0  0  0  0  0  0
  -19.6653  -27.3198   20.6721 H   0  0  0  0  0  0
  -17.4172  -26.6663   21.4050 H   0  0  0  0  0  0
  -18.0329  -26.0030   22.8994 H   0  0  0  0  0  0
  -19.7938  -30.7223   24.2320 H   0  0  0  0  0  0
  -17.5023  -31.6247   24.5160 H   0  0  0  0  0  0
  -15.5345  -30.2996   23.7613 H   0  0  0  0  0  0
  -15.8679  -28.0811   22.7084 H   0  0  0  0  0  0
  -24.5914  -30.7049   25.7782 H   0  0  0  0  0  0
  -24.8907  -32.2822   26.4931 H   0  0  0  0  0  0
  -25.8065  -30.8848   27.0197 H   0  0  0  0  0  0
  -26.2738  -29.6866   24.1033 H   0  0  0  0  0  0
  -27.4002  -29.7219   25.4446 H   0  0  0  0  0  0
  -27.8606  -30.4379   23.9131 H   0  0  0  0  0  0
  -27.2713  -33.3571   26.2143 H   0  0  0  0  0  0
  -28.3833  -32.6898   25.0264 H   0  0  0  0  0  0
  -28.0794  -31.8354   26.5315 H   0  0  0  0  0  0
  -28.2631  -38.0107   24.7483 H   0  0  0  0  0  0
  -28.1064  -36.2628   24.6314 H   0  0  0  0  0  0
  -27.2291  -37.1503   25.8869 H   0  0  0  0  0  0
  -20.9317  -29.8813   21.6976 H   0  0  0  0  0  0
  -26.0220  -38.2915   24.1375 H   0  0  0  0  0  0
  -26.9754  -24.4459   20.9111 H   0  0  0  0  0  0
  -26.4224  -24.0715   22.5141 H   0  0  0  0  0  0
  -30.1991  -24.1022   23.0292 H   0  0  0  0  0  0
  -30.5604  -23.2141   21.6091 H   0  0  0  0  0  0
  -26.9262  -26.4570   22.4766 H   0  0  0  0  0  0
  -28.1810  -25.7213   23.4062 H   0  0  0  0  0  0
  -30.1975  -25.1479   20.2165 H   0  0  0  0  0  0
  -30.9296  -25.7492   21.6580 H   0  0  0  0  0  0
  -28.3528  -23.0397   23.1695 H   0  0  0  0  0  0
  -29.2728  -27.2461   21.8753 H   0  0  0  0  0  0
  -27.6299  -23.7254   18.8322 H   0  0  0  0  0  0
  -28.4462  -22.5510   17.8101 H   0  0  0  0  0  0
  -29.3760  -23.5232   18.9383 H   0  0  0  0  0  0
  -28.8392  -20.0707   23.5938 H   0  0  0  0  0  0
  -27.2415  -19.4376   23.1670 H   0  0  0  0  0  0
  -27.4026  -21.0735   23.7731 H   0  0  0  0  0  0
  -29.4180  -17.7767   22.3072 H   0  0  0  0  0  0
  -30.2549  -18.9124   21.3062 H   0  0  0  0  0  0
  -27.3982  -18.0694   21.1458 H   0  0  0  0  0  0
  -28.1721  -18.1624   19.5857 H   0  0  0  0  0  0
  -30.4320  -17.1770   19.4595 H   0  0  0  0  0  0
  -31.4101  -17.0213   20.8957 H   0  0  0  0  0  0
  -28.9286  -15.4304   20.8953 H   0  0  0  0  0  0
  1 25  1  0  0  0
  1 30  2  0  0  0
  1 87  1  0  0  0
  2  3  1  0  0  0
  2 25  1  0  0  0
  2 88  1  0  0  0
  2 89  1  0  0  0
  3  4  1  0  0  0
  3 90  1  0  0  0
  3 91  1  0  0  0
  4  5  1  0  0  0
  4 92  1  0  0  0
  4 93  1  0  0  0
  5  6  1  0  0  0
  5 26  1  0  0  0
  5 94  1  0  0  0
  6 25  1  0  0  0
  6 95  1  0  0  0
  6 96  1  0  0  0
  7  8  2  0  0  0
  7 26  1  0  0  0
  7 29  1  0  0  0
  8  9  1  0  0  0
  8 22  1  0  0  0
  9 10  1  0  0  0
  9 27  2  0  0  0
 10 11  2  0  0  0
 10 15  1  0  0  0
 11 12  1  0  0  0
 11 97  1  0  0  0
 12 13  2  0  0  0
 12 98  1  0  0  0
 13 14  1  0  0  0
 13 31  1  0  0  0
 14 15  2  0  0  0
 14 99  1  0  0  0
 15100  1  0  0  0
 16 17  2  0  0  0
 16 21  1  0  0  0
 16 31  1  0  0  0
 17 18  1  0  0  0
 17101  1  0  0  0
 18 19  2  0  0  0
 18102  1  0  0  0
 19 20  1  0  0  0
 19 24  1  0  0  0
 20 21  2  0  0  0
 20103  1  0  0  0
 21 23  1  0  0  0
 22 28  1  0  0  0
 22 32  2  0  0  0
 26 27  1  0  0  0
 28104  1  0  0  0
 28105  1  0  0  0
 29106  1  0  0  0
 29107  1  0  0  0
 33 34  1  0  0  0
 33 66  1  0  0  0
 33 70  2  0  0  0
 34 36  1  0  0  0
 34 59  1  0  0  0
 34108  1  0  0  0
 35 44  2  0  0  0
 35 45  1  0  0  0
 35 68  1  0  0  0
 36 56  1  0  0  0
 36109  1  0  0  0
 37 39  1  0  0  0
 37 47  1  0  0  0
 37 66  1  0  0  0
 37110  1  0  0  0
 38 43  2  0  0  0
 38 46  1  0  0  0
 38 47  1  0  0  0
 39 64  1  0  0  0
 39 67  2  0  0  0
 40 52  1  0  0  0
 40 53  2  0  0  0
 40 58  1  0  0  0
 41111  1  0  0  0
 41112  1  0  0  0
 41113  1  0  0  0
 41 48  1  0  0  0
 42 43  1  0  0  0
 42 66  1  0  0  0
 42114  1  0  0  0
 42115  1  0  0  0
 43 44  1  0  0  0
 44116  1  0  0  0
 45 46  2  0  0  0
 45117  1  0  0  0
 46118  1  0  0  0
 47119  1  0  0  0
 47120  1  0  0  0
 48 56  1  0  0  0
 48 65  1  0  0  0
 48121  1  0  0  0
 49 50  1  0  0  0
 49 53  1  0  0  0
 49 64  1  0  0  0
 49122  1  0  0  0
 50 51  1  0  0  0
 50123  1  0  0  0
 50124  1  0  0  0
 51 52  1  0  0  0
 51125  1  0  0  0
 51126  1  0  0  0
 52127  1  0  0  0
 52128  1  0  0  0
 53 54  1  0  0  0
 54 55  2  0  0  0
 54129  1  0  0  0
 55 57  1  0  0  0
 55130  1  0  0  0
 56 69  2  0  0  0
 57 58  2  0  0  0
 57131  1  0  0  0
 58132  1  0  0  0
 59 60  1  0  0  0
 59 61  1  0  0  0
 59 62  1  0  0  0
 60133  1  0  0  0
 60134  1  0  0  0
 60135  1  0  0  0
 61136  1  0  0  0
 61137  1  0  0  0
 61138  1  0  0  0
 62139  1  0  0  0
 62140  1  0  0  0
 62141  1  0  0  0
 63 65  1  0  0  0
 63142  1  0  0  0
 63143  1  0  0  0
 63144  1  0  0  0
 64145  1  0  0  0
 65146  1  0  0  0
 68 79  1  0  0  0
 71 72  1  0  0  0
 71 73  2  0  0  0
 71 78  1  0  0  0
 72 80  1  0  0  0
 72 85  2  0  0  0
 73 81  1  0  0  0
 73 86  1  0  0  0
 74 76  1  0  0  0
 74 78  1  0  0  0
 74147  1  0  0  0
 74148  1  0  0  0
 75 77  1  0  0  0
 75 78  1  0  0  0
 75149  1  0  0  0
 75150  1  0  0  0
 76 79  1  0  0  0
 76151  1  0  0  0
 76152  1  0  0  0
 77 79  1  0  0  0
 77153  1  0  0  0
 77154  1  0  0  0
 78155  1  0  0  0
 79156  1  0  0  0
 80157  1  0  0  0
 80158  1  0  0  0
 80159  1  0  0  0
 81160  1  0  0  0
 81161  1  0  0  0
 81162  1  0  0  0
 82 83  1  0  0  0
 82 84  1  0  0  0
 82163  1  0  0  0
 82164  1  0  0  0
 83 86  1  0  0  0
 83165  1  0  0  0
 83166  1  0  0  0
 84 87  1  0  0  0
 84167  1  0  0  0
 84168  1  0  0  0
 85 86  1  0  0  0
 87169  1  0  0  0
M  ISO  4   1 100  68 101  79 101  87 100
M  END
> <chiral flag>
0

> <version>
0

> <s_m_source_file>
/data/baiqing/PycharmProjects/Reinvent-master-3.2/result/LINK_invent/BTK/process_docking_weight1_custom_sum_contain_oxygen_bond_distance_aromatic_linkinvent_7_9_3/rearranged_h_0034.sdf

> <i_m_source_file_index>
14

> <r_mmod_Potential_Energy-OPLS-2005>
-50.3704681396484

> <r_mmod_Stretch_Energy-OPLS-2005>
35.530460357666

> <r_mmod_Bend_Energy-OPLS-2005>
106.499099731445

> <r_mmod_Torsional_Energy-OPLS-2005>
306.800811767578

> <r_mmod_Improper_Torsional_Energy-OPLS-2005>
6.9562087059021

> <r_mmod_Van_der_Waal_Energy-OPLS-2005>
126.466278076172

> <r_mmod_Electrostatic_Energy-OPLS-2005>
-435.872467041016

> <r_mmod_Solvation_Energy-OPLS-2005>
-215.752395629883

> <b_mmod_Minimization_Converged-OPLS-2005>
0

> <r_mmod_RMS_Derivative-OPLS-2005>
5.56101942062378

$$$$
15
                    3D
 Structure written by MMmdl.
169177  0  0  1  0            999 V2000
  -31.3795  -14.5291   21.2268 C   0  0  0  0  0  0
  -30.6027  -14.7785   18.8698 C   0  0  0  0  0  0
  -29.1432  -14.8268   17.5700 C   0  0  0  0  0  0
  -27.2926  -14.5428   18.2773 C   0  0  0  0  0  0
  -27.1435  -14.2397   20.2281 C   0  0  2  0  0  0
  -28.7008  -14.1447   21.3374 C   0  0  0  0  0  0
  -24.8664  -13.9707   20.5623 C   0  0  0  0  0  0
  -23.9797  -13.0438   20.9266 C   0  0  0  0  0  0
  -24.6278  -11.7676   20.8695 C   0  0  0  0  0  0
  -23.9615  -10.4458   21.0105 C   0  0  0  0  0  0
  -24.4035   -9.4393   21.8990 C   0  0  0  0  0  0
  -23.6621   -8.2437   22.0687 C   0  0  0  0  0  0
  -22.4564   -8.0377   21.3536 C   0  0  0  0  0  0
  -22.0293   -9.0271   20.4531 C   0  0  0  0  0  0
  -22.7723  -10.2095   20.2814 C   0  0  0  0  0  0
  -21.7009   -6.0818   22.5262 C   0  0  0  0  0  0
  -21.4096   -6.5699   23.8186 C   0  0  0  0  0  0
  -21.3686   -5.6836   24.9142 C   0  0  0  0  0  0
  -21.6046   -4.3089   24.7176 C   0  0  0  0  0  0
  -21.8820   -3.8191   23.4292 C   0  0  0  0  0  0
  -21.9234   -4.7025   22.3359 C   0  0  0  0  0  0
  -22.5735  -13.4154   21.2087 C   0  0  0  0  0  0
  -22.1707   -4.2217   21.0938 F   0  0  0  0  0  0
  -21.5591   -3.4552   25.7678 F   0  0  0  0  0  0
  -30.2533  -14.5248   20.6056 N   0  0  0  0  0  0
  -26.0485  -13.3362   20.4894 N   0  0  0  0  0  0
  -25.9496  -11.9538   20.6135 N   0  0  0  0  0  0
  -21.9306  -12.6896   22.1053 N   0  0  0  0  0  0
  -24.7352  -15.3416   20.3102 N   0  0  0  0  0  0
  -32.4166  -14.5419   20.5729 O   0  0  0  0  0  0
  -21.6862   -6.8983   21.4248 O   0  0  0  0  0  0
  -22.0803  -14.4301   20.7088 O   0  0  0  0  0  0
  -24.7773  -31.6833   23.0742 C   0  0  0  0  0  0
  -25.9876  -32.3938   23.7647 C   0  0  1  0  0  0
  -27.0996  -25.7438   20.1204 C   0  0  0  0  0  0
  -25.6027  -33.7817   24.1420 N   0  0  0  0  0  0
  -23.6265  -30.2573   21.4600 C   0  0  2  0  0  0
  -25.0399  -28.4070   20.1005 C   0  0  0  0  0  0
  -22.8140  -29.3706   22.4503 C   0  0  0  0  0  0
  -18.0377  -28.1463   22.8435 C   0  0  0  0  0  0
  -24.1460  -36.6909   23.2685 C   0  0  0  0  0  0
  -26.2261  -30.0816   21.4666 C   0  0  0  0  0  0
  -26.2442  -28.5509   20.7918 C   0  0  0  0  0  0
  -27.2193  -27.2768   20.7536 C   0  0  0  0  0  0
  -25.8917  -26.0659   19.3782 C   0  0  0  0  0  0
  -24.9582  -27.1989   19.3720 C   0  0  0  0  0  0
  -23.9045  -29.4923   20.1193 C   0  0  0  0  0  0
  -25.4149  -36.2597   24.0236 C   0  0  1  0  0  0
  -20.6066  -28.3827   23.1006 C   0  0  2  0  0  0
  -20.6773  -26.9395   22.5443 C   0  0  0  0  0  0
  -19.5745  -26.6322   21.5252 C   0  0  0  0  0  0
  -18.1939  -26.7984   22.1633 C   0  0  0  0  0  0
  -19.1676  -28.8988   23.2673 C   0  0  0  0  0  0
  -18.9560  -30.1558   23.8741 C   0  0  0  0  0  0
  -17.6535  -30.6617   24.0536 C   0  0  0  0  0  0
  -25.9204  -34.9016   23.4737 C   0  0  0  0  0  0
  -16.5419  -29.9083   23.6365 C   0  0  0  0  0  0
  -16.7351  -28.6516   23.0375 C   0  0  0  0  0  0
  -26.4728  -31.6414   25.0671 C   0  0  0  0  0  0
  -25.3536  -31.3978   26.1106 C   0  0  0  0  0  0
  -27.0810  -30.2693   24.7194 C   0  0  0  0  0  0
  -27.5999  -32.4497   25.7520 C   0  0  0  0  0  0
  -27.5504  -37.1594   24.8466 C   0  0  0  0  0  0
  -21.4718  -29.2894   22.3249 N   0  0  0  0  0  0
  -26.4188  -37.3466   23.9436 N   0  0  0  0  0  0
  -24.9182  -30.7312   22.0525 N   0  0  0  0  0  0
  -23.4178  -28.7462   23.3241 O   0  0  0  0  0  0
  -27.8266  -24.0604   20.1163 O   0  0  0  0  0  0
  -26.5991  -34.8788   22.4454 O   0  0  0  0  0  0
  -23.6616  -32.0368   23.5120 O   0  0  0  0  0  0
  -28.3026  -17.0016   20.7719 C   0  0  0  0  0  0
  -28.5330  -17.8692   19.0912 C   0  0  0  0  0  0
  -28.0387  -18.4648   20.8724 C   0  0  0  0  0  0
  -28.2099  -19.4414   19.7460 C   0  0  0  0  0  0
  -28.9272  -13.2781   19.2022 C   0  0  0  0  0  0
  -27.4627  -19.0527   22.1628 C   0  0  0  0  0  0
  -27.7747  -21.8648   19.5997 C   0  0  0  0  0  0
  -32.8387  -17.8235   23.7962 C   0  0  0  0  0  0
  -31.4381  -18.1307   24.3617 C   0  0  0  0  0  0
  -32.9971  -16.5732   22.9009 C   0  0  0  0  0  0
  -30.2676  -18.1572   23.3668 C   0  0  0  0  0  0
  -32.3947  -15.2298   23.3952 C   0  0  0  0  0  0
  -28.9742  -18.5662   24.1043 C   0  0  0  0  0  0
  -28.6295  -16.0915   19.5989 N   0  0  0  0  0  0
  -31.3033  -14.7477   22.5437 N   0  0  0  0  0  0
  -27.7212  -18.2677   23.3857 N   0  3  0  0  0  0
  -31.1162  -15.7417   18.7894 H   0  0  0  0  0  0
  -31.3417  -14.0686   18.4871 H   0  0  0  0  0  0
  -29.3507  -14.1251   16.7580 H   0  0  0  0  0  0
  -29.1789  -15.7824   17.0447 H   0  0  0  0  0  0
  -26.8015  -13.7342   17.7290 H   0  0  0  0  0  0
  -26.6926  -15.4125   18.0055 H   0  0  0  0  0  0
  -26.8672  -15.1328   20.7428 H   0  0  0  0  0  0
  -28.7787  -13.1262   21.7304 H   0  0  0  0  0  0
  -28.5587  -14.6638   22.2837 H   0  0  0  0  0  0
  -25.3072   -9.5976   22.4705 H   0  0  0  0  0  0
  -24.0275   -7.4911   22.7540 H   0  0  0  0  0  0
  -21.1207   -8.8791   19.8851 H   0  0  0  0  0  0
  -22.4044  -10.9566   19.5918 H   0  0  0  0  0  0
  -21.2138   -7.6219   23.9699 H   0  0  0  0  0  0
  -21.1500   -6.0566   25.9046 H   0  0  0  0  0  0
  -22.0558   -2.7649   23.2758 H   0  0  0  0  0  0
  -22.3719  -11.8874   22.5328 H   0  0  0  0  0  0
  -20.9796  -12.9146   22.3577 H   0  0  0  0  0  0
  -23.8219  -15.7850   20.3283 H   0  0  0  0  0  0
  -25.4615  -15.9274   19.9121 H   0  0  0  0  0  0
  -26.8143  -32.4287   23.0522 H   0  0  0  0  0  0
  -24.9912  -33.8696   24.9407 H   0  0  0  0  0  0
  -23.0063  -31.1230   21.2149 H   0  0  0  0  0  0
  -23.3788  -35.9160   23.3195 H   0  0  0  0  0  0
  -24.3490  -36.8784   22.2128 H   0  0  0  0  0  0
  -23.7141  -37.5970   23.6939 H   0  0  0  0  0  0
  -26.5514  -30.7610   20.6774 H   0  0  0  0  0  0
  -27.0430  -30.1252   22.1712 H   0  0  0  0  0  0
  -28.1155  -27.4232   21.3399 H   0  0  0  0  0  0
  -25.5546  -25.2448   18.7646 H   0  0  0  0  0  0
  -24.0824  -27.0738   18.7506 H   0  0  0  0  0  0
  -24.1539  -30.2288   19.3537 H   0  0  0  0  0  0
  -22.9796  -29.0306   19.7723 H   0  0  0  0  0  0
  -25.1384  -36.1216   25.0717 H   0  0  0  0  0  0
  -21.0116  -28.3508   24.1141 H   0  0  0  0  0  0
  -20.5525  -26.2479   23.3787 H   0  0  0  0  0  0
  -21.6623  -26.7160   22.1315 H   0  0  0  0  0  0
  -19.6849  -25.6185   21.1366 H   0  0  0  0  0  0
  -19.6717  -27.3070   20.6731 H   0  0  0  0  0  0
  -17.4222  -26.6790   21.4010 H   0  0  0  0  0  0
  -18.0233  -26.0151   22.9031 H   0  0  0  0  0  0
  -19.8018  -30.7437   24.2048 H   0  0  0  0  0  0
  -17.5050  -31.6276   24.5177 H   0  0  0  0  0  0
  -15.5399  -30.2919   23.7757 H   0  0  0  0  0  0
  -15.8771  -28.0775   22.7151 H   0  0  0  0  0  0
  -24.5812  -30.7263   25.7342 H   0  0  0  0  0  0
  -24.8653  -32.3286   26.4013 H   0  0  0  0  0  0
  -25.7495  -30.9454   27.0216 H   0  0  0  0  0  0
  -26.3616  -29.5941   24.2584 H   0  0  0  0  0  0
  -27.4302  -29.7620   25.6195 H   0  0  0  0  0  0
  -27.9555  -30.3657   24.0771 H   0  0  0  0  0  0
  -27.2447  -33.3995   26.1517 H   0  0  0  0  0  0
  -28.4078  -32.6742   25.0550 H   0  0  0  0  0  0
  -28.0376  -31.9048   26.5889 H   0  0  0  0  0  0
  -28.2432  -37.9965   24.7545 H   0  0  0  0  0  0
  -28.1080  -36.2484   24.6240 H   0  0  0  0  0  0
  -27.2247  -37.1160   25.8873 H   0  0  0  0  0  0
  -21.0230  -29.8462   21.6116 H   0  0  0  0  0  0
  -25.9929  -38.2460   24.1494 H   0  0  0  0  0  0
  -28.1485  -16.4662   21.6780 H   0  0  0  0  0  0
  -28.7172  -17.8550   18.0239 H   0  0  0  0  0  0
  -29.8733  -12.7242   19.3100 H   0  0  0  0  0  0
  -28.6699  -12.7658   18.2543 H   0  0  0  0  0  0
  -28.3928  -12.4979   19.7655 H   0  0  0  0  0  0
  -26.3799  -19.1123   22.0362 H   0  0  0  0  0  0
  -27.8002  -20.0790   22.3041 H   0  0  0  0  0  0
  -26.7051  -21.7983   19.3931 H   0  0  0  0  0  0
  -28.2163  -21.9851   18.6113 H   0  0  0  0  0  0
  -33.1650  -18.6833   23.2077 H   0  0  0  0  0  0
  -33.5436  -17.7638   24.6267 H   0  0  0  0  0  0
  -31.4657  -19.1064   24.8578 H   0  0  0  0  0  0
  -31.2123  -17.4072   25.1442 H   0  0  0  0  0  0
  -34.0678  -16.4121   22.7575 H   0  0  0  0  0  0
  -32.6323  -16.8158   21.9061 H   0  0  0  0  0  0
  -30.1527  -17.1684   22.9306 H   0  0  0  0  0  0
  -30.4671  -18.8403   22.5379 H   0  0  0  0  0  0
  -32.0261  -15.3081   24.4171 H   0  0  0  0  0  0
  -33.1764  -14.4675   23.4050 H   0  0  0  0  0  0
  -29.0082  -19.6248   24.3643 H   0  0  0  0  0  0
  -28.9116  -18.0283   25.0486 H   0  0  0  0  0  0
  -30.3841  -14.6924   22.9543 H   0  0  0  0  0  0
  -27.6263  -17.2884   23.1850 H   0  0  0  0  0  0
  -26.9820  -18.4868   24.0341 H   0  0  0  0  0  0
  1 25  1  0  0  0
  1 30  2  0  0  0
  1 85  1  0  0  0
  2  3  1  0  0  0
  2 25  1  0  0  0
  2 87  1  0  0  0
  2 88  1  0  0  0
  3  4  1  0  0  0
  3 89  1  0  0  0
  3 90  1  0  0  0
  4  5  1  0  0  0
  4 91  1  0  0  0
  4 92  1  0  0  0
  5  6  1  0  0  0
  5 26  1  0  0  0
  5 93  1  0  0  0
  6 25  1  0  0  0
  6 94  1  0  0  0
  6 95  1  0  0  0
  7  8  2  0  0  0
  7 26  1  0  0  0
  7 29  1  0  0  0
  8  9  1  0  0  0
  8 22  1  0  0  0
  9 10  1  0  0  0
  9 27  2  0  0  0
 10 11  2  0  0  0
 10 15  1  0  0  0
 11 12  1  0  0  0
 11 96  1  0  0  0
 12 13  2  0  0  0
 12 97  1  0  0  0
 13 14  1  0  0  0
 13 31  1  0  0  0
 14 15  2  0  0  0
 14 98  1  0  0  0
 15 99  1  0  0  0
 16 17  2  0  0  0
 16 21  1  0  0  0
 16 31  1  0  0  0
 17 18  1  0  0  0
 17100  1  0  0  0
 18 19  2  0  0  0
 18101  1  0  0  0
 19 20  1  0  0  0
 19 24  1  0  0  0
 20 21  2  0  0  0
 20102  1  0  0  0
 21 23  1  0  0  0
 22 28  1  0  0  0
 22 32  2  0  0  0
 26 27  1  0  0  0
 28103  1  0  0  0
 28104  1  0  0  0
 29105  1  0  0  0
 29106  1  0  0  0
 33 34  1  0  0  0
 33 66  1  0  0  0
 33 70  2  0  0  0
 34 36  1  0  0  0
 34 59  1  0  0  0
 34107  1  0  0  0
 35 44  2  0  0  0
 35 45  1  0  0  0
 35 68  1  0  0  0
 36 56  1  0  0  0
 36108  1  0  0  0
 37 39  1  0  0  0
 37 47  1  0  0  0
 37 66  1  0  0  0
 37109  1  0  0  0
 38 43  2  0  0  0
 38 46  1  0  0  0
 38 47  1  0  0  0
 39 64  1  0  0  0
 39 67  2  0  0  0
 40 52  1  0  0  0
 40 53  2  0  0  0
 40 58  1  0  0  0
 41110  1  0  0  0
 41111  1  0  0  0
 41112  1  0  0  0
 41 48  1  0  0  0
 42 43  1  0  0  0
 42 66  1  0  0  0
 42113  1  0  0  0
 42114  1  0  0  0
 43 44  1  0  0  0
 44115  1  0  0  0
 45 46  2  0  0  0
 45116  1  0  0  0
 46117  1  0  0  0
 47118  1  0  0  0
 47119  1  0  0  0
 48 56  1  0  0  0
 48 65  1  0  0  0
 48120  1  0  0  0
 49 50  1  0  0  0
 49 53  1  0  0  0
 49 64  1  0  0  0
 49121  1  0  0  0
 50 51  1  0  0  0
 50122  1  0  0  0
 50123  1  0  0  0
 51 52  1  0  0  0
 51124  1  0  0  0
 51125  1  0  0  0
 52126  1  0  0  0
 52127  1  0  0  0
 53 54  1  0  0  0
 54 55  2  0  0  0
 54128  1  0  0  0
 55 57  1  0  0  0
 55129  1  0  0  0
 56 69  2  0  0  0
 57 58  2  0  0  0
 57130  1  0  0  0
 58131  1  0  0  0
 59 60  1  0  0  0
 59 61  1  0  0  0
 59 62  1  0  0  0
 60132  1  0  0  0
 60133  1  0  0  0
 60134  1  0  0  0
 61135  1  0  0  0
 61136  1  0  0  0
 61137  1  0  0  0
 62138  1  0  0  0
 62139  1  0  0  0
 62140  1  0  0  0
 63 65  1  0  0  0
 63141  1  0  0  0
 63142  1  0  0  0
 63143  1  0  0  0
 64144  1  0  0  0
 65145  1  0  0  0
 68 77  1  0  0  0
 71 73  2  0  0  0
 71 84  1  0  0  0
 71146  1  0  0  0
 72 74  2  0  0  0
 72 84  1  0  0  0
 72147  1  0  0  0
 73 74  1  0  0  0
 73 76  1  0  0  0
 74 77  1  0  0  0
 75 84  1  0  0  0
 75148  1  0  0  0
 75149  1  0  0  0
 75150  1  0  0  0
 76 86  1  0  0  0
 76151  1  0  0  0
 76152  1  0  0  0
 77153  1  0  0  0
 77154  1  0  0  0
 78 79  1  0  0  0
 78 80  1  0  0  0
 78155  1  0  0  0
 78156  1  0  0  0
 79 81  1  0  0  0
 79157  1  0  0  0
 79158  1  0  0  0
 80 82  1  0  0  0
 80159  1  0  0  0
 80160  1  0  0  0
 81 83  1  0  0  0
 81161  1  0  0  0
 81162  1  0  0  0
 82 85  1  0  0  0
 82163  1  0  0  0
 82164  1  0  0  0
 83 86  1  0  0  0
 83165  1  0  0  0
 83166  1  0  0  0
 85167  1  0  0  0
 86168  1  0  0  0
 86169  1  0  0  0
M  CHG  1  86   1
M  ISO  4   1 100  68 101  77 101  85 100
M  END
> <chiral flag>
0

> <version>
0

> <s_m_source_file>
/data/baiqing/PycharmProjects/Reinvent-master-3.2/result/LINK_invent/BTK/process_docking_weight1_custom_sum_contain_oxygen_bond_distance_aromatic_linkinvent_7_9_3/rearranged_h_0034.sdf

> <i_m_source_file_index>
15

> <r_mmod_Potential_Energy-OPLS-2005>
14542.626953125

> <r_mmod_Stretch_Energy-OPLS-2005>
7442.87646484375

> <r_mmod_Bend_Energy-OPLS-2005>
1617.78442382812

> <r_mmod_Torsional_Energy-OPLS-2005>
295.549499511719

> <r_mmod_Improper_Torsional_Energy-OPLS-2005>
9.56030178070068

> <r_mmod_Van_der_Waal_Energy-OPLS-2005>
1735.27087402344

> <r_mmod_Electrostatic_Energy-OPLS-2005>
-286.867218017578

> <r_mmod_Solvation_Energy-OPLS-2005>
-470.097717285156

> <b_mmod_Minimization_Converged-OPLS-2005>
0

> <r_mmod_RMS_Derivative-OPLS-2005>
6.66758012771606

$$$$
16
                    3D
 Structure written by MMmdl.
153161  0  0  1  0            999 V2000
  -30.4808  -15.1923   20.3760 C   0  0  0  0  0  0
  -30.4383  -12.7583   19.5201 C   0  0  0  0  0  0
  -29.5312  -12.5553   18.2814 C   0  0  0  0  0  0
  -28.0763  -12.2971   18.7092 C   0  0  0  0  0  0
  -27.6130  -13.2711   19.8225 C   0  0  2  0  0  0
  -28.6508  -13.4253   20.9554 C   0  0  0  0  0  0
  -25.2393  -13.8249   20.5739 C   0  0  0  0  0  0
  -24.1739  -13.0440   20.9251 C   0  0  0  0  0  0
  -24.6398  -11.6937   20.8760 C   0  0  0  0  0  0
  -23.9106  -10.4293   21.0407 C   0  0  0  0  0  0
  -24.3646   -9.4197   21.9184 C   0  0  0  0  0  0
  -23.6303   -8.2242   22.0761 C   0  0  0  0  0  0
  -22.4281   -8.0284   21.3551 C   0  0  0  0  0  0
  -21.9932   -9.0260   20.4646 C   0  0  0  0  0  0
  -22.7278  -10.2129   20.3053 C   0  0  0  0  0  0
  -21.6853   -6.0735   22.5274 C   0  0  0  0  0  0
  -21.4017   -6.5640   23.8203 C   0  0  0  0  0  0
  -21.3658   -5.6784   24.9164 C   0  0  0  0  0  0
  -21.6045   -4.3050   24.7209 C   0  0  0  0  0  0
  -21.8819   -3.8145   23.4329 C   0  0  0  0  0  0
  -21.9195   -4.6968   22.3386 C   0  0  0  0  0  0
  -22.7754  -13.5189   21.1875 C   0  0  0  0  0  0
  -22.1658   -4.2152   21.0965 F   0  0  0  0  0  0
  -21.5629   -3.4532   25.7723 F   0  0  0  0  0  0
  -29.8929  -13.9034   20.3287 N   0  0  0  0  0  0
  -26.2824  -12.9519   20.3223 N   0  0  0  0  0  0
  -25.9337  -11.6632   20.5734 N   0  0  0  0  0  0
  -22.0423  -12.8171   22.0438 N   0  0  0  0  0  0
  -25.4032  -15.1982   20.4164 N   0  0  0  0  0  0
  -31.7013  -15.1848   20.1701 O   0  0  0  0  0  0
  -21.6644   -6.8882   21.4236 O   0  0  0  0  0  0
  -22.3427  -14.5483   20.6705 O   0  0  0  0  0  0
  -24.6591  -31.8288   23.1751 C   0  0  0  0  0  0
  -25.9287  -32.4612   23.8205 C   0  0  1  0  0  0
  -27.2185  -26.9804   20.1588 C   0  0  0  0  0  0
  -25.5990  -33.8437   24.2118 N   0  0  0  0  0  0
  -23.4711  -30.4438   21.5242 C   0  0  2  0  0  0
  -24.9236  -28.8459   20.1091 C   0  0  0  0  0  0
  -22.7646  -29.4473   22.4810 C   0  0  0  0  0  0
  -18.0314  -28.1421   22.8465 C   0  0  0  0  0  0
  -24.1488  -36.7211   23.2645 C   0  0  0  0  0  0
  -26.0394  -30.6520   21.3970 C   0  0  0  0  0  0
  -26.1087  -29.2481   20.7393 C   0  0  0  0  0  0
  -27.2507  -28.3343   20.7453 C   0  0  0  0  0  0
  -26.0042  -26.7269   19.4786 C   0  0  0  0  0  0
  -24.8940  -27.6030   19.4622 C   0  0  0  0  0  0
  -23.7067  -29.7653   20.1488 C   0  0  0  0  0  0
  -25.4125  -36.2985   24.0308 C   0  0  1  0  0  0
  -20.5937  -28.3744   23.1218 C   0  0  2  0  0  0
  -20.6797  -26.9440   22.5424 C   0  0  0  0  0  0
  -19.5771  -26.6385   21.5229 C   0  0  0  0  0  0
  -18.1947  -26.7959   22.1619 C   0  0  0  0  0  0
  -19.1577  -28.8902   23.2834 C   0  0  0  0  0  0
  -18.9489  -30.1490   23.8867 C   0  0  0  0  0  0
  -17.6481  -30.6612   24.0552 C   0  0  0  0  0  0
  -25.9099  -34.9364   23.5026 C   0  0  0  0  0  0
  -16.5372  -29.9098   23.6348 C   0  0  0  0  0  0
  -16.7296  -28.6516   23.0362 C   0  0  0  0  0  0
  -26.4569  -31.6535   25.0688 C   0  0  0  0  0  0
  -25.3713  -31.3763   26.1351 C   0  0  0  0  0  0
  -27.0447  -30.2919   24.6345 C   0  0  0  0  0  0
  -27.6110  -32.4310   25.7469 C   0  0  0  0  0  0
  -27.5584  -37.1736   24.8448 C   0  0  0  0  0  0
  -21.4317  -29.3047   22.3564 N   0  0  0  0  0  0
  -26.4258  -37.3730   23.9440 N   0  0  0  0  0  0
  -24.7446  -30.9990   22.0865 N   0  0  0  0  0  0
  -23.4206  -28.8036   23.3038 O   0  0  0  0  0  0
  -28.2121  -25.8799   20.2318 O   0  0  0  0  0  0
  -26.5700  -34.8877   22.4616 O   0  0  0  0  0  0
  -23.5666  -32.1247   23.6859 O   0  0  0  0  0  0
  -29.5179  -20.5094   19.1564 C   0  0  0  0  0  0
  -28.5276  -21.8826   21.2913 C   0  0  0  0  0  0
  -29.1268  -21.9398   19.0614 C   0  0  0  0  0  0
  -28.9206  -20.4485   21.3844 C   0  0  0  0  0  0
  -29.4454  -19.6169   20.3036 C   0  0  0  0  0  0
  -28.5985  -22.7722   20.1401 C   0  0  0  0  0  0
  -29.2615  -22.5816   17.6885 C   0  0  0  0  0  0
  -28.7790  -19.7983   22.7491 C   0  0  0  0  0  0
  -30.1903  -18.0464   20.3866 C   0  0  0  0  0  0
  -27.8317  -24.3230   19.9721 C   0  0  0  0  0  0
  -29.7453  -16.4638   20.4484 N   0  0  0  0  0  0
  -31.4603  -12.9488   19.1889 H   0  0  0  0  0  0
  -30.4900  -11.8490   20.1207 H   0  0  0  0  0  0
  -29.8976  -11.7262   17.6759 H   0  0  0  0  0  0
  -29.5751  -13.4422   17.6467 H   0  0  0  0  0  0
  -28.0187  -11.2708   19.0757 H   0  0  0  0  0  0
  -27.4064  -12.3509   17.8502 H   0  0  0  0  0  0
  -27.5356  -14.2416   19.3342 H   0  0  0  0  0  0
  -28.7989  -12.4872   21.4902 H   0  0  0  0  0  0
  -28.3026  -14.1520   21.6906 H   0  0  0  0  0  0
  -25.2796   -9.5660   22.4754 H   0  0  0  0  0  0
  -23.9996   -7.4635   22.7487 H   0  0  0  0  0  0
  -21.0866   -8.8787   19.8949 H   0  0  0  0  0  0
  -22.3751  -10.9666   19.6147 H   0  0  0  0  0  0
  -21.2018   -7.6146   23.9708 H   0  0  0  0  0  0
  -21.1480   -6.0514   25.9062 H   0  0  0  0  0  0
  -22.0609   -2.7611   23.2821 H   0  0  0  0  0  0
  -22.4058  -11.9832   22.4820 H   0  0  0  0  0  0
  -21.1035  -13.1166   22.2661 H   0  0  0  0  0  0
  -24.6354  -15.8500   20.5377 H   0  0  0  0  0  0
  -26.2447  -15.6409   20.0721 H   0  0  0  0  0  0
  -26.7338  -32.5160   23.0906 H   0  0  0  0  0  0
  -25.0127  -33.9548   25.0251 H   0  0  0  0  0  0
  -22.7828  -31.2747   21.3560 H   0  0  0  0  0  0
  -23.3781  -35.9516   23.3239 H   0  0  0  0  0  0
  -24.3598  -36.8914   22.2079 H   0  0  0  0  0  0
  -23.7193  -37.6362   23.6730 H   0  0  0  0  0  0
  -26.2081  -31.3949   20.6156 H   0  0  0  0  0  0
  -26.9062  -30.7132   22.0435 H   0  0  0  0  0  0
  -28.1429  -28.6359   21.2743 H   0  0  0  0  0  0
  -25.8673  -25.7840   18.9714 H   0  0  0  0  0  0
  -23.9946  -27.2887   18.9525 H   0  0  0  0  0  0
  -23.8527  -30.5348   19.3905 H   0  0  0  0  0  0
  -22.8188  -29.2161   19.8335 H   0  0  0  0  0  0
  -25.1308  -36.1791   25.0800 H   0  0  0  0  0  0
  -21.0013  -28.3329   24.1346 H   0  0  0  0  0  0
  -20.5694  -26.2366   23.3646 H   0  0  0  0  0  0
  -21.6660  -26.7441   22.1217 H   0  0  0  0  0  0
  -19.6952  -25.6295   21.1277 H   0  0  0  0  0  0
  -19.6726  -27.3176   20.6747 H   0  0  0  0  0  0
  -17.4231  -26.6714   21.3994 H   0  0  0  0  0  0
  -18.0309  -26.0117   22.9020 H   0  0  0  0  0  0
  -19.7964  -30.7315   24.2219 H   0  0  0  0  0  0
  -17.5035  -31.6283   24.5164 H   0  0  0  0  0  0
  -15.5370  -30.2988   23.7702 H   0  0  0  0  0  0
  -15.8683  -28.0820   22.7118 H   0  0  0  0  0  0
  -24.5966  -30.7021   25.7663 H   0  0  0  0  0  0
  -24.8812  -32.2948   26.4608 H   0  0  0  0  0  0
  -25.7964  -30.9074   27.0227 H   0  0  0  0  0  0
  -26.3091  -29.6617   24.1325 H   0  0  0  0  0  0
  -27.4006  -29.7257   25.4961 H   0  0  0  0  0  0
  -27.9015  -30.4146   23.9713 H   0  0  0  0  0  0
  -27.2754  -33.3698   26.1890 H   0  0  0  0  0  0
  -28.3988  -32.6716   25.0308 H   0  0  0  0  0  0
  -28.0679  -31.8509   26.5491 H   0  0  0  0  0  0
  -28.2510  -38.0121   24.7627 H   0  0  0  0  0  0
  -28.1166  -36.2667   24.6094 H   0  0  0  0  0  0
  -27.2334  -37.1144   25.8849 H   0  0  0  0  0  0
  -20.9558  -29.8730   21.6692 H   0  0  0  0  0  0
  -26.0103  -38.2766   24.1553 H   0  0  0  0  0  0
  -29.9305  -20.0651   18.2612 H   0  0  0  0  0  0
  -28.1096  -22.3284   22.1837 H   0  0  0  0  0  0
  -29.8614  -21.9713   17.0113 H   0  0  0  0  0  0
  -29.7451  -23.5565   17.7593 H   0  0  0  0  0  0
  -28.2818  -22.7153   17.2286 H   0  0  0  0  0  0
  -28.0560  -20.3323   23.3679 H   0  0  0  0  0  0
  -29.7343  -19.8018   23.2750 H   0  0  0  0  0  0
  -28.4380  -18.7665   22.6599 H   0  0  0  0  0  0
  -30.8378  -18.1411   21.2581 H   0  0  0  0  0  0
  -30.8933  -18.0654   19.5527 H   0  0  0  0  0  0
  -26.8997  -24.1905   20.5228 H   0  0  0  0  0  0
  -27.5208  -24.3213   18.9286 H   0  0  0  0  0  0
  -28.7500  -16.3314   20.5552 H   0  0  0  0  0  0
  1 25  1  0  0  0
  1 30  2  0  0  0
  1 81  1  0  0  0
  2  3  1  0  0  0
  2 25  1  0  0  0
  2 82  1  0  0  0
  2 83  1  0  0  0
  3  4  1  0  0  0
  3 84  1  0  0  0
  3 85  1  0  0  0
  4  5  1  0  0  0
  4 86  1  0  0  0
  4 87  1  0  0  0
  5  6  1  0  0  0
  5 26  1  0  0  0
  5 88  1  0  0  0
  6 25  1  0  0  0
  6 89  1  0  0  0
  6 90  1  0  0  0
  7  8  2  0  0  0
  7 26  1  0  0  0
  7 29  1  0  0  0
  8  9  1  0  0  0
  8 22  1  0  0  0
  9 10  1  0  0  0
  9 27  2  0  0  0
 10 11  2  0  0  0
 10 15  1  0  0  0
 11 12  1  0  0  0
 11 91  1  0  0  0
 12 13  2  0  0  0
 12 92  1  0  0  0
 13 14  1  0  0  0
 13 31  1  0  0  0
 14 15  2  0  0  0
 14 93  1  0  0  0
 15 94  1  0  0  0
 16 17  2  0  0  0
 16 21  1  0  0  0
 16 31  1  0  0  0
 17 18  1  0  0  0
 17 95  1  0  0  0
 18 19  2  0  0  0
 18 96  1  0  0  0
 19 20  1  0  0  0
 19 24  1  0  0  0
 20 21  2  0  0  0
 20 97  1  0  0  0
 21 23  1  0  0  0
 22 28  1  0  0  0
 22 32  2  0  0  0
 26 27  1  0  0  0
 28 98  1  0  0  0
 28 99  1  0  0  0
 29100  1  0  0  0
 29101  1  0  0  0
 33 34  1  0  0  0
 33 66  1  0  0  0
 33 70  2  0  0  0
 34 36  1  0  0  0
 34 59  1  0  0  0
 34102  1  0  0  0
 35 44  2  0  0  0
 35 45  1  0  0  0
 35 68  1  0  0  0
 36 56  1  0  0  0
 36103  1  0  0  0
 37 39  1  0  0  0
 37 47  1  0  0  0
 37 66  1  0  0  0
 37104  1  0  0  0
 38 43  2  0  0  0
 38 46  1  0  0  0
 38 47  1  0  0  0
 39 64  1  0  0  0
 39 67  2  0  0  0
 40 52  1  0  0  0
 40 53  2  0  0  0
 40 58  1  0  0  0
 41105  1  0  0  0
 41106  1  0  0  0
 41107  1  0  0  0
 41 48  1  0  0  0
 42 43  1  0  0  0
 42 66  1  0  0  0
 42108  1  0  0  0
 42109  1  0  0  0
 43 44  1  0  0  0
 44110  1  0  0  0
 45 46  2  0  0  0
 45111  1  0  0  0
 46112  1  0  0  0
 47113  1  0  0  0
 47114  1  0  0  0
 48 56  1  0  0  0
 48 65  1  0  0  0
 48115  1  0  0  0
 49 50  1  0  0  0
 49 53  1  0  0  0
 49 64  1  0  0  0
 49116  1  0  0  0
 50 51  1  0  0  0
 50117  1  0  0  0
 50118  1  0  0  0
 51 52  1  0  0  0
 51119  1  0  0  0
 51120  1  0  0  0
 52121  1  0  0  0
 52122  1  0  0  0
 53 54  1  0  0  0
 54 55  2  0  0  0
 54123  1  0  0  0
 55 57  1  0  0  0
 55124  1  0  0  0
 56 69  2  0  0  0
 57 58  2  0  0  0
 57125  1  0  0  0
 58126  1  0  0  0
 59 60  1  0  0  0
 59 61  1  0  0  0
 59 62  1  0  0  0
 60127  1  0  0  0
 60128  1  0  0  0
 60129  1  0  0  0
 61130  1  0  0  0
 61131  1  0  0  0
 61132  1  0  0  0
 62133  1  0  0  0
 62134  1  0  0  0
 62135  1  0  0  0
 63 65  1  0  0  0
 63136  1  0  0  0
 63137  1  0  0  0
 63138  1  0  0  0
 64139  1  0  0  0
 65140  1  0  0  0
 68 80  1  0  0  0
 71 73  2  0  0  0
 71 75  1  0  0  0
 71141  1  0  0  0
 72 74  1  0  0  0
 72 76  2  0  0  0
 72142  1  0  0  0
 73 76  1  0  0  0
 73 77  1  0  0  0
 74 75  2  0  0  0
 74 78  1  0  0  0
 75 79  1  0  0  0
 76 80  1  0  0  0
 77143  1  0  0  0
 77144  1  0  0  0
 77145  1  0  0  0
 78146  1  0  0  0
 78147  1  0  0  0
 78148  1  0  0  0
 79 81  1  0  0  0
 79149  1  0  0  0
 79150  1  0  0  0
 80151  1  0  0  0
 80152  1  0  0  0
 81153  1  0  0  0
M  ISO  4   1 100  68 101  80 101  81 100
M  END
> <chiral flag>
0

> <version>
0

> <s_m_source_file>
/data/baiqing/PycharmProjects/Reinvent-master-3.2/result/LINK_invent/BTK/process_docking_weight1_custom_sum_contain_oxygen_bond_distance_aromatic_linkinvent_7_9_3/rearranged_h_0034.sdf

> <i_m_source_file_index>
16

> <r_mmod_Potential_Energy-OPLS-2005>
1016.04241943359

> <r_mmod_Stretch_Energy-OPLS-2005>
449.231567382812

> <r_mmod_Bend_Energy-OPLS-2005>
407.587249755859

> <r_mmod_Torsional_Energy-OPLS-2005>
228.287170410156

> <r_mmod_Improper_Torsional_Energy-OPLS-2005>
9.82418441772461

> <r_mmod_Van_der_Waal_Energy-OPLS-2005>
132.39518737793

> <r_mmod_Electrostatic_Energy-OPLS-2005>
-387.583984375

> <r_mmod_Solvation_Energy-OPLS-2005>
-210.972778320312

> <b_mmod_Minimization_Converged-OPLS-2005>
0

> <r_mmod_RMS_Derivative-OPLS-2005>
2.38308024406433

$$$$
17
                    3D
 Structure written by MMmdl.
168176  0  0  1  0            999 V2000
  -30.7695  -14.3516   20.7205 C   0  0  0  0  0  0
  -30.4216  -12.3036   19.3809 C   0  0  0  0  0  0
  -29.4818  -12.5314   18.1837 C   0  0  0  0  0  0
  -28.0078  -12.3792   18.6041 C   0  0  0  0  0  0
  -27.6647  -13.1994   19.8743 C   0  0  2  0  0  0
  -28.7010  -12.9330   20.9853 C   0  0  0  0  0  0
  -25.2598  -13.8148   20.5662 C   0  0  0  0  0  0
  -24.1846  -13.0440   20.9161 C   0  0  0  0  0  0
  -24.6383  -11.6903   20.8713 C   0  0  0  0  0  0
  -23.9045  -10.4295   21.0394 C   0  0  0  0  0  0
  -24.3602   -9.4218   21.9176 C   0  0  0  0  0  0
  -23.6287   -8.2248   22.0747 C   0  0  0  0  0  0
  -22.4267   -8.0282   21.3542 C   0  0  0  0  0  0
  -21.9899   -9.0247   20.4640 C   0  0  0  0  0  0
  -22.7214  -10.2130   20.3048 C   0  0  0  0  0  0
  -21.6853   -6.0734   22.5278 C   0  0  0  0  0  0
  -21.4011   -6.5636   23.8210 C   0  0  0  0  0  0
  -21.3660   -5.6791   24.9174 C   0  0  0  0  0  0
  -21.6046   -4.3052   24.7225 C   0  0  0  0  0  0
  -21.8821   -3.8144   23.4343 C   0  0  0  0  0  0
  -21.9192   -4.6962   22.3402 C   0  0  0  0  0  0
  -22.7869  -13.5244   21.1842 C   0  0  0  0  0  0
  -22.1662   -4.2147   21.0979 F   0  0  0  0  0  0
  -21.5631   -3.4537   25.7738 F   0  0  0  0  0  0
  -30.0434  -13.2367   20.4518 N   0  0  0  0  0  0
  -26.3030  -12.9304   20.3341 N   0  0  0  0  0  0
  -25.9304  -11.6467   20.5723 N   0  0  0  0  0  0
  -22.0508  -12.8237   22.0390 N   0  0  0  0  0  0
  -25.4351  -15.1864   20.4085 N   0  0  0  0  0  0
  -31.7842  -14.6747   20.0950 O   0  0  0  0  0  0
  -21.6638   -6.8874   21.4238 O   0  0  0  0  0  0
  -22.3560  -14.5555   20.6700 O   0  0  0  0  0  0
  -24.6136  -31.8692   23.2107 C   0  0  0  0  0  0
  -25.9026  -32.4834   23.8407 C   0  0  1  0  0  0
  -27.2337  -27.4419   20.0848 C   0  0  0  0  0  0
  -25.5872  -33.8634   24.2336 N   0  0  0  0  0  0
  -23.4001  -30.4923   21.5539 C   0  0  2  0  0  0
  -24.8435  -28.9601   20.1171 C   0  0  0  0  0  0
  -22.7414  -29.4639   22.5017 C   0  0  0  0  0  0
  -18.0257  -28.1356   22.8499 C   0  0  0  0  0  0
  -24.1480  -36.7324   23.2640 C   0  0  0  0  0  0
  -25.9275  -30.8369   21.3613 C   0  0  0  0  0  0
  -26.0017  -29.4693   20.7135 C   0  0  0  0  0  0
  -27.1959  -28.7155   20.6982 C   0  0  0  0  0  0
  -26.0469  -26.9365   19.5014 C   0  0  0  0  0  0
  -24.8594  -27.6918   19.5124 C   0  0  0  0  0  0
  -23.6064  -29.8264   20.1671 C   0  0  0  0  0  0
  -25.4102  -36.3139   24.0348 C   0  0  1  0  0  0
  -20.5856  -28.3638   23.1344 C   0  0  2  0  0  0
  -20.6750  -26.9380   22.5435 C   0  0  0  0  0  0
  -19.5728  -26.6374   21.5226 C   0  0  0  0  0  0
  -18.1900  -26.7904   22.1627 C   0  0  0  0  0  0
  -19.1511  -28.8814   23.2906 C   0  0  0  0  0  0
  -18.9441  -30.1423   23.8918 C   0  0  0  0  0  0
  -17.6448  -30.6572   24.0570 C   0  0  0  0  0  0
  -25.9029  -34.9496   23.5146 C   0  0  0  0  0  0
  -16.5338  -29.9087   23.6314 C   0  0  0  0  0  0
  -16.7251  -28.6492   23.0346 C   0  0  0  0  0  0
  -26.4434  -31.6614   25.0735 C   0  0  0  0  0  0
  -25.3672  -31.3764   26.1471 C   0  0  0  0  0  0
  -27.0250  -30.3058   24.6095 C   0  0  0  0  0  0
  -27.6015  -32.4331   25.7490 C   0  0  0  0  0  0
  -27.5586  -37.1818   24.8460 C   0  0  0  0  0  0
  -21.4144  -29.3009   22.3768 N   0  0  0  0  0  0
  -26.4294  -37.3820   23.9412 N   0  0  0  0  0  0
  -24.6658  -31.0799   22.1007 N   0  0  0  0  0  0
  -23.4200  -28.8182   23.3044 O   0  0  0  0  0  0
  -28.4395  -26.7677   20.0742 O   0  0  0  0  0  0
  -26.5617  -34.8956   22.4723 O   0  0  0  0  0  0
  -23.5322  -32.1444   23.7496 O   0  0  0  0  0  0
  -27.1462  -21.7259   21.9960 C   0  0  0  0  0  0
  -29.5106  -21.2870   21.6561 C   0  0  0  0  0  0
  -28.3269  -21.9416   21.2644 C   0  0  0  0  0  0
  -27.1534  -20.9190   23.1525 C   0  0  0  0  0  0
  -29.5467  -20.4664   22.8050 C   0  0  0  0  0  0
  -28.3625  -20.3019   23.5757 C   0  0  0  0  0  0
  -24.8114  -19.9096   23.2311 C   0  0  0  0  0  0
  -28.3440  -22.9327   20.1095 C   0  0  0  0  0  0
  -25.8490  -20.7942   23.9355 C   0  0  0  0  0  0
  -30.9126  -19.9175   23.2319 C   0  0  0  0  0  0
  -28.1713  -24.3847   20.6031 C   0  0  0  0  0  0
  -31.0778  -18.3953   23.4402 C   0  0  0  0  0  0
  -30.6094  -17.4748   22.2999 C   0  0  0  0  0  0
  -31.0915  -16.0324   22.5543 C   0  0  0  0  0  0
  -28.5309  -25.4423   19.5436 C   0  0  0  0  0  0
  -30.3511  -15.0290   21.7971 N   0  0  0  0  0  0
  -28.4003  -19.4091   25.0595 Cl  0  0  0  0  0  0
  -31.4613  -12.4244   19.0719 H   0  0  0  0  0  0
  -30.3389  -11.2776   19.7421 H   0  0  0  0  0  0
  -29.7165  -11.8286   17.3831 H   0  0  0  0  0  0
  -29.6459  -13.5291   17.7736 H   0  0  0  0  0  0
  -27.8203  -11.3198   18.7853 H   0  0  0  0  0  0
  -27.3514  -12.6672   17.7819 H   0  0  0  0  0  0
  -27.7250  -14.2546   19.6062 H   0  0  0  0  0  0
  -28.6668  -11.8854   21.2888 H   0  0  0  0  0  0
  -28.4343  -13.4951   21.8800 H   0  0  0  0  0  0
  -25.2749   -9.5701   22.4743 H   0  0  0  0  0  0
  -24.0001   -7.4641   22.7469 H   0  0  0  0  0  0
  -21.0829   -8.8758   19.8945 H   0  0  0  0  0  0
  -22.3669  -10.9666   19.6153 H   0  0  0  0  0  0
  -21.1999   -7.6144   23.9713 H   0  0  0  0  0  0
  -21.1482   -6.0520   25.9077 H   0  0  0  0  0  0
  -22.0598   -2.7607   23.2845 H   0  0  0  0  0  0
  -22.4115  -11.9894   22.4783 H   0  0  0  0  0  0
  -21.1122  -13.1258   22.2584 H   0  0  0  0  0  0
  -24.6754  -15.8483   20.5266 H   0  0  0  0  0  0
  -26.2993  -15.6227   20.1117 H   0  0  0  0  0  0
  -26.7110  -32.5565   23.1191 H   0  0  0  0  0  0
  -25.0001  -33.9792   25.0470 H   0  0  0  0  0  0
  -22.6882  -31.3092   21.4180 H   0  0  0  0  0  0
  -23.3758  -35.9639   23.3298 H   0  0  0  0  0  0
  -24.3573  -36.8933   22.2052 H   0  0  0  0  0  0
  -23.7200  -37.6519   23.6648 H   0  0  0  0  0  0
  -26.0347  -31.6000   20.5883 H   0  0  0  0  0  0
  -26.8185  -30.8960   21.9752 H   0  0  0  0  0  0
  -28.0939  -29.1083   21.1559 H   0  0  0  0  0  0
  -26.0074  -25.9670   19.0297 H   0  0  0  0  0  0
  -23.9649  -27.2930   19.0544 H   0  0  0  0  0  0
  -23.7125  -30.6025   19.4084 H   0  0  0  0  0  0
  -22.7298  -29.2463   19.8725 H   0  0  0  0  0  0
  -25.1266  -36.2021   25.0838 H   0  0  0  0  0  0
  -20.9922  -28.3200   24.1474 H   0  0  0  0  0  0
  -20.5652  -26.2252   23.3623 H   0  0  0  0  0  0
  -21.6621  -26.7429   22.1226 H   0  0  0  0  0  0
  -19.6904  -25.6294   21.1222 H   0  0  0  0  0  0
  -19.6664  -27.3221   20.6784 H   0  0  0  0  0  0
  -17.4177  -26.6666   21.4013 H   0  0  0  0  0  0
  -18.0277  -26.0039   22.9011 H   0  0  0  0  0  0
  -19.7925  -30.7206   24.2319 H   0  0  0  0  0  0
  -17.5013  -31.6258   24.5156 H   0  0  0  0  0  0
  -15.5339  -30.3001   23.7615 H   0  0  0  0  0  0
  -15.8649  -28.0820   22.7063 H   0  0  0  0  0  0
  -24.5852  -30.7088   25.7832 H   0  0  0  0  0  0
  -24.8838  -32.2938   26.4854 H   0  0  0  0  0  0
  -25.7981  -30.8997   27.0285 H   0  0  0  0  0  0
  -26.2804  -29.6869   24.1068 H   0  0  0  0  0  0
  -27.3947  -29.7240   25.4551 H   0  0  0  0  0  0
  -27.8675  -30.4388   23.9298 H   0  0  0  0  0  0
  -27.2636  -33.3637   26.2071 H   0  0  0  0  0  0
  -28.3810  -32.6879   25.0294 H   0  0  0  0  0  0
  -28.0697  -31.8450   26.5394 H   0  0  0  0  0  0
  -28.2606  -38.0121   24.7533 H   0  0  0  0  0  0
  -28.1078  -36.2655   24.6238 H   0  0  0  0  0  0
  -27.2312  -37.1404   25.8866 H   0  0  0  0  0  0
  -20.9309  -29.8782   21.7029 H   0  0  0  0  0  0
  -26.0197  -38.2904   24.1425 H   0  0  0  0  0  0
  -26.2330  -22.2200   21.6944 H   0  0  0  0  0  0
  -30.4178  -21.4638   21.0961 H   0  0  0  0  0  0
  -23.9114  -19.8137   23.8389 H   0  0  0  0  0  0
  -25.1981  -18.9061   23.0525 H   0  0  0  0  0  0
  -24.5151  -20.3309   22.2700 H   0  0  0  0  0  0
  -27.5637  -22.6768   19.3918 H   0  0  0  0  0  0
  -29.2906  -22.8342   19.5751 H   0  0  0  0  0  0
  -25.4326  -21.7945   24.0653 H   0  0  0  0  0  0
  -26.0147  -20.4247   24.9454 H   0  0  0  0  0  0
  -31.2042  -20.4328   24.1472 H   0  0  0  0  0  0
  -31.6519  -20.2214   22.4898 H   0  0  0  0  0  0
  -28.8275  -24.5397   21.4613 H   0  0  0  0  0  0
  -27.1542  -24.5348   20.9676 H   0  0  0  0  0  0
  -30.5805  -18.0880   24.3582 H   0  0  0  0  0  0
  -32.1368  -18.2087   23.6274 H   0  0  0  0  0  0
  -31.0000  -17.8266   21.3437 H   0  0  0  0  0  0
  -29.5217  -17.5112   22.2288 H   0  0  0  0  0  0
  -30.9545  -15.7813   23.6073 H   0  0  0  0  0  0
  -32.1648  -15.9520   22.3683 H   0  0  0  0  0  0
  -27.9619  -25.3108   18.6243 H   0  0  0  0  0  0
  -29.5712  -25.2987   19.2512 H   0  0  0  0  0  0
  -29.5074  -14.6763   22.2252 H   0  0  0  0  0  0
  1 25  1  0  0  0
  1 30  2  0  0  0
  1 86  1  0  0  0
  2  3  1  0  0  0
  2 25  1  0  0  0
  2 88  1  0  0  0
  2 89  1  0  0  0
  3  4  1  0  0  0
  3 90  1  0  0  0
  3 91  1  0  0  0
  4  5  1  0  0  0
  4 92  1  0  0  0
  4 93  1  0  0  0
  5  6  1  0  0  0
  5 26  1  0  0  0
  5 94  1  0  0  0
  6 25  1  0  0  0
  6 95  1  0  0  0
  6 96  1  0  0  0
  7  8  2  0  0  0
  7 26  1  0  0  0
  7 29  1  0  0  0
  8  9  1  0  0  0
  8 22  1  0  0  0
  9 10  1  0  0  0
  9 27  2  0  0  0
 10 11  2  0  0  0
 10 15  1  0  0  0
 11 12  1  0  0  0
 11 97  1  0  0  0
 12 13  2  0  0  0
 12 98  1  0  0  0
 13 14  1  0  0  0
 13 31  1  0  0  0
 14 15  2  0  0  0
 14 99  1  0  0  0
 15100  1  0  0  0
 16 17  2  0  0  0
 16 21  1  0  0  0
 16 31  1  0  0  0
 17 18  1  0  0  0
 17101  1  0  0  0
 18 19  2  0  0  0
 18102  1  0  0  0
 19 20  1  0  0  0
 19 24  1  0  0  0
 20 21  2  0  0  0
 20103  1  0  0  0
 21 23  1  0  0  0
 22 28  1  0  0  0
 22 32  2  0  0  0
 26 27  1  0  0  0
 28104  1  0  0  0
 28105  1  0  0  0
 29106  1  0  0  0
 29107  1  0  0  0
 33 34  1  0  0  0
 33 66  1  0  0  0
 33 70  2  0  0  0
 34 36  1  0  0  0
 34 59  1  0  0  0
 34108  1  0  0  0
 35 44  2  0  0  0
 35 45  1  0  0  0
 35 68  1  0  0  0
 36 56  1  0  0  0
 36109  1  0  0  0
 37 39  1  0  0  0
 37 47  1  0  0  0
 37 66  1  0  0  0
 37110  1  0  0  0
 38 43  2  0  0  0
 38 46  1  0  0  0
 38 47  1  0  0  0
 39 64  1  0  0  0
 39 67  2  0  0  0
 40 52  1  0  0  0
 40 53  2  0  0  0
 40 58  1  0  0  0
 41111  1  0  0  0
 41112  1  0  0  0
 41113  1  0  0  0
 41 48  1  0  0  0
 42 43  1  0  0  0
 42 66  1  0  0  0
 42114  1  0  0  0
 42115  1  0  0  0
 43 44  1  0  0  0
 44116  1  0  0  0
 45 46  2  0  0  0
 45117  1  0  0  0
 46118  1  0  0  0
 47119  1  0  0  0
 47120  1  0  0  0
 48 56  1  0  0  0
 48 65  1  0  0  0
 48121  1  0  0  0
 49 50  1  0  0  0
 49 53  1  0  0  0
 49 64  1  0  0  0
 49122  1  0  0  0
 50 51  1  0  0  0
 50123  1  0  0  0
 50124  1  0  0  0
 51 52  1  0  0  0
 51125  1  0  0  0
 51126  1  0  0  0
 52127  1  0  0  0
 52128  1  0  0  0
 53 54  1  0  0  0
 54 55  2  0  0  0
 54129  1  0  0  0
 55 57  1  0  0  0
 55130  1  0  0  0
 56 69  2  0  0  0
 57 58  2  0  0  0
 57131  1  0  0  0
 58132  1  0  0  0
 59 60  1  0  0  0
 59 61  1  0  0  0
 59 62  1  0  0  0
 60133  1  0  0  0
 60134  1  0  0  0
 60135  1  0  0  0
 61136  1  0  0  0
 61137  1  0  0  0
 61138  1  0  0  0
 62139  1  0  0  0
 62140  1  0  0  0
 62141  1  0  0  0
 63 65  1  0  0  0
 63142  1  0  0  0
 63143  1  0  0  0
 63144  1  0  0  0
 64145  1  0  0  0
 65146  1  0  0  0
 68 85  1  0  0  0
 71 73  2  0  0  0
 71 74  1  0  0  0
 71147  1  0  0  0
 72 73  1  0  0  0
 72 75  2  0  0  0
 72148  1  0  0  0
 73 78  1  0  0  0
 74 76  2  0  0  0
 74 79  1  0  0  0
 75 76  1  0  0  0
 75 80  1  0  0  0
 76 87  1  0  0  0
 77 79  1  0  0  0
 77149  1  0  0  0
 77150  1  0  0  0
 77151  1  0  0  0
 78 81  1  0  0  0
 78152  1  0  0  0
 78153  1  0  0  0
 79154  1  0  0  0
 79155  1  0  0  0
 80 82  1  0  0  0
 80156  1  0  0  0
 80157  1  0  0  0
 81 85  1  0  0  0
 81158  1  0  0  0
 81159  1  0  0  0
 82 83  1  0  0  0
 82160  1  0  0  0
 82161  1  0  0  0
 83 84  1  0  0  0
 83162  1  0  0  0
 83163  1  0  0  0
 84 86  1  0  0  0
 84164  1  0  0  0
 84165  1  0  0  0
 85166  1  0  0  0
 85167  1  0  0  0
 86168  1  0  0  0
M  ISO  4   1 100  68 101  85 101  86 100
M  END
> <chiral flag>
0

> <version>
0

> <s_m_source_file>
/data/baiqing/PycharmProjects/Reinvent-master-3.2/result/LINK_invent/BTK/process_docking_weight1_custom_sum_contain_oxygen_bond_distance_aromatic_linkinvent_7_9_3/rearranged_h_0034.sdf

> <i_m_source_file_index>
17

> <r_mmod_Potential_Energy-OPLS-2005>
-74.6876220703125

> <r_mmod_Stretch_Energy-OPLS-2005>
34.9636039733887

> <r_mmod_Bend_Energy-OPLS-2005>
106.625480651855

> <r_mmod_Torsional_Energy-OPLS-2005>
190.92106628418

> <r_mmod_Improper_Torsional_Energy-OPLS-2005>
3.20499658584595

> <r_mmod_Van_der_Waal_Energy-OPLS-2005>
154.441314697266

> <r_mmod_Electrostatic_Energy-OPLS-2005>
-376.2841796875

> <r_mmod_Solvation_Energy-OPLS-2005>
-197.195465087891

> <b_mmod_Minimization_Converged-OPLS-2005>
0

> <r_mmod_RMS_Derivative-OPLS-2005>
2.00144457817078

$$$$
18
                    3D
 Structure written by MMmdl.
147155  0  0  1  0            999 V2000
  -30.4710  -15.1820   20.3822 C   0  0  0  0  0  0
  -30.4350  -12.7500   19.5213 C   0  0  0  0  0  0
  -29.5296  -12.5580   18.2802 C   0  0  0  0  0  0
  -28.0738  -12.2999   18.7063 C   0  0  0  0  0  0
  -27.6136  -13.2677   19.8260 C   0  0  2  0  0  0
  -28.6483  -13.4124   20.9616 C   0  0  0  0  0  0
  -25.2398  -13.8236   20.5744 C   0  0  0  0  0  0
  -24.1740  -13.0431   20.9250 C   0  0  0  0  0  0
  -24.6387  -11.6928   20.8759 C   0  0  0  0  0  0
  -23.9081  -10.4291   21.0410 C   0  0  0  0  0  0
  -24.3631   -9.4203   21.9186 C   0  0  0  0  0  0
  -23.6307   -8.2238   22.0747 C   0  0  0  0  0  0
  -22.4285   -8.0281   21.3544 C   0  0  0  0  0  0
  -21.9928   -9.0252   20.4641 C   0  0  0  0  0  0
  -22.7255  -10.2132   20.3055 C   0  0  0  0  0  0
  -21.6855   -6.0743   22.5280 C   0  0  0  0  0  0
  -21.4014   -6.5643   23.8216 C   0  0  0  0  0  0
  -21.3658   -5.6791   24.9176 C   0  0  0  0  0  0
  -21.6046   -4.3057   24.7225 C   0  0  0  0  0  0
  -21.8820   -3.8151   23.4347 C   0  0  0  0  0  0
  -21.9198   -4.6970   22.3404 C   0  0  0  0  0  0
  -22.7761  -13.5192   21.1915 C   0  0  0  0  0  0
  -22.1665   -4.2158   21.0983 F   0  0  0  0  0  0
  -21.5632   -3.4535   25.7737 F   0  0  0  0  0  0
  -29.8911  -13.8905   20.3393 N   0  0  0  0  0  0
  -26.2819  -12.9501   20.3228 N   0  0  0  0  0  0
  -25.9321  -11.6611   20.5723 N   0  0  0  0  0  0
  -22.0433  -12.8159   22.0469 N   0  0  0  0  0  0
  -25.4024  -15.1972   20.4183 N   0  0  0  0  0  0
  -31.6891  -15.1856   20.1593 O   0  0  0  0  0  0
  -21.6643   -6.8882   21.4243 O   0  0  0  0  0  0
  -22.3438  -14.5504   20.6774 O   0  0  0  0  0  0
  -24.6591  -31.8284   23.1764 C   0  0  0  0  0  0
  -25.9295  -32.4628   23.8204 C   0  0  1  0  0  0
  -27.2109  -26.9735   20.1749 C   0  0  0  0  0  0
  -25.5985  -33.8437   24.2113 N   0  0  0  0  0  0
  -23.4714  -30.4435   21.5238 C   0  0  2  0  0  0
  -24.9241  -28.8458   20.1091 C   0  0  0  0  0  0
  -22.7645  -29.4465   22.4786 C   0  0  0  0  0  0
  -18.0320  -28.1419   22.8484 C   0  0  0  0  0  0
  -24.1477  -36.7179   23.2647 C   0  0  0  0  0  0
  -26.0391  -30.6507   21.4005 C   0  0  0  0  0  0
  -26.1078  -29.2462   20.7424 C   0  0  0  0  0  0
  -27.2474  -28.3295   20.7544 C   0  0  0  0  0  0
  -26.0002  -26.7210   19.4894 C   0  0  0  0  0  0
  -24.8936  -27.6018   19.4636 C   0  0  0  0  0  0
  -23.7090  -29.7673   20.1469 C   0  0  0  0  0  0
  -25.4119  -36.2975   24.0307 C   0  0  1  0  0  0
  -20.5943  -28.3749   23.1200 C   0  0  2  0  0  0
  -20.6792  -26.9434   22.5410 C   0  0  0  0  0  0
  -19.5761  -26.6397   21.5220 C   0  0  0  0  0  0
  -18.1946  -26.7955   22.1639 C   0  0  0  0  0  0
  -19.1584  -28.8904   23.2833 C   0  0  0  0  0  0
  -18.9498  -30.1495   23.8866 C   0  0  0  0  0  0
  -17.6493  -30.6616   24.0559 C   0  0  0  0  0  0
  -25.9094  -34.9368   23.5021 C   0  0  0  0  0  0
  -16.5379  -29.9107   23.6361 C   0  0  0  0  0  0
  -16.7306  -28.6520   23.0388 C   0  0  0  0  0  0
  -26.4562  -31.6562   25.0714 C   0  0  0  0  0  0
  -25.3709  -31.3821   26.1385 C   0  0  0  0  0  0
  -27.0442  -30.2931   24.6421 C   0  0  0  0  0  0
  -27.6063  -32.4361   25.7517 C   0  0  0  0  0  0
  -27.5551  -37.1739   24.8471 C   0  0  0  0  0  0
  -21.4317  -29.3040   22.3537 N   0  0  0  0  0  0
  -26.4253  -37.3718   23.9429 N   0  0  0  0  0  0
  -24.7440  -30.9996   22.0873 N   0  0  0  0  0  0
  -23.4210  -28.8028   23.3008 O   0  0  0  0  0  0
  -28.1953  -25.8672   20.2636 O   0  0  0  0  0  0
  -26.5682  -34.8902   22.4606 O   0  0  0  0  0  0
  -23.5673  -32.1227   23.6890 O   0  0  0  0  0  0
  -27.9132  -21.6368   20.9605 C   0  0  0  0  0  0
  -30.0676  -20.7297   19.5950 C   0  0  0  0  0  0
  -28.5370  -22.7517   20.2442 C   0  0  0  0  0  0
  -29.4475  -19.6136   20.3036 C   0  0  0  0  0  0
  -28.3205  -20.2061   21.0067 C   0  0  0  0  0  0
  -29.6620  -22.1553   19.5472 C   0  0  0  0  0  0
  -30.1638  -18.0290   20.3422 C   0  0  0  0  0  0
  -27.8060  -24.3094   20.0151 C   0  0  0  0  0  0
  -29.7271  -16.4476   20.4680 N   0  0  0  0  0  0
  -27.5737  -19.3808   21.7778 F   0  0  0  0  0  0
  -30.5969  -23.1941   18.5346 Cl  0  0  0  0  0  0
  -31.4590  -12.9390   19.1959 H   0  0  0  0  0  0
  -30.4798  -11.8348   20.1143 H   0  0  0  0  0  0
  -29.8941  -11.7324   17.6673 H   0  0  0  0  0  0
  -29.5755  -13.4501   17.6539 H   0  0  0  0  0  0
  -28.0160  -11.2715   19.0660 H   0  0  0  0  0  0
  -27.4065  -12.3621   17.8465 H   0  0  0  0  0  0
  -27.5387  -14.2420   19.3416 H   0  0  0  0  0  0
  -28.7961  -12.4706   21.4923 H   0  0  0  0  0  0
  -28.3020  -14.1366   21.7009 H   0  0  0  0  0  0
  -25.2771   -9.5693   22.4765 H   0  0  0  0  0  0
  -24.0025   -7.4629   22.7459 H   0  0  0  0  0  0
  -21.0862   -8.8771   19.8941 H   0  0  0  0  0  0
  -22.3708  -10.9675   19.6169 H   0  0  0  0  0  0
  -21.1994   -7.6148   23.9724 H   0  0  0  0  0  0
  -21.1481   -6.0518   25.9083 H   0  0  0  0  0  0
  -22.0600   -2.7613   23.2839 H   0  0  0  0  0  0
  -22.4068  -11.9809   22.4821 H   0  0  0  0  0  0
  -21.1055  -13.1159   22.2710 H   0  0  0  0  0  0
  -24.6302  -15.8451   20.5324 H   0  0  0  0  0  0
  -26.2464  -15.6447   20.0861 H   0  0  0  0  0  0
  -26.7366  -32.5174   23.0921 H   0  0  0  0  0  0
  -25.0129  -33.9528   25.0263 H   0  0  0  0  0  0
  -22.7827  -31.2741   21.3581 H   0  0  0  0  0  0
  -23.3770  -35.9480   23.3297 H   0  0  0  0  0  0
  -24.3554  -36.8831   22.2066 H   0  0  0  0  0  0
  -23.7205  -37.6355   23.6694 H   0  0  0  0  0  0
  -26.2159  -31.3972   20.6248 H   0  0  0  0  0  0
  -26.9012  -30.7031   22.0536 H   0  0  0  0  0  0
  -28.1400  -28.6296   21.2854 H   0  0  0  0  0  0
  -25.8621  -25.7743   18.9899 H   0  0  0  0  0  0
  -23.9950  -27.2891   18.9506 H   0  0  0  0  0  0
  -23.8630  -30.5388   19.3917 H   0  0  0  0  0  0
  -22.8194  -29.2211   19.8299 H   0  0  0  0  0  0
  -25.1319  -36.1755   25.0797 H   0  0  0  0  0  0
  -21.0052  -28.3352   24.1314 H   0  0  0  0  0  0
  -20.5672  -26.2365   23.3647 H   0  0  0  0  0  0
  -21.6652  -26.7420   22.1197 H   0  0  0  0  0  0
  -19.6909  -25.6302   21.1266 H   0  0  0  0  0  0
  -19.6693  -27.3190   20.6731 H   0  0  0  0  0  0
  -17.4207  -26.6715   21.4046 H   0  0  0  0  0  0
  -18.0329  -26.0113   22.9052 H   0  0  0  0  0  0
  -19.7974  -30.7321   24.2219 H   0  0  0  0  0  0
  -17.5052  -31.6297   24.5162 H   0  0  0  0  0  0
  -15.5376  -30.3001   23.7710 H   0  0  0  0  0  0
  -15.8704  -28.0827   22.7141 H   0  0  0  0  0  0
  -24.5881  -30.7171   25.7711 H   0  0  0  0  0  0
  -24.8908  -32.3033   26.4693 H   0  0  0  0  0  0
  -25.7956  -30.9075   27.0238 H   0  0  0  0  0  0
  -26.3099  -29.6629   24.1381 H   0  0  0  0  0  0
  -27.3938  -29.7276   25.5069 H   0  0  0  0  0  0
  -27.9067  -30.4131   23.9861 H   0  0  0  0  0  0
  -27.2642  -33.3714   26.1963 H   0  0  0  0  0  0
  -28.3950  -32.6832   25.0397 H   0  0  0  0  0  0
  -28.0634  -31.8564   26.5547 H   0  0  0  0  0  0
  -28.2558  -38.0044   24.7541 H   0  0  0  0  0  0
  -28.1062  -36.2581   24.6276 H   0  0  0  0  0  0
  -27.2281  -37.1360   25.8877 H   0  0  0  0  0  0
  -20.9547  -29.8739   21.6689 H   0  0  0  0  0  0
  -26.0095  -38.2761   24.1497 H   0  0  0  0  0  0
  -27.0140  -21.8770   21.5099 H   0  0  0  0  0  0
  -30.9491  -20.4821   19.0208 H   0  0  0  0  0  0
  -30.9070  -18.1316   21.1336 H   0  0  0  0  0  0
  -30.7626  -18.0211   19.4311 H   0  0  0  0  0  0
  -26.8452  -24.2010   20.5196 H   0  0  0  0  0  0
  -27.5584  -24.2831   18.9544 H   0  0  0  0  0  0
  -28.7369  -16.3137   20.6084 H   0  0  0  0  0  0
  1 25  1  0  0  0
  1 30  2  0  0  0
  1 79  1  0  0  0
  2  3  1  0  0  0
  2 25  1  0  0  0
  2 82  1  0  0  0
  2 83  1  0  0  0
  3  4  1  0  0  0
  3 84  1  0  0  0
  3 85  1  0  0  0
  4  5  1  0  0  0
  4 86  1  0  0  0
  4 87  1  0  0  0
  5  6  1  0  0  0
  5 26  1  0  0  0
  5 88  1  0  0  0
  6 25  1  0  0  0
  6 89  1  0  0  0
  6 90  1  0  0  0
  7  8  2  0  0  0
  7 26  1  0  0  0
  7 29  1  0  0  0
  8  9  1  0  0  0
  8 22  1  0  0  0
  9 10  1  0  0  0
  9 27  2  0  0  0
 10 11  2  0  0  0
 10 15  1  0  0  0
 11 12  1  0  0  0
 11 91  1  0  0  0
 12 13  2  0  0  0
 12 92  1  0  0  0
 13 14  1  0  0  0
 13 31  1  0  0  0
 14 15  2  0  0  0
 14 93  1  0  0  0
 15 94  1  0  0  0
 16 17  2  0  0  0
 16 21  1  0  0  0
 16 31  1  0  0  0
 17 18  1  0  0  0
 17 95  1  0  0  0
 18 19  2  0  0  0
 18 96  1  0  0  0
 19 20  1  0  0  0
 19 24  1  0  0  0
 20 21  2  0  0  0
 20 97  1  0  0  0
 21 23  1  0  0  0
 22 28  1  0  0  0
 22 32  2  0  0  0
 26 27  1  0  0  0
 28 98  1  0  0  0
 28 99  1  0  0  0
 29100  1  0  0  0
 29101  1  0  0  0
 33 34  1  0  0  0
 33 66  1  0  0  0
 33 70  2  0  0  0
 34 36  1  0  0  0
 34 59  1  0  0  0
 34102  1  0  0  0
 35 44  2  0  0  0
 35 45  1  0  0  0
 35 68  1  0  0  0
 36 56  1  0  0  0
 36103  1  0  0  0
 37 39  1  0  0  0
 37 47  1  0  0  0
 37 66  1  0  0  0
 37104  1  0  0  0
 38 43  2  0  0  0
 38 46  1  0  0  0
 38 47  1  0  0  0
 39 64  1  0  0  0
 39 67  2  0  0  0
 40 52  1  0  0  0
 40 53  2  0  0  0
 40 58  1  0  0  0
 41105  1  0  0  0
 41106  1  0  0  0
 41107  1  0  0  0
 41 48  1  0  0  0
 42 43  1  0  0  0
 42 66  1  0  0  0
 42108  1  0  0  0
 42109  1  0  0  0
 43 44  1  0  0  0
 44110  1  0  0  0
 45 46  2  0  0  0
 45111  1  0  0  0
 46112  1  0  0  0
 47113  1  0  0  0
 47114  1  0  0  0
 48 56  1  0  0  0
 48 65  1  0  0  0
 48115  1  0  0  0
 49 50  1  0  0  0
 49 53  1  0  0  0
 49 64  1  0  0  0
 49116  1  0  0  0
 50 51  1  0  0  0
 50117  1  0  0  0
 50118  1  0  0  0
 51 52  1  0  0  0
 51119  1  0  0  0
 51120  1  0  0  0
 52121  1  0  0  0
 52122  1  0  0  0
 53 54  1  0  0  0
 54 55  2  0  0  0
 54123  1  0  0  0
 55 57  1  0  0  0
 55124  1  0  0  0
 56 69  2  0  0  0
 57 58  2  0  0  0
 57125  1  0  0  0
 58126  1  0  0  0
 59 60  1  0  0  0
 59 61  1  0  0  0
 59 62  1  0  0  0
 60127  1  0  0  0
 60128  1  0  0  0
 60129  1  0  0  0
 61130  1  0  0  0
 61131  1  0  0  0
 61132  1  0  0  0
 62133  1  0  0  0
 62134  1  0  0  0
 62135  1  0  0  0
 63 65  1  0  0  0
 63136  1  0  0  0
 63137  1  0  0  0
 63138  1  0  0  0
 64139  1  0  0  0
 65140  1  0  0  0
 68 78  1  0  0  0
 71 73  2  0  0  0
 71 75  1  0  0  0
 71141  1  0  0  0
 72 74  1  0  0  0
 72 76  2  0  0  0
 72142  1  0  0  0
 73 76  1  0  0  0
 73 78  1  0  0  0
 74 75  2  0  0  0
 74 77  1  0  0  0
 75 80  1  0  0  0
 76 81  1  0  0  0
 77 79  1  0  0  0
 77143  1  0  0  0
 77144  1  0  0  0
 78145  1  0  0  0
 78146  1  0  0  0
 79147  1  0  0  0
M  ISO  4   1 100  68 101  78 101  79 100
M  END
> <chiral flag>
0

> <version>
0

> <s_m_source_file>
/data/baiqing/PycharmProjects/Reinvent-master-3.2/result/LINK_invent/BTK/process_docking_weight1_custom_sum_contain_oxygen_bond_distance_aromatic_linkinvent_7_9_3/rearranged_h_0034.sdf

> <i_m_source_file_index>
18

> <r_mmod_Potential_Energy-OPLS-2005>
1008.001953125

> <r_mmod_Stretch_Energy-OPLS-2005>
444.471893310547

> <r_mmod_Bend_Energy-OPLS-2005>
421.022705078125

> <r_mmod_Torsional_Energy-OPLS-2005>
216.909484863281

> <r_mmod_Improper_Torsional_Energy-OPLS-2005>
7.61950063705444

> <r_mmod_Van_der_Waal_Energy-OPLS-2005>
130.429077148438

> <r_mmod_Electrostatic_Energy-OPLS-2005>
-389.012908935547

> <r_mmod_Solvation_Energy-OPLS-2005>
-211.329208374023

> <b_mmod_Minimization_Converged-OPLS-2005>
0

> <r_mmod_RMS_Derivative-OPLS-2005>
1.47426271438599

$$$$
19
                    3D
 Structure written by MMmdl.
162170  0  0  1  0            999 V2000
  -30.7009  -14.5013   20.5619 C   0  0  0  0  0  0
  -30.4152  -12.3201   19.4362 C   0  0  0  0  0  0
  -29.4968  -12.5076   18.2116 C   0  0  0  0  0  0
  -28.0161  -12.3689   18.6163 C   0  0  0  0  0  0
  -27.6551  -13.2175   19.8664 C   0  0  2  0  0  0
  -28.6949  -13.0302   20.9941 C   0  0  0  0  0  0
  -25.2564  -13.8185   20.5696 C   0  0  0  0  0  0
  -24.1831  -13.0454   20.9179 C   0  0  0  0  0  0
  -24.6396  -11.6908   20.8724 C   0  0  0  0  0  0
  -23.9048  -10.4306   21.0405 C   0  0  0  0  0  0
  -24.3609   -9.4223   21.9183 C   0  0  0  0  0  0
  -23.6298   -8.2252   22.0753 C   0  0  0  0  0  0
  -22.4281   -8.0290   21.3554 C   0  0  0  0  0  0
  -21.9911   -9.0250   20.4652 C   0  0  0  0  0  0
  -22.7221  -10.2130   20.3059 C   0  0  0  0  0  0
  -21.6846   -6.0745   22.5277 C   0  0  0  0  0  0
  -21.4016   -6.5649   23.8212 C   0  0  0  0  0  0
  -21.3659   -5.6801   24.9171 C   0  0  0  0  0  0
  -21.6044   -4.3065   24.7221 C   0  0  0  0  0  0
  -21.8815   -3.8158   23.4341 C   0  0  0  0  0  0
  -21.9199   -4.6977   22.3403 C   0  0  0  0  0  0
  -22.7857  -13.5238   21.1845 C   0  0  0  0  0  0
  -22.1668   -4.2165   21.0978 F   0  0  0  0  0  0
  -21.5616   -3.4544   25.7730 F   0  0  0  0  0  0
  -30.0224  -13.3273   20.4369 N   0  0  0  0  0  0
  -26.3003  -12.9363   20.3329 N   0  0  0  0  0  0
  -25.9326  -11.6511   20.5735 N   0  0  0  0  0  0
  -22.0511  -12.8232   22.0403 N   0  0  0  0  0  0
  -25.4304  -15.1911   20.4132 N   0  0  0  0  0  0
  -31.8506  -14.6436   20.1357 O   0  0  0  0  0  0
  -21.6639   -6.8893   21.4247 O   0  0  0  0  0  0
  -22.3537  -14.5547   20.6690 O   0  0  0  0  0  0
  -24.6187  -31.8643   23.2069 C   0  0  0  0  0  0
  -25.9069  -32.4802   23.8378 C   0  0  1  0  0  0
  -27.2313  -27.3892   20.1009 C   0  0  0  0  0  0
  -25.5904  -33.8600   24.2305 N   0  0  0  0  0  0
  -23.4081  -30.4900   21.5480 C   0  0  2  0  0  0
  -24.8494  -28.9458   20.1153 C   0  0  0  0  0  0
  -22.7428  -29.4669   22.4970 C   0  0  0  0  0  0
  -18.0294  -28.1380   22.8481 C   0  0  0  0  0  0
  -24.1489  -36.7309   23.2645 C   0  0  0  0  0  0
  -25.9405  -30.8165   21.3646 C   0  0  0  0  0  0
  -26.0121  -29.4484   20.7092 C   0  0  0  0  0  0
  -27.2023  -28.6791   20.6931 C   0  0  0  0  0  0
  -26.0417  -26.9036   19.5111 C   0  0  0  0  0  0
  -24.8608  -27.6742   19.5141 C   0  0  0  0  0  0
  -23.6170  -29.8225   20.1632 C   0  0  0  0  0  0
  -25.4109  -36.3102   24.0335 C   0  0  1  0  0  0
  -20.5884  -28.3681   23.1328 C   0  0  2  0  0  0
  -20.6781  -26.9414   22.5446 C   0  0  0  0  0  0
  -19.5776  -26.6377   21.5224 C   0  0  0  0  0  0
  -18.1950  -26.7915   22.1628 C   0  0  0  0  0  0
  -19.1532  -28.8848   23.2899 C   0  0  0  0  0  0
  -18.9452  -30.1458   23.8896 C   0  0  0  0  0  0
  -17.6455  -30.6588   24.0559 C   0  0  0  0  0  0
  -25.9034  -34.9468   23.5125 C   0  0  0  0  0  0
  -16.5347  -29.9095   23.6315 C   0  0  0  0  0  0
  -16.7276  -28.6503   23.0342 C   0  0  0  0  0  0
  -26.4481  -31.6596   25.0726 C   0  0  0  0  0  0
  -25.3743  -31.3699   26.1477 C   0  0  0  0  0  0
  -27.0322  -30.3036   24.6117 C   0  0  0  0  0  0
  -27.6050  -32.4328   25.7490 C   0  0  0  0  0  0
  -27.5580  -37.1811   24.8462 C   0  0  0  0  0  0
  -21.4151  -29.3058   22.3718 N   0  0  0  0  0  0
  -26.4291  -37.3788   23.9401 N   0  0  0  0  0  0
  -24.6748  -31.0729   22.0978 N   0  0  0  0  0  0
  -23.4176  -28.8203   23.3033 O   0  0  0  0  0  0
  -28.4206  -26.6716   20.1218 O   0  0  0  0  0  0
  -26.5613  -34.8928   22.4697 O   0  0  0  0  0  0
  -23.5380  -32.1416   23.7452 O   0  0  0  0  0  0
  -27.7446  -20.2726   21.5979 C   0  0  0  0  0  0
  -28.3798  -17.9539   22.0326 C   0  0  0  0  0  0
  -29.8005  -19.3779   20.6552 C   0  0  0  0  0  0
  -27.4839  -19.0301   22.2198 C   0  0  0  0  0  0
  -28.9012  -20.4696   20.8205 C   0  0  0  0  0  0
  -29.5408  -18.1066   21.2446 C   0  0  0  0  0  0
  -25.2688  -19.9837   23.1652 C   0  0  0  0  0  0
  -26.2658  -18.8150   23.1098 C   0  0  0  0  0  0
  -29.1096  -21.8436   20.1484 C   0  0  0  0  0  0
  -30.5420  -16.9443   21.0789 C   0  0  0  0  0  0
  -29.1482  -23.0716   21.1156 C   0  0  0  0  0  0
  -28.1566  -24.2617   20.8702 C   0  0  0  0  0  0
  -28.4990  -25.2740   19.7385 C   0  0  0  0  0  0
  -30.0048  -15.5632   21.0269 N   0  0  0  0  0  0
  -31.4620  -12.4028   19.1384 H   0  0  0  0  0  0
  -30.3038  -11.3161   19.8503 H   0  0  0  0  0  0
  -29.7440  -11.7785   17.4378 H   0  0  0  0  0  0
  -29.6653  -13.4922   17.7739 H   0  0  0  0  0  0
  -27.8220  -11.3139   18.8133 H   0  0  0  0  0  0
  -27.3735  -12.6475   17.7794 H   0  0  0  0  0  0
  -27.6866  -14.2611   19.5528 H   0  0  0  0  0  0
  -28.6757  -12.0057   21.3655 H   0  0  0  0  0  0
  -28.4576  -13.6620   21.8524 H   0  0  0  0  0  0
  -25.2755   -9.5684   22.4756 H   0  0  0  0  0  0
  -24.0007   -7.4634   22.7466 H   0  0  0  0  0  0
  -21.0842   -8.8767   19.8951 H   0  0  0  0  0  0
  -22.3694  -10.9669   19.6169 H   0  0  0  0  0  0
  -21.2012   -7.6158   23.9714 H   0  0  0  0  0  0
  -21.1483   -6.0533   25.9069 H   0  0  0  0  0  0
  -22.0600   -2.7625   23.2827 H   0  0  0  0  0  0
  -22.4122  -11.9879   22.4771 H   0  0  0  0  0  0
  -21.1141  -13.1257   22.2610 H   0  0  0  0  0  0
  -24.6610  -15.8450   20.5094 H   0  0  0  0  0  0
  -26.2859  -15.6301   20.0988 H   0  0  0  0  0  0
  -26.7140  -32.5493   23.1135 H   0  0  0  0  0  0
  -25.0034  -33.9753   25.0437 H   0  0  0  0  0  0
  -22.7002  -31.3093   21.4096 H   0  0  0  0  0  0
  -23.3744  -35.9653   23.3315 H   0  0  0  0  0  0
  -24.3573  -36.8915   22.2056 H   0  0  0  0  0  0
  -23.7248  -37.6516   23.6658 H   0  0  0  0  0  0
  -26.0665  -31.5810   20.5979 H   0  0  0  0  0  0
  -26.8246  -30.8618   21.9895 H   0  0  0  0  0  0
  -28.1028  -29.0660   21.1482 H   0  0  0  0  0  0
  -25.9955  -25.9302   19.0468 H   0  0  0  0  0  0
  -23.9623  -27.2794   19.0584 H   0  0  0  0  0  0
  -23.7342  -30.5989   19.4068 H   0  0  0  0  0  0
  -22.7368  -29.2524   19.8622 H   0  0  0  0  0  0
  -25.1293  -36.1967   25.0828 H   0  0  0  0  0  0
  -20.9965  -28.3261   24.1455 H   0  0  0  0  0  0
  -20.5698  -26.2284   23.3633 H   0  0  0  0  0  0
  -21.6666  -26.7470   22.1267 H   0  0  0  0  0  0
  -19.6955  -25.6288   21.1262 H   0  0  0  0  0  0
  -19.6690  -27.3184   20.6749 H   0  0  0  0  0  0
  -17.4230  -26.6658   21.4020 H   0  0  0  0  0  0
  -18.0350  -26.0044   22.9017 H   0  0  0  0  0  0
  -19.7912  -30.7287   24.2291 H   0  0  0  0  0  0
  -17.5008  -31.6278   24.5160 H   0  0  0  0  0  0
  -15.5348  -30.2997   23.7657 H   0  0  0  0  0  0
  -15.8676  -28.0831   22.7054 H   0  0  0  0  0  0
  -24.5890  -30.7076   25.7802 H   0  0  0  0  0  0
  -24.8975  -32.2858   26.4986 H   0  0  0  0  0  0
  -25.8100  -30.8813   27.0203 H   0  0  0  0  0  0
  -26.2867  -29.6779   24.1184 H   0  0  0  0  0  0
  -27.4101  -29.7293   25.4587 H   0  0  0  0  0  0
  -27.8709  -30.4349   23.9269 H   0  0  0  0  0  0
  -27.2642  -33.3598   26.2115 H   0  0  0  0  0  0
  -28.3828  -32.6929   25.0298 H   0  0  0  0  0  0
  -28.0754  -31.8427   26.5365 H   0  0  0  0  0  0
  -28.2610  -38.0103   24.7505 H   0  0  0  0  0  0
  -28.1068  -36.2627   24.6297 H   0  0  0  0  0  0
  -27.2296  -37.1473   25.8870 H   0  0  0  0  0  0
  -20.9310  -29.8765   21.6930 H   0  0  0  0  0  0
  -26.0183  -38.2870   24.1398 H   0  0  0  0  0  0
  -27.0620  -21.1025   21.7108 H   0  0  0  0  0  0
  -28.1765  -17.0112   22.5233 H   0  0  0  0  0  0
  -30.7008  -19.5096   20.0678 H   0  0  0  0  0  0
  -24.8596  -20.2033   22.1785 H   0  0  0  0  0  0
  -25.7365  -20.8888   23.5527 H   0  0  0  0  0  0
  -24.4323  -19.7526   23.8237 H   0  0  0  0  0  0
  -25.7522  -17.9175   22.7635 H   0  0  0  0  0  0
  -26.6172  -18.5958   24.1191 H   0  0  0  0  0  0
  -28.3108  -21.9797   19.4191 H   0  0  0  0  0  0
  -30.0331  -21.8169   19.5673 H   0  0  0  0  0  0
  -31.1342  -17.1329   20.1817 H   0  0  0  0  0  0
  -31.2437  -16.9869   21.9136 H   0  0  0  0  0  0
  -30.1675  -23.4576   21.1640 H   0  0  0  0  0  0
  -28.9608  -22.7110   22.1272 H   0  0  0  0  0  0
  -28.1214  -24.8306   21.7999 H   0  0  0  0  0  0
  -27.1423  -23.8850   20.7363 H   0  0  0  0  0  0
  -27.9292  -25.0544   18.8380 H   0  0  0  0  0  0
  -29.5365  -25.1137   19.4445 H   0  0  0  0  0  0
  -29.0458  -15.4173   21.3004 H   0  0  0  0  0  0
  1 25  1  0  0  0
  1 30  2  0  0  0
  1 84  1  0  0  0
  2  3  1  0  0  0
  2 25  1  0  0  0
  2 85  1  0  0  0
  2 86  1  0  0  0
  3  4  1  0  0  0
  3 87  1  0  0  0
  3 88  1  0  0  0
  4  5  1  0  0  0
  4 89  1  0  0  0
  4 90  1  0  0  0
  5  6  1  0  0  0
  5 26  1  0  0  0
  5 91  1  0  0  0
  6 25  1  0  0  0
  6 92  1  0  0  0
  6 93  1  0  0  0
  7  8  2  0  0  0
  7 26  1  0  0  0
  7 29  1  0  0  0
  8  9  1  0  0  0
  8 22  1  0  0  0
  9 10  1  0  0  0
  9 27  2  0  0  0
 10 11  2  0  0  0
 10 15  1  0  0  0
 11 12  1  0  0  0
 11 94  1  0  0  0
 12 13  2  0  0  0
 12 95  1  0  0  0
 13 14  1  0  0  0
 13 31  1  0  0  0
 14 15  2  0  0  0
 14 96  1  0  0  0
 15 97  1  0  0  0
 16 17  2  0  0  0
 16 21  1  0  0  0
 16 31  1  0  0  0
 17 18  1  0  0  0
 17 98  1  0  0  0
 18 19  2  0  0  0
 18 99  1  0  0  0
 19 20  1  0  0  0
 19 24  1  0  0  0
 20 21  2  0  0  0
 20100  1  0  0  0
 21 23  1  0  0  0
 22 28  1  0  0  0
 22 32  2  0  0  0
 26 27  1  0  0  0
 28101  1  0  0  0
 28102  1  0  0  0
 29103  1  0  0  0
 29104  1  0  0  0
 33 34  1  0  0  0
 33 66  1  0  0  0
 33 70  2  0  0  0
 34 36  1  0  0  0
 34 59  1  0  0  0
 34105  1  0  0  0
 35 44  2  0  0  0
 35 45  1  0  0  0
 35 68  1  0  0  0
 36 56  1  0  0  0
 36106  1  0  0  0
 37 39  1  0  0  0
 37 47  1  0  0  0
 37 66  1  0  0  0
 37107  1  0  0  0
 38 43  2  0  0  0
 38 46  1  0  0  0
 38 47  1  0  0  0
 39 64  1  0  0  0
 39 67  2  0  0  0
 40 52  1  0  0  0
 40 53  2  0  0  0
 40 58  1  0  0  0
 41108  1  0  0  0
 41109  1  0  0  0
 41110  1  0  0  0
 41 48  1  0  0  0
 42 43  1  0  0  0
 42 66  1  0  0  0
 42111  1  0  0  0
 42112  1  0  0  0
 43 44  1  0  0  0
 44113  1  0  0  0
 45 46  2  0  0  0
 45114  1  0  0  0
 46115  1  0  0  0
 47116  1  0  0  0
 47117  1  0  0  0
 48 56  1  0  0  0
 48 65  1  0  0  0
 48118  1  0  0  0
 49 50  1  0  0  0
 49 53  1  0  0  0
 49 64  1  0  0  0
 49119  1  0  0  0
 50 51  1  0  0  0
 50120  1  0  0  0
 50121  1  0  0  0
 51 52  1  0  0  0
 51122  1  0  0  0
 51123  1  0  0  0
 52124  1  0  0  0
 52125  1  0  0  0
 53 54  1  0  0  0
 54 55  2  0  0  0
 54126  1  0  0  0
 55 57  1  0  0  0
 55127  1  0  0  0
 56 69  2  0  0  0
 57 58  2  0  0  0
 57128  1  0  0  0
 58129  1  0  0  0
 59 60  1  0  0  0
 59 61  1  0  0  0
 59 62  1  0  0  0
 60130  1  0  0  0
 60131  1  0  0  0
 60132  1  0  0  0
 61133  1  0  0  0
 61134  1  0  0  0
 61135  1  0  0  0
 62136  1  0  0  0
 62137  1  0  0  0
 62138  1  0  0  0
 63 65  1  0  0  0
 63139  1  0  0  0
 63140  1  0  0  0
 63141  1  0  0  0
 64142  1  0  0  0
 65143  1  0  0  0
 68 83  1  0  0  0
 71 74  2  0  0  0
 71 75  1  0  0  0
 71144  1  0  0  0
 72 74  1  0  0  0
 72 76  2  0  0  0
 72145  1  0  0  0
 73 75  2  0  0  0
 73 76  1  0  0  0
 73146  1  0  0  0
 74 78  1  0  0  0
 75 79  1  0  0  0
 76 80  1  0  0  0
 77 78  1  0  0  0
 77147  1  0  0  0
 77148  1  0  0  0
 77149  1  0  0  0
 78150  1  0  0  0
 78151  1  0  0  0
 79 81  1  0  0  0
 79152  1  0  0  0
 79153  1  0  0  0
 80 84  1  0  0  0
 80154  1  0  0  0
 80155  1  0  0  0
 81 82  1  0  0  0
 81156  1  0  0  0
 81157  1  0  0  0
 82 83  1  0  0  0
 82158  1  0  0  0
 82159  1  0  0  0
 83160  1  0  0  0
 83161  1  0  0  0
 84162  1  0  0  0
M  ISO  4   1 100  68 101  83 101  84 100
M  END
> <chiral flag>
0

> <version>
0

> <s_m_source_file>
/data/baiqing/PycharmProjects/Reinvent-master-3.2/result/LINK_invent/BTK/process_docking_weight1_custom_sum_contain_oxygen_bond_distance_aromatic_linkinvent_7_9_3/rearranged_h_0034.sdf

> <i_m_source_file_index>
19

> <r_mmod_Potential_Energy-OPLS-2005>
-72.8859100341797

> <r_mmod_Stretch_Energy-OPLS-2005>
46.7884330749512

> <r_mmod_Bend_Energy-OPLS-2005>
116.422737121582

> <r_mmod_Torsional_Energy-OPLS-2005>
212.302230834961

> <r_mmod_Improper_Torsional_Energy-OPLS-2005>
3.59394860267639

> <r_mmod_Van_der_Waal_Energy-OPLS-2005>
146.136169433594

> <r_mmod_Electrostatic_Energy-OPLS-2005>
-420.803192138672

> <r_mmod_Solvation_Energy-OPLS-2005>
-196.251861572266

> <b_mmod_Minimization_Converged-OPLS-2005>
0

> <r_mmod_RMS_Derivative-OPLS-2005>
3.26798415184021

$$$$
20
                    3D
 Structure written by MMmdl.
158166  0  0  1  0            999 V2000
  -30.6616  -14.6249   20.5263 C   0  0  0  0  0  0
  -30.4258  -12.3902   19.4531 C   0  0  0  0  0  0
  -29.5065  -12.4986   18.2211 C   0  0  0  0  0  0
  -28.0319  -12.3304   18.6342 C   0  0  0  0  0  0
  -27.6465  -13.2088   19.8532 C   0  0  2  0  0  0
  -28.6916  -13.0950   20.9852 C   0  0  0  0  0  0
  -25.2542  -13.8136   20.5717 C   0  0  0  0  0  0
  -24.1825  -13.0383   20.9179 C   0  0  0  0  0  0
  -24.6392  -11.6846   20.8708 C   0  0  0  0  0  0
  -23.9084  -10.4214   21.0359 C   0  0  0  0  0  0
  -24.3619   -9.4164   21.9155 C   0  0  0  0  0  0
  -23.6273   -8.2211   22.0740 C   0  0  0  0  0  0
  -22.4272   -8.0232   21.3509 C   0  0  0  0  0  0
  -21.9893   -9.0219   20.4613 C   0  0  0  0  0  0
  -22.7237  -10.2089   20.3018 C   0  0  0  0  0  0
  -21.6849   -6.0718   22.5279 C   0  0  0  0  0  0
  -21.4024   -6.5625   23.8205 C   0  0  0  0  0  0
  -21.3659   -5.6774   24.9172 C   0  0  0  0  0  0
  -21.6049   -4.3043   24.7221 C   0  0  0  0  0  0
  -21.8797   -3.8130   23.4334 C   0  0  0  0  0  0
  -21.9174   -4.6939   22.3399 C   0  0  0  0  0  0
  -22.7846  -13.5169   21.1790 C   0  0  0  0  0  0
  -22.1642   -4.2139   21.0964 F   0  0  0  0  0  0
  -21.5641   -3.4516   25.7722 F   0  0  0  0  0  0
  -30.0020  -13.4291   20.4154 N   0  0  0  0  0  0
  -26.2936  -12.9313   20.3266 N   0  0  0  0  0  0
  -25.9305  -11.6473   20.5697 N   0  0  0  0  0  0
  -22.0488  -12.8235   22.0391 N   0  0  0  0  0  0
  -25.4186  -15.1869   20.4168 N   0  0  0  0  0  0
  -31.8281  -14.7373   20.1413 O   0  0  0  0  0  0
  -21.6606   -6.8858   21.4233 O   0  0  0  0  0  0
  -22.3528  -14.5436   20.6571 O   0  0  0  0  0  0
  -24.6227  -31.8612   23.2035 C   0  0  0  0  0  0
  -25.9059  -32.4795   23.8379 C   0  0  1  0  0  0
  -27.2054  -27.3237   20.1234 C   0  0  0  0  0  0
  -25.5866  -33.8601   24.2287 N   0  0  0  0  0  0
  -23.4158  -30.4874   21.5464 C   0  0  2  0  0  0
  -24.8591  -28.9435   20.1070 C   0  0  0  0  0  0
  -22.7392  -29.4686   22.4936 C   0  0  0  0  0  0
  -18.0240  -28.1353   22.8428 C   0  0  0  0  0  0
  -24.1470  -36.7284   23.2644 C   0  0  0  0  0  0
  -25.9566  -30.7972   21.3694 C   0  0  0  0  0  0
  -26.0291  -29.4256   20.7111 C   0  0  0  0  0  0
  -27.2126  -28.6286   20.7012 C   0  0  0  0  0  0
  -26.0261  -26.9039   19.4752 C   0  0  0  0  0  0
  -24.8633  -27.6907   19.4689 C   0  0  0  0  0  0
  -23.6242  -29.8182   20.1623 C   0  0  0  0  0  0
  -25.4098  -36.3096   24.0328 C   0  0  1  0  0  0
  -20.5847  -28.3646   23.1089 C   0  0  2  0  0  0
  -20.6763  -26.9419   22.5103 C   0  0  0  0  0  0
  -19.5529  -26.6158   21.5209 C   0  0  0  0  0  0
  -18.1773  -26.7847   22.1664 C   0  0  0  0  0  0
  -19.1496  -28.8817   23.2742 C   0  0  0  0  0  0
  -18.9489  -30.1423   23.8721 C   0  0  0  0  0  0
  -17.6518  -30.6615   24.0416 C   0  0  0  0  0  0
  -25.9025  -34.9458   23.5111 C   0  0  0  0  0  0
  -16.5364  -29.9121   23.6252 C   0  0  0  0  0  0
  -16.7222  -28.6573   23.0222 C   0  0  0  0  0  0
  -26.4433  -31.6612   25.0761 C   0  0  0  0  0  0
  -25.3646  -31.3741   26.1472 C   0  0  0  0  0  0
  -27.0279  -30.3051   24.6169 C   0  0  0  0  0  0
  -27.5982  -32.4339   25.7531 C   0  0  0  0  0  0
  -27.5562  -37.1818   24.8474 C   0  0  0  0  0  0
  -21.4135  -29.3050   22.3554 N   0  0  0  0  0  0
  -26.4284  -37.3789   23.9408 N   0  0  0  0  0  0
  -24.6852  -31.0656   22.0968 N   0  0  0  0  0  0
  -23.4096  -28.8345   23.3150 O   0  0  0  0  0  0
  -28.2814  -26.4313   20.1744 O   0  0  0  0  0  0
  -26.5649  -34.8912   22.4708 O   0  0  0  0  0  0
  -23.5393  -32.1374   23.7409 O   0  0  0  0  0  0
  -28.1202  -20.3313   19.4517 C   0  0  0  0  0  0
  -29.4195  -20.1310   21.4426 C   0  0  0  0  0  0
  -28.6284  -20.9681   20.6043 C   0  0  0  0  0  0
  -28.3559  -18.9453   19.2248 C   0  0  0  0  0  0
  -29.1069  -18.1762   20.1632 C   0  0  0  0  0  0
  -27.7545  -18.3197   17.9691 C   0  0  0  0  0  0
  -26.6549  -22.3426   21.3800 C   0  0  0  0  0  0
  -29.2769  -16.6253   19.9589 C   0  0  0  0  0  0
  -28.5025  -23.7254   20.1977 C   0  0  0  0  0  0
  -27.9983  -25.1179   20.8081 C   0  0  0  0  0  0
  -28.1656  -22.4102   21.0613 C   0  0  2  0  0  0
  -29.6500  -18.7919   21.2419 N   0  0  0  0  0  0
  -29.9744  -15.7314   20.9318 N   0  0  0  0  0  0
  -31.4707  -12.4919   19.1517 H   0  0  0  0  0  0
  -30.3526  -11.4010   19.9085 H   0  0  0  0  0  0
  -29.7808  -11.7460   17.4770 H   0  0  0  0  0  0
  -29.6460  -13.4675   17.7364 H   0  0  0  0  0  0
  -27.8821  -11.2790   18.8808 H   0  0  0  0  0  0
  -27.3737  -12.5492   17.7904 H   0  0  0  0  0  0
  -27.6445  -14.2268   19.4881 H   0  0  0  0  0  0
  -28.6990  -12.0825   21.3899 H   0  0  0  0  0  0
  -28.4385  -13.7501   21.8197 H   0  0  0  0  0  0
  -25.2752   -9.5652   22.4757 H   0  0  0  0  0  0
  -23.9937   -7.4631   22.7513 H   0  0  0  0  0  0
  -21.0808   -8.8747   19.8967 H   0  0  0  0  0  0
  -22.3671  -10.9625   19.6154 H   0  0  0  0  0  0
  -21.2044   -7.6132   23.9708 H   0  0  0  0  0  0
  -21.1511   -6.0513   25.9081 H   0  0  0  0  0  0
  -22.0588   -2.7584   23.2828 H   0  0  0  0  0  0
  -22.4029  -11.9896   22.4856 H   0  0  0  0  0  0
  -21.1113  -13.1307   22.2510 H   0  0  0  0  0  0
  -24.6360  -15.8191   20.5316 H   0  0  0  0  0  0
  -26.2706  -15.6523   20.1401 H   0  0  0  0  0  0
  -26.7093  -32.5474   23.1088 H   0  0  0  0  0  0
  -24.9911  -33.9746   25.0354 H   0  0  0  0  0  0
  -22.7141  -31.3122   21.4070 H   0  0  0  0  0  0
  -23.3724  -35.9633   23.3341 H   0  0  0  0  0  0
  -24.3532  -36.8876   22.2058 H   0  0  0  0  0  0
  -23.7241  -37.6489   23.6647 H   0  0  0  0  0  0
  -26.0832  -31.5674   20.6070 H   0  0  0  0  0  0
  -26.8377  -30.8437   21.9970 H   0  0  0  0  0  0
  -28.1111  -28.9941   21.1748 H   0  0  0  0  0  0
  -25.9981  -25.9369   18.9908 H   0  0  0  0  0  0
  -23.9727  -27.3286   18.9718 H   0  0  0  0  0  0
  -23.7306  -30.5902   19.4006 H   0  0  0  0  0  0
  -22.7451  -29.2419   19.8670 H   0  0  0  0  0  0
  -25.1294  -36.1941   25.0831 H   0  0  0  0  0  0
  -20.9903  -28.3186   24.1235 H   0  0  0  0  0  0
  -20.6173  -26.2251   23.3270 H   0  0  0  0  0  0
  -21.6451  -26.7660   22.0375 H   0  0  0  0  0  0
  -19.6528  -25.5918   21.1626 H   0  0  0  0  0  0
  -19.6390  -27.2680   20.6508 H   0  0  0  0  0  0
  -17.3988  -26.6627   21.4121 H   0  0  0  0  0  0
  -18.0123  -25.9967   22.9047 H   0  0  0  0  0  0
  -19.7930  -30.7277   24.2097 H   0  0  0  0  0  0
  -17.5122  -31.6290   24.5019 H   0  0  0  0  0  0
  -15.5398  -30.3120   23.7578 H   0  0  0  0  0  0
  -15.8590  -28.0975   22.6888 H   0  0  0  0  0  0
  -24.5797  -30.7107   25.7797 H   0  0  0  0  0  0
  -24.8839  -32.2914   26.4901 H   0  0  0  0  0  0
  -25.7961  -30.8911   27.0249 H   0  0  0  0  0  0
  -26.2891  -29.6834   24.1096 H   0  0  0  0  0  0
  -27.3882  -29.7256   25.4678 H   0  0  0  0  0  0
  -27.8775  -30.4342   23.9456 H   0  0  0  0  0  0
  -27.2563  -33.3611   26.2111 H   0  0  0  0  0  0
  -28.3793  -32.6932   25.0387 H   0  0  0  0  0  0
  -28.0602  -31.8454   26.5447 H   0  0  0  0  0  0
  -28.2635  -38.0069   24.7507 H   0  0  0  0  0  0
  -28.1017  -36.2616   24.6339 H   0  0  0  0  0  0
  -27.2280  -37.1515   25.8879 H   0  0  0  0  0  0
  -20.9383  -29.8568   21.6540 H   0  0  0  0  0  0
  -26.0154  -38.2858   24.1410 H   0  0  0  0  0  0
  -27.5028  -20.8859   18.7623 H   0  0  0  0  0  0
  -29.8390  -20.5288   22.3560 H   0  0  0  0  0  0
  -27.7436  -19.0340   17.1439 H   0  0  0  0  0  0
  -26.7237  -18.0024   18.1437 H   0  0  0  0  0  0
  -28.3228  -17.4647   17.6053 H   0  0  0  0  0  0
  -26.3934  -21.4094   21.8844 H   0  0  0  0  0  0
  -26.0499  -22.4145   20.4745 H   0  0  0  0  0  0
  -26.3409  -23.1516   22.0410 H   0  0  0  0  0  0
  -29.7583  -16.4958   18.9866 H   0  0  0  0  0  0
  -28.2643  -16.2404   19.8589 H   0  0  0  0  0  0
  -29.5848  -23.7856   20.0874 H   0  0  0  0  0  0
  -28.0958  -23.6138   19.1932 H   0  0  0  0  0  0
  -28.4121  -25.1765   21.8157 H   0  0  0  0  0  0
  -26.9277  -25.0246   20.9775 H   0  0  0  0  0  0
  -28.6619  -22.5629   22.0209 H   0  0  0  0  0  0
  -30.5554  -16.3152   21.5191 H   0  0  0  0  0  0
  1 25  1  0  0  0
  1 30  2  0  0  0
  1 83  1  0  0  0
  2  3  1  0  0  0
  2 25  1  0  0  0
  2 84  1  0  0  0
  2 85  1  0  0  0
  3  4  1  0  0  0
  3 86  1  0  0  0
  3 87  1  0  0  0
  4  5  1  0  0  0
  4 88  1  0  0  0
  4 89  1  0  0  0
  5  6  1  0  0  0
  5 26  1  0  0  0
  5 90  1  0  0  0
  6 25  1  0  0  0
  6 91  1  0  0  0
  6 92  1  0  0  0
  7  8  2  0  0  0
  7 26  1  0  0  0
  7 29  1  0  0  0
  8  9  1  0  0  0
  8 22  1  0  0  0
  9 10  1  0  0  0
  9 27  2  0  0  0
 10 11  2  0  0  0
 10 15  1  0  0  0
 11 12  1  0  0  0
 11 93  1  0  0  0
 12 13  2  0  0  0
 12 94  1  0  0  0
 13 14  1  0  0  0
 13 31  1  0  0  0
 14 15  2  0  0  0
 14 95  1  0  0  0
 15 96  1  0  0  0
 16 17  2  0  0  0
 16 21  1  0  0  0
 16 31  1  0  0  0
 17 18  1  0  0  0
 17 97  1  0  0  0
 18 19  2  0  0  0
 18 98  1  0  0  0
 19 20  1  0  0  0
 19 24  1  0  0  0
 20 21  2  0  0  0
 20 99  1  0  0  0
 21 23  1  0  0  0
 22 28  1  0  0  0
 22 32  2  0  0  0
 26 27  1  0  0  0
 28100  1  0  0  0
 28101  1  0  0  0
 29102  1  0  0  0
 29103  1  0  0  0
 33 34  1  0  0  0
 33 66  1  0  0  0
 33 70  2  0  0  0
 34 36  1  0  0  0
 34 59  1  0  0  0
 34104  1  0  0  0
 35 44  2  0  0  0
 35 45  1  0  0  0
 35 68  1  0  0  0
 36 56  1  0  0  0
 36105  1  0  0  0
 37 39  1  0  0  0
 37 47  1  0  0  0
 37 66  1  0  0  0
 37106  1  0  0  0
 38 43  2  0  0  0
 38 46  1  0  0  0
 38 47  1  0  0  0
 39 64  1  0  0  0
 39 67  2  0  0  0
 40 52  1  0  0  0
 40 53  2  0  0  0
 40 58  1  0  0  0
 41107  1  0  0  0
 41108  1  0  0  0
 41109  1  0  0  0
 41 48  1  0  0  0
 42 43  1  0  0  0
 42 66  1  0  0  0
 42110  1  0  0  0
 42111  1  0  0  0
 43 44  1  0  0  0
 44112  1  0  0  0
 45 46  2  0  0  0
 45113  1  0  0  0
 46114  1  0  0  0
 47115  1  0  0  0
 47116  1  0  0  0
 48 56  1  0  0  0
 48 65  1  0  0  0
 48117  1  0  0  0
 49 50  1  0  0  0
 49 53  1  0  0  0
 49 64  1  0  0  0
 49118  1  0  0  0
 50 51  1  0  0  0
 50119  1  0  0  0
 50120  1  0  0  0
 51 52  1  0  0  0
 51121  1  0  0  0
 51122  1  0  0  0
 52123  1  0  0  0
 52124  1  0  0  0
 53 54  1  0  0  0
 54 55  2  0  0  0
 54125  1  0  0  0
 55 57  1  0  0  0
 55126  1  0  0  0
 56 69  2  0  0  0
 57 58  2  0  0  0
 57127  1  0  0  0
 58128  1  0  0  0
 59 60  1  0  0  0
 59 61  1  0  0  0
 59 62  1  0  0  0
 60129  1  0  0  0
 60130  1  0  0  0
 60131  1  0  0  0
 61132  1  0  0  0
 61133  1  0  0  0
 61134  1  0  0  0
 62135  1  0  0  0
 62136  1  0  0  0
 62137  1  0  0  0
 63 65  1  0  0  0
 63138  1  0  0  0
 63139  1  0  0  0
 63140  1  0  0  0
 64141  1  0  0  0
 65142  1  0  0  0
 68 80  1  0  0  0
 71 73  2  0  0  0
 71 74  1  0  0  0
 71143  1  0  0  0
 72 73  1  0  0  0
 72 82  2  0  0  0
 72144  1  0  0  0
 73 81  1  0  0  0
 74 75  2  0  0  0
 74 76  1  0  0  0
 75 78  1  0  0  0
 75 82  1  0  0  0
 76145  1  0  0  0
 76146  1  0  0  0
 76147  1  0  0  0
 77148  1  0  0  0
 77149  1  0  0  0
 77150  1  0  0  0
 77 81  1  0  0  0
 78 83  1  0  0  0
 78151  1  0  0  0
 78152  1  0  0  0
 79 80  1  0  0  0
 79 81  1  0  0  0
 79153  1  0  0  0
 79154  1  0  0  0
 80155  1  0  0  0
 80156  1  0  0  0
 81157  1  0  0  0
 83158  1  0  0  0
M  ISO  4   1 100  68 101  80 101  83 100
M  END
> <chiral flag>
0

> <version>
0

> <s_m_source_file>
/data/baiqing/PycharmProjects/Reinvent-master-3.2/result/LINK_invent/BTK/process_docking_weight1_custom_sum_contain_oxygen_bond_distance_aromatic_linkinvent_7_9_3/rearranged_h_0034.sdf

> <i_m_source_file_index>
20

> <r_mmod_Potential_Energy-OPLS-2005>
-103.327896118164

> <r_mmod_Stretch_Energy-OPLS-2005>
80.8840560913086

> <r_mmod_Bend_Energy-OPLS-2005>
155.694595336914

> <r_mmod_Torsional_Energy-OPLS-2005>
291.487609863281

> <r_mmod_Improper_Torsional_Energy-OPLS-2005>
9.40437698364258

> <r_mmod_Van_der_Waal_Energy-OPLS-2005>
142.397323608398

> <r_mmod_Electrostatic_Energy-OPLS-2005>
-617.81201171875

> <r_mmod_Solvation_Energy-OPLS-2005>
-215.601531982422

> <b_mmod_Minimization_Converged-OPLS-2005>
0

> <r_mmod_RMS_Derivative-OPLS-2005>
7.0780086517334

$$$$
21
                    3D
 Structure written by MMmdl.
168176  0  0  1  0            999 V2000
  -30.7087  -14.4103   20.5674 C   0  0  0  0  0  0
  -30.4186  -12.2598   19.4303 C   0  0  0  0  0  0
  -29.5026  -12.4966   18.2118 C   0  0  0  0  0  0
  -28.0190  -12.3712   18.6134 C   0  0  0  0  0  0
  -27.6660  -13.2011   19.8782 C   0  0  2  0  0  0
  -28.7001  -12.9592   21.0029 C   0  0  0  0  0  0
  -25.2602  -13.8149   20.5645 C   0  0  0  0  0  0
  -24.1842  -13.0437   20.9139 C   0  0  0  0  0  0
  -24.6390  -11.6897   20.8709 C   0  0  0  0  0  0
  -23.9056  -10.4290   21.0396 C   0  0  0  0  0  0
  -24.3619   -9.4208   21.9181 C   0  0  0  0  0  0
  -23.6290   -8.2246   22.0753 C   0  0  0  0  0  0
  -22.4265   -8.0284   21.3550 C   0  0  0  0  0  0
  -21.9905   -9.0249   20.4647 C   0  0  0  0  0  0
  -22.7230  -10.2127   20.3050 C   0  0  0  0  0  0
  -21.6852   -6.0733   22.5278 C   0  0  0  0  0  0
  -21.4020   -6.5636   23.8207 C   0  0  0  0  0  0
  -21.3657   -5.6792   24.9170 C   0  0  0  0  0  0
  -21.6044   -4.3053   24.7226 C   0  0  0  0  0  0
  -21.8820   -3.8143   23.4345 C   0  0  0  0  0  0
  -21.9193   -4.6961   22.3402 C   0  0  0  0  0  0
  -22.7872  -13.5240   21.1820 C   0  0  0  0  0  0
  -22.1662   -4.2143   21.0980 F   0  0  0  0  0  0
  -21.5628   -3.4539   25.7742 F   0  0  0  0  0  0
  -30.0411  -13.2350   20.4607 N   0  0  0  0  0  0
  -26.3033  -12.9313   20.3340 N   0  0  0  0  0  0
  -25.9322  -11.6477   20.5743 N   0  0  0  0  0  0
  -22.0528  -12.8224   22.0382 N   0  0  0  0  0  0
  -25.4351  -15.1870   20.4079 N   0  0  0  0  0  0
  -31.8378  -14.5974   20.1067 O   0  0  0  0  0  0
  -21.6631   -6.8877   21.4238 O   0  0  0  0  0  0
  -22.3550  -14.5556   20.6685 O   0  0  0  0  0  0
  -24.6112  -31.8722   23.2138 C   0  0  0  0  0  0
  -25.9038  -32.4826   23.8394 C   0  0  1  0  0  0
  -27.2358  -27.4727   20.0824 C   0  0  0  0  0  0
  -25.5929  -33.8627   24.2326 N   0  0  0  0  0  0
  -23.3945  -30.4996   21.5535 C   0  0  2  0  0  0
  -24.8359  -28.9678   20.1200 C   0  0  0  0  0  0
  -22.7372  -29.4700   22.5004 C   0  0  0  0  0  0
  -18.0270  -28.1349   22.8505 C   0  0  0  0  0  0
  -24.1495  -36.7324   23.2632 C   0  0  0  0  0  0
  -25.9209  -30.8467   21.3626 C   0  0  0  0  0  0
  -25.9954  -29.4846   20.7093 C   0  0  0  0  0  0
  -27.1935  -28.7427   20.6914 C   0  0  0  0  0  0
  -26.0462  -26.9474   19.5210 C   0  0  0  0  0  0
  -24.8520  -27.6916   19.5329 C   0  0  0  0  0  0
  -23.5999  -29.8352   20.1662 C   0  0  0  0  0  0
  -25.4119  -36.3117   24.0323 C   0  0  1  0  0  0
  -20.5862  -28.3644   23.1326 C   0  0  2  0  0  0
  -20.6777  -26.9381   22.5423 C   0  0  0  0  0  0
  -19.5748  -26.6363   21.5225 C   0  0  0  0  0  0
  -18.1922  -26.7899   22.1619 C   0  0  0  0  0  0
  -19.1520  -28.8806   23.2919 C   0  0  0  0  0  0
  -18.9447  -30.1417   23.8914 C   0  0  0  0  0  0
  -17.6457  -30.6568   24.0563 C   0  0  0  0  0  0
  -25.9042  -34.9478   23.5114 C   0  0  0  0  0  0
  -16.5346  -29.9074   23.6330 C   0  0  0  0  0  0
  -16.7262  -28.6489   23.0359 C   0  0  0  0  0  0
  -26.4486  -31.6596   25.0707 C   0  0  0  0  0  0
  -25.3757  -31.3711   26.1460 C   0  0  0  0  0  0
  -27.0329  -30.3037   24.6089 C   0  0  0  0  0  0
  -27.6047  -32.4334   25.7468 C   0  0  0  0  0  0
  -27.5586  -37.1813   24.8458 C   0  0  0  0  0  0
  -21.4105  -29.3023   22.3724 N   0  0  0  0  0  0
  -26.4310  -37.3796   23.9392 N   0  0  0  0  0  0
  -24.6596  -31.0863   22.1015 N   0  0  0  0  0  0
  -23.4166  -28.8243   23.3035 O   0  0  0  0  0  0
  -28.4471  -26.8152   20.0687 O   0  0  0  0  0  0
  -26.5578  -34.8915   22.4665 O   0  0  0  0  0  0
  -23.5322  -32.1478   23.7559 O   0  0  0  0  0  0
  -28.1028  -23.4922   17.0263 C   0  0  0  0  0  0
  -28.8321  -24.7091   16.9629 C   0  0  0  0  0  0
  -28.7587  -22.6546   16.1728 C   0  0  0  0  0  0
  -30.7821  -22.9914   14.6248 C   0  0  0  0  0  0
  -28.6068  -25.9512   17.7722 C   0  0  0  0  0  0
  -28.5112  -21.2064   15.9034 C   0  0  0  0  0  0
  -29.5567  -20.3155   16.5851 C   0  0  0  0  0  0
  -29.2904  -18.8157   16.3975 C   0  0  0  0  0  0
  -30.4798  -17.9440   16.8284 C   0  0  0  0  0  0
  -30.7646  -17.9248   18.3425 C   0  0  0  0  0  0
  -29.7725  -17.0598   19.1337 C   0  0  0  0  0  0
  -30.2084  -16.8218   20.5994 C   0  0  0  0  0  0
  -28.5989  -25.6378   19.2823 C   0  0  0  0  0  0
  -29.8326  -24.6452   16.0975 N   0  0  0  0  0  0
  -29.7863  -23.3891   15.6022 N   0  0  0  0  0  0
  -29.9569  -15.4359   20.9884 N   0  0  0  0  0  0
  -31.4689  -12.3392   19.1425 H   0  0  0  0  0  0
  -30.2907  -11.2463   19.8141 H   0  0  0  0  0  0
  -29.7393  -11.7844   17.4197 H   0  0  0  0  0  0
  -29.6892  -13.4897   17.7995 H   0  0  0  0  0  0
  -27.8135  -11.3152   18.7927 H   0  0  0  0  0  0
  -27.3799  -12.6665   17.7806 H   0  0  0  0  0  0
  -27.7168  -14.2514   19.5914 H   0  0  0  0  0  0
  -28.6523  -11.9237   21.3435 H   0  0  0  0  0  0
  -28.4710  -13.5627   21.8827 H   0  0  0  0  0  0
  -25.2780   -9.5668   22.4730 H   0  0  0  0  0  0
  -23.9996   -7.4638   22.7472 H   0  0  0  0  0  0
  -21.0833   -8.8762   19.8960 H   0  0  0  0  0  0
  -22.3701  -10.9652   19.6137 H   0  0  0  0  0  0
  -21.2014   -7.6145   23.9705 H   0  0  0  0  0  0
  -21.1480   -6.0527   25.9071 H   0  0  0  0  0  0
  -22.0604   -2.7607   23.2847 H   0  0  0  0  0  0
  -22.4177  -11.9879   22.4736 H   0  0  0  0  0  0
  -21.1156  -13.1237   22.2635 H   0  0  0  0  0  0
  -24.6716  -15.8454   20.5178 H   0  0  0  0  0  0
  -26.2926  -15.6245   20.0941 H   0  0  0  0  0  0
  -26.7093  -32.5527   23.1136 H   0  0  0  0  0  0
  -25.0157  -33.9798   25.0523 H   0  0  0  0  0  0
  -22.6816  -31.3153   21.4190 H   0  0  0  0  0  0
  -23.3750  -35.9669   23.3319 H   0  0  0  0  0  0
  -24.3602  -36.8918   22.2046 H   0  0  0  0  0  0
  -23.7247  -37.6531   23.6650 H   0  0  0  0  0  0
  -26.0396  -31.6195   20.6026 H   0  0  0  0  0  0
  -26.8065  -30.8873   21.9847 H   0  0  0  0  0  0
  -28.0930  -29.1482   21.1341 H   0  0  0  0  0  0
  -26.0150  -25.9704   19.0637 H   0  0  0  0  0  0
  -23.9554  -27.2773   19.0934 H   0  0  0  0  0  0
  -23.7074  -30.6113   19.4065 H   0  0  0  0  0  0
  -22.7227  -29.2586   19.8687 H   0  0  0  0  0  0
  -25.1302  -36.1999   25.0818 H   0  0  0  0  0  0
  -20.9971  -28.3213   24.1441 H   0  0  0  0  0  0
  -20.5726  -26.2236   23.3604 H   0  0  0  0  0  0
  -21.6645  -26.7462   22.1184 H   0  0  0  0  0  0
  -19.6919  -25.6288   21.1227 H   0  0  0  0  0  0
  -19.6677  -27.3198   20.6777 H   0  0  0  0  0  0
  -17.4209  -26.6661   21.4006 H   0  0  0  0  0  0
  -18.0302  -26.0017   22.8982 H   0  0  0  0  0  0
  -19.7931  -30.7227   24.2278 H   0  0  0  0  0  0
  -17.5022  -31.6263   24.5136 H   0  0  0  0  0  0
  -15.5352  -30.2987   23.7649 H   0  0  0  0  0  0
  -15.8655  -28.0826   22.7059 H   0  0  0  0  0  0
  -24.5897  -30.7096   25.7800 H   0  0  0  0  0  0
  -24.9000  -32.2877   26.4953 H   0  0  0  0  0  0
  -25.8100  -30.8829   27.0187 H   0  0  0  0  0  0
  -26.2860  -29.6760   24.1206 H   0  0  0  0  0  0
  -27.4156  -29.7329   25.4561 H   0  0  0  0  0  0
  -27.8681  -30.4356   23.9203 H   0  0  0  0  0  0
  -27.2641  -33.3606   26.2102 H   0  0  0  0  0  0
  -28.3830  -32.6941   25.0280 H   0  0  0  0  0  0
  -28.0760  -31.8434   26.5337 H   0  0  0  0  0  0
  -28.2613  -38.0104   24.7535 H   0  0  0  0  0  0
  -28.1058  -36.2628   24.6276 H   0  0  0  0  0  0
  -27.2299  -37.1485   25.8858 H   0  0  0  0  0  0
  -20.9232  -29.8721   21.6946 H   0  0  0  0  0  0
  -26.0193  -38.2874   24.1390 H   0  0  0  0  0  0
  -27.2487  -23.2561   17.6462 H   0  0  0  0  0  0
  -30.4391  -22.1285   14.0560 H   0  0  0  0  0  0
  -31.7123  -22.7340   15.1314 H   0  0  0  0  0  0
  -30.9728  -23.8061   13.9245 H   0  0  0  0  0  0
  -27.6693  -26.4095   17.4649 H   0  0  0  0  0  0
  -29.3788  -26.6929   17.5617 H   0  0  0  0  0  0
  -28.4970  -21.0229   14.8294 H   0  0  0  0  0  0
  -27.5164  -20.9423   16.2654 H   0  0  0  0  0  0
  -29.5830  -20.5529   17.6495 H   0  0  0  0  0  0
  -30.5422  -20.5663   16.1909 H   0  0  0  0  0  0
  -29.0956  -18.6252   15.3412 H   0  0  0  0  0  0
  -28.3846  -18.5221   16.9296 H   0  0  0  0  0  0
  -31.3729  -18.2869   16.3040 H   0  0  0  0  0  0
  -30.3167  -16.9233   16.4793 H   0  0  0  0  0  0
  -30.8079  -18.9327   18.7545 H   0  0  0  0  0  0
  -31.7629  -17.5076   18.4814 H   0  0  0  0  0  0
  -29.6749  -16.1087   18.6076 H   0  0  0  0  0  0
  -28.7771  -17.5051   19.1117 H   0  0  0  0  0  0
  -29.6640  -17.4944   21.2635 H   0  0  0  0  0  0
  -31.2661  -17.0522   20.7433 H   0  0  0  0  0  0
  -29.5552  -25.1866   19.5511 H   0  0  0  0  0  0
  -27.8456  -24.8955   19.5475 H   0  0  0  0  0  0
  -29.0448  -15.2127   21.3570 H   0  0  0  0  0  0
  1 25  1  0  0  0
  1 30  2  0  0  0
  1 86  1  0  0  0
  2  3  1  0  0  0
  2 25  1  0  0  0
  2 87  1  0  0  0
  2 88  1  0  0  0
  3  4  1  0  0  0
  3 89  1  0  0  0
  3 90  1  0  0  0
  4  5  1  0  0  0
  4 91  1  0  0  0
  4 92  1  0  0  0
  5  6  1  0  0  0
  5 26  1  0  0  0
  5 93  1  0  0  0
  6 25  1  0  0  0
  6 94  1  0  0  0
  6 95  1  0  0  0
  7  8  2  0  0  0
  7 26  1  0  0  0
  7 29  1  0  0  0
  8  9  1  0  0  0
  8 22  1  0  0  0
  9 10  1  0  0  0
  9 27  2  0  0  0
 10 11  2  0  0  0
 10 15  1  0  0  0
 11 12  1  0  0  0
 11 96  1  0  0  0
 12 13  2  0  0  0
 12 97  1  0  0  0
 13 14  1  0  0  0
 13 31  1  0  0  0
 14 15  2  0  0  0
 14 98  1  0  0  0
 15 99  1  0  0  0
 16 17  2  0  0  0
 16 21  1  0  0  0
 16 31  1  0  0  0
 17 18  1  0  0  0
 17100  1  0  0  0
 18 19  2  0  0  0
 18101  1  0  0  0
 19 20  1  0  0  0
 19 24  1  0  0  0
 20 21  2  0  0  0
 20102  1  0  0  0
 21 23  1  0  0  0
 22 28  1  0  0  0
 22 32  2  0  0  0
 26 27  1  0  0  0
 28103  1  0  0  0
 28104  1  0  0  0
 29105  1  0  0  0
 29106  1  0  0  0
 33 34  1  0  0  0
 33 66  1  0  0  0
 33 70  2  0  0  0
 34 36  1  0  0  0
 34 59  1  0  0  0
 34107  1  0  0  0
 35 44  2  0  0  0
 35 45  1  0  0  0
 35 68  1  0  0  0
 36 56  1  0  0  0
 36108  1  0  0  0
 37 39  1  0  0  0
 37 47  1  0  0  0
 37 66  1  0  0  0
 37109  1  0  0  0
 38 43  2  0  0  0
 38 46  1  0  0  0
 38 47  1  0  0  0
 39 64  1  0  0  0
 39 67  2  0  0  0
 40 52  1  0  0  0
 40 53  2  0  0  0
 40 58  1  0  0  0
 41110  1  0  0  0
 41111  1  0  0  0
 41112  1  0  0  0
 41 48  1  0  0  0
 42 43  1  0  0  0
 42 66  1  0  0  0
 42113  1  0  0  0
 42114  1  0  0  0
 43 44  1  0  0  0
 44115  1  0  0  0
 45 46  2  0  0  0
 45116  1  0  0  0
 46117  1  0  0  0
 47118  1  0  0  0
 47119  1  0  0  0
 48 56  1  0  0  0
 48 65  1  0  0  0
 48120  1  0  0  0
 49 50  1  0  0  0
 49 53  1  0  0  0
 49 64  1  0  0  0
 49121  1  0  0  0
 50 51  1  0  0  0
 50122  1  0  0  0
 50123  1  0  0  0
 51 52  1  0  0  0
 51124  1  0  0  0
 51125  1  0  0  0
 52126  1  0  0  0
 52127  1  0  0  0
 53 54  1  0  0  0
 54 55  2  0  0  0
 54128  1  0  0  0
 55 57  1  0  0  0
 55129  1  0  0  0
 56 69  2  0  0  0
 57 58  2  0  0  0
 57130  1  0  0  0
 58131  1  0  0  0
 59 60  1  0  0  0
 59 61  1  0  0  0
 59 62  1  0  0  0
 60132  1  0  0  0
 60133  1  0  0  0
 60134  1  0  0  0
 61135  1  0  0  0
 61136  1  0  0  0
 61137  1  0  0  0
 62138  1  0  0  0
 62139  1  0  0  0
 62140  1  0  0  0
 63 65  1  0  0  0
 63141  1  0  0  0
 63142  1  0  0  0
 63143  1  0  0  0
 64144  1  0  0  0
 65145  1  0  0  0
 68 83  1  0  0  0
 71 72  1  0  0  0
 71 73  2  0  0  0
 71146  1  0  0  0
 72 75  1  0  0  0
 72 84  2  0  0  0
 73 76  1  0  0  0
 73 85  1  0  0  0
 74 85  1  0  0  0
 74147  1  0  0  0
 74148  1  0  0  0
 74149  1  0  0  0
 75 83  1  0  0  0
 75150  1  0  0  0
 75151  1  0  0  0
 76 77  1  0  0  0
 76152  1  0  0  0
 76153  1  0  0  0
 77 78  1  0  0  0
 77154  1  0  0  0
 77155  1  0  0  0
 78 79  1  0  0  0
 78156  1  0  0  0
 78157  1  0  0  0
 79 80  1  0  0  0
 79158  1  0  0  0
 79159  1  0  0  0
 80 81  1  0  0  0
 80160  1  0  0  0
 80161  1  0  0  0
 81 82  1  0  0  0
 81162  1  0  0  0
 81163  1  0  0  0
 82 86  1  0  0  0
 82164  1  0  0  0
 82165  1  0  0  0
 83166  1  0  0  0
 83167  1  0  0  0
 84 85  1  0  0  0
 86168  1  0  0  0
M  ISO  4   1 100  68 101  83 101  86 100
M  END
> <chiral flag>
0

> <version>
0

> <s_m_source_file>
/data/baiqing/PycharmProjects/Reinvent-master-3.2/result/LINK_invent/BTK/process_docking_weight1_custom_sum_contain_oxygen_bond_distance_aromatic_linkinvent_7_9_3/rearranged_h_0034.sdf

> <i_m_source_file_index>
21

> <r_mmod_Potential_Energy-OPLS-2005>
-119.891990661621

> <r_mmod_Stretch_Energy-OPLS-2005>
29.9869441986084

> <r_mmod_Bend_Energy-OPLS-2005>
94.3186874389648

> <r_mmod_Torsional_Energy-OPLS-2005>
210.152969360352

> <r_mmod_Improper_Torsional_Energy-OPLS-2005>
6.67709493637085

> <r_mmod_Van_der_Waal_Energy-OPLS-2005>
133.869491577148

> <r_mmod_Electrostatic_Energy-OPLS-2005>
-383.792266845703

> <r_mmod_Solvation_Energy-OPLS-2005>
-221.731231689453

> <b_mmod_Minimization_Converged-OPLS-2005>
0

> <r_mmod_RMS_Derivative-OPLS-2005>
2.04742860794067

$$$$
22
                    3D
 Structure written by MMmdl.
154162  0  0  1  0            999 V2000
  -30.6176  -14.7191   20.4648 C   0  0  0  0  0  0
  -30.4292  -12.4372   19.4753 C   0  0  0  0  0  0
  -29.5099  -12.5083   18.2367 C   0  0  0  0  0  0
  -28.0344  -12.3372   18.6468 C   0  0  0  0  0  0
  -27.6434  -13.2300   19.8550 C   0  0  2  0  0  0
  -28.6874  -13.1511   20.9912 C   0  0  0  0  0  0
  -25.2507  -13.8191   20.5675 C   0  0  0  0  0  0
  -24.1800  -13.0436   20.9207 C   0  0  0  0  0  0
  -24.6389  -11.6915   20.8753 C   0  0  0  0  0  0
  -23.9061  -10.4290   21.0406 C   0  0  0  0  0  0
  -24.3610   -9.4206   21.9184 C   0  0  0  0  0  0
  -23.6289   -8.2240   22.0746 C   0  0  0  0  0  0
  -22.4275   -8.0267   21.3534 C   0  0  0  0  0  0
  -21.9906   -9.0243   20.4642 C   0  0  0  0  0  0
  -22.7231  -10.2129   20.3054 C   0  0  0  0  0  0
  -21.6848   -6.0730   22.5274 C   0  0  0  0  0  0
  -21.4017   -6.5637   23.8207 C   0  0  0  0  0  0
  -21.3665   -5.6792   24.9170 C   0  0  0  0  0  0
  -21.6044   -4.3052   24.7223 C   0  0  0  0  0  0
  -21.8823   -3.8141   23.4344 C   0  0  0  0  0  0
  -21.9193   -4.6958   22.3400 C   0  0  0  0  0  0
  -22.7819  -13.5214   21.1872 C   0  0  0  0  0  0
  -22.1654   -4.2143   21.0975 F   0  0  0  0  0  0
  -21.5639   -3.4536   25.7737 F   0  0  0  0  0  0
  -29.9909  -13.4956   20.4127 N   0  0  0  0  0  0
  -26.2939  -12.9398   20.3291 N   0  0  0  0  0  0
  -25.9322  -11.6545   20.5765 N   0  0  0  0  0  0
  -22.0464  -12.8204   22.0432 N   0  0  0  0  0  0
  -25.4209  -15.1914   20.4067 N   0  0  0  0  0  0
  -31.8014  -14.8225   20.1336 O   0  0  0  0  0  0
  -21.6636   -6.8866   21.4233 O   0  0  0  0  0  0
  -22.3499  -14.5515   20.6713 O   0  0  0  0  0  0
  -24.6287  -31.8552   23.1981 C   0  0  0  0  0  0
  -25.9117  -32.4750   23.8327 C   0  0  1  0  0  0
  -27.2258  -27.2749   20.1258 C   0  0  0  0  0  0
  -25.5909  -33.8555   24.2251 N   0  0  0  0  0  0
  -23.4249  -30.4756   21.5406 C   0  0  2  0  0  0
  -24.8717  -28.9199   20.1089 C   0  0  0  0  0  0
  -22.7493  -29.4598   22.4928 C   0  0  0  0  0  0
  -18.0288  -28.1374   22.8493 C   0  0  0  0  0  0
  -24.1487  -36.7286   23.2642 C   0  0  0  0  0  0
  -25.9681  -30.7715   21.3751 C   0  0  0  0  0  0
  -26.0395  -29.3950   20.7162 C   0  0  0  0  0  0
  -27.2150  -28.5834   20.7141 C   0  0  0  0  0  0
  -26.0319  -26.8548   19.5001 C   0  0  0  0  0  0
  -24.8721  -27.6582   19.4915 C   0  0  0  0  0  0
  -23.6410  -29.8048   20.1572 C   0  0  0  0  0  0
  -25.4115  -36.3073   24.0330 C   0  0  1  0  0  0
  -20.5890  -28.3683   23.1279 C   0  0  2  0  0  0
  -20.6773  -26.9402   22.5412 C   0  0  0  0  0  0
  -19.5748  -26.6375   21.5213 C   0  0  0  0  0  0
  -18.1930  -26.7918   22.1628 C   0  0  0  0  0  0
  -19.1541  -28.8847   23.2877 C   0  0  0  0  0  0
  -18.9461  -30.1448   23.8897 C   0  0  0  0  0  0
  -17.6460  -30.6577   24.0558 C   0  0  0  0  0  0
  -25.9053  -34.9440   23.5101 C   0  0  0  0  0  0
  -16.5352  -29.9075   23.6326 C   0  0  0  0  0  0
  -16.7274  -28.6487   23.0360 C   0  0  0  0  0  0
  -26.4490  -31.6578   25.0718 C   0  0  0  0  0  0
  -25.3711  -31.3728   26.1436 C   0  0  0  0  0  0
  -27.0341  -30.2996   24.6206 C   0  0  0  0  0  0
  -27.6042  -32.4326   25.7489 C   0  0  0  0  0  0
  -27.5582  -37.1800   24.8465 C   0  0  0  0  0  0
  -21.4201  -29.3032   22.3673 N   0  0  0  0  0  0
  -26.4294  -37.3768   23.9406 N   0  0  0  0  0  0
  -24.6928  -31.0525   22.0941 N   0  0  0  0  0  0
  -23.4200  -28.8143   23.3027 O   0  0  0  0  0  0
  -28.3613  -26.4424   20.2056 O   0  0  0  0  0  0
  -26.5637  -34.8915   22.4677 O   0  0  0  0  0  0
  -23.5442  -32.1377   23.7284 O   0  0  0  0  0  0
  -30.9684  -20.2960   19.8270 C   0  0  0  0  0  0
  -31.3561  -21.6230   19.5993 C   0  0  0  0  0  0
  -29.6742  -20.0468   20.3044 C   0  0  0  0  0  0
  -29.2893  -22.4228   20.2475 C   0  0  0  0  0  0
  -32.7483  -21.9678   19.1163 C   0  0  0  0  0  0
  -29.2171  -18.5444   20.6040 C   0  0  0  0  0  0
  -28.4943  -23.7418   20.6631 C   0  0  0  0  0  0
  -30.2670  -17.3128   20.4381 C   0  0  0  0  0  0
  -28.4546  -25.0353   19.6875 C   0  0  0  0  0  0
  -30.5245  -22.6572   19.8171 N   0  0  0  0  0  0
  -28.8446  -21.1479   20.5097 N   0  0  0  0  0  0
  -29.8508  -15.8552   20.6663 N   0  0  0  0  0  0
  -31.4718  -12.5546   19.1770 H   0  0  0  0  0  0
  -30.3639  -11.4568   19.9508 H   0  0  0  0  0  0
  -29.7895  -11.7431   17.5118 H   0  0  0  0  0  0
  -29.6429  -13.4687   17.7359 H   0  0  0  0  0  0
  -27.8833  -11.2877   18.9005 H   0  0  0  0  0  0
  -27.3787  -12.5410   17.7997 H   0  0  0  0  0  0
  -27.6413  -14.2547   19.4830 H   0  0  0  0  0  0
  -28.7164  -12.1507   21.4261 H   0  0  0  0  0  0
  -28.4288  -13.8302   21.8051 H   0  0  0  0  0  0
  -25.2754   -9.5685   22.4761 H   0  0  0  0  0  0
  -24.0001   -7.4633   22.7463 H   0  0  0  0  0  0
  -21.0836   -8.8756   19.8952 H   0  0  0  0  0  0
  -22.3675  -10.9665   19.6164 H   0  0  0  0  0  0
  -21.2004   -7.6145   23.9706 H   0  0  0  0  0  0
  -21.1489   -6.0522   25.9075 H   0  0  0  0  0  0
  -22.0601   -2.7602   23.2842 H   0  0  0  0  0  0
  -22.4070  -11.9862   22.4824 H   0  0  0  0  0  0
  -21.1086  -13.1234   22.2645 H   0  0  0  0  0  0
  -24.6525  -15.8459   20.5066 H   0  0  0  0  0  0
  -26.2644  -15.6251   20.0549 H   0  0  0  0  0  0
  -26.7185  -32.5401   23.1071 H   0  0  0  0  0  0
  -25.0033  -33.9689   25.0380 H   0  0  0  0  0  0
  -22.7202  -31.2969   21.3932 H   0  0  0  0  0  0
  -23.3754  -35.9615   23.3303 H   0  0  0  0  0  0
  -24.3583  -36.8911   22.2058 H   0  0  0  0  0  0
  -23.7237  -37.6484   23.6670 H   0  0  0  0  0  0
  -26.1086  -31.5341   20.6077 H   0  0  0  0  0  0
  -26.8449  -30.8183   22.0098 H   0  0  0  0  0  0
  -28.1110  -28.9430   21.2003 H   0  0  0  0  0  0
  -25.9551  -25.8858   19.0330 H   0  0  0  0  0  0
  -23.9746  -27.2872   19.0160 H   0  0  0  0  0  0
  -23.7615  -30.5781   19.3978 H   0  0  0  0  0  0
  -22.7604  -29.2341   19.8571 H   0  0  0  0  0  0
  -25.1299  -36.1928   25.0826 H   0  0  0  0  0  0
  -20.9983  -28.3254   24.1399 H   0  0  0  0  0  0
  -20.5671  -26.2290   23.3615 H   0  0  0  0  0  0
  -21.6642  -26.7421   22.1205 H   0  0  0  0  0  0
  -19.6908  -25.6286   21.1241 H   0  0  0  0  0  0
  -19.6683  -27.3188   20.6745 H   0  0  0  0  0  0
  -17.4202  -26.6671   21.4027 H   0  0  0  0  0  0
  -18.0322  -26.0051   22.9014 H   0  0  0  0  0  0
  -19.7936  -30.7257   24.2271 H   0  0  0  0  0  0
  -17.5013  -31.6260   24.5149 H   0  0  0  0  0  0
  -15.5353  -30.2974   23.7639 H   0  0  0  0  0  0
  -15.8677  -28.0791   22.7095 H   0  0  0  0  0  0
  -24.5876  -30.7093   25.7759 H   0  0  0  0  0  0
  -24.8909  -32.2896   26.4869 H   0  0  0  0  0  0
  -25.8018  -30.8892   27.0211 H   0  0  0  0  0  0
  -26.2927  -29.6741   24.1220 H   0  0  0  0  0  0
  -27.4011  -29.7267   25.4731 H   0  0  0  0  0  0
  -27.8809  -30.4276   23.9459 H   0  0  0  0  0  0
  -27.2643  -33.3623   26.2071 H   0  0  0  0  0  0
  -28.3845  -32.6897   25.0311 H   0  0  0  0  0  0
  -28.0720  -31.8451   26.5401 H   0  0  0  0  0  0
  -28.2598  -38.0097   24.7510 H   0  0  0  0  0  0
  -28.1078  -36.2629   24.6292 H   0  0  0  0  0  0
  -27.2300  -37.1448   25.8867 H   0  0  0  0  0  0
  -20.9387  -29.8747   21.6870 H   0  0  0  0  0  0
  -26.0178  -38.2847   24.1390 H   0  0  0  0  0  0
  -31.6682  -19.4912   19.6478 H   0  0  0  0  0  0
  -33.4535  -21.1709   19.3509 H   0  0  0  0  0  0
  -33.1098  -22.8808   19.5906 H   0  0  0  0  0  0
  -32.7511  -22.1185   18.0372 H   0  0  0  0  0  0
  -28.3554  -18.3471   19.9663 H   0  0  0  0  0  0
  -28.8356  -18.5302   21.6247 H   0  0  0  0  0  0
  -28.9358  -24.0615   21.6069 H   0  0  0  0  0  0
  -27.4705  -23.4636   20.9110 H   0  0  0  0  0  0
  -31.1182  -17.5091   21.0920 H   0  0  0  0  0  0
  -30.6649  -17.3584   19.4234 H   0  0  0  0  0  0
  -27.7698  -24.8501   18.8629 H   0  0  0  0  0  0
  -29.4260  -25.0500   19.1950 H   0  0  0  0  0  0
  -28.8840  -15.6922   20.9057 H   0  0  0  0  0  0
  1 25  1  0  0  0
  1 30  2  0  0  0
  1 82  1  0  0  0
  2  3  1  0  0  0
  2 25  1  0  0  0
  2 83  1  0  0  0
  2 84  1  0  0  0
  3  4  1  0  0  0
  3 85  1  0  0  0
  3 86  1  0  0  0
  4  5  1  0  0  0
  4 87  1  0  0  0
  4 88  1  0  0  0
  5  6  1  0  0  0
  5 26  1  0  0  0
  5 89  1  0  0  0
  6 25  1  0  0  0
  6 90  1  0  0  0
  6 91  1  0  0  0
  7  8  2  0  0  0
  7 26  1  0  0  0
  7 29  1  0  0  0
  8  9  1  0  0  0
  8 22  1  0  0  0
  9 10  1  0  0  0
  9 27  2  0  0  0
 10 11  2  0  0  0
 10 15  1  0  0  0
 11 12  1  0  0  0
 11 92  1  0  0  0
 12 13  2  0  0  0
 12 93  1  0  0  0
 13 14  1  0  0  0
 13 31  1  0  0  0
 14 15  2  0  0  0
 14 94  1  0  0  0
 15 95  1  0  0  0
 16 17  2  0  0  0
 16 21  1  0  0  0
 16 31  1  0  0  0
 17 18  1  0  0  0
 17 96  1  0  0  0
 18 19  2  0  0  0
 18 97  1  0  0  0
 19 20  1  0  0  0
 19 24  1  0  0  0
 20 21  2  0  0  0
 20 98  1  0  0  0
 21 23  1  0  0  0
 22 28  1  0  0  0
 22 32  2  0  0  0
 26 27  1  0  0  0
 28 99  1  0  0  0
 28100  1  0  0  0
 29101  1  0  0  0
 29102  1  0  0  0
 33 34  1  0  0  0
 33 66  1  0  0  0
 33 70  2  0  0  0
 34 36  1  0  0  0
 34 59  1  0  0  0
 34103  1  0  0  0
 35 44  2  0  0  0
 35 45  1  0  0  0
 35 68  1  0  0  0
 36 56  1  0  0  0
 36104  1  0  0  0
 37 39  1  0  0  0
 37 47  1  0  0  0
 37 66  1  0  0  0
 37105  1  0  0  0
 38 43  2  0  0  0
 38 46  1  0  0  0
 38 47  1  0  0  0
 39 64  1  0  0  0
 39 67  2  0  0  0
 40 52  1  0  0  0
 40 53  2  0  0  0
 40 58  1  0  0  0
 41106  1  0  0  0
 41107  1  0  0  0
 41108  1  0  0  0
 41 48  1  0  0  0
 42 43  1  0  0  0
 42 66  1  0  0  0
 42109  1  0  0  0
 42110  1  0  0  0
 43 44  1  0  0  0
 44111  1  0  0  0
 45 46  2  0  0  0
 45112  1  0  0  0
 46113  1  0  0  0
 47114  1  0  0  0
 47115  1  0  0  0
 48 56  1  0  0  0
 48 65  1  0  0  0
 48116  1  0  0  0
 49 50  1  0  0  0
 49 53  1  0  0  0
 49 64  1  0  0  0
 49117  1  0  0  0
 50 51  1  0  0  0
 50118  1  0  0  0
 50119  1  0  0  0
 51 52  1  0  0  0
 51120  1  0  0  0
 51121  1  0  0  0
 52122  1  0  0  0
 52123  1  0  0  0
 53 54  1  0  0  0
 54 55  2  0  0  0
 54124  1  0  0  0
 55 57  1  0  0  0
 55125  1  0  0  0
 56 69  2  0  0  0
 57 58  2  0  0  0
 57126  1  0  0  0
 58127  1  0  0  0
 59 60  1  0  0  0
 59 61  1  0  0  0
 59 62  1  0  0  0
 60128  1  0  0  0
 60129  1  0  0  0
 60130  1  0  0  0
 61131  1  0  0  0
 61132  1  0  0  0
 61133  1  0  0  0
 62134  1  0  0  0
 62135  1  0  0  0
 62136  1  0  0  0
 63 65  1  0  0  0
 63137  1  0  0  0
 63138  1  0  0  0
 63139  1  0  0  0
 64140  1  0  0  0
 65141  1  0  0  0
 68 79  1  0  0  0
 71 72  2  0  0  0
 71 73  1  0  0  0
 71142  1  0  0  0
 72 75  1  0  0  0
 72 80  1  0  0  0
 73 76  1  0  0  0
 73 81  2  0  0  0
 74 77  1  0  0  0
 74 80  2  0  0  0
 74 81  1  0  0  0
 75143  1  0  0  0
 75144  1  0  0  0
 75145  1  0  0  0
 76 78  1  0  0  0
 76146  1  0  0  0
 76147  1  0  0  0
 77 79  1  0  0  0
 77148  1  0  0  0
 77149  1  0  0  0
 78 82  1  0  0  0
 78150  1  0  0  0
 78151  1  0  0  0
 79152  1  0  0  0
 79153  1  0  0  0
 82154  1  0  0  0
M  ISO  4   1 100  68 101  79 101  82 100
M  END
> <chiral flag>
0

> <version>
0

> <s_m_source_file>
/data/baiqing/PycharmProjects/Reinvent-master-3.2/result/LINK_invent/BTK/process_docking_weight1_custom_sum_contain_oxygen_bond_distance_aromatic_linkinvent_7_9_3/rearranged_h_0034.sdf

> <i_m_source_file_index>
22

> <r_mmod_Potential_Energy-OPLS-2005>
-256.200134277344

> <r_mmod_Stretch_Energy-OPLS-2005>
119.42440032959

> <r_mmod_Bend_Energy-OPLS-2005>
178.118942260742

> <r_mmod_Torsional_Energy-OPLS-2005>
195.914993286133

> <r_mmod_Improper_Torsional_Energy-OPLS-2005>
6.51141262054443

> <r_mmod_Van_der_Waal_Energy-OPLS-2005>
143.718902587891

> <r_mmod_Electrostatic_Energy-OPLS-2005>
-728.303894042969

> <r_mmod_Solvation_Energy-OPLS-2005>
-244.702667236328

> <b_mmod_Minimization_Converged-OPLS-2005>
0

> <r_mmod_RMS_Derivative-OPLS-2005>
0.999002456665039

$$$$
23
                    3D
 Structure written by MMmdl.
152160  0  0  1  0            999 V2000
  -30.6475  -14.6820   20.5127 C   0  0  0  0  0  0
  -30.4167  -12.4318   19.4539 C   0  0  0  0  0  0
  -29.4969  -12.5279   18.2186 C   0  0  0  0  0  0
  -28.0187  -12.3640   18.6272 C   0  0  0  0  0  0
  -27.6352  -13.2398   19.8517 C   0  0  2  0  0  0
  -28.6830  -13.1386   20.9792 C   0  0  0  0  0  0
  -25.2457  -13.8217   20.5683 C   0  0  0  0  0  0
  -24.1760  -13.0419   20.9197 C   0  0  0  0  0  0
  -24.6383  -11.6918   20.8711 C   0  0  0  0  0  0
  -23.9061  -10.4282   21.0388 C   0  0  0  0  0  0
  -24.3614   -9.4211   21.9171 C   0  0  0  0  0  0
  -23.6299   -8.2239   22.0742 C   0  0  0  0  0  0
  -22.4278   -8.0269   21.3534 C   0  0  0  0  0  0
  -21.9905   -9.0240   20.4637 C   0  0  0  0  0  0
  -22.7230  -10.2131   20.3046 C   0  0  0  0  0  0
  -21.6855   -6.0732   22.5278 C   0  0  0  0  0  0
  -21.4028   -6.5642   23.8209 C   0  0  0  0  0  0
  -21.3661   -5.6791   24.9167 C   0  0  0  0  0  0
  -21.6041   -4.3050   24.7221 C   0  0  0  0  0  0
  -21.8817   -3.8145   23.4339 C   0  0  0  0  0  0
  -21.9196   -4.6962   22.3398 C   0  0  0  0  0  0
  -22.7780  -13.5199   21.1855 C   0  0  0  0  0  0
  -22.1661   -4.2146   21.0976 F   0  0  0  0  0  0
  -21.5621   -3.4539   25.7735 F   0  0  0  0  0  0
  -29.9879  -13.4830   20.3971 N   0  0  0  0  0  0
  -26.2883  -12.9433   20.3273 N   0  0  0  0  0  0
  -25.9320  -11.6564   20.5729 N   0  0  0  0  0  0
  -22.0476  -12.8175   22.0450 N   0  0  0  0  0  0
  -25.4114  -15.1940   20.4141 N   0  0  0  0  0  0
  -31.8452  -14.7612   20.2462 O   0  0  0  0  0  0
  -21.6636   -6.8882   21.4238 O   0  0  0  0  0  0
  -22.3439  -14.5490   20.6721 O   0  0  0  0  0  0
  -24.6311  -31.8580   23.2010 C   0  0  0  0  0  0
  -25.9119  -32.4773   23.8356 C   0  0  1  0  0  0
  -27.2185  -27.2833   20.1177 C   0  0  0  0  0  0
  -25.5918  -33.8583   24.2269 N   0  0  0  0  0  0
  -23.4269  -30.4798   21.5507 C   0  0  2  0  0  0
  -24.8710  -28.9364   20.1141 C   0  0  0  0  0  0
  -22.7497  -29.4595   22.4991 C   0  0  0  0  0  0
  -18.0285  -28.1384   22.8492 C   0  0  0  0  0  0
  -24.1494  -36.7303   23.2649 C   0  0  0  0  0  0
  -25.9743  -30.7766   21.3813 C   0  0  0  0  0  0
  -26.0480  -29.4045   20.7159 C   0  0  0  0  0  0
  -27.2280  -28.5957   20.6968 C   0  0  0  0  0  0
  -26.0203  -26.8897   19.4786 C   0  0  0  0  0  0
  -24.8625  -27.6854   19.4857 C   0  0  0  0  0  0
  -23.6417  -29.8175   20.1651 C   0  0  0  0  0  0
  -25.4122  -36.3094   24.0328 C   0  0  1  0  0  0
  -20.5888  -28.3694   23.1281 C   0  0  2  0  0  0
  -20.6777  -26.9414   22.5426 C   0  0  0  0  0  0
  -19.5753  -26.6378   21.5232 C   0  0  0  0  0  0
  -18.1933  -26.7917   22.1643 C   0  0  0  0  0  0
  -19.1541  -28.8865   23.2875 C   0  0  0  0  0  0
  -18.9450  -30.1462   23.8888 C   0  0  0  0  0  0
  -17.6447  -30.6584   24.0565 C   0  0  0  0  0  0
  -25.9058  -34.9459   23.5113 C   0  0  0  0  0  0
  -16.5347  -29.9077   23.6345 C   0  0  0  0  0  0
  -16.7267  -28.6498   23.0353 C   0  0  0  0  0  0
  -26.4463  -31.6589   25.0752 C   0  0  0  0  0  0
  -25.3671  -31.3748   26.1465 C   0  0  0  0  0  0
  -27.0286  -30.2986   24.6245 C   0  0  0  0  0  0
  -27.6023  -32.4319   25.7523 C   0  0  0  0  0  0
  -27.5578  -37.1827   24.8468 C   0  0  0  0  0  0
  -21.4213  -29.3031   22.3687 N   0  0  0  0  0  0
  -26.4309  -37.3771   23.9385 N   0  0  0  0  0  0
  -24.6967  -31.0528   22.1016 N   0  0  0  0  0  0
  -23.4189  -28.8139   23.3087 O   0  0  0  0  0  0
  -28.3101  -26.3858   20.1621 O   0  0  0  0  0  0
  -26.5629  -34.8927   22.4675 O   0  0  0  0  0  0
  -23.5461  -32.1394   23.7299 O   0  0  0  0  0  0
  -29.4554  -19.6871   20.8712 C   0  0  0  0  0  0
  -30.5315  -21.0690   19.2214 C   0  0  0  0  0  0
  -29.5769  -20.9903   20.2516 C   0  0  0  0  0  0
  -30.2642  -18.5541   20.4670 C   0  0  0  0  0  0
  -31.1711  -18.8254   19.4156 C   0  0  0  0  0  0
  -28.6527  -22.2469   20.5690 C   0  0  0  0  0  0
  -30.3448  -17.1780   21.2696 C   0  0  0  0  0  0
  -29.1358  -23.7683   20.2956 C   0  0  0  0  0  0
  -28.0139  -24.9219   20.3306 C   0  0  0  0  0  0
  -31.2881  -20.0297   18.8165 N   0  0  0  0  0  0
  -29.9034  -15.8172   20.7523 N   0  0  0  0  0  0
  -32.2698  -17.6234   18.8484 Cl  0  0  0  0  0  0
  -31.4642  -12.5326   19.1648 H   0  0  0  0  0  0
  -30.3246  -11.4520   19.9228 H   0  0  0  0  0  0
  -29.7683  -11.7757   17.4773 H   0  0  0  0  0  0
  -29.6357  -13.4966   17.7360 H   0  0  0  0  0  0
  -27.8450  -11.3103   18.8488 H   0  0  0  0  0  0
  -27.3686  -12.5995   17.7824 H   0  0  0  0  0  0
  -27.6336  -14.2708   19.4955 H   0  0  0  0  0  0
  -28.7072  -12.1248   21.3828 H   0  0  0  0  0  0
  -28.4287  -13.7960   21.8115 H   0  0  0  0  0  0
  -25.2771   -9.5676   22.4728 H   0  0  0  0  0  0
  -24.0009   -7.4623   22.7458 H   0  0  0  0  0  0
  -21.0832   -8.8750   19.8943 H   0  0  0  0  0  0
  -22.3685  -10.9651   19.6136 H   0  0  0  0  0  0
  -21.2038   -7.6154   23.9712 H   0  0  0  0  0  0
  -21.1482   -6.0523   25.9069 H   0  0  0  0  0  0
  -22.0601   -2.7607   23.2837 H   0  0  0  0  0  0
  -22.4148  -11.9853   22.4812 H   0  0  0  0  0  0
  -21.1099  -13.1162   22.2720 H   0  0  0  0  0  0
  -24.6351  -15.8426   20.5007 H   0  0  0  0  0  0
  -26.2670  -15.6414   20.1125 H   0  0  0  0  0  0
  -26.7200  -32.5412   23.1120 H   0  0  0  0  0  0
  -25.0026  -33.9723   25.0386 H   0  0  0  0  0  0
  -22.7281  -31.3057   21.4054 H   0  0  0  0  0  0
  -23.3751  -35.9641   23.3321 H   0  0  0  0  0  0
  -24.3582  -36.8912   22.2063 H   0  0  0  0  0  0
  -23.7256  -37.6520   23.6650 H   0  0  0  0  0  0
  -26.1167  -31.5434   20.6197 H   0  0  0  0  0  0
  -26.8532  -30.8182   22.0117 H   0  0  0  0  0  0
  -28.1367  -28.9559   21.1615 H   0  0  0  0  0  0
  -25.9359  -25.9572   18.9486 H   0  0  0  0  0  0
  -23.9704  -27.3156   18.9995 H   0  0  0  0  0  0
  -23.7660  -30.5970   19.4132 H   0  0  0  0  0  0
  -22.7602  -29.2485   19.8634 H   0  0  0  0  0  0
  -25.1308  -36.1978   25.0820 H   0  0  0  0  0  0
  -20.9969  -28.3276   24.1401 H   0  0  0  0  0  0
  -20.5689  -26.2311   23.3632 H   0  0  0  0  0  0
  -21.6647  -26.7450   22.1223 H   0  0  0  0  0  0
  -19.6918  -25.6283   21.1271 H   0  0  0  0  0  0
  -19.6684  -27.3189   20.6758 H   0  0  0  0  0  0
  -17.4204  -26.6666   21.4039 H   0  0  0  0  0  0
  -18.0324  -26.0059   22.9041 H   0  0  0  0  0  0
  -19.7923  -30.7291   24.2250 H   0  0  0  0  0  0
  -17.4993  -31.6262   24.5159 H   0  0  0  0  0  0
  -15.5338  -30.2968   23.7657 H   0  0  0  0  0  0
  -15.8671  -28.0813   22.7053 H   0  0  0  0  0  0
  -24.5867  -30.7066   25.7795 H   0  0  0  0  0  0
  -24.8833  -32.2922   26.4839 H   0  0  0  0  0  0
  -25.7983  -30.8974   27.0277 H   0  0  0  0  0  0
  -26.2876  -29.6787   24.1182 H   0  0  0  0  0  0
  -27.3843  -29.7201   25.4786 H   0  0  0  0  0  0
  -27.8814  -30.4228   23.9565 H   0  0  0  0  0  0
  -27.2622  -33.3620   26.2084 H   0  0  0  0  0  0
  -28.3832  -32.6876   25.0350 H   0  0  0  0  0  0
  -28.0676  -31.8453   26.5456 H   0  0  0  0  0  0
  -28.2639  -38.0085   24.7454 H   0  0  0  0  0  0
  -28.1039  -36.2615   24.6377 H   0  0  0  0  0  0
  -27.2285  -37.1578   25.8874 H   0  0  0  0  0  0
  -20.9405  -29.8738   21.6877 H   0  0  0  0  0  0
  -26.0210  -38.2869   24.1316 H   0  0  0  0  0  0
  -28.7463  -19.5519   21.6759 H   0  0  0  0  0  0
  -30.6952  -21.9790   18.6647 H   0  0  0  0  0  0
  -28.2887  -22.1829   21.5978 H   0  0  0  0  0  0
  -27.7638  -22.0826   19.9580 H   0  0  0  0  0  0
  -29.7927  -17.3272   22.1997 H   0  0  0  0  0  0
  -31.3807  -17.0775   21.6072 H   0  0  0  0  0  0
  -29.9153  -24.0234   21.0105 H   0  0  0  0  0  0
  -29.6205  -23.8105   19.3200 H   0  0  0  0  0  0
  -27.4602  -24.8145   21.2660 H   0  0  0  0  0  0
  -27.3176  -24.6081   19.5610 H   0  0  0  0  0  0
  -28.9097  -15.6507   20.7968 H   0  0  0  0  0  0
  1 25  1  0  0  0
  1 30  2  0  0  0
  1 81  1  0  0  0
  2  3  1  0  0  0
  2 25  1  0  0  0
  2 83  1  0  0  0
  2 84  1  0  0  0
  3  4  1  0  0  0
  3 85  1  0  0  0
  3 86  1  0  0  0
  4  5  1  0  0  0
  4 87  1  0  0  0
  4 88  1  0  0  0
  5  6  1  0  0  0
  5 26  1  0  0  0
  5 89  1  0  0  0
  6 25  1  0  0  0
  6 90  1  0  0  0
  6 91  1  0  0  0
  7  8  2  0  0  0
  7 26  1  0  0  0
  7 29  1  0  0  0
  8  9  1  0  0  0
  8 22  1  0  0  0
  9 10  1  0  0  0
  9 27  2  0  0  0
 10 11  2  0  0  0
 10 15  1  0  0  0
 11 12  1  0  0  0
 11 92  1  0  0  0
 12 13  2  0  0  0
 12 93  1  0  0  0
 13 14  1  0  0  0
 13 31  1  0  0  0
 14 15  2  0  0  0
 14 94  1  0  0  0
 15 95  1  0  0  0
 16 17  2  0  0  0
 16 21  1  0  0  0
 16 31  1  0  0  0
 17 18  1  0  0  0
 17 96  1  0  0  0
 18 19  2  0  0  0
 18 97  1  0  0  0
 19 20  1  0  0  0
 19 24  1  0  0  0
 20 21  2  0  0  0
 20 98  1  0  0  0
 21 23  1  0  0  0
 22 28  1  0  0  0
 22 32  2  0  0  0
 26 27  1  0  0  0
 28 99  1  0  0  0
 28100  1  0  0  0
 29101  1  0  0  0
 29102  1  0  0  0
 33 34  1  0  0  0
 33 66  1  0  0  0
 33 70  2  0  0  0
 34 36  1  0  0  0
 34 59  1  0  0  0
 34103  1  0  0  0
 35 44  2  0  0  0
 35 45  1  0  0  0
 35 68  1  0  0  0
 36 56  1  0  0  0
 36104  1  0  0  0
 37 39  1  0  0  0
 37 47  1  0  0  0
 37 66  1  0  0  0
 37105  1  0  0  0
 38 43  2  0  0  0
 38 46  1  0  0  0
 38 47  1  0  0  0
 39 64  1  0  0  0
 39 67  2  0  0  0
 40 52  1  0  0  0
 40 53  2  0  0  0
 40 58  1  0  0  0
 41106  1  0  0  0
 41107  1  0  0  0
 41108  1  0  0  0
 41 48  1  0  0  0
 42 43  1  0  0  0
 42 66  1  0  0  0
 42109  1  0  0  0
 42110  1  0  0  0
 43 44  1  0  0  0
 44111  1  0  0  0
 45 46  2  0  0  0
 45112  1  0  0  0
 46113  1  0  0  0
 47114  1  0  0  0
 47115  1  0  0  0
 48 56  1  0  0  0
 48 65  1  0  0  0
 48116  1  0  0  0
 49 50  1  0  0  0
 49 53  1  0  0  0
 49 64  1  0  0  0
 49117  1  0  0  0
 50 51  1  0  0  0
 50118  1  0  0  0
 50119  1  0  0  0
 51 52  1  0  0  0
 51120  1  0  0  0
 51121  1  0  0  0
 52122  1  0  0  0
 52123  1  0  0  0
 53 54  1  0  0  0
 54 55  2  0  0  0
 54124  1  0  0  0
 55 57  1  0  0  0
 55125  1  0  0  0
 56 69  2  0  0  0
 57 58  2  0  0  0
 57126  1  0  0  0
 58127  1  0  0  0
 59 60  1  0  0  0
 59 61  1  0  0  0
 59 62  1  0  0  0
 60128  1  0  0  0
 60129  1  0  0  0
 60130  1  0  0  0
 61131  1  0  0  0
 61132  1  0  0  0
 61133  1  0  0  0
 62134  1  0  0  0
 62135  1  0  0  0
 62136  1  0  0  0
 63 65  1  0  0  0
 63137  1  0  0  0
 63138  1  0  0  0
 63139  1  0  0  0
 64140  1  0  0  0
 65141  1  0  0  0
 68 79  1  0  0  0
 71 73  2  0  0  0
 71 74  1  0  0  0
 71142  1  0  0  0
 72 73  1  0  0  0
 72 80  2  0  0  0
 72143  1  0  0  0
 73 76  1  0  0  0
 74 75  2  0  0  0
 74 77  1  0  0  0
 75 80  1  0  0  0
 75 82  1  0  0  0
 76 78  1  0  0  0
 76144  1  0  0  0
 76145  1  0  0  0
 77 81  1  0  0  0
 77146  1  0  0  0
 77147  1  0  0  0
 78 79  1  0  0  0
 78148  1  0  0  0
 78149  1  0  0  0
 79150  1  0  0  0
 79151  1  0  0  0
 81152  1  0  0  0
M  ISO  4   1 100  68 101  79 101  81 100
M  END
> <chiral flag>
0

> <version>
0

> <s_m_source_file>
/data/baiqing/PycharmProjects/Reinvent-master-3.2/result/LINK_invent/BTK/process_docking_weight1_custom_sum_contain_oxygen_bond_distance_aromatic_linkinvent_7_9_3/rearranged_h_0034.sdf

> <i_m_source_file_index>
23

> <r_mmod_Potential_Energy-OPLS-2005>
10.5968399047852

> <r_mmod_Stretch_Energy-OPLS-2005>
108.546089172363

> <r_mmod_Bend_Energy-OPLS-2005>
163.84228515625

> <r_mmod_Torsional_Energy-OPLS-2005>
219.594131469727

> <r_mmod_Improper_Torsional_Energy-OPLS-2005>
5.79362154006958

> <r_mmod_Van_der_Waal_Energy-OPLS-2005>
140.803009033203

> <r_mmod_Electrostatic_Energy-OPLS-2005>
-471.936004638672

> <r_mmod_Solvation_Energy-OPLS-2005>
-225.621322631836

> <b_mmod_Minimization_Converged-OPLS-2005>
0

> <r_mmod_RMS_Derivative-OPLS-2005>
5.38297843933105

$$$$
24
                    3D
 Structure written by MMmdl.
161169  0  0  1  0            999 V2000
  -30.6459  -14.7027   20.4812 C   0  0  0  0  0  0
  -30.4313  -12.4374   19.4578 C   0  0  0  0  0  0
  -29.5049  -12.5077   18.2230 C   0  0  0  0  0  0
  -28.0300  -12.3424   18.6348 C   0  0  0  0  0  0
  -27.6441  -13.2328   19.8468 C   0  0  2  0  0  0
  -28.6912  -13.1508   20.9783 C   0  0  0  0  0  0
  -25.2526  -13.8194   20.5700 C   0  0  0  0  0  0
  -24.1813  -13.0443   20.9192 C   0  0  0  0  0  0
  -24.6400  -11.6918   20.8722 C   0  0  0  0  0  0
  -23.9089  -10.4288   21.0365 C   0  0  0  0  0  0
  -24.3639   -9.4204   21.9148 C   0  0  0  0  0  0
  -23.6305   -8.2245   22.0737 C   0  0  0  0  0  0
  -22.4284   -8.0275   21.3539 C   0  0  0  0  0  0
  -21.9918   -9.0244   20.4642 C   0  0  0  0  0  0
  -22.7255  -10.2115   20.3027 C   0  0  0  0  0  0
  -21.6862   -6.0725   22.5283 C   0  0  0  0  0  0
  -21.4030   -6.5634   23.8219 C   0  0  0  0  0  0
  -21.3653   -5.6782   24.9177 C   0  0  0  0  0  0
  -21.6036   -4.3048   24.7229 C   0  0  0  0  0  0
  -21.8822   -3.8141   23.4357 C   0  0  0  0  0  0
  -21.9208   -4.6954   22.3410 C   0  0  0  0  0  0
  -22.7831  -13.5206   21.1851 C   0  0  0  0  0  0
  -22.1673   -4.2134   21.0988 F   0  0  0  0  0  0
  -21.5613   -3.4536   25.7747 F   0  0  0  0  0  0
  -29.9978  -13.4922   20.4013 N   0  0  0  0  0  0
  -26.2955  -12.9411   20.3263 N   0  0  0  0  0  0
  -25.9333  -11.6551   20.5720 N   0  0  0  0  0  0
  -22.0501  -12.8193   22.0416 N   0  0  0  0  0  0
  -25.4223  -15.1927   20.4154 N   0  0  0  0  0  0
  -31.8268  -14.7997   20.1401 O   0  0  0  0  0  0
  -21.6653   -6.8870   21.4242 O   0  0  0  0  0  0
  -22.3502  -14.5501   20.6684 O   0  0  0  0  0  0
  -24.6307  -31.8586   23.2050 C   0  0  0  0  0  0
  -25.9150  -32.4770   23.8367 C   0  0  1  0  0  0
  -27.2164  -27.2777   20.1153 C   0  0  0  0  0  0
  -25.5968  -33.8573   24.2286 N   0  0  0  0  0  0
  -23.4254  -30.4881   21.5462 C   0  0  2  0  0  0
  -24.8745  -28.9502   20.1117 C   0  0  0  0  0  0
  -22.7498  -29.4619   22.4890 C   0  0  0  0  0  0
  -18.0298  -28.1381   22.8470 C   0  0  0  0  0  0
  -24.1495  -36.7287   23.2632 C   0  0  0  0  0  0
  -25.9740  -30.7798   21.3838 C   0  0  0  0  0  0
  -26.0494  -29.4060   20.7216 C   0  0  0  0  0  0
  -27.2256  -28.5842   20.7131 C   0  0  0  0  0  0
  -26.0123  -26.9077   19.4623 C   0  0  0  0  0  0
  -24.8615  -27.7086   19.4712 C   0  0  0  0  0  0
  -23.6461  -29.8350   20.1590 C   0  0  0  0  0  0
  -25.4116  -36.3058   24.0314 C   0  0  1  0  0  0
  -20.5901  -28.3687   23.1268 C   0  0  2  0  0  0
  -20.6779  -26.9399   22.5411 C   0  0  0  0  0  0
  -19.5765  -26.6361   21.5206 C   0  0  0  0  0  0
  -18.1933  -26.7931   22.1591 C   0  0  0  0  0  0
  -19.1552  -28.8848   23.2874 C   0  0  0  0  0  0
  -18.9463  -30.1444   23.8905 C   0  0  0  0  0  0
  -17.6462  -30.6577   24.0562 C   0  0  0  0  0  0
  -25.9060  -34.9435   23.5088 C   0  0  0  0  0  0
  -16.5354  -29.9077   23.6317 C   0  0  0  0  0  0
  -16.7281  -28.6500   23.0330 C   0  0  0  0  0  0
  -26.4528  -31.6567   25.0734 C   0  0  0  0  0  0
  -25.3759  -31.3740   26.1465 C   0  0  0  0  0  0
  -27.0358  -30.2970   24.6212 C   0  0  0  0  0  0
  -27.6071  -32.4313   25.7524 C   0  0  0  0  0  0
  -27.5572  -37.1803   24.8460 C   0  0  0  0  0  0
  -21.4200  -29.3062   22.3665 N   0  0  0  0  0  0
  -26.4284  -37.3764   23.9408 N   0  0  0  0  0  0
  -24.6953  -31.0586   22.1010 N   0  0  0  0  0  0
  -23.4221  -28.8111   23.2930 O   0  0  0  0  0  0
  -28.2898  -26.3493   20.1775 O   0  0  0  0  0  0
  -26.5595  -34.8906   22.4637 O   0  0  0  0  0  0
  -23.5464  -32.1388   23.7369 O   0  0  0  0  0  0
  -26.6767  -20.9085   22.9533 C   0  0  0  0  0  0
  -27.9776  -20.5074   22.6269 C   0  0  0  0  0  0
  -28.5737  -20.9929   21.4323 C   0  0  0  0  0  0
  -27.9704  -22.2140   20.8915 C   0  0  0  0  0  0
  -26.5632  -22.2966   21.1201 C   0  0  0  0  0  0
  -28.6792  -19.5525   23.5854 C   0  0  0  0  0  0
  -25.5799  -22.9812   20.1838 C   0  0  0  0  0  0
  -29.6629  -20.0503   20.7789 C   0  0  0  0  0  0
  -28.7392  -23.5276   20.3801 C   0  0  0  0  0  0
  -29.2717  -18.4715   20.6303 C   0  0  0  0  0  0
  -30.3683  -17.2936   20.7387 C   0  0  0  0  0  0
  -27.8822  -24.9043   20.2542 C   0  0  0  0  0  0
  -25.9428  -21.6752   22.1373 N   0  0  0  0  0  0
  -29.9064  -15.8385   20.7480 N   0  0  0  0  0  0
  -31.4697  -12.5599   19.1468 H   0  0  0  0  0  0
  -30.3732  -11.4570   19.9327 H   0  0  0  0  0  0
  -29.7771  -11.7374   17.5000 H   0  0  0  0  0  0
  -29.6413  -13.4633   17.7142 H   0  0  0  0  0  0
  -27.8728  -11.2930   18.8830 H   0  0  0  0  0  0
  -27.3769  -12.5502   17.7867 H   0  0  0  0  0  0
  -27.6405  -14.2581   19.4775 H   0  0  0  0  0  0
  -28.7163  -12.1489   21.4079 H   0  0  0  0  0  0
  -28.4287  -13.8281   21.7927 H   0  0  0  0  0  0
  -25.2783   -9.5682   22.4711 H   0  0  0  0  0  0
  -24.0024   -7.4637   22.7445 H   0  0  0  0  0  0
  -21.0851   -8.8756   19.8948 H   0  0  0  0  0  0
  -22.3707  -10.9642   19.6131 H   0  0  0  0  0  0
  -21.2026   -7.6141   23.9725 H   0  0  0  0  0  0
  -21.1467   -6.0508   25.9079 H   0  0  0  0  0  0
  -22.0609   -2.7602   23.2871 H   0  0  0  0  0  0
  -22.4192  -11.9905   22.4844 H   0  0  0  0  0  0
  -21.1085  -13.1145   22.2582 H   0  0  0  0  0  0
  -24.6541  -15.8450   20.5292 H   0  0  0  0  0  0
  -26.2707  -15.6354   20.0863 H   0  0  0  0  0  0
  -26.7202  -32.5441   23.1099 H   0  0  0  0  0  0
  -25.0177  -33.9731   25.0467 H   0  0  0  0  0  0
  -22.7204  -31.3101   21.4066 H   0  0  0  0  0  0
  -23.3745  -35.9633   23.3288 H   0  0  0  0  0  0
  -24.3579  -36.8922   22.2048 H   0  0  0  0  0  0
  -23.7272  -37.6491   23.6670 H   0  0  0  0  0  0
  -26.1106  -31.5482   20.6209 H   0  0  0  0  0  0
  -26.8515  -30.8266   22.0166 H   0  0  0  0  0  0
  -28.1226  -28.9303   21.2077 H   0  0  0  0  0  0
  -25.8978  -25.9812   18.9248 H   0  0  0  0  0  0
  -23.9657  -27.3608   18.9750 H   0  0  0  0  0  0
  -23.7756  -30.6175   19.4106 H   0  0  0  0  0  0
  -22.7643  -29.2738   19.8447 H   0  0  0  0  0  0
  -25.1304  -36.1876   25.0802 H   0  0  0  0  0  0
  -20.9992  -28.3266   24.1386 H   0  0  0  0  0  0
  -20.5641  -26.2301   23.3616 H   0  0  0  0  0  0
  -21.6652  -26.7396   22.1226 H   0  0  0  0  0  0
  -19.6912  -25.6257   21.1271 H   0  0  0  0  0  0
  -19.6727  -27.3139   20.6712 H   0  0  0  0  0  0
  -17.4216  -26.6702   21.3969 H   0  0  0  0  0  0
  -18.0295  -26.0069   22.8976 H   0  0  0  0  0  0
  -19.7935  -30.7257   24.2291 H   0  0  0  0  0  0
  -17.5013  -31.6250   24.5170 H   0  0  0  0  0  0
  -15.5352  -30.2968   23.7651 H   0  0  0  0  0  0
  -15.8684  -28.0817   22.7030 H   0  0  0  0  0  0
  -24.5950  -30.7058   25.7815 H   0  0  0  0  0  0
  -24.8953  -32.2931   26.4830 H   0  0  0  0  0  0
  -25.8097  -30.8978   27.0264 H   0  0  0  0  0  0
  -26.2928  -29.6734   24.1230 H   0  0  0  0  0  0
  -27.4007  -29.7222   25.4727 H   0  0  0  0  0  0
  -27.8831  -30.4214   23.9468 H   0  0  0  0  0  0
  -27.2648  -33.3607   26.2088 H   0  0  0  0  0  0
  -28.3908  -32.6883   25.0386 H   0  0  0  0  0  0
  -28.0704  -31.8446   26.5467 H   0  0  0  0  0  0
  -28.2571  -38.0113   24.7495 H   0  0  0  0  0  0
  -28.1082  -36.2639   24.6291 H   0  0  0  0  0  0
  -27.2293  -37.1458   25.8864 H   0  0  0  0  0  0
  -20.9343  -29.8874   21.6977 H   0  0  0  0  0  0
  -26.0139  -38.2821   24.1437 H   0  0  0  0  0  0
  -26.1753  -20.5259   23.8297 H   0  0  0  0  0  0
  -28.6434  -19.9619   24.5954 H   0  0  0  0  0  0
  -29.7295  -19.3946   23.3437 H   0  0  0  0  0  0
  -28.1772  -18.5846   23.6039 H   0  0  0  0  0  0
  -25.9826  -23.0793   19.1775 H   0  0  0  0  0  0
  -25.2562  -23.9521   20.5580 H   0  0  0  0  0  0
  -24.6853  -22.3673   20.0786 H   0  0  0  0  0  0
  -30.5814  -20.1500   21.3577 H   0  0  0  0  0  0
  -29.9028  -20.4437   19.7907 H   0  0  0  0  0  0
  -29.2209  -23.3082   19.4269 H   0  0  0  0  0  0
  -29.5520  -23.7050   21.0855 H   0  0  0  0  0  0
  -28.7381  -18.3616   19.6856 H   0  0  0  0  0  0
  -28.5084  -18.2310   21.3644 H   0  0  0  0  0  0
  -30.9397  -17.4442   21.6562 H   0  0  0  0  0  0
  -31.0863  -17.4161   19.9262 H   0  0  0  0  0  0
  -27.1839  -24.9045   21.0908 H   0  0  0  0  0  0
  -27.3533  -24.7125   19.3309 H   0  0  0  0  0  0
  -28.9378  -15.6752   20.9762 H   0  0  0  0  0  0
  1 25  1  0  0  0
  1 30  2  0  0  0
  1 84  1  0  0  0
  2  3  1  0  0  0
  2 25  1  0  0  0
  2 85  1  0  0  0
  2 86  1  0  0  0
  3  4  1  0  0  0
  3 87  1  0  0  0
  3 88  1  0  0  0
  4  5  1  0  0  0
  4 89  1  0  0  0
  4 90  1  0  0  0
  5  6  1  0  0  0
  5 26  1  0  0  0
  5 91  1  0  0  0
  6 25  1  0  0  0
  6 92  1  0  0  0
  6 93  1  0  0  0
  7  8  2  0  0  0
  7 26  1  0  0  0
  7 29  1  0  0  0
  8  9  1  0  0  0
  8 22  1  0  0  0
  9 10  1  0  0  0
  9 27  2  0  0  0
 10 11  2  0  0  0
 10 15  1  0  0  0
 11 12  1  0  0  0
 11 94  1  0  0  0
 12 13  2  0  0  0
 12 95  1  0  0  0
 13 14  1  0  0  0
 13 31  1  0  0  0
 14 15  2  0  0  0
 14 96  1  0  0  0
 15 97  1  0  0  0
 16 17  2  0  0  0
 16 21  1  0  0  0
 16 31  1  0  0  0
 17 18  1  0  0  0
 17 98  1  0  0  0
 18 19  2  0  0  0
 18 99  1  0  0  0
 19 20  1  0  0  0
 19 24  1  0  0  0
 20 21  2  0  0  0
 20100  1  0  0  0
 21 23  1  0  0  0
 22 28  1  0  0  0
 22 32  2  0  0  0
 26 27  1  0  0  0
 28101  1  0  0  0
 28102  1  0  0  0
 29103  1  0  0  0
 29104  1  0  0  0
 33 34  1  0  0  0
 33 66  1  0  0  0
 33 70  2  0  0  0
 34 36  1  0  0  0
 34 59  1  0  0  0
 34105  1  0  0  0
 35 44  2  0  0  0
 35 45  1  0  0  0
 35 68  1  0  0  0
 36 56  1  0  0  0
 36106  1  0  0  0
 37 39  1  0  0  0
 37 47  1  0  0  0
 37 66  1  0  0  0
 37107  1  0  0  0
 38 43  2  0  0  0
 38 46  1  0  0  0
 38 47  1  0  0  0
 39 64  1  0  0  0
 39 67  2  0  0  0
 40 52  1  0  0  0
 40 53  2  0  0  0
 40 58  1  0  0  0
 41108  1  0  0  0
 41109  1  0  0  0
 41110  1  0  0  0
 41 48  1  0  0  0
 42 43  1  0  0  0
 42 66  1  0  0  0
 42111  1  0  0  0
 42112  1  0  0  0
 43 44  1  0  0  0
 44113  1  0  0  0
 45 46  2  0  0  0
 45114  1  0  0  0
 46115  1  0  0  0
 47116  1  0  0  0
 47117  1  0  0  0
 48 56  1  0  0  0
 48 65  1  0  0  0
 48118  1  0  0  0
 49 50  1  0  0  0
 49 53  1  0  0  0
 49 64  1  0  0  0
 49119  1  0  0  0
 50 51  1  0  0  0
 50120  1  0  0  0
 50121  1  0  0  0
 51 52  1  0  0  0
 51122  1  0  0  0
 51123  1  0  0  0
 52124  1  0  0  0
 52125  1  0  0  0
 53 54  1  0  0  0
 54 55  2  0  0  0
 54126  1  0  0  0
 55 57  1  0  0  0
 55127  1  0  0  0
 56 69  2  0  0  0
 57 58  2  0  0  0
 57128  1  0  0  0
 58129  1  0  0  0
 59 60  1  0  0  0
 59 61  1  0  0  0
 59 62  1  0  0  0
 60130  1  0  0  0
 60131  1  0  0  0
 60132  1  0  0  0
 61133  1  0  0  0
 61134  1  0  0  0
 61135  1  0  0  0
 62136  1  0  0  0
 62137  1  0  0  0
 62138  1  0  0  0
 63 65  1  0  0  0
 63139  1  0  0  0
 63140  1  0  0  0
 63141  1  0  0  0
 64142  1  0  0  0
 65143  1  0  0  0
 68 82  1  0  0  0
 71 72  2  0  0  0
 71 83  1  0  0  0
 71144  1  0  0  0
 72 73  1  0  0  0
 72 76  1  0  0  0
 73 74  2  0  0  0
 73 78  1  0  0  0
 74 75  1  0  0  0
 74 79  1  0  0  0
 75 77  1  0  0  0
 75 83  2  0  0  0
 76145  1  0  0  0
 76146  1  0  0  0
 76147  1  0  0  0
 77148  1  0  0  0
 77149  1  0  0  0
 77150  1  0  0  0
 78 80  1  0  0  0
 78151  1  0  0  0
 78152  1  0  0  0
 79 82  1  0  0  0
 79153  1  0  0  0
 79154  1  0  0  0
 80 81  1  0  0  0
 80155  1  0  0  0
 80156  1  0  0  0
 81 84  1  0  0  0
 81157  1  0  0  0
 81158  1  0  0  0
 82159  1  0  0  0
 82160  1  0  0  0
 84161  1  0  0  0
M  ISO  4   1 100  68 101  82 101  84 100
M  END
> <chiral flag>
0

> <version>
0

> <s_m_source_file>
/data/baiqing/PycharmProjects/Reinvent-master-3.2/result/LINK_invent/BTK/process_docking_weight1_custom_sum_contain_oxygen_bond_distance_aromatic_linkinvent_7_9_3/rearranged_h_0034.sdf

> <i_m_source_file_index>
24

> <r_mmod_Potential_Energy-OPLS-2005>
130.342208862305

> <r_mmod_Stretch_Energy-OPLS-2005>
129.560958862305

> <r_mmod_Bend_Energy-OPLS-2005>
189.345108032227

> <r_mmod_Torsional_Energy-OPLS-2005>
336.104156494141

> <r_mmod_Improper_Torsional_Energy-OPLS-2005>
7.44092988967896

> <r_mmod_Van_der_Waal_Energy-OPLS-2005>
165.650909423828

> <r_mmod_Electrostatic_Energy-OPLS-2005>
-543.860900878906

> <r_mmod_Solvation_Energy-OPLS-2005>
-229.258682250977

> <b_mmod_Minimization_Converged-OPLS-2005>
0

> <r_mmod_RMS_Derivative-OPLS-2005>
2.04356098175049

$$$$
25
                    3D
 Structure written by MMmdl.
156164  0  0  1  0            999 V2000
  -30.6619  -14.6396   20.4851 C   0  0  0  0  0  0
  -30.4136  -12.3909   19.4480 C   0  0  0  0  0  0
  -29.4854  -12.4838   18.2184 C   0  0  0  0  0  0
  -28.0137  -12.3218   18.6392 C   0  0  0  0  0  0
  -27.6405  -13.2187   19.8509 C   0  0  2  0  0  0
  -28.6888  -13.1251   20.9810 C   0  0  0  0  0  0
  -25.2529  -13.8182   20.5677 C   0  0  0  0  0  0
  -24.1819  -13.0446   20.9188 C   0  0  0  0  0  0
  -24.6386  -11.6909   20.8780 C   0  0  0  0  0  0
  -23.9062  -10.4289   21.0421 C   0  0  0  0  0  0
  -24.3623   -9.4201   21.9185 C   0  0  0  0  0  0
  -23.6310   -8.2234   22.0745 C   0  0  0  0  0  0
  -22.4280   -8.0287   21.3546 C   0  0  0  0  0  0
  -21.9911   -9.0251   20.4649 C   0  0  0  0  0  0
  -22.7233  -10.2138   20.3073 C   0  0  0  0  0  0
  -21.6843   -6.0749   22.5273 C   0  0  0  0  0  0
  -21.4011   -6.5652   23.8212 C   0  0  0  0  0  0
  -21.3644   -5.6810   24.9167 C   0  0  0  0  0  0
  -21.6046   -4.3073   24.7227 C   0  0  0  0  0  0
  -21.8825   -3.8160   23.4348 C   0  0  0  0  0  0
  -21.9198   -4.6974   22.3404 C   0  0  0  0  0  0
  -22.7847  -13.5220   21.1879 C   0  0  0  0  0  0
  -22.1664   -4.2166   21.0985 F   0  0  0  0  0  0
  -21.5617   -3.4558   25.7737 F   0  0  0  0  0  0
  -29.9947  -13.4455   20.3936 N   0  0  0  0  0  0
  -26.2930  -12.9360   20.3295 N   0  0  0  0  0  0
  -25.9310  -11.6509   20.5813 N   0  0  0  0  0  0
  -22.0531  -12.8174   22.0435 N   0  0  0  0  0  0
  -25.4247  -15.1904   20.4034 N   0  0  0  0  0  0
  -31.8486  -14.7249   20.1622 O   0  0  0  0  0  0
  -21.6646   -6.8881   21.4235 O   0  0  0  0  0  0
  -22.3506  -14.5519   20.6724 O   0  0  0  0  0  0
  -24.6273  -31.8579   23.2072 C   0  0  0  0  0  0
  -25.9112  -32.4758   23.8391 C   0  0  1  0  0  0
  -27.2306  -27.3236   20.0915 C   0  0  0  0  0  0
  -25.5937  -33.8569   24.2337 N   0  0  0  0  0  0
  -23.4238  -30.4881   21.5439 C   0  0  2  0  0  0
  -24.8705  -28.9376   20.1135 C   0  0  0  0  0  0
  -22.7459  -29.4683   22.4892 C   0  0  0  0  0  0
  -18.0313  -28.1384   22.8487 C   0  0  0  0  0  0
  -24.1484  -36.7296   23.2660 C   0  0  0  0  0  0
  -25.9679  -30.7824   21.3889 C   0  0  0  0  0  0
  -26.0402  -29.4169   20.7158 C   0  0  0  0  0  0
  -27.2213  -28.6190   20.6994 C   0  0  0  0  0  0
  -26.0274  -26.8797   19.5031 C   0  0  0  0  0  0
  -24.8641  -27.6721   19.5080 C   0  0  0  0  0  0
  -23.6419  -29.8221   20.1609 C   0  0  0  0  0  0
  -25.4097  -36.3099   24.0368 C   0  0  1  0  0  0
  -20.5911  -28.3739   23.1213 C   0  0  2  0  0  0
  -20.6771  -26.9451   22.5382 C   0  0  0  0  0  0
  -19.5747  -26.6388   21.5187 C   0  0  0  0  0  0
  -18.1943  -26.7930   22.1622 C   0  0  0  0  0  0
  -19.1566  -28.8874   23.2856 C   0  0  0  0  0  0
  -18.9487  -30.1457   23.8895 C   0  0  0  0  0  0
  -17.6488  -30.6586   24.0583 C   0  0  0  0  0  0
  -25.9022  -34.9444   23.5151 C   0  0  0  0  0  0
  -16.5382  -29.9081   23.6346 C   0  0  0  0  0  0
  -16.7304  -28.6497   23.0374 C   0  0  0  0  0  0
  -26.4527  -31.6561   25.0751 C   0  0  0  0  0  0
  -25.3785  -31.3674   26.1496 C   0  0  0  0  0  0
  -27.0452  -30.2970   24.6311 C   0  0  0  0  0  0
  -27.6052  -32.4395   25.7457 C   0  0  0  0  0  0
  -27.5583  -37.1797   24.8471 C   0  0  0  0  0  0
  -21.4193  -29.3100   22.3582 N   0  0  0  0  0  0
  -26.4292  -37.3777   23.9423 N   0  0  0  0  0  0
  -24.6908  -31.0585   22.1031 N   0  0  0  0  0  0
  -23.4159  -28.8208   23.2981 O   0  0  0  0  0  0
  -28.3668  -26.5039   20.1228 O   0  0  0  0  0  0
  -26.5562  -34.8904   22.4705 O   0  0  0  0  0  0
  -23.5426  -32.1411   23.7362 O   0  0  0  0  0  0
  -30.4912  -19.2380   19.5941 C   0  0  0  0  0  0
  -28.7738  -20.6274   21.2982 C   0  0  0  0  0  0
  -30.2654  -20.6395   19.4091 C   0  0  0  0  0  0
  -29.9304  -18.5104   20.6759 C   0  0  0  0  0  0
  -29.4254  -21.3871   20.2911 C   0  0  0  0  0  0
  -29.0276  -19.2364   21.4995 C   0  0  0  0  0  0
  -31.0283  -21.3387   18.2971 C   0  0  0  0  0  0
  -29.4018  -22.9693   20.3206 C   0  0  0  0  0  0
  -30.5271  -17.1167   21.1142 C   0  0  0  0  0  0
  -28.2089  -23.8195   19.7165 C   0  0  0  0  0  0
  -28.5013  -25.3218   19.2504 C   0  0  0  0  0  0
  -29.9426  -15.7687   20.7791 N   0  0  0  0  0  0
  -28.4704  -18.6232   22.5697 F   0  0  0  0  0  0
  -31.4561  -12.4938   19.1399 H   0  0  0  0  0  0
  -30.3364  -11.4096   19.9207 H   0  0  0  0  0  0
  -29.7461  -11.7187   17.4855 H   0  0  0  0  0  0
  -29.6179  -13.4465   17.7210 H   0  0  0  0  0  0
  -27.8537  -11.2710   18.8893 H   0  0  0  0  0  0
  -27.3515  -12.5356   17.7982 H   0  0  0  0  0  0
  -27.6459  -14.2427   19.4765 H   0  0  0  0  0  0
  -28.7078  -12.1245   21.4156 H   0  0  0  0  0  0
  -28.4405  -13.8045   21.7969 H   0  0  0  0  0  0
  -25.2776   -9.5683   22.4739 H   0  0  0  0  0  0
  -24.0032   -7.4622   22.7462 H   0  0  0  0  0  0
  -21.0828   -8.8761   19.8968 H   0  0  0  0  0  0
  -22.3674  -10.9672   19.6184 H   0  0  0  0  0  0
  -21.2003   -7.6160   23.9711 H   0  0  0  0  0  0
  -21.1448   -6.0544   25.9073 H   0  0  0  0  0  0
  -22.0621   -2.7629   23.2845 H   0  0  0  0  0  0
  -22.4184  -11.9804   22.4734 H   0  0  0  0  0  0
  -21.1168  -13.1175   22.2734 H   0  0  0  0  0  0
  -24.6597  -15.8476   20.5159 H   0  0  0  0  0  0
  -26.2742  -15.6274   20.0679 H   0  0  0  0  0  0
  -26.7175  -32.5450   23.1130 H   0  0  0  0  0  0
  -25.0159  -33.9698   25.0533 H   0  0  0  0  0  0
  -22.7258  -31.3161   21.3977 H   0  0  0  0  0  0
  -23.3744  -35.9633   23.3303 H   0  0  0  0  0  0
  -24.3554  -36.8907   22.2076 H   0  0  0  0  0  0
  -23.7237  -37.6500   23.6660 H   0  0  0  0  0  0
  -26.1261  -31.5606   20.6403 H   0  0  0  0  0  0
  -26.8349  -30.8081   22.0403 H   0  0  0  0  0  0
  -28.1231  -28.9863   21.1679 H   0  0  0  0  0  0
  -25.9500  -25.8953   19.0651 H   0  0  0  0  0  0
  -23.9588  -27.2911   19.0558 H   0  0  0  0  0  0
  -23.7728  -30.5990   19.4058 H   0  0  0  0  0  0
  -22.7590  -29.2593   19.8527 H   0  0  0  0  0  0
  -25.1267  -36.1985   25.0865 H   0  0  0  0  0  0
  -21.0086  -28.3351   24.1294 H   0  0  0  0  0  0
  -20.5621  -26.2396   23.3616 H   0  0  0  0  0  0
  -21.6631  -26.7417   22.1200 H   0  0  0  0  0  0
  -19.6895  -25.6285   21.1238 H   0  0  0  0  0  0
  -19.6630  -27.3170   20.6687 H   0  0  0  0  0  0
  -17.4198  -26.6725   21.4029 H   0  0  0  0  0  0
  -18.0330  -26.0043   22.8993 H   0  0  0  0  0  0
  -19.7963  -30.7287   24.2226 H   0  0  0  0  0  0
  -17.5052  -31.6259   24.5201 H   0  0  0  0  0  0
  -15.5381  -30.2997   23.7634 H   0  0  0  0  0  0
  -15.8717  -28.0809   22.7085 H   0  0  0  0  0  0
  -24.5940  -30.7048   25.7834 H   0  0  0  0  0  0
  -24.8985  -32.2820   26.4962 H   0  0  0  0  0  0
  -25.8135  -30.8830   27.0246 H   0  0  0  0  0  0
  -26.3090  -29.6624   24.1380 H   0  0  0  0  0  0
  -27.4110  -29.7333   25.4909 H   0  0  0  0  0  0
  -27.8954  -30.4167   23.9595 H   0  0  0  0  0  0
  -27.2582  -33.3667   26.2015 H   0  0  0  0  0  0
  -28.3781  -32.7021   25.0230 H   0  0  0  0  0  0
  -28.0826  -31.8601   26.5362 H   0  0  0  0  0  0
  -28.2595  -38.0100   24.7515 H   0  0  0  0  0  0
  -28.1093  -36.2628   24.6301 H   0  0  0  0  0  0
  -27.2292  -37.1434   25.8873 H   0  0  0  0  0  0
  -20.9377  -29.8830   21.6787 H   0  0  0  0  0  0
  -26.0194  -38.2867   24.1393 H   0  0  0  0  0  0
  -31.1906  -18.7286   18.9458 H   0  0  0  0  0  0
  -28.1324  -21.1343   22.0032 H   0  0  0  0  0  0
  -31.3381  -20.6309   17.5281 H   0  0  0  0  0  0
  -31.9274  -21.8096   18.6936 H   0  0  0  0  0  0
  -30.4173  -22.1033   17.8145 H   0  0  0  0  0  0
  -30.3248  -23.3241   19.8602 H   0  0  0  0  0  0
  -29.5132  -23.2636   21.3653 H   0  0  0  0  0  0
  -30.5616  -17.1435   22.2037 H   0  0  0  0  0  0
  -31.5772  -17.1337   20.8170 H   0  0  0  0  0  0
  -27.3227  -23.7723   20.3495 H   0  0  0  0  0  0
  -27.9224  -23.2956   18.8037 H   0  0  0  0  0  0
  -27.9480  -25.5046   18.3270 H   0  0  0  0  0  0
  -29.5332  -25.3361   18.8987 H   0  0  0  0  0  0
  -28.9591  -15.6443   20.9610 H   0  0  0  0  0  0
  1 25  1  0  0  0
  1 30  2  0  0  0
  1 82  1  0  0  0
  2  3  1  0  0  0
  2 25  1  0  0  0
  2 84  1  0  0  0
  2 85  1  0  0  0
  3  4  1  0  0  0
  3 86  1  0  0  0
  3 87  1  0  0  0
  4  5  1  0  0  0
  4 88  1  0  0  0
  4 89  1  0  0  0
  5  6  1  0  0  0
  5 26  1  0  0  0
  5 90  1  0  0  0
  6 25  1  0  0  0
  6 91  1  0  0  0
  6 92  1  0  0  0
  7  8  2  0  0  0
  7 26  1  0  0  0
  7 29  1  0  0  0
  8  9  1  0  0  0
  8 22  1  0  0  0
  9 10  1  0  0  0
  9 27  2  0  0  0
 10 11  2  0  0  0
 10 15  1  0  0  0
 11 12  1  0  0  0
 11 93  1  0  0  0
 12 13  2  0  0  0
 12 94  1  0  0  0
 13 14  1  0  0  0
 13 31  1  0  0  0
 14 15  2  0  0  0
 14 95  1  0  0  0
 15 96  1  0  0  0
 16 17  2  0  0  0
 16 21  1  0  0  0
 16 31  1  0  0  0
 17 18  1  0  0  0
 17 97  1  0  0  0
 18 19  2  0  0  0
 18 98  1  0  0  0
 19 20  1  0  0  0
 19 24  1  0  0  0
 20 21  2  0  0  0
 20 99  1  0  0  0
 21 23  1  0  0  0
 22 28  1  0  0  0
 22 32  2  0  0  0
 26 27  1  0  0  0
 28100  1  0  0  0
 28101  1  0  0  0
 29102  1  0  0  0
 29103  1  0  0  0
 33 34  1  0  0  0
 33 66  1  0  0  0
 33 70  2  0  0  0
 34 36  1  0  0  0
 34 59  1  0  0  0
 34104  1  0  0  0
 35 44  2  0  0  0
 35 45  1  0  0  0
 35 68  1  0  0  0
 36 56  1  0  0  0
 36105  1  0  0  0
 37 39  1  0  0  0
 37 47  1  0  0  0
 37 66  1  0  0  0
 37106  1  0  0  0
 38 43  2  0  0  0
 38 46  1  0  0  0
 38 47  1  0  0  0
 39 64  1  0  0  0
 39 67  2  0  0  0
 40 52  1  0  0  0
 40 53  2  0  0  0
 40 58  1  0  0  0
 41107  1  0  0  0
 41108  1  0  0  0
 41109  1  0  0  0
 41 48  1  0  0  0
 42 43  1  0  0  0
 42 66  1  0  0  0
 42110  1  0  0  0
 42111  1  0  0  0
 43 44  1  0  0  0
 44112  1  0  0  0
 45 46  2  0  0  0
 45113  1  0  0  0
 46114  1  0  0  0
 47115  1  0  0  0
 47116  1  0  0  0
 48 56  1  0  0  0
 48 65  1  0  0  0
 48117  1  0  0  0
 49 50  1  0  0  0
 49 53  1  0  0  0
 49 64  1  0  0  0
 49118  1  0  0  0
 50 51  1  0  0  0
 50119  1  0  0  0
 50120  1  0  0  0
 51 52  1  0  0  0
 51121  1  0  0  0
 51122  1  0  0  0
 52123  1  0  0  0
 52124  1  0  0  0
 53 54  1  0  0  0
 54 55  2  0  0  0
 54125  1  0  0  0
 55 57  1  0  0  0
 55126  1  0  0  0
 56 69  2  0  0  0
 57 58  2  0  0  0
 57127  1  0  0  0
 58128  1  0  0  0
 59 60  1  0  0  0
 59 61  1  0  0  0
 59 62  1  0  0  0
 60129  1  0  0  0
 60130  1  0  0  0
 60131  1  0  0  0
 61132  1  0  0  0
 61133  1  0  0  0
 61134  1  0  0  0
 62135  1  0  0  0
 62136  1  0  0  0
 62137  1  0  0  0
 63 65  1  0  0  0
 63138  1  0  0  0
 63139  1  0  0  0
 63140  1  0  0  0
 64141  1  0  0  0
 65142  1  0  0  0
 68 81  1  0  0  0
 71 73  2  0  0  0
 71 74  1  0  0  0
 71143  1  0  0  0
 72 75  2  0  0  0
 72 76  1  0  0  0
 72144  1  0  0  0
 73 75  1  0  0  0
 73 77  1  0  0  0
 74 76  2  0  0  0
 74 79  1  0  0  0
 75 78  1  0  0  0
 76 83  1  0  0  0
 77145  1  0  0  0
 77146  1  0  0  0
 77147  1  0  0  0
 78 80  1  0  0  0
 78148  1  0  0  0
 78149  1  0  0  0
 79 82  1  0  0  0
 79150  1  0  0  0
 79151  1  0  0  0
 80 81  1  0  0  0
 80152  1  0  0  0
 80153  1  0  0  0
 81154  1  0  0  0
 81155  1  0  0  0
 82156  1  0  0  0
M  ISO  4   1 100  68 101  81 101  82 100
M  END
> <chiral flag>
0

> <version>
0

> <s_m_source_file>
/data/baiqing/PycharmProjects/Reinvent-master-3.2/result/LINK_invent/BTK/process_docking_weight1_custom_sum_contain_oxygen_bond_distance_aromatic_linkinvent_7_9_3/rearranged_h_0034.sdf

> <i_m_source_file_index>
25

> <r_mmod_Potential_Energy-OPLS-2005>
65.5547256469727

> <r_mmod_Stretch_Energy-OPLS-2005>
79.213623046875

> <r_mmod_Bend_Energy-OPLS-2005>
160.254760742188

> <r_mmod_Torsional_Energy-OPLS-2005>
224.898101806641

> <r_mmod_Improper_Torsional_Energy-OPLS-2005>
7.66377019882202

> <r_mmod_Van_der_Waal_Energy-OPLS-2005>
144.93782043457

> <r_mmod_Electrostatic_Energy-OPLS-2005>
-403.372619628906

> <r_mmod_Solvation_Energy-OPLS-2005>
-197.603408813477

> <b_mmod_Minimization_Converged-OPLS-2005>
0

> <r_mmod_RMS_Derivative-OPLS-2005>
3.93071365356445

$$$$
26
                    3D
 Structure written by MMmdl.
171179  0  0  1  0            999 V2000
  -30.7652  -14.3785   20.6459 C   0  0  0  0  0  0
  -30.4133  -12.2834   19.4001 C   0  0  0  0  0  0
  -29.4841  -12.5156   18.1947 C   0  0  0  0  0  0
  -28.0084  -12.3774   18.6123 C   0  0  0  0  0  0
  -27.6659  -13.2052   19.8790 C   0  0  2  0  0  0
  -28.7053  -12.9599   20.9954 C   0  0  0  0  0  0
  -25.2604  -13.8165   20.5690 C   0  0  0  0  0  0
  -24.1843  -13.0442   20.9173 C   0  0  0  0  0  0
  -24.6395  -11.6912   20.8734 C   0  0  0  0  0  0
  -23.9061  -10.4297   21.0400 C   0  0  0  0  0  0
  -24.3613   -9.4217   21.9183 C   0  0  0  0  0  0
  -23.6291   -8.2248   22.0751 C   0  0  0  0  0  0
  -22.4273   -8.0281   21.3543 C   0  0  0  0  0  0
  -21.9905   -9.0259   20.4647 C   0  0  0  0  0  0
  -22.7230  -10.2139   20.3055 C   0  0  0  0  0  0
  -21.6857   -6.0737   22.5280 C   0  0  0  0  0  0
  -21.4015   -6.5637   23.8213 C   0  0  0  0  0  0
  -21.3656   -5.6789   24.9172 C   0  0  0  0  0  0
  -21.6049   -4.3054   24.7226 C   0  0  0  0  0  0
  -21.8815   -3.8145   23.4344 C   0  0  0  0  0  0
  -21.9193   -4.6963   22.3402 C   0  0  0  0  0  0
  -22.7869  -13.5249   21.1843 C   0  0  0  0  0  0
  -22.1662   -4.2151   21.0981 F   0  0  0  0  0  0
  -21.5627   -3.4538   25.7738 F   0  0  0  0  0  0
  -30.0452  -13.2447   20.4484 N   0  0  0  0  0  0
  -26.3045  -12.9338   20.3382 N   0  0  0  0  0  0
  -25.9323  -11.6499   20.5766 N   0  0  0  0  0  0
  -22.0505  -12.8244   22.0390 N   0  0  0  0  0  0
  -25.4356  -15.1879   20.4121 N   0  0  0  0  0  0
  -31.8324  -14.6102   20.0704 O   0  0  0  0  0  0
  -21.6637   -6.8878   21.4239 O   0  0  0  0  0  0
  -22.3556  -14.5557   20.6690 O   0  0  0  0  0  0
  -24.6111  -31.8716   23.2145 C   0  0  0  0  0  0
  -25.9022  -32.4845   23.8415 C   0  0  1  0  0  0
  -27.2279  -27.4630   20.1031 C   0  0  0  0  0  0
  -25.5920  -33.8643   24.2349 N   0  0  0  0  0  0
  -23.3974  -30.4987   21.5524 C   0  0  2  0  0  0
  -24.8452  -28.9665   20.1141 C   0  0  0  0  0  0
  -22.7399  -29.4683   22.4975 C   0  0  0  0  0  0
  -18.0285  -28.1411   22.8503 C   0  0  0  0  0  0
  -24.1481  -36.7306   23.2641 C   0  0  0  0  0  0
  -25.9236  -30.8417   21.3681 C   0  0  0  0  0  0
  -25.9990  -29.4772   20.7217 C   0  0  0  0  0  0
  -27.1945  -28.7289   20.7252 C   0  0  0  0  0  0
  -26.0685  -26.9677   19.4747 C   0  0  0  0  0  0
  -24.8706  -27.7064   19.4907 C   0  0  0  0  0  0
  -23.6068  -29.8333   20.1638 C   0  0  0  0  0  0
  -25.4102  -36.3119   24.0354 C   0  0  1  0  0  0
  -20.5883  -28.3700   23.1323 C   0  0  2  0  0  0
  -20.6783  -26.9444   22.5420 C   0  0  0  0  0  0
  -19.5759  -26.6437   21.5229 C   0  0  0  0  0  0
  -18.1943  -26.7963   22.1637 C   0  0  0  0  0  0
  -19.1533  -28.8867   23.2925 C   0  0  0  0  0  0
  -18.9456  -30.1465   23.8944 C   0  0  0  0  0  0
  -17.6461  -30.6602   24.0596 C   0  0  0  0  0  0
  -25.9038  -34.9492   23.5140 C   0  0  0  0  0  0
  -16.5354  -29.9126   23.6312 C   0  0  0  0  0  0
  -16.7279  -28.6547   23.0329 C   0  0  0  0  0  0
  -26.4471  -31.6603   25.0712 C   0  0  0  0  0  0
  -25.3758  -31.3718   26.1475 C   0  0  0  0  0  0
  -27.0282  -30.3044   24.6053 C   0  0  0  0  0  0
  -27.6063  -32.4306   25.7459 C   0  0  0  0  0  0
  -27.5580  -37.1804   24.8468 C   0  0  0  0  0  0
  -21.4136  -29.3055   22.3703 N   0  0  0  0  0  0
  -26.4278  -37.3807   23.9430 N   0  0  0  0  0  0
  -24.6617  -31.0853   22.1034 N   0  0  0  0  0  0
  -23.4186  -28.8248   23.3035 O   0  0  0  0  0  0
  -28.3746  -26.7118   20.0729 O   0  0  0  0  0  0
  -26.5585  -34.8940   22.4695 O   0  0  0  0  0  0
  -23.5316  -32.1433   23.7562 O   0  0  0  0  0  0
  -27.6145  -24.7382   23.1383 C   0  0  0  0  0  0
  -27.2524  -24.1431   20.8077 C   0  0  0  0  0  0
  -27.8389  -24.9908   21.7692 C   0  0  0  0  0  0
  -26.8163  -23.6493   23.5438 C   0  0  0  0  0  0
  -26.4221  -23.0696   21.1937 C   0  0  0  0  0  0
  -26.2178  -22.8074   22.5738 C   0  0  0  0  0  0
  -26.5954  -23.3935   25.0255 C   0  0  0  0  0  0
  -25.7233  -22.2660   20.1003 C   0  0  0  0  0  0
  -28.7395  -26.1403   21.3321 C   0  0  0  0  0  0
  -26.6670  -21.5740   19.1021 C   0  0  0  0  0  0
  -27.6274  -20.5567   19.7410 C   0  0  0  0  0  0
  -28.3359  -19.6875   18.6841 C   0  0  0  0  0  0
  -29.6581  -19.0828   19.1771 C   0  0  0  0  0  0
  -29.5139  -17.9836   20.2439 C   0  0  0  0  0  0
  -30.8903  -17.5833   20.8047 C   0  0  0  0  0  0
  -30.8523  -16.5177   21.9186 C   0  0  0  0  0  0
  -30.2369  -15.2570   21.5050 N   0  0  0  0  0  0
  -25.2482  -21.4697   23.0946 Cl  0  0  0  0  0  0
  -31.4574  -12.3732   19.0952 H   0  0  0  0  0  0
  -30.3043  -11.2657   19.7777 H   0  0  0  0  0  0
  -29.7149  -11.8054   17.4004 H   0  0  0  0  0  0
  -29.6595  -13.5085   17.7784 H   0  0  0  0  0  0
  -27.8142  -11.3208   18.7983 H   0  0  0  0  0  0
  -27.3553  -12.6652   17.7881 H   0  0  0  0  0  0
  -27.7210  -14.2578   19.6004 H   0  0  0  0  0  0
  -28.6661  -11.9208   21.3265 H   0  0  0  0  0  0
  -28.4592  -13.5498   21.8792 H   0  0  0  0  0  0
  -25.2761   -9.5688   22.4755 H   0  0  0  0  0  0
  -24.0005   -7.4633   22.7467 H   0  0  0  0  0  0
  -21.0836   -8.8779   19.8955 H   0  0  0  0  0  0
  -22.3694  -10.9677   19.6159 H   0  0  0  0  0  0
  -21.2006   -7.6147   23.9715 H   0  0  0  0  0  0
  -21.1484   -6.0521   25.9076 H   0  0  0  0  0  0
  -22.0597   -2.7610   23.2846 H   0  0  0  0  0  0
  -22.4109  -11.9902   22.4780 H   0  0  0  0  0  0
  -21.1127  -13.1276   22.2595 H   0  0  0  0  0  0
  -24.6781  -15.8517   20.5324 H   0  0  0  0  0  0
  -26.3018  -15.6241   20.1205 H   0  0  0  0  0  0
  -26.7104  -32.5581   23.1197 H   0  0  0  0  0  0
  -25.0075  -33.9812   25.0495 H   0  0  0  0  0  0
  -22.6846  -31.3163   21.4174 H   0  0  0  0  0  0
  -23.3741  -35.9632   23.3301 H   0  0  0  0  0  0
  -24.3563  -36.8901   22.2046 H   0  0  0  0  0  0
  -23.7215  -37.6513   23.6632 H   0  0  0  0  0  0
  -26.0345  -31.5978   20.5909 H   0  0  0  0  0  0
  -26.8126  -30.8985   21.9824 H   0  0  0  0  0  0
  -28.0842  -29.1187   21.1980 H   0  0  0  0  0  0
  -26.0850  -26.0095   18.9784 H   0  0  0  0  0  0
  -23.9860  -27.3049   19.0160 H   0  0  0  0  0  0
  -23.7225  -30.6093   19.4074 H   0  0  0  0  0  0
  -22.7301  -29.2570   19.8637 H   0  0  0  0  0  0
  -25.1271  -36.1986   25.0845 H   0  0  0  0  0  0
  -20.9999  -28.3272   24.1431 H   0  0  0  0  0  0
  -20.5741  -26.2317   23.3612 H   0  0  0  0  0  0
  -21.6667  -26.7508   22.1224 H   0  0  0  0  0  0
  -19.6932  -25.6376   21.1211 H   0  0  0  0  0  0
  -19.6694  -27.3283   20.6802 H   0  0  0  0  0  0
  -17.4241  -26.6739   21.4008 H   0  0  0  0  0  0
  -18.0327  -26.0075   22.9007 H   0  0  0  0  0  0
  -19.7916  -30.7288   24.2334 H   0  0  0  0  0  0
  -17.5004  -31.6276   24.5220 H   0  0  0  0  0  0
  -15.5360  -30.3076   23.7566 H   0  0  0  0  0  0
  -15.8679  -28.0899   22.6993 H   0  0  0  0  0  0
  -24.5973  -30.7007   25.7834 H   0  0  0  0  0  0
  -24.8910  -32.2882   26.4856 H   0  0  0  0  0  0
  -25.8149  -30.8955   27.0254 H   0  0  0  0  0  0
  -26.2800  -29.6829   24.1114 H   0  0  0  0  0  0
  -27.4070  -29.7256   25.4487 H   0  0  0  0  0  0
  -27.8641  -30.4354   23.9169 H   0  0  0  0  0  0
  -27.2727  -33.3657   26.1961 H   0  0  0  0  0  0
  -28.3913  -32.6768   25.0300 H   0  0  0  0  0  0
  -28.0667  -31.8461   26.5427 H   0  0  0  0  0  0
  -28.2610  -38.0094   24.7560 H   0  0  0  0  0  0
  -28.1077  -36.2649   24.6245 H   0  0  0  0  0  0
  -27.2321  -37.1403   25.8875 H   0  0  0  0  0  0
  -20.9312  -29.8728   21.6878 H   0  0  0  0  0  0
  -26.0171  -38.2880   24.1454 H   0  0  0  0  0  0
  -28.0683  -25.3847   23.8804 H   0  0  0  0  0  0
  -27.4254  -24.3381   19.7589 H   0  0  0  0  0  0
  -27.0676  -24.1583   25.6425 H   0  0  0  0  0  0
  -27.0077  -22.4254   25.3128 H   0  0  0  0  0  0
  -25.5292  -23.3936   25.2566 H   0  0  0  0  0  0
  -25.0863  -22.9616   19.5540 H   0  0  0  0  0  0
  -25.0407  -21.5247   20.5087 H   0  0  0  0  0  0
  -29.7526  -25.7468   21.2448 H   0  0  0  0  0  0
  -28.7785  -26.9074   22.1083 H   0  0  0  0  0  0
  -27.2438  -22.3254   18.5619 H   0  0  0  0  0  0
  -26.0569  -21.0717   18.3495 H   0  0  0  0  0  0
  -27.0844  -19.9164   20.4368 H   0  0  0  0  0  0
  -28.3654  -21.0945   20.3382 H   0  0  0  0  0  0
  -28.5579  -20.3017   17.8094 H   0  0  0  0  0  0
  -27.6654  -18.9027   18.3306 H   0  0  0  0  0  0
  -30.2889  -19.8875   19.5579 H   0  0  0  0  0  0
  -30.1945  -18.6690   18.3213 H   0  0  0  0  0  0
  -29.0141  -17.1161   19.8108 H   0  0  0  0  0  0
  -28.8810  -18.3315   21.0605 H   0  0  0  0  0  0
  -31.3813  -18.4714   21.2055 H   0  0  0  0  0  0
  -31.5320  -17.2452   19.9895 H   0  0  0  0  0  0
  -30.3074  -16.9028   22.7810 H   0  0  0  0  0  0
  -31.8684  -16.3206   22.2680 H   0  0  0  0  0  0
  -29.3636  -15.0015   21.9423 H   0  0  0  0  0  0
  1 25  1  0  0  0
  1 30  2  0  0  0
  1 87  1  0  0  0
  2  3  1  0  0  0
  2 25  1  0  0  0
  2 89  1  0  0  0
  2 90  1  0  0  0
  3  4  1  0  0  0
  3 91  1  0  0  0
  3 92  1  0  0  0
  4  5  1  0  0  0
  4 93  1  0  0  0
  4 94  1  0  0  0
  5  6  1  0  0  0
  5 26  1  0  0  0
  5 95  1  0  0  0
  6 25  1  0  0  0
  6 96  1  0  0  0
  6 97  1  0  0  0
  7  8  2  0  0  0
  7 26  1  0  0  0
  7 29  1  0  0  0
  8  9  1  0  0  0
  8 22  1  0  0  0
  9 10  1  0  0  0
  9 27  2  0  0  0
 10 11  2  0  0  0
 10 15  1  0  0  0
 11 12  1  0  0  0
 11 98  1  0  0  0
 12 13  2  0  0  0
 12 99  1  0  0  0
 13 14  1  0  0  0
 13 31  1  0  0  0
 14 15  2  0  0  0
 14100  1  0  0  0
 15101  1  0  0  0
 16 17  2  0  0  0
 16 21  1  0  0  0
 16 31  1  0  0  0
 17 18  1  0  0  0
 17102  1  0  0  0
 18 19  2  0  0  0
 18103  1  0  0  0
 19 20  1  0  0  0
 19 24  1  0  0  0
 20 21  2  0  0  0
 20104  1  0  0  0
 21 23  1  0  0  0
 22 28  1  0  0  0
 22 32  2  0  0  0
 26 27  1  0  0  0
 28105  1  0  0  0
 28106  1  0  0  0
 29107  1  0  0  0
 29108  1  0  0  0
 33 34  1  0  0  0
 33 66  1  0  0  0
 33 70  2  0  0  0
 34 36  1  0  0  0
 34 59  1  0  0  0
 34109  1  0  0  0
 35 44  2  0  0  0
 35 45  1  0  0  0
 35 68  1  0  0  0
 36 56  1  0  0  0
 36110  1  0  0  0
 37 39  1  0  0  0
 37 47  1  0  0  0
 37 66  1  0  0  0
 37111  1  0  0  0
 38 43  2  0  0  0
 38 46  1  0  0  0
 38 47  1  0  0  0
 39 64  1  0  0  0
 39 67  2  0  0  0
 40 52  1  0  0  0
 40 53  2  0  0  0
 40 58  1  0  0  0
 41112  1  0  0  0
 41113  1  0  0  0
 41114  1  0  0  0
 41 48  1  0  0  0
 42 43  1  0  0  0
 42 66  1  0  0  0
 42115  1  0  0  0
 42116  1  0  0  0
 43 44  1  0  0  0
 44117  1  0  0  0
 45 46  2  0  0  0
 45118  1  0  0  0
 46119  1  0  0  0
 47120  1  0  0  0
 47121  1  0  0  0
 48 56  1  0  0  0
 48 65  1  0  0  0
 48122  1  0  0  0
 49 50  1  0  0  0
 49 53  1  0  0  0
 49 64  1  0  0  0
 49123  1  0  0  0
 50 51  1  0  0  0
 50124  1  0  0  0
 50125  1  0  0  0
 51 52  1  0  0  0
 51126  1  0  0  0
 51127  1  0  0  0
 52128  1  0  0  0
 52129  1  0  0  0
 53 54  1  0  0  0
 54 55  2  0  0  0
 54130  1  0  0  0
 55 57  1  0  0  0
 55131  1  0  0  0
 56 69  2  0  0  0
 57 58  2  0  0  0
 57132  1  0  0  0
 58133  1  0  0  0
 59 60  1  0  0  0
 59 61  1  0  0  0
 59 62  1  0  0  0
 60134  1  0  0  0
 60135  1  0  0  0
 60136  1  0  0  0
 61137  1  0  0  0
 61138  1  0  0  0
 61139  1  0  0  0
 62140  1  0  0  0
 62141  1  0  0  0
 62142  1  0  0  0
 63 65  1  0  0  0
 63143  1  0  0  0
 63144  1  0  0  0
 63145  1  0  0  0
 64146  1  0  0  0
 65147  1  0  0  0
 68 79  1  0  0  0
 71 73  2  0  0  0
 71 74  1  0  0  0
 71148  1  0  0  0
 72 73  1  0  0  0
 72 75  2  0  0  0
 72149  1  0  0  0
 73 79  1  0  0  0
 74 76  2  0  0  0
 74 77  1  0  0  0
 75 76  1  0  0  0
 75 78  1  0  0  0
 76 88  1  0  0  0
 77150  1  0  0  0
 77151  1  0  0  0
 77152  1  0  0  0
 78 80  1  0  0  0
 78153  1  0  0  0
 78154  1  0  0  0
 79155  1  0  0  0
 79156  1  0  0  0
 80 81  1  0  0  0
 80157  1  0  0  0
 80158  1  0  0  0
 81 82  1  0  0  0
 81159  1  0  0  0
 81160  1  0  0  0
 82 83  1  0  0  0
 82161  1  0  0  0
 82162  1  0  0  0
 83 84  1  0  0  0
 83163  1  0  0  0
 83164  1  0  0  0
 84 85  1  0  0  0
 84165  1  0  0  0
 84166  1  0  0  0
 85 86  1  0  0  0
 85167  1  0  0  0
 85168  1  0  0  0
 86 87  1  0  0  0
 86169  1  0  0  0
 86170  1  0  0  0
 87171  1  0  0  0
M  ISO  4   1 100  68 101  79 101  87 100
M  END
> <chiral flag>
0

> <version>
0

> <s_m_source_file>
/data/baiqing/PycharmProjects/Reinvent-master-3.2/result/LINK_invent/BTK/process_docking_weight1_custom_sum_contain_oxygen_bond_distance_aromatic_linkinvent_7_9_3/rearranged_h_0034.sdf

> <i_m_source_file_index>
26

> <r_mmod_Potential_Energy-OPLS-2005>
-46.4645233154297

> <r_mmod_Stretch_Energy-OPLS-2005>
32.3724403381348

> <r_mmod_Bend_Energy-OPLS-2005>
88.9489974975586

> <r_mmod_Torsional_Energy-OPLS-2005>
229.290679931641

> <r_mmod_Improper_Torsional_Energy-OPLS-2005>
1.7428640127182

> <r_mmod_Van_der_Waal_Energy-OPLS-2005>
146.346603393555

> <r_mmod_Electrostatic_Energy-OPLS-2005>
-360.087524414062

> <r_mmod_Solvation_Energy-OPLS-2005>
-192.829986572266

> <b_mmod_Minimization_Converged-OPLS-2005>
0

> <r_mmod_RMS_Derivative-OPLS-2005>
3.04016089439392

$$$$
27
                    3D
 Structure written by MMmdl.
159167  0  0  1  0            999 V2000
  -30.7265  -14.4547   20.5944 C   0  0  0  0  0  0
  -30.4201  -12.3104   19.4101 C   0  0  0  0  0  0
  -29.4880  -12.5090   18.1986 C   0  0  0  0  0  0
  -28.0113  -12.3649   18.6159 C   0  0  0  0  0  0
  -27.6608  -13.2073   19.8718 C   0  0  2  0  0  0
  -28.7045  -12.9884   20.9891 C   0  0  0  0  0  0
  -25.2589  -13.8173   20.5673 C   0  0  0  0  0  0
  -24.1834  -13.0444   20.9174 C   0  0  0  0  0  0
  -24.6388  -11.6917   20.8737 C   0  0  0  0  0  0
  -23.9058  -10.4298   21.0407 C   0  0  0  0  0  0
  -24.3611   -9.4211   21.9184 C   0  0  0  0  0  0
  -23.6287   -8.2244   22.0754 C   0  0  0  0  0  0
  -22.4271   -8.0277   21.3541 C   0  0  0  0  0  0
  -21.9907   -9.0254   20.4645 C   0  0  0  0  0  0
  -22.7235  -10.2136   20.3054 C   0  0  0  0  0  0
  -21.6853   -6.0734   22.5276 C   0  0  0  0  0  0
  -21.4010   -6.5636   23.8210 C   0  0  0  0  0  0
  -21.3659   -5.6789   24.9172 C   0  0  0  0  0  0
  -21.6051   -4.3053   24.7222 C   0  0  0  0  0  0
  -21.8819   -3.8146   23.4342 C   0  0  0  0  0  0
  -21.9190   -4.6964   22.3398 C   0  0  0  0  0  0
  -22.7858  -13.5245   21.1834 C   0  0  0  0  0  0
  -22.1659   -4.2147   21.0977 F   0  0  0  0  0  0
  -21.5632   -3.4539   25.7738 F   0  0  0  0  0  0
  -30.0344  -13.2935   20.4344 N   0  0  0  0  0  0
  -26.3019  -12.9340   20.3361 N   0  0  0  0  0  0
  -25.9313  -11.6499   20.5763 N   0  0  0  0  0  0
  -22.0491  -12.8236   22.0390 N   0  0  0  0  0  0
  -25.4326  -15.1881   20.4069 N   0  0  0  0  0  0
  -31.8412  -14.6439   20.1039 O   0  0  0  0  0  0
  -21.6634   -6.8872   21.4236 O   0  0  0  0  0  0
  -22.3547  -14.5550   20.6686 O   0  0  0  0  0  0
  -24.6159  -31.8651   23.2079 C   0  0  0  0  0  0
  -25.9027  -32.4808   23.8383 C   0  0  1  0  0  0
  -27.2332  -27.4046   20.1193 C   0  0  0  0  0  0
  -25.5894  -33.8617   24.2307 N   0  0  0  0  0  0
  -23.4080  -30.4889   21.5492 C   0  0  2  0  0  0
  -24.8525  -28.9501   20.1183 C   0  0  0  0  0  0
  -22.7409  -29.4658   22.4977 C   0  0  0  0  0  0
  -18.0269  -28.1378   22.8487 C   0  0  0  0  0  0
  -24.1499  -36.7307   23.2640 C   0  0  0  0  0  0
  -25.9378  -30.8256   21.3630 C   0  0  0  0  0  0
  -26.0145  -29.4585   20.7100 C   0  0  0  0  0  0
  -27.2081  -28.6950   20.7033 C   0  0  0  0  0  0
  -26.0491  -26.9200   19.5171 C   0  0  0  0  0  0
  -24.8652  -27.6794   19.5196 C   0  0  0  0  0  0
  -23.6137  -29.8155   20.1668 C   0  0  0  0  0  0
  -25.4121  -36.3113   24.0341 C   0  0  1  0  0  0
  -20.5871  -28.3665   23.1306 C   0  0  2  0  0  0
  -20.6759  -26.9391   22.5424 C   0  0  0  0  0  0
  -19.5730  -26.6378   21.5227 C   0  0  0  0  0  0
  -18.1906  -26.7928   22.1632 C   0  0  0  0  0  0
  -19.1527  -28.8830   23.2891 C   0  0  0  0  0  0
  -18.9462  -30.1437   23.8895 C   0  0  0  0  0  0
  -17.6469  -30.6579   24.0560 C   0  0  0  0  0  0
  -25.9051  -34.9473   23.5126 C   0  0  0  0  0  0
  -16.5347  -29.9078   23.6347 C   0  0  0  0  0  0
  -16.7264  -28.6505   23.0351 C   0  0  0  0  0  0
  -26.4441  -31.6607   25.0728 C   0  0  0  0  0  0
  -25.3715  -31.3741   26.1491 C   0  0  0  0  0  0
  -27.0263  -30.3053   24.6103 C   0  0  0  0  0  0
  -27.5998  -32.4348   25.7503 C   0  0  0  0  0  0
  -27.5591  -37.1799   24.8461 C   0  0  0  0  0  0
  -21.4138  -29.3040   22.3710 N   0  0  0  0  0  0
  -26.4299  -37.3798   23.9412 N   0  0  0  0  0  0
  -24.6728  -31.0743   22.0988 N   0  0  0  0  0  0
  -23.4166  -28.8183   23.3012 O   0  0  0  0  0  0
  -28.3933  -26.6459   20.1642 O   0  0  0  0  0  0
  -26.5608  -34.8920   22.4689 O   0  0  0  0  0  0
  -23.5341  -32.1410   23.7441 O   0  0  0  0  0  0
  -28.8944  -20.6697   21.3797 C   0  0  0  0  0  0
  -30.0129  -22.2780   19.3833 C   0  0  0  0  0  0
  -28.8719  -22.0778   21.5203 C   0  0  0  0  0  0
  -29.4907  -20.0453   20.2628 C   0  0  0  0  0  0
  -29.4362  -22.9060   20.5146 C   0  0  0  0  0  0
  -30.0519  -20.8686   19.2557 C   0  0  0  0  0  0
  -28.2583  -22.6629   22.7818 C   0  0  0  0  0  0
  -29.4794  -18.5088   20.1643 C   0  0  0  0  0  0
  -29.5042  -24.4437   20.6427 C   0  0  0  0  0  0
  -30.8004  -17.8144   20.5856 C   0  0  0  0  0  0
  -30.6740  -16.7186   21.6800 C   0  0  0  0  0  0
  -28.2339  -25.2085   20.1829 C   0  0  0  0  0  0
  -30.0887  -15.4353   21.2580 N   0  0  0  0  0  0
  -30.7963  -20.1784   17.8553 Cl  0  0  0  0  0  0
  -31.4631  -12.4093   19.1041 H   0  0  0  0  0  0
  -30.3242  -11.2989   19.8077 H   0  0  0  0  0  0
  -29.7267  -11.7876   17.4158 H   0  0  0  0  0  0
  -29.6512  -13.4976   17.7654 H   0  0  0  0  0  0
  -27.8248  -11.3087   18.8145 H   0  0  0  0  0  0
  -27.3566  -12.6360   17.7865 H   0  0  0  0  0  0
  -27.7046  -14.2553   19.5744 H   0  0  0  0  0  0
  -28.6809  -11.9505   21.3244 H   0  0  0  0  0  0
  -28.4647  -13.5827   21.8716 H   0  0  0  0  0  0
  -25.2756   -9.5684   22.4758 H   0  0  0  0  0  0
  -23.9999   -7.4632   22.7472 H   0  0  0  0  0  0
  -21.0840   -8.8770   19.8942 H   0  0  0  0  0  0
  -22.3696  -10.9672   19.6158 H   0  0  0  0  0  0
  -21.1999   -7.6143   23.9709 H   0  0  0  0  0  0
  -21.1484   -6.0522   25.9074 H   0  0  0  0  0  0
  -22.0599   -2.7609   23.2845 H   0  0  0  0  0  0
  -22.4096  -11.9894   22.4781 H   0  0  0  0  0  0
  -21.1102  -13.1264   22.2580 H   0  0  0  0  0  0
  -24.6713  -15.8495   20.5132 H   0  0  0  0  0  0
  -26.2905  -15.6209   20.0888 H   0  0  0  0  0  0
  -26.7080  -32.5531   23.1134 H   0  0  0  0  0  0
  -25.0056  -33.9772   25.0461 H   0  0  0  0  0  0
  -22.7007  -31.3085   21.4040 H   0  0  0  0  0  0
  -23.3755  -35.9647   23.3317 H   0  0  0  0  0  0
  -24.3591  -36.8916   22.2051 H   0  0  0  0  0  0
  -23.7248  -37.6519   23.6639 H   0  0  0  0  0  0
  -26.0511  -31.5917   20.5934 H   0  0  0  0  0  0
  -26.8247  -30.8780   21.9839 H   0  0  0  0  0  0
  -28.1017  -29.0782   21.1752 H   0  0  0  0  0  0
  -26.0151  -25.9461   19.0504 H   0  0  0  0  0  0
  -23.9704  -27.2721   19.0683 H   0  0  0  0  0  0
  -23.7156  -30.5844   19.4003 H   0  0  0  0  0  0
  -22.7378  -29.2299   19.8807 H   0  0  0  0  0  0
  -25.1288  -36.1982   25.0831 H   0  0  0  0  0  0
  -20.9953  -28.3223   24.1433 H   0  0  0  0  0  0
  -20.5698  -26.2255   23.3617 H   0  0  0  0  0  0
  -21.6618  -26.7453   22.1192 H   0  0  0  0  0  0
  -19.6911  -25.6298   21.1236 H   0  0  0  0  0  0
  -19.6672  -27.3204   20.6771 H   0  0  0  0  0  0
  -17.4190  -26.6681   21.4014 H   0  0  0  0  0  0
  -18.0257  -26.0083   22.9033 H   0  0  0  0  0  0
  -19.7955  -30.7232   24.2248 H   0  0  0  0  0  0
  -17.5047  -31.6273   24.5130 H   0  0  0  0  0  0
  -15.5351  -30.2966   23.7702 H   0  0  0  0  0  0
  -15.8671  -28.0830   22.7043 H   0  0  0  0  0  0
  -24.5869  -30.7089   25.7865 H   0  0  0  0  0  0
  -24.8921  -32.2912   26.4929 H   0  0  0  0  0  0
  -25.8084  -30.8943   27.0259 H   0  0  0  0  0  0
  -26.2817  -29.6839   24.1117 H   0  0  0  0  0  0
  -27.3986  -29.7253   25.4554 H   0  0  0  0  0  0
  -27.8665  -30.4368   23.9281 H   0  0  0  0  0  0
  -27.2579  -33.3630   26.2080 H   0  0  0  0  0  0
  -28.3800  -32.6941   25.0340 H   0  0  0  0  0  0
  -28.0657  -31.8489   26.5428 H   0  0  0  0  0  0
  -28.2580  -38.0120   24.7536 H   0  0  0  0  0  0
  -28.1102  -36.2645   24.6242 H   0  0  0  0  0  0
  -27.2301  -37.1414   25.8859 H   0  0  0  0  0  0
  -20.9263  -29.8805   21.6994 H   0  0  0  0  0  0
  -26.0187  -38.2876   24.1423 H   0  0  0  0  0  0
  -28.4504  -20.0512   22.1488 H   0  0  0  0  0  0
  -30.4513  -22.8828   18.6026 H   0  0  0  0  0  0
  -27.7488  -21.8930   23.3621 H   0  0  0  0  0  0
  -27.5211  -23.4270   22.5457 H   0  0  0  0  0  0
  -29.0291  -23.1002   23.4168 H   0  0  0  0  0  0
  -29.2261  -18.2191   19.1438 H   0  0  0  0  0  0
  -28.6561  -18.1240   20.7666 H   0  0  0  0  0  0
  -30.3590  -24.7958   20.0650 H   0  0  0  0  0  0
  -29.7385  -24.7027   21.6767 H   0  0  0  0  0  0
  -31.4829  -18.5741   20.9695 H   0  0  0  0  0  0
  -31.3029  -17.4138   19.7037 H   0  0  0  0  0  0
  -30.0880  -17.1066   22.5142 H   0  0  0  0  0  0
  -31.6647  -16.5186   22.0937 H   0  0  0  0  0  0
  -27.4125  -24.9464   20.8518 H   0  0  0  0  0  0
  -27.9621  -24.8644   19.1860 H   0  0  0  0  0  0
  -29.1675  -15.2140   21.6043 H   0  0  0  0  0  0
  1 25  1  0  0  0
  1 30  2  0  0  0
  1 83  1  0  0  0
  2  3  1  0  0  0
  2 25  1  0  0  0
  2 85  1  0  0  0
  2 86  1  0  0  0
  3  4  1  0  0  0
  3 87  1  0  0  0
  3 88  1  0  0  0
  4  5  1  0  0  0
  4 89  1  0  0  0
  4 90  1  0  0  0
  5  6  1  0  0  0
  5 26  1  0  0  0
  5 91  1  0  0  0
  6 25  1  0  0  0
  6 92  1  0  0  0
  6 93  1  0  0  0
  7  8  2  0  0  0
  7 26  1  0  0  0
  7 29  1  0  0  0
  8  9  1  0  0  0
  8 22  1  0  0  0
  9 10  1  0  0  0
  9 27  2  0  0  0
 10 11  2  0  0  0
 10 15  1  0  0  0
 11 12  1  0  0  0
 11 94  1  0  0  0
 12 13  2  0  0  0
 12 95  1  0  0  0
 13 14  1  0  0  0
 13 31  1  0  0  0
 14 15  2  0  0  0
 14 96  1  0  0  0
 15 97  1  0  0  0
 16 17  2  0  0  0
 16 21  1  0  0  0
 16 31  1  0  0  0
 17 18  1  0  0  0
 17 98  1  0  0  0
 18 19  2  0  0  0
 18 99  1  0  0  0
 19 20  1  0  0  0
 19 24  1  0  0  0
 20 21  2  0  0  0
 20100  1  0  0  0
 21 23  1  0  0  0
 22 28  1  0  0  0
 22 32  2  0  0  0
 26 27  1  0  0  0
 28101  1  0  0  0
 28102  1  0  0  0
 29103  1  0  0  0
 29104  1  0  0  0
 33 34  1  0  0  0
 33 66  1  0  0  0
 33 70  2  0  0  0
 34 36  1  0  0  0
 34 59  1  0  0  0
 34105  1  0  0  0
 35 44  2  0  0  0
 35 45  1  0  0  0
 35 68  1  0  0  0
 36 56  1  0  0  0
 36106  1  0  0  0
 37 39  1  0  0  0
 37 47  1  0  0  0
 37 66  1  0  0  0
 37107  1  0  0  0
 38 43  2  0  0  0
 38 46  1  0  0  0
 38 47  1  0  0  0
 39 64  1  0  0  0
 39 67  2  0  0  0
 40 52  1  0  0  0
 40 53  2  0  0  0
 40 58  1  0  0  0
 41108  1  0  0  0
 41109  1  0  0  0
 41110  1  0  0  0
 41 48  1  0  0  0
 42 43  1  0  0  0
 42 66  1  0  0  0
 42111  1  0  0  0
 42112  1  0  0  0
 43 44  1  0  0  0
 44113  1  0  0  0
 45 46  2  0  0  0
 45114  1  0  0  0
 46115  1  0  0  0
 47116  1  0  0  0
 47117  1  0  0  0
 48 56  1  0  0  0
 48 65  1  0  0  0
 48118  1  0  0  0
 49 50  1  0  0  0
 49 53  1  0  0  0
 49 64  1  0  0  0
 49119  1  0  0  0
 50 51  1  0  0  0
 50120  1  0  0  0
 50121  1  0  0  0
 51 52  1  0  0  0
 51122  1  0  0  0
 51123  1  0  0  0
 52124  1  0  0  0
 52125  1  0  0  0
 53 54  1  0  0  0
 54 55  2  0  0  0
 54126  1  0  0  0
 55 57  1  0  0  0
 55127  1  0  0  0
 56 69  2  0  0  0
 57 58  2  0  0  0
 57128  1  0  0  0
 58129  1  0  0  0
 59 60  1  0  0  0
 59 61  1  0  0  0
 59 62  1  0  0  0
 60130  1  0  0  0
 60131  1  0  0  0
 60132  1  0  0  0
 61133  1  0  0  0
 61134  1  0  0  0
 61135  1  0  0  0
 62136  1  0  0  0
 62137  1  0  0  0
 62138  1  0  0  0
 63 65  1  0  0  0
 63139  1  0  0  0
 63140  1  0  0  0
 63141  1  0  0  0
 64142  1  0  0  0
 65143  1  0  0  0
 68 82  1  0  0  0
 71 73  2  0  0  0
 71 74  1  0  0  0
 71144  1  0  0  0
 72 75  2  0  0  0
 72 76  1  0  0  0
 72145  1  0  0  0
 73 75  1  0  0  0
 73 77  1  0  0  0
 74 76  2  0  0  0
 74 78  1  0  0  0
 75 79  1  0  0  0
 76 84  1  0  0  0
 77146  1  0  0  0
 77147  1  0  0  0
 77148  1  0  0  0
 78 80  1  0  0  0
 78149  1  0  0  0
 78150  1  0  0  0
 79 82  1  0  0  0
 79151  1  0  0  0
 79152  1  0  0  0
 80 81  1  0  0  0
 80153  1  0  0  0
 80154  1  0  0  0
 81 83  1  0  0  0
 81155  1  0  0  0
 81156  1  0  0  0
 82157  1  0  0  0
 82158  1  0  0  0
 83159  1  0  0  0
M  ISO  4   1 100  68 101  82 101  83 100
M  END
> <chiral flag>
0

> <version>
0

> <s_m_source_file>
/data/baiqing/PycharmProjects/Reinvent-master-3.2/result/LINK_invent/BTK/process_docking_weight1_custom_sum_contain_oxygen_bond_distance_aromatic_linkinvent_7_9_3/rearranged_h_0034.sdf

> <i_m_source_file_index>
27

> <r_mmod_Potential_Energy-OPLS-2005>
-53.268726348877

> <r_mmod_Stretch_Energy-OPLS-2005>
40.8587188720703

> <r_mmod_Bend_Energy-OPLS-2005>
96.5165939331055

> <r_mmod_Torsional_Energy-OPLS-2005>
211.676025390625

> <r_mmod_Improper_Torsional_Energy-OPLS-2005>
2.50307965278625

> <r_mmod_Van_der_Waal_Energy-OPLS-2005>
149.186294555664

> <r_mmod_Electrostatic_Energy-OPLS-2005>
-364.485961914062

> <r_mmod_Solvation_Energy-OPLS-2005>
-204.53742980957

> <b_mmod_Minimization_Converged-OPLS-2005>
0

> <r_mmod_RMS_Derivative-OPLS-2005>
2.6061577796936

$$$$
28
                    3D
 Structure written by MMmdl.
160168  0  0  1  0            999 V2000
  -30.6976  -14.4429   20.5855 C   0  0  0  0  0  0
  -30.4207  -12.2905   19.4141 C   0  0  0  0  0  0
  -29.4937  -12.5084   18.2010 C   0  0  0  0  0  0
  -28.0131  -12.3697   18.6101 C   0  0  0  0  0  0
  -27.6610  -13.2033   19.8706 C   0  0  2  0  0  0
  -28.7015  -12.9815   20.9910 C   0  0  0  0  0  0
  -25.2600  -13.8156   20.5672 C   0  0  0  0  0  0
  -24.1848  -13.0433   20.9168 C   0  0  0  0  0  0
  -24.6392  -11.6899   20.8724 C   0  0  0  0  0  0
  -23.9059  -10.4287   21.0407 C   0  0  0  0  0  0
  -24.3613   -9.4204   21.9184 C   0  0  0  0  0  0
  -23.6289   -8.2239   22.0751 C   0  0  0  0  0  0
  -22.4269   -8.0282   21.3545 C   0  0  0  0  0  0
  -21.9906   -9.0258   20.4645 C   0  0  0  0  0  0
  -22.7230  -10.2136   20.3057 C   0  0  0  0  0  0
  -21.6854   -6.0739   22.5277 C   0  0  0  0  0  0
  -21.4013   -6.5642   23.8211 C   0  0  0  0  0  0
  -21.3659   -5.6794   24.9174 C   0  0  0  0  0  0
  -21.6042   -4.3055   24.7224 C   0  0  0  0  0  0
  -21.8822   -3.8149   23.4343 C   0  0  0  0  0  0
  -21.9192   -4.6965   22.3398 C   0  0  0  0  0  0
  -22.7870  -13.5238   21.1843 C   0  0  0  0  0  0
  -22.1665   -4.2149   21.0973 F   0  0  0  0  0  0
  -21.5629   -3.4536   25.7738 F   0  0  0  0  0  0
  -30.0353  -13.2655   20.4437 N   0  0  0  0  0  0
  -26.3025  -12.9310   20.3339 N   0  0  0  0  0  0
  -25.9318  -11.6477   20.5739 N   0  0  0  0  0  0
  -22.0516  -12.8240   22.0400 N   0  0  0  0  0  0
  -25.4338  -15.1864   20.4088 N   0  0  0  0  0  0
  -31.8265  -14.6157   20.1145 O   0  0  0  0  0  0
  -21.6640   -6.8876   21.4235 O   0  0  0  0  0  0
  -22.3557  -14.5551   20.6692 O   0  0  0  0  0  0
  -24.6099  -31.8693   23.2117 C   0  0  0  0  0  0
  -25.9000  -32.4826   23.8402 C   0  0  1  0  0  0
  -27.2358  -27.4565   20.0997 C   0  0  0  0  0  0
  -25.5866  -33.8631   24.2344 N   0  0  0  0  0  0
  -23.3982  -30.4909   21.5503 C   0  0  2  0  0  0
  -24.8476  -28.9543   20.1232 C   0  0  0  0  0  0
  -22.7389  -29.4650   22.4993 C   0  0  0  0  0  0
  -18.0272  -28.1374   22.8490 C   0  0  0  0  0  0
  -24.1488  -36.7311   23.2631 C   0  0  0  0  0  0
  -25.9252  -30.8395   21.3648 C   0  0  0  0  0  0
  -26.0037  -29.4716   20.7217 C   0  0  0  0  0  0
  -27.2033  -28.7275   20.7122 C   0  0  0  0  0  0
  -26.0686  -26.9465   19.4973 C   0  0  0  0  0  0
  -24.8713  -27.6872   19.5129 C   0  0  0  0  0  0
  -23.6089  -29.8198   20.1671 C   0  0  0  0  0  0
  -25.4106  -36.3107   24.0343 C   0  0  1  0  0  0
  -20.5862  -28.3639   23.1338 C   0  0  2  0  0  0
  -20.6772  -26.9380   22.5419 C   0  0  0  0  0  0
  -19.5753  -26.6377   21.5213 C   0  0  0  0  0  0
  -18.1926  -26.7935   22.1614 C   0  0  0  0  0  0
  -19.1523  -28.8827   23.2916 C   0  0  0  0  0  0
  -18.9453  -30.1442   23.8896 C   0  0  0  0  0  0
  -17.6459  -30.6582   24.0566 C   0  0  0  0  0  0
  -25.9022  -34.9475   23.5143 C   0  0  0  0  0  0
  -16.5344  -29.9084   23.6329 C   0  0  0  0  0  0
  -16.7261  -28.6510   23.0330 C   0  0  0  0  0  0
  -26.4458  -31.6597   25.0715 C   0  0  0  0  0  0
  -25.3727  -31.3726   26.1467 C   0  0  0  0  0  0
  -27.0282  -30.3039   24.6067 C   0  0  0  0  0  0
  -27.6039  -32.4310   25.7470 C   0  0  0  0  0  0
  -27.5602  -37.1794   24.8454 C   0  0  0  0  0  0
  -21.4122  -29.3015   22.3751 N   0  0  0  0  0  0
  -26.4294  -37.3790   23.9425 N   0  0  0  0  0  0
  -24.6620  -31.0805   22.1011 N   0  0  0  0  0  0
  -23.4173  -28.8173   23.3014 O   0  0  0  0  0  0
  -28.4093  -26.7535   20.0063 O   0  0  0  0  0  0
  -26.5577  -34.8926   22.4701 O   0  0  0  0  0  0
  -23.5304  -32.1446   23.7517 O   0  0  0  0  0  0
  -29.9302  -18.9524   22.3992 C   0  0  0  0  0  0
  -28.3309  -19.9595   20.3278 C   0  0  0  0  0  0
  -29.2435  -20.1749   22.5775 C   0  0  0  0  0  0
  -29.8451  -18.2412   21.1840 C   0  0  0  0  0  0
  -28.4488  -20.6987   21.5247 C   0  0  0  0  0  0
  -29.0180  -18.7429   20.1511 C   0  0  0  0  0  0
  -29.3940  -20.9092   23.8980 C   0  0  0  0  0  0
  -30.7016  -16.9954   20.9721 C   0  0  0  0  0  0
  -27.7108  -22.0336   21.6318 C   0  0  0  0  0  0
  -29.9688  -15.6533   21.2108 C   0  0  0  0  0  0
  -28.6154  -23.2638   21.4022 C   0  0  0  0  0  0
  -27.8544  -24.5093   20.9005 C   0  0  0  0  0  0
  -28.6699  -25.8119   21.0439 C   0  0  0  0  0  0
  -28.8466  -17.8989   18.6515 Cl  0  0  0  0  0  0
  -31.4653  -12.3860   19.1129 H   0  0  0  0  0  0
  -30.3149  -11.2760   19.8005 H   0  0  0  0  0  0
  -29.7318  -11.7947   17.4110 H   0  0  0  0  0  0
  -29.6674  -13.5002   17.7802 H   0  0  0  0  0  0
  -27.8167  -11.3129   18.7949 H   0  0  0  0  0  0
  -27.3667  -12.6573   17.7802 H   0  0  0  0  0  0
  -27.7031  -14.2492   19.5710 H   0  0  0  0  0  0
  -28.6665  -11.9499   21.3438 H   0  0  0  0  0  0
  -28.4688  -13.5942   21.8621 H   0  0  0  0  0  0
  -25.2763   -9.5686   22.4751 H   0  0  0  0  0  0
  -24.0006   -7.4633   22.7469 H   0  0  0  0  0  0
  -21.0837   -8.8770   19.8959 H   0  0  0  0  0  0
  -22.3686  -10.9673   19.6165 H   0  0  0  0  0  0
  -21.2001   -7.6153   23.9713 H   0  0  0  0  0  0
  -21.1481   -6.0526   25.9078 H   0  0  0  0  0  0
  -22.0598   -2.7610   23.2841 H   0  0  0  0  0  0
  -22.4126  -11.9897   22.4791 H   0  0  0  0  0  0
  -21.1134  -13.1268   22.2608 H   0  0  0  0  0  0
  -24.6705  -15.8446   20.5221 H   0  0  0  0  0  0
  -26.2932  -15.6259   20.1029 H   0  0  0  0  0  0
  -26.7058  -32.5552   23.1163 H   0  0  0  0  0  0
  -25.0053  -33.9808   25.0513 H   0  0  0  0  0  0
  -22.6846  -31.3054   21.4106 H   0  0  0  0  0  0
  -23.3756  -35.9631   23.3270 H   0  0  0  0  0  0
  -24.3595  -36.8937   22.2049 H   0  0  0  0  0  0
  -23.7241  -37.6515   23.6655 H   0  0  0  0  0  0
  -26.0352  -31.6024   20.5927 H   0  0  0  0  0  0
  -26.8141  -30.8960   21.9812 H   0  0  0  0  0  0
  -28.1029  -29.1308   21.1568 H   0  0  0  0  0  0
  -26.0902  -25.9854   19.0038 H   0  0  0  0  0  0
  -23.9826  -27.2863   19.0459 H   0  0  0  0  0  0
  -23.7162  -30.5928   19.4055 H   0  0  0  0  0  0
  -22.7352  -29.2352   19.8729 H   0  0  0  0  0  0
  -25.1283  -36.1960   25.0837 H   0  0  0  0  0  0
  -20.9958  -28.3188   24.1456 H   0  0  0  0  0  0
  -20.5682  -26.2227   23.3588 H   0  0  0  0  0  0
  -21.6647  -26.7438   22.1198 H   0  0  0  0  0  0
  -19.6916  -25.6292   21.1219 H   0  0  0  0  0  0
  -19.6717  -27.3212   20.6761 H   0  0  0  0  0  0
  -17.4206  -26.6673   21.4003 H   0  0  0  0  0  0
  -18.0327  -26.0094   22.9019 H   0  0  0  0  0  0
  -19.7925  -30.7277   24.2242 H   0  0  0  0  0  0
  -17.5005  -31.6260   24.5172 H   0  0  0  0  0  0
  -15.5342  -30.2980   23.7669 H   0  0  0  0  0  0
  -15.8662  -28.0840   22.7014 H   0  0  0  0  0  0
  -24.5875  -30.7099   25.7817 H   0  0  0  0  0  0
  -24.8956  -32.2903   26.4915 H   0  0  0  0  0  0
  -25.8076  -30.8897   27.0222 H   0  0  0  0  0  0
  -26.2832  -29.6810   24.1110 H   0  0  0  0  0  0
  -27.4057  -29.7250   25.4505 H   0  0  0  0  0  0
  -27.8650  -30.4372   23.9212 H   0  0  0  0  0  0
  -27.2656  -33.3588   26.2101 H   0  0  0  0  0  0
  -28.3822  -32.6907   25.0280 H   0  0  0  0  0  0
  -28.0736  -31.8401   26.5349 H   0  0  0  0  0  0
  -28.2567  -38.0140   24.7560 H   0  0  0  0  0  0
  -28.1145  -36.2675   24.6193 H   0  0  0  0  0  0
  -27.2329  -37.1322   25.8852 H   0  0  0  0  0  0
  -20.9258  -29.8706   21.6969 H   0  0  0  0  0  0
  -26.0177  -38.2854   24.1463 H   0  0  0  0  0  0
  -30.5547  -18.5658   23.1936 H   0  0  0  0  0  0
  -27.7184  -20.3342   19.5200 H   0  0  0  0  0  0
  -30.0153  -20.3466   24.5959 H   0  0  0  0  0  0
  -28.4238  -21.0648   24.3704 H   0  0  0  0  0  0
  -29.8680  -21.8779   23.7474 H   0  0  0  0  0  0
  -31.5740  -17.0469   21.6249 H   0  0  0  0  0  0
  -31.1023  -17.0433   19.9586 H   0  0  0  0  0  0
  -27.2143  -22.1092   22.5989 H   0  0  0  0  0  0
  -26.9052  -22.0373   20.8955 H   0  0  0  0  0  0
  -28.9843  -15.7224   20.7496 H   0  0  0  0  0  0
  -29.8104  -15.4919   22.2767 H   0  0  0  0  0  0
  -29.3703  -23.0199   20.6532 H   0  0  0  0  0  0
  -29.1620  -23.4964   22.3157 H   0  0  0  0  0  0
  -26.9065  -24.6256   21.4268 H   0  0  0  0  0  0
  -27.5978  -24.3465   19.8528 H   0  0  0  0  0  0
  -29.7350  -25.5833   20.9806 H   0  0  0  0  0  0
  -28.5137  -26.2587   22.0278 H   0  0  0  0  0  0
  1 25  1  0  0  0
  1 30  2  0  0  0
  1 80  1  0  0  0
  2  3  1  0  0  0
  2 25  1  0  0  0
  2 85  1  0  0  0
  2 86  1  0  0  0
  3  4  1  0  0  0
  3 87  1  0  0  0
  3 88  1  0  0  0
  4  5  1  0  0  0
  4 89  1  0  0  0
  4 90  1  0  0  0
  5  6  1  0  0  0
  5 26  1  0  0  0
  5 91  1  0  0  0
  6 25  1  0  0  0
  6 92  1  0  0  0
  6 93  1  0  0  0
  7  8  2  0  0  0
  7 26  1  0  0  0
  7 29  1  0  0  0
  8  9  1  0  0  0
  8 22  1  0  0  0
  9 10  1  0  0  0
  9 27  2  0  0  0
 10 11  2  0  0  0
 10 15  1  0  0  0
 11 12  1  0  0  0
 11 94  1  0  0  0
 12 13  2  0  0  0
 12 95  1  0  0  0
 13 14  1  0  0  0
 13 31  1  0  0  0
 14 15  2  0  0  0
 14 96  1  0  0  0
 15 97  1  0  0  0
 16 17  2  0  0  0
 16 21  1  0  0  0
 16 31  1  0  0  0
 17 18  1  0  0  0
 17 98  1  0  0  0
 18 19  2  0  0  0
 18 99  1  0  0  0
 19 20  1  0  0  0
 19 24  1  0  0  0
 20 21  2  0  0  0
 20100  1  0  0  0
 21 23  1  0  0  0
 22 28  1  0  0  0
 22 32  2  0  0  0
 26 27  1  0  0  0
 28101  1  0  0  0
 28102  1  0  0  0
 29103  1  0  0  0
 29104  1  0  0  0
 33 34  1  0  0  0
 33 66  1  0  0  0
 33 70  2  0  0  0
 34 36  1  0  0  0
 34 59  1  0  0  0
 34105  1  0  0  0
 35 44  2  0  0  0
 35 45  1  0  0  0
 35 68  1  0  0  0
 36 56  1  0  0  0
 36106  1  0  0  0
 37 39  1  0  0  0
 37 47  1  0  0  0
 37 66  1  0  0  0
 37107  1  0  0  0
 38 43  2  0  0  0
 38 46  1  0  0  0
 38 47  1  0  0  0
 39 64  1  0  0  0
 39 67  2  0  0  0
 40 52  1  0  0  0
 40 53  2  0  0  0
 40 58  1  0  0  0
 41108  1  0  0  0
 41109  1  0  0  0
 41110  1  0  0  0
 41 48  1  0  0  0
 42 43  1  0  0  0
 42 66  1  0  0  0
 42111  1  0  0  0
 42112  1  0  0  0
 43 44  1  0  0  0
 44113  1  0  0  0
 45 46  2  0  0  0
 45114  1  0  0  0
 46115  1  0  0  0
 47116  1  0  0  0
 47117  1  0  0  0
 48 56  1  0  0  0
 48 65  1  0  0  0
 48118  1  0  0  0
 49 50  1  0  0  0
 49 53  1  0  0  0
 49 64  1  0  0  0
 49119  1  0  0  0
 50 51  1  0  0  0
 50120  1  0  0  0
 50121  1  0  0  0
 51 52  1  0  0  0
 51122  1  0  0  0
 51123  1  0  0  0
 52124  1  0  0  0
 52125  1  0  0  0
 53 54  1  0  0  0
 54 55  2  0  0  0
 54126  1  0  0  0
 55 57  1  0  0  0
 55127  1  0  0  0
 56 69  2  0  0  0
 57 58  2  0  0  0
 57128  1  0  0  0
 58129  1  0  0  0
 59 60  1  0  0  0
 59 61  1  0  0  0
 59 62  1  0  0  0
 60130  1  0  0  0
 60131  1  0  0  0
 60132  1  0  0  0
 61133  1  0  0  0
 61134  1  0  0  0
 61135  1  0  0  0
 62136  1  0  0  0
 62137  1  0  0  0
 62138  1  0  0  0
 63 65  1  0  0  0
 63139  1  0  0  0
 63140  1  0  0  0
 63141  1  0  0  0
 64142  1  0  0  0
 65143  1  0  0  0
 68 83  1  0  0  0
 71 73  2  0  0  0
 71 74  1  0  0  0
 71144  1  0  0  0
 72 75  2  0  0  0
 72 76  1  0  0  0
 72145  1  0  0  0
 73 75  1  0  0  0
 73 77  1  0  0  0
 74 76  2  0  0  0
 74 78  1  0  0  0
 75 79  1  0  0  0
 76 84  1  0  0  0
 77146  1  0  0  0
 77147  1  0  0  0
 77148  1  0  0  0
 78 80  1  0  0  0
 78149  1  0  0  0
 78150  1  0  0  0
 79 81  1  0  0  0
 79151  1  0  0  0
 79152  1  0  0  0
 80153  1  0  0  0
 80154  1  0  0  0
 81 82  1  0  0  0
 81155  1  0  0  0
 81156  1  0  0  0
 82 83  1  0  0  0
 82157  1  0  0  0
 82158  1  0  0  0
 83159  1  0  0  0
 83160  1  0  0  0
M  ISO  4   1 100  68 101  80 100  83 101
M  END
> <chiral flag>
0

> <version>
0

> <s_m_source_file>
/data/baiqing/PycharmProjects/Reinvent-master-3.2/result/LINK_invent/BTK/process_docking_weight1_custom_sum_contain_oxygen_bond_distance_aromatic_linkinvent_7_9_3/rearranged_h_0034.sdf

> <i_m_source_file_index>
28

> <r_mmod_Potential_Energy-OPLS-2005>
-42.3321838378906

> <r_mmod_Stretch_Energy-OPLS-2005>
33.4029769897461

> <r_mmod_Bend_Energy-OPLS-2005>
85.6173934936523

> <r_mmod_Torsional_Energy-OPLS-2005>
206.170181274414

> <r_mmod_Improper_Torsional_Energy-OPLS-2005>
3.48231053352356

> <r_mmod_Van_der_Waal_Energy-OPLS-2005>
144.836898803711

> <r_mmod_Electrostatic_Energy-OPLS-2005>
-343.900268554688

> <r_mmod_Solvation_Energy-OPLS-2005>
-181.573593139648

> <b_mmod_Minimization_Converged-OPLS-2005>
0

> <r_mmod_RMS_Derivative-OPLS-2005>
1.81415927410126

$$$$
29
                    3D
 Structure written by MMmdl.
146154  0  0  1  0            999 V2000
  -30.2821  -15.6820   20.3190 C   0  0  0  0  0  0
  -30.4183  -13.1048   19.5698 C   0  0  0  0  0  0
  -29.5574  -12.6814   18.3427 C   0  0  0  0  0  0
  -28.1325  -12.3104   18.7774 C   0  0  0  0  0  0
  -27.5967  -13.3141   19.8234 C   0  0  2  0  0  0
  -28.6033  -13.6622   20.9497 C   0  0  0  0  0  0
  -25.2300  -13.8277   20.5795 C   0  0  0  0  0  0
  -24.1698  -13.0427   20.9270 C   0  0  0  0  0  0
  -24.6407  -11.6932   20.8744 C   0  0  0  0  0  0
  -23.9104  -10.4285   21.0367 C   0  0  0  0  0  0
  -24.3639   -9.4206   21.9158 C   0  0  0  0  0  0
  -23.6311   -8.2243   22.0737 C   0  0  0  0  0  0
  -22.4292   -8.0267   21.3534 C   0  0  0  0  0  0
  -21.9929   -9.0241   20.4631 C   0  0  0  0  0  0
  -22.7256  -10.2123   20.3034 C   0  0  0  0  0  0
  -21.6866   -6.0715   22.5266 C   0  0  0  0  0  0
  -21.4026   -6.5625   23.8200 C   0  0  0  0  0  0
  -21.3666   -5.6774   24.9157 C   0  0  0  0  0  0
  -21.6049   -4.3043   24.7212 C   0  0  0  0  0  0
  -21.8815   -3.8132   23.4332 C   0  0  0  0  0  0
  -21.9200   -4.6945   22.3393 C   0  0  0  0  0  0
  -22.7716  -13.5149   21.1917 C   0  0  0  0  0  0
  -22.1661   -4.2126   21.0969 F   0  0  0  0  0  0
  -21.5633   -3.4536   25.7730 F   0  0  0  0  0  0
  -29.7802  -14.2974   20.3051 N   0  0  0  0  0  0
  -26.2773  -12.9629   20.3270 N   0  0  0  0  0  0
  -25.9360  -11.6691   20.5703 N   0  0  0  0  0  0
  -22.0386  -12.8142   22.0463 N   0  0  0  0  0  0
  -25.3922  -15.2024   20.4248 N   0  0  0  0  0  0
  -31.5060  -15.6206   20.0844 O   0  0  0  0  0  0
  -21.6652   -6.8870   21.4235 O   0  0  0  0  0  0
  -22.3388  -14.5440   20.6721 O   0  0  0  0  0  0
  -24.6920  -31.7925   23.1447 C   0  0  0  0  0  0
  -25.9471  -32.4419   23.8012 C   0  0  1  0  0  0
  -27.2237  -26.6556   20.1998 C   0  0  0  0  0  0
  -25.6026  -33.8246   24.1898 N   0  0  0  0  0  0
  -23.5166  -30.3916   21.5029 C   0  0  2  0  0  0
  -24.9708  -28.7242   20.1066 C   0  0  0  0  0  0
  -22.7796  -29.4275   22.4716 C   0  0  0  0  0  0
  -18.0334  -28.1409   22.8456 C   0  0  0  0  0  0
  -24.1503  -36.7141   23.2653 C   0  0  0  0  0  0
  -26.0994  -30.5055   21.4155 C   0  0  0  0  0  0
  -26.1600  -29.0688   20.7593 C   0  0  0  0  0  0
  -27.2667  -28.0628   20.7734 C   0  0  0  0  0  0
  -26.0083  -26.5355   19.4775 C   0  0  0  0  0  0
  -24.9383  -27.4856   19.4402 C   0  0  0  0  0  0
  -23.7690  -29.6848   20.1380 C   0  0  0  0  0  0
  -25.4154  -36.2864   24.0272 C   0  0  1  0  0  0
  -20.5974  -28.3781   23.1142 C   0  0  2  0  0  0
  -20.6798  -26.9436   22.5413 C   0  0  0  0  0  0
  -19.5776  -26.6357   21.5222 C   0  0  0  0  0  0
  -18.1955  -26.7932   22.1622 C   0  0  0  0  0  0
  -19.1598  -28.8924   23.2773 C   0  0  0  0  0  0
  -18.9503  -30.1504   23.8821 C   0  0  0  0  0  0
  -17.6493  -30.6599   24.0541 C   0  0  0  0  0  0
  -25.9141  -34.9261   23.4928 C   0  0  0  0  0  0
  -16.5385  -29.9071   23.6346 C   0  0  0  0  0  0
  -16.7315  -28.6489   23.0374 C   0  0  0  0  0  0
  -26.4605  -31.6479   25.0671 C   0  0  0  0  0  0
  -25.3655  -31.3822   26.1280 C   0  0  0  0  0  0
  -27.0544  -30.2811   24.6614 C   0  0  0  0  0  0
  -27.6033  -32.4364   25.7494 C   0  0  0  0  0  0
  -27.5563  -37.1729   24.8467 C   0  0  0  0  0  0
  -21.4440  -29.3011   22.3470 N   0  0  0  0  0  0
  -26.4271  -37.3644   23.9406 N   0  0  0  0  0  0
  -24.7935  -30.9316   22.0726 N   0  0  0  0  0  0
  -23.4216  -28.7901   23.3088 O   0  0  0  0  0  0
  -28.1716  -25.4162   20.3327 O   0  0  0  0  0  0
  -26.5792  -34.8862   22.4556 O   0  0  0  0  0  0
  -23.5932  -32.1031   23.6371 O   0  0  0  0  0  0
  -28.5118  -22.6379   22.1236 C   0  0  0  0  0  0
  -28.7009  -21.9383   23.3072 C   0  0  0  0  0  0
  -29.2131  -20.0024   22.1961 C   0  0  0  0  0  0
  -28.6429  -22.1043   20.8198 C   0  0  0  0  0  0
  -29.0395  -20.4537   20.8638 C   0  0  0  0  0  0
  -29.4512  -18.8242   20.0263 C   0  0  0  0  0  0
  -28.1752  -23.6737   19.9221 C   0  0  0  0  0  0
  -29.0532  -20.6587   23.3499 N   0  0  0  0  0  0
  -29.5084  -17.0520   20.4187 N   0  0  0  0  0  0
  -31.4249  -13.3495   19.2289 H   0  0  0  0  0  0
  -30.5578  -12.2583   20.2440 H   0  0  0  0  0  0
  -30.0220  -11.8457   17.8179 H   0  0  0  0  0  0
  -29.5168  -13.5092   17.6339 H   0  0  0  0  0  0
  -28.1683  -11.3144   19.2180 H   0  0  0  0  0  0
  -27.4655  -12.2457   17.9162 H   0  0  0  0  0  0
  -27.4576  -14.2328   19.2521 H   0  0  0  0  0  0
  -28.8670  -12.7837   21.5422 H   0  0  0  0  0  0
  -28.1581  -14.3758   21.6463 H   0  0  0  0  0  0
  -25.2779   -9.5685   22.4747 H   0  0  0  0  0  0
  -24.0002   -7.4641   22.7470 H   0  0  0  0  0  0
  -21.0842   -8.8742   19.8959 H   0  0  0  0  0  0
  -22.3672  -10.9652   19.6144 H   0  0  0  0  0  0
  -21.2024   -7.6137   23.9688 H   0  0  0  0  0  0
  -21.1500   -6.0515   25.9057 H   0  0  0  0  0  0
  -22.0601   -2.7598   23.2837 H   0  0  0  0  0  0
  -22.4043  -11.9835   22.4891 H   0  0  0  0  0  0
  -21.0986  -13.1131   22.2649 H   0  0  0  0  0  0
  -24.6182  -15.8503   20.5197 H   0  0  0  0  0  0
  -26.2317  -15.6416   20.0710 H   0  0  0  0  0  0
  -26.7570  -32.4844   23.0731 H   0  0  0  0  0  0
  -25.0050  -33.9257   24.9965 H   0  0  0  0  0  0
  -22.8439  -31.2310   21.3135 H   0  0  0  0  0  0
  -23.3771  -35.9465   23.3263 H   0  0  0  0  0  0
  -24.3567  -36.8861   22.2078 H   0  0  0  0  0  0
  -23.7252  -37.6304   23.6769 H   0  0  0  0  0  0
  -26.3147  -31.2291   20.6280 H   0  0  0  0  0  0
  -26.9445  -30.5643   22.0878 H   0  0  0  0  0  0
  -28.1593  -28.3380   21.3179 H   0  0  0  0  0  0
  -25.8369  -25.6001   18.9654 H   0  0  0  0  0  0
  -24.0433  -27.2112   18.8981 H   0  0  0  0  0  0
  -23.9465  -30.4452   19.3775 H   0  0  0  0  0  0
  -22.8685  -29.1586   19.8173 H   0  0  0  0  0  0
  -25.1364  -36.1612   25.0764 H   0  0  0  0  0  0
  -21.0033  -28.3382   24.1278 H   0  0  0  0  0  0
  -20.5641  -26.2404   23.3675 H   0  0  0  0  0  0
  -21.6659  -26.7367   22.1239 H   0  0  0  0  0  0
  -19.6931  -25.6244   21.1297 H   0  0  0  0  0  0
  -19.6698  -27.3128   20.6719 H   0  0  0  0  0  0
  -17.4228  -26.6683   21.4019 H   0  0  0  0  0  0
  -18.0337  -26.0078   22.9025 H   0  0  0  0  0  0
  -19.7987  -30.7336   24.2144 H   0  0  0  0  0  0
  -17.5052  -31.6266   24.5164 H   0  0  0  0  0  0
  -15.5385  -30.2954   23.7713 H   0  0  0  0  0  0
  -15.8717  -28.0784   22.7139 H   0  0  0  0  0  0
  -24.5841  -30.7171   25.7586 H   0  0  0  0  0  0
  -24.8844  -32.3054   26.4521 H   0  0  0  0  0  0
  -25.7821  -30.9095   27.0181 H   0  0  0  0  0  0
  -26.3269  -29.6408   24.1616 H   0  0  0  0  0  0
  -27.3954  -29.7287   25.5378 H   0  0  0  0  0  0
  -27.9256  -30.3924   24.0157 H   0  0  0  0  0  0
  -27.2540  -33.3728   26.1860 H   0  0  0  0  0  0
  -28.3942  -32.6835   25.0400 H   0  0  0  0  0  0
  -28.0595  -31.8642   26.5581 H   0  0  0  0  0  0
  -28.2555  -38.0049   24.7511 H   0  0  0  0  0  0
  -28.1084  -36.2572   24.6293 H   0  0  0  0  0  0
  -27.2281  -37.1367   25.8871 H   0  0  0  0  0  0
  -20.9770  -29.8656   21.6515 H   0  0  0  0  0  0
  -26.0084  -38.2695   24.1400 H   0  0  0  0  0  0
  -28.2152  -23.6700   22.2588 H   0  0  0  0  0  0
  -28.5484  -22.4333   24.2558 H   0  0  0  0  0  0
  -29.5088  -18.9795   22.3793 H   0  0  0  0  0  0
  -30.4446  -19.0008   19.6127 H   0  0  0  0  0  0
  -28.8070  -18.8440   19.1460 H   0  0  0  0  0  0
  -27.1493  -23.4846   19.5970 H   0  0  0  0  0  0
  -28.7488  -23.6229   18.9959 H   0  0  0  0  0  0
  -28.5809  -16.7920   20.7251 H   0  0  0  0  0  0
  1 25  1  0  0  0
  1 30  2  0  0  0
  1 79  1  0  0  0
  2  3  1  0  0  0
  2 25  1  0  0  0
  2 80  1  0  0  0
  2 81  1  0  0  0
  3  4  1  0  0  0
  3 82  1  0  0  0
  3 83  1  0  0  0
  4  5  1  0  0  0
  4 84  1  0  0  0
  4 85  1  0  0  0
  5  6  1  0  0  0
  5 26  1  0  0  0
  5 86  1  0  0  0
  6 25  1  0  0  0
  6 87  1  0  0  0
  6 88  1  0  0  0
  7  8  2  0  0  0
  7 26  1  0  0  0
  7 29  1  0  0  0
  8  9  1  0  0  0
  8 22  1  0  0  0
  9 10  1  0  0  0
  9 27  2  0  0  0
 10 11  2  0  0  0
 10 15  1  0  0  0
 11 12  1  0  0  0
 11 89  1  0  0  0
 12 13  2  0  0  0
 12 90  1  0  0  0
 13 14  1  0  0  0
 13 31  1  0  0  0
 14 15  2  0  0  0
 14 91  1  0  0  0
 15 92  1  0  0  0
 16 17  2  0  0  0
 16 21  1  0  0  0
 16 31  1  0  0  0
 17 18  1  0  0  0
 17 93  1  0  0  0
 18 19  2  0  0  0
 18 94  1  0  0  0
 19 20  1  0  0  0
 19 24  1  0  0  0
 20 21  2  0  0  0
 20 95  1  0  0  0
 21 23  1  0  0  0
 22 28  1  0  0  0
 22 32  2  0  0  0
 26 27  1  0  0  0
 28 96  1  0  0  0
 28 97  1  0  0  0
 29 98  1  0  0  0
 29 99  1  0  0  0
 33 34  1  0  0  0
 33 66  1  0  0  0
 33 70  2  0  0  0
 34 36  1  0  0  0
 34 59  1  0  0  0
 34100  1  0  0  0
 35 44  2  0  0  0
 35 45  1  0  0  0
 35 68  1  0  0  0
 36 56  1  0  0  0
 36101  1  0  0  0
 37 39  1  0  0  0
 37 47  1  0  0  0
 37 66  1  0  0  0
 37102  1  0  0  0
 38 43  2  0  0  0
 38 46  1  0  0  0
 38 47  1  0  0  0
 39 64  1  0  0  0
 39 67  2  0  0  0
 40 52  1  0  0  0
 40 53  2  0  0  0
 40 58  1  0  0  0
 41103  1  0  0  0
 41104  1  0  0  0
 41105  1  0  0  0
 41 48  1  0  0  0
 42 43  1  0  0  0
 42 66  1  0  0  0
 42106  1  0  0  0
 42107  1  0  0  0
 43 44  1  0  0  0
 44108  1  0  0  0
 45 46  2  0  0  0
 45109  1  0  0  0
 46110  1  0  0  0
 47111  1  0  0  0
 47112  1  0  0  0
 48 56  1  0  0  0
 48 65  1  0  0  0
 48113  1  0  0  0
 49 50  1  0  0  0
 49 53  1  0  0  0
 49 64  1  0  0  0
 49114  1  0  0  0
 50 51  1  0  0  0
 50115  1  0  0  0
 50116  1  0  0  0
 51 52  1  0  0  0
 51117  1  0  0  0
 51118  1  0  0  0
 52119  1  0  0  0
 52120  1  0  0  0
 53 54  1  0  0  0
 54 55  2  0  0  0
 54121  1  0  0  0
 55 57  1  0  0  0
 55122  1  0  0  0
 56 69  2  0  0  0
 57 58  2  0  0  0
 57123  1  0  0  0
 58124  1  0  0  0
 59 60  1  0  0  0
 59 61  1  0  0  0
 59 62  1  0  0  0
 60125  1  0  0  0
 60126  1  0  0  0
 60127  1  0  0  0
 61128  1  0  0  0
 61129  1  0  0  0
 61130  1  0  0  0
 62131  1  0  0  0
 62132  1  0  0  0
 62133  1  0  0  0
 63 65  1  0  0  0
 63134  1  0  0  0
 63135  1  0  0  0
 63136  1  0  0  0
 64137  1  0  0  0
 65138  1  0  0  0
 68 77  1  0  0  0
 71 72  2  0  0  0
 71 74  1  0  0  0
 71139  1  0  0  0
 72 78  1  0  0  0
 72140  1  0  0  0
 73 75  1  0  0  0
 73 78  2  0  0  0
 73141  1  0  0  0
 74 75  2  0  0  0
 74 77  1  0  0  0
 75 76  1  0  0  0
 76 79  1  0  0  0
 76142  1  0  0  0
 76143  1  0  0  0
 77144  1  0  0  0
 77145  1  0  0  0
 79146  1  0  0  0
M  ISO  4   1 100  68 101  77 101  79 100
M  END
> <chiral flag>
0

> <version>
0

> <s_m_source_file>
/data/baiqing/PycharmProjects/Reinvent-master-3.2/result/LINK_invent/BTK/process_docking_weight1_custom_sum_contain_oxygen_bond_distance_aromatic_linkinvent_7_9_3/rearranged_h_0034.sdf

> <i_m_source_file_index>
29

> <r_mmod_Potential_Energy-OPLS-2005>
2687.8388671875

> <r_mmod_Stretch_Energy-OPLS-2005>
1251.09362792969

> <r_mmod_Bend_Energy-OPLS-2005>
809.262084960938

> <r_mmod_Torsional_Energy-OPLS-2005>
216.830535888672

> <r_mmod_Improper_Torsional_Energy-OPLS-2005>
4.35490608215332

> <r_mmod_Van_der_Waal_Energy-OPLS-2005>
132.557281494141

> <r_mmod_Electrostatic_Energy-OPLS-2005>
-472.291290283203

> <r_mmod_Solvation_Energy-OPLS-2005>
-240.189178466797

> <b_mmod_Minimization_Converged-OPLS-2005>
0

> <r_mmod_RMS_Derivative-OPLS-2005>
2.94600605964661

$$$$
30
                    3D
 Structure written by MMmdl.
158166  0  0  1  0            999 V2000
  -30.7331  -14.3874   20.6256 C   0  0  0  0  0  0
  -30.4157  -12.2777   19.3978 C   0  0  0  0  0  0
  -29.4855  -12.5224   18.1930 C   0  0  0  0  0  0
  -28.0082  -12.3801   18.6080 C   0  0  0  0  0  0
  -27.6662  -13.1987   19.8811 C   0  0  2  0  0  0
  -28.7044  -12.9367   20.9948 C   0  0  0  0  0  0
  -25.2620  -13.8147   20.5700 C   0  0  0  0  0  0
  -24.1833  -13.0447   20.9142 C   0  0  0  0  0  0
  -24.6365  -11.6901   20.8697 C   0  0  0  0  0  0
  -23.9025  -10.4298   21.0392 C   0  0  0  0  0  0
  -24.3584   -9.4223   21.9182 C   0  0  0  0  0  0
  -23.6269   -8.2258   22.0764 C   0  0  0  0  0  0
  -22.4257   -8.0275   21.3544 C   0  0  0  0  0  0
  -21.9872   -9.0249   20.4656 C   0  0  0  0  0  0
  -22.7192  -10.2133   20.3053 C   0  0  0  0  0  0
  -21.6850   -6.0722   22.5283 C   0  0  0  0  0  0
  -21.4026   -6.5638   23.8216 C   0  0  0  0  0  0
  -21.3655   -5.6790   24.9182 C   0  0  0  0  0  0
  -21.6038   -4.3052   24.7232 C   0  0  0  0  0  0
  -21.8815   -3.8136   23.4361 C   0  0  0  0  0  0
  -21.9199   -4.6953   22.3413 C   0  0  0  0  0  0
  -22.7867  -13.5267   21.1814 C   0  0  0  0  0  0
  -22.1661   -4.2134   21.0990 F   0  0  0  0  0  0
  -21.5627   -3.4538   25.7750 F   0  0  0  0  0  0
  -30.0448  -13.2310   20.4531 N   0  0  0  0  0  0
  -26.3038  -12.9298   20.3378 N   0  0  0  0  0  0
  -25.9285  -11.6456   20.5721 N   0  0  0  0  0  0
  -22.0490  -12.8274   22.0372 N   0  0  0  0  0  0
  -25.4407  -15.1871   20.4255 N   0  0  0  0  0  0
  -31.8050  -14.6320   20.0628 O   0  0  0  0  0  0
  -21.6638   -6.8859   21.4236 O   0  0  0  0  0  0
  -22.3568  -14.5578   20.6682 O   0  0  0  0  0  0
  -24.6096  -31.8727   23.2140 C   0  0  0  0  0  0
  -25.9014  -32.4842   23.8416 C   0  0  1  0  0  0
  -27.2405  -27.4903   20.0869 C   0  0  0  0  0  0
  -25.5906  -33.8638   24.2361 N   0  0  0  0  0  0
  -23.3949  -30.4935   21.5535 C   0  0  2  0  0  0
  -24.8443  -28.9656   20.1129 C   0  0  0  0  0  0
  -22.7380  -29.4670   22.5025 C   0  0  0  0  0  0
  -18.0289  -28.1359   22.8462 C   0  0  0  0  0  0
  -24.1489  -36.7319   23.2632 C   0  0  0  0  0  0
  -25.9168  -30.8546   21.3576 C   0  0  0  0  0  0
  -25.9976  -29.4907   20.7100 C   0  0  0  0  0  0
  -27.1994  -28.7558   20.7031 C   0  0  0  0  0  0
  -26.0810  -26.9686   19.4808 C   0  0  0  0  0  0
  -24.8767  -27.6999   19.4995 C   0  0  0  0  0  0
  -23.6014  -29.8240   20.1664 C   0  0  0  0  0  0
  -25.4105  -36.3119   24.0341 C   0  0  1  0  0  0
  -20.5855  -28.3662   23.1366 C   0  0  2  0  0  0
  -20.6760  -26.9370   22.5535 C   0  0  0  0  0  0
  -19.5834  -26.6386   21.5231 C   0  0  0  0  0  0
  -18.1968  -26.7935   22.1535 C   0  0  0  0  0  0
  -19.1509  -28.8827   23.2912 C   0  0  0  0  0  0
  -18.9416  -30.1429   23.8915 C   0  0  0  0  0  0
  -17.6409  -30.6565   24.0529 C   0  0  0  0  0  0
  -25.9027  -34.9481   23.5139 C   0  0  0  0  0  0
  -16.5313  -29.9043   23.6286 C   0  0  0  0  0  0
  -16.7265  -28.6457   23.0315 C   0  0  0  0  0  0
  -26.4470  -31.6597   25.0714 C   0  0  0  0  0  0
  -25.3762  -31.3693   26.1486 C   0  0  0  0  0  0
  -27.0289  -30.3048   24.6036 C   0  0  0  0  0  0
  -27.6064  -32.4299   25.7474 C   0  0  0  0  0  0
  -27.5584  -37.1813   24.8459 C   0  0  0  0  0  0
  -21.4118  -29.3017   22.3753 N   0  0  0  0  0  0
  -26.4289  -37.3801   23.9413 N   0  0  0  0  0  0
  -24.6582  -31.0872   22.1009 N   0  0  0  0  0  0
  -23.4168  -28.8212   23.3048 O   0  0  0  0  0  0
  -28.4041  -26.7686   20.0730 O   0  0  0  0  0  0
  -26.5578  -34.8927   22.4691 O   0  0  0  0  0  0
  -23.5309  -32.1466   23.7566 O   0  0  0  0  0  0
  -28.7712  -21.3551   21.7610 C   0  0  0  0  0  0
  -26.1286  -20.7980   21.2869 C   0  0  0  0  0  0
  -28.4405  -20.0639   21.3073 C   0  0  0  0  0  0
  -27.0782  -19.7855   21.0452 C   0  0  0  0  0  0
  -27.7530  -22.3020   21.9509 C   0  0  0  0  0  0
  -29.5654  -19.0619   21.0821 C   0  0  0  0  0  0
  -28.1015  -23.7303   22.3092 C   0  0  0  0  0  0
  -29.2306  -17.5980   21.4113 C   0  0  0  0  0  0
  -28.0439  -24.6095   21.0560 C   0  0  0  0  0  0
  -30.4858  -16.7139   21.4588 C   0  0  0  0  0  0
  -28.6072  -26.0168   21.2649 C   0  0  0  0  0  0
  -26.4489  -22.0336   21.7333 N   0  0  0  0  0  0
  -30.1184  -15.3018   21.3847 N   0  0  0  0  0  0
  -26.6727  -18.5882   20.5584 F   0  0  0  0  0  0
  -31.4606  -12.3705   19.0988 H   0  0  0  0  0  0
  -30.3030  -11.2573   19.7656 H   0  0  0  0  0  0
  -29.7154  -11.8219   17.3888 H   0  0  0  0  0  0
  -29.6592  -13.5206   17.7875 H   0  0  0  0  0  0
  -27.8157  -11.3219   18.7849 H   0  0  0  0  0  0
  -27.3542  -12.6756   17.7858 H   0  0  0  0  0  0
  -27.7250  -14.2529   19.6090 H   0  0  0  0  0  0
  -28.6668  -11.8913   21.3054 H   0  0  0  0  0  0
  -28.4600  -13.5061   21.8912 H   0  0  0  0  0  0
  -25.2734   -9.5714   22.4745 H   0  0  0  0  0  0
  -23.9989   -7.4654   22.7487 H   0  0  0  0  0  0
  -21.0804   -8.8752   19.8968 H   0  0  0  0  0  0
  -22.3638  -10.9664   19.6158 H   0  0  0  0  0  0
  -21.2019   -7.6146   23.9715 H   0  0  0  0  0  0
  -21.1478   -6.0526   25.9080 H   0  0  0  0  0  0
  -22.0592   -2.7597   23.2871 H   0  0  0  0  0  0
  -22.4074  -11.9934   22.4778 H   0  0  0  0  0  0
  -21.1128  -13.1343   22.2590 H   0  0  0  0  0  0
  -24.6904  -15.8514   20.5777 H   0  0  0  0  0  0
  -26.3191  -15.6333   20.1930 H   0  0  0  0  0  0
  -26.7086  -32.5587   23.1197 H   0  0  0  0  0  0
  -25.0113  -33.9806   25.0545 H   0  0  0  0  0  0
  -22.6790  -31.3065   21.4164 H   0  0  0  0  0  0
  -23.3742  -35.9659   23.3303 H   0  0  0  0  0  0
  -24.3590  -36.8923   22.2041 H   0  0  0  0  0  0
  -23.7239  -37.6530   23.6637 H   0  0  0  0  0  0
  -26.0171  -31.6218   20.5878 H   0  0  0  0  0  0
  -26.8086  -30.9147   21.9703 H   0  0  0  0  0  0
  -28.0923  -29.1565   21.1648 H   0  0  0  0  0  0
  -26.1102  -26.0010   19.0025 H   0  0  0  0  0  0
  -23.9907  -27.2892   19.0348 H   0  0  0  0  0  0
  -23.6999  -30.5974   19.4042 H   0  0  0  0  0  0
  -22.7282  -29.2383   19.8737 H   0  0  0  0  0  0
  -25.1271  -36.1993   25.0831 H   0  0  0  0  0  0
  -20.9917  -28.3273   24.1502 H   0  0  0  0  0  0
  -20.5510  -26.2264   23.3726 H   0  0  0  0  0  0
  -21.6665  -26.7321   22.1455 H   0  0  0  0  0  0
  -19.7008  -25.6302   21.1246 H   0  0  0  0  0  0
  -19.6875  -27.3240   20.6810 H   0  0  0  0  0  0
  -17.4306  -26.6759   21.3850 H   0  0  0  0  0  0
  -18.0280  -26.0031   22.8857 H   0  0  0  0  0  0
  -19.7874  -30.7249   24.2318 H   0  0  0  0  0  0
  -17.4948  -31.6246   24.5106 H   0  0  0  0  0  0
  -15.5304  -30.2926   23.7580 H   0  0  0  0  0  0
  -15.8687  -28.0747   22.7012 H   0  0  0  0  0  0
  -24.5901  -30.7080   25.7831 H   0  0  0  0  0  0
  -24.8995  -32.2846   26.5002 H   0  0  0  0  0  0
  -25.8135  -30.8813   27.0204 H   0  0  0  0  0  0
  -26.2813  -29.6822   24.1104 H   0  0  0  0  0  0
  -27.4101  -29.7270   25.4464 H   0  0  0  0  0  0
  -27.8631  -30.4385   23.9143 H   0  0  0  0  0  0
  -27.2689  -33.3572   26.2121 H   0  0  0  0  0  0
  -28.3843  -32.6901   25.0280 H   0  0  0  0  0  0
  -28.0763  -31.8373   26.5339 H   0  0  0  0  0  0
  -28.2598  -38.0117   24.7521 H   0  0  0  0  0  0
  -28.1085  -36.2647   24.6262 H   0  0  0  0  0  0
  -27.2309  -37.1440   25.8866 H   0  0  0  0  0  0
  -20.9291  -29.8722   21.6957 H   0  0  0  0  0  0
  -26.0186  -38.2882   24.1427 H   0  0  0  0  0  0
  -29.8019  -21.6317   21.9280 H   0  0  0  0  0  0
  -25.0810  -20.6200   21.0960 H   0  0  0  0  0  0
  -30.4172  -19.3670   21.6913 H   0  0  0  0  0  0
  -29.8916  -19.1426   20.0444 H   0  0  0  0  0  0
  -29.0998  -23.7632   22.7502 H   0  0  0  0  0  0
  -27.4123  -24.1014   23.0686 H   0  0  0  0  0  0
  -28.5482  -17.2117   20.6558 H   0  0  0  0  0  0
  -28.7088  -17.5411   22.3680 H   0  0  0  0  0  0
  -27.0092  -24.6563   20.7192 H   0  0  0  0  0  0
  -28.6051  -24.1330   20.2528 H   0  0  0  0  0  0
  -31.0508  -16.9030   22.3729 H   0  0  0  0  0  0
  -31.1450  -16.9825   20.6299 H   0  0  0  0  0  0
  -29.6764  -25.9651   21.4737 H   0  0  0  0  0  0
  -28.1460  -26.4938   22.1324 H   0  0  0  0  0  0
  -29.2540  -15.0183   21.8219 H   0  0  0  0  0  0
  1 25  1  0  0  0
  1 30  2  0  0  0
  1 83  1  0  0  0
  2  3  1  0  0  0
  2 25  1  0  0  0
  2 85  1  0  0  0
  2 86  1  0  0  0
  3  4  1  0  0  0
  3 87  1  0  0  0
  3 88  1  0  0  0
  4  5  1  0  0  0
  4 89  1  0  0  0
  4 90  1  0  0  0
  5  6  1  0  0  0
  5 26  1  0  0  0
  5 91  1  0  0  0
  6 25  1  0  0  0
  6 92  1  0  0  0
  6 93  1  0  0  0
  7  8  2  0  0  0
  7 26  1  0  0  0
  7 29  1  0  0  0
  8  9  1  0  0  0
  8 22  1  0  0  0
  9 10  1  0  0  0
  9 27  2  0  0  0
 10 11  2  0  0  0
 10 15  1  0  0  0
 11 12  1  0  0  0
 11 94  1  0  0  0
 12 13  2  0  0  0
 12 95  1  0  0  0
 13 14  1  0  0  0
 13 31  1  0  0  0
 14 15  2  0  0  0
 14 96  1  0  0  0
 15 97  1  0  0  0
 16 17  2  0  0  0
 16 21  1  0  0  0
 16 31  1  0  0  0
 17 18  1  0  0  0
 17 98  1  0  0  0
 18 19  2  0  0  0
 18 99  1  0  0  0
 19 20  1  0  0  0
 19 24  1  0  0  0
 20 21  2  0  0  0
 20100  1  0  0  0
 21 23  1  0  0  0
 22 28  1  0  0  0
 22 32  2  0  0  0
 26 27  1  0  0  0
 28101  1  0  0  0
 28102  1  0  0  0
 29103  1  0  0  0
 29104  1  0  0  0
 33 34  1  0  0  0
 33 66  1  0  0  0
 33 70  2  0  0  0
 34 36  1  0  0  0
 34 59  1  0  0  0
 34105  1  0  0  0
 35 44  2  0  0  0
 35 45  1  0  0  0
 35 68  1  0  0  0
 36 56  1  0  0  0
 36106  1  0  0  0
 37 39  1  0  0  0
 37 47  1  0  0  0
 37 66  1  0  0  0
 37107  1  0  0  0
 38 43  2  0  0  0
 38 46  1  0  0  0
 38 47  1  0  0  0
 39 64  1  0  0  0
 39 67  2  0  0  0
 40 52  1  0  0  0
 40 53  2  0  0  0
 40 58  1  0  0  0
 41108  1  0  0  0
 41109  1  0  0  0
 41110  1  0  0  0
 41 48  1  0  0  0
 42 43  1  0  0  0
 42 66  1  0  0  0
 42111  1  0  0  0
 42112  1  0  0  0
 43 44  1  0  0  0
 44113  1  0  0  0
 45 46  2  0  0  0
 45114  1  0  0  0
 46115  1  0  0  0
 47116  1  0  0  0
 47117  1  0  0  0
 48 56  1  0  0  0
 48 65  1  0  0  0
 48118  1  0  0  0
 49 50  1  0  0  0
 49 53  1  0  0  0
 49 64  1  0  0  0
 49119  1  0  0  0
 50 51  1  0  0  0
 50120  1  0  0  0
 50121  1  0  0  0
 51 52  1  0  0  0
 51122  1  0  0  0
 51123  1  0  0  0
 52124  1  0  0  0
 52125  1  0  0  0
 53 54  1  0  0  0
 54 55  2  0  0  0
 54126  1  0  0  0
 55 57  1  0  0  0
 55127  1  0  0  0
 56 69  2  0  0  0
 57 58  2  0  0  0
 57128  1  0  0  0
 58129  1  0  0  0
 59 60  1  0  0  0
 59 61  1  0  0  0
 59 62  1  0  0  0
 60130  1  0  0  0
 60131  1  0  0  0
 60132  1  0  0  0
 61133  1  0  0  0
 61134  1  0  0  0
 61135  1  0  0  0
 62136  1  0  0  0
 62137  1  0  0  0
 62138  1  0  0  0
 63 65  1  0  0  0
 63139  1  0  0  0
 63140  1  0  0  0
 63141  1  0  0  0
 64142  1  0  0  0
 65143  1  0  0  0
 68 81  1  0  0  0
 71 73  2  0  0  0
 71 75  1  0  0  0
 71144  1  0  0  0
 72 74  2  0  0  0
 72 82  1  0  0  0
 72145  1  0  0  0
 73 74  1  0  0  0
 73 76  1  0  0  0
 74 84  1  0  0  0
 75 77  1  0  0  0
 75 82  2  0  0  0
 76 78  1  0  0  0
 76146  1  0  0  0
 76147  1  0  0  0
 77 79  1  0  0  0
 77148  1  0  0  0
 77149  1  0  0  0
 78 80  1  0  0  0
 78150  1  0  0  0
 78151  1  0  0  0
 79 81  1  0  0  0
 79152  1  0  0  0
 79153  1  0  0  0
 80 83  1  0  0  0
 80154  1  0  0  0
 80155  1  0  0  0
 81156  1  0  0  0
 81157  1  0  0  0
 83158  1  0  0  0
M  ISO  4   1 100  68 101  81 101  83 100
M  END
> <chiral flag>
0

> <version>
0

> <s_m_source_file>
/data/baiqing/PycharmProjects/Reinvent-master-3.2/result/LINK_invent/BTK/process_docking_weight1_custom_sum_contain_oxygen_bond_distance_aromatic_linkinvent_7_9_3/rearranged_h_0034.sdf

> <i_m_source_file_index>
30

> <r_mmod_Potential_Energy-OPLS-2005>
-200.342208862305

> <r_mmod_Stretch_Energy-OPLS-2005>
30.1552791595459

> <r_mmod_Bend_Energy-OPLS-2005>
84.1169128417969

> <r_mmod_Torsional_Energy-OPLS-2005>
212.881576538086

> <r_mmod_Improper_Torsional_Energy-OPLS-2005>
2.85472750663757

> <r_mmod_Van_der_Waal_Energy-OPLS-2005>
157.299362182617

> <r_mmod_Electrostatic_Energy-OPLS-2005>
-482.211242675781

> <r_mmod_Solvation_Energy-OPLS-2005>
-212.399276733398

> <b_mmod_Minimization_Converged-OPLS-2005>
0

> <r_mmod_RMS_Derivative-OPLS-2005>
2.16625356674194

$$$$
31
                    3D
 Structure written by MMmdl.
165173  0  0  1  0            999 V2000
  -30.6934  -14.4594   20.5535 C   0  0  0  0  0  0
  -30.4162  -12.2903   19.4275 C   0  0  0  0  0  0
  -29.4932  -12.4946   18.2086 C   0  0  0  0  0  0
  -28.0128  -12.3614   18.6188 C   0  0  0  0  0  0
  -27.6594  -13.2070   19.8719 C   0  0  2  0  0  0
  -28.6990  -12.9848   20.9950 C   0  0  0  0  0  0
  -25.2579  -13.8193   20.5682 C   0  0  0  0  0  0
  -24.1833  -13.0445   20.9179 C   0  0  0  0  0  0
  -24.6401  -11.6913   20.8753 C   0  0  0  0  0  0
  -23.9082  -10.4293   21.0426 C   0  0  0  0  0  0
  -24.3641   -9.4192   21.9183 C   0  0  0  0  0  0
  -23.6308   -8.2227   22.0757 C   0  0  0  0  0  0
  -22.4276   -8.0289   21.3553 C   0  0  0  0  0  0
  -21.9922   -9.0269   20.4638 C   0  0  0  0  0  0
  -22.7275  -10.2132   20.3053 C   0  0  0  0  0  0
  -21.6841   -6.0742   22.5278 C   0  0  0  0  0  0
  -21.4011   -6.5644   23.8216 C   0  0  0  0  0  0
  -21.3662   -5.6793   24.9179 C   0  0  0  0  0  0
  -21.6050   -4.3056   24.7218 C   0  0  0  0  0  0
  -21.8822   -3.8153   23.4334 C   0  0  0  0  0  0
  -21.9185   -4.6970   22.3399 C   0  0  0  0  0  0
  -22.7842  -13.5220   21.1841 C   0  0  0  0  0  0
  -22.1652   -4.2155   21.0972 F   0  0  0  0  0  0
  -21.5628   -3.4545   25.7731 F   0  0  0  0  0  0
  -30.0309  -13.2781   20.4446 N   0  0  0  0  0  0
  -26.3001  -12.9347   20.3351 N   0  0  0  0  0  0
  -25.9321  -11.6509   20.5769 N   0  0  0  0  0  0
  -22.0511  -12.8208   22.0410 N   0  0  0  0  0  0
  -25.4339  -15.1915   20.4097 N   0  0  0  0  0  0
  -31.8262  -14.6424   20.1018 O   0  0  0  0  0  0
  -21.6622   -6.8896   21.4243 O   0  0  0  0  0  0
  -22.3526  -14.5529   20.6693 O   0  0  0  0  0  0
  -24.6131  -31.8681   23.2106 C   0  0  0  0  0  0
  -25.9026  -32.4830   23.8400 C   0  0  1  0  0  0
  -27.2337  -27.4410   20.1007 C   0  0  0  0  0  0
  -25.5887  -33.8628   24.2333 N   0  0  0  0  0  0
  -23.4015  -30.4916   21.5505 C   0  0  2  0  0  0
  -24.8501  -28.9599   20.1116 C   0  0  0  0  0  0
  -22.7407  -29.4667   22.4992 C   0  0  0  0  0  0
  -18.0273  -28.1380   22.8492 C   0  0  0  0  0  0
  -24.1482  -36.7311   23.2640 C   0  0  0  0  0  0
  -25.9298  -30.8368   21.3630 C   0  0  0  0  0  0
  -26.0097  -29.4730   20.7082 C   0  0  0  0  0  0
  -27.2077  -28.7208   20.7000 C   0  0  0  0  0  0
  -26.0617  -26.9417   19.4960 C   0  0  0  0  0  0
  -24.8710  -27.6931   19.5010 C   0  0  0  0  0  0
  -23.6090  -29.8226   20.1656 C   0  0  0  0  0  0
  -25.4104  -36.3118   24.0341 C   0  0  1  0  0  0
  -20.5859  -28.3668   23.1321 C   0  0  2  0  0  0
  -20.6766  -26.9404   22.5422 C   0  0  0  0  0  0
  -19.5745  -26.6386   21.5217 C   0  0  0  0  0  0
  -18.1923  -26.7929   22.1626 C   0  0  0  0  0  0
  -19.1520  -28.8840   23.2901 C   0  0  0  0  0  0
  -18.9452  -30.1449   23.8908 C   0  0  0  0  0  0
  -17.6451  -30.6589   24.0570 C   0  0  0  0  0  0
  -25.9033  -34.9486   23.5142 C   0  0  0  0  0  0
  -16.5344  -29.9086   23.6333 C   0  0  0  0  0  0
  -16.7262  -28.6506   23.0351 C   0  0  0  0  0  0
  -26.4454  -31.6605   25.0721 C   0  0  0  0  0  0
  -25.3722  -31.3700   26.1474 C   0  0  0  0  0  0
  -27.0286  -30.3051   24.6092 C   0  0  0  0  0  0
  -27.6038  -32.4319   25.7472 C   0  0  0  0  0  0
  -27.5577  -37.1810   24.8465 C   0  0  0  0  0  0
  -21.4137  -29.3030   22.3724 N   0  0  0  0  0  0
  -26.4293  -37.3797   23.9404 N   0  0  0  0  0  0
  -24.6660  -31.0793   22.1000 N   0  0  0  0  0  0
  -23.4179  -28.8225   23.3054 O   0  0  0  0  0  0
  -28.3686  -26.6618   20.1215 O   0  0  0  0  0  0
  -26.5597  -34.8926   22.4702 O   0  0  0  0  0  0
  -23.5326  -32.1439   23.7504 O   0  0  0  0  0  0
  -30.7700  -20.2902   17.0257 C   0  0  0  0  0  0
  -30.1648  -19.8831   19.7276 C   0  0  0  0  0  0
  -30.7473  -21.3956   17.8960 C   0  0  0  0  0  0
  -30.5017  -18.9868   17.4867 C   0  0  0  0  0  0
  -30.4381  -21.2004   19.2676 C   0  0  0  0  0  0
  -30.1935  -18.7622   18.8545 C   0  0  0  0  0  0
  -31.0664  -22.7641   17.3095 C   0  0  0  0  0  0
  -30.5534  -17.8510   16.4741 C   0  0  0  0  0  0
  -30.4595  -22.3714   20.2629 C   0  0  0  0  0  0
  -29.8464  -17.3367   19.3326 C   0  0  0  0  0  0
  -29.3211  -23.4136   20.1066 C   0  0  0  0  0  0
  -29.4676  -24.6180   21.0679 C   0  0  0  0  0  0
  -30.2582  -16.9161   20.7645 C   0  0  0  0  0  0
  -28.2790  -25.6069   21.0893 C   0  0  0  0  0  0
  -29.9532  -15.4924   20.9932 N   0  0  0  0  0  0
  -31.4639  -12.3745   19.1353 H   0  0  0  0  0  0
  -30.3000  -11.2805   19.8260 H   0  0  0  0  0  0
  -29.7320  -11.7700   17.4293 H   0  0  0  0  0  0
  -29.6679  -13.4808   17.7757 H   0  0  0  0  0  0
  -27.8261  -11.3061   18.8234 H   0  0  0  0  0  0
  -27.3599  -12.6285   17.7857 H   0  0  0  0  0  0
  -27.7051  -14.2533   19.5676 H   0  0  0  0  0  0
  -28.6642  -11.9491   21.3390 H   0  0  0  0  0  0
  -28.4664  -13.5865   21.8743 H   0  0  0  0  0  0
  -25.2810   -9.5618   22.4741 H   0  0  0  0  0  0
  -24.0008   -7.4598   22.7464 H   0  0  0  0  0  0
  -21.0860   -8.8812   19.8934 H   0  0  0  0  0  0
  -22.3795  -10.9671   19.6137 H   0  0  0  0  0  0
  -21.2014   -7.6152   23.9731 H   0  0  0  0  0  0
  -21.1482   -6.0514   25.9084 H   0  0  0  0  0  0
  -22.0601   -2.7612   23.2831 H   0  0  0  0  0  0
  -22.4148  -11.9858   22.4781 H   0  0  0  0  0  0
  -21.1119  -13.1199   22.2642 H   0  0  0  0  0  0
  -24.6813  -15.8584   20.5409 H   0  0  0  0  0  0
  -26.2928  -15.6260   20.1031 H   0  0  0  0  0  0
  -26.7101  -32.5550   23.1166 H   0  0  0  0  0  0
  -25.0035  -33.9793   25.0475 H   0  0  0  0  0  0
  -22.6895  -31.3079   21.4124 H   0  0  0  0  0  0
  -23.3751  -35.9642   23.3323 H   0  0  0  0  0  0
  -24.3575  -36.8903   22.2051 H   0  0  0  0  0  0
  -23.7229  -37.6518   23.6640 H   0  0  0  0  0  0
  -26.0415  -31.6048   20.5964 H   0  0  0  0  0  0
  -26.8172  -30.8894   21.9822 H   0  0  0  0  0  0
  -28.1020  -29.1090   21.1666 H   0  0  0  0  0  0
  -26.0688  -25.9655   19.0306 H   0  0  0  0  0  0
  -23.9788  -27.2913   19.0401 H   0  0  0  0  0  0
  -23.7092  -30.5961   19.4041 H   0  0  0  0  0  0
  -22.7340  -29.2380   19.8756 H   0  0  0  0  0  0
  -25.1283  -36.1991   25.0838 H   0  0  0  0  0  0
  -20.9952  -28.3240   24.1442 H   0  0  0  0  0  0
  -20.5685  -26.2275   23.3609 H   0  0  0  0  0  0
  -21.6640  -26.7462   22.1210 H   0  0  0  0  0  0
  -19.6916  -25.6299   21.1240 H   0  0  0  0  0  0
  -19.6693  -27.3207   20.6756 H   0  0  0  0  0  0
  -17.4201  -26.6680   21.4022 H   0  0  0  0  0  0
  -18.0321  -26.0065   22.9015 H   0  0  0  0  0  0
  -19.7926  -30.7262   24.2281 H   0  0  0  0  0  0
  -17.5009  -31.6273   24.5165 H   0  0  0  0  0  0
  -15.5344  -30.2996   23.7651 H   0  0  0  0  0  0
  -15.8660  -28.0831   22.7058 H   0  0  0  0  0  0
  -24.5897  -30.7047   25.7798 H   0  0  0  0  0  0
  -24.8909  -32.2855   26.4933 H   0  0  0  0  0  0
  -25.8078  -30.8855   27.0224 H   0  0  0  0  0  0
  -26.2832  -29.6817   24.1142 H   0  0  0  0  0  0
  -27.4056  -29.7279   25.4542 H   0  0  0  0  0  0
  -27.8664  -30.4373   23.9240 H   0  0  0  0  0  0
  -27.2672  -33.3616   26.2073 H   0  0  0  0  0  0
  -28.3828  -32.6890   25.0279 H   0  0  0  0  0  0
  -28.0733  -31.8433   26.5363 H   0  0  0  0  0  0
  -28.2617  -38.0089   24.7513 H   0  0  0  0  0  0
  -28.1060  -36.2628   24.6306 H   0  0  0  0  0  0
  -27.2302  -37.1474   25.8871 H   0  0  0  0  0  0
  -20.9298  -29.8708   21.6904 H   0  0  0  0  0  0
  -26.0195  -38.2882   24.1404 H   0  0  0  0  0  0
  -30.9998  -20.4453   15.9799 H   0  0  0  0  0  0
  -29.9292  -19.7362   20.7710 H   0  0  0  0  0  0
  -31.6785  -22.6682   16.4120 H   0  0  0  0  0  0
  -31.6147  -23.4027   18.0006 H   0  0  0  0  0  0
  -30.1472  -23.2725   17.0195 H   0  0  0  0  0  0
  -30.6007  -18.2240   15.4504 H   0  0  0  0  0  0
  -29.6710  -17.2145   16.5423 H   0  0  0  0  0  0
  -31.4376  -17.2348   16.6407 H   0  0  0  0  0  0
  -31.4293  -22.8653   20.1845 H   0  0  0  0  0  0
  -30.4334  -21.9657   21.2752 H   0  0  0  0  0  0
  -30.3102  -16.6140   18.6617 H   0  0  0  0  0  0
  -28.7710  -17.1955   19.2066 H   0  0  0  0  0  0
  -28.3686  -22.9145   20.2869 H   0  0  0  0  0  0
  -29.2793  -23.7902   19.0870 H   0  0  0  0  0  0
  -30.3943  -25.1597   20.8754 H   0  0  0  0  0  0
  -29.5730  -24.2171   22.0773 H   0  0  0  0  0  0
  -31.3197  -17.1039   20.9269 H   0  0  0  0  0  0
  -29.7176  -17.5132   21.4983 H   0  0  0  0  0  0
  -28.2446  -26.0788   22.0732 H   0  0  0  0  0  0
  -27.3441  -25.0520   20.9937 H   0  0  0  0  0  0
  -29.0298  -15.2691   21.3376 H   0  0  0  0  0  0
  1 25  1  0  0  0
  1 30  2  0  0  0
  1 85  1  0  0  0
  2  3  1  0  0  0
  2 25  1  0  0  0
  2 86  1  0  0  0
  2 87  1  0  0  0
  3  4  1  0  0  0
  3 88  1  0  0  0
  3 89  1  0  0  0
  4  5  1  0  0  0
  4 90  1  0  0  0
  4 91  1  0  0  0
  5  6  1  0  0  0
  5 26  1  0  0  0
  5 92  1  0  0  0
  6 25  1  0  0  0
  6 93  1  0  0  0
  6 94  1  0  0  0
  7  8  2  0  0  0
  7 26  1  0  0  0
  7 29  1  0  0  0
  8  9  1  0  0  0
  8 22  1  0  0  0
  9 10  1  0  0  0
  9 27  2  0  0  0
 10 11  2  0  0  0
 10 15  1  0  0  0
 11 12  1  0  0  0
 11 95  1  0  0  0
 12 13  2  0  0  0
 12 96  1  0  0  0
 13 14  1  0  0  0
 13 31  1  0  0  0
 14 15  2  0  0  0
 14 97  1  0  0  0
 15 98  1  0  0  0
 16 17  2  0  0  0
 16 21  1  0  0  0
 16 31  1  0  0  0
 17 18  1  0  0  0
 17 99  1  0  0  0
 18 19  2  0  0  0
 18100  1  0  0  0
 19 20  1  0  0  0
 19 24  1  0  0  0
 20 21  2  0  0  0
 20101  1  0  0  0
 21 23  1  0  0  0
 22 28  1  0  0  0
 22 32  2  0  0  0
 26 27  1  0  0  0
 28102  1  0  0  0
 28103  1  0  0  0
 29104  1  0  0  0
 29105  1  0  0  0
 33 34  1  0  0  0
 33 66  1  0  0  0
 33 70  2  0  0  0
 34 36  1  0  0  0
 34 59  1  0  0  0
 34106  1  0  0  0
 35 44  2  0  0  0
 35 45  1  0  0  0
 35 68  1  0  0  0
 36 56  1  0  0  0
 36107  1  0  0  0
 37 39  1  0  0  0
 37 47  1  0  0  0
 37 66  1  0  0  0
 37108  1  0  0  0
 38 43  2  0  0  0
 38 46  1  0  0  0
 38 47  1  0  0  0
 39 64  1  0  0  0
 39 67  2  0  0  0
 40 52  1  0  0  0
 40 53  2  0  0  0
 40 58  1  0  0  0
 41109  1  0  0  0
 41110  1  0  0  0
 41111  1  0  0  0
 41 48  1  0  0  0
 42 43  1  0  0  0
 42 66  1  0  0  0
 42112  1  0  0  0
 42113  1  0  0  0
 43 44  1  0  0  0
 44114  1  0  0  0
 45 46  2  0  0  0
 45115  1  0  0  0
 46116  1  0  0  0
 47117  1  0  0  0
 47118  1  0  0  0
 48 56  1  0  0  0
 48 65  1  0  0  0
 48119  1  0  0  0
 49 50  1  0  0  0
 49 53  1  0  0  0
 49 64  1  0  0  0
 49120  1  0  0  0
 50 51  1  0  0  0
 50121  1  0  0  0
 50122  1  0  0  0
 51 52  1  0  0  0
 51123  1  0  0  0
 51124  1  0  0  0
 52125  1  0  0  0
 52126  1  0  0  0
 53 54  1  0  0  0
 54 55  2  0  0  0
 54127  1  0  0  0
 55 57  1  0  0  0
 55128  1  0  0  0
 56 69  2  0  0  0
 57 58  2  0  0  0
 57129  1  0  0  0
 58130  1  0  0  0
 59 60  1  0  0  0
 59 61  1  0  0  0
 59 62  1  0  0  0
 60131  1  0  0  0
 60132  1  0  0  0
 60133  1  0  0  0
 61134  1  0  0  0
 61135  1  0  0  0
 61136  1  0  0  0
 62137  1  0  0  0
 62138  1  0  0  0
 62139  1  0  0  0
 63 65  1  0  0  0
 63140  1  0  0  0
 63141  1  0  0  0
 63142  1  0  0  0
 64143  1  0  0  0
 65144  1  0  0  0
 68 84  1  0  0  0
 71 73  2  0  0  0
 71 74  1  0  0  0
 71145  1  0  0  0
 72 75  2  0  0  0
 72 76  1  0  0  0
 72146  1  0  0  0
 73 75  1  0  0  0
 73 77  1  0  0  0
 74 76  2  0  0  0
 74 78  1  0  0  0
 75 79  1  0  0  0
 76 80  1  0  0  0
 77147  1  0  0  0
 77148  1  0  0  0
 77149  1  0  0  0
 78150  1  0  0  0
 78151  1  0  0  0
 78152  1  0  0  0
 79 81  1  0  0  0
 79153  1  0  0  0
 79154  1  0  0  0
 80 83  1  0  0  0
 80155  1  0  0  0
 80156  1  0  0  0
 81 82  1  0  0  0
 81157  1  0  0  0
 81158  1  0  0  0
 82 84  1  0  0  0
 82159  1  0  0  0
 82160  1  0  0  0
 83 85  1  0  0  0
 83161  1  0  0  0
 83162  1  0  0  0
 84163  1  0  0  0
 84164  1  0  0  0
 85165  1  0  0  0
M  ISO  4   1 100  68 101  84 101  85 100
M  END
> <chiral flag>
0

> <version>
0

> <s_m_source_file>
/data/baiqing/PycharmProjects/Reinvent-master-3.2/result/LINK_invent/BTK/process_docking_weight1_custom_sum_contain_oxygen_bond_distance_aromatic_linkinvent_7_9_3/rearranged_h_0034.sdf

> <i_m_source_file_index>
31

> <r_mmod_Potential_Energy-OPLS-2005>
-78.2883377075195

> <r_mmod_Stretch_Energy-OPLS-2005>
39.0003204345703

> <r_mmod_Bend_Energy-OPLS-2005>
94.6546173095703

> <r_mmod_Torsional_Energy-OPLS-2005>
224.527603149414

> <r_mmod_Improper_Torsional_Energy-OPLS-2005>
5.33433723449707

> <r_mmod_Van_der_Waal_Energy-OPLS-2005>
151.654922485352

> <r_mmod_Electrostatic_Energy-OPLS-2005>
-398.476440429688

> <r_mmod_Solvation_Energy-OPLS-2005>
-207.95426940918

> <b_mmod_Minimization_Converged-OPLS-2005>
0

> <r_mmod_RMS_Derivative-OPLS-2005>
2.87839269638062

$$$$
32
                    3D
 Structure written by MMmdl.
162170  0  0  1  0            999 V2000
  -30.6407  -14.6994   20.4765 C   0  0  0  0  0  0
  -30.4255  -12.4300   19.4704 C   0  0  0  0  0  0
  -29.5023  -12.5108   18.2340 C   0  0  0  0  0  0
  -28.0274  -12.3420   18.6449 C   0  0  0  0  0  0
  -27.6434  -13.2329   19.8565 C   0  0  2  0  0  0
  -28.6883  -13.1509   20.9929 C   0  0  0  0  0  0
  -25.2511  -13.8223   20.5676 C   0  0  0  0  0  0
  -24.1796  -13.0456   20.9177 C   0  0  0  0  0  0
  -24.6398  -11.6939   20.8747 C   0  0  0  0  0  0
  -23.9086  -10.4306   21.0421 C   0  0  0  0  0  0
  -24.3628   -9.4213   21.9186 C   0  0  0  0  0  0
  -23.6296   -8.2248   22.0746 C   0  0  0  0  0  0
  -22.4279   -8.0295   21.3537 C   0  0  0  0  0  0
  -21.9933   -9.0279   20.4649 C   0  0  0  0  0  0
  -22.7269  -10.2155   20.3062 C   0  0  0  0  0  0
  -21.6846   -6.0759   22.5283 C   0  0  0  0  0  0
  -21.4024   -6.5650   23.8225 C   0  0  0  0  0  0
  -21.3652   -5.6793   24.9183 C   0  0  0  0  0  0
  -21.6038   -4.3058   24.7228 C   0  0  0  0  0  0
  -21.8810   -3.8161   23.4350 C   0  0  0  0  0  0
  -21.9184   -4.6983   22.3410 C   0  0  0  0  0  0
  -22.7826  -13.5224   21.1856 C   0  0  0  0  0  0
  -22.1641   -4.2166   21.0990 F   0  0  0  0  0  0
  -21.5629   -3.4538   25.7742 F   0  0  0  0  0  0
  -29.9946  -13.4872   20.4122 N   0  0  0  0  0  0
  -26.2944  -12.9424   20.3313 N   0  0  0  0  0  0
  -25.9330  -11.6568   20.5778 N   0  0  0  0  0  0
  -22.0515  -12.8170   22.0414 N   0  0  0  0  0  0
  -25.4197  -15.1941   20.4079 N   0  0  0  0  0  0
  -31.8238  -14.7917   20.1408 O   0  0  0  0  0  0
  -21.6626   -6.8898   21.4237 O   0  0  0  0  0  0
  -22.3476  -14.5531   20.6753 O   0  0  0  0  0  0
  -24.6306  -31.8569   23.2033 C   0  0  0  0  0  0
  -25.9133  -32.4761   23.8345 C   0  0  1  0  0  0
  -27.2120  -27.2659   20.1133 C   0  0  0  0  0  0
  -25.5929  -33.8563   24.2255 N   0  0  0  0  0  0
  -23.4264  -30.4854   21.5464 C   0  0  2  0  0  0
  -24.8755  -28.9476   20.1052 C   0  0  0  0  0  0
  -22.7487  -29.4619   22.4904 C   0  0  0  0  0  0
  -18.0297  -28.1379   22.8484 C   0  0  0  0  0  0
  -24.1493  -36.7308   23.2635 C   0  0  0  0  0  0
  -25.9756  -30.7675   21.3923 C   0  0  0  0  0  0
  -26.0481  -29.3961   20.7255 C   0  0  0  0  0  0
  -27.2175  -28.5646   20.7294 C   0  0  0  0  0  0
  -26.0216  -26.9180   19.4276 C   0  0  0  0  0  0
  -24.8672  -27.7152   19.4462 C   0  0  0  0  0  0
  -23.6469  -29.8310   20.1603 C   0  0  0  0  0  0
  -25.4114  -36.3070   24.0320 C   0  0  1  0  0  0
  -20.5900  -28.3707   23.1256 C   0  0  2  0  0  0
  -20.6785  -26.9427   22.5397 C   0  0  0  0  0  0
  -19.5764  -26.6385   21.5198 C   0  0  0  0  0  0
  -18.1944  -26.7924   22.1618 C   0  0  0  0  0  0
  -19.1548  -28.8855   23.2873 C   0  0  0  0  0  0
  -18.9469  -30.1452   23.8901 C   0  0  0  0  0  0
  -17.6472  -30.6588   24.0553 C   0  0  0  0  0  0
  -25.9051  -34.9440   23.5087 C   0  0  0  0  0  0
  -16.5363  -29.9076   23.6334 C   0  0  0  0  0  0
  -16.7283  -28.6492   23.0357 C   0  0  0  0  0  0
  -26.4506  -31.6594   25.0736 C   0  0  0  0  0  0
  -25.3728  -31.3758   26.1460 C   0  0  0  0  0  0
  -27.0378  -30.2999   24.6266 C   0  0  0  0  0  0
  -27.6042  -32.4364   25.7502 C   0  0  0  0  0  0
  -27.5576  -37.1809   24.8448 C   0  0  0  0  0  0
  -21.4194  -29.3061   22.3636 N   0  0  0  0  0  0
  -26.4286  -37.3770   23.9397 N   0  0  0  0  0  0
  -24.6955  -31.0533   22.1026 N   0  0  0  0  0  0
  -23.4183  -28.8133   23.2984 O   0  0  0  0  0  0
  -28.2688  -26.3175   20.1988 O   0  0  0  0  0  0
  -26.5627  -34.8915   22.4658 O   0  0  0  0  0  0
  -23.5463  -32.1391   23.7336 O   0  0  0  0  0  0
  -27.2904  -20.5957   17.4478 C   0  0  0  0  0  0
  -26.3458  -21.4236   18.0566 C   0  0  0  0  0  0
  -28.4817  -20.2970   18.1247 C   0  0  0  0  0  0
  -26.6884  -22.1579   19.2047 C   0  0  0  0  0  0
  -28.7640  -20.8976   19.3877 C   0  0  0  0  0  0
  -28.0224  -22.1244   19.7204 C   0  0  0  0  0  0
  -29.4048  -19.2805   17.4606 C   0  0  0  0  0  0
  -25.5413  -22.8999   19.8696 C   0  0  0  0  0  0
  -29.6934  -20.0313   20.3298 C   0  0  0  0  0  0
  -28.6051  -23.4685   20.3780 C   0  0  0  0  0  0
  -29.2691  -18.4709   20.5387 C   0  0  0  0  0  0
  -30.3619  -17.2897   20.6123 C   0  0  0  0  0  0
  -27.9016  -24.8771   19.9401 C   0  0  0  0  0  0
  -29.8987  -15.8401   20.7118 N   0  0  0  0  0  0
  -31.4687  -12.5449   19.1703 H   0  0  0  0  0  0
  -30.3569  -11.4496   19.9432 H   0  0  0  0  0  0
  -29.7746  -11.7490   17.5026 H   0  0  0  0  0  0
  -29.6299  -13.4743   17.7377 H   0  0  0  0  0  0
  -27.8672  -11.2912   18.8902 H   0  0  0  0  0  0
  -27.3745  -12.5601   17.7978 H   0  0  0  0  0  0
  -27.6452  -14.2584   19.4870 H   0  0  0  0  0  0
  -28.7141  -12.1525   21.4319 H   0  0  0  0  0  0
  -28.4314  -13.8325   21.8062 H   0  0  0  0  0  0
  -25.2766   -9.5666   22.4761 H   0  0  0  0  0  0
  -23.9996   -7.4623   22.7453 H   0  0  0  0  0  0
  -21.0872   -8.8813   19.8949 H   0  0  0  0  0  0
  -22.3751  -10.9718   19.6191 H   0  0  0  0  0  0
  -21.2031   -7.6159   23.9744 H   0  0  0  0  0  0
  -21.1458   -6.0521   25.9084 H   0  0  0  0  0  0
  -22.0588   -2.7620   23.2858 H   0  0  0  0  0  0
  -22.4174  -11.9774   22.4664 H   0  0  0  0  0  0
  -21.1187  -13.1222   22.2783 H   0  0  0  0  0  0
  -26.2653  -15.6334   20.0664 H   0  0  0  0  0  0
  -24.6516  -15.8479   20.5171 H   0  0  0  0  0  0
  -26.7194  -32.5423   23.1075 H   0  0  0  0  0  0
  -25.0015  -33.9695   25.0355 H   0  0  0  0  0  0
  -22.7225  -31.3082   21.4040 H   0  0  0  0  0  0
  -23.3746  -35.9651   23.3279 H   0  0  0  0  0  0
  -24.3573  -36.8950   22.2050 H   0  0  0  0  0  0
  -23.7266  -37.6502   23.6685 H   0  0  0  0  0  0
  -26.1267  -31.5374   20.6341 H   0  0  0  0  0  0
  -26.8451  -30.8021   22.0359 H   0  0  0  0  0  0
  -28.1034  -28.8933   21.2549 H   0  0  0  0  0  0
  -25.9333  -25.9975   18.8734 H   0  0  0  0  0  0
  -23.9758  -27.3743   18.9367 H   0  0  0  0  0  0
  -23.7710  -30.6108   19.4091 H   0  0  0  0  0  0
  -22.7649  -29.2657   19.8538 H   0  0  0  0  0  0
  -25.1307  -36.1899   25.0817 H   0  0  0  0  0  0
  -20.9994  -28.3290   24.1370 H   0  0  0  0  0  0
  -20.5665  -26.2319   23.3601 H   0  0  0  0  0  0
  -21.6655  -26.7439   22.1199 H   0  0  0  0  0  0
  -19.6929  -25.6285   21.1238 H   0  0  0  0  0  0
  -19.6696  -27.3186   20.6725 H   0  0  0  0  0  0
  -17.4204  -26.6666   21.4028 H   0  0  0  0  0  0
  -18.0365  -26.0056   22.9016 H   0  0  0  0  0  0
  -19.7947  -30.7259   24.2273 H   0  0  0  0  0  0
  -17.5032  -31.6270   24.5142 H   0  0  0  0  0  0
  -15.5362  -30.2973   23.7663 H   0  0  0  0  0  0
  -15.8688  -28.0798   22.7083 H   0  0  0  0  0  0
  -24.5896  -30.7116   25.7787 H   0  0  0  0  0  0
  -24.8942  -32.2942   26.4875 H   0  0  0  0  0  0
  -25.8047  -30.8924   27.0238 H   0  0  0  0  0  0
  -26.2978  -29.6686   24.1330 H   0  0  0  0  0  0
  -27.4073  -29.7321   25.4817 H   0  0  0  0  0  0
  -27.8848  -30.4245   23.9519 H   0  0  0  0  0  0
  -27.2619  -33.3667   26.2062 H   0  0  0  0  0  0
  -28.3849  -32.6939   25.0328 H   0  0  0  0  0  0
  -28.0726  -31.8512   26.5429 H   0  0  0  0  0  0
  -28.2582  -38.0115   24.7498 H   0  0  0  0  0  0
  -28.1089  -36.2645   24.6279 H   0  0  0  0  0  0
  -27.2296  -37.1459   25.8850 H   0  0  0  0  0  0
  -20.9362  -29.8798   21.6861 H   0  0  0  0  0  0
  -26.0156  -38.2839   24.1402 H   0  0  0  0  0  0
  -27.0461  -20.0986   16.5192 H   0  0  0  0  0  0
  -25.3603  -21.5149   17.6194 H   0  0  0  0  0  0
  -28.9986  -18.2723   17.5383 H   0  0  0  0  0  0
  -30.4140  -19.2856   17.8700 H   0  0  0  0  0  0
  -29.5009  -19.5075   16.3987 H   0  0  0  0  0  0
  -25.3097  -23.8354   19.3623 H   0  0  0  0  0  0
  -25.7395  -23.0832   20.9254 H   0  0  0  0  0  0
  -24.6384  -22.2887   19.8347 H   0  0  0  0  0  0
  -29.7447  -20.5111   21.3068 H   0  0  0  0  0  0
  -30.7108  -20.0807   19.9430 H   0  0  0  0  0  0
  -29.6626  -23.5175   20.1175 H   0  0  0  0  0  0
  -28.5678  -23.3655   21.4616 H   0  0  0  0  0  0
  -28.5833  -18.1872   19.7461 H   0  0  0  0  0  0
  -28.6457  -18.4220   21.4323 H   0  0  0  0  0  0
  -31.0169  -17.4766   21.4649 H   0  0  0  0  0  0
  -31.0019  -17.3681   19.7322 H   0  0  0  0  0  0
  -26.9510  -24.8157   20.4519 H   0  0  0  0  0  0
  -27.7384  -24.8038   18.8632 H   0  0  0  0  0  0
  -28.9280  -15.6882   20.9402 H   0  0  0  0  0  0
  1 25  1  0  0  0
  1 30  2  0  0  0
  1 84  1  0  0  0
  2  3  1  0  0  0
  2 25  1  0  0  0
  2 85  1  0  0  0
  2 86  1  0  0  0
  3  4  1  0  0  0
  3 87  1  0  0  0
  3 88  1  0  0  0
  4  5  1  0  0  0
  4 89  1  0  0  0
  4 90  1  0  0  0
  5  6  1  0  0  0
  5 26  1  0  0  0
  5 91  1  0  0  0
  6 25  1  0  0  0
  6 92  1  0  0  0
  6 93  1  0  0  0
  7  8  2  0  0  0
  7 26  1  0  0  0
  7 29  1  0  0  0
  8  9  1  0  0  0
  8 22  1  0  0  0
  9 10  1  0  0  0
  9 27  2  0  0  0
 10 11  2  0  0  0
 10 15  1  0  0  0
 11 12  1  0  0  0
 11 94  1  0  0  0
 12 13  2  0  0  0
 12 95  1  0  0  0
 13 14  1  0  0  0
 13 31  1  0  0  0
 14 15  2  0  0  0
 14 96  1  0  0  0
 15 97  1  0  0  0
 16 17  2  0  0  0
 16 21  1  0  0  0
 16 31  1  0  0  0
 17 18  1  0  0  0
 17 98  1  0  0  0
 18 19  2  0  0  0
 18 99  1  0  0  0
 19 20  1  0  0  0
 19 24  1  0  0  0
 20 21  2  0  0  0
 20100  1  0  0  0
 21 23  1  0  0  0
 22 28  1  0  0  0
 22 32  2  0  0  0
 26 27  1  0  0  0
 28101  1  0  0  0
 28102  1  0  0  0
 29103  1  0  0  0
 29104  1  0  0  0
 33 34  1  0  0  0
 33 66  1  0  0  0
 33 70  2  0  0  0
 34 36  1  0  0  0
 34 59  1  0  0  0
 34105  1  0  0  0
 35 44  2  0  0  0
 35 45  1  0  0  0
 35 68  1  0  0  0
 36 56  1  0  0  0
 36106  1  0  0  0
 37 39  1  0  0  0
 37 47  1  0  0  0
 37 66  1  0  0  0
 37107  1  0  0  0
 38 43  2  0  0  0
 38 46  1  0  0  0
 38 47  1  0  0  0
 39 64  1  0  0  0
 39 67  2  0  0  0
 40 52  1  0  0  0
 40 53  2  0  0  0
 40 58  1  0  0  0
 41108  1  0  0  0
 41109  1  0  0  0
 41110  1  0  0  0
 41 48  1  0  0  0
 42 43  1  0  0  0
 42 66  1  0  0  0
 42111  1  0  0  0
 42112  1  0  0  0
 43 44  1  0  0  0
 44113  1  0  0  0
 45 46  2  0  0  0
 45114  1  0  0  0
 46115  1  0  0  0
 47116  1  0  0  0
 47117  1  0  0  0
 48 56  1  0  0  0
 48 65  1  0  0  0
 48118  1  0  0  0
 49 50  1  0  0  0
 49 53  1  0  0  0
 49 64  1  0  0  0
 49119  1  0  0  0
 50 51  1  0  0  0
 50120  1  0  0  0
 50121  1  0  0  0
 51 52  1  0  0  0
 51122  1  0  0  0
 51123  1  0  0  0
 52124  1  0  0  0
 52125  1  0  0  0
 53 54  1  0  0  0
 54 55  2  0  0  0
 54126  1  0  0  0
 55 57  1  0  0  0
 55127  1  0  0  0
 56 69  2  0  0  0
 57 58  2  0  0  0
 57128  1  0  0  0
 58129  1  0  0  0
 59 60  1  0  0  0
 59 61  1  0  0  0
 59 62  1  0  0  0
 60130  1  0  0  0
 60131  1  0  0  0
 60132  1  0  0  0
 61133  1  0  0  0
 61134  1  0  0  0
 61135  1  0  0  0
 62136  1  0  0  0
 62137  1  0  0  0
 62138  1  0  0  0
 63 65  1  0  0  0
 63139  1  0  0  0
 63140  1  0  0  0
 63141  1  0  0  0
 64142  1  0  0  0
 65143  1  0  0  0
 68 83  1  0  0  0
 71 72  2  0  0  0
 71 73  1  0  0  0
 71144  1  0  0  0
 72 74  1  0  0  0
 72145  1  0  0  0
 73 75  2  0  0  0
 73 77  1  0  0  0
 74 76  2  0  0  0
 74 78  1  0  0  0
 75 76  1  0  0  0
 75 79  1  0  0  0
 76 80  1  0  0  0
 77146  1  0  0  0
 77147  1  0  0  0
 77148  1  0  0  0
 78149  1  0  0  0
 78150  1  0  0  0
 78151  1  0  0  0
 79 81  1  0  0  0
 79152  1  0  0  0
 79153  1  0  0  0
 80 83  1  0  0  0
 80154  1  0  0  0
 80155  1  0  0  0
 81 82  1  0  0  0
 81156  1  0  0  0
 81157  1  0  0  0
 82 84  1  0  0  0
 82158  1  0  0  0
 82159  1  0  0  0
 83160  1  0  0  0
 83161  1  0  0  0
 84162  1  0  0  0
M  ISO  4   1 100  68 101  83 101  84 100
M  END
> <chiral flag>
0

> <version>
0

> <s_m_source_file>
/data/baiqing/PycharmProjects/Reinvent-master-3.2/result/LINK_invent/BTK/process_docking_weight1_custom_sum_contain_oxygen_bond_distance_aromatic_linkinvent_7_9_3/rearranged_h_0034.sdf

> <i_m_source_file_index>
32

> <r_mmod_Potential_Energy-OPLS-2005>
297.478332519531

> <r_mmod_Stretch_Energy-OPLS-2005>
133.617492675781

> <r_mmod_Bend_Energy-OPLS-2005>
185.504470825195

> <r_mmod_Torsional_Energy-OPLS-2005>
324.935791015625

> <r_mmod_Improper_Torsional_Energy-OPLS-2005>
6.93203020095825

> <r_mmod_Van_der_Waal_Energy-OPLS-2005>
163.451263427734

> <r_mmod_Electrostatic_Energy-OPLS-2005>
-391.118347167969

> <r_mmod_Solvation_Energy-OPLS-2005>
-206.775436401367

> <b_mmod_Minimization_Converged-OPLS-2005>
0

> <r_mmod_RMS_Derivative-OPLS-2005>
2.19128656387329

$$$$
33
                    3D
 Structure written by MMmdl.
180188  0  0  1  0            999 V2000
  -30.7900  -14.3769   20.6955 C   0  0  0  0  0  0
  -30.4062  -12.3072   19.3915 C   0  0  0  0  0  0
  -29.4809  -12.5405   18.1867 C   0  0  0  0  0  0
  -28.0101  -12.4010   18.6131 C   0  0  0  0  0  0
  -27.6723  -13.2143   19.8851 C   0  0  2  0  0  0
  -28.7110  -12.9712   21.0031 C   0  0  0  0  0  0
  -25.2652  -13.8198   20.5632 C   0  0  0  0  0  0
  -24.1890  -13.0476   20.9158 C   0  0  0  0  0  0
  -24.6414  -11.6934   20.8663 C   0  0  0  0  0  0
  -23.9086  -10.4329   21.0363 C   0  0  0  0  0  0
  -24.3621   -9.4276   21.9138 C   0  0  0  0  0  0
  -23.6304   -8.2307   22.0745 C   0  0  0  0  0  0
  -22.4288   -8.0340   21.3576 C   0  0  0  0  0  0
  -21.9923   -9.0324   20.4657 C   0  0  0  0  0  0
  -22.7241  -10.2185   20.3061 C   0  0  0  0  0  0
  -21.6890   -6.0750   22.5278 C   0  0  0  0  0  0
  -21.4020   -6.5633   23.8230 C   0  0  0  0  0  0
  -21.3663   -5.6785   24.9171 C   0  0  0  0  0  0
  -21.6086   -4.3071   24.7225 C   0  0  0  0  0  0
  -21.8831   -3.8163   23.4338 C   0  0  0  0  0  0
  -21.9194   -4.6981   22.3394 C   0  0  0  0  0  0
  -22.7926  -13.5310   21.1780 C   0  0  0  0  0  0
  -22.1672   -4.2156   21.0977 F   0  0  0  0  0  0
  -21.5614   -3.4546   25.7723 F   0  0  0  0  0  0
  -30.0506  -13.2590   20.4594 N   0  0  0  0  0  0
  -26.3106  -12.9368   20.3440 N   0  0  0  0  0  0
  -25.9373  -11.6506   20.5811 N   0  0  0  0  0  0
  -22.0499  -12.8370   22.0346 N   0  0  0  0  0  0
  -25.4322  -15.1917   20.3942 N   0  0  0  0  0  0
  -31.8083  -14.6417   20.0469 O   0  0  0  0  0  0
  -21.6676   -6.8930   21.4273 O   0  0  0  0  0  0
  -22.3643  -14.5611   20.6639 O   0  0  0  0  0  0
  -24.6115  -31.8714   23.2116 C   0  0  0  0  0  0
  -25.8998  -32.4848   23.8436 C   0  0  1  0  0  0
  -27.2805  -27.4808   20.1093 C   0  0  0  0  0  0
  -25.5867  -33.8648   24.2376 N   0  0  0  0  0  0
  -23.4030  -30.4888   21.5498 C   0  0  2  0  0  0
  -24.8646  -28.9569   20.1227 C   0  0  0  0  0  0
  -22.7417  -29.4648   22.5017 C   0  0  0  0  0  0
  -18.0264  -28.1376   22.8490 C   0  0  0  0  0  0
  -24.1481  -36.7330   23.2634 C   0  0  0  0  0  0
  -25.9256  -30.8535   21.3602 C   0  0  0  0  0  0
  -26.0163  -29.4856   20.7189 C   0  0  0  0  0  0
  -27.2254  -28.7571   20.7171 C   0  0  0  0  0  0
  -26.1093  -26.9568   19.5245 C   0  0  0  0  0  0
  -24.9043  -27.6869   19.5212 C   0  0  0  0  0  0
  -23.6190  -29.8138   20.1672 C   0  0  0  0  0  0
  -25.4094  -36.3135   24.0353 C   0  0  1  0  0  0
  -20.5855  -28.3646   23.1330 C   0  0  2  0  0  0
  -20.6759  -26.9393   22.5423 C   0  0  0  0  0  0
  -19.5735  -26.6384   21.5220 C   0  0  0  0  0  0
  -18.1909  -26.7921   22.1625 C   0  0  0  0  0  0
  -19.1516  -28.8829   23.2903 C   0  0  0  0  0  0
  -18.9444  -30.1436   23.8916 C   0  0  0  0  0  0
  -17.6449  -30.6582   24.0558 C   0  0  0  0  0  0
  -25.9015  -34.9500   23.5158 C   0  0  0  0  0  0
  -16.5337  -29.9085   23.6325 C   0  0  0  0  0  0
  -16.7254  -28.6501   23.0345 C   0  0  0  0  0  0
  -26.4451  -31.6603   25.0736 C   0  0  0  0  0  0
  -25.3742  -31.3695   26.1503 C   0  0  0  0  0  0
  -27.0263  -30.3049   24.6054 C   0  0  0  0  0  0
  -27.6066  -32.4292   25.7460 C   0  0  0  0  0  0
  -27.5593  -37.1807   24.8465 C   0  0  0  0  0  0
  -21.4152  -29.3020   22.3750 N   0  0  0  0  0  0
  -26.4294  -37.3809   23.9418 N   0  0  0  0  0  0
  -24.6635  -31.0855   22.0992 N   0  0  0  0  0  0
  -23.4202  -28.8207   23.3056 O   0  0  0  0  0  0
  -28.4078  -26.6923   20.0286 O   0  0  0  0  0  0
  -26.5585  -34.8923   22.4719 O   0  0  0  0  0  0
  -23.5310  -32.1440   23.7516 O   0  0  0  0  0  0
  -30.6263  -25.4748   18.8294 C   0  0  0  0  0  0
  -32.0946  -26.3437   20.5495 C   0  0  0  0  0  0
  -30.8189  -26.3011   19.9551 C   0  0  0  0  0  0
  -31.6781  -24.7082   18.2778 C   0  0  0  0  0  0
  -32.9718  -24.7694   18.8745 C   0  0  0  0  0  0
  -33.1577  -25.5885   20.0149 C   0  0  0  0  0  0
  -34.8978  -24.6389   17.1612 C   0  0  0  0  0  0
  -31.3601  -23.9003   17.0200 C   0  0  0  0  0  0
  -34.1806  -23.9864   18.3534 C   0  0  0  0  0  0
  -29.6783  -27.1828   20.4622 C   0  0  0  0  0  0
  -31.2928  -22.3681   17.1801 C   0  0  0  0  0  0
  -30.4136  -21.8110   18.3125 C   0  0  0  0  0  0
  -28.9113  -21.8100   17.9836 C   0  0  0  0  0  0
  -28.0365  -20.9991   18.9651 C   0  0  0  0  0  0
  -28.4897  -19.5395   19.1872 C   0  0  0  0  0  0
  -29.2536  -19.3346   20.5115 C   0  0  0  0  0  0
  -29.6895  -17.8763   20.7264 C   0  0  0  0  0  0
  -30.3776  -17.6629   22.0836 C   0  0  0  0  0  0
  -31.1257  -16.3254   22.2262 C   0  0  0  0  0  0
  -30.3840  -15.1632   21.7075 N   0  0  0  0  0  0
  -34.3752  -25.6678   20.6064 F   0  0  0  0  0  0
  -31.4440  -12.4027   19.0681 H   0  0  0  0  0  0
  -30.3031  -11.2829   19.7463 H   0  0  0  0  0  0
  -29.7094  -11.8149   17.4046 H   0  0  0  0  0  0
  -29.6627  -13.5245   17.7497 H   0  0  0  0  0  0
  -27.8220  -11.3473   18.8090 H   0  0  0  0  0  0
  -27.3522  -12.6873   17.7922 H   0  0  0  0  0  0
  -27.7237  -14.2681   19.6167 H   0  0  0  0  0  0
  -28.6743  -11.9397   21.3559 H   0  0  0  0  0  0
  -28.4523  -13.5757   21.8686 H   0  0  0  0  0  0
  -25.2716   -9.5792   22.4726 H   0  0  0  0  0  0
  -24.0010   -7.4759   22.7476 H   0  0  0  0  0  0
  -21.0852   -8.8928   19.8937 H   0  0  0  0  0  0
  -22.3712  -10.9789   19.6224 H   0  0  0  0  0  0
  -21.2008   -7.6148   23.9755 H   0  0  0  0  0  0
  -21.1432   -6.0473   25.9084 H   0  0  0  0  0  0
  -22.0568   -2.7622   23.2849 H   0  0  0  0  0  0
  -22.4028  -12.0068   22.4887 H   0  0  0  0  0  0
  -21.1136  -13.1555   22.2380 H   0  0  0  0  0  0
  -24.6762  -15.8622   20.4967 H   0  0  0  0  0  0
  -26.2951  -15.6308   20.0988 H   0  0  0  0  0  0
  -26.7095  -32.5615   23.1253 H   0  0  0  0  0  0
  -25.0043  -33.9827   25.0532 H   0  0  0  0  0  0
  -22.6873  -31.3008   21.4046 H   0  0  0  0  0  0
  -23.3749  -35.9663   23.3311 H   0  0  0  0  0  0
  -24.3590  -36.8918   22.2052 H   0  0  0  0  0  0
  -23.7232  -37.6533   23.6630 H   0  0  0  0  0  0
  -26.0262  -31.6171   20.5877 H   0  0  0  0  0  0
  -26.8150  -30.9217   21.9737 H   0  0  0  0  0  0
  -28.1019  -29.1893   21.1791 H   0  0  0  0  0  0
  -26.1386  -25.9812   19.0601 H   0  0  0  0  0  0
  -24.0218  -27.2684   19.0583 H   0  0  0  0  0  0
  -23.7221  -30.5852   19.4033 H   0  0  0  0  0  0
  -22.7502  -29.2237   19.8725 H   0  0  0  0  0  0
  -25.1271  -36.2023   25.0854 H   0  0  0  0  0  0
  -20.9939  -28.3205   24.1451 H   0  0  0  0  0  0
  -20.5658  -26.2268   23.3605 H   0  0  0  0  0  0
  -21.6624  -26.7432   22.1210 H   0  0  0  0  0  0
  -19.6894  -25.6298   21.1230 H   0  0  0  0  0  0
  -19.6674  -27.3215   20.6759 H   0  0  0  0  0  0
  -17.4189  -26.6677   21.4016 H   0  0  0  0  0  0
  -18.0291  -26.0054   22.9011 H   0  0  0  0  0  0
  -19.7920  -30.7244   24.2307 H   0  0  0  0  0  0
  -17.4996  -31.6262   24.5160 H   0  0  0  0  0  0
  -15.5337  -30.2997   23.7614 H   0  0  0  0  0  0
  -15.8652  -28.0818   22.7058 H   0  0  0  0  0  0
  -24.5881  -30.7080   25.7835 H   0  0  0  0  0  0
  -24.8974  -32.2858   26.5002 H   0  0  0  0  0  0
  -25.8110  -30.8817   27.0231 H   0  0  0  0  0  0
  -26.2783  -29.6817   24.1133 H   0  0  0  0  0  0
  -27.4088  -29.7257   25.4472 H   0  0  0  0  0  0
  -27.8598  -30.4377   23.9147 H   0  0  0  0  0  0
  -27.2728  -33.3586   26.2075 H   0  0  0  0  0  0
  -28.3833  -32.6851   25.0244 H   0  0  0  0  0  0
  -28.0778  -31.8388   26.5326 H   0  0  0  0  0  0
  -28.2607  -38.0099   24.7522 H   0  0  0  0  0  0
  -28.1080  -36.2646   24.6272 H   0  0  0  0  0  0
  -27.2321  -37.1442   25.8861 H   0  0  0  0  0  0
  -20.9328  -29.8785   21.6995 H   0  0  0  0  0  0
  -26.0204  -38.2887   24.1416 H   0  0  0  0  0  0
  -29.6523  -25.4476   18.3634 H   0  0  0  0  0  0
  -32.2767  -26.9642   21.4161 H   0  0  0  0  0  0
  -35.7559  -24.0390   16.8536 H   0  0  0  0  0  0
  -35.2734  -25.6274   17.4238 H   0  0  0  0  0  0
  -34.2531  -24.7485   16.2900 H   0  0  0  0  0  0
  -32.0763  -24.1588   16.2420 H   0  0  0  0  0  0
  -30.3997  -24.2369   16.6259 H   0  0  0  0  0  0
  -33.9200  -22.9577   18.1269 H   0  0  0  0  0  0
  -34.9077  -23.8869   19.1604 H   0  0  0  0  0  0
  -29.8544  -28.1889   20.0794 H   0  0  0  0  0  0
  -29.7072  -27.2329   21.5520 H   0  0  0  0  0  0
  -32.2920  -21.9738   17.3250 H   0  0  0  0  0  0
  -30.9783  -21.9299   16.2318 H   0  0  0  0  0  0
  -30.5941  -22.3249   19.2569 H   0  0  0  0  0  0
  -30.7490  -20.7845   18.4644 H   0  0  0  0  0  0
  -28.7551  -21.4289   16.9745 H   0  0  0  0  0  0
  -28.5622  -22.8426   17.9599 H   0  0  0  0  0  0
  -27.0254  -20.9792   18.5533 H   0  0  0  0  0  0
  -27.9501  -21.5213   19.9190 H   0  0  0  0  0  0
  -29.0908  -19.1901   18.3422 H   0  0  0  0  0  0
  -27.6085  -18.8965   19.2045 H   0  0  0  0  0  0
  -28.6140  -19.6264   21.3446 H   0  0  0  0  0  0
  -30.1224  -19.9924   20.5624 H   0  0  0  0  0  0
  -28.8175  -17.2224   20.6706 H   0  0  0  0  0  0
  -30.3587  -17.5666   19.9221 H   0  0  0  0  0  0
  -29.6395  -17.7535   22.8790 H   0  0  0  0  0  0
  -31.0965  -18.4685   22.2622 H   0  0  0  0  0  0
  -31.3374  -16.1712   23.2861 H   0  0  0  0  0  0
  -32.0970  -16.4228   21.7354 H   0  0  0  0  0  0
  -29.5328  -14.8994   22.1844 H   0  0  0  0  0  0
  1 25  1  0  0  0
  1 30  2  0  0  0
  1 90  1  0  0  0
  2  3  1  0  0  0
  2 25  1  0  0  0
  2 92  1  0  0  0
  2 93  1  0  0  0
  3  4  1  0  0  0
  3 94  1  0  0  0
  3 95  1  0  0  0
  4  5  1  0  0  0
  4 96  1  0  0  0
  4 97  1  0  0  0
  5  6  1  0  0  0
  5 26  1  0  0  0
  5 98  1  0  0  0
  6 25  1  0  0  0
  6 99  1  0  0  0
  6100  1  0  0  0
  7  8  2  0  0  0
  7 26  1  0  0  0
  7 29  1  0  0  0
  8  9  1  0  0  0
  8 22  1  0  0  0
  9 10  1  0  0  0
  9 27  2  0  0  0
 10 11  2  0  0  0
 10 15  1  0  0  0
 11 12  1  0  0  0
 11101  1  0  0  0
 12 13  2  0  0  0
 12102  1  0  0  0
 13 14  1  0  0  0
 13 31  1  0  0  0
 14 15  2  0  0  0
 14103  1  0  0  0
 15104  1  0  0  0
 16 17  2  0  0  0
 16 21  1  0  0  0
 16 31  1  0  0  0
 17 18  1  0  0  0
 17105  1  0  0  0
 18 19  2  0  0  0
 18106  1  0  0  0
 19 20  1  0  0  0
 19 24  1  0  0  0
 20 21  2  0  0  0
 20107  1  0  0  0
 21 23  1  0  0  0
 22 28  1  0  0  0
 22 32  2  0  0  0
 26 27  1  0  0  0
 28108  1  0  0  0
 28109  1  0  0  0
 29110  1  0  0  0
 29111  1  0  0  0
 33 34  1  0  0  0
 33 66  1  0  0  0
 33 70  2  0  0  0
 34 36  1  0  0  0
 34 59  1  0  0  0
 34112  1  0  0  0
 35 44  2  0  0  0
 35 45  1  0  0  0
 35 68  1  0  0  0
 36 56  1  0  0  0
 36113  1  0  0  0
 37 39  1  0  0  0
 37 47  1  0  0  0
 37 66  1  0  0  0
 37114  1  0  0  0
 38 43  2  0  0  0
 38 46  1  0  0  0
 38 47  1  0  0  0
 39 64  1  0  0  0
 39 67  2  0  0  0
 40 52  1  0  0  0
 40 53  2  0  0  0
 40 58  1  0  0  0
 41115  1  0  0  0
 41116  1  0  0  0
 41117  1  0  0  0
 41 48  1  0  0  0
 42 43  1  0  0  0
 42 66  1  0  0  0
 42118  1  0  0  0
 42119  1  0  0  0
 43 44  1  0  0  0
 44120  1  0  0  0
 45 46  2  0  0  0
 45121  1  0  0  0
 46122  1  0  0  0
 47123  1  0  0  0
 47124  1  0  0  0
 48 56  1  0  0  0
 48 65  1  0  0  0
 48125  1  0  0  0
 49 50  1  0  0  0
 49 53  1  0  0  0
 49 64  1  0  0  0
 49126  1  0  0  0
 50 51  1  0  0  0
 50127  1  0  0  0
 50128  1  0  0  0
 51 52  1  0  0  0
 51129  1  0  0  0
 51130  1  0  0  0
 52131  1  0  0  0
 52132  1  0  0  0
 53 54  1  0  0  0
 54 55  2  0  0  0
 54133  1  0  0  0
 55 57  1  0  0  0
 55134  1  0  0  0
 56 69  2  0  0  0
 57 58  2  0  0  0
 57135  1  0  0  0
 58136  1  0  0  0
 59 60  1  0  0  0
 59 61  1  0  0  0
 59 62  1  0  0  0
 60137  1  0  0  0
 60138  1  0  0  0
 60139  1  0  0  0
 61140  1  0  0  0
 61141  1  0  0  0
 61142  1  0  0  0
 62143  1  0  0  0
 62144  1  0  0  0
 62145  1  0  0  0
 63 65  1  0  0  0
 63146  1  0  0  0
 63147  1  0  0  0
 63148  1  0  0  0
 64149  1  0  0  0
 65150  1  0  0  0
 68 80  1  0  0  0
 71 73  2  0  0  0
 71 74  1  0  0  0
 71151  1  0  0  0
 72 73  1  0  0  0
 72 76  2  0  0  0
 72152  1  0  0  0
 73 80  1  0  0  0
 74 75  2  0  0  0
 74 78  1  0  0  0
 75 76  1  0  0  0
 75 79  1  0  0  0
 76 91  1  0  0  0
 77 79  1  0  0  0
 77153  1  0  0  0
 77154  1  0  0  0
 77155  1  0  0  0
 78 81  1  0  0  0
 78156  1  0  0  0
 78157  1  0  0  0
 79158  1  0  0  0
 79159  1  0  0  0
 80160  1  0  0  0
 80161  1  0  0  0
 81 82  1  0  0  0
 81162  1  0  0  0
 81163  1  0  0  0
 82 83  1  0  0  0
 82164  1  0  0  0
 82165  1  0  0  0
 83 84  1  0  0  0
 83166  1  0  0  0
 83167  1  0  0  0
 84 85  1  0  0  0
 84168  1  0  0  0
 84169  1  0  0  0
 85 86  1  0  0  0
 85170  1  0  0  0
 85171  1  0  0  0
 86 87  1  0  0  0
 86172  1  0  0  0
 86173  1  0  0  0
 87 88  1  0  0  0
 87174  1  0  0  0
 87175  1  0  0  0
 88 89  1  0  0  0
 88176  1  0  0  0
 88177  1  0  0  0
 89 90  1  0  0  0
 89178  1  0  0  0
 89179  1  0  0  0
 90180  1  0  0  0
M  ISO  4   1 100  68 101  80 101  90 100
M  END
> <chiral flag>
0

> <version>
0

> <s_m_source_file>
/data/baiqing/PycharmProjects/Reinvent-master-3.2/result/LINK_invent/BTK/process_docking_weight1_custom_sum_contain_oxygen_bond_distance_aromatic_linkinvent_7_9_3/rearranged_h_0034.sdf

> <i_m_source_file_index>
33

> <r_mmod_Potential_Energy-OPLS-2005>
-26.6120452880859

> <r_mmod_Stretch_Energy-OPLS-2005>
36.3168449401855

> <r_mmod_Bend_Energy-OPLS-2005>
115.165374755859

> <r_mmod_Torsional_Energy-OPLS-2005>
221.225112915039

> <r_mmod_Improper_Torsional_Energy-OPLS-2005>
2.02338409423828

> <r_mmod_Van_der_Waal_Energy-OPLS-2005>
151.496994018555

> <r_mmod_Electrostatic_Energy-OPLS-2005>
-370.877960205078

> <r_mmod_Solvation_Energy-OPLS-2005>
-188.71711730957

> <b_mmod_Minimization_Converged-OPLS-2005>
0

> <r_mmod_RMS_Derivative-OPLS-2005>
6.61691999435425

$$$$
34
                    3D
 Structure written by MMmdl.
171179  0  0  1  0            999 V2000
  -30.3888  -15.6633   20.1032 C   0  0  0  0  0  0
  -30.4355  -13.0790   19.4653 C   0  0  0  0  0  0
  -29.5424  -12.6180   18.2836 C   0  0  0  0  0  0
  -28.1240  -12.2778   18.7637 C   0  0  0  0  0  0
  -27.6026  -13.3150   19.7841 C   0  0  2  0  0  0
  -28.6507  -13.7220   20.8530 C   0  0  0  0  0  0
  -25.2421  -13.8310   20.5833 C   0  0  0  0  0  0
  -24.1791  -13.0457   20.9300 C   0  0  0  0  0  0
  -24.6492  -11.6970   20.8772 C   0  0  0  0  0  0
  -23.9173  -10.4311   21.0396 C   0  0  0  0  0  0
  -24.3685   -9.4215   21.9185 C   0  0  0  0  0  0
  -23.6329   -8.2263   22.0760 C   0  0  0  0  0  0
  -22.4310   -8.0305   21.3549 C   0  0  0  0  0  0
  -21.9968   -9.0290   20.4652 C   0  0  0  0  0  0
  -22.7329  -10.2156   20.3056 C   0  0  0  0  0  0
  -21.6861   -6.0752   22.5278 C   0  0  0  0  0  0
  -21.4020   -6.5650   23.8213 C   0  0  0  0  0  0
  -21.3657   -5.6799   24.9171 C   0  0  0  0  0  0
  -21.6042   -4.3062   24.7220 C   0  0  0  0  0  0
  -21.8820   -3.8158   23.4340 C   0  0  0  0  0  0
  -21.9197   -4.6978   22.3398 C   0  0  0  0  0  0
  -22.7788  -13.5179   21.1903 C   0  0  0  0  0  0
  -22.1666   -4.2161   21.0976 F   0  0  0  0  0  0
  -21.5624   -3.4544   25.7732 F   0  0  0  0  0  0
  -29.8155  -14.3101   20.1292 N   0  0  0  0  0  0
  -26.2907  -12.9672   20.3272 N   0  0  0  0  0  0
  -25.9454  -11.6733   20.5713 N   0  0  0  0  0  0
  -22.0437  -12.8161   22.0448 N   0  0  0  0  0  0
  -25.4003  -15.2050   20.4266 N   0  0  0  0  0  0
  -31.6258  -15.5423   20.0566 O   0  0  0  0  0  0
  -21.6655   -6.8909   21.4248 O   0  0  0  0  0  0
  -22.3464  -14.5469   20.6723 O   0  0  0  0  0  0
  -24.6765  -32.0100   23.1608 C   0  0  0  0  0  0
  -25.9452  -32.5498   23.8877 C   0  0  1  0  0  0
  -27.2596  -26.2228   20.7960 C   0  0  0  0  0  0
  -25.5927  -33.9184   24.2510 N   0  0  0  0  0  0
  -23.3843  -30.2236   21.5005 C   0  0  2  0  0  0
  -25.4422  -28.4148   18.9272 C   0  0  0  0  0  0
  -22.5927  -29.5590   22.7136 C   0  0  0  0  0  0
  -17.9563  -28.1505   22.8825 C   0  0  0  0  0  0
  -24.1452  -36.7621   23.2540 C   0  0  0  0  0  0
  -26.5986  -31.0428   21.3958 C   0  0  0  0  0  0
  -27.2301  -29.5329   20.3228 C   0  0  0  0  0  0
  -28.1019  -28.0062   21.1520 C   0  0  0  0  0  0
  -26.1997  -25.8808   19.6033 C   0  0  0  0  0  0
  -25.3334  -26.8672   18.7706 C   0  0  0  0  0  0
  -24.1271  -28.4982   19.2844 C   0  0  0  0  0  0
  -25.4046  -36.3477   24.0294 C   0  0  1  0  0  0
  -20.4732  -28.4205   23.2715 C   0  0  2  0  0  0
  -20.5851  -26.9751   22.6867 C   0  0  0  0  0  0
  -19.5166  -26.5949   21.6385 C   0  0  0  0  0  0
  -18.1276  -26.7876   22.2302 C   0  0  0  0  0  0
  -19.0547  -28.9082   23.3579 C   0  0  0  0  0  0
  -18.8461  -30.1728   23.9428 C   0  0  0  0  0  0
  -17.5495  -30.6870   24.0683 C   0  0  0  0  0  0
  -25.9007  -34.9895   23.5142 C   0  0  0  0  0  0
  -16.4551  -29.9307   23.6170 C   0  0  0  0  0  0
  -16.6574  -28.6689   23.0287 C   0  0  0  0  0  0
  -26.4706  -31.7537   25.1703 C   0  0  0  0  0  0
  -25.3456  -31.4356   26.1777 C   0  0  0  0  0  0
  -27.2448  -30.4291   24.9312 C   0  0  0  0  0  0
  -27.5439  -32.6260   25.8650 C   0  0  0  0  0  0
  -27.5578  -37.1959   24.8447 C   0  0  0  0  0  0
  -21.2699  -29.4727   22.6245 N   0  0  0  0  0  0
  -26.4278  -37.4100   23.9438 N   0  0  0  0  0  0
  -24.8284  -31.3143   22.0031 N   0  0  0  0  0  0
  -23.1091  -28.9218   23.6174 O   0  0  0  0  0  0
  -25.6271  -25.7927   20.9375 O   0  0  0  0  0  0
  -26.5551  -34.9242   22.4693 O   0  0  0  0  0  0
  -23.5683  -32.1948   23.6829 O   0  0  0  0  0  0
  -25.8929  -27.9559   20.9877 C   0  0  0  0  0  0
  -26.1731  -30.5645   18.4091 C   0  0  0  0  0  0
  -25.2388  -29.0894   21.2298 C   0  0  0  0  0  0
  -27.3856  -29.2784   17.9945 C   0  0  0  0  0  0
  -27.5420  -27.7569   18.9742 C   0  0  0  0  0  0
  -24.9397  -30.5309   19.7217 C   0  0  0  0  0  0
  -25.5678  -29.0468   22.8719 C   0  0  0  0  0  0
  -28.2349  -29.4430   16.7558 C   0  0  0  0  0  0
  -28.6041  -26.1452   18.5990 C   0  0  0  0  0  0
  -22.8416  -30.2933   19.3044 C   0  0  0  0  0  0
  -28.4987  -24.1709   18.9890 C   0  0  0  0  0  0
  -22.2197  -28.2758   20.3385 C   0  0  0  0  0  0
  -29.4099  -22.4353   19.0413 C   0  0  0  0  0  0
  -29.1107  -20.5470   19.5019 C   0  0  0  0  0  0
  -30.0120  -18.8039   19.5715 C   0  0  0  0  0  0
  -23.7425  -26.6778   20.9797 C   0  0  0  0  0  0
  -29.7100  -17.0680   19.9260 N   0  0  0  0  0  0
  -31.4285  -13.3064   19.0761 H   0  0  0  0  0  0
  -30.5903  -12.2680   20.1790 H   0  0  0  0  0  0
  -29.9841  -11.7565   17.7813 H   0  0  0  0  0  0
  -29.4931  -13.4142   17.5394 H   0  0  0  0  0  0
  -28.1632  -11.2948   19.2351 H   0  0  0  0  0  0
  -27.4419  -12.1848   17.9179 H   0  0  0  0  0  0
  -27.4369  -14.2085   19.1799 H   0  0  0  0  0  0
  -28.9267  -12.8816   21.4911 H   0  0  0  0  0  0
  -28.2337  -14.4844   21.5129 H   0  0  0  0  0  0
  -25.2824   -9.5670   22.4777 H   0  0  0  0  0  0
  -24.0012   -7.4656   22.7496 H   0  0  0  0  0  0
  -21.0890   -8.8835   19.8966 H   0  0  0  0  0  0
  -22.3796  -10.9700   19.6165 H   0  0  0  0  0  0
  -21.2017   -7.6160   23.9716 H   0  0  0  0  0  0
  -21.1473   -6.0530   25.9072 H   0  0  0  0  0  0
  -22.0600   -2.7620   23.2837 H   0  0  0  0  0  0
  -22.4065  -11.9839   22.4861 H   0  0  0  0  0  0
  -21.1041  -13.1166   22.2622 H   0  0  0  0  0  0
  -24.6319  -15.8555   20.5492 H   0  0  0  0  0  0
  -26.2492  -15.6514   20.1058 H   0  0  0  0  0  0
  -26.7937  -32.6616   23.2260 H   0  0  0  0  0  0
  -24.9997  -34.0396   25.0591 H   0  0  0  0  0  0
  -22.6762  -31.0530   21.4055 H   0  0  0  0  0  0
  -23.3716  -35.9960   23.3230 H   0  0  0  0  0  0
  -24.3565  -36.9201   22.1953 H   0  0  0  0  0  0
  -23.7183  -37.6837   23.6501 H   0  0  0  0  0  0
  -26.8674  -31.9461   20.8450 H   0  0  0  0  0  0
  -27.3165  -31.0309   22.1970 H   0  0  0  0  0  0
  -28.8665  -28.1177   21.9059 H   0  0  0  0  0  0
  -26.0583  -24.8472   19.2580 H   0  0  0  0  0  0
  -24.6495  -26.4002   18.0725 H   0  0  0  0  0  0
  -24.1731  -28.9120   18.2569 H   0  0  0  0  0  0
  -23.4564  -27.8867   18.6462 H   0  0  0  0  0  0
  -25.1171  -36.2362   25.0775 H   0  0  0  0  0  0
  -20.8037  -28.3594   24.3112 H   0  0  0  0  0  0
  -20.4275  -26.2934   23.5242 H   0  0  0  0  0  0
  -21.5845  -26.7325   22.3638 H   0  0  0  0  0  0
  -19.6428  -25.5566   21.3306 H   0  0  0  0  0  0
  -19.5626  -27.1841   20.7265 H   0  0  0  0  0  0
  -17.3743  -26.6522   21.4527 H   0  0  0  0  0  0
  -17.9355  -26.0251   22.9863 H   0  0  0  0  0  0
  -19.6813  -30.7539   24.3097 H   0  0  0  0  0  0
  -17.3891  -31.6558   24.5219 H   0  0  0  0  0  0
  -15.4511  -30.3216   23.7196 H   0  0  0  0  0  0
  -15.8042  -28.1022   22.6805 H   0  0  0  0  0  0
  -24.6096  -30.7438   25.7663 H   0  0  0  0  0  0
  -24.8114  -32.3367   26.4809 H   0  0  0  0  0  0
  -25.7406  -30.9772   27.0851 H   0  0  0  0  0  0
  -26.6478  -29.5314   25.0658 H   0  0  0  0  0  0
  -27.9758  -30.2686   25.7252 H   0  0  0  0  0  0
  -27.8655  -30.4140   24.0431 H   0  0  0  0  0  0
  -27.1481  -33.5826   26.2063 H   0  0  0  0  0  0
  -28.3783  -32.8448   25.1965 H   0  0  0  0  0  0
  -27.9535  -32.1590   26.7620 H   0  0  0  0  0  0
  -28.2620  -38.0244   24.7603 H   0  0  0  0  0  0
  -28.1051  -36.2810   24.6142 H   0  0  0  0  0  0
  -27.2316  -37.1481   25.8848 H   0  0  0  0  0  0
  -20.8089  -29.9863   21.8869 H   0  0  0  0  0  0
  -26.0228  -38.3183   24.1550 H   0  0  0  0  0  0
  -25.9539  -27.4040   21.9199 H   0  0  0  0  0  0
  -26.0338  -31.3236   17.6525 H   0  0  0  0  0  0
  -25.2245  -28.1637   23.4265 H   0  0  0  0  0  0
  -25.2292  -29.7407   23.6049 H   0  0  0  0  0  0
  -26.6448  -29.0016   23.0039 H   0  0  0  0  0  0
  -27.7092  -30.0457   16.0155 H   0  0  0  0  0  0
  -28.4618  -28.4734   16.3124 H   0  0  0  0  0  0
  -29.1726  -29.9402   17.0048 H   0  0  0  0  0  0
  -29.5736  -26.4282   19.0098 H   0  0  0  0  0  0
  -28.7616  -26.2036   17.5220 H   0  0  0  0  0  0
  -22.6632  -30.2505   18.2249 H   0  0  0  0  0  0
  -22.2093  -31.1613   19.5077 H   0  0  0  0  0  0
  -27.6525  -23.8863   18.3659 H   0  0  0  0  0  0
  -28.1472  -24.1178   20.0133 H   0  0  0  0  0  0
  -21.7210  -27.7478   19.5185 H   0  0  0  0  0  0
  -21.2404  -28.2965   20.7374 H   0  0  0  0  0  0
  -30.2960  -22.6691   19.6322 H   0  0  0  0  0  0
  -29.8024  -22.3572   18.0272 H   0  0  0  0  0  0
  -28.2204  -20.3139   18.9179 H   0  0  0  0  0  0
  -28.7251  -20.6336   20.5191 H   0  0  0  0  0  0
  -30.8964  -19.0029   20.1768 H   0  0  0  0  0  0
  -30.4194  -18.7253   18.5638 H   0  0  0  0  0  0
  -23.1512  -25.7769   20.8160 H   0  0  0  0  0  0
  -23.6954  -26.7955   22.0612 H   0  0  0  0  0  0
  -28.7120  -16.9179   19.9752 H   0  0  0  0  0  0
  1 25  1  0  0  0
  1 30  2  0  0  0
  1 87  1  0  0  0
  2  3  1  0  0  0
  2 25  1  0  0  0
  2 88  1  0  0  0
  2 89  1  0  0  0
  3  4  1  0  0  0
  3 90  1  0  0  0
  3 91  1  0  0  0
  4  5  1  0  0  0
  4 92  1  0  0  0
  4 93  1  0  0  0
  5  6  1  0  0  0
  5 26  1  0  0  0
  5 94  1  0  0  0
  6 25  1  0  0  0
  6 95  1  0  0  0
  6 96  1  0  0  0
  7  8  2  0  0  0
  7 26  1  0  0  0
  7 29  1  0  0  0
  8  9  1  0  0  0
  8 22  1  0  0  0
  9 10  1  0  0  0
  9 27  2  0  0  0
 10 11  2  0  0  0
 10 15  1  0  0  0
 11 12  1  0  0  0
 11 97  1  0  0  0
 12 13  2  0  0  0
 12 98  1  0  0  0
 13 14  1  0  0  0
 13 31  1  0  0  0
 14 15  2  0  0  0
 14 99  1  0  0  0
 15100  1  0  0  0
 16 17  2  0  0  0
 16 21  1  0  0  0
 16 31  1  0  0  0
 17 18  1  0  0  0
 17101  1  0  0  0
 18 19  2  0  0  0
 18102  1  0  0  0
 19 20  1  0  0  0
 19 24  1  0  0  0
 20 21  2  0  0  0
 20103  1  0  0  0
 21 23  1  0  0  0
 22 28  1  0  0  0
 22 32  2  0  0  0
 26 27  1  0  0  0
 28104  1  0  0  0
 28105  1  0  0  0
 29106  1  0  0  0
 29107  1  0  0  0
 33 34  1  0  0  0
 33 66  1  0  0  0
 33 70  2  0  0  0
 34 36  1  0  0  0
 34 59  1  0  0  0
 34108  1  0  0  0
 35 44  2  0  0  0
 35 45  1  0  0  0
 35 68  1  0  0  0
 36 56  1  0  0  0
 36109  1  0  0  0
 37 39  1  0  0  0
 37 47  1  0  0  0
 37 66  1  0  0  0
 37110  1  0  0  0
 38 43  2  0  0  0
 38 46  1  0  0  0
 38 47  1  0  0  0
 39 64  1  0  0  0
 39 67  2  0  0  0
 40 52  1  0  0  0
 40 53  2  0  0  0
 40 58  1  0  0  0
 41111  1  0  0  0
 41112  1  0  0  0
 41113  1  0  0  0
 41 48  1  0  0  0
 42 43  1  0  0  0
 42 66  1  0  0  0
 42114  1  0  0  0
 42115  1  0  0  0
 43 44  1  0  0  0
 44116  1  0  0  0
 45 46  2  0  0  0
 45117  1  0  0  0
 46118  1  0  0  0
 47119  1  0  0  0
 47120  1  0  0  0
 48 56  1  0  0  0
 48 65  1  0  0  0
 48121  1  0  0  0
 49 50  1  0  0  0
 49 53  1  0  0  0
 49 64  1  0  0  0
 49122  1  0  0  0
 50 51  1  0  0  0
 50123  1  0  0  0
 50124  1  0  0  0
 51 52  1  0  0  0
 51125  1  0  0  0
 51126  1  0  0  0
 52127  1  0  0  0
 52128  1  0  0  0
 53 54  1  0  0  0
 54 55  2  0  0  0
 54129  1  0  0  0
 55 57  1  0  0  0
 55130  1  0  0  0
 56 69  2  0  0  0
 57 58  2  0  0  0
 57131  1  0  0  0
 58132  1  0  0  0
 59 60  1  0  0  0
 59 61  1  0  0  0
 59 62  1  0  0  0
 60133  1  0  0  0
 60134  1  0  0  0
 60135  1  0  0  0
 61136  1  0  0  0
 61137  1  0  0  0
 61138  1  0  0  0
 62139  1  0  0  0
 62140  1  0  0  0
 62141  1  0  0  0
 63 65  1  0  0  0
 63142  1  0  0  0
 63143  1  0  0  0
 63144  1  0  0  0
 64145  1  0  0  0
 65146  1  0  0  0
 68 86  1  0  0  0
 71 73  2  0  0  0
 71 75  1  0  0  0
 71147  1  0  0  0
 72 74  1  0  0  0
 72 76  2  0  0  0
 72148  1  0  0  0
 73 76  1  0  0  0
 73 77  1  0  0  0
 74 75  2  0  0  0
 74 78  1  0  0  0
 75 79  1  0  0  0
 76 80  1  0  0  0
 77149  1  0  0  0
 77150  1  0  0  0
 77151  1  0  0  0
 78152  1  0  0  0
 78153  1  0  0  0
 78154  1  0  0  0
 79 81  1  0  0  0
 79155  1  0  0  0
 79156  1  0  0  0
 80 82  1  0  0  0
 80157  1  0  0  0
 80158  1  0  0  0
 81 83  1  0  0  0
 81159  1  0  0  0
 81160  1  0  0  0
 82 86  1  0  0  0
 82161  1  0  0  0
 82162  1  0  0  0
 83 84  1  0  0  0
 83163  1  0  0  0
 83164  1  0  0  0
 84 85  1  0  0  0
 84165  1  0  0  0
 84166  1  0  0  0
 85 87  1  0  0  0
 85167  1  0  0  0
 85168  1  0  0  0
 86169  1  0  0  0
 86170  1  0  0  0
 87171  1  0  0  0
M  ISO  4   1 100  68 101  86 101  87 100
M  END
> <chiral flag>
0

> <version>
0

> <s_m_source_file>
/data/baiqing/PycharmProjects/Reinvent-master-3.2/result/LINK_invent/BTK/process_docking_weight1_custom_sum_contain_oxygen_bond_distance_aromatic_linkinvent_7_9_3/rearranged_h_0034.sdf

> <i_m_source_file_index>
34

> <r_mmod_Potential_Energy-OPLS-2005>
28495.75

> <r_mmod_Stretch_Energy-OPLS-2005>
16171.3876953125

> <r_mmod_Bend_Energy-OPLS-2005>
1894.49169921875

> <r_mmod_Torsional_Energy-OPLS-2005>
684.326477050781

> <r_mmod_Improper_Torsional_Energy-OPLS-2005>
111.182899475098

> <r_mmod_Van_der_Waal_Energy-OPLS-2005>
7230.3671875

> <r_mmod_Electrostatic_Energy-OPLS-2005>
-355.682952880859

> <r_mmod_Solvation_Energy-OPLS-2005>
-204.707015991211

> <b_mmod_Minimization_Converged-OPLS-2005>
0

> <r_mmod_RMS_Derivative-OPLS-2005>
2.39705061912537

$$$$
35
                    3D
 Structure written by MMmdl.
155163  0  0  1  0            999 V2000
  -30.4498  -15.1851   20.3920 C   0  0  0  0  0  0
  -30.4432  -12.7419   19.5225 C   0  0  0  0  0  0
  -29.5298  -12.5643   18.2803 C   0  0  0  0  0  0
  -28.0661  -12.3194   18.6948 C   0  0  0  0  0  0
  -27.6130  -13.2767   19.8246 C   0  0  2  0  0  0
  -28.6483  -13.3980   20.9612 C   0  0  0  0  0  0
  -25.2376  -13.8268   20.5780 C   0  0  0  0  0  0
  -24.1710  -13.0453   20.9282 C   0  0  0  0  0  0
  -24.6360  -11.6959   20.8794 C   0  0  0  0  0  0
  -23.9038  -10.4310   21.0422 C   0  0  0  0  0  0
  -24.3587   -9.4243   21.9209 C   0  0  0  0  0  0
  -23.6278   -8.2265   22.0753 C   0  0  0  0  0  0
  -22.4277   -8.0281   21.3538 C   0  0  0  0  0  0
  -21.9907   -9.0247   20.4645 C   0  0  0  0  0  0
  -22.7202  -10.2144   20.3069 C   0  0  0  0  0  0
  -21.6854   -6.0736   22.5288 C   0  0  0  0  0  0
  -21.4009   -6.5637   23.8216 C   0  0  0  0  0  0
  -21.3664   -5.6778   24.9182 C   0  0  0  0  0  0
  -21.6058   -4.3038   24.7214 C   0  0  0  0  0  0
  -21.8818   -3.8136   23.4331 C   0  0  0  0  0  0
  -21.9190   -4.6965   22.3393 C   0  0  0  0  0  0
  -22.7744  -13.5256   21.1906 C   0  0  0  0  0  0
  -22.1661   -4.2157   21.0968 F   0  0  0  0  0  0
  -21.5629   -3.4513   25.7716 F   0  0  0  0  0  0
  -29.9105  -13.8709   20.3680 N   0  0  0  0  0  0
  -26.2805  -12.9544   20.3241 N   0  0  0  0  0  0
  -25.9308  -11.6656   20.5742 N   0  0  0  0  0  0
  -22.0279  -12.8288   22.0421 N   0  0  0  0  0  0
  -25.4032  -15.1993   20.4249 N   0  0  0  0  0  0
  -31.6549  -15.2150   20.1052 O   0  0  0  0  0  0
  -21.6654   -6.8880   21.4236 O   0  0  0  0  0  0
  -22.3460  -14.5534   20.6687 O   0  0  0  0  0  0
  -24.6566  -31.8272   23.1746 C   0  0  0  0  0  0
  -25.9265  -32.4614   23.8192 C   0  0  1  0  0  0
  -27.2169  -26.9742   20.2020 C   0  0  0  0  0  0
  -25.5954  -33.8434   24.2082 N   0  0  0  0  0  0
  -23.4691  -30.4429   21.5198 C   0  0  2  0  0  0
  -24.9253  -28.8364   20.1170 C   0  0  0  0  0  0
  -22.7632  -29.4482   22.4764 C   0  0  0  0  0  0
  -18.0320  -28.1416   22.8453 C   0  0  0  0  0  0
  -24.1503  -36.7243   23.2644 C   0  0  0  0  0  0
  -26.0359  -30.6479   21.4029 C   0  0  0  0  0  0
  -26.1064  -29.2401   20.7577 C   0  0  0  0  0  0
  -27.2470  -28.3249   20.7913 C   0  0  0  0  0  0
  -26.0158  -26.7175   19.5014 C   0  0  0  0  0  0
  -24.9021  -27.5911   19.4720 C   0  0  0  0  0  0
  -23.7088  -29.7577   20.1472 C   0  0  0  0  0  0
  -25.4141  -36.2985   24.0295 C   0  0  1  0  0  0
  -20.5939  -28.3760   23.1177 C   0  0  2  0  0  0
  -20.6823  -26.9449   22.5387 C   0  0  0  0  0  0
  -19.5805  -26.6388   21.5198 C   0  0  0  0  0  0
  -18.1983  -26.7958   22.1600 C   0  0  0  0  0  0
  -19.1577  -28.8907   23.2814 C   0  0  0  0  0  0
  -18.9508  -30.1500   23.8850 C   0  0  0  0  0  0
  -17.6516  -30.6622   24.0556 C   0  0  0  0  0  0
  -25.9091  -34.9365   23.5005 C   0  0  0  0  0  0
  -16.5403  -29.9108   23.6357 C   0  0  0  0  0  0
  -16.7312  -28.6520   23.0377 C   0  0  0  0  0  0
  -26.4537  -31.6531   25.0696 C   0  0  0  0  0  0
  -25.3657  -31.3762   26.1343 C   0  0  0  0  0  0
  -27.0445  -30.2923   24.6372 C   0  0  0  0  0  0
  -27.6071  -32.4298   25.7486 C   0  0  0  0  0  0
  -27.5578  -37.1791   24.8463 C   0  0  0  0  0  0
  -21.4292  -29.3079   22.3520 N   0  0  0  0  0  0
  -26.4288  -37.3722   23.9402 N   0  0  0  0  0  0
  -24.7416  -30.9979   22.0869 N   0  0  0  0  0  0
  -23.4216  -28.8049   23.2965 O   0  0  0  0  0  0
  -28.1961  -25.8574   20.2138 O   0  0  0  0  0  0
  -26.5716  -34.8890   22.4609 O   0  0  0  0  0  0
  -23.5652  -32.1237   23.6858 O   0  0  0  0  0  0
  -27.4409  -24.8691   22.2083 C   0  0  0  0  0  0
  -28.3920  -23.0219   21.1056 C   0  0  0  0  0  0
  -28.0546  -24.5902   21.0204 C   0  0  0  0  0  0
  -27.9421  -22.7055   22.3911 C   0  0  0  0  0  0
  -28.0124  -21.4283   23.1844 C   0  0  0  0  0  0
  -26.7898  -23.8506   24.3682 C   0  0  0  0  0  0
  -29.1049  -21.6375   20.2892 C   0  0  0  0  0  0
  -29.6197  -16.6889   20.6785 C   0  0  0  0  0  0
  -29.1029  -19.8937   20.7374 C   0  0  0  0  0  0
  -29.8583  -18.3813   20.1666 C   0  0  0  0  0  0
  -27.3697  -23.7913   23.0274 N   0  0  0  0  0  0
  -31.4624  -12.9404   19.1878 H   0  0  0  0  0  0
  -30.4934  -11.8131   20.0918 H   0  0  0  0  0  0
  -29.8842  -11.7365   17.6666 H   0  0  0  0  0  0
  -29.5901  -13.4576   17.6563 H   0  0  0  0  0  0
  -27.9937  -11.2868   19.0373 H   0  0  0  0  0  0
  -27.4030  -12.4037   17.8326 H   0  0  0  0  0  0
  -27.5445  -14.2618   19.3598 H   0  0  0  0  0  0
  -28.7699  -12.4472   21.4851 H   0  0  0  0  0  0
  -28.2978  -14.1161   21.7032 H   0  0  0  0  0  0
  -25.2694   -9.5756   22.4832 H   0  0  0  0  0  0
  -23.9986   -7.4668   22.7483 H   0  0  0  0  0  0
  -21.0841   -8.8744   19.8967 H   0  0  0  0  0  0
  -22.3611  -10.9688   19.6203 H   0  0  0  0  0  0
  -21.2003   -7.6141   23.9726 H   0  0  0  0  0  0
  -21.1497   -6.0500   25.9086 H   0  0  0  0  0  0
  -22.0598   -2.7599   23.2813 H   0  0  0  0  0  0
  -22.3757  -12.0023   22.5031 H   0  0  0  0  0  0
  -21.0885  -13.1420   22.2431 H   0  0  0  0  0  0
  -24.6379  -15.8522   20.5571 H   0  0  0  0  0  0
  -26.2544  -15.6470   20.1089 H   0  0  0  0  0  0
  -26.7332  -32.5165   23.0918 H   0  0  0  0  0  0
  -25.0076  -33.9531   25.0208 H   0  0  0  0  0  0
  -22.7801  -31.2733   21.3479 H   0  0  0  0  0  0
  -23.3762  -35.9576   23.3280 H   0  0  0  0  0  0
  -24.3577  -36.8911   22.2060 H   0  0  0  0  0  0
  -23.7277  -37.6443   23.6709 H   0  0  0  0  0  0
  -26.2068  -31.3823   20.6152 H   0  0  0  0  0  0
  -26.9015  -30.7143   22.0509 H   0  0  0  0  0  0
  -28.1332  -28.6235   21.3344 H   0  0  0  0  0  0
  -25.9160  -25.7644   18.9999 H   0  0  0  0  0  0
  -24.0058  -27.2760   18.9560 H   0  0  0  0  0  0
  -23.8605  -30.5227   19.3837 H   0  0  0  0  0  0
  -22.8200  -29.2074   19.8336 H   0  0  0  0  0  0
  -25.1337  -36.1795   25.0791 H   0  0  0  0  0  0
  -21.0039  -28.3386   24.1297 H   0  0  0  0  0  0
  -20.5710  -26.2391   23.3622 H   0  0  0  0  0  0
  -21.6689  -26.7460   22.1190 H   0  0  0  0  0  0
  -19.6972  -25.6273   21.1299 H   0  0  0  0  0  0
  -19.6759  -27.3127   20.6660 H   0  0  0  0  0  0
  -17.4254  -26.6690   21.4013 H   0  0  0  0  0  0
  -18.0389  -26.0114   22.8997 H   0  0  0  0  0  0
  -19.7995  -30.7320   24.2205 H   0  0  0  0  0  0
  -17.5080  -31.6296   24.5161 H   0  0  0  0  0  0
  -15.5406  -30.3021   23.7685 H   0  0  0  0  0  0
  -15.8705  -28.0824   22.7135 H   0  0  0  0  0  0
  -24.5871  -30.7082   25.7636 H   0  0  0  0  0  0
  -24.8804  -32.2953   26.4643 H   0  0  0  0  0  0
  -25.7874  -30.9018   27.0204 H   0  0  0  0  0  0
  -26.3110  -29.6611   24.1352 H   0  0  0  0  0  0
  -27.4012  -29.7276   25.4987 H   0  0  0  0  0  0
  -27.9017  -30.4182   23.9764 H   0  0  0  0  0  0
  -27.2700  -33.3653   26.1963 H   0  0  0  0  0  0
  -28.3937  -32.6740   25.0334 H   0  0  0  0  0  0
  -28.0662  -31.8462   26.5474 H   0  0  0  0  0  0
  -28.2575  -38.0107   24.7498 H   0  0  0  0  0  0
  -28.1092  -36.2629   24.6294 H   0  0  0  0  0  0
  -27.2286  -37.1438   25.8864 H   0  0  0  0  0  0
  -20.9513  -29.8799   21.6691 H   0  0  0  0  0  0
  -26.0133  -38.2784   24.1408 H   0  0  0  0  0  0
  -27.0573  -25.8125   22.5702 H   0  0  0  0  0  0
  -27.5435  -21.4837   24.1647 H   0  0  0  0  0  0
  -29.0492  -21.1537   23.3760 H   0  0  0  0  0  0
  -27.4974  -20.6192   22.6783 H   0  0  0  0  0  0
  -27.5610  -23.6884   25.1199 H   0  0  0  0  0  0
  -26.0052  -23.1014   24.4727 H   0  0  0  0  0  0
  -26.3362  -24.8244   24.5576 H   0  0  0  0  0  0
  -30.1587  -21.9029   20.1878 H   0  0  0  0  0  0
  -28.7175  -21.6823   19.2695 H   0  0  0  0  0  0
  -29.5624  -16.7363   21.7647 H   0  0  0  0  0  0
  -28.6001  -16.4609   20.3731 H   0  0  0  0  0  0
  -28.0453  -19.6441   20.7576 H   0  0  0  0  0  0
  -29.4438  -19.8777   21.7662 H   0  0  0  0  0  0
  -29.6786  -18.3665   19.0902 H   0  0  0  0  0  0
  -30.9321  -18.5466   20.2393 H   0  0  0  0  0  0
  1 25  1  0  0  0
  1 30  2  0  0  0
  1 78  1  0  0  0
  2  3  1  0  0  0
  2 25  1  0  0  0
  2 82  1  0  0  0
  2 83  1  0  0  0
  3  4  1  0  0  0
  3 84  1  0  0  0
  3 85  1  0  0  0
  4  5  1  0  0  0
  4 86  1  0  0  0
  4 87  1  0  0  0
  5  6  1  0  0  0
  5 26  1  0  0  0
  5 88  1  0  0  0
  6 25  1  0  0  0
  6 89  1  0  0  0
  6 90  1  0  0  0
  7  8  2  0  0  0
  7 26  1  0  0  0
  7 29  1  0  0  0
  8  9  1  0  0  0
  8 22  1  0  0  0
  9 10  1  0  0  0
  9 27  2  0  0  0
 10 11  2  0  0  0
 10 15  1  0  0  0
 11 12  1  0  0  0
 11 91  1  0  0  0
 12 13  2  0  0  0
 12 92  1  0  0  0
 13 14  1  0  0  0
 13 31  1  0  0  0
 14 15  2  0  0  0
 14 93  1  0  0  0
 15 94  1  0  0  0
 16 17  2  0  0  0
 16 21  1  0  0  0
 16 31  1  0  0  0
 17 18  1  0  0  0
 17 95  1  0  0  0
 18 19  2  0  0  0
 18 96  1  0  0  0
 19 20  1  0  0  0
 19 24  1  0  0  0
 20 21  2  0  0  0
 20 97  1  0  0  0
 21 23  1  0  0  0
 22 28  1  0  0  0
 22 32  2  0  0  0
 26 27  1  0  0  0
 28 98  1  0  0  0
 28 99  1  0  0  0
 29100  1  0  0  0
 29101  1  0  0  0
 33 34  1  0  0  0
 33 66  1  0  0  0
 33 70  2  0  0  0
 34 36  1  0  0  0
 34 59  1  0  0  0
 34102  1  0  0  0
 35 44  2  0  0  0
 35 45  1  0  0  0
 35 68  1  0  0  0
 36 56  1  0  0  0
 36103  1  0  0  0
 37 39  1  0  0  0
 37 47  1  0  0  0
 37 66  1  0  0  0
 37104  1  0  0  0
 38 43  2  0  0  0
 38 46  1  0  0  0
 38 47  1  0  0  0
 39 64  1  0  0  0
 39 67  2  0  0  0
 40 52  1  0  0  0
 40 53  2  0  0  0
 40 58  1  0  0  0
 41105  1  0  0  0
 41106  1  0  0  0
 41107  1  0  0  0
 41 48  1  0  0  0
 42 43  1  0  0  0
 42 66  1  0  0  0
 42108  1  0  0  0
 42109  1  0  0  0
 43 44  1  0  0  0
 44110  1  0  0  0
 45 46  2  0  0  0
 45111  1  0  0  0
 46112  1  0  0  0
 47113  1  0  0  0
 47114  1  0  0  0
 48 56  1  0  0  0
 48 65  1  0  0  0
 48115  1  0  0  0
 49 50  1  0  0  0
 49 53  1  0  0  0
 49 64  1  0  0  0
 49116  1  0  0  0
 50 51  1  0  0  0
 50117  1  0  0  0
 50118  1  0  0  0
 51 52  1  0  0  0
 51119  1  0  0  0
 51120  1  0  0  0
 52121  1  0  0  0
 52122  1  0  0  0
 53 54  1  0  0  0
 54 55  2  0  0  0
 54123  1  0  0  0
 55 57  1  0  0  0
 55124  1  0  0  0
 56 69  2  0  0  0
 57 58  2  0  0  0
 57125  1  0  0  0
 58126  1  0  0  0
 59 60  1  0  0  0
 59 61  1  0  0  0
 59 62  1  0  0  0
 60127  1  0  0  0
 60128  1  0  0  0
 60129  1  0  0  0
 61130  1  0  0  0
 61131  1  0  0  0
 61132  1  0  0  0
 62133  1  0  0  0
 62134  1  0  0  0
 62135  1  0  0  0
 63 65  1  0  0  0
 63136  1  0  0  0
 63137  1  0  0  0
 63138  1  0  0  0
 64139  1  0  0  0
 65140  1  0  0  0
 68 73  1  0  0  0
 71 73  2  0  0  0
 71 81  1  0  0  0
 71141  1  0  0  0
 72 73  1  0  0  0
 72 74  2  0  0  0
 72 77  1  0  0  0
 74 75  1  0  0  0
 74 81  1  0  0  0
 75142  1  0  0  0
 75143  1  0  0  0
 75144  1  0  0  0
 76 81  1  0  0  0
 76145  1  0  0  0
 76146  1  0  0  0
 76147  1  0  0  0
 77 79  1  0  0  0
 77148  1  0  0  0
 77149  1  0  0  0
 78 80  1  0  0  0
 78150  1  0  0  0
 78151  1  0  0  0
 79 80  1  0  0  0
 79152  1  0  0  0
 79153  1  0  0  0
 80154  1  0  0  0
 80155  1  0  0  0
M  ISO  4   1 100  68 101  73 101  78 100
M  END
> <chiral flag>
0

> <version>
0

> <s_m_source_file>
/data/baiqing/PycharmProjects/Reinvent-master-3.2/result/LINK_invent/BTK/process_docking_weight1_custom_sum_contain_oxygen_bond_distance_aromatic_linkinvent_7_9_3/rearranged_h_0034.sdf

> <i_m_source_file_index>
35

> <r_mmod_Potential_Energy-OPLS-2005>
1204.36376953125

> <r_mmod_Stretch_Energy-OPLS-2005>
580.683837890625

> <r_mmod_Bend_Energy-OPLS-2005>
455.493377685547

> <r_mmod_Torsional_Energy-OPLS-2005>
183.326766967773

> <r_mmod_Improper_Torsional_Energy-OPLS-2005>
2.20924782752991

> <r_mmod_Van_der_Waal_Energy-OPLS-2005>
123.146614074707

> <r_mmod_Electrostatic_Energy-OPLS-2005>
-324.881500244141

> <r_mmod_Solvation_Energy-OPLS-2005>
-202.440383911133

> <b_mmod_Minimization_Converged-OPLS-2005>
0

> <r_mmod_RMS_Derivative-OPLS-2005>
4.43720102310181

$$$$
36
                    3D
 Structure written by MMmdl.
165173  0  0  1  0            999 V2000
  -30.6541  -14.5160   20.5380 C   0  0  0  0  0  0
  -30.4354  -12.3179   19.4458 C   0  0  0  0  0  0
  -29.5071  -12.5025   18.2237 C   0  0  0  0  0  0
  -28.0250  -12.3640   18.6301 C   0  0  0  0  0  0
  -27.6660  -13.2038   19.8843 C   0  0  2  0  0  0
  -28.7063  -12.9872   21.0094 C   0  0  0  0  0  0
  -25.2599  -13.8149   20.5688 C   0  0  0  0  0  0
  -24.1844  -13.0429   20.9183 C   0  0  0  0  0  0
  -24.6398  -11.6898   20.8749 C   0  0  0  0  0  0
  -23.9056  -10.4284   21.0422 C   0  0  0  0  0  0
  -24.3609   -9.4202   21.9194 C   0  0  0  0  0  0
  -23.6283   -8.2235   22.0762 C   0  0  0  0  0  0
  -22.4277   -8.0275   21.3549 C   0  0  0  0  0  0
  -21.9906   -9.0253   20.4655 C   0  0  0  0  0  0
  -22.7231  -10.2131   20.3068 C   0  0  0  0  0  0
  -21.6842   -6.0737   22.5273 C   0  0  0  0  0  0
  -21.4013   -6.5640   23.8205 C   0  0  0  0  0  0
  -21.3663   -5.6795   24.9165 C   0  0  0  0  0  0
  -21.6039   -4.3057   24.7228 C   0  0  0  0  0  0
  -21.8815   -3.8152   23.4349 C   0  0  0  0  0  0
  -21.9180   -4.6965   22.3403 C   0  0  0  0  0  0
  -22.7865  -13.5227   21.1822 C   0  0  0  0  0  0
  -22.1654   -4.2149   21.0983 F   0  0  0  0  0  0
  -21.5624   -3.4547   25.7744 F   0  0  0  0  0  0
  -30.0398  -13.3027   20.4669 N   0  0  0  0  0  0
  -26.3042  -12.9320   20.3400 N   0  0  0  0  0  0
  -25.9327  -11.6477   20.5801 N   0  0  0  0  0  0
  -22.0483  -12.8254   22.0390 N   0  0  0  0  0  0
  -25.4331  -15.1867   20.4082 N   0  0  0  0  0  0
  -31.7641  -14.7345   20.0429 O   0  0  0  0  0  0
  -21.6641   -6.8877   21.4235 O   0  0  0  0  0  0
  -22.3559  -14.5517   20.6624 O   0  0  0  0  0  0
  -24.6162  -31.8678   23.2096 C   0  0  0  0  0  0
  -25.9059  -32.4817   23.8389 C   0  0  1  0  0  0
  -27.2330  -27.4241   20.1023 C   0  0  0  0  0  0
  -25.5916  -33.8615   24.2328 N   0  0  0  0  0  0
  -23.4041  -30.4909   21.5507 C   0  0  2  0  0  0
  -24.8502  -28.9554   20.1145 C   0  0  0  0  0  0
  -22.7418  -29.4657   22.4994 C   0  0  0  0  0  0
  -18.0276  -28.1382   22.8501 C   0  0  0  0  0  0
  -24.1488  -36.7312   23.2638 C   0  0  0  0  0  0
  -25.9329  -30.8304   21.3636 C   0  0  0  0  0  0
  -26.0108  -29.4636   20.7118 C   0  0  0  0  0  0
  -27.2070  -28.7071   20.6990 C   0  0  0  0  0  0
  -26.0579  -26.9361   19.4909 C   0  0  0  0  0  0
  -24.8693  -27.6915   19.4992 C   0  0  0  0  0  0
  -23.6119  -29.8234   20.1654 C   0  0  0  0  0  0
  -25.4110  -36.3110   24.0336 C   0  0  1  0  0  0
  -20.5867  -28.3668   23.1330 C   0  0  2  0  0  0
  -20.6774  -26.9407   22.5428 C   0  0  0  0  0  0
  -19.5745  -26.6392   21.5232 C   0  0  0  0  0  0
  -18.1921  -26.7933   22.1634 C   0  0  0  0  0  0
  -19.1525  -28.8843   23.2912 C   0  0  0  0  0  0
  -18.9449  -30.1453   23.8912 C   0  0  0  0  0  0
  -17.6448  -30.6586   24.0571 C   0  0  0  0  0  0
  -25.9038  -34.9475   23.5126 C   0  0  0  0  0  0
  -16.5341  -29.9084   23.6331 C   0  0  0  0  0  0
  -16.7264  -28.6507   23.0343 C   0  0  0  0  0  0
  -26.4490  -31.6590   25.0715 C   0  0  0  0  0  0
  -25.3761  -31.3686   26.1466 C   0  0  0  0  0  0
  -27.0328  -30.3034   24.6090 C   0  0  0  0  0  0
  -27.6061  -32.4317   25.7474 C   0  0  0  0  0  0
  -27.5581  -37.1810   24.8465 C   0  0  0  0  0  0
  -21.4144  -29.3028   22.3727 N   0  0  0  0  0  0
  -26.4297  -37.3793   23.9406 N   0  0  0  0  0  0
  -24.6694  -31.0775   22.0996 N   0  0  0  0  0  0
  -23.4187  -28.8211   23.3048 O   0  0  0  0  0  0
  -28.3935  -26.6745   20.0890 O   0  0  0  0  0  0
  -26.5586  -34.8928   22.4681 O   0  0  0  0  0  0
  -23.5355  -32.1435   23.7489 O   0  0  0  0  0  0
  -31.2747  -18.1012   21.5690 C   0  0  0  0  0  0
  -31.9426  -19.2933   21.9046 C   0  0  0  0  0  0
  -30.1950  -18.1015   20.6672 C   0  0  0  0  0  0
  -31.5367  -20.5274   21.3386 C   0  0  0  0  0  0
  -29.7561  -19.3502   20.1162 C   0  0  0  0  0  0
  -30.4469  -20.5664   20.4237 C   0  0  0  0  0  0
  -33.1354  -19.2102   22.8456 C   0  0  0  0  0  0
  -32.3237  -21.7919   21.6859 C   0  0  0  0  0  0
  -28.5667  -19.3866   19.1546 C   0  0  0  0  0  0
  -30.1096  -21.8949   19.6997 C   0  0  0  0  0  0
  -29.5716  -16.7570   20.2347 C   0  0  0  0  0  0
  -29.1969  -22.8916   20.4700 C   0  0  0  0  0  0
  -29.1616  -24.3166   19.8439 C   0  0  0  0  0  0
  -28.2994  -25.3387   20.6261 C   0  0  0  0  0  0
  -29.8702  -15.5177   20.9865 N   0  0  0  0  0  0
  -31.4798  -12.4314   19.1492 H   0  0  0  0  0  0
  -30.3486  -11.3084   19.8506 H   0  0  0  0  0  0
  -29.7499  -11.7682   17.4541 H   0  0  0  0  0  0
  -29.6756  -13.4830   17.7752 H   0  0  0  0  0  0
  -27.8359  -11.3097   18.8300 H   0  0  0  0  0  0
  -27.3768  -12.6342   17.7966 H   0  0  0  0  0  0
  -27.7081  -14.2506   19.5848 H   0  0  0  0  0  0
  -28.6892  -11.9520   21.3539 H   0  0  0  0  0  0
  -28.4626  -13.5872   21.8871 H   0  0  0  0  0  0
  -25.2756   -9.5673   22.4771 H   0  0  0  0  0  0
  -23.9994   -7.4629   22.7482 H   0  0  0  0  0  0
  -21.0831   -8.8764   19.8976 H   0  0  0  0  0  0
  -22.3679  -10.9672   19.6184 H   0  0  0  0  0  0
  -21.2021   -7.6151   23.9711 H   0  0  0  0  0  0
  -21.1487   -6.0531   25.9064 H   0  0  0  0  0  0
  -22.0597   -2.7618   23.2844 H   0  0  0  0  0  0
  -22.4083  -11.9937   22.4832 H   0  0  0  0  0  0
  -21.1096  -13.1306   22.2549 H   0  0  0  0  0  0
  -24.6670  -15.8433   20.5155 H   0  0  0  0  0  0
  -26.2811  -15.6227   20.0719 H   0  0  0  0  0  0
  -26.7116  -32.5529   23.1137 H   0  0  0  0  0  0
  -25.0103  -33.9768   25.0499 H   0  0  0  0  0  0
  -22.6933  -31.3083   21.4134 H   0  0  0  0  0  0
  -23.3750  -35.9646   23.3312 H   0  0  0  0  0  0
  -24.3581  -36.8916   22.2051 H   0  0  0  0  0  0
  -23.7242  -37.6520   23.6644 H   0  0  0  0  0  0
  -26.0463  -31.5974   20.5961 H   0  0  0  0  0  0
  -26.8196  -30.8823   21.9834 H   0  0  0  0  0  0
  -28.1037  -29.0968   21.1602 H   0  0  0  0  0  0
  -26.0592  -25.9734   18.9992 H   0  0  0  0  0  0
  -23.9797  -27.3001   19.0254 H   0  0  0  0  0  0
  -23.7153  -30.5991   19.4056 H   0  0  0  0  0  0
  -22.7357  -29.2420   19.8729 H   0  0  0  0  0  0
  -25.1287  -36.1974   25.0828 H   0  0  0  0  0  0
  -20.9956  -28.3233   24.1453 H   0  0  0  0  0  0
  -20.5722  -26.2263   23.3607 H   0  0  0  0  0  0
  -21.6640  -26.7479   22.1192 H   0  0  0  0  0  0
  -19.6914  -25.6315   21.1234 H   0  0  0  0  0  0
  -19.6690  -27.3228   20.6784 H   0  0  0  0  0  0
  -17.4207  -26.6706   21.4016 H   0  0  0  0  0  0
  -18.0301  -26.0064   22.9016 H   0  0  0  0  0  0
  -19.7922  -30.7276   24.2280 H   0  0  0  0  0  0
  -17.4998  -31.6266   24.5176 H   0  0  0  0  0  0
  -15.5338  -30.2985   23.7656 H   0  0  0  0  0  0
  -15.8667  -28.0837   22.7032 H   0  0  0  0  0  0
  -24.5922  -30.7049   25.7801 H   0  0  0  0  0  0
  -24.8971  -32.2838   26.4950 H   0  0  0  0  0  0
  -25.8120  -30.8825   27.0201 H   0  0  0  0  0  0
  -26.2865  -29.6769   24.1187 H   0  0  0  0  0  0
  -27.4149  -29.7292   25.4539 H   0  0  0  0  0  0
  -27.8676  -30.4356   23.9204 H   0  0  0  0  0  0
  -27.2673  -33.3605   26.2074 H   0  0  0  0  0  0
  -28.3849  -32.6897   25.0288 H   0  0  0  0  0  0
  -28.0753  -31.8437   26.5368 H   0  0  0  0  0  0
  -28.2606  -38.0100   24.7508 H   0  0  0  0  0  0
  -28.1066  -36.2630   24.6294 H   0  0  0  0  0  0
  -27.2294  -37.1470   25.8867 H   0  0  0  0  0  0
  -20.9314  -29.8714   21.6911 H   0  0  0  0  0  0
  -26.0188  -38.2874   24.1398 H   0  0  0  0  0  0
  -31.6195  -17.1662   21.9874 H   0  0  0  0  0  0
  -33.4146  -18.1768   23.0494 H   0  0  0  0  0  0
  -32.9101  -19.6857   23.8010 H   0  0  0  0  0  0
  -34.0066  -19.7014   22.4104 H   0  0  0  0  0  0
  -32.6727  -21.7823   22.7178 H   0  0  0  0  0  0
  -31.7447  -22.7063   21.5878 H   0  0  0  0  0  0
  -33.1928  -21.8775   21.0335 H   0  0  0  0  0  0
  -27.8150  -18.6327   19.3736 H   0  0  0  0  0  0
  -28.9025  -19.2425   18.1282 H   0  0  0  0  0  0
  -28.0254  -20.3315   19.2069 H   0  0  0  0  0  0
  -29.6802  -21.7026   18.7176 H   0  0  0  0  0  0
  -31.0504  -22.3854   19.4496 H   0  0  0  0  0  0
  -29.7989  -16.6080   19.1769 H   0  0  0  0  0  0
  -28.4885  -16.8491   20.2939 H   0  0  0  0  0  0
  -29.5359  -22.9833   21.5014 H   0  0  0  0  0  0
  -28.1869  -22.4845   20.5300 H   0  0  0  0  0  0
  -28.7926  -24.2530   18.8198 H   0  0  0  0  0  0
  -30.1813  -24.6978   19.7737 H   0  0  0  0  0  0
  -28.6466  -25.3823   21.6595 H   0  0  0  0  0  0
  -27.2749  -24.9698   20.6767 H   0  0  0  0  0  0
  -29.0907  -15.1919   21.5381 H   0  0  0  0  0  0
  1 25  1  0  0  0
  1 30  2  0  0  0
  1 85  1  0  0  0
  2  3  1  0  0  0
  2 25  1  0  0  0
  2 86  1  0  0  0
  2 87  1  0  0  0
  3  4  1  0  0  0
  3 88  1  0  0  0
  3 89  1  0  0  0
  4  5  1  0  0  0
  4 90  1  0  0  0
  4 91  1  0  0  0
  5  6  1  0  0  0
  5 26  1  0  0  0
  5 92  1  0  0  0
  6 25  1  0  0  0
  6 93  1  0  0  0
  6 94  1  0  0  0
  7  8  2  0  0  0
  7 26  1  0  0  0
  7 29  1  0  0  0
  8  9  1  0  0  0
  8 22  1  0  0  0
  9 10  1  0  0  0
  9 27  2  0  0  0
 10 11  2  0  0  0
 10 15  1  0  0  0
 11 12  1  0  0  0
 11 95  1  0  0  0
 12 13  2  0  0  0
 12 96  1  0  0  0
 13 14  1  0  0  0
 13 31  1  0  0  0
 14 15  2  0  0  0
 14 97  1  0  0  0
 15 98  1  0  0  0
 16 17  2  0  0  0
 16 21  1  0  0  0
 16 31  1  0  0  0
 17 18  1  0  0  0
 17 99  1  0  0  0
 18 19  2  0  0  0
 18100  1  0  0  0
 19 20  1  0  0  0
 19 24  1  0  0  0
 20 21  2  0  0  0
 20101  1  0  0  0
 21 23  1  0  0  0
 22 28  1  0  0  0
 22 32  2  0  0  0
 26 27  1  0  0  0
 28102  1  0  0  0
 28103  1  0  0  0
 29104  1  0  0  0
 29105  1  0  0  0
 33 34  1  0  0  0
 33 66  1  0  0  0
 33 70  2  0  0  0
 34 36  1  0  0  0
 34 59  1  0  0  0
 34106  1  0  0  0
 35 44  2  0  0  0
 35 45  1  0  0  0
 35 68  1  0  0  0
 36 56  1  0  0  0
 36107  1  0  0  0
 37 39  1  0  0  0
 37 47  1  0  0  0
 37 66  1  0  0  0
 37108  1  0  0  0
 38 43  2  0  0  0
 38 46  1  0  0  0
 38 47  1  0  0  0
 39 64  1  0  0  0
 39 67  2  0  0  0
 40 52  1  0  0  0
 40 53  2  0  0  0
 40 58  1  0  0  0
 41109  1  0  0  0
 41110  1  0  0  0
 41111  1  0  0  0
 41 48  1  0  0  0
 42 43  1  0  0  0
 42 66  1  0  0  0
 42112  1  0  0  0
 42113  1  0  0  0
 43 44  1  0  0  0
 44114  1  0  0  0
 45 46  2  0  0  0
 45115  1  0  0  0
 46116  1  0  0  0
 47117  1  0  0  0
 47118  1  0  0  0
 48 56  1  0  0  0
 48 65  1  0  0  0
 48119  1  0  0  0
 49 50  1  0  0  0
 49 53  1  0  0  0
 49 64  1  0  0  0
 49120  1  0  0  0
 50 51  1  0  0  0
 50121  1  0  0  0
 50122  1  0  0  0
 51 52  1  0  0  0
 51123  1  0  0  0
 51124  1  0  0  0
 52125  1  0  0  0
 52126  1  0  0  0
 53 54  1  0  0  0
 54 55  2  0  0  0
 54127  1  0  0  0
 55 57  1  0  0  0
 55128  1  0  0  0
 56 69  2  0  0  0
 57 58  2  0  0  0
 57129  1  0  0  0
 58130  1  0  0  0
 59 60  1  0  0  0
 59 61  1  0  0  0
 59 62  1  0  0  0
 60131  1  0  0  0
 60132  1  0  0  0
 60133  1  0  0  0
 61134  1  0  0  0
 61135  1  0  0  0
 61136  1  0  0  0
 62137  1  0  0  0
 62138  1  0  0  0
 62139  1  0  0  0
 63 65  1  0  0  0
 63140  1  0  0  0
 63141  1  0  0  0
 63142  1  0  0  0
 64143  1  0  0  0
 65144  1  0  0  0
 68 84  1  0  0  0
 71 72  2  0  0  0
 71 73  1  0  0  0
 71145  1  0  0  0
 72 74  1  0  0  0
 72 77  1  0  0  0
 73 75  2  0  0  0
 73 81  1  0  0  0
 74 76  2  0  0  0
 74 78  1  0  0  0
 75 76  1  0  0  0
 75 79  1  0  0  0
 76 80  1  0  0  0
 77146  1  0  0  0
 77147  1  0  0  0
 77148  1  0  0  0
 78149  1  0  0  0
 78150  1  0  0  0
 78151  1  0  0  0
 79152  1  0  0  0
 79153  1  0  0  0
 79154  1  0  0  0
 80 82  1  0  0  0
 80155  1  0  0  0
 80156  1  0  0  0
 81 85  1  0  0  0
 81157  1  0  0  0
 81158  1  0  0  0
 82 83  1  0  0  0
 82159  1  0  0  0
 82160  1  0  0  0
 83 84  1  0  0  0
 83161  1  0  0  0
 83162  1  0  0  0
 84163  1  0  0  0
 84164  1  0  0  0
 85165  1  0  0  0
M  ISO  4   1 100  68 101  84 101  85 100
M  END
> <chiral flag>
0

> <version>
0

> <s_m_source_file>
/data/baiqing/PycharmProjects/Reinvent-master-3.2/result/LINK_invent/BTK/process_docking_weight1_custom_sum_contain_oxygen_bond_distance_aromatic_linkinvent_7_9_3/rearranged_h_0034.sdf

> <i_m_source_file_index>
36

> <r_mmod_Potential_Energy-OPLS-2005>
-76.7854385375977

> <r_mmod_Stretch_Energy-OPLS-2005>
46.5906257629395

> <r_mmod_Bend_Energy-OPLS-2005>
101.869010925293

> <r_mmod_Torsional_Energy-OPLS-2005>
238.638320922852

> <r_mmod_Improper_Torsional_Energy-OPLS-2005>
8.71226024627686

> <r_mmod_Van_der_Waal_Energy-OPLS-2005>
160.420532226562

> <r_mmod_Electrostatic_Energy-OPLS-2005>
-435.1064453125

> <r_mmod_Solvation_Energy-OPLS-2005>
-214.284332275391

> <b_mmod_Minimization_Converged-OPLS-2005>
0

> <r_mmod_RMS_Derivative-OPLS-2005>
1.76206338405609

$$$$
37
                    3D
 Structure written by MMmdl.
163171  0  0  1  0            999 V2000
  -30.7544  -14.4187   20.5454 C   0  0  0  0  0  0
  -30.4064  -12.2635   19.4115 C   0  0  0  0  0  0
  -29.4901  -12.4740   18.1885 C   0  0  0  0  0  0
  -28.0033  -12.3783   18.5993 C   0  0  0  0  0  0
  -27.6623  -13.2180   19.8622 C   0  0  2  0  0  0
  -28.7074  -13.0124   20.9793 C   0  0  0  0  0  0
  -25.2579  -13.8169   20.5606 C   0  0  0  0  0  0
  -24.1829  -13.0440   20.9084 C   0  0  0  0  0  0
  -24.6391  -11.6920   20.8667 C   0  0  0  0  0  0
  -23.9039  -10.4301   21.0338 C   0  0  0  0  0  0
  -24.3572   -9.4252   21.9135 C   0  0  0  0  0  0
  -23.6289   -8.2258   22.0697 C   0  0  0  0  0  0
  -22.4292   -8.0252   21.3495 C   0  0  0  0  0  0
  -21.9904   -9.0223   20.4610 C   0  0  0  0  0  0
  -22.7201  -10.2127   20.3012 C   0  0  0  0  0  0
  -21.6895   -6.0727   22.5265 C   0  0  0  0  0  0
  -21.4031   -6.5601   23.8202 C   0  0  0  0  0  0
  -21.3658   -5.6745   24.9138 C   0  0  0  0  0  0
  -21.6050   -4.3009   24.7199 C   0  0  0  0  0  0
  -21.8821   -3.8127   23.4315 C   0  0  0  0  0  0
  -21.9212   -4.6937   22.3392 C   0  0  0  0  0  0
  -22.7850  -13.5265   21.1763 C   0  0  0  0  0  0
  -22.1658   -4.2114   21.0980 F   0  0  0  0  0  0
  -21.5671   -3.4507   25.7728 F   0  0  0  0  0  0
  -30.0354  -13.2765   20.4107 N   0  0  0  0  0  0
  -26.3055  -12.9369   20.3362 N   0  0  0  0  0  0
  -25.9358  -11.6529   20.5784 N   0  0  0  0  0  0
  -22.0482  -12.8295   22.0326 N   0  0  0  0  0  0
  -25.4301  -15.1861   20.3961 N   0  0  0  0  0  0
  -31.9030  -14.5425   20.1075 O   0  0  0  0  0  0
  -21.6627   -6.8867   21.4244 O   0  0  0  0  0  0
  -22.3580  -14.5627   20.6652 O   0  0  0  0  0  0
  -24.6121  -31.8693   23.2052 C   0  0  0  0  0  0
  -25.9010  -32.4832   23.8364 C   0  0  1  0  0  0
  -27.2413  -27.4388   20.1295 C   0  0  0  0  0  0
  -25.5858  -33.8617   24.2300 N   0  0  0  0  0  0
  -23.4002  -30.4905   21.5414 C   0  0  2  0  0  0
  -24.8528  -28.9544   20.1096 C   0  0  0  0  0  0
  -22.7409  -29.4664   22.4934 C   0  0  0  0  0  0
  -18.0283  -28.1385   22.8516 C   0  0  0  0  0  0
  -24.1458  -36.7293   23.2648 C   0  0  0  0  0  0
  -25.9258  -30.8436   21.3526 C   0  0  0  0  0  0
  -26.0084  -29.4752   20.7092 C   0  0  0  0  0  0
  -27.2046  -28.7261   20.7092 C   0  0  0  0  0  0
  -26.0773  -26.9400   19.5006 C   0  0  0  0  0  0
  -24.8844  -27.6887   19.4955 C   0  0  0  0  0  0
  -23.6104  -29.8153   20.1591 C   0  0  0  0  0  0
  -25.4089  -36.3104   24.0343 C   0  0  1  0  0  0
  -20.5876  -28.3656   23.1322 C   0  0  2  0  0  0
  -20.6732  -26.9383   22.5422 C   0  0  0  0  0  0
  -19.5700  -26.6395   21.5218 C   0  0  0  0  0  0
  -18.1904  -26.7936   22.1662 C   0  0  0  0  0  0
  -19.1542  -28.8844   23.2921 C   0  0  0  0  0  0
  -18.9464  -30.1447   23.8919 C   0  0  0  0  0  0
  -17.6470  -30.6590   24.0576 C   0  0  0  0  0  0
  -25.9022  -34.9470   23.5136 C   0  0  0  0  0  0
  -16.5354  -29.9089   23.6338 C   0  0  0  0  0  0
  -16.7280  -28.6505   23.0373 C   0  0  0  0  0  0
  -26.4430  -31.6620   25.0690 C   0  0  0  0  0  0
  -25.3689  -31.3764   26.1447 C   0  0  0  0  0  0
  -27.0234  -30.3056   24.6038 C   0  0  0  0  0  0
  -27.6011  -32.4330   25.7443 C   0  0  0  0  0  0
  -27.5554  -37.1814   24.8478 C   0  0  0  0  0  0
  -21.4141  -29.3028   22.3705 N   0  0  0  0  0  0
  -26.4279  -37.3787   23.9413 N   0  0  0  0  0  0
  -24.6642  -31.0827   22.0915 N   0  0  0  0  0  0
  -23.4189  -28.8213   23.2984 O   0  0  0  0  0  0
  -28.4021  -26.7006   20.1975 O   0  0  0  0  0  0
  -26.5615  -34.8931   22.4694 O   0  0  0  0  0  0
  -23.5322  -32.1409   23.7471 O   0  0  0  0  0  0
  -30.2590  -20.6133   21.5414 C   0  0  0  0  0  0
  -29.3884  -21.2366   22.4581 C   0  0  0  0  0  0
  -30.6359  -21.3977   20.4283 C   0  0  0  0  0  0
  -29.5807  -23.2279   21.3226 C   0  0  0  0  0  0
  -28.7769  -20.4811   23.6244 C   0  0  0  0  0  0
  -32.9705  -21.2304   19.4710 C   0  0  0  0  0  0
  -30.8500  -19.2183   21.7978 C   0  0  0  0  0  0
  -31.4905  -20.8868   19.2788 C   0  0  0  0  0  0
  -29.4250  -24.7508   21.3011 C   0  0  0  0  0  0
  -29.9347  -18.0070   21.5022 C   0  0  0  0  0  0
  -30.8118  -16.7712   21.2206 C   0  0  0  0  0  0
  -28.2604  -25.2864   20.4396 C   0  0  0  0  0  0
  -29.0570  -22.5427   22.3414 N   0  0  0  0  0  0
  -30.3021  -22.6983   20.3444 N   0  0  0  0  0  0
  -30.1172  -15.4885   21.0520 N   0  0  0  0  0  0
  -31.4574  -12.3203   19.1181 H   0  0  0  0  0  0
  -30.2635  -11.2653   19.8274 H   0  0  0  0  0  0
  -29.7156  -11.7341   17.4178 H   0  0  0  0  0  0
  -29.6901  -13.4472   17.7393 H   0  0  0  0  0  0
  -27.7680  -11.3266   18.7775 H   0  0  0  0  0  0
  -27.3694  -12.6928   17.7692 H   0  0  0  0  0  0
  -27.7070  -14.2660   19.5617 H   0  0  0  0  0  0
  -28.6677  -11.9862   21.3523 H   0  0  0  0  0  0
  -28.4880  -13.6442   21.8403 H   0  0  0  0  0  0
  -25.2657   -9.5812   22.4736 H   0  0  0  0  0  0
  -23.9999   -7.4706   22.7456 H   0  0  0  0  0  0
  -21.0801   -8.8777   19.8972 H   0  0  0  0  0  0
  -22.3591  -10.9653   19.6155 H   0  0  0  0  0  0
  -21.1995   -7.6111   23.9692 H   0  0  0  0  0  0
  -21.1487   -6.0450   25.9045 H   0  0  0  0  0  0
  -22.0611   -2.7586   23.2813 H   0  0  0  0  0  0
  -22.4031  -11.9967   22.4799 H   0  0  0  0  0  0
  -21.1142  -13.1446   22.2539 H   0  0  0  0  0  0
  -24.6493  -15.8327   20.4263 H   0  0  0  0  0  0
  -26.2940  -15.6253   20.1043 H   0  0  0  0  0  0
  -26.7068  -32.5562   23.1136 H   0  0  0  0  0  0
  -24.9941  -33.9739   25.0395 H   0  0  0  0  0  0
  -22.6868  -31.3052   21.3994 H   0  0  0  0  0  0
  -23.3703  -35.9651   23.3403 H   0  0  0  0  0  0
  -24.3529  -36.8802   22.2042 H   0  0  0  0  0  0
  -23.7239  -37.6533   23.6595 H   0  0  0  0  0  0
  -26.0317  -31.6057   20.5801 H   0  0  0  0  0  0
  -26.8160  -30.9065   21.9656 H   0  0  0  0  0  0
  -28.0934  -29.1231   21.1785 H   0  0  0  0  0  0
  -26.0909  -25.9761   19.0129 H   0  0  0  0  0  0
  -24.0040  -27.2865   19.0156 H   0  0  0  0  0  0
  -23.7108  -30.5823   19.3905 H   0  0  0  0  0  0
  -22.7387  -29.2252   19.8721 H   0  0  0  0  0  0
  -25.1273  -36.1960   25.0843 H   0  0  0  0  0  0
  -21.0019  -28.3221   24.1417 H   0  0  0  0  0  0
  -20.5591  -26.2276   23.3612 H   0  0  0  0  0  0
  -21.6605  -26.7375   22.1240 H   0  0  0  0  0  0
  -19.6822  -25.6312   21.1226 H   0  0  0  0  0  0
  -19.6621  -27.3216   20.6751 H   0  0  0  0  0  0
  -17.4154  -26.6707   21.4070 H   0  0  0  0  0  0
  -18.0304  -26.0075   22.9064 H   0  0  0  0  0  0
  -19.7935  -30.7280   24.2281 H   0  0  0  0  0  0
  -17.5017  -31.6271   24.5170 H   0  0  0  0  0  0
  -15.5350  -30.2999   23.7631 H   0  0  0  0  0  0
  -15.8690  -28.0817   22.7082 H   0  0  0  0  0  0
  -24.5838  -30.7129   25.7804 H   0  0  0  0  0  0
  -24.8908  -32.2942   26.4872 H   0  0  0  0  0  0
  -25.8044  -30.8949   27.0215 H   0  0  0  0  0  0
  -26.2768  -29.6875   24.1043 H   0  0  0  0  0  0
  -27.3950  -29.7239   25.4490 H   0  0  0  0  0  0
  -27.8626  -30.4383   23.9211 H   0  0  0  0  0  0
  -27.2630  -33.3618   26.2054 H   0  0  0  0  0  0
  -28.3800  -32.6929   25.0258 H   0  0  0  0  0  0
  -28.0700  -31.8437   26.5329 H   0  0  0  0  0  0
  -28.2651  -38.0038   24.7466 H   0  0  0  0  0  0
  -28.0985  -36.2580   24.6398 H   0  0  0  0  0  0
  -27.2288  -37.1583   25.8892 H   0  0  0  0  0  0
  -20.9273  -29.8780   21.6973 H   0  0  0  0  0  0
  -26.0172  -38.2871   24.1394 H   0  0  0  0  0  0
  -28.0575  -19.7531   23.2477 H   0  0  0  0  0  0
  -28.2475  -21.1397   24.3113 H   0  0  0  0  0  0
  -29.5293  -19.9395   24.1980 H   0  0  0  0  0  0
  -33.5609  -20.9277   18.6065 H   0  0  0  0  0  0
  -33.3720  -20.7331   20.3548 H   0  0  0  0  0  0
  -33.1011  -22.3037   19.6064 H   0  0  0  0  0  0
  -31.1925  -19.1644   22.8330 H   0  0  0  0  0  0
  -31.7673  -19.1212   21.2189 H   0  0  0  0  0  0
  -31.1301  -21.3352   18.3508 H   0  0  0  0  0  0
  -31.3552  -19.8126   19.1495 H   0  0  0  0  0  0
  -30.3625  -25.1789   20.9465 H   0  0  0  0  0  0
  -29.3198  -25.1089   22.3270 H   0  0  0  0  0  0
  -29.3254  -18.2122   20.6214 H   0  0  0  0  0  0
  -29.2535  -17.8302   22.3386 H   0  0  0  0  0  0
  -31.5549  -16.6443   22.0124 H   0  0  0  0  0  0
  -31.3695  -16.9976   20.3075 H   0  0  0  0  0  0
  -27.3261  -25.0456   20.9517 H   0  0  0  0  0  0
  -28.2438  -24.7734   19.4795 H   0  0  0  0  0  0
  -29.1422  -15.3998   21.2945 H   0  0  0  0  0  0
  1 25  1  0  0  0
  1 30  2  0  0  0
  1 85  1  0  0  0
  2  3  1  0  0  0
  2 25  1  0  0  0
  2 86  1  0  0  0
  2 87  1  0  0  0
  3  4  1  0  0  0
  3 88  1  0  0  0
  3 89  1  0  0  0
  4  5  1  0  0  0
  4 90  1  0  0  0
  4 91  1  0  0  0
  5  6  1  0  0  0
  5 26  1  0  0  0
  5 92  1  0  0  0
  6 25  1  0  0  0
  6 93  1  0  0  0
  6 94  1  0  0  0
  7  8  2  0  0  0
  7 26  1  0  0  0
  7 29  1  0  0  0
  8  9  1  0  0  0
  8 22  1  0  0  0
  9 10  1  0  0  0
  9 27  2  0  0  0
 10 11  2  0  0  0
 10 15  1  0  0  0
 11 12  1  0  0  0
 11 95  1  0  0  0
 12 13  2  0  0  0
 12 96  1  0  0  0
 13 14  1  0  0  0
 13 31  1  0  0  0
 14 15  2  0  0  0
 14 97  1  0  0  0
 15 98  1  0  0  0
 16 17  2  0  0  0
 16 21  1  0  0  0
 16 31  1  0  0  0
 17 18  1  0  0  0
 17 99  1  0  0  0
 18 19  2  0  0  0
 18100  1  0  0  0
 19 20  1  0  0  0
 19 24  1  0  0  0
 20 21  2  0  0  0
 20101  1  0  0  0
 21 23  1  0  0  0
 22 28  1  0  0  0
 22 32  2  0  0  0
 26 27  1  0  0  0
 28102  1  0  0  0
 28103  1  0  0  0
 29104  1  0  0  0
 29105  1  0  0  0
 33 34  1  0  0  0
 33 66  1  0  0  0
 33 70  2  0  0  0
 34 36  1  0  0  0
 34 59  1  0  0  0
 34106  1  0  0  0
 35 44  2  0  0  0
 35 45  1  0  0  0
 35 68  1  0  0  0
 36 56  1  0  0  0
 36107  1  0  0  0
 37 39  1  0  0  0
 37 47  1  0  0  0
 37 66  1  0  0  0
 37108  1  0  0  0
 38 43  2  0  0  0
 38 46  1  0  0  0
 38 47  1  0  0  0
 39 64  1  0  0  0
 39 67  2  0  0  0
 40 52  1  0  0  0
 40 53  2  0  0  0
 40 58  1  0  0  0
 41109  1  0  0  0
 41110  1  0  0  0
 41111  1  0  0  0
 41 48  1  0  0  0
 42 43  1  0  0  0
 42 66  1  0  0  0
 42112  1  0  0  0
 42113  1  0  0  0
 43 44  1  0  0  0
 44114  1  0  0  0
 45 46  2  0  0  0
 45115  1  0  0  0
 46116  1  0  0  0
 47117  1  0  0  0
 47118  1  0  0  0
 48 56  1  0  0  0
 48 65  1  0  0  0
 48119  1  0  0  0
 49 50  1  0  0  0
 49 53  1  0  0  0
 49 64  1  0  0  0
 49120  1  0  0  0
 50 51  1  0  0  0
 50121  1  0  0  0
 50122  1  0  0  0
 51 52  1  0  0  0
 51123  1  0  0  0
 51124  1  0  0  0
 52125  1  0  0  0
 52126  1  0  0  0
 53 54  1  0  0  0
 54 55  2  0  0  0
 54127  1  0  0  0
 55 57  1  0  0  0
 55128  1  0  0  0
 56 69  2  0  0  0
 57 58  2  0  0  0
 57129  1  0  0  0
 58130  1  0  0  0
 59 60  1  0  0  0
 59 61  1  0  0  0
 59 62  1  0  0  0
 60131  1  0  0  0
 60132  1  0  0  0
 60133  1  0  0  0
 61134  1  0  0  0
 61135  1  0  0  0
 61136  1  0  0  0
 62137  1  0  0  0
 62138  1  0  0  0
 62139  1  0  0  0
 63 65  1  0  0  0
 63140  1  0  0  0
 63141  1  0  0  0
 63142  1  0  0  0
 64143  1  0  0  0
 65144  1  0  0  0
 68 82  1  0  0  0
 71 72  2  0  0  0
 71 73  1  0  0  0
 71 77  1  0  0  0
 72 75  1  0  0  0
 72 83  1  0  0  0
 73 78  1  0  0  0
 73 84  2  0  0  0
 74 79  1  0  0  0
 74 83  2  0  0  0
 74 84  1  0  0  0
 75145  1  0  0  0
 75146  1  0  0  0
 75147  1  0  0  0
 76 78  1  0  0  0
 76148  1  0  0  0
 76149  1  0  0  0
 76150  1  0  0  0
 77 80  1  0  0  0
 77151  1  0  0  0
 77152  1  0  0  0
 78153  1  0  0  0
 78154  1  0  0  0
 79 82  1  0  0  0
 79155  1  0  0  0
 79156  1  0  0  0
 80 81  1  0  0  0
 80157  1  0  0  0
 80158  1  0  0  0
 81 85  1  0  0  0
 81159  1  0  0  0
 81160  1  0  0  0
 82161  1  0  0  0
 82162  1  0  0  0
 85163  1  0  0  0
M  ISO  4   1 100  68 101  82 101  85 100
M  END
> <chiral flag>
0

> <version>
0

> <s_m_source_file>
/data/baiqing/PycharmProjects/Reinvent-master-3.2/result/LINK_invent/BTK/process_docking_weight1_custom_sum_contain_oxygen_bond_distance_aromatic_linkinvent_7_9_3/rearranged_h_0034.sdf

> <i_m_source_file_index>
37

> <r_mmod_Potential_Energy-OPLS-2005>
-463.299896240234

> <r_mmod_Stretch_Energy-OPLS-2005>
35.0069847106934

> <r_mmod_Bend_Energy-OPLS-2005>
103.25666809082

> <r_mmod_Torsional_Energy-OPLS-2005>
198.381851196289

> <r_mmod_Improper_Torsional_Energy-OPLS-2005>
3.65445423126221

> <r_mmod_Van_der_Waal_Energy-OPLS-2005>
163.984420776367

> <r_mmod_Electrostatic_Energy-OPLS-2005>
-755.470642089844

> <r_mmod_Solvation_Energy-OPLS-2005>
-229.001190185547

> <b_mmod_Minimization_Converged-OPLS-2005>
0

> <r_mmod_RMS_Derivative-OPLS-2005>
5.50197601318359

$$$$
38
                    3D
 Structure written by MMmdl.
186194  0  0  1  0            999 V2000
  -30.7302  -14.3575   20.6828 C   0  0  0  0  0  0
  -30.4444  -12.2950   19.3633 C   0  0  0  0  0  0
  -29.4858  -12.5343   18.1788 C   0  0  0  0  0  0
  -28.0101  -12.3975   18.6044 C   0  0  0  0  0  0
  -27.6791  -13.1934   19.8938 C   0  0  2  0  0  0
  -28.7208  -12.8711   20.9873 C   0  0  0  0  0  0
  -25.2654  -13.8117   20.5682 C   0  0  0  0  0  0
  -24.1882  -13.0424   20.9158 C   0  0  0  0  0  0
  -24.6411  -11.6879   20.8727 C   0  0  0  0  0  0
  -23.9071  -10.4270   21.0381 C   0  0  0  0  0  0
  -24.3614   -9.4193   21.9173 C   0  0  0  0  0  0
  -23.6285   -8.2239   22.0756 C   0  0  0  0  0  0
  -22.4271   -8.0279   21.3545 C   0  0  0  0  0  0
  -21.9904   -9.0258   20.4650 C   0  0  0  0  0  0
  -22.7229  -10.2133   20.3043 C   0  0  0  0  0  0
  -21.6840   -6.0726   22.5280 C   0  0  0  0  0  0
  -21.4000   -6.5627   23.8213 C   0  0  0  0  0  0
  -21.3661   -5.6786   24.9179 C   0  0  0  0  0  0
  -21.6056   -4.3052   24.7234 C   0  0  0  0  0  0
  -21.8817   -3.8140   23.4349 C   0  0  0  0  0  0
  -21.9195   -4.6954   22.3405 C   0  0  0  0  0  0
  -22.7910  -13.5227   21.1869 C   0  0  0  0  0  0
  -22.1667   -4.2133   21.0986 F   0  0  0  0  0  0
  -21.5643   -3.4543   25.7750 F   0  0  0  0  0  0
  -30.0632  -13.1979   20.4579 N   0  0  0  0  0  0
  -26.3117  -12.9285   20.3451 N   0  0  0  0  0  0
  -25.9338  -11.6447   20.5767 N   0  0  0  0  0  0
  -22.0543  -12.8206   22.0405 N   0  0  0  0  0  0
  -25.4457  -15.1836   20.4084 N   0  0  0  0  0  0
  -31.7503  -14.7026   20.0782 O   0  0  0  0  0  0
  -21.6640   -6.8867   21.4236 O   0  0  0  0  0  0
  -22.3602  -14.5554   20.6743 O   0  0  0  0  0  0
  -24.6101  -31.8712   23.2156 C   0  0  0  0  0  0
  -25.9012  -32.4843   23.8431 C   0  0  1  0  0  0
  -27.2327  -27.4728   20.0622 C   0  0  0  0  0  0
  -25.5893  -33.8643   24.2365 N   0  0  0  0  0  0
  -23.3966  -30.4985   21.5573 C   0  0  2  0  0  0
  -24.8402  -28.9811   20.0982 C   0  0  0  0  0  0
  -22.7395  -29.4665   22.4994 C   0  0  0  0  0  0
  -18.0255  -28.1408   22.8513 C   0  0  0  0  0  0
  -24.1469  -36.7327   23.2635 C   0  0  0  0  0  0
  -25.9234  -30.8450   21.3657 C   0  0  0  0  0  0
  -25.9970  -29.4867   20.7018 C   0  0  0  0  0  0
  -27.1913  -28.7347   20.6904 C   0  0  0  0  0  0
  -26.0713  -27.0080   19.3979 C   0  0  0  0  0  0
  -24.8699  -27.7372   19.4468 C   0  0  0  0  0  0
  -23.5992  -29.8402   20.1666 C   0  0  0  0  0  0
  -25.4092  -36.3137   24.0336 C   0  0  1  0  0  0
  -20.5841  -28.3689   23.1349 C   0  0  2  0  0  0
  -20.6726  -26.9448   22.5430 C   0  0  0  0  0  0
  -19.5725  -26.6466   21.5198 C   0  0  0  0  0  0
  -18.1900  -26.7972   22.1616 C   0  0  0  0  0  0
  -19.1509  -28.8857   23.2933 C   0  0  0  0  0  0
  -18.9454  -30.1452   23.8961 C   0  0  0  0  0  0
  -17.6470  -30.6602   24.0630 C   0  0  0  0  0  0
  -25.9019  -34.9497   23.5149 C   0  0  0  0  0  0
  -16.5347  -29.9129   23.6372 C   0  0  0  0  0  0
  -16.7245  -28.6539   23.0372 C   0  0  0  0  0  0
  -26.4448  -31.6601   25.0729 C   0  0  0  0  0  0
  -25.3736  -31.3698   26.1487 C   0  0  0  0  0  0
  -27.0253  -30.3045   24.6086 C   0  0  0  0  0  0
  -27.6045  -32.4298   25.7481 C   0  0  0  0  0  0
  -27.5570  -37.1820   24.8460 C   0  0  0  0  0  0
  -21.4113  -29.3063   22.3768 N   0  0  0  0  0  0
  -26.4288  -37.3829   23.9406 N   0  0  0  0  0  0
  -24.6624  -31.0836   22.1060 N   0  0  0  0  0  0
  -23.4176  -28.8098   23.2945 O   0  0  0  0  0  0
  -28.3859  -26.7247   20.1999 O   0  0  0  0  0  0
  -26.5597  -34.8947   22.4711 O   0  0  0  0  0  0
  -23.5303  -32.1444   23.7568 O   0  0  0  0  0  0
  -25.2292  -22.7050   21.1256 C   0  0  0  0  0  0
  -26.4423  -24.7942   21.3522 C   0  0  0  0  0  0
  -25.2940  -24.0254   21.6127 C   0  0  0  0  0  0
  -26.2793  -22.1785   20.3452 C   0  0  0  0  0  0
  -27.4161  -24.3562   20.4224 C   0  0  0  0  0  0
  -27.3655  -23.0112   19.9630 C   0  0  0  0  0  0
  -26.1771  -20.7352   19.8783 C   0  0  0  0  0  0
  -28.4717  -22.4715   19.0575 C   0  0  0  0  0  0
  -24.0817  -24.6780   22.2707 C   0  0  0  0  0  0
  -28.4358  -25.3426   19.8080 C   0  0  0  0  0  0
  -26.9184  -19.9565   23.6035 C   0  0  0  0  0  0
  -26.3378  -20.5028   24.9142 C   0  0  0  0  0  0
  -27.8402  -18.7639   23.8777 C   0  0  0  0  0  0
  -25.3287  -21.6266   24.6885 C   0  0  0  0  0  0
  -28.6742  -18.3368   22.6653 C   0  0  0  0  0  0
  -24.9796  -22.3628   25.9925 C   0  0  0  0  0  0
  -29.3693  -16.9955   22.9327 C   0  0  0  0  0  0
  -23.8500  -23.4044   25.8611 C   0  0  0  0  0  0
  -30.3173  -16.5533   21.8074 C   0  0  0  0  0  0
  -24.0864  -24.4446   24.7504 C   0  0  0  0  0  0
  -30.1492  -15.1247   21.6052 N   0  0  0  0  0  0
  -23.5963  -23.9459   23.4504 N   0  3  0  0  0  0
  -31.4747  -12.4555   19.0380 H   0  0  0  0  0  0
  -30.3962  -11.2574   19.6954 H   0  0  0  0  0  0
  -29.7010  -11.8291   17.3760 H   0  0  0  0  0  0
  -29.6576  -13.5275   17.7594 H   0  0  0  0  0  0
  -27.8025  -11.3384   18.7612 H   0  0  0  0  0  0
  -27.3577  -12.7188   17.7916 H   0  0  0  0  0  0
  -27.7583  -14.2543   19.6615 H   0  0  0  0  0  0
  -28.6809  -11.8066   21.2215 H   0  0  0  0  0  0
  -28.4693  -13.3667   21.9259 H   0  0  0  0  0  0
  -25.2753   -9.5670   22.4756 H   0  0  0  0  0  0
  -23.9990   -7.4615   22.7468 H   0  0  0  0  0  0
  -21.0833   -8.8771   19.8954 H   0  0  0  0  0  0
  -22.3671  -10.9688   19.6173 H   0  0  0  0  0  0
  -21.1964   -7.6132   23.9696 H   0  0  0  0  0  0
  -21.1502   -6.0530   25.9078 H   0  0  0  0  0  0
  -22.0595   -2.7601   23.2866 H   0  0  0  0  0  0
  -22.4137  -11.9835   22.4757 H   0  0  0  0  0  0
  -21.1189  -13.1278   22.2647 H   0  0  0  0  0  0
  -24.6905  -15.8509   20.5231 H   0  0  0  0  0  0
  -26.3118  -15.6134   20.1113 H   0  0  0  0  0  0
  -26.7069  -32.5563   23.1173 H   0  0  0  0  0  0
  -25.0043  -33.9832   25.0510 H   0  0  0  0  0  0
  -22.6843  -31.3148   21.4271 H   0  0  0  0  0  0
  -23.3732  -35.9669   23.3326 H   0  0  0  0  0  0
  -24.3544  -36.8903   22.2045 H   0  0  0  0  0  0
  -23.7215  -37.6536   23.6625 H   0  0  0  0  0  0
  -26.0332  -31.6175   20.6030 H   0  0  0  0  0  0
  -26.8137  -30.8956   21.9811 H   0  0  0  0  0  0
  -28.0780  -29.1101   21.1837 H   0  0  0  0  0  0
  -26.0657  -26.0626   18.8759 H   0  0  0  0  0  0
  -23.9826  -27.3492   18.9665 H   0  0  0  0  0  0
  -23.7022  -30.6229   19.4154 H   0  0  0  0  0  0
  -22.7240  -29.2587   19.8698 H   0  0  0  0  0  0
  -25.1262  -36.2019   25.0836 H   0  0  0  0  0  0
  -20.9944  -28.3276   24.1468 H   0  0  0  0  0  0
  -20.5588  -26.2308   23.3603 H   0  0  0  0  0  0
  -21.6601  -26.7546   22.1240 H   0  0  0  0  0  0
  -19.6891  -25.6412   21.1134 H   0  0  0  0  0  0
  -19.6634  -27.3338   20.6778 H   0  0  0  0  0  0
  -17.4180  -26.6760   21.4005 H   0  0  0  0  0  0
  -18.0272  -26.0089   22.8980 H   0  0  0  0  0  0
  -19.7927  -30.7272   24.2345 H   0  0  0  0  0  0
  -17.5054  -31.6284   24.5245 H   0  0  0  0  0  0
  -15.5372  -30.3081   23.7703 H   0  0  0  0  0  0
  -15.8643  -28.0905   22.7057 H   0  0  0  0  0  0
  -25.8108  -30.8852   27.0224 H   0  0  0  0  0  0
  -24.5856  -30.7117   25.7817 H   0  0  0  0  0  0
  -24.8977  -32.2857   26.4961 H   0  0  0  0  0  0
  -26.2758  -29.6809   24.1199 H   0  0  0  0  0  0
  -27.4078  -29.7283   25.4530 H   0  0  0  0  0  0
  -27.8577  -30.4348   23.9167 H   0  0  0  0  0  0
  -27.2695  -33.3580   26.2108 H   0  0  0  0  0  0
  -28.3821  -32.6875   25.0286 H   0  0  0  0  0  0
  -28.0716  -31.8393   26.5373 H   0  0  0  0  0  0
  -28.2621  -38.0093   24.7502 H   0  0  0  0  0  0
  -28.1040  -36.2622   24.6297 H   0  0  0  0  0  0
  -27.2286  -37.1493   25.8868 H   0  0  0  0  0  0
  -20.9263  -29.8854   21.7054 H   0  0  0  0  0  0
  -26.0180  -38.2906   24.1417 H   0  0  0  0  0  0
  -24.3595  -22.0941   21.3279 H   0  0  0  0  0  0
  -26.4860  -25.7943   21.7539 H   0  0  0  0  0  0
  -25.3290  -20.2232   20.3353 H   0  0  0  0  0  0
  -27.0764  -20.1789   20.1429 H   0  0  0  0  0  0
  -26.0440  -20.6919   18.7963 H   0  0  0  0  0  0
  -28.2093  -21.5411   18.5555 H   0  0  0  0  0  0
  -29.3689  -22.2833   19.6483 H   0  0  0  0  0  0
  -28.7291  -23.1728   18.2651 H   0  0  0  0  0  0
  -23.2808  -24.6957   21.5298 H   0  0  0  0  0  0
  -24.2762  -25.7234   22.5144 H   0  0  0  0  0  0
  -28.3613  -25.3172   18.7198 H   0  0  0  0  0  0
  -29.4364  -24.9838   20.0525 H   0  0  0  0  0  0
  -27.4648  -20.7463   23.0848 H   0  0  0  0  0  0
  -26.1139  -19.6493   22.9307 H   0  0  0  0  0  0
  -27.1564  -20.8684   25.5376 H   0  0  0  0  0  0
  -25.8595  -19.6982   25.4734 H   0  0  0  0  0  0
  -27.2263  -17.9257   24.2139 H   0  0  0  0  0  0
  -28.5205  -19.0010   24.6978 H   0  0  0  0  0  0
  -24.4278  -21.2173   24.2273 H   0  0  0  0  0  0
  -25.7685  -22.3306   23.9827 H   0  0  0  0  0  0
  -28.0345  -18.2373   21.7871 H   0  0  0  0  0  0
  -29.4087  -19.1114   22.4361 H   0  0  0  0  0  0
  -25.8784  -22.8568   26.3627 H   0  0  0  0  0  0
  -24.6993  -21.6427   26.7624 H   0  0  0  0  0  0
  -28.5904  -16.2461   23.0960 H   0  0  0  0  0  0
  -29.9271  -17.0386   23.8686 H   0  0  0  0  0  0
  -23.7732  -23.9318   26.8131 H   0  0  0  0  0  0
  -22.8849  -22.9118   25.7263 H   0  0  0  0  0  0
  -31.3517  -16.8040   22.0480 H   0  0  0  0  0  0
  -30.0721  -17.0611   20.8742 H   0  0  0  0  0  0
  -25.1434  -24.7083   24.6933 H   0  0  0  0  0  0
  -23.5501  -25.3670   24.9829 H   0  0  0  0  0  0
  -29.3525  -14.7106   22.0634 H   0  0  0  0  0  0
  -23.8463  -22.9774   23.3444 H   0  0  0  0  0  0
  -22.5905  -24.0035   23.4540 H   0  0  0  0  0  0
  1 25  1  0  0  0
  1 30  2  0  0  0
  1 91  1  0  0  0
  2  3  1  0  0  0
  2 25  1  0  0  0
  2 93  1  0  0  0
  2 94  1  0  0  0
  3  4  1  0  0  0
  3 95  1  0  0  0
  3 96  1  0  0  0
  4  5  1  0  0  0
  4 97  1  0  0  0
  4 98  1  0  0  0
  5  6  1  0  0  0
  5 26  1  0  0  0
  5 99  1  0  0  0
  6 25  1  0  0  0
  6100  1  0  0  0
  6101  1  0  0  0
  7  8  2  0  0  0
  7 26  1  0  0  0
  7 29  1  0  0  0
  8  9  1  0  0  0
  8 22  1  0  0  0
  9 10  1  0  0  0
  9 27  2  0  0  0
 10 11  2  0  0  0
 10 15  1  0  0  0
 11 12  1  0  0  0
 11102  1  0  0  0
 12 13  2  0  0  0
 12103  1  0  0  0
 13 14  1  0  0  0
 13 31  1  0  0  0
 14 15  2  0  0  0
 14104  1  0  0  0
 15105  1  0  0  0
 16 17  2  0  0  0
 16 21  1  0  0  0
 16 31  1  0  0  0
 17 18  1  0  0  0
 17106  1  0  0  0
 18 19  2  0  0  0
 18107  1  0  0  0
 19 20  1  0  0  0
 19 24  1  0  0  0
 20 21  2  0  0  0
 20108  1  0  0  0
 21 23  1  0  0  0
 22 28  1  0  0  0
 22 32  2  0  0  0
 26 27  1  0  0  0
 28109  1  0  0  0
 28110  1  0  0  0
 29111  1  0  0  0
 29112  1  0  0  0
 33 34  1  0  0  0
 33 66  1  0  0  0
 33 70  2  0  0  0
 34 36  1  0  0  0
 34 59  1  0  0  0
 34113  1  0  0  0
 35 44  2  0  0  0
 35 45  1  0  0  0
 35 68  1  0  0  0
 36 56  1  0  0  0
 36114  1  0  0  0
 37 39  1  0  0  0
 37 47  1  0  0  0
 37 66  1  0  0  0
 37115  1  0  0  0
 38 43  2  0  0  0
 38 46  1  0  0  0
 38 47  1  0  0  0
 39 64  1  0  0  0
 39 67  2  0  0  0
 40 52  1  0  0  0
 40 53  2  0  0  0
 40 58  1  0  0  0
 41116  1  0  0  0
 41117  1  0  0  0
 41118  1  0  0  0
 41 48  1  0  0  0
 42 43  1  0  0  0
 42 66  1  0  0  0
 42119  1  0  0  0
 42120  1  0  0  0
 43 44  1  0  0  0
 44121  1  0  0  0
 45 46  2  0  0  0
 45122  1  0  0  0
 46123  1  0  0  0
 47124  1  0  0  0
 47125  1  0  0  0
 48 56  1  0  0  0
 48 65  1  0  0  0
 48126  1  0  0  0
 49 50  1  0  0  0
 49 53  1  0  0  0
 49 64  1  0  0  0
 49127  1  0  0  0
 50 51  1  0  0  0
 50128  1  0  0  0
 50129  1  0  0  0
 51 52  1  0  0  0
 51130  1  0  0  0
 51131  1  0  0  0
 52132  1  0  0  0
 52133  1  0  0  0
 53 54  1  0  0  0
 54 55  2  0  0  0
 54134  1  0  0  0
 55 57  1  0  0  0
 55135  1  0  0  0
 56 69  2  0  0  0
 57 58  2  0  0  0
 57136  1  0  0  0
 58137  1  0  0  0
 59 60  1  0  0  0
 59 61  1  0  0  0
 59 62  1  0  0  0
 60138  1  0  0  0
 60139  1  0  0  0
 60140  1  0  0  0
 61141  1  0  0  0
 61142  1  0  0  0
 61143  1  0  0  0
 62144  1  0  0  0
 62145  1  0  0  0
 62146  1  0  0  0
 63 65  1  0  0  0
 63147  1  0  0  0
 63148  1  0  0  0
 63149  1  0  0  0
 64150  1  0  0  0
 65151  1  0  0  0
 68 80  1  0  0  0
 71 73  2  0  0  0
 71 74  1  0  0  0
 71152  1  0  0  0
 72 73  1  0  0  0
 72 75  2  0  0  0
 72153  1  0  0  0
 73 79  1  0  0  0
 74 76  2  0  0  0
 74 77  1  0  0  0
 75 76  1  0  0  0
 75 80  1  0  0  0
 76 78  1  0  0  0
 77154  1  0  0  0
 77155  1  0  0  0
 77156  1  0  0  0
 78157  1  0  0  0
 78158  1  0  0  0
 78159  1  0  0  0
 79 92  1  0  0  0
 79160  1  0  0  0
 79161  1  0  0  0
 80162  1  0  0  0
 80163  1  0  0  0
 81 82  1  0  0  0
 81 83  1  0  0  0
 81164  1  0  0  0
 81165  1  0  0  0
 82 84  1  0  0  0
 82166  1  0  0  0
 82167  1  0  0  0
 83 85  1  0  0  0
 83168  1  0  0  0
 83169  1  0  0  0
 84 86  1  0  0  0
 84170  1  0  0  0
 84171  1  0  0  0
 85 87  1  0  0  0
 85172  1  0  0  0
 85173  1  0  0  0
 86 88  1  0  0  0
 86174  1  0  0  0
 86175  1  0  0  0
 87 89  1  0  0  0
 87176  1  0  0  0
 87177  1  0  0  0
 88 90  1  0  0  0
 88178  1  0  0  0
 88179  1  0  0  0
 89 91  1  0  0  0
 89180  1  0  0  0
 89181  1  0  0  0
 90 92  1  0  0  0
 90182  1  0  0  0
 90183  1  0  0  0
 91184  1  0  0  0
 92185  1  0  0  0
 92186  1  0  0  0
M  CHG  1  92   1
M  ISO  4   1 100  68 101  80 101  91 100
M  END
> <chiral flag>
0

> <version>
0

> <s_m_source_file>
/data/baiqing/PycharmProjects/Reinvent-master-3.2/result/LINK_invent/BTK/process_docking_weight1_custom_sum_contain_oxygen_bond_distance_aromatic_linkinvent_7_9_3/rearranged_h_0034.sdf

> <i_m_source_file_index>
38

> <r_mmod_Potential_Energy-OPLS-2005>
-201.448837280273

> <r_mmod_Stretch_Energy-OPLS-2005>
36.163028717041

> <r_mmod_Bend_Energy-OPLS-2005>
108.879547119141

> <r_mmod_Torsional_Energy-OPLS-2005>
238.715805053711

> <r_mmod_Improper_Torsional_Energy-OPLS-2005>
3.94538187980652

> <r_mmod_Van_der_Waal_Energy-OPLS-2005>
148.294540405273

> <r_mmod_Electrostatic_Energy-OPLS-2005>
-329.471649169922

> <r_mmod_Solvation_Energy-OPLS-2005>
-421.840576171875

> <b_mmod_Minimization_Converged-OPLS-2005>
0

> <r_mmod_RMS_Derivative-OPLS-2005>
3.37738585472107

$$$$
39
                    3D
 Structure written by MMmdl.
162170  0  0  1  0            999 V2000
  -30.5906  -14.8484   20.4343 C   0  0  0  0  0  0
  -30.4284  -12.5241   19.4873 C   0  0  0  0  0  0
  -29.5136  -12.5167   18.2427 C   0  0  0  0  0  0
  -28.0408  -12.3282   18.6546 C   0  0  0  0  0  0
  -27.6314  -13.2429   19.8395 C   0  0  2  0  0  0
  -28.6740  -13.2397   20.9770 C   0  0  0  0  0  0
  -25.2474  -13.8207   20.5701 C   0  0  0  0  0  0
  -24.1782  -13.0434   20.9214 C   0  0  0  0  0  0
  -24.6383  -11.6917   20.8729 C   0  0  0  0  0  0
  -23.9055  -10.4295   21.0390 C   0  0  0  0  0  0
  -24.3610   -9.4219   21.9173 C   0  0  0  0  0  0
  -23.6295   -8.2251   22.0751 C   0  0  0  0  0  0
  -22.4279   -8.0278   21.3542 C   0  0  0  0  0  0
  -21.9902   -9.0246   20.4637 C   0  0  0  0  0  0
  -22.7225  -10.2130   20.3047 C   0  0  0  0  0  0
  -21.6861   -6.0727   22.5271 C   0  0  0  0  0  0
  -21.4017   -6.5634   23.8200 C   0  0  0  0  0  0
  -21.3665   -5.6789   24.9164 C   0  0  0  0  0  0
  -21.6050   -4.3050   24.7223 C   0  0  0  0  0  0
  -21.8821   -3.8139   23.4344 C   0  0  0  0  0  0
  -21.9200   -4.6952   22.3398 C   0  0  0  0  0  0
  -22.7809  -13.5216   21.1874 C   0  0  0  0  0  0
  -22.1672   -4.2135   21.0981 F   0  0  0  0  0  0
  -21.5629   -3.4544   25.7740 F   0  0  0  0  0  0
  -29.9596  -13.6167   20.3803 N   0  0  0  0  0  0
  -26.2887  -12.9424   20.3241 N   0  0  0  0  0  0
  -25.9309  -11.6552   20.5718 N   0  0  0  0  0  0
  -22.0468  -12.8199   22.0430 N   0  0  0  0  0  0
  -25.4154  -15.1941   20.4134 N   0  0  0  0  0  0
  -31.7930  -14.8955   20.1576 O   0  0  0  0  0  0
  -21.6650   -6.8873   21.4236 O   0  0  0  0  0  0
  -22.3492  -14.5526   20.6729 O   0  0  0  0  0  0
  -24.6390  -31.8504   23.1932 C   0  0  0  0  0  0
  -25.9182  -32.4732   23.8311 C   0  0  1  0  0  0
  -27.2124  -27.1862   20.1458 C   0  0  0  0  0  0
  -25.5946  -33.8536   24.2232 N   0  0  0  0  0  0
  -23.4392  -30.4732   21.5386 C   0  0  2  0  0  0
  -24.8858  -28.9079   20.1133 C   0  0  0  0  0  0
  -22.7539  -29.4595   22.4887 C   0  0  0  0  0  0
  -18.0302  -28.1404   22.8488 C   0  0  0  0  0  0
  -24.1490  -36.7269   23.2641 C   0  0  0  0  0  0
  -25.9916  -30.7401   21.3847 C   0  0  0  0  0  0
  -26.0623  -29.3555   20.7277 C   0  0  0  0  0  0
  -27.2290  -28.5107   20.7263 C   0  0  0  0  0  0
  -26.0126  -26.8303   19.4917 C   0  0  0  0  0  0
  -24.8714  -27.6573   19.4801 C   0  0  0  0  0  0
  -23.6628  -29.8068   20.1567 C   0  0  0  0  0  0
  -25.4118  -36.3056   24.0325 C   0  0  1  0  0  0
  -20.5911  -28.3734   23.1244 C   0  0  2  0  0  0
  -20.6795  -26.9445   22.5404 C   0  0  0  0  0  0
  -19.5764  -26.6395   21.5219 C   0  0  0  0  0  0
  -18.1945  -26.7946   22.1629 C   0  0  0  0  0  0
  -19.1557  -28.8884   23.2864 C   0  0  0  0  0  0
  -18.9472  -30.1475   23.8902 C   0  0  0  0  0  0
  -17.6470  -30.6602   24.0568 C   0  0  0  0  0  0
  -25.9064  -34.9430   23.5083 C   0  0  0  0  0  0
  -16.5363  -29.9101   23.6331 C   0  0  0  0  0  0
  -16.7288  -28.6512   23.0365 C   0  0  0  0  0  0
  -26.4521  -31.6568   25.0725 C   0  0  0  0  0  0
  -25.3713  -31.3733   26.1420 C   0  0  0  0  0  0
  -27.0376  -30.2973   24.6259 C   0  0  0  0  0  0
  -27.6071  -32.4312   25.7508 C   0  0  0  0  0  0
  -27.5578  -37.1792   24.8466 C   0  0  0  0  0  0
  -21.4240  -29.3064   22.3618 N   0  0  0  0  0  0
  -26.4290  -37.3760   23.9408 N   0  0  0  0  0  0
  -24.7098  -31.0406   22.0946 N   0  0  0  0  0  0
  -23.4197  -28.8136   23.3022 O   0  0  0  0  0  0
  -28.2868  -26.2422   20.1867 O   0  0  0  0  0  0
  -26.5649  -34.8916   22.4661 O   0  0  0  0  0  0
  -23.5521  -32.1361   23.7176 O   0  0  0  0  0  0
  -29.1607  -19.6078   19.3241 C   0  0  0  0  0  0
  -29.8306  -19.8507   21.5720 C   0  0  0  0  0  0
  -29.7000  -18.9473   20.4708 C   0  0  0  0  0  0
  -28.8837  -21.0316   19.2494 C   0  0  0  0  0  0
  -29.5507  -21.2758   21.5272 C   0  0  0  0  0  0
  -29.1191  -21.9549   20.3304 C   0  0  0  0  0  0
  -28.4034  -21.5738   17.9159 C   0  0  0  0  0  0
  -31.3388  -22.2509   23.0212 C   0  0  0  0  0  0
  -29.1187  -21.5214   24.0317 C   0  0  0  0  0  0
  -29.2013  -23.5861   20.1221 C   0  0  0  0  0  0
  -30.4306  -17.4843   20.4388 C   0  0  0  0  0  0
  -28.0297  -24.7288   20.3360 C   0  0  0  0  0  0
  -29.8291  -22.0901   22.7916 C   0  0  0  0  0  0
  -29.8627  -16.0456   20.5761 N   0  0  0  0  0  0
  -31.4673  -12.6592   19.1809 H   0  0  0  0  0  0
  -30.3924  -11.5639   20.0041 H   0  0  0  0  0  0
  -29.8157  -11.7257   17.5551 H   0  0  0  0  0  0
  -29.6278  -13.4551   17.6980 H   0  0  0  0  0  0
  -27.9062  -11.2819   18.9307 H   0  0  0  0  0  0
  -27.3855  -12.5036   17.8000 H   0  0  0  0  0  0
  -27.6048  -14.2537   19.4314 H   0  0  0  0  0  0
  -28.7375  -12.2600   21.4518 H   0  0  0  0  0  0
  -28.3896  -13.9477   21.7574 H   0  0  0  0  0  0
  -25.2751   -9.5714   22.4746 H   0  0  0  0  0  0
  -24.0015   -7.4645   22.7468 H   0  0  0  0  0  0
  -21.0841   -8.8751   19.8933 H   0  0  0  0  0  0
  -22.3672  -10.9666   19.6158 H   0  0  0  0  0  0
  -21.2009   -7.6140   23.9702 H   0  0  0  0  0  0
  -21.1490   -6.0517   25.9068 H   0  0  0  0  0  0
  -22.0599   -2.7600   23.2848 H   0  0  0  0  0  0
  -22.4107  -11.9867   22.4810 H   0  0  0  0  0  0
  -21.1074  -13.1187   22.2622 H   0  0  0  0  0  0
  -24.6471  -15.8469   20.5229 H   0  0  0  0  0  0
  -26.2586  -15.6350   20.0694 H   0  0  0  0  0  0
  -26.7254  -32.5366   23.1055 H   0  0  0  0  0  0
  -25.0076  -33.9660   25.0366 H   0  0  0  0  0  0
  -22.7400  -31.2986   21.3889 H   0  0  0  0  0  0
  -23.3761  -35.9592   23.3293 H   0  0  0  0  0  0
  -24.3579  -36.8906   22.2057 H   0  0  0  0  0  0
  -23.7231  -37.6461   23.6676 H   0  0  0  0  0  0
  -26.1391  -31.4947   20.6110 H   0  0  0  0  0  0
  -26.8658  -30.7913   22.0222 H   0  0  0  0  0  0
  -28.1289  -28.8502   21.2206 H   0  0  0  0  0  0
  -25.9252  -25.8867   18.9774 H   0  0  0  0  0  0
  -23.9762  -27.3133   18.9802 H   0  0  0  0  0  0
  -23.8014  -30.5844   19.4048 H   0  0  0  0  0  0
  -22.7773  -29.2520   19.8426 H   0  0  0  0  0  0
  -25.1300  -36.1907   25.0819 H   0  0  0  0  0  0
  -21.0012  -28.3334   24.1359 H   0  0  0  0  0  0
  -20.5704  -26.2357   23.3623 H   0  0  0  0  0  0
  -21.6661  -26.7472   22.1188 H   0  0  0  0  0  0
  -19.6929  -25.6299   21.1263 H   0  0  0  0  0  0
  -19.6691  -27.3194   20.6739 H   0  0  0  0  0  0
  -17.4211  -26.6702   21.4028 H   0  0  0  0  0  0
  -18.0342  -26.0092   22.9029 H   0  0  0  0  0  0
  -19.7945  -30.7291   24.2283 H   0  0  0  0  0  0
  -17.5022  -31.6282   24.5169 H   0  0  0  0  0  0
  -15.5362  -30.3006   23.7644 H   0  0  0  0  0  0
  -15.8691  -28.0822   22.7093 H   0  0  0  0  0  0
  -24.5908  -30.7071   25.7722 H   0  0  0  0  0  0
  -24.8885  -32.2907   26.4799 H   0  0  0  0  0  0
  -25.7997  -30.8929   27.0227 H   0  0  0  0  0  0
  -26.2973  -29.6710   24.1268 H   0  0  0  0  0  0
  -27.4010  -29.7251   25.4805 H   0  0  0  0  0  0
  -27.8876  -30.4222   23.9548 H   0  0  0  0  0  0
  -27.2685  -33.3627   26.2057 H   0  0  0  0  0  0
  -28.3902  -32.6845   25.0348 H   0  0  0  0  0  0
  -28.0725  -31.8457   26.5448 H   0  0  0  0  0  0
  -28.2590  -38.0095   24.7514 H   0  0  0  0  0  0
  -28.1081  -36.2624   24.6291 H   0  0  0  0  0  0
  -27.2298  -37.1437   25.8870 H   0  0  0  0  0  0
  -20.9445  -29.8771   21.6798 H   0  0  0  0  0  0
  -26.0169  -38.2836   24.1403 H   0  0  0  0  0  0
  -29.0438  -19.0193   18.4246 H   0  0  0  0  0  0
  -30.2608  -19.4493   22.4786 H   0  0  0  0  0  0
  -27.8726  -20.8094   17.3464 H   0  0  0  0  0  0
  -29.2510  -21.9133   17.3202 H   0  0  0  0  0  0
  -27.7193  -22.4112   18.0524 H   0  0  0  0  0  0
  -31.8161  -22.7169   22.1587 H   0  0  0  0  0  0
  -31.8242  -21.2891   23.1903 H   0  0  0  0  0  0
  -31.5410  -22.8815   23.8871 H   0  0  0  0  0  0
  -28.0436  -21.4473   23.8660 H   0  0  0  0  0  0
  -29.2686  -22.1708   24.8951 H   0  0  0  0  0  0
  -29.4844  -20.5328   24.3065 H   0  0  0  0  0  0
  -29.5539  -23.7248   19.1002 H   0  0  0  0  0  0
  -30.0585  -23.9182   20.7067 H   0  0  0  0  0  0
  -31.2153  -17.5431   21.1937 H   0  0  0  0  0  0
  -30.9805  -17.4769   19.4961 H   0  0  0  0  0  0
  -27.6335  -24.5974   21.3433 H   0  0  0  0  0  0
  -27.2214  -24.4292   19.6744 H   0  0  0  0  0  0
  -29.4128  -23.0880   22.6660 H   0  0  0  0  0  0
  -28.8713  -15.9618   20.7396 H   0  0  0  0  0  0
  1 25  1  0  0  0
  1 30  2  0  0  0
  1 84  1  0  0  0
  2  3  1  0  0  0
  2 25  1  0  0  0
  2 85  1  0  0  0
  2 86  1  0  0  0
  3  4  1  0  0  0
  3 87  1  0  0  0
  3 88  1  0  0  0
  4  5  1  0  0  0
  4 89  1  0  0  0
  4 90  1  0  0  0
  5  6  1  0  0  0
  5 26  1  0  0  0
  5 91  1  0  0  0
  6 25  1  0  0  0
  6 92  1  0  0  0
  6 93  1  0  0  0
  7  8  2  0  0  0
  7 26  1  0  0  0
  7 29  1  0  0  0
  8  9  1  0  0  0
  8 22  1  0  0  0
  9 10  1  0  0  0
  9 27  2  0  0  0
 10 11  2  0  0  0
 10 15  1  0  0  0
 11 12  1  0  0  0
 11 94  1  0  0  0
 12 13  2  0  0  0
 12 95  1  0  0  0
 13 14  1  0  0  0
 13 31  1  0  0  0
 14 15  2  0  0  0
 14 96  1  0  0  0
 15 97  1  0  0  0
 16 17  2  0  0  0
 16 21  1  0  0  0
 16 31  1  0  0  0
 17 18  1  0  0  0
 17 98  1  0  0  0
 18 19  2  0  0  0
 18 99  1  0  0  0
 19 20  1  0  0  0
 19 24  1  0  0  0
 20 21  2  0  0  0
 20100  1  0  0  0
 21 23  1  0  0  0
 22 28  1  0  0  0
 22 32  2  0  0  0
 26 27  1  0  0  0
 28101  1  0  0  0
 28102  1  0  0  0
 29103  1  0  0  0
 29104  1  0  0  0
 33 34  1  0  0  0
 33 66  1  0  0  0
 33 70  2  0  0  0
 34 36  1  0  0  0
 34 59  1  0  0  0
 34105  1  0  0  0
 35 44  2  0  0  0
 35 45  1  0  0  0
 35 68  1  0  0  0
 36 56  1  0  0  0
 36106  1  0  0  0
 37 39  1  0  0  0
 37 47  1  0  0  0
 37 66  1  0  0  0
 37107  1  0  0  0
 38 43  2  0  0  0
 38 46  1  0  0  0
 38 47  1  0  0  0
 39 64  1  0  0  0
 39 67  2  0  0  0
 40 52  1  0  0  0
 40 53  2  0  0  0
 40 58  1  0  0  0
 41108  1  0  0  0
 41109  1  0  0  0
 41110  1  0  0  0
 41 48  1  0  0  0
 42 43  1  0  0  0
 42 66  1  0  0  0
 42111  1  0  0  0
 42112  1  0  0  0
 43 44  1  0  0  0
 44113  1  0  0  0
 45 46  2  0  0  0
 45114  1  0  0  0
 46115  1  0  0  0
 47116  1  0  0  0
 47117  1  0  0  0
 48 56  1  0  0  0
 48 65  1  0  0  0
 48118  1  0  0  0
 49 50  1  0  0  0
 49 53  1  0  0  0
 49 64  1  0  0  0
 49119  1  0  0  0
 50 51  1  0  0  0
 50120  1  0  0  0
 50121  1  0  0  0
 51 52  1  0  0  0
 51122  1  0  0  0
 51123  1  0  0  0
 52124  1  0  0  0
 52125  1  0  0  0
 53 54  1  0  0  0
 54 55  2  0  0  0
 54126  1  0  0  0
 55 57  1  0  0  0
 55127  1  0  0  0
 56 69  2  0  0  0
 57 58  2  0  0  0
 57128  1  0  0  0
 58129  1  0  0  0
 59 60  1  0  0  0
 59 61  1  0  0  0
 59 62  1  0  0  0
 60130  1  0  0  0
 60131  1  0  0  0
 60132  1  0  0  0
 61133  1  0  0  0
 61134  1  0  0  0
 61135  1  0  0  0
 62136  1  0  0  0
 62137  1  0  0  0
 62138  1  0  0  0
 63 65  1  0  0  0
 63139  1  0  0  0
 63140  1  0  0  0
 63141  1  0  0  0
 64142  1  0  0  0
 65143  1  0  0  0
 68 82  1  0  0  0
 71 73  2  0  0  0
 71 74  1  0  0  0
 71144  1  0  0  0
 72 73  1  0  0  0
 72 75  2  0  0  0
 72145  1  0  0  0
 73 81  1  0  0  0
 74 76  2  0  0  0
 74 77  1  0  0  0
 75 76  1  0  0  0
 75 83  1  0  0  0
 76 80  1  0  0  0
 77146  1  0  0  0
 77147  1  0  0  0
 77148  1  0  0  0
 78149  1  0  0  0
 78150  1  0  0  0
 78151  1  0  0  0
 78 83  1  0  0  0
 79 83  1  0  0  0
 79152  1  0  0  0
 79153  1  0  0  0
 79154  1  0  0  0
 80 82  1  0  0  0
 80155  1  0  0  0
 80156  1  0  0  0
 81 84  1  0  0  0
 81157  1  0  0  0
 81158  1  0  0  0
 82159  1  0  0  0
 82160  1  0  0  0
 83161  1  0  0  0
 84162  1  0  0  0
M  ISO  4   1 100  68 101  82 101  84 100
M  END
> <chiral flag>
0

> <version>
0

> <s_m_source_file>
/data/baiqing/PycharmProjects/Reinvent-master-3.2/result/LINK_invent/BTK/process_docking_weight1_custom_sum_contain_oxygen_bond_distance_aromatic_linkinvent_7_9_3/rearranged_h_0034.sdf

> <i_m_source_file_index>
39

> <r_mmod_Potential_Energy-OPLS-2005>
300.560546875

> <r_mmod_Stretch_Energy-OPLS-2005>
185.67741394043

> <r_mmod_Bend_Energy-OPLS-2005>
229.251388549805

> <r_mmod_Torsional_Energy-OPLS-2005>
234.919448852539

> <r_mmod_Improper_Torsional_Energy-OPLS-2005>
9.74130725860596

> <r_mmod_Van_der_Waal_Energy-OPLS-2005>
138.197738647461

> <r_mmod_Electrostatic_Energy-OPLS-2005>
-431.656402587891

> <r_mmod_Solvation_Energy-OPLS-2005>
-202.702713012695

> <b_mmod_Minimization_Converged-OPLS-2005>
0

> <r_mmod_RMS_Derivative-OPLS-2005>
1.26492488384247

$$$$
40
                    3D
 Structure written by MMmdl.
165173  0  0  1  0            999 V2000
  -30.7232  -14.4513   20.6104 C   0  0  0  0  0  0
  -30.4319  -12.3187   19.3971 C   0  0  0  0  0  0
  -29.4900  -12.5075   18.1919 C   0  0  0  0  0  0
  -28.0140  -12.3604   18.6123 C   0  0  0  0  0  0
  -27.6641  -13.2037   19.8677 C   0  0  2  0  0  0
  -28.7107  -12.9677   20.9795 C   0  0  0  0  0  0
  -25.2621  -13.8117   20.5673 C   0  0  0  0  0  0
  -24.1864  -13.0422   20.9145 C   0  0  0  0  0  0
  -24.6411  -11.6876   20.8706 C   0  0  0  0  0  0
  -23.9076  -10.4267   21.0397 C   0  0  0  0  0  0
  -24.3619   -9.4178   21.9191 C   0  0  0  0  0  0
  -23.6282   -8.2223   22.0765 C   0  0  0  0  0  0
  -22.4258   -8.0271   21.3559 C   0  0  0  0  0  0
  -21.9904   -9.0250   20.4667 C   0  0  0  0  0  0
  -22.7238  -10.2126   20.3061 C   0  0  0  0  0  0
  -21.6820   -6.0738   22.5283 C   0  0  0  0  0  0
  -21.4000   -6.5660   23.8212 C   0  0  0  0  0  0
  -21.3651   -5.6817   24.9174 C   0  0  0  0  0  0
  -21.6028   -4.3074   24.7230 C   0  0  0  0  0  0
  -21.8813   -3.8164   23.4354 C   0  0  0  0  0  0
  -21.9182   -4.6973   22.3405 C   0  0  0  0  0  0
  -22.7870  -13.5223   21.1777 C   0  0  0  0  0  0
  -22.1670   -4.2166   21.0979 F   0  0  0  0  0  0
  -21.5616   -3.4563   25.7743 F   0  0  0  0  0  0
  -30.0384  -13.2890   20.4283 N   0  0  0  0  0  0
  -26.3053  -12.9302   20.3340 N   0  0  0  0  0  0
  -25.9351  -11.6466   20.5788 N   0  0  0  0  0  0
  -22.0487  -12.8261   22.0336 N   0  0  0  0  0  0
  -25.4395  -15.1841   20.4111 N   0  0  0  0  0  0
  -31.8296  -14.6686   20.1095 O   0  0  0  0  0  0
  -21.6606   -6.8884   21.4247 O   0  0  0  0  0  0
  -22.3564  -14.5521   20.6577 O   0  0  0  0  0  0
  -24.6162  -31.8668   23.2068 C   0  0  0  0  0  0
  -25.9059  -32.4801   23.8370 C   0  0  1  0  0  0
  -27.2468  -27.4360   20.0686 C   0  0  0  0  0  0
  -25.5913  -33.8596   24.2295 N   0  0  0  0  0  0
  -23.4038  -30.4910   21.5481 C   0  0  2  0  0  0
  -24.8482  -28.9488   20.1227 C   0  0  0  0  0  0
  -22.7405  -29.4679   22.4971 C   0  0  0  0  0  0
  -18.0288  -28.1395   22.8491 C   0  0  0  0  0  0
  -24.1504  -36.7318   23.2629 C   0  0  0  0  0  0
  -25.9330  -30.8287   21.3610 C   0  0  0  0  0  0
  -26.0105  -29.4621   20.7101 C   0  0  0  0  0  0
  -27.2085  -28.7110   20.6828 C   0  0  0  0  0  0
  -26.0480  -26.9202   19.5214 C   0  0  0  0  0  0
  -24.8599  -27.6745   19.5332 C   0  0  0  0  0  0
  -23.6111  -29.8152   20.1673 C   0  0  0  0  0  0
  -25.4117  -36.3089   24.0322 C   0  0  1  0  0  0
  -20.5873  -28.3692   23.1292 C   0  0  2  0  0  0
  -20.6773  -26.9423   22.5402 C   0  0  0  0  0  0
  -19.5752  -26.6406   21.5202 C   0  0  0  0  0  0
  -18.1934  -26.7943   22.1621 C   0  0  0  0  0  0
  -19.1534  -28.8858   23.2900 C   0  0  0  0  0  0
  -18.9454  -30.1459   23.8921 C   0  0  0  0  0  0
  -17.6453  -30.6591   24.0574 C   0  0  0  0  0  0
  -25.9035  -34.9457   23.5101 C   0  0  0  0  0  0
  -16.5347  -29.9092   23.6323 C   0  0  0  0  0  0
  -16.7271  -28.6516   23.0333 C   0  0  0  0  0  0
  -26.4492  -31.6584   25.0701 C   0  0  0  0  0  0
  -25.3744  -31.3733   26.1444 C   0  0  0  0  0  0
  -27.0302  -30.3005   24.6105 C   0  0  0  0  0  0
  -27.6074  -32.4291   25.7469 C   0  0  0  0  0  0
  -27.5588  -37.1811   24.8449 C   0  0  0  0  0  0
  -21.4134  -29.3068   22.3695 N   0  0  0  0  0  0
  -26.4302  -37.3773   23.9392 N   0  0  0  0  0  0
  -24.6698  -31.0765   22.0976 N   0  0  0  0  0  0
  -23.4165  -28.8229   23.3029 O   0  0  0  0  0  0
  -28.4545  -26.7577   20.0350 O   0  0  0  0  0  0
  -26.5586  -34.8916   22.4655 O   0  0  0  0  0  0
  -23.5355  -32.1435   23.7461 O   0  0  0  0  0  0
  -30.5287  -22.6779   21.0063 C   0  0  0  0  0  0
  -28.5516  -21.7157   19.8056 C   0  0  0  0  0  0
  -30.2764  -24.0524   20.3409 C   0  0  0  0  0  0
  -28.3084  -23.0738   19.1034 C   0  0  0  0  0  0
  -30.0257  -21.4341   20.2086 C   0  0  2  0  0  0
  -28.8044  -24.2800   19.9309 C   0  0  2  0  0  0
  -30.0851  -20.2191   21.1986 C   0  0  0  0  0  0
  -28.6316  -25.6243   19.1650 C   0  0  0  0  0  0
  -29.5289  -18.8448   20.7375 C   0  0  0  0  0  0
  -29.5344  -17.7816   21.8622 C   0  0  0  0  0  0
  -30.6266  -16.6949   21.7286 C   0  0  0  0  0  0
  -30.9348  -21.1456   18.9634 C   0  0  0  0  0  0
  -30.0829  -15.3938   21.3197 N   0  0  0  0  0  0
  -28.0533  -24.3168   21.0338 F   0  0  0  0  0  0
  -32.1694  -20.8196   19.3510 F   0  0  0  0  0  0
  -30.4490  -20.1397   18.2374 F   0  0  0  0  0  0
  -31.0396  -22.1925   18.1485 F   0  0  0  0  0  0
  -31.4658  -12.4476   19.0756 H   0  0  0  0  0  0
  -30.3739  -11.3035   19.7951 H   0  0  0  0  0  0
  -29.7305  -11.7837   17.4120 H   0  0  0  0  0  0
  -29.6518  -13.4933   17.7532 H   0  0  0  0  0  0
  -27.8357  -11.3033   18.8197 H   0  0  0  0  0  0
  -27.3590  -12.6238   17.7810 H   0  0  0  0  0  0
  -27.7129  -14.2545   19.5780 H   0  0  0  0  0  0
  -28.6960  -11.9217   21.2954 H   0  0  0  0  0  0
  -28.4725  -13.5416   21.8741 H   0  0  0  0  0  0
  -25.2737   -9.5655   22.4809 H   0  0  0  0  0  0
  -23.9972   -7.4604   22.7491 H   0  0  0  0  0  0
  -21.0830   -8.8755   19.8986 H   0  0  0  0  0  0
  -22.3663  -10.9674   19.6187 H   0  0  0  0  0  0
  -21.2001   -7.6170   23.9724 H   0  0  0  0  0  0
  -21.1474   -6.0550   25.9077 H   0  0  0  0  0  0
  -22.0604   -2.7639   23.2834 H   0  0  0  0  0  0
  -22.4092  -11.9928   22.4755 H   0  0  0  0  0  0
  -21.1110  -13.1335   22.2517 H   0  0  0  0  0  0
  -24.6843  -15.8483   20.5370 H   0  0  0  0  0  0
  -26.3055  -15.6168   20.1169 H   0  0  0  0  0  0
  -26.7109  -32.5532   23.1124 H   0  0  0  0  0  0
  -25.0084  -33.9753   25.0453 H   0  0  0  0  0  0
  -22.6953  -31.3087   21.4028 H   0  0  0  0  0  0
  -23.3741  -35.9679   23.3291 H   0  0  0  0  0  0
  -24.3604  -36.8934   22.2044 H   0  0  0  0  0  0
  -23.7290  -37.6539   23.6639 H   0  0  0  0  0  0
  -26.0399  -31.5884   20.5864 H   0  0  0  0  0  0
  -26.8243  -30.8881   21.9750 H   0  0  0  0  0  0
  -28.1121  -29.1116   21.1210 H   0  0  0  0  0  0
  -25.9916  -25.9307   19.0935 H   0  0  0  0  0  0
  -23.9608  -27.2611   19.0983 H   0  0  0  0  0  0
  -23.7154  -30.5824   19.3984 H   0  0  0  0  0  0
  -22.7386  -29.2261   19.8791 H   0  0  0  0  0  0
  -25.1298  -36.1950   25.0813 H   0  0  0  0  0  0
  -20.9983  -28.3282   24.1406 H   0  0  0  0  0  0
  -20.5676  -26.2307   23.3604 H   0  0  0  0  0  0
  -21.6641  -26.7466   22.1195 H   0  0  0  0  0  0
  -19.6912  -25.6326   21.1218 H   0  0  0  0  0  0
  -19.6687  -27.3228   20.6741 H   0  0  0  0  0  0
  -17.4198  -26.6692   21.4026 H   0  0  0  0  0  0
  -18.0346  -26.0089   22.9022 H   0  0  0  0  0  0
  -19.7924  -30.7271   24.2304 H   0  0  0  0  0  0
  -17.5002  -31.6268   24.5182 H   0  0  0  0  0  0
  -15.5344  -30.2990   23.7639 H   0  0  0  0  0  0
  -15.8679  -28.0835   22.7019 H   0  0  0  0  0  0
  -24.5904  -30.7095   25.7782 H   0  0  0  0  0  0
  -24.8966  -32.2920   26.4860 H   0  0  0  0  0  0
  -25.8091  -30.8914   27.0209 H   0  0  0  0  0  0
  -26.2860  -29.6793   24.1101 H   0  0  0  0  0  0
  -27.3972  -29.7229   25.4601 H   0  0  0  0  0  0
  -27.8747  -30.4285   23.9324 H   0  0  0  0  0  0
  -27.2687  -33.3556   26.2123 H   0  0  0  0  0  0
  -28.3867  -32.6901   25.0290 H   0  0  0  0  0  0
  -28.0769  -31.8356   26.5334 H   0  0  0  0  0  0
  -28.2582  -38.0124   24.7480 H   0  0  0  0  0  0
  -28.1104  -36.2647   24.6285 H   0  0  0  0  0  0
  -27.2299  -37.1477   25.8850 H   0  0  0  0  0  0
  -20.9294  -29.8773   21.6902 H   0  0  0  0  0  0
  -26.0185  -38.2852   24.1379 H   0  0  0  0  0  0
  -30.0327  -22.7043   21.9766 H   0  0  0  0  0  0
  -31.5904  -22.5687   21.2286 H   0  0  0  0  0  0
  -28.1789  -20.9214   19.1610 H   0  0  0  0  0  0
  -27.9354  -21.6827   20.7043 H   0  0  0  0  0  0
  -30.9195  -24.1560   19.4669 H   0  0  0  0  0  0
  -30.5938  -24.8442   21.0203 H   0  0  0  0  0  0
  -27.2397  -23.1811   18.9062 H   0  0  0  0  0  0
  -28.7820  -23.0754   18.1222 H   0  0  0  0  0  0
  -29.5641  -20.4921   22.1194 H   0  0  0  0  0  0
  -31.1223  -20.0748   21.4982 H   0  0  0  0  0  0
  -27.8748  -25.5419   18.3890 H   0  0  0  0  0  0
  -29.5368  -25.8130   18.5870 H   0  0  0  0  0  0
  -30.0922  -18.4621   19.8858 H   0  0  0  0  0  0
  -28.5024  -18.9692   20.3944 H   0  0  0  0  0  0
  -28.5497  -17.3213   21.9537 H   0  0  0  0  0  0
  -29.6765  -18.2865   22.8191 H   0  0  0  0  0  0
  -31.0891  -16.5430   22.7036 H   0  0  0  0  0  0
  -31.4325  -17.0369   21.0759 H   0  0  0  0  0  0
  -29.1631  -15.1445   21.6514 H   0  0  0  0  0  0
  1 25  1  0  0  0
  1 30  2  0  0  0
  1 83  1  0  0  0
  2  3  1  0  0  0
  2 25  1  0  0  0
  2 88  1  0  0  0
  2 89  1  0  0  0
  3  4  1  0  0  0
  3 90  1  0  0  0
  3 91  1  0  0  0
  4  5  1  0  0  0
  4 92  1  0  0  0
  4 93  1  0  0  0
  5  6  1  0  0  0
  5 26  1  0  0  0
  5 94  1  0  0  0
  6 25  1  0  0  0
  6 95  1  0  0  0
  6 96  1  0  0  0
  7  8  2  0  0  0
  7 26  1  0  0  0
  7 29  1  0  0  0
  8  9  1  0  0  0
  8 22  1  0  0  0
  9 10  1  0  0  0
  9 27  2  0  0  0
 10 11  2  0  0  0
 10 15  1  0  0  0
 11 12  1  0  0  0
 11 97  1  0  0  0
 12 13  2  0  0  0
 12 98  1  0  0  0
 13 14  1  0  0  0
 13 31  1  0  0  0
 14 15  2  0  0  0
 14 99  1  0  0  0
 15100  1  0  0  0
 16 17  2  0  0  0
 16 21  1  0  0  0
 16 31  1  0  0  0
 17 18  1  0  0  0
 17101  1  0  0  0
 18 19  2  0  0  0
 18102  1  0  0  0
 19 20  1  0  0  0
 19 24  1  0  0  0
 20 21  2  0  0  0
 20103  1  0  0  0
 21 23  1  0  0  0
 22 28  1  0  0  0
 22 32  2  0  0  0
 26 27  1  0  0  0
 28104  1  0  0  0
 28105  1  0  0  0
 29106  1  0  0  0
 29107  1  0  0  0
 33 34  1  0  0  0
 33 66  1  0  0  0
 33 70  2  0  0  0
 34 36  1  0  0  0
 34 59  1  0  0  0
 34108  1  0  0  0
 35 44  2  0  0  0
 35 45  1  0  0  0
 35 68  1  0  0  0
 36 56  1  0  0  0
 36109  1  0  0  0
 37 39  1  0  0  0
 37 47  1  0  0  0
 37 66  1  0  0  0
 37110  1  0  0  0
 38 43  2  0  0  0
 38 46  1  0  0  0
 38 47  1  0  0  0
 39 64  1  0  0  0
 39 67  2  0  0  0
 40 52  1  0  0  0
 40 53  2  0  0  0
 40 58  1  0  0  0
 41111  1  0  0  0
 41112  1  0  0  0
 41113  1  0  0  0
 41 48  1  0  0  0
 42 43  1  0  0  0
 42 66  1  0  0  0
 42114  1  0  0  0
 42115  1  0  0  0
 43 44  1  0  0  0
 44116  1  0  0  0
 45 46  2  0  0  0
 45117  1  0  0  0
 46118  1  0  0  0
 47119  1  0  0  0
 47120  1  0  0  0
 48 56  1  0  0  0
 48 65  1  0  0  0
 48121  1  0  0  0
 49 50  1  0  0  0
 49 53  1  0  0  0
 49 64  1  0  0  0
 49122  1  0  0  0
 50 51  1  0  0  0
 50123  1  0  0  0
 50124  1  0  0  0
 51 52  1  0  0  0
 51125  1  0  0  0
 51126  1  0  0  0
 52127  1  0  0  0
 52128  1  0  0  0
 53 54  1  0  0  0
 54 55  2  0  0  0
 54129  1  0  0  0
 55 57  1  0  0  0
 55130  1  0  0  0
 56 69  2  0  0  0
 57 58  2  0  0  0
 57131  1  0  0  0
 58132  1  0  0  0
 59 60  1  0  0  0
 59 61  1  0  0  0
 59 62  1  0  0  0
 60133  1  0  0  0
 60134  1  0  0  0
 60135  1  0  0  0
 61136  1  0  0  0
 61137  1  0  0  0
 61138  1  0  0  0
 62139  1  0  0  0
 62140  1  0  0  0
 62141  1  0  0  0
 63 65  1  0  0  0
 63142  1  0  0  0
 63143  1  0  0  0
 63144  1  0  0  0
 64145  1  0  0  0
 65146  1  0  0  0
 68 78  1  0  0  0
 71 73  1  0  0  0
 71 75  1  0  0  0
 71147  1  0  0  0
 71148  1  0  0  0
 72 74  1  0  0  0
 72 75  1  0  0  0
 72149  1  0  0  0
 72150  1  0  0  0
 73 76  1  0  0  0
 73151  1  0  0  0
 73152  1  0  0  0
 74 76  1  0  0  0
 74153  1  0  0  0
 74154  1  0  0  0
 75 77  1  0  0  0
 75 82  1  0  0  0
 76 78  1  0  0  0
 76 84  1  0  0  0
 77 79  1  0  0  0
 77155  1  0  0  0
 77156  1  0  0  0
 78157  1  0  0  0
 78158  1  0  0  0
 79 80  1  0  0  0
 79159  1  0  0  0
 79160  1  0  0  0
 80 81  1  0  0  0
 80161  1  0  0  0
 80162  1  0  0  0
 81 83  1  0  0  0
 81163  1  0  0  0
 81164  1  0  0  0
 82 85  1  0  0  0
 82 86  1  0  0  0
 82 87  1  0  0  0
 83165  1  0  0  0
M  ISO  4   1 100  68 101  78 101  83 100
M  END
> <chiral flag>
0

> <version>
0

> <s_m_source_file>
/data/baiqing/PycharmProjects/Reinvent-master-3.2/result/LINK_invent/BTK/process_docking_weight1_custom_sum_contain_oxygen_bond_distance_aromatic_linkinvent_7_9_3/rearranged_h_0034.sdf

> <i_m_source_file_index>
40

> <r_mmod_Potential_Energy-OPLS-2005>
77.1059188842773

> <r_mmod_Stretch_Energy-OPLS-2005>
41.0040283203125

> <r_mmod_Bend_Energy-OPLS-2005>
116.137107849121

> <r_mmod_Torsional_Energy-OPLS-2005>
267.119812011719

> <r_mmod_Improper_Torsional_Energy-OPLS-2005>
1.92709457874298

> <r_mmod_Van_der_Waal_Energy-OPLS-2005>
151.268035888672

> <r_mmod_Electrostatic_Energy-OPLS-2005>
-314.872192382812

> <r_mmod_Solvation_Energy-OPLS-2005>
-197.031616210938

> <b_mmod_Minimization_Converged-OPLS-2005>
0

> <r_mmod_RMS_Derivative-OPLS-2005>
3.36973595619202

$$$$
41
                    3D
 Structure written by MMmdl.
157166  0  0  1  0            999 V2000
  -30.4337  -15.3367   20.3255 C   0  0  0  0  0  0
  -30.4340  -12.8463   19.5385 C   0  0  0  0  0  0
  -29.5425  -12.6067   18.2941 C   0  0  0  0  0  0
  -28.0902  -12.3245   18.7138 C   0  0  0  0  0  0
  -27.6122  -13.2948   19.8240 C   0  0  2  0  0  0
  -28.6462  -13.5065   20.9554 C   0  0  0  0  0  0
  -25.2380  -13.8308   20.5759 C   0  0  0  0  0  0
  -24.1757  -13.0442   20.9241 C   0  0  0  0  0  0
  -24.6460  -11.6958   20.8748 C   0  0  0  0  0  0
  -23.9156  -10.4303   21.0400 C   0  0  0  0  0  0
  -24.3687   -9.4214   21.9181 C   0  0  0  0  0  0
  -23.6330   -8.2266   22.0761 C   0  0  0  0  0  0
  -22.4302   -8.0322   21.3557 C   0  0  0  0  0  0
  -21.9964   -9.0303   20.4648 C   0  0  0  0  0  0
  -22.7325  -10.2159   20.3055 C   0  0  0  0  0  0
  -21.6857   -6.0763   22.5277 C   0  0  0  0  0  0
  -21.4023   -6.5652   23.8215 C   0  0  0  0  0  0
  -21.3660   -5.6793   24.9172 C   0  0  0  0  0  0
  -21.6048   -4.3058   24.7214 C   0  0  0  0  0  0
  -21.8817   -3.8161   23.4332 C   0  0  0  0  0  0
  -21.9193   -4.6987   22.3392 C   0  0  0  0  0  0
  -22.7772  -13.5183   21.1890 C   0  0  0  0  0  0
  -22.1656   -4.2173   21.0968 F   0  0  0  0  0  0
  -21.5627   -3.4544   25.7721 F   0  0  0  0  0  0
  -29.8793  -14.0148   20.3284 N   0  0  0  0  0  0
  -26.2842  -12.9616   20.3248 N   0  0  0  0  0  0
  -25.9409  -11.6694   20.5725 N   0  0  0  0  0  0
  -22.0429  -12.8161   22.0443 N   0  0  0  0  0  0
  -25.3927  -15.2060   20.4241 N   0  0  0  0  0  0
  -31.6439  -15.3248   20.0579 O   0  0  0  0  0  0
  -21.6652   -6.8921   21.4247 O   0  0  0  0  0  0
  -22.3442  -14.5487   20.6747 O   0  0  0  0  0  0
  -24.6667  -31.8159   23.1644 C   0  0  0  0  0  0
  -25.9328  -32.4546   23.8128 C   0  0  1  0  0  0
  -27.2343  -26.8868   20.1910 C   0  0  0  0  0  0
  -25.5963  -33.8357   24.2022 N   0  0  0  0  0  0
  -23.4879  -30.4240   21.5149 C   0  0  2  0  0  0
  -24.9458  -28.8044   20.1122 C   0  0  0  0  0  0
  -22.7707  -29.4383   22.4752 C   0  0  0  0  0  0
  -18.0322  -28.1412   22.8435 C   0  0  0  0  0  0
  -24.1492  -36.7214   23.2650 C   0  0  0  0  0  0
  -26.0560  -30.6115   21.4024 C   0  0  0  0  0  0
  -26.1289  -29.1933   20.7526 C   0  0  0  0  0  0
  -27.2653  -28.2564   20.7687 C   0  0  0  0  0  0
  -26.0249  -26.6683   19.4835 C   0  0  0  0  0  0
  -24.9225  -27.5634   19.4542 C   0  0  0  0  0  0
  -23.7317  -29.7359   20.1432 C   0  0  0  0  0  0
  -25.4129  -36.2934   24.0277 C   0  0  1  0  0  0
  -20.5946  -28.3754   23.1158 C   0  0  2  0  0  0
  -20.6793  -26.9416   22.5416 C   0  0  0  0  0  0
  -19.5784  -26.6371   21.5206 C   0  0  0  0  0  0
  -18.1957  -26.7939   22.1598 C   0  0  0  0  0  0
  -19.1586  -28.8900   23.2775 C   0  0  0  0  0  0
  -18.9497  -30.1488   23.8809 C   0  0  0  0  0  0
  -17.6495  -30.6587   24.0554 C   0  0  0  0  0  0
  -25.9099  -34.9318   23.4980 C   0  0  0  0  0  0
  -16.5378  -29.9092   23.6343 C   0  0  0  0  0  0
  -16.7306  -28.6528   23.0333 C   0  0  0  0  0  0
  -26.4546  -31.6523   25.0691 C   0  0  0  0  0  0
  -25.3627  -31.3801   26.1315 C   0  0  0  0  0  0
  -27.0453  -30.2878   24.6479 C   0  0  0  0  0  0
  -27.6015  -32.4371   25.7502 C   0  0  0  0  0  0
  -27.5560  -37.1744   24.8455 C   0  0  0  0  0  0
  -21.4364  -29.3039   22.3516 N   0  0  0  0  0  0
  -26.4264  -37.3682   23.9397 N   0  0  0  0  0  0
  -24.7591  -30.9805   22.0800 N   0  0  0  0  0  0
  -23.4222  -28.7946   23.3013 O   0  0  0  0  0  0
  -28.2194  -25.7458   20.2863 O   0  0  0  0  0  0
  -26.5743  -34.8870   22.4598 O   0  0  0  0  0  0
  -23.5735  -32.1125   23.6744 O   0  0  0  0  0  0
  -28.8648  -21.1897   19.9772 C   0  0  0  0  0  0
  -29.9484  -20.0877   21.8254 C   0  0  0  0  0  0
  -28.7810  -22.6063   20.6180 C   0  0  0  0  0  0
  -29.3161  -22.5397   21.9361 C   0  0  0  0  0  0
  -29.4348  -19.8521   20.5375 C   0  0  0  0  0  0
  -29.9026  -21.3485   22.4911 C   0  0  0  0  0  0
  -29.1560  -23.8039   22.7864 C   0  0  0  0  0  0
  -27.7108  -24.3647   22.7776 C   0  0  0  0  0  0
  -26.9258  -24.0785   21.4764 C   0  0  0  0  0  0
  -27.8849  -24.1036   20.2694 C   0  0  1  0  0  0
  -30.5084  -21.3786   23.8874 C   0  0  0  0  0  0
  -29.7225  -18.2313   19.8888 C   0  0  0  0  0  0
  -29.6704  -16.6227   20.4255 N   0  0  0  0  0  0
  -31.4589  -13.0291   19.2146 H   0  0  0  0  0  0
  -30.4817  -11.9471   20.1557 H   0  0  0  0  0  0
  -29.9299  -11.7809   17.6969 H   0  0  0  0  0  0
  -29.5749  -13.4917   17.6552 H   0  0  0  0  0  0
  -28.0465  -11.2972   19.0750 H   0  0  0  0  0  0
  -27.4280  -12.3766   17.8473 H   0  0  0  0  0  0
  -27.5134  -14.2564   19.3194 H   0  0  0  0  0  0
  -28.8213  -12.5955   21.5276 H   0  0  0  0  0  0
  -28.2753  -14.2484   21.6643 H   0  0  0  0  0  0
  -25.2835   -9.5671   22.4764 H   0  0  0  0  0  0
  -24.0011   -7.4670   22.7516 H   0  0  0  0  0  0
  -21.0884   -8.8867   19.8974 H   0  0  0  0  0  0
  -22.3812  -10.9713   19.6174 H   0  0  0  0  0  0
  -21.2017   -7.6160   23.9729 H   0  0  0  0  0  0
  -21.1480   -6.0518   25.9075 H   0  0  0  0  0  0
  -22.0592   -2.7627   23.2817 H   0  0  0  0  0  0
  -22.4041  -11.9807   22.4796 H   0  0  0  0  0  0
  -21.1067  -13.1221   22.2697 H   0  0  0  0  0  0
  -24.6121  -15.8423   20.5416 H   0  0  0  0  0  0
  -26.2336  -15.6690   20.1031 H   0  0  0  0  0  0
  -26.7407  -32.5056   23.0843 H   0  0  0  0  0  0
  -24.9979  -33.9414   25.0081 H   0  0  0  0  0  0
  -22.8006  -31.2540   21.3402 H   0  0  0  0  0  0
  -23.3743  -35.9557   23.3287 H   0  0  0  0  0  0
  -24.3573  -36.8927   22.2080 H   0  0  0  0  0  0
  -23.7283  -37.6389   23.6759 H   0  0  0  0  0  0
  -26.2321  -31.3468   20.6159 H   0  0  0  0  0  0
  -26.9141  -30.6767   22.0583 H   0  0  0  0  0  0
  -28.1578  -28.5506   21.3047 H   0  0  0  0  0  0
  -25.8967  -25.7246   18.9726 H   0  0  0  0  0  0
  -24.0287  -27.2657   18.9244 H   0  0  0  0  0  0
  -23.8873  -30.5019   19.3810 H   0  0  0  0  0  0
  -22.8423  -29.1888   19.8299 H   0  0  0  0  0  0
  -25.1330  -36.1710   25.0769 H   0  0  0  0  0  0
  -20.9984  -28.3380   24.1304 H   0  0  0  0  0  0
  -20.5651  -26.2349   23.3659 H   0  0  0  0  0  0
  -21.6653  -26.7388   22.1222 H   0  0  0  0  0  0
  -19.6947  -25.6270   21.1278 H   0  0  0  0  0  0
  -19.6754  -27.3136   20.6693 H   0  0  0  0  0  0
  -17.4221  -26.6660   21.4003 H   0  0  0  0  0  0
  -18.0349  -26.0103   22.9014 H   0  0  0  0  0  0
  -19.7986  -30.7306   24.2139 H   0  0  0  0  0  0
  -17.5070  -31.6256   24.5176 H   0  0  0  0  0  0
  -15.5380  -30.2965   23.7735 H   0  0  0  0  0  0
  -15.8706  -28.0849   22.7046 H   0  0  0  0  0  0
  -24.5875  -30.7088   25.7611 H   0  0  0  0  0  0
  -24.8715  -32.3004   26.4494 H   0  0  0  0  0  0
  -25.7795  -30.9146   27.0254 H   0  0  0  0  0  0
  -26.3121  -29.6532   24.1477 H   0  0  0  0  0  0
  -27.3935  -29.7285   25.5169 H   0  0  0  0  0  0
  -27.9088  -30.4038   23.9919 H   0  0  0  0  0  0
  -27.2569  -33.3768   26.1832 H   0  0  0  0  0  0
  -28.3922  -32.6762   25.0388 H   0  0  0  0  0  0
  -28.0541  -31.8653   26.5620 H   0  0  0  0  0  0
  -28.2494  -38.0104   24.7495 H   0  0  0  0  0  0
  -28.1121  -36.2611   24.6262 H   0  0  0  0  0  0
  -27.2271  -37.1355   25.8855 H   0  0  0  0  0  0
  -20.9628  -29.8747   21.6658 H   0  0  0  0  0  0
  -26.0107  -38.2726   24.1461 H   0  0  0  0  0  0
  -28.4412  -21.1238   18.9867 H   0  0  0  0  0  0
  -30.4241  -19.2525   22.3223 H   0  0  0  0  0  0
  -29.8365  -24.5493   22.3736 H   0  0  0  0  0  0
  -29.4694  -23.6807   23.8213 H   0  0  0  0  0  0
  -27.7588  -25.4396   22.9611 H   0  0  0  0  0  0
  -27.1510  -23.9451   23.6121 H   0  0  0  0  0  0
  -26.0937  -24.7734   21.3790 H   0  0  0  0  0  0
  -26.4596  -23.0950   21.5456 H   0  0  0  0  0  0
  -27.3331  -23.9031   19.3510 H   0  0  0  0  0  0
  -30.9455  -20.4184   24.1631 H   0  0  0  0  0  0
  -29.7516  -21.6164   24.6348 H   0  0  0  0  0  0
  -31.3025  -22.1228   23.9471 H   0  0  0  0  0  0
  -30.7242  -18.3206   19.4646 H   0  0  0  0  0  0
  -29.0865  -18.2105   19.0033 H   0  0  0  0  0  0
  -28.7249  -16.4021   20.7017 H   0  0  0  0  0  0
  1 25  1  0  0  0
  1 30  2  0  0  0
  1 83  1  0  0  0
  2  3  1  0  0  0
  2 25  1  0  0  0
  2 84  1  0  0  0
  2 85  1  0  0  0
  3  4  1  0  0  0
  3 86  1  0  0  0
  3 87  1  0  0  0
  4  5  1  0  0  0
  4 88  1  0  0  0
  4 89  1  0  0  0
  5  6  1  0  0  0
  5 26  1  0  0  0
  5 90  1  0  0  0
  6 25  1  0  0  0
  6 91  1  0  0  0
  6 92  1  0  0  0
  7  8  2  0  0  0
  7 26  1  0  0  0
  7 29  1  0  0  0
  8  9  1  0  0  0
  8 22  1  0  0  0
  9 10  1  0  0  0
  9 27  2  0  0  0
 10 11  2  0  0  0
 10 15  1  0  0  0
 11 12  1  0  0  0
 11 93  1  0  0  0
 12 13  2  0  0  0
 12 94  1  0  0  0
 13 14  1  0  0  0
 13 31  1  0  0  0
 14 15  2  0  0  0
 14 95  1  0  0  0
 15 96  1  0  0  0
 16 17  2  0  0  0
 16 21  1  0  0  0
 16 31  1  0  0  0
 17 18  1  0  0  0
 17 97  1  0  0  0
 18 19  2  0  0  0
 18 98  1  0  0  0
 19 20  1  0  0  0
 19 24  1  0  0  0
 20 21  2  0  0  0
 20 99  1  0  0  0
 21 23  1  0  0  0
 22 28  1  0  0  0
 22 32  2  0  0  0
 26 27  1  0  0  0
 28100  1  0  0  0
 28101  1  0  0  0
 29102  1  0  0  0
 29103  1  0  0  0
 33 34  1  0  0  0
 33 66  1  0  0  0
 33 70  2  0  0  0
 34 36  1  0  0  0
 34 59  1  0  0  0
 34104  1  0  0  0
 35 44  2  0  0  0
 35 45  1  0  0  0
 35 68  1  0  0  0
 36 56  1  0  0  0
 36105  1  0  0  0
 37 39  1  0  0  0
 37 47  1  0  0  0
 37 66  1  0  0  0
 37106  1  0  0  0
 38 43  2  0  0  0
 38 46  1  0  0  0
 38 47  1  0  0  0
 39 64  1  0  0  0
 39 67  2  0  0  0
 40 52  1  0  0  0
 40 53  2  0  0  0
 40 58  1  0  0  0
 41107  1  0  0  0
 41108  1  0  0  0
 41109  1  0  0  0
 41 48  1  0  0  0
 42 43  1  0  0  0
 42 66  1  0  0  0
 42110  1  0  0  0
 42111  1  0  0  0
 43 44  1  0  0  0
 44112  1  0  0  0
 45 46  2  0  0  0
 45113  1  0  0  0
 46114  1  0  0  0
 47115  1  0  0  0
 47116  1  0  0  0
 48 56  1  0  0  0
 48 65  1  0  0  0
 48117  1  0  0  0
 49 50  1  0  0  0
 49 53  1  0  0  0
 49 64  1  0  0  0
 49118  1  0  0  0
 50 51  1  0  0  0
 50119  1  0  0  0
 50120  1  0  0  0
 51 52  1  0  0  0
 51121  1  0  0  0
 51122  1  0  0  0
 52123  1  0  0  0
 52124  1  0  0  0
 53 54  1  0  0  0
 54 55  2  0  0  0
 54125  1  0  0  0
 55 57  1  0  0  0
 55126  1  0  0  0
 56 69  2  0  0  0
 57 58  2  0  0  0
 57127  1  0  0  0
 58128  1  0  0  0
 59 60  1  0  0  0
 59 61  1  0  0  0
 59 62  1  0  0  0
 60129  1  0  0  0
 60130  1  0  0  0
 60131  1  0  0  0
 61132  1  0  0  0
 61133  1  0  0  0
 61134  1  0  0  0
 62135  1  0  0  0
 62136  1  0  0  0
 62137  1  0  0  0
 63 65  1  0  0  0
 63138  1  0  0  0
 63139  1  0  0  0
 63140  1  0  0  0
 64141  1  0  0  0
 65142  1  0  0  0
 68 80  1  0  0  0
 71 73  2  0  0  0
 71 75  1  0  0  0
 71143  1  0  0  0
 72 75  2  0  0  0
 72 76  1  0  0  0
 72144  1  0  0  0
 73 74  1  0  0  0
 73 80  1  0  0  0
 74 76  2  0  0  0
 74 77  1  0  0  0
 75 82  1  0  0  0
 76 81  1  0  0  0
 77 78  1  0  0  0
 77145  1  0  0  0
 77146  1  0  0  0
 78 79  1  0  0  0
 78147  1  0  0  0
 78148  1  0  0  0
 79 80  1  0  0  0
 79149  1  0  0  0
 79150  1  0  0  0
 80151  1  0  0  0
 81152  1  0  0  0
 81153  1  0  0  0
 81154  1  0  0  0
 82 83  1  0  0  0
 82155  1  0  0  0
 82156  1  0  0  0
 83157  1  0  0  0
M  ISO  4   1 100  68 101  80 101  83 100
M  END
> <chiral flag>
0

> <version>
0

> <s_m_source_file>
/data/baiqing/PycharmProjects/Reinvent-master-3.2/result/LINK_invent/BTK/process_docking_weight1_custom_sum_contain_oxygen_bond_distance_aromatic_linkinvent_7_9_3/rearranged_h_0034.sdf

> <i_m_source_file_index>
41

> <r_mmod_Potential_Energy-OPLS-2005>
1450.50646972656

> <r_mmod_Stretch_Energy-OPLS-2005>
656.504333496094

> <r_mmod_Bend_Energy-OPLS-2005>
477.098388671875

> <r_mmod_Torsional_Energy-OPLS-2005>
243.376541137695

> <r_mmod_Improper_Torsional_Energy-OPLS-2005>
8.68645858764648

> <r_mmod_Van_der_Waal_Energy-OPLS-2005>
138.69645690918

> <r_mmod_Electrostatic_Energy-OPLS-2005>
-394.837646484375

> <r_mmod_Solvation_Energy-OPLS-2005>
-212.732604980469

> <b_mmod_Minimization_Converged-OPLS-2005>
0

> <r_mmod_RMS_Derivative-OPLS-2005>
3.52055239677429

$$$$
42
                    3D
 Structure written by MMmdl.
171180  0  0  1  0            999 V2000
  -30.6611  -14.6084   20.5152 C   0  0  0  0  0  0
  -30.4244  -12.3834   19.4515 C   0  0  0  0  0  0
  -29.4991  -12.5192   18.2240 C   0  0  0  0  0  0
  -28.0239  -12.3537   18.6367 C   0  0  0  0  0  0
  -27.6493  -13.2231   19.8669 C   0  0  2  0  0  0
  -28.6942  -13.0883   20.9981 C   0  0  0  0  0  0
  -25.2507  -13.8187   20.5710 C   0  0  0  0  0  0
  -24.1783  -13.0436   20.9204 C   0  0  0  0  0  0
  -24.6356  -11.6911   20.8735 C   0  0  0  0  0  0
  -23.9024  -10.4295   21.0396 C   0  0  0  0  0  0
  -24.3593   -9.4218   21.9166 C   0  0  0  0  0  0
  -23.6304   -8.2240   22.0736 C   0  0  0  0  0  0
  -22.4285   -8.0263   21.3535 C   0  0  0  0  0  0
  -21.9897   -9.0225   20.4632 C   0  0  0  0  0  0
  -22.7201  -10.2120   20.3041 C   0  0  0  0  0  0
  -21.6858   -6.0724   22.5280 C   0  0  0  0  0  0
  -21.4008   -6.5628   23.8213 C   0  0  0  0  0  0
  -21.3661   -5.6785   24.9172 C   0  0  0  0  0  0
  -21.6056   -4.3049   24.7228 C   0  0  0  0  0  0
  -21.8821   -3.8129   23.4349 C   0  0  0  0  0  0
  -21.9193   -4.6949   22.3398 C   0  0  0  0  0  0
  -22.7803  -13.5217   21.1896 C   0  0  0  0  0  0
  -22.1667   -4.2136   21.0984 F   0  0  0  0  0  0
  -21.5639   -3.4528   25.7735 F   0  0  0  0  0  0
  -30.0125  -13.4073   20.4305 N   0  0  0  0  0  0
  -26.2947  -12.9381   20.3349 N   0  0  0  0  0  0
  -25.9289  -11.6526   20.5764 N   0  0  0  0  0  0
  -22.0464  -12.8186   22.0446 N   0  0  0  0  0  0
  -25.4182  -15.1911   20.4143 N   0  0  0  0  0  0
  -31.8270  -14.7356   20.1314 O   0  0  0  0  0  0
  -21.6652   -6.8866   21.4233 O   0  0  0  0  0  0
  -22.3470  -14.5524   20.6758 O   0  0  0  0  0  0
  -24.6206  -31.8631   23.2045 C   0  0  0  0  0  0
  -25.9062  -32.4795   23.8392 C   0  0  1  0  0  0
  -27.2306  -27.3502   20.1318 C   0  0  0  0  0  0
  -25.5916  -33.8600   24.2336 N   0  0  0  0  0  0
  -23.4168  -30.4819   21.5453 C   0  0  2  0  0  0
  -24.8688  -28.9425   20.1096 C   0  0  0  0  0  0
  -22.7471  -29.4611   22.4960 C   0  0  0  0  0  0
  -18.0289  -28.1368   22.8503 C   0  0  0  0  0  0
  -24.1491  -36.7284   23.2639 C   0  0  0  0  0  0
  -25.9518  -30.8046   21.3709 C   0  0  0  0  0  0
  -26.0314  -29.4320   20.7200 C   0  0  0  0  0  0
  -27.2178  -28.6446   20.7272 C   0  0  0  0  0  0
  -26.0566  -26.9123   19.4829 C   0  0  0  0  0  0
  -24.8821  -27.6877   19.4795 C   0  0  0  0  0  0
  -23.6316  -29.8139   20.1608 C   0  0  0  0  0  0
  -25.4106  -36.3093   24.0351 C   0  0  1  0  0  0
  -20.5885  -28.3668   23.1311 C   0  0  2  0  0  0
  -20.6776  -26.9402   22.5422 C   0  0  0  0  0  0
  -19.5749  -26.6377   21.5227 C   0  0  0  0  0  0
  -18.1924  -26.7922   22.1626 C   0  0  0  0  0  0
  -19.1535  -28.8839   23.2898 C   0  0  0  0  0  0
  -18.9451  -30.1443   23.8899 C   0  0  0  0  0  0
  -17.6451  -30.6575   24.0555 C   0  0  0  0  0  0
  -25.9041  -34.9457   23.5139 C   0  0  0  0  0  0
  -16.5341  -29.9066   23.6328 C   0  0  0  0  0  0
  -16.7271  -28.6476   23.0359 C   0  0  0  0  0  0
  -26.4483  -31.6564   25.0718 C   0  0  0  0  0  0
  -25.3761  -31.3669   26.1480 C   0  0  0  0  0  0
  -27.0297  -30.3003   24.6074 C   0  0  0  0  0  0
  -27.6077  -32.4271   25.7461 C   0  0  0  0  0  0
  -27.5587  -37.1789   24.8461 C   0  0  0  0  0  0
  -21.4187  -29.3027   22.3712 N   0  0  0  0  0  0
  -26.4285  -37.3781   23.9427 N   0  0  0  0  0  0
  -24.6814  -31.0662   22.0980 N   0  0  0  0  0  0
  -23.4217  -28.8158   23.3026 O   0  0  0  0  0  0
  -28.3395  -26.5053   20.1597 O   0  0  0  0  0  0
  -26.5586  -34.8918   22.4691 O   0  0  0  0  0  0
  -23.5372  -32.1419   23.7375 O   0  0  0  0  0  0
  -30.5924  -22.6711   19.0273 C   0  0  0  0  0  0
  -30.3018  -21.5110   19.7716 C   0  0  0  0  0  0
  -29.9029  -23.8796   19.2845 C   0  0  0  0  0  0
  -29.2725  -21.5754   20.7169 C   0  0  0  0  0  0
  -28.9070  -23.9022   20.2993 C   0  0  0  0  0  0
  -31.1053  -20.2203   19.5906 C   0  0  0  0  0  0
  -28.9323  -20.3040   21.5233 C   0  0  0  0  0  0
  -30.3040  -19.0649   18.9532 C   0  0  0  0  0  0
  -28.4291  -19.0655   20.7021 C   0  0  0  0  0  0
  -29.4165  -18.1501   19.8667 C   0  0  1  0  0  0
  -31.3571  -25.9479   19.1861 C   0  0  0  0  0  0
  -29.2119  -16.5476   17.7761 C   0  0  0  0  0  0
  -30.2987  -25.1010   18.4691 C   0  0  0  0  0  0
  -28.1176  -25.1797   20.7676 C   0  0  0  0  0  0
  -28.5053  -17.3187   18.9085 C   0  0  0  0  0  0
  -30.3029  -17.1549   20.7581 C   0  0  0  0  0  0
  -28.5980  -22.7404   20.9666 N   0  0  0  0  0  0
  -29.9122  -15.7024   20.8447 N   0  0  0  0  0  0
  -31.4679  -12.4926   19.1505 H   0  0  0  0  0  0
  -30.3404  -11.3873   19.8886 H   0  0  0  0  0  0
  -29.7649  -11.7829   17.4650 H   0  0  0  0  0  0
  -29.6407  -13.4957   17.7605 H   0  0  0  0  0  0
  -27.8621  -11.3002   18.8652 H   0  0  0  0  0  0
  -27.3684  -12.5877   17.7969 H   0  0  0  0  0  0
  -27.6659  -14.2576   19.5255 H   0  0  0  0  0  0
  -28.6980  -12.0762   21.4038 H   0  0  0  0  0  0
  -28.4471  -13.7454   21.8341 H   0  0  0  0  0  0
  -25.2746   -9.5715   22.4722 H   0  0  0  0  0  0
  -24.0045   -7.4619   22.7431 H   0  0  0  0  0  0
  -21.0842   -8.8705   19.8933 H   0  0  0  0  0  0
  -22.3645  -10.9633   19.6140 H   0  0  0  0  0  0
  -21.1993   -7.6137   23.9710 H   0  0  0  0  0  0
  -21.1490   -6.0516   25.9090 H   0  0  0  0  0  0
  -22.0596   -2.7593   23.2838 H   0  0  0  0  0  0
  -22.4109  -11.9862   22.4834 H   0  0  0  0  0  0
  -21.1059  -13.1151   22.2659 H   0  0  0  0  0  0
  -24.6463  -15.8406   20.5229 H   0  0  0  0  0  0
  -26.2677  -15.6354   20.0918 H   0  0  0  0  0  0
  -26.7133  -32.5501   23.1159 H   0  0  0  0  0  0
  -25.0151  -33.9780   25.0538 H   0  0  0  0  0  0
  -22.7071  -31.2992   21.4016 H   0  0  0  0  0  0
  -23.3774  -35.9593   23.3276 H   0  0  0  0  0  0
  -24.3608  -36.8911   22.2060 H   0  0  0  0  0  0
  -23.7216  -37.6475   23.6656 H   0  0  0  0  0  0
  -26.0718  -31.5651   20.5983 H   0  0  0  0  0  0
  -26.8360  -30.8630   21.9930 H   0  0  0  0  0  0
  -28.1060  -29.0096   21.2236 H   0  0  0  0  0  0
  -26.0433  -25.9532   18.9833 H   0  0  0  0  0  0
  -23.9951  -27.3113   18.9880 H   0  0  0  0  0  0
  -23.7402  -30.5875   19.3995 H   0  0  0  0  0  0
  -22.7564  -29.2314   19.8671 H   0  0  0  0  0  0
  -25.1274  -36.1965   25.0843 H   0  0  0  0  0  0
  -20.9978  -28.3225   24.1428 H   0  0  0  0  0  0
  -20.5696  -26.2276   23.3613 H   0  0  0  0  0  0
  -21.6639  -26.7444   22.1200 H   0  0  0  0  0  0
  -19.6908  -25.6294   21.1233 H   0  0  0  0  0  0
  -19.6683  -27.3203   20.6771 H   0  0  0  0  0  0
  -17.4220  -26.6716   21.3996 H   0  0  0  0  0  0
  -18.0276  -26.0045   22.8992 H   0  0  0  0  0  0
  -19.7926  -30.7261   24.2269 H   0  0  0  0  0  0
  -17.4999  -31.6256   24.5147 H   0  0  0  0  0  0
  -15.5340  -30.2954   23.7642 H   0  0  0  0  0  0
  -15.8682  -28.0781   22.7078 H   0  0  0  0  0  0
  -24.5942  -30.7000   25.7831 H   0  0  0  0  0  0
  -24.8945  -32.2817   26.4939 H   0  0  0  0  0  0
  -25.8137  -30.8849   27.0233 H   0  0  0  0  0  0
  -26.2817  -29.6773   24.1151 H   0  0  0  0  0  0
  -27.4111  -29.7219   25.4499 H   0  0  0  0  0  0
  -27.8643  -30.4331   23.9186 H   0  0  0  0  0  0
  -27.2736  -33.3604   26.2006 H   0  0  0  0  0  0
  -28.3885  -32.6768   25.0263 H   0  0  0  0  0  0
  -28.0733  -31.8403   26.5391 H   0  0  0  0  0  0
  -28.2575  -38.0115   24.7544 H   0  0  0  0  0  0
  -28.1110  -36.2648   24.6225 H   0  0  0  0  0  0
  -27.2324  -37.1359   25.8867 H   0  0  0  0  0  0
  -20.9357  -29.8785   21.6960 H   0  0  0  0  0  0
  -26.0174  -38.2855   24.1443 H   0  0  0  0  0  0
  -31.3667  -22.6429   18.2730 H   0  0  0  0  0  0
  -31.5322  -19.9070   20.5449 H   0  0  0  0  0  0
  -31.9652  -20.4442   18.9569 H   0  0  0  0  0  0
  -28.1525  -20.5736   22.2365 H   0  0  0  0  0  0
  -29.7881  -20.0200   22.1350 H   0  0  0  0  0  0
  -31.0327  -18.4251   18.4527 H   0  0  0  0  0  0
  -29.7041  -19.4875   18.1450 H   0  0  0  0  0  0
  -27.6495  -19.4553   20.0460 H   0  0  0  0  0  0
  -27.9016  -18.4113   21.3972 H   0  0  0  0  0  0
  -31.6893  -26.7735   18.5566 H   0  0  0  0  0  0
  -32.2340  -25.3474   19.4315 H   0  0  0  0  0  0
  -30.9744  -26.3731   20.1136 H   0  0  0  0  0  0
  -28.5106  -15.8796   17.2761 H   0  0  0  0  0  0
  -30.0440  -15.9454   18.1330 H   0  0  0  0  0  0
  -29.6057  -17.2221   17.0155 H   0  0  0  0  0  0
  -29.4245  -25.6914   18.2005 H   0  0  0  0  0  0
  -30.7046  -24.7687   17.5128 H   0  0  0  0  0  0
  -28.3594  -25.3037   21.8243 H   0  0  0  0  0  0
  -27.0624  -24.9080   20.7624 H   0  0  0  0  0  0
  -27.7817  -17.9750   18.4233 H   0  0  0  0  0  0
  -27.8953  -16.6300   19.4908 H   0  0  0  0  0  0
  -30.3515  -17.5410   21.7773 H   0  0  0  0  0  0
  -31.3348  -17.2051   20.4074 H   0  0  0  0  0  0
  -28.9667  -15.5121   21.1388 H   0  0  0  0  0  0
  1 25  1  0  0  0
  1 30  2  0  0  0
  1 88  1  0  0  0
  2  3  1  0  0  0
  2 25  1  0  0  0
  2 89  1  0  0  0
  2 90  1  0  0  0
  3  4  1  0  0  0
  3 91  1  0  0  0
  3 92  1  0  0  0
  4  5  1  0  0  0
  4 93  1  0  0  0
  4 94  1  0  0  0
  5  6  1  0  0  0
  5 26  1  0  0  0
  5 95  1  0  0  0
  6 25  1  0  0  0
  6 96  1  0  0  0
  6 97  1  0  0  0
  7  8  2  0  0  0
  7 26  1  0  0  0
  7 29  1  0  0  0
  8  9  1  0  0  0
  8 22  1  0  0  0
  9 10  1  0  0  0
  9 27  2  0  0  0
 10 11  2  0  0  0
 10 15  1  0  0  0
 11 12  1  0  0  0
 11 98  1  0  0  0
 12 13  2  0  0  0
 12 99  1  0  0  0
 13 14  1  0  0  0
 13 31  1  0  0  0
 14 15  2  0  0  0
 14100  1  0  0  0
 15101  1  0  0  0
 16 17  2  0  0  0
 16 21  1  0  0  0
 16 31  1  0  0  0
 17 18  1  0  0  0
 17102  1  0  0  0
 18 19  2  0  0  0
 18103  1  0  0  0
 19 20  1  0  0  0
 19 24  1  0  0  0
 20 21  2  0  0  0
 20104  1  0  0  0
 21 23  1  0  0  0
 22 28  1  0  0  0
 22 32  2  0  0  0
 26 27  1  0  0  0
 28105  1  0  0  0
 28106  1  0  0  0
 29107  1  0  0  0
 29108  1  0  0  0
 33 34  1  0  0  0
 33 66  1  0  0  0
 33 70  2  0  0  0
 34 36  1  0  0  0
 34 59  1  0  0  0
 34109  1  0  0  0
 35 44  2  0  0  0
 35 45  1  0  0  0
 35 68  1  0  0  0
 36 56  1  0  0  0
 36110  1  0  0  0
 37 39  1  0  0  0
 37 47  1  0  0  0
 37 66  1  0  0  0
 37111  1  0  0  0
 38 43  2  0  0  0
 38 46  1  0  0  0
 38 47  1  0  0  0
 39 64  1  0  0  0
 39 67  2  0  0  0
 40 52  1  0  0  0
 40 53  2  0  0  0
 40 58  1  0  0  0
 41112  1  0  0  0
 41113  1  0  0  0
 41114  1  0  0  0
 41 48  1  0  0  0
 42 43  1  0  0  0
 42 66  1  0  0  0
 42115  1  0  0  0
 42116  1  0  0  0
 43 44  1  0  0  0
 44117  1  0  0  0
 45 46  2  0  0  0
 45118  1  0  0  0
 46119  1  0  0  0
 47120  1  0  0  0
 47121  1  0  0  0
 48 56  1  0  0  0
 48 65  1  0  0  0
 48122  1  0  0  0
 49 50  1  0  0  0
 49 53  1  0  0  0
 49 64  1  0  0  0
 49123  1  0  0  0
 50 51  1  0  0  0
 50124  1  0  0  0
 50125  1  0  0  0
 51 52  1  0  0  0
 51126  1  0  0  0
 51127  1  0  0  0
 52128  1  0  0  0
 52129  1  0  0  0
 53 54  1  0  0  0
 54 55  2  0  0  0
 54130  1  0  0  0
 55 57  1  0  0  0
 55131  1  0  0  0
 56 69  2  0  0  0
 57 58  2  0  0  0
 57132  1  0  0  0
 58133  1  0  0  0
 59 60  1  0  0  0
 59 61  1  0  0  0
 59 62  1  0  0  0
 60134  1  0  0  0
 60135  1  0  0  0
 60136  1  0  0  0
 61137  1  0  0  0
 61138  1  0  0  0
 61139  1  0  0  0
 62140  1  0  0  0
 62141  1  0  0  0
 62142  1  0  0  0
 63 65  1  0  0  0
 63143  1  0  0  0
 63144  1  0  0  0
 63145  1  0  0  0
 64146  1  0  0  0
 65147  1  0  0  0
 68 84  1  0  0  0
 71 72  2  0  0  0
 71 73  1  0  0  0
 71148  1  0  0  0
 72 74  1  0  0  0
 72 76  1  0  0  0
 73 75  2  0  0  0
 73 83  1  0  0  0
 74 77  1  0  0  0
 74 87  2  0  0  0
 75 84  1  0  0  0
 75 87  1  0  0  0
 76 78  1  0  0  0
 76149  1  0  0  0
 76150  1  0  0  0
 77 79  1  0  0  0
 77151  1  0  0  0
 77152  1  0  0  0
 78 80  1  0  0  0
 78153  1  0  0  0
 78154  1  0  0  0
 79 80  1  0  0  0
 79155  1  0  0  0
 79156  1  0  0  0
 80 85  1  0  0  0
 80 86  1  0  0  0
 81 83  1  0  0  0
 81157  1  0  0  0
 81158  1  0  0  0
 81159  1  0  0  0
 82 85  1  0  0  0
 82160  1  0  0  0
 82161  1  0  0  0
 82162  1  0  0  0
 83163  1  0  0  0
 83164  1  0  0  0
 84165  1  0  0  0
 84166  1  0  0  0
 85167  1  0  0  0
 85168  1  0  0  0
 86 88  1  0  0  0
 86169  1  0  0  0
 86170  1  0  0  0
 88171  1  0  0  0
M  ISO  4   1 100  68 101  84 101  88 100
M  END
> <chiral flag>
0

> <version>
0

> <s_m_source_file>
/data/baiqing/PycharmProjects/Reinvent-master-3.2/result/LINK_invent/BTK/process_docking_weight1_custom_sum_contain_oxygen_bond_distance_aromatic_linkinvent_7_9_3/rearranged_h_0034.sdf

> <i_m_source_file_index>
42

> <r_mmod_Potential_Energy-OPLS-2005>
-46.1829605102539

> <r_mmod_Stretch_Energy-OPLS-2005>
74.9468612670898

> <r_mmod_Bend_Energy-OPLS-2005>
150.11328125

> <r_mmod_Torsional_Energy-OPLS-2005>
280.189392089844

> <r_mmod_Improper_Torsional_Energy-OPLS-2005>
4.48249578475952

> <r_mmod_Van_der_Waal_Energy-OPLS-2005>
148.502868652344

> <r_mmod_Electrostatic_Energy-OPLS-2005>
-531.823669433594

> <r_mmod_Solvation_Energy-OPLS-2005>
-211.857040405273

> <b_mmod_Minimization_Converged-OPLS-2005>
0

> <r_mmod_RMS_Derivative-OPLS-2005>
2.30590581893921

$$$$
43
                    3D
 Structure written by MMmdl.
161170  0  0  1  0            999 V2000
  -30.6746  -14.5688   20.4749 C   0  0  0  0  0  0
  -30.4155  -12.3323   19.4652 C   0  0  0  0  0  0
  -29.5013  -12.4600   18.2284 C   0  0  0  0  0  0
  -28.0211  -12.3129   18.6344 C   0  0  0  0  0  0
  -27.6383  -13.1966   19.8507 C   0  0  2  0  0  0
  -28.6838  -13.1058   20.9814 C   0  0  0  0  0  0
  -25.2545  -13.8121   20.5709 C   0  0  0  0  0  0
  -24.1799  -13.0424   20.9206 C   0  0  0  0  0  0
  -24.6345  -11.6882   20.8774 C   0  0  0  0  0  0
  -23.9017  -10.4291   21.0429 C   0  0  0  0  0  0
  -24.3587   -9.4207   21.9194 C   0  0  0  0  0  0
  -23.6285   -8.2233   22.0753 C   0  0  0  0  0  0
  -22.4259   -8.0273   21.3554 C   0  0  0  0  0  0
  -21.9883   -9.0241   20.4654 C   0  0  0  0  0  0
  -22.7196  -10.2128   20.3071 C   0  0  0  0  0  0
  -21.6845   -6.0730   22.5283 C   0  0  0  0  0  0
  -21.4011   -6.5637   23.8220 C   0  0  0  0  0  0
  -21.3653   -5.6785   24.9178 C   0  0  0  0  0  0
  -21.6041   -4.3051   24.7220 C   0  0  0  0  0  0
  -21.8823   -3.8145   23.4344 C   0  0  0  0  0  0
  -21.9197   -4.6962   22.3404 C   0  0  0  0  0  0
  -22.7829  -13.5243   21.1859 C   0  0  0  0  0  0
  -22.1666   -4.2151   21.0982 F   0  0  0  0  0  0
  -21.5626   -3.4533   25.7733 F   0  0  0  0  0  0
  -30.0063  -13.3807   20.4141 N   0  0  0  0  0  0
  -26.2913  -12.9237   20.3303 N   0  0  0  0  0  0
  -25.9258  -11.6420   20.5792 N   0  0  0  0  0  0
  -22.0452  -12.8269   22.0413 N   0  0  0  0  0  0
  -25.4336  -15.1844   20.4149 N   0  0  0  0  0  0
  -31.8745  -14.6470   20.2061 O   0  0  0  0  0  0
  -21.6638   -6.8861   21.4241 O   0  0  0  0  0  0
  -22.3536  -14.5543   20.6680 O   0  0  0  0  0  0
  -24.6197  -31.8637   23.2030 C   0  0  0  0  0  0
  -25.9082  -32.4783   23.8335 C   0  0  1  0  0  0
  -27.2266  -27.3890   20.1182 C   0  0  0  0  0  0
  -25.5922  -33.8588   24.2279 N   0  0  0  0  0  0
  -23.4074  -30.4880   21.5448 C   0  0  2  0  0  0
  -24.8540  -28.9418   20.1140 C   0  0  0  0  0  0
  -22.7422  -29.4660   22.4962 C   0  0  0  0  0  0
  -18.0279  -28.1381   22.8491 C   0  0  0  0  0  0
  -24.1499  -36.7299   23.2639 C   0  0  0  0  0  0
  -25.9402  -30.8193   21.3585 C   0  0  0  0  0  0
  -26.0159  -29.4477   20.7104 C   0  0  0  0  0  0
  -27.2084  -28.6820   20.7003 C   0  0  0  0  0  0
  -26.0489  -26.9046   19.5128 C   0  0  0  0  0  0
  -24.8677  -27.6723   19.5087 C   0  0  0  0  0  0
  -23.6181  -29.8153   20.1603 C   0  0  0  0  0  0
  -25.4117  -36.3084   24.0332 C   0  0  1  0  0  0
  -20.5874  -28.3684   23.1298 C   0  0  2  0  0  0
  -20.6779  -26.9417   22.5414 C   0  0  0  0  0  0
  -19.5753  -26.6393   21.5215 C   0  0  0  0  0  0
  -18.1931  -26.7931   22.1625 C   0  0  0  0  0  0
  -19.1531  -28.8842   23.2900 C   0  0  0  0  0  0
  -18.9464  -30.1448   23.8910 C   0  0  0  0  0  0
  -17.6467  -30.6586   24.0575 C   0  0  0  0  0  0
  -25.9036  -34.9453   23.5089 C   0  0  0  0  0  0
  -16.5353  -29.9097   23.6333 C   0  0  0  0  0  0
  -16.7271  -28.6515   23.0349 C   0  0  0  0  0  0
  -26.4496  -31.6565   25.0672 C   0  0  0  0  0  0
  -25.3760  -31.3688   26.1412 C   0  0  0  0  0  0
  -27.0327  -30.3003   24.6050 C   0  0  0  0  0  0
  -27.6059  -32.4284   25.7453 C   0  0  0  0  0  0
  -27.5584  -37.1805   24.8468 C   0  0  0  0  0  0
  -21.4146  -29.3044   22.3697 N   0  0  0  0  0  0
  -26.4301  -37.3777   23.9406 N   0  0  0  0  0  0
  -24.6745  -31.0728   22.0931 N   0  0  0  0  0  0
  -23.4190  -28.8207   23.3015 O   0  0  0  0  0  0
  -28.3804  -26.6256   20.1215 O   0  0  0  0  0  0
  -26.5615  -34.8925   22.4657 O   0  0  0  0  0  0
  -23.5375  -32.1410   23.7410 O   0  0  0  0  0  0
  -29.0926  -16.2679   19.4524 C   0  0  0  0  0  0
  -29.8927  -15.8836   20.5003 C   0  0  0  0  0  0
  -30.0169  -17.0056   21.3939 C   0  0  0  0  0  0
  -29.3219  -18.0638   20.8127 C   0  0  0  0  0  0
  -29.1218  -19.4527   21.1367 C   0  0  0  0  0  0
  -27.7311  -19.7057   19.1780 C   0  0  0  0  0  0
  -27.9210  -18.3819   18.8513 C   0  0  0  0  0  0
  -28.3503  -20.2748   20.3200 C   0  0  0  0  0  0
  -29.8736  -17.2535   23.8917 C   0  0  0  0  0  0
  -30.7897  -17.0397   22.6813 C   0  0  0  0  0  0
  -28.0893  -21.7693   20.6237 C   0  0  0  0  0  0
  -29.0379  -22.7656   19.8898 C   0  0  0  0  0  0
  -28.4853  -24.1761   19.4754 C   0  0  0  0  0  0
  -28.2831  -25.2509   20.5853 C   0  0  0  0  0  0
  -28.7101  -17.5895   19.6287 N   0  0  0  0  0  0
  -31.4643  -12.4125   19.1737 H   0  0  0  0  0  0
  -30.3075  -11.3473   19.9228 H   0  0  0  0  0  0
  -29.7598  -11.6956   17.4936 H   0  0  0  0  0  0
  -29.6650  -13.4236   17.7437 H   0  0  0  0  0  0
  -27.8530  -11.2629   18.8758 H   0  0  0  0  0  0
  -27.3730  -12.5375   17.7864 H   0  0  0  0  0  0
  -27.6213  -14.2127   19.4795 H   0  0  0  0  0  0
  -28.6777  -12.1152   21.4371 H   0  0  0  0  0  0
  -28.4477  -13.8149   21.7758 H   0  0  0  0  0  0
  -25.2729   -9.5695   22.4771 H   0  0  0  0  0  0
  -24.0000   -7.4619   22.7475 H   0  0  0  0  0  0
  -21.0810   -8.8767   19.8973 H   0  0  0  0  0  0
  -22.3653  -10.9674   19.6197 H   0  0  0  0  0  0
  -21.2007   -7.6146   23.9721 H   0  0  0  0  0  0
  -21.1465   -6.0515   25.9078 H   0  0  0  0  0  0
  -22.0606   -2.7606   23.2848 H   0  0  0  0  0  0
  -22.4044  -11.9946   22.4855 H   0  0  0  0  0  0
  -21.1073  -13.1344   22.2596 H   0  0  0  0  0  0
  -24.6819  -15.8497   20.5499 H   0  0  0  0  0  0
  -26.3113  -15.6197   20.1562 H   0  0  0  0  0  0
  -26.7150  -32.5493   23.1097 H   0  0  0  0  0  0
  -25.0111  -33.9732   25.0445 H   0  0  0  0  0  0
  -22.6994  -31.3063   21.4001 H   0  0  0  0  0  0
  -23.3746  -35.9646   23.3301 H   0  0  0  0  0  0
  -24.3591  -36.8906   22.2052 H   0  0  0  0  0  0
  -23.7270  -37.6508   23.6651 H   0  0  0  0  0  0
  -26.0537  -31.5797   20.5850 H   0  0  0  0  0  0
  -26.8276  -30.8739   21.9777 H   0  0  0  0  0  0
  -28.1058  -29.0692   21.1632 H   0  0  0  0  0  0
  -26.0398  -25.9320   19.0420 H   0  0  0  0  0  0
  -23.9753  -27.2757   19.0437 H   0  0  0  0  0  0
  -23.7317  -30.5864   19.3983 H   0  0  0  0  0  0
  -22.7414  -29.2383   19.8626 H   0  0  0  0  0  0
  -25.1299  -36.1933   25.0826 H   0  0  0  0  0  0
  -20.9978  -28.3262   24.1416 H   0  0  0  0  0  0
  -20.5686  -26.2295   23.3612 H   0  0  0  0  0  0
  -21.6649  -26.7463   22.1197 H   0  0  0  0  0  0
  -19.6911  -25.6310   21.1235 H   0  0  0  0  0  0
  -19.6680  -27.3216   20.6758 H   0  0  0  0  0  0
  -17.4205  -26.6688   21.4030 H   0  0  0  0  0  0
  -18.0324  -26.0073   22.9017 H   0  0  0  0  0  0
  -19.7942  -30.7268   24.2282 H   0  0  0  0  0  0
  -17.5023  -31.6269   24.5179 H   0  0  0  0  0  0
  -15.5353  -30.3009   23.7637 H   0  0  0  0  0  0
  -15.8681  -28.0844   22.7045 H   0  0  0  0  0  0
  -24.5934  -30.7031   25.7757 H   0  0  0  0  0  0
  -24.8964  -32.2853   26.4853 H   0  0  0  0  0  0
  -25.8114  -30.8866   27.0177 H   0  0  0  0  0  0
  -26.2864  -29.6755   24.1133 H   0  0  0  0  0  0
  -27.4124  -29.7244   25.4503 H   0  0  0  0  0  0
  -27.8684  -30.4304   23.9177 H   0  0  0  0  0  0
  -27.2651  -33.3569   26.2052 H   0  0  0  0  0  0
  -28.3873  -32.6867   25.0296 H   0  0  0  0  0  0
  -28.0724  -31.8397   26.5364 H   0  0  0  0  0  0
  -28.2604  -38.0105   24.7501 H   0  0  0  0  0  0
  -28.1071  -36.2625   24.6297 H   0  0  0  0  0  0
  -27.2295  -37.1459   25.8873 H   0  0  0  0  0  0
  -20.9308  -29.8775   21.6925 H   0  0  0  0  0  0
  -26.0172  -38.2846   24.1396 H   0  0  0  0  0  0
  -28.8085  -15.7569   18.5437 H   0  0  0  0  0  0
  -29.5925  -19.8464   22.0324 H   0  0  0  0  0  0
  -27.0983  -20.3189   18.5380 H   0  0  0  0  0  0
  -27.4733  -17.9150   17.9796 H   0  0  0  0  0  0
  -29.3153  -18.1861   23.8167 H   0  0  0  0  0  0
  -30.4499  -17.2951   24.8151 H   0  0  0  0  0  0
  -29.1494  -16.4438   23.9913 H   0  0  0  0  0  0
  -31.3565  -16.1171   22.8222 H   0  0  0  0  0  0
  -31.5312  -17.8392   22.6460 H   0  0  0  0  0  0
  -28.1220  -21.9407   21.7010 H   0  0  0  0  0  0
  -27.0601  -21.9840   20.3301 H   0  0  0  0  0  0
  -29.9619  -22.8713   20.4592 H   0  0  0  0  0  0
  -29.3363  -22.2837   18.9566 H   0  0  0  0  0  0
  -27.5694  -24.0584   18.8953 H   0  0  0  0  0  0
  -29.2106  -24.5941   18.7774 H   0  0  0  0  0  0
  -29.0718  -25.1251   21.3272 H   0  0  0  0  0  0
  -27.3524  -25.0640   21.1249 H   0  0  0  0  0  0
  1 25  1  0  0  0
  1 30  2  0  0  0
  1 72  1  0  0  0
  2  3  1  0  0  0
  2 25  1  0  0  0
  2 86  1  0  0  0
  2 87  1  0  0  0
  3  4  1  0  0  0
  3 88  1  0  0  0
  3 89  1  0  0  0
  4  5  1  0  0  0
  4 90  1  0  0  0
  4 91  1  0  0  0
  5  6  1  0  0  0
  5 26  1  0  0  0
  5 92  1  0  0  0
  6 25  1  0  0  0
  6 93  1  0  0  0
  6 94  1  0  0  0
  7  8  2  0  0  0
  7 26  1  0  0  0
  7 29  1  0  0  0
  8  9  1  0  0  0
  8 22  1  0  0  0
  9 10  1  0  0  0
  9 27  2  0  0  0
 10 11  2  0  0  0
 10 15  1  0  0  0
 11 12  1  0  0  0
 11 95  1  0  0  0
 12 13  2  0  0  0
 12 96  1  0  0  0
 13 14  1  0  0  0
 13 31  1  0  0  0
 14 15  2  0  0  0
 14 97  1  0  0  0
 15 98  1  0  0  0
 16 17  2  0  0  0
 16 21  1  0  0  0
 16 31  1  0  0  0
 17 18  1  0  0  0
 17 99  1  0  0  0
 18 19  2  0  0  0
 18100  1  0  0  0
 19 20  1  0  0  0
 19 24  1  0  0  0
 20 21  2  0  0  0
 20101  1  0  0  0
 21 23  1  0  0  0
 22 28  1  0  0  0
 22 32  2  0  0  0
 26 27  1  0  0  0
 28102  1  0  0  0
 28103  1  0  0  0
 29104  1  0  0  0
 29105  1  0  0  0
 33 34  1  0  0  0
 33 66  1  0  0  0
 33 70  2  0  0  0
 34 36  1  0  0  0
 34 59  1  0  0  0
 34106  1  0  0  0
 35 44  2  0  0  0
 35 45  1  0  0  0
 35 68  1  0  0  0
 36 56  1  0  0  0
 36107  1  0  0  0
 37 39  1  0  0  0
 37 47  1  0  0  0
 37 66  1  0  0  0
 37108  1  0  0  0
 38 43  2  0  0  0
 38 46  1  0  0  0
 38 47  1  0  0  0
 39 64  1  0  0  0
 39 67  2  0  0  0
 40 52  1  0  0  0
 40 53  2  0  0  0
 40 58  1  0  0  0
 41109  1  0  0  0
 41110  1  0  0  0
 41111  1  0  0  0
 41 48  1  0  0  0
 42 43  1  0  0  0
 42 66  1  0  0  0
 42112  1  0  0  0
 42113  1  0  0  0
 43 44  1  0  0  0
 44114  1  0  0  0
 45 46  2  0  0  0
 45115  1  0  0  0
 46116  1  0  0  0
 47117  1  0  0  0
 47118  1  0  0  0
 48 56  1  0  0  0
 48 65  1  0  0  0
 48119  1  0  0  0
 49 50  1  0  0  0
 49 53  1  0  0  0
 49 64  1  0  0  0
 49120  1  0  0  0
 50 51  1  0  0  0
 50121  1  0  0  0
 50122  1  0  0  0
 51 52  1  0  0  0
 51123  1  0  0  0
 51124  1  0  0  0
 52125  1  0  0  0
 52126  1  0  0  0
 53 54  1  0  0  0
 54 55  2  0  0  0
 54127  1  0  0  0
 55 57  1  0  0  0
 55128  1  0  0  0
 56 69  2  0  0  0
 57 58  2  0  0  0
 57129  1  0  0  0
 58130  1  0  0  0
 59 60  1  0  0  0
 59 61  1  0  0  0
 59 62  1  0  0  0
 60131  1  0  0  0
 60132  1  0  0  0
 60133  1  0  0  0
 61134  1  0  0  0
 61135  1  0  0  0
 61136  1  0  0  0
 62137  1  0  0  0
 62138  1  0  0  0
 62139  1  0  0  0
 63 65  1  0  0  0
 63140  1  0  0  0
 63141  1  0  0  0
 63142  1  0  0  0
 64143  1  0  0  0
 65144  1  0  0  0
 68 84  1  0  0  0
 71 72  2  0  0  0
 71 85  1  0  0  0
 71145  1  0  0  0
 72 73  1  0  0  0
 73 74  2  0  0  0
 73 80  1  0  0  0
 74 75  1  0  0  0
 74 85  1  0  0  0
 75 78  2  0  0  0
 75146  1  0  0  0
 76 77  2  0  0  0
 76 78  1  0  0  0
 76147  1  0  0  0
 77 85  1  0  0  0
 77148  1  0  0  0
 78 81  1  0  0  0
 79 80  1  0  0  0
 79149  1  0  0  0
 79150  1  0  0  0
 79151  1  0  0  0
 80152  1  0  0  0
 80153  1  0  0  0
 81 82  1  0  0  0
 81154  1  0  0  0
 81155  1  0  0  0
 82 83  1  0  0  0
 82156  1  0  0  0
 82157  1  0  0  0
 83 84  1  0  0  0
 83158  1  0  0  0
 83159  1  0  0  0
 84160  1  0  0  0
 84161  1  0  0  0
M  ISO  4   1 100  68 101  72 100  84 101
M  END
> <chiral flag>
0

> <version>
0

> <s_m_source_file>
/data/baiqing/PycharmProjects/Reinvent-master-3.2/result/LINK_invent/BTK/process_docking_weight1_custom_sum_contain_oxygen_bond_distance_aromatic_linkinvent_7_9_3/rearranged_h_0034.sdf

> <i_m_source_file_index>
43

> <r_mmod_Potential_Energy-OPLS-2005>
90.162353515625

> <r_mmod_Stretch_Energy-OPLS-2005>
48.0103416442871

> <r_mmod_Bend_Energy-OPLS-2005>
115.056297302246

> <r_mmod_Torsional_Energy-OPLS-2005>
238.168853759766

> <r_mmod_Improper_Torsional_Energy-OPLS-2005>
9.97710800170898

> <r_mmod_Van_der_Waal_Energy-OPLS-2005>
127.301902770996

> <r_mmod_Electrostatic_Energy-OPLS-2005>
-292.521270751953

> <r_mmod_Solvation_Energy-OPLS-2005>
-188.366226196289

> <b_mmod_Minimization_Converged-OPLS-2005>
0

> <r_mmod_RMS_Derivative-OPLS-2005>
3.0355863571167

$$$$
44
                    3D
 Structure written by MMmdl.
153161  0  0  1  0            999 V2000
  -30.4102  -15.3280   20.3758 C   0  0  0  0  0  0
  -30.4386  -12.8612   19.5105 C   0  0  0  0  0  0
  -29.5324  -12.5824   18.2835 C   0  0  0  0  0  0
  -28.0846  -12.2954   18.7202 C   0  0  0  0  0  0
  -27.6059  -13.2775   19.8175 C   0  0  2  0  0  0
  -28.6438  -13.4763   20.9412 C   0  0  0  0  0  0
  -25.2364  -13.8240   20.5757 C   0  0  0  0  0  0
  -24.1724  -13.0426   20.9268 C   0  0  0  0  0  0
  -24.6391  -11.6925   20.8769 C   0  0  0  0  0  0
  -23.9086  -10.4286   21.0407 C   0  0  0  0  0  0
  -24.3634   -9.4202   21.9183 C   0  0  0  0  0  0
  -23.6299   -8.2242   22.0754 C   0  0  0  0  0  0
  -22.4280   -8.0287   21.3546 C   0  0  0  0  0  0
  -21.9922   -9.0256   20.4644 C   0  0  0  0  0  0
  -22.7258  -10.2128   20.3052 C   0  0  0  0  0  0
  -21.6856   -6.0735   22.5272 C   0  0  0  0  0  0
  -21.4020   -6.5640   23.8205 C   0  0  0  0  0  0
  -21.3657   -5.6792   24.9167 C   0  0  0  0  0  0
  -21.6040   -4.3053   24.7216 C   0  0  0  0  0  0
  -21.8822   -3.8145   23.4339 C   0  0  0  0  0  0
  -21.9195   -4.6961   22.3394 C   0  0  0  0  0  0
  -22.7741  -13.5175   21.1911 C   0  0  0  0  0  0
  -22.1660   -4.2146   21.0971 F   0  0  0  0  0  0
  -21.5627   -3.4539   25.7732 F   0  0  0  0  0  0
  -29.8548  -14.0130   20.2947 N   0  0  0  0  0  0
  -26.2797  -12.9516   20.3235 N   0  0  0  0  0  0
  -25.9330  -11.6621   20.5733 N   0  0  0  0  0  0
  -22.0406  -12.8158   22.0472 N   0  0  0  0  0  0
  -25.3985  -15.1979   20.4187 N   0  0  0  0  0  0
  -31.6450  -15.3167   20.2587 O   0  0  0  0  0  0
  -21.6646   -6.8880   21.4236 O   0  0  0  0  0  0
  -22.3415  -14.5475   20.6750 O   0  0  0  0  0  0
  -24.6691  -31.8177   23.1655 C   0  0  0  0  0  0
  -25.9340  -32.4558   23.8141 C   0  0  1  0  0  0
  -27.2158  -26.8730   20.1935 C   0  0  0  0  0  0
  -25.5982  -33.8379   24.2029 N   0  0  0  0  0  0
  -23.4860  -30.4283   21.5160 C   0  0  2  0  0  0
  -24.9375  -28.8014   20.1179 C   0  0  0  0  0  0
  -22.7696  -29.4427   22.4761 C   0  0  0  0  0  0
  -18.0331  -28.1431   22.8471 C   0  0  0  0  0  0
  -24.1475  -36.7176   23.2656 C   0  0  0  0  0  0
  -26.0595  -30.6054   21.4038 C   0  0  0  0  0  0
  -26.1250  -29.1889   20.7511 C   0  0  0  0  0  0
  -27.2608  -28.2503   20.7572 C   0  0  0  0  0  0
  -25.9956  -26.6486   19.5169 C   0  0  0  0  0  0
  -24.9008  -27.5526   19.4791 C   0  0  0  0  0  0
  -23.7289  -29.7393   20.1453 C   0  0  0  0  0  0
  -25.4120  -36.2942   24.0297 C   0  0  1  0  0  0
  -20.5956  -28.3779   23.1178 C   0  0  2  0  0  0
  -20.6801  -26.9450   22.5409 C   0  0  0  0  0  0
  -19.5770  -26.6382   21.5230 C   0  0  0  0  0  0
  -18.1951  -26.7965   22.1629 C   0  0  0  0  0  0
  -19.1595  -28.8929   23.2811 C   0  0  0  0  0  0
  -18.9517  -30.1516   23.8851 C   0  0  0  0  0  0
  -17.6512  -30.6619   24.0569 C   0  0  0  0  0  0
  -25.9107  -34.9336   23.4983 C   0  0  0  0  0  0
  -16.5396  -29.9101   23.6368 C   0  0  0  0  0  0
  -16.7315  -28.6524   23.0376 C   0  0  0  0  0  0
  -26.4563  -31.6546   25.0707 C   0  0  0  0  0  0
  -25.3667  -31.3820   26.1353 C   0  0  0  0  0  0
  -27.0472  -30.2906   24.6499 C   0  0  0  0  0  0
  -27.6042  -32.4389   25.7507 C   0  0  0  0  0  0
  -27.5545  -37.1741   24.8473 C   0  0  0  0  0  0
  -21.4358  -29.3056   22.3515 N   0  0  0  0  0  0
  -26.4249  -37.3698   23.9427 N   0  0  0  0  0  0
  -24.7605  -30.9791   22.0816 N   0  0  0  0  0  0
  -23.4216  -28.7998   23.3028 O   0  0  0  0  0  0
  -28.2172  -25.7472   20.1917 O   0  0  0  0  0  0
  -26.5726  -34.8898   22.4588 O   0  0  0  0  0  0
  -23.5741  -32.1173   23.6707 O   0  0  0  0  0  0
  -29.4889  -19.9541   18.7087 C   0  0  0  0  0  0
  -29.3140  -19.8185   20.0960 C   0  0  0  0  0  0
  -28.8866  -21.1970   20.6861 C   0  0  0  0  0  0
  -28.6682  -22.5738   19.9806 C   0  0  0  0  0  0
  -28.9528  -22.4315   18.5920 C   0  0  0  0  0  0
  -29.3264  -21.1767   17.9995 C   0  0  0  0  0  0
  -28.6442  -21.1948   22.1823 C   0  0  0  0  0  0
  -28.8148  -23.6586   17.6948 C   0  0  0  0  0  0
  -29.7763  -18.2480   20.7728 C   0  0  0  0  0  0
  -27.9610  -24.1228   20.5074 C   0  0  0  0  0  0
  -29.6301  -16.6077   20.3872 N   0  0  0  0  0  0
  -29.6071  -21.0729   16.2943 Cl  0  0  0  0  0  0
  -31.4470  -13.0916   19.1652 H   0  0  0  0  0  0
  -30.5368  -11.9706   20.1337 H   0  0  0  0  0  0
  -29.9222  -11.7452   17.7034 H   0  0  0  0  0  0
  -29.5462  -13.4488   17.6206 H   0  0  0  0  0  0
  -28.0533  -11.2759   19.1063 H   0  0  0  0  0  0
  -27.4118  -12.3182   17.8623 H   0  0  0  0  0  0
  -27.5099  -14.2371   19.3078 H   0  0  0  0  0  0
  -28.8378  -12.5457   21.4768 H   0  0  0  0  0  0
  -28.2735  -14.1890   21.6795 H   0  0  0  0  0  0
  -25.2771   -9.5677   22.4769 H   0  0  0  0  0  0
  -23.9998   -7.4634   22.7484 H   0  0  0  0  0  0
  -21.0853   -8.8782   19.8952 H   0  0  0  0  0  0
  -22.3716  -10.9673   19.6168 H   0  0  0  0  0  0
  -21.2020   -7.6150   23.9707 H   0  0  0  0  0  0
  -21.1472   -6.0522   25.9068 H   0  0  0  0  0  0
  -22.0602   -2.7609   23.2838 H   0  0  0  0  0  0
  -22.4039  -11.9820   22.4846 H   0  0  0  0  0  0
  -21.1026  -13.1174   22.2699 H   0  0  0  0  0  0
  -24.6243  -15.8447   20.5241 H   0  0  0  0  0  0
  -26.2379  -15.6414   20.0710 H   0  0  0  0  0  0
  -26.7405  -32.5065   23.0848 H   0  0  0  0  0  0
  -25.0104  -33.9448   25.0160 H   0  0  0  0  0  0
  -22.8046  -31.2634   21.3393 H   0  0  0  0  0  0
  -23.3765  -35.9481   23.3294 H   0  0  0  0  0  0
  -24.3540  -36.8852   22.2077 H   0  0  0  0  0  0
  -23.7210  -37.6340   23.6743 H   0  0  0  0  0  0
  -26.2475  -31.3413   20.6206 H   0  0  0  0  0  0
  -26.9161  -30.6618   22.0636 H   0  0  0  0  0  0
  -28.1642  -28.5537   21.2663 H   0  0  0  0  0  0
  -25.8611  -25.6993   19.0186 H   0  0  0  0  0  0
  -24.0000  -27.2502   18.9616 H   0  0  0  0  0  0
  -23.8924  -30.5055   19.3861 H   0  0  0  0  0  0
  -22.8370  -29.1991   19.8235 H   0  0  0  0  0  0
  -25.1319  -36.1714   25.0784 H   0  0  0  0  0  0
  -21.0057  -28.3385   24.1295 H   0  0  0  0  0  0
  -20.5704  -26.2391   23.3652 H   0  0  0  0  0  0
  -21.6655  -26.7425   22.1202 H   0  0  0  0  0  0
  -19.6929  -25.6278   21.1294 H   0  0  0  0  0  0
  -19.6711  -27.3171   20.6745 H   0  0  0  0  0  0
  -17.4224  -26.6748   21.4018 H   0  0  0  0  0  0
  -18.0320  -26.0109   22.9027 H   0  0  0  0  0  0
  -19.7997  -30.7346   24.2178 H   0  0  0  0  0  0
  -17.5068  -31.6295   24.5175 H   0  0  0  0  0  0
  -15.5397  -30.2996   23.7720 H   0  0  0  0  0  0
  -15.8714  -28.0829   22.7120 H   0  0  0  0  0  0
  -24.5871  -30.7143   25.7661 H   0  0  0  0  0  0
  -24.8827  -32.3024   26.4640 H   0  0  0  0  0  0
  -25.7872  -30.9083   27.0230 H   0  0  0  0  0  0
  -26.3153  -29.6571   24.1478 H   0  0  0  0  0  0
  -27.3947  -29.7296   25.5186 H   0  0  0  0  0  0
  -27.9113  -30.4076   23.9957 H   0  0  0  0  0  0
  -27.2613  -33.3785   26.1858 H   0  0  0  0  0  0
  -28.3954  -32.6801   25.0392 H   0  0  0  0  0  0
  -28.0588  -31.8665   26.5598 H   0  0  0  0  0  0
  -28.2550  -38.0052   24.7516 H   0  0  0  0  0  0
  -28.1044  -36.2574   24.6291 H   0  0  0  0  0  0
  -27.2267  -37.1377   25.8879 H   0  0  0  0  0  0
  -20.9630  -29.8717   21.6611 H   0  0  0  0  0  0
  -26.0080  -38.2737   24.1477 H   0  0  0  0  0  0
  -29.8046  -19.0814   18.1539 H   0  0  0  0  0  0
  -29.3016  -20.4864   22.6880 H   0  0  0  0  0  0
  -27.6118  -20.9185   22.3961 H   0  0  0  0  0  0
  -28.8347  -22.1760   22.6160 H   0  0  0  0  0  0
  -27.7751  -23.7978   17.4006 H   0  0  0  0  0  0
  -29.4178  -23.5968   16.7910 H   0  0  0  0  0  0
  -29.1576  -24.5588   18.2003 H   0  0  0  0  0  0
  -29.3621  -18.2872   21.7799 H   0  0  0  0  0  0
  -30.8487  -18.3622   20.9371 H   0  0  0  0  0  0
  -27.9804  -24.0721   21.5944 H   0  0  0  0  0  0
  -26.9077  -23.9782   20.2670 H   0  0  0  0  0  0
  -28.6526  -16.3782   20.2875 H   0  0  0  0  0  0
  1 25  1  0  0  0
  1 30  2  0  0  0
  1 81  1  0  0  0
  2  3  1  0  0  0
  2 25  1  0  0  0
  2 83  1  0  0  0
  2 84  1  0  0  0
  3  4  1  0  0  0
  3 85  1  0  0  0
  3 86  1  0  0  0
  4  5  1  0  0  0
  4 87  1  0  0  0
  4 88  1  0  0  0
  5  6  1  0  0  0
  5 26  1  0  0  0
  5 89  1  0  0  0
  6 25  1  0  0  0
  6 90  1  0  0  0
  6 91  1  0  0  0
  7  8  2  0  0  0
  7 26  1  0  0  0
  7 29  1  0  0  0
  8  9  1  0  0  0
  8 22  1  0  0  0
  9 10  1  0  0  0
  9 27  2  0  0  0
 10 11  2  0  0  0
 10 15  1  0  0  0
 11 12  1  0  0  0
 11 92  1  0  0  0
 12 13  2  0  0  0
 12 93  1  0  0  0
 13 14  1  0  0  0
 13 31  1  0  0  0
 14 15  2  0  0  0
 14 94  1  0  0  0
 15 95  1  0  0  0
 16 17  2  0  0  0
 16 21  1  0  0  0
 16 31  1  0  0  0
 17 18  1  0  0  0
 17 96  1  0  0  0
 18 19  2  0  0  0
 18 97  1  0  0  0
 19 20  1  0  0  0
 19 24  1  0  0  0
 20 21  2  0  0  0
 20 98  1  0  0  0
 21 23  1  0  0  0
 22 28  1  0  0  0
 22 32  2  0  0  0
 26 27  1  0  0  0
 28 99  1  0  0  0
 28100  1  0  0  0
 29101  1  0  0  0
 29102  1  0  0  0
 33 34  1  0  0  0
 33 66  1  0  0  0
 33 70  2  0  0  0
 34 36  1  0  0  0
 34 59  1  0  0  0
 34103  1  0  0  0
 35 44  2  0  0  0
 35 45  1  0  0  0
 35 68  1  0  0  0
 36 56  1  0  0  0
 36104  1  0  0  0
 37 39  1  0  0  0
 37 47  1  0  0  0
 37 66  1  0  0  0
 37105  1  0  0  0
 38 43  2  0  0  0
 38 46  1  0  0  0
 38 47  1  0  0  0
 39 64  1  0  0  0
 39 67  2  0  0  0
 40 52  1  0  0  0
 40 53  2  0  0  0
 40 58  1  0  0  0
 41106  1  0  0  0
 41107  1  0  0  0
 41108  1  0  0  0
 41 48  1  0  0  0
 42 43  1  0  0  0
 42 66  1  0  0  0
 42109  1  0  0  0
 42110  1  0  0  0
 43 44  1  0  0  0
 44111  1  0  0  0
 45 46  2  0  0  0
 45112  1  0  0  0
 46113  1  0  0  0
 47114  1  0  0  0
 47115  1  0  0  0
 48 56  1  0  0  0
 48 65  1  0  0  0
 48116  1  0  0  0
 49 50  1  0  0  0
 49 53  1  0  0  0
 49 64  1  0  0  0
 49117  1  0  0  0
 50 51  1  0  0  0
 50118  1  0  0  0
 50119  1  0  0  0
 51 52  1  0  0  0
 51120  1  0  0  0
 51121  1  0  0  0
 52122  1  0  0  0
 52123  1  0  0  0
 53 54  1  0  0  0
 54 55  2  0  0  0
 54124  1  0  0  0
 55 57  1  0  0  0
 55125  1  0  0  0
 56 69  2  0  0  0
 57 58  2  0  0  0
 57126  1  0  0  0
 58127  1  0  0  0
 59 60  1  0  0  0
 59 61  1  0  0  0
 59 62  1  0  0  0
 60128  1  0  0  0
 60129  1  0  0  0
 60130  1  0  0  0
 61131  1  0  0  0
 61132  1  0  0  0
 61133  1  0  0  0
 62134  1  0  0  0
 62135  1  0  0  0
 62136  1  0  0  0
 63 65  1  0  0  0
 63137  1  0  0  0
 63138  1  0  0  0
 63139  1  0  0  0
 64140  1  0  0  0
 65141  1  0  0  0
 68 80  1  0  0  0
 71 72  2  0  0  0
 71 76  1  0  0  0
 71142  1  0  0  0
 72 73  1  0  0  0
 72 79  1  0  0  0
 73 74  2  0  0  0
 73 77  1  0  0  0
 74 75  1  0  0  0
 74 80  1  0  0  0
 75 76  2  0  0  0
 75 78  1  0  0  0
 76 82  1  0  0  0
 77143  1  0  0  0
 77144  1  0  0  0
 77145  1  0  0  0
 78146  1  0  0  0
 78147  1  0  0  0
 78148  1  0  0  0
 79 81  1  0  0  0
 79149  1  0  0  0
 79150  1  0  0  0
 80151  1  0  0  0
 80152  1  0  0  0
 81153  1  0  0  0
M  ISO  4   1 100  68 101  80 101  81 100
M  END
> <chiral flag>
0

> <version>
0

> <s_m_source_file>
/data/baiqing/PycharmProjects/Reinvent-master-3.2/result/LINK_invent/BTK/process_docking_weight1_custom_sum_contain_oxygen_bond_distance_aromatic_linkinvent_7_9_3/rearranged_h_0034.sdf

> <i_m_source_file_index>
44

> <r_mmod_Potential_Energy-OPLS-2005>
1401.82568359375

> <r_mmod_Stretch_Energy-OPLS-2005>
653.824157714844

> <r_mmod_Bend_Energy-OPLS-2005>
452.196197509766

> <r_mmod_Torsional_Energy-OPLS-2005>
237.840133666992

> <r_mmod_Improper_Torsional_Energy-OPLS-2005>
6.29078149795532

> <r_mmod_Van_der_Waal_Energy-OPLS-2005>
127.347465515137

> <r_mmod_Electrostatic_Energy-OPLS-2005>
-396.099700927734

> <r_mmod_Solvation_Energy-OPLS-2005>
-212.266265869141

> <b_mmod_Minimization_Converged-OPLS-2005>
0

> <r_mmod_RMS_Derivative-OPLS-2005>
1.73445820808411

$$$$
45
                    3D
 Structure written by MMmdl.
153161  0  0  1  0            999 V2000
  -30.5473  -14.8922   20.4152 C   0  0  0  0  0  0
  -30.4256  -12.5461   19.5056 C   0  0  0  0  0  0
  -29.5149  -12.5017   18.2600 C   0  0  0  0  0  0
  -28.0442  -12.2945   18.6719 C   0  0  0  0  0  0
  -27.6178  -13.2415   19.8270 C   0  0  2  0  0  0
  -28.6551  -13.2520   20.9675 C   0  0  0  0  0  0
  -25.2358  -13.8220   20.5662 C   0  0  0  0  0  0
  -24.1676  -13.0417   20.9225 C   0  0  0  0  0  0
  -24.6290  -11.6913   20.8738 C   0  0  0  0  0  0
  -23.8991  -10.4275   21.0383 C   0  0  0  0  0  0
  -24.3556   -9.4218   21.9160 C   0  0  0  0  0  0
  -23.6267   -8.2243   22.0743 C   0  0  0  0  0  0
  -22.4260   -8.0252   21.3537 C   0  0  0  0  0  0
  -21.9864   -9.0205   20.4635 C   0  0  0  0  0  0
  -22.7162  -10.2101   20.3043 C   0  0  0  0  0  0
  -21.6860   -6.0693   22.5265 C   0  0  0  0  0  0
  -21.4011   -6.5599   23.8187 C   0  0  0  0  0  0
  -21.3680   -5.6771   24.9158 C   0  0  0  0  0  0
  -21.6066   -4.3029   24.7214 C   0  0  0  0  0  0
  -21.8822   -3.8107   23.4330 C   0  0  0  0  0  0
  -21.9178   -4.6916   22.3389 C   0  0  0  0  0  0
  -22.7692  -13.5199   21.1892 C   0  0  0  0  0  0
  -22.1645   -4.2103   21.0964 F   0  0  0  0  0  0
  -21.5647   -3.4518   25.7724 F   0  0  0  0  0  0
  -29.9364  -13.6464   20.3750 N   0  0  0  0  0  0
  -26.2776  -12.9437   20.3183 N   0  0  0  0  0  0
  -25.9210  -11.6581   20.5687 N   0  0  0  0  0  0
  -22.0353  -12.8212   22.0487 N   0  0  0  0  0  0
  -25.4015  -15.1935   20.4028 N   0  0  0  0  0  0
  -31.7556  -14.9442   20.1657 O   0  0  0  0  0  0
  -21.6651   -6.8825   21.4231 O   0  0  0  0  0  0
  -22.3373  -14.5493   20.6700 O   0  0  0  0  0  0
  -24.6394  -31.8470   23.1931 C   0  0  0  0  0  0
  -25.9203  -32.4709   23.8280 C   0  0  1  0  0  0
  -27.2109  -27.1973   20.1187 C   0  0  0  0  0  0
  -25.5982  -33.8509   24.2215 N   0  0  0  0  0  0
  -23.4351  -30.4677   21.5331 C   0  0  2  0  0  0
  -24.8782  -28.9032   20.1043 C   0  0  0  0  0  0
  -22.7529  -29.4557   22.4853 C   0  0  0  0  0  0
  -18.0305  -28.1380   22.8472 C   0  0  0  0  0  0
  -24.1478  -36.7189   23.2647 C   0  0  0  0  0  0
  -25.9879  -30.7408   21.3793 C   0  0  0  0  0  0
  -26.0551  -29.3614   20.7090 C   0  0  0  0  0  0
  -27.2229  -28.5239   20.6933 C   0  0  0  0  0  0
  -26.0006  -26.8091   19.5071 C   0  0  0  0  0  0
  -24.8593  -27.6385   19.4947 C   0  0  0  0  0  0
  -23.6538  -29.7996   20.1507 C   0  0  0  0  0  0
  -25.4117  -36.3006   24.0330 C   0  0  1  0  0  0
  -20.5909  -28.3673   23.1242 C   0  0  2  0  0  0
  -20.6763  -26.9384   22.5372 C   0  0  0  0  0  0
  -19.5753  -26.6363   21.5161 C   0  0  0  0  0  0
  -18.1940  -26.7946   22.1584 C   0  0  0  0  0  0
  -19.1561  -28.8837   23.2867 C   0  0  0  0  0  0
  -18.9501  -30.1442   23.8900 C   0  0  0  0  0  0
  -17.6495  -30.6599   24.0549 C   0  0  0  0  0  0
  -25.9071  -34.9401   23.5062 C   0  0  0  0  0  0
  -16.5372  -29.9070   23.6376 C   0  0  0  0  0  0
  -16.7286  -28.6472   23.0409 C   0  0  0  0  0  0
  -26.4568  -31.6607   25.0728 C   0  0  0  0  0  0
  -25.3799  -31.3750   26.1459 C   0  0  0  0  0  0
  -27.0474  -30.3039   24.6273 C   0  0  0  0  0  0
  -27.6098  -32.4391   25.7498 C   0  0  0  0  0  0
  -27.5570  -37.1736   24.8492 C   0  0  0  0  0  0
  -21.4218  -29.3026   22.3620 N   0  0  0  0  0  0
  -26.4265  -37.3730   23.9444 N   0  0  0  0  0  0
  -24.7069  -31.0390   22.0907 N   0  0  0  0  0  0
  -23.4211  -28.8122   23.2992 O   0  0  0  0  0  0
  -28.3083  -26.2884   20.1908 O   0  0  0  0  0  0
  -26.5610  -34.8905   22.4611 O   0  0  0  0  0  0
  -23.5525  -32.1293   23.7205 O   0  0  0  0  0  0
  -28.2643  -19.4137   20.6940 C   0  0  0  0  0  0
  -27.8195  -20.8011   20.7164 C   0  0  0  0  0  0
  -30.4085  -20.1747   20.0642 C   0  0  0  0  0  0
  -29.6054  -19.0240   20.3709 C   0  0  0  0  0  0
  -28.6380  -21.9535   20.4183 C   0  0  0  0  0  0
  -29.9728  -21.5563   20.0803 C   0  0  0  0  0  0
  -28.3192  -23.8913   22.1248 C   0  0  0  0  0  0
  -30.3234  -17.5434   20.3657 C   0  0  0  0  0  0
  -28.3552  -24.8259   19.7125 C   0  0  0  0  0  0
  -28.0911  -23.4906   20.6581 C   0  0  1  0  0  0
  -29.7883  -16.0852   20.5086 N   0  0  0  0  0  0
  -31.1612  -22.7566   19.7211 Cl  0  0  0  0  0  0
  -31.4601  -12.6951   19.1998 H   0  0  0  0  0  0
  -30.4084  -11.5956   20.0413 H   0  0  0  0  0  0
  -29.8354  -11.7073   17.5852 H   0  0  0  0  0  0
  -29.6149  -13.4363   17.7064 H   0  0  0  0  0  0
  -27.9438  -11.2568   18.9936 H   0  0  0  0  0  0
  -27.3873  -12.4048   17.8087 H   0  0  0  0  0  0
  -27.5803  -14.2439   19.3983 H   0  0  0  0  0  0
  -28.7232  -12.2682   21.4340 H   0  0  0  0  0  0
  -28.3571  -13.9522   21.7511 H   0  0  0  0  0  0
  -25.2673   -9.5727   22.4729 H   0  0  0  0  0  0
  -23.9977   -7.4647   22.7457 H   0  0  0  0  0  0
  -21.0800   -8.8682   19.8934 H   0  0  0  0  0  0
  -22.3578  -10.9613   19.6147 H   0  0  0  0  0  0
  -21.2020   -7.6106   23.9680 H   0  0  0  0  0  0
  -21.1521   -6.0497   25.9069 H   0  0  0  0  0  0
  -22.0589   -2.7569   23.2844 H   0  0  0  0  0  0
  -22.3969  -11.9889   22.4914 H   0  0  0  0  0  0
  -21.0961  -13.1223   22.2645 H   0  0  0  0  0  0
  -24.6289  -15.8437   20.4979 H   0  0  0  0  0  0
  -26.2375  -15.6289   20.0342 H   0  0  0  0  0  0
  -26.7269  -32.5317   23.0996 H   0  0  0  0  0  0
  -25.0258  -33.9646   25.0444 H   0  0  0  0  0  0
  -22.7368  -31.2938   21.3809 H   0  0  0  0  0  0
  -23.3769  -35.9493   23.3306 H   0  0  0  0  0  0
  -24.3554  -36.8805   22.2063 H   0  0  0  0  0  0
  -23.7205  -37.6364   23.6675 H   0  0  0  0  0  0
  -26.1546  -31.5092   20.6227 H   0  0  0  0  0  0
  -26.8552  -30.7701   22.0262 H   0  0  0  0  0  0
  -28.1306  -28.8760   21.1612 H   0  0  0  0  0  0
  -25.9041  -25.8294   19.0677 H   0  0  0  0  0  0
  -23.9507  -27.2722   19.0358 H   0  0  0  0  0  0
  -23.7917  -30.5741   19.3954 H   0  0  0  0  0  0
  -22.7699  -29.2374   19.8427 H   0  0  0  0  0  0
  -25.1300  -36.1796   25.0817 H   0  0  0  0  0  0
  -21.0036  -28.3210   24.1349 H   0  0  0  0  0  0
  -20.5591  -26.2265   23.3563 H   0  0  0  0  0  0
  -21.6641  -26.7362   22.1215 H   0  0  0  0  0  0
  -19.6894  -25.6260   21.1224 H   0  0  0  0  0  0
  -19.6740  -27.3143   20.6677 H   0  0  0  0  0  0
  -17.4214  -26.6731   21.3984 H   0  0  0  0  0  0
  -18.0347  -26.0079   22.8975 H   0  0  0  0  0  0
  -19.7963  -30.7244   24.2302 H   0  0  0  0  0  0
  -17.5052  -31.6307   24.5077 H   0  0  0  0  0  0
  -15.5381  -30.2958   23.7706 H   0  0  0  0  0  0
  -15.8697  -28.0751   22.7194 H   0  0  0  0  0  0
  -24.5984  -30.7088   25.7786 H   0  0  0  0  0  0
  -24.8998  -32.2928   26.4879 H   0  0  0  0  0  0
  -25.8157  -30.8943   27.0241 H   0  0  0  0  0  0
  -26.3111  -29.6713   24.1325 H   0  0  0  0  0  0
  -27.4194  -29.7376   25.4815 H   0  0  0  0  0  0
  -27.8953  -30.4304   23.9541 H   0  0  0  0  0  0
  -27.2704  -33.3723   26.1992 H   0  0  0  0  0  0
  -28.3965  -32.6909   25.0378 H   0  0  0  0  0  0
  -28.0727  -31.8591   26.5486 H   0  0  0  0  0  0
  -28.2580  -38.0036   24.7573 H   0  0  0  0  0  0
  -28.1077  -36.2577   24.6288 H   0  0  0  0  0  0
  -27.2305  -37.1359   25.8897 H   0  0  0  0  0  0
  -20.9383  -29.8734   21.6838 H   0  0  0  0  0  0
  -26.0118  -38.2770   24.1517 H   0  0  0  0  0  0
  -27.5484  -18.6477   20.9627 H   0  0  0  0  0  0
  -26.7941  -20.9767   21.0134 H   0  0  0  0  0  0
  -31.4492  -20.0061   19.8151 H   0  0  0  0  0  0
  -27.8715  -23.1793   22.8193 H   0  0  0  0  0  0
  -27.8465  -24.8548   22.3253 H   0  0  0  0  0  0
  -29.3793  -23.9792   22.3599 H   0  0  0  0  0  0
  -31.0900  -17.6291   21.1356 H   0  0  0  0  0  0
  -30.8862  -17.5317   19.4319 H   0  0  0  0  0  0
  -27.7646  -24.7188   18.8010 H   0  0  0  0  0  0
  -29.3763  -24.7434   19.3443 H   0  0  0  0  0  0
  -27.0090  -23.3693   20.5811 H   0  0  0  0  0  0
  -28.7901  -15.9756   20.6066 H   0  0  0  0  0  0
  1 25  1  0  0  0
  1 30  2  0  0  0
  1 81  1  0  0  0
  2  3  1  0  0  0
  2 25  1  0  0  0
  2 83  1  0  0  0
  2 84  1  0  0  0
  3  4  1  0  0  0
  3 85  1  0  0  0
  3 86  1  0  0  0
  4  5  1  0  0  0
  4 87  1  0  0  0
  4 88  1  0  0  0
  5  6  1  0  0  0
  5 26  1  0  0  0
  5 89  1  0  0  0
  6 25  1  0  0  0
  6 90  1  0  0  0
  6 91  1  0  0  0
  7  8  2  0  0  0
  7 26  1  0  0  0
  7 29  1  0  0  0
  8  9  1  0  0  0
  8 22  1  0  0  0
  9 10  1  0  0  0
  9 27  2  0  0  0
 10 11  2  0  0  0
 10 15  1  0  0  0
 11 12  1  0  0  0
 11 92  1  0  0  0
 12 13  2  0  0  0
 12 93  1  0  0  0
 13 14  1  0  0  0
 13 31  1  0  0  0
 14 15  2  0  0  0
 14 94  1  0  0  0
 15 95  1  0  0  0
 16 17  2  0  0  0
 16 21  1  0  0  0
 16 31  1  0  0  0
 17 18  1  0  0  0
 17 96  1  0  0  0
 18 19  2  0  0  0
 18 97  1  0  0  0
 19 20  1  0  0  0
 19 24  1  0  0  0
 20 21  2  0  0  0
 20 98  1  0  0  0
 21 23  1  0  0  0
 22 28  1  0  0  0
 22 32  2  0  0  0
 26 27  1  0  0  0
 28 99  1  0  0  0
 28100  1  0  0  0
 29101  1  0  0  0
 29102  1  0  0  0
 33 34  1  0  0  0
 33 66  1  0  0  0
 33 70  2  0  0  0
 34 36  1  0  0  0
 34 59  1  0  0  0
 34103  1  0  0  0
 35 44  2  0  0  0
 35 45  1  0  0  0
 35 68  1  0  0  0
 36 56  1  0  0  0
 36104  1  0  0  0
 37 39  1  0  0  0
 37 47  1  0  0  0
 37 66  1  0  0  0
 37105  1  0  0  0
 38 43  2  0  0  0
 38 46  1  0  0  0
 38 47  1  0  0  0
 39 64  1  0  0  0
 39 67  2  0  0  0
 40 52  1  0  0  0
 40 53  2  0  0  0
 40 58  1  0  0  0
 41106  1  0  0  0
 41107  1  0  0  0
 41108  1  0  0  0
 41 48  1  0  0  0
 42 43  1  0  0  0
 42 66  1  0  0  0
 42109  1  0  0  0
 42110  1  0  0  0
 43 44  1  0  0  0
 44111  1  0  0  0
 45 46  2  0  0  0
 45112  1  0  0  0
 46113  1  0  0  0
 47114  1  0  0  0
 47115  1  0  0  0
 48 56  1  0  0  0
 48 65  1  0  0  0
 48116  1  0  0  0
 49 50  1  0  0  0
 49 53  1  0  0  0
 49 64  1  0  0  0
 49117  1  0  0  0
 50 51  1  0  0  0
 50118  1  0  0  0
 50119  1  0  0  0
 51 52  1  0  0  0
 51120  1  0  0  0
 51121  1  0  0  0
 52122  1  0  0  0
 52123  1  0  0  0
 53 54  1  0  0  0
 54 55  2  0  0  0
 54124  1  0  0  0
 55 57  1  0  0  0
 55125  1  0  0  0
 56 69  2  0  0  0
 57 58  2  0  0  0
 57126  1  0  0  0
 58127  1  0  0  0
 59 60  1  0  0  0
 59 61  1  0  0  0
 59 62  1  0  0  0
 60128  1  0  0  0
 60129  1  0  0  0
 60130  1  0  0  0
 61131  1  0  0  0
 61132  1  0  0  0
 61133  1  0  0  0
 62134  1  0  0  0
 62135  1  0  0  0
 62136  1  0  0  0
 63 65  1  0  0  0
 63137  1  0  0  0
 63138  1  0  0  0
 63139  1  0  0  0
 64140  1  0  0  0
 65141  1  0  0  0
 68 79  1  0  0  0
 71 72  2  0  0  0
 71 74  1  0  0  0
 71142  1  0  0  0
 72 75  1  0  0  0
 72143  1  0  0  0
 73 74  2  0  0  0
 73 76  1  0  0  0
 73144  1  0  0  0
 74 78  1  0  0  0
 75 76  2  0  0  0
 75 80  1  0  0  0
 76 82  1  0  0  0
 77145  1  0  0  0
 77146  1  0  0  0
 77147  1  0  0  0
 77 80  1  0  0  0
 78 81  1  0  0  0
 78148  1  0  0  0
 78149  1  0  0  0
 79 80  1  0  0  0
 79150  1  0  0  0
 79151  1  0  0  0
 80152  1  0  0  0
 81153  1  0  0  0
M  ISO  4   1 100  68 101  79 101  81 100
M  END
> <chiral flag>
0

> <version>
0

> <s_m_source_file>
/data/baiqing/PycharmProjects/Reinvent-master-3.2/result/LINK_invent/BTK/process_docking_weight1_custom_sum_contain_oxygen_bond_distance_aromatic_linkinvent_7_9_3/rearranged_h_0034.sdf

> <i_m_source_file_index>
45

> <r_mmod_Potential_Energy-OPLS-2005>
353.258178710938

> <r_mmod_Stretch_Energy-OPLS-2005>
195.482330322266

> <r_mmod_Bend_Energy-OPLS-2005>
272.170043945312

> <r_mmod_Torsional_Energy-OPLS-2005>
206.078033447266

> <r_mmod_Improper_Torsional_Energy-OPLS-2005>
5.9529185295105

> <r_mmod_Van_der_Waal_Energy-OPLS-2005>
128.288223266602

> <r_mmod_Electrostatic_Energy-OPLS-2005>
-397.753601074219

> <r_mmod_Solvation_Energy-OPLS-2005>
-206.113174438477

> <b_mmod_Minimization_Converged-OPLS-2005>
0

> <r_mmod_RMS_Derivative-OPLS-2005>
4.76757287979126

$$$$
46
                    3D
 Structure written by MMmdl.
161169  0  0  1  0            999 V2000
  -30.6919  -14.5041   20.5328 C   0  0  0  0  0  0
  -30.4219  -12.3118   19.4409 C   0  0  0  0  0  0
  -29.4999  -12.4953   18.2165 C   0  0  0  0  0  0
  -28.0204  -12.3587   18.6254 C   0  0  0  0  0  0
  -27.6604  -13.2106   19.8730 C   0  0  2  0  0  0
  -28.7024  -13.0209   21.0008 C   0  0  0  0  0  0
  -25.2582  -13.8174   20.5690 C   0  0  0  0  0  0
  -24.1836  -13.0447   20.9188 C   0  0  0  0  0  0
  -24.6389  -11.6913   20.8734 C   0  0  0  0  0  0
  -23.9055  -10.4296   21.0400 C   0  0  0  0  0  0
  -24.3608   -9.4212   21.9180 C   0  0  0  0  0  0
  -23.6288   -8.2247   22.0751 C   0  0  0  0  0  0
  -22.4273   -8.0280   21.3539 C   0  0  0  0  0  0
  -21.9900   -9.0253   20.4644 C   0  0  0  0  0  0
  -22.7224  -10.2135   20.3052 C   0  0  0  0  0  0
  -21.6852   -6.0730   22.5278 C   0  0  0  0  0  0
  -21.4014   -6.5634   23.8209 C   0  0  0  0  0  0
  -21.3662   -5.6789   24.9173 C   0  0  0  0  0  0
  -21.6047   -4.3050   24.7224 C   0  0  0  0  0  0
  -21.8820   -3.8140   23.4345 C   0  0  0  0  0  0
  -21.9193   -4.6959   22.3402 C   0  0  0  0  0  0
  -22.7857  -13.5242   21.1844 C   0  0  0  0  0  0
  -22.1661   -4.2140   21.0979 F   0  0  0  0  0  0
  -21.5628   -3.4537   25.7737 F   0  0  0  0  0  0
  -30.0330  -13.3154   20.4459 N   0  0  0  0  0  0
  -26.3017  -12.9345   20.3360 N   0  0  0  0  0  0
  -25.9316  -11.6504   20.5767 N   0  0  0  0  0  0
  -22.0490  -12.8246   22.0406 N   0  0  0  0  0  0
  -25.4311  -15.1891   20.4090 N   0  0  0  0  0  0
  -31.8309  -14.6673   20.0885 O   0  0  0  0  0  0
  -21.6638   -6.8873   21.4239 O   0  0  0  0  0  0
  -22.3543  -14.5544   20.6681 O   0  0  0  0  0  0
  -24.6178  -31.8669   23.2097 C   0  0  0  0  0  0
  -25.9062  -32.4818   23.8394 C   0  0  1  0  0  0
  -27.2246  -27.4021   20.1030 C   0  0  0  0  0  0
  -25.5908  -33.8618   24.2320 N   0  0  0  0  0  0
  -23.4063  -30.4923   21.5513 C   0  0  2  0  0  0
  -24.8517  -28.9623   20.1095 C   0  0  0  0  0  0
  -22.7427  -29.4652   22.4977 C   0  0  0  0  0  0
  -18.0276  -28.1375   22.8492 C   0  0  0  0  0  0
  -24.1487  -36.7312   23.2637 C   0  0  0  0  0  0
  -25.9400  -30.8234   21.3684 C   0  0  0  0  0  0
  -26.0161  -29.4587   20.7097 C   0  0  0  0  0  0
  -27.2064  -28.6880   20.7005 C   0  0  0  0  0  0
  -26.0424  -26.9435   19.4735 C   0  0  0  0  0  0
  -24.8622  -27.7058   19.4853 C   0  0  0  0  0  0
  -23.6150  -29.8308   20.1639 C   0  0  0  0  0  0
  -25.4110  -36.3109   24.0334 C   0  0  1  0  0  0
  -20.5871  -28.3664   23.1311 C   0  0  2  0  0  0
  -20.6768  -26.9399   22.5414 C   0  0  0  0  0  0
  -19.5746  -26.6384   21.5211 C   0  0  0  0  0  0
  -18.1924  -26.7922   22.1624 C   0  0  0  0  0  0
  -19.1527  -28.8836   23.2897 C   0  0  0  0  0  0
  -18.9454  -30.1443   23.8906 C   0  0  0  0  0  0
  -17.6456  -30.6582   24.0563 C   0  0  0  0  0  0
  -25.9039  -34.9474   23.5124 C   0  0  0  0  0  0
  -16.5346  -29.9082   23.6329 C   0  0  0  0  0  0
  -16.7264  -28.6498   23.0350 C   0  0  0  0  0  0
  -26.4478  -31.6604   25.0731 C   0  0  0  0  0  0
  -25.3739  -31.3719   26.1476 C   0  0  0  0  0  0
  -27.0309  -30.3042   24.6124 C   0  0  0  0  0  0
  -27.6048  -32.4327   25.7495 C   0  0  0  0  0  0
  -27.5580  -37.1812   24.8466 C   0  0  0  0  0  0
  -21.4151  -29.3033   22.3720 N   0  0  0  0  0  0
  -26.4295  -37.3794   23.9408 N   0  0  0  0  0  0
  -24.6732  -31.0750   22.1011 N   0  0  0  0  0  0
  -23.4192  -28.8192   23.3020 O   0  0  0  0  0  0
  -28.3596  -26.6029   20.1632 O   0  0  0  0  0  0
  -26.5600  -34.8928   22.4685 O   0  0  0  0  0  0
  -23.5364  -32.1428   23.7478 O   0  0  0  0  0  0
  -27.6835  -22.9214   22.4362 C   0  0  0  0  0  0
  -27.0852  -21.7100   22.8099 C   0  0  0  0  0  0
  -27.4852  -20.5220   22.1508 C   0  0  0  0  0  0
  -28.6486  -22.9406   21.4188 C   0  0  0  0  0  0
  -28.5525  -20.5888   21.2104 C   0  0  0  0  0  0
  -26.0128  -21.7251   23.8871 C   0  0  0  0  0  0
  -26.7346  -19.2252   22.4346 C   0  0  0  0  0  0
  -29.1854  -24.3055   20.9415 C   0  0  0  0  0  0
  -29.1253  -19.3509   20.4711 C   0  0  0  0  0  0
  -29.4082  -18.0363   21.2793 C   0  0  0  0  0  0
  -30.2154  -16.9598   20.4979 C   0  0  0  0  0  0
  -28.1149  -25.1692   20.2114 C   0  0  0  0  0  0
  -29.0920  -21.7893   20.8422 N   0  0  0  0  0  0
  -29.9488  -15.5644   20.9165 N   0  0  0  0  0  0
  -31.4680  -12.4012   19.1428 H   0  0  0  0  0  0
  -30.3164  -11.3076   19.8536 H   0  0  0  0  0  0
  -29.7435  -11.7593   17.4487 H   0  0  0  0  0  0
  -29.6720  -13.4743   17.7669 H   0  0  0  0  0  0
  -27.8338  -11.3045   18.8325 H   0  0  0  0  0  0
  -27.3718  -12.6218   17.7887 H   0  0  0  0  0  0
  -27.6960  -14.2537   19.5588 H   0  0  0  0  0  0
  -28.6788  -11.9966   21.3753 H   0  0  0  0  0  0
  -28.4667  -13.6543   21.8575 H   0  0  0  0  0  0
  -25.2750   -9.5693   22.4756 H   0  0  0  0  0  0
  -23.9994   -7.4640   22.7469 H   0  0  0  0  0  0
  -21.0830   -8.8771   19.8951 H   0  0  0  0  0  0
  -22.3679  -10.9674   19.6162 H   0  0  0  0  0  0
  -21.2010   -7.6141   23.9712 H   0  0  0  0  0  0
  -21.1484   -6.0516   25.9077 H   0  0  0  0  0  0
  -22.0599   -2.7602   23.2849 H   0  0  0  0  0  0
  -22.4089  -11.9909   22.4811 H   0  0  0  0  0  0
  -21.1109  -13.1279   22.2595 H   0  0  0  0  0  0
  -24.6634  -15.8440   20.5110 H   0  0  0  0  0  0
  -26.2798  -15.6242   20.0708 H   0  0  0  0  0  0
  -26.7133  -32.5517   23.1154 H   0  0  0  0  0  0
  -25.0069  -33.9782   25.0471 H   0  0  0  0  0  0
  -22.6957  -31.3102   21.4148 H   0  0  0  0  0  0
  -23.3746  -35.9649   23.3313 H   0  0  0  0  0  0
  -24.3577  -36.8913   22.2048 H   0  0  0  0  0  0
  -23.7245  -37.6524   23.6643 H   0  0  0  0  0  0
  -26.0594  -31.5914   20.6028 H   0  0  0  0  0  0
  -26.8257  -30.8720   21.9900 H   0  0  0  0  0  0
  -28.1001  -29.0615   21.1807 H   0  0  0  0  0  0
  -26.0087  -25.9854   18.9758 H   0  0  0  0  0  0
  -23.9699  -27.3197   19.0115 H   0  0  0  0  0  0
  -23.7235  -30.6090   19.4076 H   0  0  0  0  0  0
  -22.7378  -29.2533   19.8662 H   0  0  0  0  0  0
  -25.1288  -36.1972   25.0827 H   0  0  0  0  0  0
  -20.9960  -28.3227   24.1432 H   0  0  0  0  0  0
  -20.5671  -26.2270   23.3599 H   0  0  0  0  0  0
  -21.6639  -26.7442   22.1206 H   0  0  0  0  0  0
  -19.6908  -25.6300   21.1227 H   0  0  0  0  0  0
  -19.6686  -27.3205   20.6749 H   0  0  0  0  0  0
  -17.4195  -26.6669   21.4025 H   0  0  0  0  0  0
  -18.0327  -26.0059   22.9015 H   0  0  0  0  0  0
  -19.7931  -30.7257   24.2277 H   0  0  0  0  0  0
  -17.5013  -31.6267   24.5157 H   0  0  0  0  0  0
  -15.5348  -30.2988   23.7651 H   0  0  0  0  0  0
  -15.8663  -28.0823   22.7060 H   0  0  0  0  0  0
  -24.5906  -30.7072   25.7814 H   0  0  0  0  0  0
  -24.8939  -32.2880   26.4928 H   0  0  0  0  0  0
  -25.8089  -30.8884   27.0231 H   0  0  0  0  0  0
  -26.2860  -29.6808   24.1162 H   0  0  0  0  0  0
  -27.4053  -29.7275   25.4591 H   0  0  0  0  0  0
  -27.8709  -30.4355   23.9299 H   0  0  0  0  0  0
  -27.2659  -33.3613   26.2100 H   0  0  0  0  0  0
  -28.3843  -32.6910   25.0316 H   0  0  0  0  0  0
  -28.0731  -31.8437   26.5388 H   0  0  0  0  0  0
  -28.2610  -38.0097   24.7506 H   0  0  0  0  0  0
  -28.1064  -36.2630   24.6302 H   0  0  0  0  0  0
  -27.2299  -37.1477   25.8870 H   0  0  0  0  0  0
  -20.9309  -29.8763   21.6952 H   0  0  0  0  0  0
  -26.0184  -38.2874   24.1400 H   0  0  0  0  0  0
  -27.3717  -23.8482   22.8992 H   0  0  0  0  0  0
  -26.0062  -22.6729   24.4260 H   0  0  0  0  0  0
  -26.1834  -20.9360   24.6200 H   0  0  0  0  0  0
  -25.0249  -21.5861   23.4479 H   0  0  0  0  0  0
  -27.2668  -18.6206   23.1696 H   0  0  0  0  0  0
  -26.5942  -18.6514   21.5189 H   0  0  0  0  0  0
  -25.7303  -19.3958   22.8196 H   0  0  0  0  0  0
  -30.0608  -24.1713   20.3059 H   0  0  0  0  0  0
  -29.5314  -24.8435   21.8241 H   0  0  0  0  0  0
  -30.0592  -19.6546   19.9961 H   0  0  0  0  0  0
  -28.4477  -19.1193   19.6489 H   0  0  0  0  0  0
  -28.4749  -17.5740   21.5803 H   0  0  0  0  0  0
  -29.9400  -18.2819   22.1989 H   0  0  0  0  0  0
  -31.2817  -17.1859   20.5625 H   0  0  0  0  0  0
  -29.9595  -17.0209   19.4386 H   0  0  0  0  0  0
  -27.1775  -25.0020   20.7451 H   0  0  0  0  0  0
  -27.9676  -24.7813   19.2026 H   0  0  0  0  0  0
  -29.0275  -15.3557   21.2711 H   0  0  0  0  0  0
  1 25  1  0  0  0
  1 30  2  0  0  0
  1 84  1  0  0  0
  2  3  1  0  0  0
  2 25  1  0  0  0
  2 85  1  0  0  0
  2 86  1  0  0  0
  3  4  1  0  0  0
  3 87  1  0  0  0
  3 88  1  0  0  0
  4  5  1  0  0  0
  4 89  1  0  0  0
  4 90  1  0  0  0
  5  6  1  0  0  0
  5 26  1  0  0  0
  5 91  1  0  0  0
  6 25  1  0  0  0
  6 92  1  0  0  0
  6 93  1  0  0  0
  7  8  2  0  0  0
  7 26  1  0  0  0
  7 29  1  0  0  0
  8  9  1  0  0  0
  8 22  1  0  0  0
  9 10  1  0  0  0
  9 27  2  0  0  0
 10 11  2  0  0  0
 10 15  1  0  0  0
 11 12  1  0  0  0
 11 94  1  0  0  0
 12 13  2  0  0  0
 12 95  1  0  0  0
 13 14  1  0  0  0
 13 31  1  0  0  0
 14 15  2  0  0  0
 14 96  1  0  0  0
 15 97  1  0  0  0
 16 17  2  0  0  0
 16 21  1  0  0  0
 16 31  1  0  0  0
 17 18  1  0  0  0
 17 98  1  0  0  0
 18 19  2  0  0  0
 18 99  1  0  0  0
 19 20  1  0  0  0
 19 24  1  0  0  0
 20 21  2  0  0  0
 20100  1  0  0  0
 21 23  1  0  0  0
 22 28  1  0  0  0
 22 32  2  0  0  0
 26 27  1  0  0  0
 28101  1  0  0  0
 28102  1  0  0  0
 29103  1  0  0  0
 29104  1  0  0  0
 33 34  1  0  0  0
 33 66  1  0  0  0
 33 70  2  0  0  0
 34 36  1  0  0  0
 34 59  1  0  0  0
 34105  1  0  0  0
 35 44  2  0  0  0
 35 45  1  0  0  0
 35 68  1  0  0  0
 36 56  1  0  0  0
 36106  1  0  0  0
 37 39  1  0  0  0
 37 47  1  0  0  0
 37 66  1  0  0  0
 37107  1  0  0  0
 38 43  2  0  0  0
 38 46  1  0  0  0
 38 47  1  0  0  0
 39 64  1  0  0  0
 39 67  2  0  0  0
 40 52  1  0  0  0
 40 53  2  0  0  0
 40 58  1  0  0  0
 41108  1  0  0  0
 41109  1  0  0  0
 41110  1  0  0  0
 41 48  1  0  0  0
 42 43  1  0  0  0
 42 66  1  0  0  0
 42111  1  0  0  0
 42112  1  0  0  0
 43 44  1  0  0  0
 44113  1  0  0  0
 45 46  2  0  0  0
 45114  1  0  0  0
 46115  1  0  0  0
 47116  1  0  0  0
 47117  1  0  0  0
 48 56  1  0  0  0
 48 65  1  0  0  0
 48118  1  0  0  0
 49 50  1  0  0  0
 49 53  1  0  0  0
 49 64  1  0  0  0
 49119  1  0  0  0
 50 51  1  0  0  0
 50120  1  0  0  0
 50121  1  0  0  0
 51 52  1  0  0  0
 51122  1  0  0  0
 51123  1  0  0  0
 52124  1  0  0  0
 52125  1  0  0  0
 53 54  1  0  0  0
 54 55  2  0  0  0
 54126  1  0  0  0
 55 57  1  0  0  0
 55127  1  0  0  0
 56 69  2  0  0  0
 57 58  2  0  0  0
 57128  1  0  0  0
 58129  1  0  0  0
 59 60  1  0  0  0
 59 61  1  0  0  0
 59 62  1  0  0  0
 60130  1  0  0  0
 60131  1  0  0  0
 60132  1  0  0  0
 61133  1  0  0  0
 61134  1  0  0  0
 61135  1  0  0  0
 62136  1  0  0  0
 62137  1  0  0  0
 62138  1  0  0  0
 63 65  1  0  0  0
 63139  1  0  0  0
 63140  1  0  0  0
 63141  1  0  0  0
 64142  1  0  0  0
 65143  1  0  0  0
 68 82  1  0  0  0
 71 72  2  0  0  0
 71 74  1  0  0  0
 71144  1  0  0  0
 72 73  1  0  0  0
 72 76  1  0  0  0
 73 75  2  0  0  0
 73 77  1  0  0  0
 74 78  1  0  0  0
 74 83  2  0  0  0
 75 79  1  0  0  0
 75 83  1  0  0  0
 76145  1  0  0  0
 76146  1  0  0  0
 76147  1  0  0  0
 77148  1  0  0  0
 77149  1  0  0  0
 77150  1  0  0  0
 78 82  1  0  0  0
 78151  1  0  0  0
 78152  1  0  0  0
 79 80  1  0  0  0
 79153  1  0  0  0
 79154  1  0  0  0
 80 81  1  0  0  0
 80155  1  0  0  0
 80156  1  0  0  0
 81 84  1  0  0  0
 81157  1  0  0  0
 81158  1  0  0  0
 82159  1  0  0  0
 82160  1  0  0  0
 84161  1  0  0  0
M  ISO  4   1 100  68 101  82 101  84 100
M  END
> <chiral flag>
0

> <version>
0

> <s_m_source_file>
/data/baiqing/PycharmProjects/Reinvent-master-3.2/result/LINK_invent/BTK/process_docking_weight1_custom_sum_contain_oxygen_bond_distance_aromatic_linkinvent_7_9_3/rearranged_h_0034.sdf

> <i_m_source_file_index>
46

> <r_mmod_Potential_Energy-OPLS-2005>
-195.509338378906

> <r_mmod_Stretch_Energy-OPLS-2005>
48.0213012695312

> <r_mmod_Bend_Energy-OPLS-2005>
103.03003692627

> <r_mmod_Torsional_Energy-OPLS-2005>
215.326675415039

> <r_mmod_Improper_Torsional_Energy-OPLS-2005>
6.45880126953125

> <r_mmod_Van_der_Waal_Energy-OPLS-2005>
164.071136474609

> <r_mmod_Electrostatic_Energy-OPLS-2005>
-526.652770996094

> <r_mmod_Solvation_Energy-OPLS-2005>
-226.1787109375

> <b_mmod_Minimization_Converged-OPLS-2005>
0

> <r_mmod_RMS_Derivative-OPLS-2005>
0.963917374610901

$$$$
47
                    3D
 Structure written by MMmdl.
180188  0  0  1  0            999 V2000
  -30.6553  -14.5569   20.4953 C   0  0  0  0  0  0
  -30.4271  -12.3406   19.4369 C   0  0  0  0  0  0
  -29.4955  -12.4894   18.2149 C   0  0  0  0  0  0
  -28.0163  -12.3487   18.6272 C   0  0  0  0  0  0
  -27.6524  -13.2109   19.8648 C   0  0  2  0  0  0
  -28.6978  -13.0436   20.9905 C   0  0  0  0  0  0
  -25.2544  -13.8180   20.5652 C   0  0  0  0  0  0
  -24.1802  -13.0438   20.9177 C   0  0  0  0  0  0
  -24.6366  -11.6915   20.8744 C   0  0  0  0  0  0
  -23.9049  -10.4291   21.0409 C   0  0  0  0  0  0
  -24.3600   -9.4205   21.9174 C   0  0  0  0  0  0
  -23.6276   -8.2239   22.0739 C   0  0  0  0  0  0
  -22.4271   -8.0270   21.3529 C   0  0  0  0  0  0
  -21.9902   -9.0250   20.4635 C   0  0  0  0  0  0
  -22.7224  -10.2127   20.3045 C   0  0  0  0  0  0
  -21.6850   -6.0723   22.5264 C   0  0  0  0  0  0
  -21.4017   -6.5626   23.8192 C   0  0  0  0  0  0
  -21.3654   -5.6781   24.9163 C   0  0  0  0  0  0
  -21.6052   -4.3046   24.7225 C   0  0  0  0  0  0
  -21.8824   -3.8134   23.4342 C   0  0  0  0  0  0
  -21.9194   -4.6948   22.3397 C   0  0  0  0  0  0
  -22.7830  -13.5225   21.1845 C   0  0  0  0  0  0
  -22.1658   -4.2122   21.0972 F   0  0  0  0  0  0
  -21.5636   -3.4527   25.7741 F   0  0  0  0  0  0
  -30.0176  -13.3537   20.4241 N   0  0  0  0  0  0
  -26.2962  -12.9347   20.3334 N   0  0  0  0  0  0
  -25.9294  -11.6507   20.5781 N   0  0  0  0  0  0
  -22.0486  -12.8207   22.0409 N   0  0  0  0  0  0
  -25.4299  -15.1895   20.4037 N   0  0  0  0  0  0
  -31.8221  -14.7076   20.1234 O   0  0  0  0  0  0
  -21.6631   -6.8864   21.4228 O   0  0  0  0  0  0
  -22.3508  -14.5509   20.6676 O   0  0  0  0  0  0
  -24.6168  -31.8644   23.2081 C   0  0  0  0  0  0
  -25.9030  -32.4810   23.8380 C   0  0  1  0  0  0
  -27.2207  -27.3778   20.0869 C   0  0  0  0  0  0
  -25.5849  -33.8613   24.2268 N   0  0  0  0  0  0
  -23.4060  -30.4865   21.5526 C   0  0  2  0  0  0
  -24.8476  -28.9461   20.1147 C   0  0  0  0  0  0
  -22.7408  -29.4618   22.4998 C   0  0  0  0  0  0
  -18.0262  -28.1375   22.8481 C   0  0  0  0  0  0
  -24.1496  -36.7343   23.2634 C   0  0  0  0  0  0
  -25.9411  -30.8083   21.3733 C   0  0  0  0  0  0
  -26.0131  -29.4403   20.7124 C   0  0  0  0  0  0
  -27.2014  -28.6655   20.6926 C   0  0  0  0  0  0
  -26.0329  -26.9113   19.4824 C   0  0  0  0  0  0
  -24.8546  -27.6837   19.4960 C   0  0  0  0  0  0
  -23.6138  -29.8214   20.1666 C   0  0  0  0  0  0
  -25.4124  -36.3109   24.0305 C   0  0  1  0  0  0
  -20.5852  -28.3637   23.1332 C   0  0  2  0  0  0
  -20.6769  -26.9380   22.5423 C   0  0  0  0  0  0
  -19.5756  -26.6385   21.5197 C   0  0  0  0  0  0
  -18.1922  -26.7910   22.1601 C   0  0  0  0  0  0
  -19.1515  -28.8830   23.2888 C   0  0  0  0  0  0
  -18.9455  -30.1444   23.8877 C   0  0  0  0  0  0
  -17.6454  -30.6575   24.0558 C   0  0  0  0  0  0
  -25.9049  -34.9467   23.5092 C   0  0  0  0  0  0
  -16.5349  -29.9075   23.6343 C   0  0  0  0  0  0
  -16.7256  -28.6500   23.0334 C   0  0  0  0  0  0
  -26.4425  -31.6634   25.0754 C   0  0  0  0  0  0
  -25.3657  -31.3778   26.1485 C   0  0  0  0  0  0
  -27.0251  -30.3054   24.6203 C   0  0  0  0  0  0
  -27.5978  -32.4392   25.7509 C   0  0  0  0  0  0
  -27.5605  -37.1818   24.8446 C   0  0  0  0  0  0
  -21.4133  -29.3010   22.3752 N   0  0  0  0  0  0
  -26.4307  -37.3795   23.9399 N   0  0  0  0  0  0
  -24.6731  -31.0687   22.1011 N   0  0  0  0  0  0
  -23.4165  -28.8153   23.3051 O   0  0  0  0  0  0
  -28.3947  -26.6338   20.0703 O   0  0  0  0  0  0
  -26.5660  -34.8924   22.4687 O   0  0  0  0  0  0
  -23.5360  -32.1424   23.7448 O   0  0  0  0  0  0
  -29.2786  -20.5600   22.7001 C   0  0  0  0  0  0
  -28.7147  -22.0523   20.8576 C   0  0  0  0  0  0
  -29.1241  -20.7578   21.3154 C   0  0  0  0  0  0
  -28.9594  -21.5679   23.6276 C   0  0  0  0  0  0
  -28.4034  -23.1064   21.7768 C   0  0  0  0  0  0
  -28.4528  -22.8175   23.1757 C   0  0  0  0  0  0
  -26.4246  -23.5944   24.4732 C   0  0  0  0  0  0
  -32.3257  -22.5743   29.0140 C   0  0  0  0  0  0
  -31.9618  -24.2770   27.2100 C   0  0  0  0  0  0
  -29.5290  -19.6066   20.3586 C   0  0  0  0  0  0
  -29.2329  -21.2889   25.1065 C   0  0  0  0  0  0
  -28.0230  -24.5612   21.3618 C   0  0  0  0  0  0
  -27.9169  -23.8244   24.2088 C   0  0  0  0  0  0
  -29.1301  -18.1254   20.7422 C   0  0  0  0  0  0
  -30.5746  -21.9155   25.5481 C   0  0  0  0  0  0
  -30.7556  -22.0210   27.0783 C   0  0  0  0  0  0
  -30.2594  -17.0539   20.5313 C   0  0  0  0  0  0
  -28.3678  -25.1745   19.9831 C   0  0  0  0  0  0
  -32.0381  -22.7710   27.5162 C   0  0  0  0  0  0
  -29.8749  -15.6346   20.7678 N   0  0  0  0  0  0
  -31.4671  -12.4595   19.1264 H   0  0  0  0  0  0
  -30.3569  -11.3405   19.8653 H   0  0  0  0  0  0
  -29.7439  -11.7455   17.4560 H   0  0  0  0  0  0
  -29.6534  -13.4647   17.7519 H   0  0  0  0  0  0
  -27.8307  -11.2959   18.8419 H   0  0  0  0  0  0
  -27.3685  -12.6053   17.7887 H   0  0  0  0  0  0
  -27.6792  -14.2481   19.5329 H   0  0  0  0  0  0
  -28.6886  -12.0224   21.3742 H   0  0  0  0  0  0
  -28.4627  -13.6859   21.8408 H   0  0  0  0  0  0
  -25.2752   -9.5671   22.4737 H   0  0  0  0  0  0
  -23.9984   -7.4631   22.7451 H   0  0  0  0  0  0
  -21.0834   -8.8770   19.8935 H   0  0  0  0  0  0
  -22.3690  -10.9665   19.6140 H   0  0  0  0  0  0
  -21.2005   -7.6127   23.9689 H   0  0  0  0  0  0
  -21.1474   -6.0510   25.9060 H   0  0  0  0  0  0
  -22.0615   -2.7589   23.2854 H   0  0  0  0  0  0
  -22.4124  -11.9879   22.4795 H   0  0  0  0  0  0
  -21.1090  -13.1203   22.2597 H   0  0  0  0  0  0
  -24.6710  -15.8550   20.5052 H   0  0  0  0  0  0
  -26.2839  -15.6186   20.0683 H   0  0  0  0  0  0
  -26.7084  -32.5496   23.1134 H   0  0  0  0  0  0
  -24.9884  -33.9768   25.0328 H   0  0  0  0  0  0
  -22.6977  -31.3058   21.4190 H   0  0  0  0  0  0
  -23.3735  -35.9694   23.3292 H   0  0  0  0  0  0
  -24.3557  -36.8999   22.2050 H   0  0  0  0  0  0
  -23.7281  -37.6546   23.6685 H   0  0  0  0  0  0
  -26.0696  -31.5814   20.6133 H   0  0  0  0  0  0
  -26.8194  -30.8494   22.0073 H   0  0  0  0  0  0
  -28.1026  -29.0426   21.1563 H   0  0  0  0  0  0
  -25.9955  -25.9605   18.9721 H   0  0  0  0  0  0
  -23.9610  -27.3055   19.0194 H   0  0  0  0  0  0
  -23.7174  -30.5991   19.4087 H   0  0  0  0  0  0
  -22.7326  -29.2470   19.8736 H   0  0  0  0  0  0
  -25.1306  -36.1961   25.0792 H   0  0  0  0  0  0
  -20.9938  -28.3216   24.1447 H   0  0  0  0  0  0
  -20.5699  -26.2237   23.3602 H   0  0  0  0  0  0
  -21.6643  -26.7451   22.1200 H   0  0  0  0  0  0
  -19.6933  -25.6288   21.1240 H   0  0  0  0  0  0
  -19.6718  -27.3189   20.6716 H   0  0  0  0  0  0
  -17.4202  -26.6638   21.4004 H   0  0  0  0  0  0
  -18.0318  -26.0055   22.9009 H   0  0  0  0  0  0
  -19.7949  -30.7257   24.2238 H   0  0  0  0  0  0
  -17.5020  -31.6254   24.5152 H   0  0  0  0  0  0
  -15.5338  -30.2954   23.7725 H   0  0  0  0  0  0
  -15.8651  -28.0842   22.7033 H   0  0  0  0  0  0
  -24.5792  -30.7171   25.7825 H   0  0  0  0  0  0
  -24.8869  -32.2946   26.4945 H   0  0  0  0  0  0
  -25.7962  -30.8938   27.0257 H   0  0  0  0  0  0
  -26.2825  -29.6856   24.1158 H   0  0  0  0  0  0
  -27.3852  -29.7285   25.4731 H   0  0  0  0  0  0
  -27.8747  -30.4341   23.9483 H   0  0  0  0  0  0
  -27.2552  -33.3679   26.2088 H   0  0  0  0  0  0
  -28.3758  -32.6981   25.0312 H   0  0  0  0  0  0
  -28.0656  -31.8527   26.5423 H   0  0  0  0  0  0
  -28.2586  -38.0163   24.7506 H   0  0  0  0  0  0
  -28.1136  -36.2668   24.6237 H   0  0  0  0  0  0
  -27.2303  -37.1431   25.8848 H   0  0  0  0  0  0
  -20.9311  -29.8757   21.6998 H   0  0  0  0  0  0
  -26.0199  -38.2879   24.1384 H   0  0  0  0  0  0
  -29.6607  -19.6181   23.0663 H   0  0  0  0  0  0
  -28.6572  -22.2430   19.7944 H   0  0  0  0  0  0
  -26.0388  -24.3250   25.1851 H   0  0  0  0  0  0
  -26.2462  -22.5994   24.8821 H   0  0  0  0  0  0
  -25.8404  -23.6867   23.5566 H   0  0  0  0  0  0
  -33.2581  -23.0624   29.3041 H   0  0  0  0  0  0
  -32.4196  -21.5205   29.2749 H   0  0  0  0  0  0
  -31.5343  -22.9982   29.6320 H   0  0  0  0  0  0
  -32.8527  -24.7990   27.5603 H   0  0  0  0  0  0
  -31.1021  -24.7333   27.7024 H   0  0  0  0  0  0
  -31.8739  -24.4774   26.1439 H   0  0  0  0  0  0
  -30.6130  -19.6599   20.2688 H   0  0  0  0  0  0
  -29.1498  -19.8278   19.3585 H   0  0  0  0  0  0
  -29.2551  -20.2127   25.2845 H   0  0  0  0  0  0
  -28.4040  -21.6504   25.7148 H   0  0  0  0  0  0
  -28.6093  -25.2052   22.0110 H   0  0  0  0  0  0
  -26.9755  -24.7434   21.6017 H   0  0  0  0  0  0
  -28.0446  -24.8613   23.9195 H   0  0  0  0  0  0
  -28.4750  -23.7766   25.1420 H   0  0  0  0  0  0
  -28.2529  -17.8486   20.1571 H   0  0  0  0  0  0
  -28.7974  -18.0648   21.7778 H   0  0  0  0  0  0
  -30.6448  -22.9136   25.1192 H   0  0  0  0  0  0
  -31.4005  -21.3536   25.1080 H   0  0  0  0  0  0
  -30.7630  -21.0138   27.4991 H   0  0  0  0  0  0
  -29.8891  -22.5204   27.5149 H   0  0  0  0  0  0
  -31.1046  -17.2906   21.1810 H   0  0  0  0  0  0
  -30.6353  -17.1437   19.5106 H   0  0  0  0  0  0
  -27.7336  -24.7807   19.1902 H   0  0  0  0  0  0
  -29.3798  -24.8686   19.7219 H   0  0  0  0  0  0
  -32.8863  -22.3532   26.9699 H   0  0  0  0  0  0
  -28.9200  -15.4459   21.0333 H   0  0  0  0  0  0
  1 25  1  0  0  0
  1 30  2  0  0  0
  1 90  1  0  0  0
  2  3  1  0  0  0
  2 25  1  0  0  0
  2 91  1  0  0  0
  2 92  1  0  0  0
  3  4  1  0  0  0
  3 93  1  0  0  0
  3 94  1  0  0  0
  4  5  1  0  0  0
  4 95  1  0  0  0
  4 96  1  0  0  0
  5  6  1  0  0  0
  5 26  1  0  0  0
  5 97  1  0  0  0
  6 25  1  0  0  0
  6 98  1  0  0  0
  6 99  1  0  0  0
  7  8  2  0  0  0
  7 26  1  0  0  0
  7 29  1  0  0  0
  8  9  1  0  0  0
  8 22  1  0  0  0
  9 10  1  0  0  0
  9 27  2  0  0  0
 10 11  2  0  0  0
 10 15  1  0  0  0
 11 12  1  0  0  0
 11100  1  0  0  0
 12 13  2  0  0  0
 12101  1  0  0  0
 13 14  1  0  0  0
 13 31  1  0  0  0
 14 15  2  0  0  0
 14102  1  0  0  0
 15103  1  0  0  0
 16 17  2  0  0  0
 16 21  1  0  0  0
 16 31  1  0  0  0
 17 18  1  0  0  0
 17104  1  0  0  0
 18 19  2  0  0  0
 18105  1  0  0  0
 19 20  1  0  0  0
 19 24  1  0  0  0
 20 21  2  0  0  0
 20106  1  0  0  0
 21 23  1  0  0  0
 22 28  1  0  0  0
 22 32  2  0  0  0
 26 27  1  0  0  0
 28107  1  0  0  0
 28108  1  0  0  0
 29109  1  0  0  0
 29110  1  0  0  0
 33 34  1  0  0  0
 33 66  1  0  0  0
 33 70  2  0  0  0
 34 36  1  0  0  0
 34 59  1  0  0  0
 34111  1  0  0  0
 35 44  2  0  0  0
 35 45  1  0  0  0
 35 68  1  0  0  0
 36 56  1  0  0  0
 36112  1  0  0  0
 37 39  1  0  0  0
 37 47  1  0  0  0
 37 66  1  0  0  0
 37113  1  0  0  0
 38 43  2  0  0  0
 38 46  1  0  0  0
 38 47  1  0  0  0
 39 64  1  0  0  0
 39 67  2  0  0  0
 40 52  1  0  0  0
 40 53  2  0  0  0
 40 58  1  0  0  0
 41114  1  0  0  0
 41115  1  0  0  0
 41116  1  0  0  0
 41 48  1  0  0  0
 42 43  1  0  0  0
 42 66  1  0  0  0
 42117  1  0  0  0
 42118  1  0  0  0
 43 44  1  0  0  0
 44119  1  0  0  0
 45 46  2  0  0  0
 45120  1  0  0  0
 46121  1  0  0  0
 47122  1  0  0  0
 47123  1  0  0  0
 48 56  1  0  0  0
 48 65  1  0  0  0
 48124  1  0  0  0
 49 50  1  0  0  0
 49 53  1  0  0  0
 49 64  1  0  0  0
 49125  1  0  0  0
 50 51  1  0  0  0
 50126  1  0  0  0
 50127  1  0  0  0
 51 52  1  0  0  0
 51128  1  0  0  0
 51129  1  0  0  0
 52130  1  0  0  0
 52131  1  0  0  0
 53 54  1  0  0  0
 54 55  2  0  0  0
 54132  1  0  0  0
 55 57  1  0  0  0
 55133  1  0  0  0
 56 69  2  0  0  0
 57 58  2  0  0  0
 57134  1  0  0  0
 58135  1  0  0  0
 59 60  1  0  0  0
 59 61  1  0  0  0
 59 62  1  0  0  0
 60136  1  0  0  0
 60137  1  0  0  0
 60138  1  0  0  0
 61139  1  0  0  0
 61140  1  0  0  0
 61141  1  0  0  0
 62142  1  0  0  0
 62143  1  0  0  0
 62144  1  0  0  0
 63 65  1  0  0  0
 63145  1  0  0  0
 63146  1  0  0  0
 63147  1  0  0  0
 64148  1  0  0  0
 65149  1  0  0  0
 68 88  1  0  0  0
 71 73  2  0  0  0
 71 74  1  0  0  0
 71150  1  0  0  0
 72 73  1  0  0  0
 72 75  2  0  0  0
 72151  1  0  0  0
 73 80  1  0  0  0
 74 76  2  0  0  0
 74 81  1  0  0  0
 75 76  1  0  0  0
 75 82  1  0  0  0
 76 83  1  0  0  0
 77 83  1  0  0  0
 77152  1  0  0  0
 77153  1  0  0  0
 77154  1  0  0  0
 78155  1  0  0  0
 78156  1  0  0  0
 78157  1  0  0  0
 78 89  1  0  0  0
 79 89  1  0  0  0
 79158  1  0  0  0
 79159  1  0  0  0
 79160  1  0  0  0
 80 84  1  0  0  0
 80161  1  0  0  0
 80162  1  0  0  0
 81 85  1  0  0  0
 81163  1  0  0  0
 81164  1  0  0  0
 82 88  1  0  0  0
 82165  1  0  0  0
 82166  1  0  0  0
 83167  1  0  0  0
 83168  1  0  0  0
 84 87  1  0  0  0
 84169  1  0  0  0
 84170  1  0  0  0
 85 86  1  0  0  0
 85171  1  0  0  0
 85172  1  0  0  0
 86 89  1  0  0  0
 86173  1  0  0  0
 86174  1  0  0  0
 87 90  1  0  0  0
 87175  1  0  0  0
 87176  1  0  0  0
 88177  1  0  0  0
 88178  1  0  0  0
 89179  1  0  0  0
 90180  1  0  0  0
M  ISO  4   1 100  68 101  88 101  90 100
M  END
> <chiral flag>
0

> <version>
0

> <s_m_source_file>
/data/baiqing/PycharmProjects/Reinvent-master-3.2/result/LINK_invent/BTK/process_docking_weight1_custom_sum_contain_oxygen_bond_distance_aromatic_linkinvent_7_9_3/rearranged_h_0034.sdf

> <i_m_source_file_index>
47

> <r_mmod_Potential_Energy-OPLS-2005>
12.5652141571045

> <r_mmod_Stretch_Energy-OPLS-2005>
59.7523307800293

> <r_mmod_Bend_Energy-OPLS-2005>
132.963821411133

> <r_mmod_Torsional_Energy-OPLS-2005>
221.761642456055

> <r_mmod_Improper_Torsional_Energy-OPLS-2005>
6.03499126434326

> <r_mmod_Van_der_Waal_Energy-OPLS-2005>
151.920272827148

> <r_mmod_Electrostatic_Energy-OPLS-2005>
-389.951843261719

> <r_mmod_Solvation_Energy-OPLS-2005>
-195.611343383789

> <b_mmod_Minimization_Converged-OPLS-2005>
0

> <r_mmod_RMS_Derivative-OPLS-2005>
3.45766878128052

$$$$
48
                    3D
 Structure written by MMmdl.
150158  0  0  1  0            999 V2000
  -30.4786  -15.1833   20.3800 C   0  0  0  0  0  0
  -30.4364  -12.7512   19.5193 C   0  0  0  0  0  0
  -29.5299  -12.5617   18.2788 C   0  0  0  0  0  0
  -28.0744  -12.3028   18.7051 C   0  0  0  0  0  0
  -27.6147  -13.2699   19.8254 C   0  0  2  0  0  0
  -28.6515  -13.4153   20.9596 C   0  0  0  0  0  0
  -25.2400  -13.8242   20.5742 C   0  0  0  0  0  0
  -24.1746  -13.0437   20.9252 C   0  0  0  0  0  0
  -24.6395  -11.6932   20.8762 C   0  0  0  0  0  0
  -23.9089  -10.4293   21.0407 C   0  0  0  0  0  0
  -24.3635   -9.4206   21.9184 C   0  0  0  0  0  0
  -23.6304   -8.2244   22.0754 C   0  0  0  0  0  0
  -22.4285   -8.0283   21.3545 C   0  0  0  0  0  0
  -21.9926   -9.0258   20.4645 C   0  0  0  0  0  0
  -22.7261  -10.2134   20.3055 C   0  0  0  0  0  0
  -21.6856   -6.0738   22.5279 C   0  0  0  0  0  0
  -21.4017   -6.5641   23.8213 C   0  0  0  0  0  0
  -21.3660   -5.6794   24.9174 C   0  0  0  0  0  0
  -21.6044   -4.3056   24.7225 C   0  0  0  0  0  0
  -21.8819   -3.8148   23.4346 C   0  0  0  0  0  0
  -21.9194   -4.6966   22.3402 C   0  0  0  0  0  0
  -22.7764  -13.5191   21.1901 C   0  0  0  0  0  0
  -22.1662   -4.2151   21.0980 F   0  0  0  0  0  0
  -21.5628   -3.4539   25.7737 F   0  0  0  0  0  0
  -29.8944  -13.8936   20.3361 N   0  0  0  0  0  0
  -26.2827  -12.9510   20.3227 N   0  0  0  0  0  0
  -25.9332  -11.6619   20.5729 N   0  0  0  0  0  0
  -22.0424  -12.8171   22.0456 N   0  0  0  0  0  0
  -25.4034  -15.1976   20.4177 N   0  0  0  0  0  0
  -31.6972  -15.1818   20.1617 O   0  0  0  0  0  0
  -21.6645   -6.8883   21.4242 O   0  0  0  0  0  0
  -22.3441  -14.5492   20.6742 O   0  0  0  0  0  0
  -24.6590  -31.8288   23.1757 C   0  0  0  0  0  0
  -25.9292  -32.4616   23.8202 C   0  0  1  0  0  0
  -27.2144  -26.9744   20.1733 C   0  0  0  0  0  0
  -25.5977  -33.8429   24.2107 N   0  0  0  0  0  0
  -23.4713  -30.4437   21.5242 C   0  0  2  0  0  0
  -24.9242  -28.8444   20.1103 C   0  0  0  0  0  0
  -22.7649  -29.4469   22.4797 C   0  0  0  0  0  0
  -18.0320  -28.1407   22.8469 C   0  0  0  0  0  0
  -24.1493  -36.7217   23.2645 C   0  0  0  0  0  0
  -26.0390  -30.6500   21.4008 C   0  0  0  0  0  0
  -26.1077  -29.2458   20.7427 C   0  0  0  0  0  0
  -27.2496  -28.3306   20.7533 C   0  0  0  0  0  0
  -26.0038  -26.7219   19.4874 C   0  0  0  0  0  0
  -24.8953  -27.6013   19.4628 C   0  0  0  0  0  0
  -23.7085  -29.7661   20.1479 C   0  0  0  0  0  0
  -25.4132  -36.2984   24.0303 C   0  0  1  0  0  0
  -20.5943  -28.3749   23.1195 C   0  0  2  0  0  0
  -20.6799  -26.9435   22.5401 C   0  0  0  0  0  0
  -19.5771  -26.6379   21.5213 C   0  0  0  0  0  0
  -18.1954  -26.7941   22.1623 C   0  0  0  0  0  0
  -19.1581  -28.8898   23.2821 C   0  0  0  0  0  0
  -18.9491  -30.1489   23.8855 C   0  0  0  0  0  0
  -17.6485  -30.6598   24.0556 C   0  0  0  0  0  0
  -25.9095  -34.9364   23.5022 C   0  0  0  0  0  0
  -16.5375  -29.9085   23.6343 C   0  0  0  0  0  0
  -16.7302  -28.6506   23.0362 C   0  0  0  0  0  0
  -26.4556  -31.6544   25.0711 C   0  0  0  0  0  0
  -25.3692  -31.3782   26.1373 C   0  0  0  0  0  0
  -27.0448  -30.2915   24.6418 C   0  0  0  0  0  0
  -27.6052  -32.4347   25.7512 C   0  0  0  0  0  0
  -27.5571  -37.1767   24.8466 C   0  0  0  0  0  0
  -21.4323  -29.3047   22.3547 N   0  0  0  0  0  0
  -26.4281  -37.3715   23.9408 N   0  0  0  0  0  0
  -24.7441  -30.9995   22.0873 N   0  0  0  0  0  0
  -23.4217  -28.8029   23.3016 O   0  0  0  0  0  0
  -28.2011  -25.8689   20.2606 O   0  0  0  0  0  0
  -26.5697  -34.8890   22.4613 O   0  0  0  0  0  0
  -23.5670  -32.1238   23.6877 O   0  0  0  0  0  0
  -30.1535  -20.7635   19.6986 C   0  0  0  0  0  0
  -27.8689  -21.6094   20.8706 C   0  0  0  0  0  0
  -29.7413  -22.1909   19.6534 C   0  0  0  0  0  0
  -29.4767  -19.6204   20.3082 C   0  0  0  0  0  0
  -28.5437  -22.7525   20.2535 C   0  0  0  0  0  0
  -28.2817  -20.1815   20.9135 C   0  0  0  0  0  0
  -30.6309  -23.1441   18.8790 C   0  0  0  0  0  0
  -30.1871  -18.0326   20.3491 C   0  0  0  0  0  0
  -27.8068  -24.3103   20.0326 C   0  0  0  0  0  0
  -29.7406  -16.4530   20.4612 N   0  0  0  0  0  0
  -27.4703  -19.3258   21.5790 F   0  0  0  0  0  0
  -31.4605  -12.9373   19.1928 H   0  0  0  0  0  0
  -30.4803  -11.8360   20.1120 H   0  0  0  0  0  0
  -29.8937  -11.7384   17.6624 H   0  0  0  0  0  0
  -29.5748  -13.4560   17.6554 H   0  0  0  0  0  0
  -28.0158  -11.2743   19.0631 H   0  0  0  0  0  0
  -27.4065  -12.3658   17.8451 H   0  0  0  0  0  0
  -27.5397  -14.2445   19.3417 H   0  0  0  0  0  0
  -28.7991  -12.4737   21.4905 H   0  0  0  0  0  0
  -28.3070  -14.1402   21.6990 H   0  0  0  0  0  0
  -25.2776   -9.5683   22.4765 H   0  0  0  0  0  0
  -24.0010   -7.4635   22.7474 H   0  0  0  0  0  0
  -21.0857   -8.8780   19.8950 H   0  0  0  0  0  0
  -22.3718  -10.9675   19.6167 H   0  0  0  0  0  0
  -21.2010   -7.6150   23.9717 H   0  0  0  0  0  0
  -21.1481   -6.0524   25.9077 H   0  0  0  0  0  0
  -22.0597   -2.7611   23.2845 H   0  0  0  0  0  0
  -22.4060  -11.9842   22.4846 H   0  0  0  0  0  0
  -21.1034  -13.1175   22.2659 H   0  0  0  0  0  0
  -24.6338  -15.8474   20.5367 H   0  0  0  0  0  0
  -26.2452  -15.6423   20.0765 H   0  0  0  0  0  0
  -26.7360  -32.5168   23.0919 H   0  0  0  0  0  0
  -25.0081  -33.9517   25.0228 H   0  0  0  0  0  0
  -22.7821  -31.2745   21.3587 H   0  0  0  0  0  0
  -23.3766  -35.9537   23.3282 H   0  0  0  0  0  0
  -24.3571  -36.8886   22.2065 H   0  0  0  0  0  0
  -23.7240  -37.6396   23.6713 H   0  0  0  0  0  0
  -26.2155  -31.3952   20.6240 H   0  0  0  0  0  0
  -26.9006  -30.7037   22.0543 H   0  0  0  0  0  0
  -28.1430  -28.6327   21.2815 H   0  0  0  0  0  0
  -25.8676  -25.7766   18.9850 H   0  0  0  0  0  0
  -23.9967  -27.2892   18.9484 H   0  0  0  0  0  0
  -23.8601  -30.5377   19.3923 H   0  0  0  0  0  0
  -22.8192  -29.2188   19.8304 H   0  0  0  0  0  0
  -25.1329  -36.1786   25.0794 H   0  0  0  0  0  0
  -21.0033  -28.3352   24.1318 H   0  0  0  0  0  0
  -20.5683  -26.2367   23.3638 H   0  0  0  0  0  0
  -21.6662  -26.7417   22.1204 H   0  0  0  0  0  0
  -19.6930  -25.6279   21.1271 H   0  0  0  0  0  0
  -19.6707  -27.3166   20.6724 H   0  0  0  0  0  0
  -17.4221  -26.6684   21.4028 H   0  0  0  0  0  0
  -18.0350  -26.0094   22.9031 H   0  0  0  0  0  0
  -19.7967  -30.7318   24.2204 H   0  0  0  0  0  0
  -17.5037  -31.6273   24.5167 H   0  0  0  0  0  0
  -15.5374  -30.2973   23.7692 H   0  0  0  0  0  0
  -15.8703  -28.0809   22.7102 H   0  0  0  0  0  0
  -24.5889  -30.7115   25.7685 H   0  0  0  0  0  0
  -24.8864  -32.2979   26.4685 H   0  0  0  0  0  0
  -25.7933  -30.9027   27.0226 H   0  0  0  0  0  0
  -26.3110  -29.6599   24.1400 H   0  0  0  0  0  0
  -27.3968  -29.7269   25.5062 H   0  0  0  0  0  0
  -27.9057  -30.4106   23.9836 H   0  0  0  0  0  0
  -27.2622  -33.3686   26.1976 H   0  0  0  0  0  0
  -28.3923  -32.6845   25.0386 H   0  0  0  0  0  0
  -28.0653  -31.8549   26.5524 H   0  0  0  0  0  0
  -28.2572  -38.0077   24.7514 H   0  0  0  0  0  0
  -28.1083  -36.2604   24.6295 H   0  0  0  0  0  0
  -27.2287  -37.1411   25.8868 H   0  0  0  0  0  0
  -20.9566  -29.8744   21.6689 H   0  0  0  0  0  0
  -26.0132  -38.2775   24.1415 H   0  0  0  0  0  0
  -31.0875  -20.5271   19.2079 H   0  0  0  0  0  0
  -26.9201  -21.8261   21.3392 H   0  0  0  0  0  0
  -31.6597  -22.7848   18.8392 H   0  0  0  0  0  0
  -30.6444  -24.1307   19.3437 H   0  0  0  0  0  0
  -30.2683  -23.2539   17.8567 H   0  0  0  0  0  0
  -30.9113  -18.1269   21.1586 H   0  0  0  0  0  0
  -30.8093  -18.0304   19.4537 H   0  0  0  0  0  0
  -26.8613  -24.2078   20.5656 H   0  0  0  0  0  0
  -27.5285  -24.2746   18.9794 H   0  0  0  0  0  0
  -28.7485  -16.3244   20.5937 H   0  0  0  0  0  0
  1 25  1  0  0  0
  1 30  2  0  0  0
  1 80  1  0  0  0
  2  3  1  0  0  0
  2 25  1  0  0  0
  2 82  1  0  0  0
  2 83  1  0  0  0
  3  4  1  0  0  0
  3 84  1  0  0  0
  3 85  1  0  0  0
  4  5  1  0  0  0
  4 86  1  0  0  0
  4 87  1  0  0  0
  5  6  1  0  0  0
  5 26  1  0  0  0
  5 88  1  0  0  0
  6 25  1  0  0  0
  6 89  1  0  0  0
  6 90  1  0  0  0
  7  8  2  0  0  0
  7 26  1  0  0  0
  7 29  1  0  0  0
  8  9  1  0  0  0
  8 22  1  0  0  0
  9 10  1  0  0  0
  9 27  2  0  0  0
 10 11  2  0  0  0
 10 15  1  0  0  0
 11 12  1  0  0  0
 11 91  1  0  0  0
 12 13  2  0  0  0
 12 92  1  0  0  0
 13 14  1  0  0  0
 13 31  1  0  0  0
 14 15  2  0  0  0
 14 93  1  0  0  0
 15 94  1  0  0  0
 16 17  2  0  0  0
 16 21  1  0  0  0
 16 31  1  0  0  0
 17 18  1  0  0  0
 17 95  1  0  0  0
 18 19  2  0  0  0
 18 96  1  0  0  0
 19 20  1  0  0  0
 19 24  1  0  0  0
 20 21  2  0  0  0
 20 97  1  0  0  0
 21 23  1  0  0  0
 22 28  1  0  0  0
 22 32  2  0  0  0
 26 27  1  0  0  0
 28 98  1  0  0  0
 28 99  1  0  0  0
 29100  1  0  0  0
 29101  1  0  0  0
 33 34  1  0  0  0
 33 66  1  0  0  0
 33 70  2  0  0  0
 34 36  1  0  0  0
 34 59  1  0  0  0
 34102  1  0  0  0
 35 44  2  0  0  0
 35 45  1  0  0  0
 35 68  1  0  0  0
 36 56  1  0  0  0
 36103  1  0  0  0
 37 39  1  0  0  0
 37 47  1  0  0  0
 37 66  1  0  0  0
 37104  1  0  0  0
 38 43  2  0  0  0
 38 46  1  0  0  0
 38 47  1  0  0  0
 39 64  1  0  0  0
 39 67  2  0  0  0
 40 52  1  0  0  0
 40 53  2  0  0  0
 40 58  1  0  0  0
 41105  1  0  0  0
 41106  1  0  0  0
 41107  1  0  0  0
 41 48  1  0  0  0
 42 43  1  0  0  0
 42 66  1  0  0  0
 42108  1  0  0  0
 42109  1  0  0  0
 43 44  1  0  0  0
 44110  1  0  0  0
 45 46  2  0  0  0
 45111  1  0  0  0
 46112  1  0  0  0
 47113  1  0  0  0
 47114  1  0  0  0
 48 56  1  0  0  0
 48 65  1  0  0  0
 48115  1  0  0  0
 49 50  1  0  0  0
 49 53  1  0  0  0
 49 64  1  0  0  0
 49116  1  0  0  0
 50 51  1  0  0  0
 50117  1  0  0  0
 50118  1  0  0  0
 51 52  1  0  0  0
 51119  1  0  0  0
 51120  1  0  0  0
 52121  1  0  0  0
 52122  1  0  0  0
 53 54  1  0  0  0
 54 55  2  0  0  0
 54123  1  0  0  0
 55 57  1  0  0  0
 55124  1  0  0  0
 56 69  2  0  0  0
 57 58  2  0  0  0
 57125  1  0  0  0
 58126  1  0  0  0
 59 60  1  0  0  0
 59 61  1  0  0  0
 59 62  1  0  0  0
 60127  1  0  0  0
 60128  1  0  0  0
 60129  1  0  0  0
 61130  1  0  0  0
 61131  1  0  0  0
 61132  1  0  0  0
 62133  1  0  0  0
 62134  1  0  0  0
 62135  1  0  0  0
 63 65  1  0  0  0
 63136  1  0  0  0
 63137  1  0  0  0
 63138  1  0  0  0
 64139  1  0  0  0
 65140  1  0  0  0
 68 79  1  0  0  0
 71 73  2  0  0  0
 71 74  1  0  0  0
 71141  1  0  0  0
 72 75  2  0  0  0
 72 76  1  0  0  0
 72142  1  0  0  0
 73 75  1  0  0  0
 73 77  1  0  0  0
 74 76  2  0  0  0
 74 78  1  0  0  0
 75 79  1  0  0  0
 76 81  1  0  0  0
 77143  1  0  0  0
 77144  1  0  0  0
 77145  1  0  0  0
 78 80  1  0  0  0
 78146  1  0  0  0
 78147  1  0  0  0
 79148  1  0  0  0
 79149  1  0  0  0
 80150  1  0  0  0
M  ISO  4   1 100  68 101  79 101  80 100
M  END
> <chiral flag>
0

> <version>
0

> <s_m_source_file>
/data/baiqing/PycharmProjects/Reinvent-master-3.2/result/LINK_invent/BTK/process_docking_weight1_custom_sum_contain_oxygen_bond_distance_aromatic_linkinvent_7_9_3/rearranged_h_0034.sdf

> <i_m_source_file_index>
48

> <r_mmod_Potential_Energy-OPLS-2005>
1024.53393554688

> <r_mmod_Stretch_Energy-OPLS-2005>
446.790802001953

> <r_mmod_Bend_Energy-OPLS-2005>
422.402282714844

> <r_mmod_Torsional_Energy-OPLS-2005>
215.225387573242

> <r_mmod_Improper_Torsional_Energy-OPLS-2005>
7.06309461593628

> <r_mmod_Van_der_Waal_Energy-OPLS-2005>
131.363983154297

> <r_mmod_Electrostatic_Energy-OPLS-2005>
-381.261169433594

> <r_mmod_Solvation_Energy-OPLS-2005>
-204.008712768555

> <b_mmod_Minimization_Converged-OPLS-2005>
0

> <r_mmod_RMS_Derivative-OPLS-2005>
0.0847813189029694

$$$$
49
                    3D
 Structure written by MMmdl.
163171  0  0  1  0            999 V2000
  -30.7253  -14.4013   20.6055 C   0  0  0  0  0  0
  -30.4214  -12.2738   19.4083 C   0  0  0  0  0  0
  -29.4916  -12.5077   18.2003 C   0  0  0  0  0  0
  -28.0136  -12.3710   18.6146 C   0  0  0  0  0  0
  -27.6688  -13.1989   19.8819 C   0  0  2  0  0  0
  -28.7077  -12.9417   20.9979 C   0  0  0  0  0  0
  -25.2626  -13.8150   20.5677 C   0  0  0  0  0  0
  -24.1860  -13.0437   20.9163 C   0  0  0  0  0  0
  -24.6401  -11.6904   20.8729 C   0  0  0  0  0  0
  -23.9060  -10.4294   21.0404 C   0  0  0  0  0  0
  -24.3608   -9.4209   21.9184 C   0  0  0  0  0  0
  -23.6282   -8.2247   22.0754 C   0  0  0  0  0  0
  -22.4267   -8.0286   21.3544 C   0  0  0  0  0  0
  -21.9902   -9.0260   20.4649 C   0  0  0  0  0  0
  -22.7229  -10.2142   20.3055 C   0  0  0  0  0  0
  -21.6850   -6.0742   22.5278 C   0  0  0  0  0  0
  -21.4012   -6.5641   23.8213 C   0  0  0  0  0  0
  -21.3662   -5.6792   24.9171 C   0  0  0  0  0  0
  -21.6041   -4.3055   24.7220 C   0  0  0  0  0  0
  -21.8818   -3.8151   23.4339 C   0  0  0  0  0  0
  -21.9191   -4.6971   22.3398 C   0  0  0  0  0  0
  -22.7887  -13.5251   21.1825 C   0  0  0  0  0  0
  -22.1662   -4.2156   21.0977 F   0  0  0  0  0  0
  -21.5626   -3.4536   25.7734 F   0  0  0  0  0  0
  -30.0482  -13.2345   20.4562 N   0  0  0  0  0  0
  -26.3062  -12.9305   20.3391 N   0  0  0  0  0  0
  -25.9326  -11.6473   20.5764 N   0  0  0  0  0  0
  -22.0516  -12.8260   22.0390 N   0  0  0  0  0  0
  -25.4372  -15.1862   20.4099 N   0  0  0  0  0  0
  -31.8093  -14.6371   20.0645 O   0  0  0  0  0  0
  -21.6630   -6.8886   21.4242 O   0  0  0  0  0  0
  -22.3586  -14.5558   20.6676 O   0  0  0  0  0  0
  -24.6063  -31.8727   23.2125 C   0  0  0  0  0  0
  -25.8976  -32.4843   23.8450 C   0  0  1  0  0  0
  -27.2615  -27.4926   20.0968 C   0  0  0  0  0  0
  -25.5869  -33.8649   24.2380 N   0  0  0  0  0  0
  -23.3945  -30.4931   21.5506 C   0  0  2  0  0  0
  -24.8460  -28.9643   20.1184 C   0  0  0  0  0  0
  -22.7360  -29.4686   22.5016 C   0  0  0  0  0  0
  -18.0255  -28.1373   22.8515 C   0  0  0  0  0  0
  -24.1504  -36.7299   23.2638 C   0  0  0  0  0  0
  -25.9146  -30.8619   21.3529 C   0  0  0  0  0  0
  -26.0002  -29.4998   20.7011 C   0  0  0  0  0  0
  -27.2097  -28.7811   20.6764 C   0  0  0  0  0  0
  -26.0877  -26.9613   19.5213 C   0  0  0  0  0  0
  -24.8822  -27.6905   19.5236 C   0  0  0  0  0  0
  -23.6021  -29.8205   20.1666 C   0  0  0  0  0  0
  -25.4124  -36.3120   24.0348 C   0  0  1  0  0  0
  -20.5839  -28.3667   23.1339 C   0  0  2  0  0  0
  -20.6752  -26.9407   22.5434 C   0  0  0  0  0  0
  -19.5737  -26.6391   21.5230 C   0  0  0  0  0  0
  -18.1914  -26.7925   22.1640 C   0  0  0  0  0  0
  -19.1497  -28.8843   23.2928 C   0  0  0  0  0  0
  -18.9426  -30.1453   23.8939 C   0  0  0  0  0  0
  -17.6425  -30.6589   24.0583 C   0  0  0  0  0  0
  -25.9023  -34.9478   23.5155 C   0  0  0  0  0  0
  -16.5321  -29.9090   23.6327 C   0  0  0  0  0  0
  -16.7242  -28.6502   23.0353 C   0  0  0  0  0  0
  -26.4389  -31.6567   25.0745 C   0  0  0  0  0  0
  -25.3641  -31.3659   26.1470 C   0  0  0  0  0  0
  -27.0143  -30.3011   24.6033 C   0  0  0  0  0  0
  -27.5983  -32.4206   25.7557 C   0  0  0  0  0  0
  -27.5592  -37.1808   24.8465 C   0  0  0  0  0  0
  -21.4094  -29.3038   22.3745 N   0  0  0  0  0  0
  -26.4318  -37.3789   23.9393 N   0  0  0  0  0  0
  -24.6565  -31.0886   22.0987 N   0  0  0  0  0  0
  -23.4127  -28.8237   23.3061 O   0  0  0  0  0  0
  -28.3892  -26.7021   20.0505 O   0  0  0  0  0  0
  -26.5571  -34.8910   22.4708 O   0  0  0  0  0  0
  -23.5258  -32.1454   23.7534 O   0  0  0  0  0  0
  -28.0304  -24.3069   23.9864 C   0  0  0  0  0  0
  -28.9531  -26.2319   22.8698 C   0  0  0  0  0  0
  -27.6367  -23.0173   24.6418 C   0  0  0  0  0  0
  -29.7171  -27.2770   22.1251 C   0  0  0  0  0  0
  -28.7021  -21.9062   24.7099 C   0  0  0  0  0  0
  -28.9295  -21.1563   23.3850 C   0  0  0  0  0  0
  -29.5250  -19.7595   23.6096 C   0  0  0  0  0  0
  -29.8352  -19.0256   22.2983 C   0  0  0  0  0  0
  -29.9221  -17.5030   22.4850 C   0  0  0  0  0  0
  -30.3371  -16.7807   21.1967 C   0  0  0  0  0  0
  -29.6312  -27.1701   20.5839 C   0  0  0  0  0  0
  -27.1941  -25.3531   23.9911 N   0  0  0  0  0  0
  -27.7225  -26.4574   23.3488 N   0  0  0  0  0  0
  -30.0634  -15.3495   21.2802 N   0  0  0  0  0  0
  -29.5662  -24.6109   23.1696 S   0  0  0  0  0  0
  -31.4670  -12.3647   19.1091 H   0  0  0  0  0  0
  -30.3103  -11.2550   19.7822 H   0  0  0  0  0  0
  -29.7215  -11.7983   17.4041 H   0  0  0  0  0  0
  -29.6662  -13.5014   17.7845 H   0  0  0  0  0  0
  -27.8165  -11.3139   18.7979 H   0  0  0  0  0  0
  -27.3636  -12.6587   17.7883 H   0  0  0  0  0  0
  -27.7254  -14.2517   19.6038 H   0  0  0  0  0  0
  -28.6705  -11.8974   21.3097 H   0  0  0  0  0  0
  -28.4688  -13.5139   21.8955 H   0  0  0  0  0  0
  -25.2754   -9.5677   22.4755 H   0  0  0  0  0  0
  -23.9989   -7.4637   22.7471 H   0  0  0  0  0  0
  -21.0833   -8.8784   19.8955 H   0  0  0  0  0  0
  -22.3692  -10.9681   19.6162 H   0  0  0  0  0  0
  -21.2004   -7.6149   23.9716 H   0  0  0  0  0  0
  -21.1483   -6.0522   25.9075 H   0  0  0  0  0  0
  -22.0595   -2.7613   23.2832 H   0  0  0  0  0  0
  -22.4121  -11.9915   22.4776 H   0  0  0  0  0  0
  -21.1135  -13.1313   22.2584 H   0  0  0  0  0  0
  -24.6738  -15.8446   20.5203 H   0  0  0  0  0  0
  -26.2973  -15.6245   20.1037 H   0  0  0  0  0  0
  -26.7080  -32.5579   23.1269 H   0  0  0  0  0  0
  -25.0052  -33.9868   25.0540 H   0  0  0  0  0  0
  -22.6812  -31.3074   21.4088 H   0  0  0  0  0  0
  -23.3770  -35.9625   23.3305 H   0  0  0  0  0  0
  -24.3587  -36.8890   22.2052 H   0  0  0  0  0  0
  -23.7264  -37.6515   23.6623 H   0  0  0  0  0  0
  -26.0178  -31.6331   20.5880 H   0  0  0  0  0  0
  -26.8036  -30.9214   21.9678 H   0  0  0  0  0  0
  -28.0866  -29.2427   21.0997 H   0  0  0  0  0  0
  -26.1118  -25.9803   19.0687 H   0  0  0  0  0  0
  -23.9964  -27.2658   19.0728 H   0  0  0  0  0  0
  -23.6996  -30.5920   19.4016 H   0  0  0  0  0  0
  -22.7327  -29.2289   19.8758 H   0  0  0  0  0  0
  -25.1317  -36.1986   25.0851 H   0  0  0  0  0  0
  -20.9969  -28.3233   24.1449 H   0  0  0  0  0  0
  -20.5685  -26.2270   23.3610 H   0  0  0  0  0  0
  -21.6620  -26.7468   22.1223 H   0  0  0  0  0  0
  -19.6902  -25.6303   21.1259 H   0  0  0  0  0  0
  -19.6674  -27.3205   20.6758 H   0  0  0  0  0  0
  -17.4196  -26.6691   21.4032 H   0  0  0  0  0  0
  -18.0309  -26.0035   22.9006 H   0  0  0  0  0  0
  -19.7897  -30.7282   24.2302 H   0  0  0  0  0  0
  -17.4966  -31.6267   24.5186 H   0  0  0  0  0  0
  -15.5324  -30.3010   23.7614 H   0  0  0  0  0  0
  -15.8638  -28.0843   22.7036 H   0  0  0  0  0  0
  -24.5646  -30.7277   25.7697 H   0  0  0  0  0  0
  -24.9048  -32.2841   26.5144 H   0  0  0  0  0  0
  -25.7898  -30.8506   27.0091 H   0  0  0  0  0  0
  -26.2599  -29.6842   24.1124 H   0  0  0  0  0  0
  -27.3933  -29.7174   25.4427 H   0  0  0  0  0  0
  -27.8460  -30.4313   23.9110 H   0  0  0  0  0  0
  -27.2663  -33.3574   26.2048 H   0  0  0  0  0  0
  -28.3914  -32.6611   25.0462 H   0  0  0  0  0  0
  -28.0470  -31.8305   26.5565 H   0  0  0  0  0  0
  -28.2624  -38.0092   24.7518 H   0  0  0  0  0  0
  -28.1088  -36.2633   24.6305 H   0  0  0  0  0  0
  -27.2294  -37.1475   25.8862 H   0  0  0  0  0  0
  -20.9247  -29.8726   21.6951 H   0  0  0  0  0  0
  -26.0206  -38.2870   24.1378 H   0  0  0  0  0  0
  -26.7384  -22.6435   24.1495 H   0  0  0  0  0  0
  -27.3346  -23.2592   25.6612 H   0  0  0  0  0  0
  -30.7625  -27.2320   22.4312 H   0  0  0  0  0  0
  -29.3714  -28.2505   22.4693 H   0  0  0  0  0  0
  -28.3459  -21.1824   25.4440 H   0  0  0  0  0  0
  -29.6430  -22.2875   25.1092 H   0  0  0  0  0  0
  -29.5757  -21.7371   22.7265 H   0  0  0  0  0  0
  -27.9785  -21.0443   22.8613 H   0  0  0  0  0  0
  -28.8133  -19.1714   24.1910 H   0  0  0  0  0  0
  -30.4323  -19.8263   24.2127 H   0  0  0  0  0  0
  -30.7642  -19.4126   21.8766 H   0  0  0  0  0  0
  -29.0552  -19.2409   21.5657 H   0  0  0  0  0  0
  -28.9485  -17.1388   22.8175 H   0  0  0  0  0  0
  -30.6310  -17.2639   23.2787 H   0  0  0  0  0  0
  -31.3902  -16.9786   20.9872 H   0  0  0  0  0  0
  -29.7726  -17.1725   20.3488 H   0  0  0  0  0  0
  -29.9324  -28.1046   20.1083 H   0  0  0  0  0  0
  -30.3673  -26.4318   20.2643 H   0  0  0  0  0  0
  -29.1896  -15.0690   21.6998 H   0  0  0  0  0  0
  1 25  1  0  0  0
  1 30  2  0  0  0
  1 84  1  0  0  0
  2  3  1  0  0  0
  2 25  1  0  0  0
  2 86  1  0  0  0
  2 87  1  0  0  0
  3  4  1  0  0  0
  3 88  1  0  0  0
  3 89  1  0  0  0
  4  5  1  0  0  0
  4 90  1  0  0  0
  4 91  1  0  0  0
  5  6  1  0  0  0
  5 26  1  0  0  0
  5 92  1  0  0  0
  6 25  1  0  0  0
  6 93  1  0  0  0
  6 94  1  0  0  0
  7  8  2  0  0  0
  7 26  1  0  0  0
  7 29  1  0  0  0
  8  9  1  0  0  0
  8 22  1  0  0  0
  9 10  1  0  0  0
  9 27  2  0  0  0
 10 11  2  0  0  0
 10 15  1  0  0  0
 11 12  1  0  0  0
 11 95  1  0  0  0
 12 13  2  0  0  0
 12 96  1  0  0  0
 13 14  1  0  0  0
 13 31  1  0  0  0
 14 15  2  0  0  0
 14 97  1  0  0  0
 15 98  1  0  0  0
 16 17  2  0  0  0
 16 21  1  0  0  0
 16 31  1  0  0  0
 17 18  1  0  0  0
 17 99  1  0  0  0
 18 19  2  0  0  0
 18100  1  0  0  0
 19 20  1  0  0  0
 19 24  1  0  0  0
 20 21  2  0  0  0
 20101  1  0  0  0
 21 23  1  0  0  0
 22 28  1  0  0  0
 22 32  2  0  0  0
 26 27  1  0  0  0
 28102  1  0  0  0
 28103  1  0  0  0
 29104  1  0  0  0
 29105  1  0  0  0
 33 34  1  0  0  0
 33 66  1  0  0  0
 33 70  2  0  0  0
 34 36  1  0  0  0
 34 59  1  0  0  0
 34106  1  0  0  0
 35 44  2  0  0  0
 35 45  1  0  0  0
 35 68  1  0  0  0
 36 56  1  0  0  0
 36107  1  0  0  0
 37 39  1  0  0  0
 37 47  1  0  0  0
 37 66  1  0  0  0
 37108  1  0  0  0
 38 43  2  0  0  0
 38 46  1  0  0  0
 38 47  1  0  0  0
 39 64  1  0  0  0
 39 67  2  0  0  0
 40 52  1  0  0  0
 40 53  2  0  0  0
 40 58  1  0  0  0
 41109  1  0  0  0
 41110  1  0  0  0
 41111  1  0  0  0
 41 48  1  0  0  0
 42 43  1  0  0  0
 42 66  1  0  0  0
 42112  1  0  0  0
 42113  1  0  0  0
 43 44  1  0  0  0
 44114  1  0  0  0
 45 46  2  0  0  0
 45115  1  0  0  0
 46116  1  0  0  0
 47117  1  0  0  0
 47118  1  0  0  0
 48 56  1  0  0  0
 48 65  1  0  0  0
 48119  1  0  0  0
 49 50  1  0  0  0
 49 53  1  0  0  0
 49 64  1  0  0  0
 49120  1  0  0  0
 50 51  1  0  0  0
 50121  1  0  0  0
 50122  1  0  0  0
 51 52  1  0  0  0
 51123  1  0  0  0
 51124  1  0  0  0
 52125  1  0  0  0
 52126  1  0  0  0
 53 54  1  0  0  0
 54 55  2  0  0  0
 54127  1  0  0  0
 55 57  1  0  0  0
 55128  1  0  0  0
 56 69  2  0  0  0
 57 58  2  0  0  0
 57129  1  0  0  0
 58130  1  0  0  0
 59 60  1  0  0  0
 59 61  1  0  0  0
 59 62  1  0  0  0
 60131  1  0  0  0
 60132  1  0  0  0
 60133  1  0  0  0
 61134  1  0  0  0
 61135  1  0  0  0
 61136  1  0  0  0
 62137  1  0  0  0
 62138  1  0  0  0
 62139  1  0  0  0
 63 65  1  0  0  0
 63140  1  0  0  0
 63141  1  0  0  0
 63142  1  0  0  0
 64143  1  0  0  0
 65144  1  0  0  0
 68 81  1  0  0  0
 71 73  1  0  0  0
 71 82  2  0  0  0
 71 85  1  0  0  0
 72 74  1  0  0  0
 72 83  2  0  0  0
 72 85  1  0  0  0
 73 75  1  0  0  0
 73145  1  0  0  0
 73146  1  0  0  0
 74 81  1  0  0  0
 74147  1  0  0  0
 74148  1  0  0  0
 75 76  1  0  0  0
 75149  1  0  0  0
 75150  1  0  0  0
 76 77  1  0  0  0
 76151  1  0  0  0
 76152  1  0  0  0
 77 78  1  0  0  0
 77153  1  0  0  0
 77154  1  0  0  0
 78 79  1  0  0  0
 78155  1  0  0  0
 78156  1  0  0  0
 79 80  1  0  0  0
 79157  1  0  0  0
 79158  1  0  0  0
 80 84  1  0  0  0
 80159  1  0  0  0
 80160  1  0  0  0
 81161  1  0  0  0
 81162  1  0  0  0
 82 83  1  0  0  0
 84163  1  0  0  0
M  ISO  4   1 100  68 101  81 101  84 100
M  END
> <chiral flag>
0

> <version>
0

> <s_m_source_file>
/data/baiqing/PycharmProjects/Reinvent-master-3.2/result/LINK_invent/BTK/process_docking_weight1_custom_sum_contain_oxygen_bond_distance_aromatic_linkinvent_7_9_3/rearranged_h_0034.sdf

> <i_m_source_file_index>
49

> <r_mmod_Potential_Energy-OPLS-2005>
-139.942367553711

> <r_mmod_Stretch_Energy-OPLS-2005>
30.5917320251465

> <r_mmod_Bend_Energy-OPLS-2005>
110.281951904297

> <r_mmod_Torsional_Energy-OPLS-2005>
169.473876953125

> <r_mmod_Improper_Torsional_Energy-OPLS-2005>
3.62258267402649

> <r_mmod_Van_der_Waal_Energy-OPLS-2005>
124.055366516113

> <r_mmod_Electrostatic_Energy-OPLS-2005>
-352.370635986328

> <r_mmod_Solvation_Energy-OPLS-2005>
-232.516342163086

> <b_mmod_Minimization_Converged-OPLS-2005>
0

> <r_mmod_RMS_Derivative-OPLS-2005>
1.69935750961304

$$$$
50
                    3D
 Structure written by MMmdl.
168176  0  0  1  0            999 V2000
  -30.6845  -14.5631   20.4897 C   0  0  0  0  0  0
  -30.4194  -12.3414   19.4524 C   0  0  0  0  0  0
  -29.5044  -12.4925   18.2197 C   0  0  0  0  0  0
  -28.0244  -12.3487   18.6290 C   0  0  0  0  0  0
  -27.6534  -13.2217   19.8596 C   0  0  2  0  0  0
  -28.6962  -13.0856   20.9919 C   0  0  0  0  0  0
  -25.2549  -13.8200   20.5683 C   0  0  0  0  0  0
  -24.1825  -13.0458   20.9202 C   0  0  0  0  0  0
  -24.6407  -11.6938   20.8741 C   0  0  0  0  0  0
  -23.9086  -10.4316   21.0419 C   0  0  0  0  0  0
  -24.3631   -9.4224   21.9194 C   0  0  0  0  0  0
  -23.6311   -8.2254   22.0761 C   0  0  0  0  0  0
  -22.4293   -8.0293   21.3548 C   0  0  0  0  0  0
  -21.9923   -9.0273   20.4658 C   0  0  0  0  0  0
  -22.7254  -10.2156   20.3071 C   0  0  0  0  0  0
  -21.6853   -6.0747   22.5281 C   0  0  0  0  0  0
  -21.4007   -6.5647   23.8213 C   0  0  0  0  0  0
  -21.3653   -5.6793   24.9177 C   0  0  0  0  0  0
  -21.6047   -4.3057   24.7218 C   0  0  0  0  0  0
  -21.8810   -3.8156   23.4339 C   0  0  0  0  0  0
  -21.9186   -4.6977   22.3400 C   0  0  0  0  0  0
  -22.7839  -13.5245   21.1847 C   0  0  0  0  0  0
  -22.1655   -4.2169   21.0976 F   0  0  0  0  0  0
  -21.5646   -3.4532   25.7728 F   0  0  0  0  0  0
  -30.0169  -13.3757   20.4214 N   0  0  0  0  0  0
  -26.2989  -12.9402   20.3302 N   0  0  0  0  0  0
  -25.9338  -11.6553   20.5749 N   0  0  0  0  0  0
  -22.0464  -12.8256   22.0404 N   0  0  0  0  0  0
  -25.4250  -15.1913   20.4070 N   0  0  0  0  0  0
  -31.8590  -14.6679   20.1273 O   0  0  0  0  0  0
  -21.6649   -6.8893   21.4247 O   0  0  0  0  0  0
  -22.3529  -14.5546   20.6678 O   0  0  0  0  0  0
  -24.6191  -31.8651   23.2078 C   0  0  0  0  0  0
  -25.9061  -32.4809   23.8400 C   0  0  1  0  0  0
  -27.2247  -27.3861   20.1084 C   0  0  0  0  0  0
  -25.5897  -33.8612   24.2317 N   0  0  0  0  0  0
  -23.4112  -30.4875   21.5489 C   0  0  2  0  0  0
  -24.8602  -28.9491   20.1137 C   0  0  0  0  0  0
  -22.7447  -29.4636   22.4973 C   0  0  0  0  0  0
  -18.0271  -28.1372   22.8486 C   0  0  0  0  0  0
  -24.1485  -36.7310   23.2641 C   0  0  0  0  0  0
  -25.9462  -30.8161   21.3698 C   0  0  0  0  0  0
  -26.0241  -29.4482   20.7129 C   0  0  0  0  0  0
  -27.2163  -28.6757   20.7019 C   0  0  0  0  0  0
  -26.0479  -26.9178   19.4917 C   0  0  0  0  0  0
  -24.8689  -27.6864   19.4974 C   0  0  0  0  0  0
  -23.6239  -29.8210   20.1641 C   0  0  0  0  0  0
  -25.4107  -36.3104   24.0336 C   0  0  1  0  0  0
  -20.5869  -28.3666   23.1305 C   0  0  2  0  0  0
  -20.6759  -26.9397   22.5417 C   0  0  0  0  0  0
  -19.5737  -26.6381   21.5209 C   0  0  0  0  0  0
  -18.1914  -26.7922   22.1615 C   0  0  0  0  0  0
  -19.1523  -28.8835   23.2890 C   0  0  0  0  0  0
  -18.9448  -30.1439   23.8900 C   0  0  0  0  0  0
  -17.6457  -30.6585   24.0551 C   0  0  0  0  0  0
  -25.9035  -34.9466   23.5127 C   0  0  0  0  0  0
  -16.5343  -29.9084   23.6325 C   0  0  0  0  0  0
  -16.7263  -28.6494   23.0354 C   0  0  0  0  0  0
  -26.4467  -31.6602   25.0749 C   0  0  0  0  0  0
  -25.3716  -31.3731   26.1488 C   0  0  0  0  0  0
  -27.0301  -30.3032   24.6170 C   0  0  0  0  0  0
  -27.6046  -32.4323   25.7506 C   0  0  0  0  0  0
  -27.5580  -37.1808   24.8462 C   0  0  0  0  0  0
  -21.4163  -29.3034   22.3721 N   0  0  0  0  0  0
  -26.4288  -37.3792   23.9411 N   0  0  0  0  0  0
  -24.6771  -31.0716   22.0992 N   0  0  0  0  0  0
  -23.4203  -28.8170   23.3024 O   0  0  0  0  0  0
  -28.3332  -26.5538   20.1296 O   0  0  0  0  0  0
  -26.5608  -34.8919   22.4691 O   0  0  0  0  0  0
  -23.5371  -32.1406   23.7443 O   0  0  0  0  0  0
  -27.1196  -19.1343   20.6628 C   0  0  0  0  0  0
  -28.1871  -18.2266   20.0140 C   0  0  0  0  0  0
  -27.0446  -20.5892   20.1531 C   0  0  0  0  0  0
  -29.4567  -20.8951   19.7870 C   0  0  0  0  0  0
  -29.5492  -18.3165   20.7257 C   0  0  2  0  0  0
  -30.2515  -19.7487   20.5457 C   0  0  0  0  0  0
  -31.5648  -19.6132   19.7310 C   0  0  0  0  0  0
  -30.6456  -20.2776   21.9427 C   0  0  0  0  0  0
  -30.4698  -17.0556   20.4532 C   0  0  0  0  0  0
  -28.8601  -24.0262   20.6020 C   0  0  0  0  0  0
  -27.9036  -22.8889   20.0916 C   0  0  0  0  0  0
  -28.1792  -25.3939   20.9955 C   0  0  0  0  0  0
  -29.9522  -15.6838   20.7326 N   0  0  0  0  0  0
  -28.2311  -21.4469   20.4436 N   0  3  1  0  0  0
  -31.4678  -12.4233   19.1613 H   0  0  0  0  0  0
  -30.3121  -11.3502   19.8947 H   0  0  0  0  0  0
  -29.7615  -11.7471   17.4655 H   0  0  0  0  0  0
  -29.6636  -13.4662   17.7522 H   0  0  0  0  0  0
  -27.8487  -11.2973   18.8578 H   0  0  0  0  0  0
  -27.3757  -12.5869   17.7857 H   0  0  0  0  0  0
  -27.6734  -14.2573   19.5169 H   0  0  0  0  0  0
  -28.6854  -12.0786   21.4111 H   0  0  0  0  0  0
  -28.4635  -13.7592   21.8182 H   0  0  0  0  0  0
  -25.2787   -9.5696   22.4758 H   0  0  0  0  0  0
  -24.0021   -7.4641   22.7478 H   0  0  0  0  0  0
  -21.0852   -8.8803   19.8961 H   0  0  0  0  0  0
  -22.3724  -10.9699   19.6175 H   0  0  0  0  0  0
  -21.1991   -7.6153   23.9717 H   0  0  0  0  0  0
  -21.1490   -6.0530   25.9080 H   0  0  0  0  0  0
  -22.0594   -2.7623   23.2828 H   0  0  0  0  0  0
  -22.4058  -11.9915   22.4809 H   0  0  0  0  0  0
  -21.1091  -13.1309   22.2598 H   0  0  0  0  0  0
  -24.6557  -15.8441   20.5093 H   0  0  0  0  0  0
  -26.2674  -15.6242   20.0534 H   0  0  0  0  0  0
  -26.7142  -32.5498   23.1173 H   0  0  0  0  0  0
  -25.0016  -33.9779   25.0441 H   0  0  0  0  0  0
  -22.6999  -31.3042   21.4089 H   0  0  0  0  0  0
  -23.3745  -35.9643   23.3303 H   0  0  0  0  0  0
  -24.3580  -36.8927   22.2056 H   0  0  0  0  0  0
  -23.7235  -37.6514   23.6655 H   0  0  0  0  0  0
  -26.0716  -31.5831   20.6041 H   0  0  0  0  0  0
  -26.8278  -30.8634   21.9976 H   0  0  0  0  0  0
  -28.1137  -29.0517   21.1716 H   0  0  0  0  0  0
  -26.0380  -25.9442   19.0212 H   0  0  0  0  0  0
  -23.9735  -27.2992   19.0308 H   0  0  0  0  0  0
  -23.7391  -30.5962   19.4058 H   0  0  0  0  0  0
  -22.7457  -29.2464   19.8643 H   0  0  0  0  0  0
  -25.1283  -36.1966   25.0828 H   0  0  0  0  0  0
  -20.9957  -28.3237   24.1429 H   0  0  0  0  0  0
  -20.5655  -26.2280   23.3615 H   0  0  0  0  0  0
  -21.6628  -26.7432   22.1219 H   0  0  0  0  0  0
  -19.6903  -25.6293   21.1241 H   0  0  0  0  0  0
  -19.6683  -27.3188   20.6738 H   0  0  0  0  0  0
  -17.4194  -26.6676   21.4007 H   0  0  0  0  0  0
  -18.0304  -26.0056   22.9003 H   0  0  0  0  0  0
  -19.7924  -30.7237   24.2297 H   0  0  0  0  0  0
  -17.5011  -31.6271   24.5142 H   0  0  0  0  0  0
  -15.5342  -30.2985   23.7649 H   0  0  0  0  0  0
  -15.8660  -28.0813   22.7081 H   0  0  0  0  0  0
  -24.5880  -30.7091   25.7819 H   0  0  0  0  0  0
  -24.8914  -32.2893   26.4933 H   0  0  0  0  0  0
  -25.8046  -30.8896   27.0254 H   0  0  0  0  0  0
  -26.2870  -29.6808   24.1170 H   0  0  0  0  0  0
  -27.3981  -29.7259   25.4663 H   0  0  0  0  0  0
  -27.8747  -30.4324   23.9397 H   0  0  0  0  0  0
  -27.2665  -33.3605   26.2122 H   0  0  0  0  0  0
  -28.3827  -32.6913   25.0315 H   0  0  0  0  0  0
  -28.0748  -31.8428   26.5384 H   0  0  0  0  0  0
  -28.2601  -38.0102   24.7500 H   0  0  0  0  0  0
  -28.1067  -36.2632   24.6281 H   0  0  0  0  0  0
  -27.2303  -37.1455   25.8867 H   0  0  0  0  0  0
  -20.9343  -29.8767   21.6939 H   0  0  0  0  0  0
  -26.0175  -38.2873   24.1398 H   0  0  0  0  0  0
  -27.2041  -19.1203   21.7505 H   0  0  0  0  0  0
  -26.1487  -18.6815   20.4549 H   0  0  0  0  0  0
  -28.2791  -18.4145   18.9436 H   0  0  0  0  0  0
  -27.8248  -17.2019   20.0926 H   0  0  0  0  0  0
  -26.1660  -21.0363   20.6214 H   0  0  0  0  0  0
  -26.8413  -20.5944   19.0809 H   0  0  0  0  0  0
  -29.2209  -20.5880   18.7673 H   0  0  0  0  0  0
  -30.1359  -21.7388   19.6596 H   0  0  0  0  0  0
  -29.3074  -18.2179   21.7860 H   0  0  0  0  0  0
  -31.3809  -19.1949   18.7401 H   0  0  0  0  0  0
  -32.3120  -18.9944   20.2263 H   0  0  0  0  0  0
  -32.0494  -20.5779   19.5755 H   0  0  0  0  0  0
  -29.7760  -20.4299   22.5826 H   0  0  0  0  0  0
  -31.1752  -21.2296   21.8819 H   0  0  0  0  0  0
  -31.3018  -19.5761   22.4603 H   0  0  0  0  0  0
  -31.3799  -17.1618   21.0448 H   0  0  0  0  0  0
  -30.7782  -17.0628   19.4067 H   0  0  0  0  0  0
  -29.6682  -24.2000   19.8901 H   0  0  0  0  0  0
  -29.3514  -23.6553   21.5021 H   0  0  0  0  0  0
  -27.7783  -22.9847   19.0125 H   0  0  0  0  0  0
  -26.9193  -23.0990   20.5114 H   0  0  0  0  0  0
  -28.6192  -25.7071   21.9433 H   0  0  0  0  0  0
  -27.1310  -25.2137   21.2430 H   0  0  0  0  0  0
  -28.9844  -15.5706   20.9928 H   0  0  0  0  0  0
  -28.3869  -21.4193   21.4395 H   0  0  0  0  0  0
  1 25  1  0  0  0
  1 30  2  0  0  0
  1 83  1  0  0  0
  2  3  1  0  0  0
  2 25  1  0  0  0
  2 85  1  0  0  0
  2 86  1  0  0  0
  3  4  1  0  0  0
  3 87  1  0  0  0
  3 88  1  0  0  0
  4  5  1  0  0  0
  4 89  1  0  0  0
  4 90  1  0  0  0
  5  6  1  0  0  0
  5 26  1  0  0  0
  5 91  1  0  0  0
  6 25  1  0  0  0
  6 92  1  0  0  0
  6 93  1  0  0  0
  7  8  2  0  0  0
  7 26  1  0  0  0
  7 29  1  0  0  0
  8  9  1  0  0  0
  8 22  1  0  0  0
  9 10  1  0  0  0
  9 27  2  0  0  0
 10 11  2  0  0  0
 10 15  1  0  0  0
 11 12  1  0  0  0
 11 94  1  0  0  0
 12 13  2  0  0  0
 12 95  1  0  0  0
 13 14  1  0  0  0
 13 31  1  0  0  0
 14 15  2  0  0  0
 14 96  1  0  0  0
 15 97  1  0  0  0
 16 17  2  0  0  0
 16 21  1  0  0  0
 16 31  1  0  0  0
 17 18  1  0  0  0
 17 98  1  0  0  0
 18 19  2  0  0  0
 18 99  1  0  0  0
 19 20  1  0  0  0
 19 24  1  0  0  0
 20 21  2  0  0  0
 20100  1  0  0  0
 21 23  1  0  0  0
 22 28  1  0  0  0
 22 32  2  0  0  0
 26 27  1  0  0  0
 28101  1  0  0  0
 28102  1  0  0  0
 29103  1  0  0  0
 29104  1  0  0  0
 33 34  1  0  0  0
 33 66  1  0  0  0
 33 70  2  0  0  0
 34 36  1  0  0  0
 34 59  1  0  0  0
 34105  1  0  0  0
 35 44  2  0  0  0
 35 45  1  0  0  0
 35 68  1  0  0  0
 36 56  1  0  0  0
 36106  1  0  0  0
 37 39  1  0  0  0
 37 47  1  0  0  0
 37 66  1  0  0  0
 37107  1  0  0  0
 38 43  2  0  0  0
 38 46  1  0  0  0
 38 47  1  0  0  0
 39 64  1  0  0  0
 39 67  2  0  0  0
 40 52  1  0  0  0
 40 53  2  0  0  0
 40 58  1  0  0  0
 41108  1  0  0  0
 41109  1  0  0  0
 41110  1  0  0  0
 41 48  1  0  0  0
 42 43  1  0  0  0
 42 66  1  0  0  0
 42111  1  0  0  0
 42112  1  0  0  0
 43 44  1  0  0  0
 44113  1  0  0  0
 45 46  2  0  0  0
 45114  1  0  0  0
 46115  1  0  0  0
 47116  1  0  0  0
 47117  1  0  0  0
 48 56  1  0  0  0
 48 65  1  0  0  0
 48118  1  0  0  0
 49 50  1  0  0  0
 49 53  1  0  0  0
 49 64  1  0  0  0
 49119  1  0  0  0
 50 51  1  0  0  0
 50120  1  0  0  0
 50121  1  0  0  0
 51 52  1  0  0  0
 51122  1  0  0  0
 51123  1  0  0  0
 52124  1  0  0  0
 52125  1  0  0  0
 53 54  1  0  0  0
 54 55  2  0  0  0
 54126  1  0  0  0
 55 57  1  0  0  0
 55127  1  0  0  0
 56 69  2  0  0  0
 57 58  2  0  0  0
 57128  1  0  0  0
 58129  1  0  0  0
 59 60  1  0  0  0
 59 61  1  0  0  0
 59 62  1  0  0  0
 60130  1  0  0  0
 60131  1  0  0  0
 60132  1  0  0  0
 61133  1  0  0  0
 61134  1  0  0  0
 61135  1  0  0  0
 62136  1  0  0  0
 62137  1  0  0  0
 62138  1  0  0  0
 63 65  1  0  0  0
 63139  1  0  0  0
 63140  1  0  0  0
 63141  1  0  0  0
 64142  1  0  0  0
 65143  1  0  0  0
 68 82  1  0  0  0
 71 72  1  0  0  0
 71 73  1  0  0  0
 71144  1  0  0  0
 71145  1  0  0  0
 72 75  1  0  0  0
 72146  1  0  0  0
 72147  1  0  0  0
 73 84  1  0  0  0
 73148  1  0  0  0
 73149  1  0  0  0
 74 76  1  0  0  0
 74 84  1  0  0  0
 74150  1  0  0  0
 74151  1  0  0  0
 75 76  1  0  0  0
 75 79  1  0  0  0
 75152  1  0  0  0
 76 77  1  0  0  0
 76 78  1  0  0  0
 77153  1  0  0  0
 77154  1  0  0  0
 77155  1  0  0  0
 78156  1  0  0  0
 78157  1  0  0  0
 78158  1  0  0  0
 79 83  1  0  0  0
 79159  1  0  0  0
 79160  1  0  0  0
 80 81  1  0  0  0
 80 82  1  0  0  0
 80161  1  0  0  0
 80162  1  0  0  0
 81163  1  0  0  0
 81164  1  0  0  0
 81 84  1  0  0  0
 82165  1  0  0  0
 82166  1  0  0  0
 83167  1  0  0  0
 84168  1  0  0  0
M  CHG  1  84   1
M  ISO  4   1 100  68 101  82 101  83 100
M  END
> <chiral flag>
0

> <version>
0

> <s_m_source_file>
/data/baiqing/PycharmProjects/Reinvent-master-3.2/result/LINK_invent/BTK/process_docking_weight1_custom_sum_contain_oxygen_bond_distance_aromatic_linkinvent_7_9_3/rearranged_h_0034.sdf

> <i_m_source_file_index>
50

> <r_mmod_Potential_Energy-OPLS-2005>
13.8326253890991

> <r_mmod_Stretch_Energy-OPLS-2005>
63.8891448974609

> <r_mmod_Bend_Energy-OPLS-2005>
149.02229309082

> <r_mmod_Torsional_Energy-OPLS-2005>
314.636138916016

> <r_mmod_Improper_Torsional_Energy-OPLS-2005>
5.81257390975952

> <r_mmod_Van_der_Waal_Energy-OPLS-2005>
138.500183105469

> <r_mmod_Electrostatic_Energy-OPLS-2005>
-252.369583129883

> <r_mmod_Solvation_Energy-OPLS-2005>
-436.116760253906

> <b_mmod_Minimization_Converged-OPLS-2005>
0

> <r_mmod_RMS_Derivative-OPLS-2005>
1.82771360874176

$$$$
51
                    3D
 Structure written by MMmdl.
166175  0  0  1  0            999 V2000
  -30.7381  -14.4993   20.5624 C   0  0  0  0  0  0
  -30.4130  -12.3203   19.4509 C   0  0  0  0  0  0
  -29.4955  -12.4862   18.2237 C   0  0  0  0  0  0
  -28.0206  -12.3403   18.6391 C   0  0  0  0  0  0
  -27.6561  -13.2157   19.8686 C   0  0  2  0  0  0
  -28.6982  -13.0617   21.0009 C   0  0  0  0  0  0
  -25.2565  -13.8174   20.5690 C   0  0  0  0  0  0
  -24.1821  -13.0442   20.9185 C   0  0  0  0  0  0
  -24.6385  -11.6911   20.8750 C   0  0  0  0  0  0
  -23.9055  -10.4294   21.0419 C   0  0  0  0  0  0
  -24.3606   -9.4198   21.9189 C   0  0  0  0  0  0
  -23.6270   -8.2240   22.0759 C   0  0  0  0  0  0
  -22.4260   -8.0276   21.3542 C   0  0  0  0  0  0
  -21.9899   -9.0253   20.4649 C   0  0  0  0  0  0
  -22.7232  -10.2130   20.3059 C   0  0  0  0  0  0
  -21.6844   -6.0731   22.5268 C   0  0  0  0  0  0
  -21.4022   -6.5640   23.8202 C   0  0  0  0  0  0
  -21.3661   -5.6794   24.9170 C   0  0  0  0  0  0
  -21.6038   -4.3053   24.7222 C   0  0  0  0  0  0
  -21.8820   -3.8145   23.4344 C   0  0  0  0  0  0
  -21.9189   -4.6962   22.3401 C   0  0  0  0  0  0
  -22.7846  -13.5241   21.1842 C   0  0  0  0  0  0
  -22.1653   -4.2144   21.0978 F   0  0  0  0  0  0
  -21.5623   -3.4541   25.7737 F   0  0  0  0  0  0
  -30.0274  -13.3425   20.4388 N   0  0  0  0  0  0
  -26.3003  -12.9358   20.3365 N   0  0  0  0  0  0
  -25.9319  -11.6506   20.5797 N   0  0  0  0  0  0
  -22.0483  -12.8236   22.0401 N   0  0  0  0  0  0
  -25.4295  -15.1891   20.4125 N   0  0  0  0  0  0
  -31.8696  -14.6194   20.0878 O   0  0  0  0  0  0
  -21.6621   -6.8873   21.4228 O   0  0  0  0  0  0
  -22.3531  -14.5536   20.6673 O   0  0  0  0  0  0
  -24.6152  -31.8692   23.2108 C   0  0  0  0  0  0
  -25.9053  -32.4826   23.8386 C   0  0  1  0  0  0
  -27.2081  -27.4135   20.1053 C   0  0  0  0  0  0
  -25.5914  -33.8625   24.2321 N   0  0  0  0  0  0
  -23.4002  -30.4985   21.5533 C   0  0  2  0  0  0
  -24.8437  -28.9738   20.1053 C   0  0  0  0  0  0
  -22.7394  -29.4683   22.4981 C   0  0  0  0  0  0
  -18.0273  -28.1380   22.8485 C   0  0  0  0  0  0
  -24.1496  -36.7318   23.2638 C   0  0  0  0  0  0
  -25.9316  -30.8364   21.3613 C   0  0  0  0  0  0
  -26.0086  -29.4716   20.7034 C   0  0  0  0  0  0
  -27.1986  -28.7012   20.6972 C   0  0  0  0  0  0
  -26.0336  -26.9604   19.4620 C   0  0  0  0  0  0
  -24.8527  -27.7190   19.4792 C   0  0  0  0  0  0
  -23.6060  -29.8408   20.1641 C   0  0  0  0  0  0
  -25.4118  -36.3111   24.0330 C   0  0  1  0  0  0
  -20.5857  -28.3677   23.1313 C   0  0  2  0  0  0
  -20.6771  -26.9411   22.5434 C   0  0  0  0  0  0
  -19.5758  -26.6378   21.5226 C   0  0  0  0  0  0
  -18.1926  -26.7922   22.1623 C   0  0  0  0  0  0
  -19.1515  -28.8839   23.2896 C   0  0  0  0  0  0
  -18.9450  -30.1442   23.8915 C   0  0  0  0  0  0
  -17.6454  -30.6591   24.0564 C   0  0  0  0  0  0
  -25.9044  -34.9478   23.5119 C   0  0  0  0  0  0
  -16.5345  -29.9097   23.6328 C   0  0  0  0  0  0
  -16.7257  -28.6509   23.0346 C   0  0  0  0  0  0
  -26.4494  -31.6582   25.0691 C   0  0  0  0  0  0
  -25.3775  -31.3665   26.1443 C   0  0  0  0  0  0
  -27.0317  -30.3031   24.6029 C   0  0  0  0  0  0
  -27.6065  -32.4293   25.7460 C   0  0  0  0  0  0
  -27.5584  -37.1816   24.8467 C   0  0  0  0  0  0
  -21.4123  -29.3045   22.3710 N   0  0  0  0  0  0
  -26.4302  -37.3792   23.9398 N   0  0  0  0  0  0
  -24.6684  -31.0792   22.1016 N   0  0  0  0  0  0
  -23.4167  -28.8242   23.3033 O   0  0  0  0  0  0
  -28.3237  -26.5942   20.1864 O   0  0  0  0  0  0
  -26.5599  -34.8927   22.4678 O   0  0  0  0  0  0
  -23.5350  -32.1451   23.7501 O   0  0  0  0  0  0
  -28.2083  -19.6982   21.8003 C   0  0  0  0  0  0
  -28.8131  -18.4227   21.8676 C   0  0  0  0  0  0
  -30.4821  -19.1747   20.3081 C   0  0  0  0  0  0
  -28.7284  -20.7782   21.0245 C   0  0  0  0  0  0
  -29.9858  -18.1545   21.1459 C   0  0  0  0  0  0
  -29.8844  -20.4599   20.2319 C   0  0  0  0  0  0
  -28.8013  -24.7306   21.7735 C   0  0  0  0  0  0
  -28.2983  -24.2249   19.3566 C   0  0  0  0  0  0
  -29.0412  -23.1891   21.8749 C   0  0  0  0  0  0
  -27.7505  -22.8024   19.6793 C   0  0  0  0  0  0
  -28.0485  -25.2030   20.5138 C   0  0  2  0  0  0
  -28.0707  -22.2208   21.1064 C   0  0  1  0  0  0
  -30.5550  -21.4303   19.2649 C   0  0  0  0  0  0
  -30.7927  -16.8615   21.3539 C   0  0  0  0  0  0
  -26.7048  -22.1841   21.9011 C   0  0  0  0  0  0
  -30.1234  -15.5611   21.1284 N   0  0  0  0  0  0
  -26.8642  -21.8561   23.1858 F   0  0  0  0  0  0
  -26.0903  -23.3639   21.9128 F   0  0  0  0  0  0
  -25.8512  -21.3209   21.3444 F   0  0  0  0  0  0
  -31.4608  -12.3916   19.1521 H   0  0  0  0  0  0
  -30.2973  -11.3255   19.8854 H   0  0  0  0  0  0
  -29.7453  -11.7423   17.4663 H   0  0  0  0  0  0
  -29.6585  -13.4630   17.7668 H   0  0  0  0  0  0
  -27.8580  -11.2888   18.8786 H   0  0  0  0  0  0
  -27.3618  -12.5679   17.8001 H   0  0  0  0  0  0
  -27.6826  -14.2533   19.5328 H   0  0  0  0  0  0
  -28.6772  -12.0504   21.4082 H   0  0  0  0  0  0
  -28.4569  -13.7204   21.8363 H   0  0  0  0  0  0
  -25.2749   -9.5662   22.4768 H   0  0  0  0  0  0
  -23.9966   -7.4641   22.7493 H   0  0  0  0  0  0
  -21.0825   -8.8774   19.8966 H   0  0  0  0  0  0
  -22.3688  -10.9666   19.6171 H   0  0  0  0  0  0
  -21.2018   -7.6148   23.9702 H   0  0  0  0  0  0
  -21.1483   -6.0531   25.9071 H   0  0  0  0  0  0
  -22.0598   -2.7605   23.2844 H   0  0  0  0  0  0
  -22.4093  -11.9899   22.4797 H   0  0  0  0  0  0
  -21.1112  -13.1290   22.2613 H   0  0  0  0  0  0
  -24.6693  -15.8487   20.5334 H   0  0  0  0  0  0
  -26.2866  -15.6285   20.1026 H   0  0  0  0  0  0
  -26.7115  -32.5545   23.1141 H   0  0  0  0  0  0
  -25.0070  -33.9792   25.0470 H   0  0  0  0  0  0
  -22.6887  -31.3168   21.4209 H   0  0  0  0  0  0
  -23.3753  -35.9655   23.3302 H   0  0  0  0  0  0
  -24.3592  -36.8936   22.2052 H   0  0  0  0  0  0
  -23.7258  -37.6524   23.6658 H   0  0  0  0  0  0
  -26.0349  -31.6053   20.5940 H   0  0  0  0  0  0
  -26.8230  -30.8928   21.9742 H   0  0  0  0  0  0
  -28.0913  -29.0756   21.1778 H   0  0  0  0  0  0
  -26.0078  -26.0023   18.9634 H   0  0  0  0  0  0
  -23.9584  -27.3331   19.0107 H   0  0  0  0  0  0
  -23.7094  -30.6225   19.4105 H   0  0  0  0  0  0
  -22.7277  -29.2642   19.8675 H   0  0  0  0  0  0
  -25.1301  -36.1973   25.0822 H   0  0  0  0  0  0
  -20.9942  -28.3267   24.1434 H   0  0  0  0  0  0
  -20.5680  -26.2296   23.3630 H   0  0  0  0  0  0
  -21.6647  -26.7471   22.1232 H   0  0  0  0  0  0
  -19.6939  -25.6286   21.1262 H   0  0  0  0  0  0
  -19.6704  -27.3187   20.6750 H   0  0  0  0  0  0
  -17.4204  -26.6653   21.4018 H   0  0  0  0  0  0
  -18.0331  -26.0064   22.9018 H   0  0  0  0  0  0
  -19.7927  -30.7244   24.2290 H   0  0  0  0  0  0
  -17.5021  -31.6275   24.5162 H   0  0  0  0  0  0
  -15.5345  -30.3017   23.7641 H   0  0  0  0  0  0
  -15.8650  -28.0844   22.7055 H   0  0  0  0  0  0
  -24.5910  -30.7072   25.7758 H   0  0  0  0  0  0
  -24.9025  -32.2821   26.4969 H   0  0  0  0  0  0
  -25.8134  -30.8748   27.0148 H   0  0  0  0  0  0
  -26.2828  -29.6765   24.1167 H   0  0  0  0  0  0
  -27.4203  -29.7283   25.4446 H   0  0  0  0  0  0
  -27.8618  -30.4355   23.9085 H   0  0  0  0  0  0
  -27.2666  -33.3554   26.2107 H   0  0  0  0  0  0
  -28.3843  -32.6915   25.0275 H   0  0  0  0  0  0
  -28.0777  -31.8379   26.5320 H   0  0  0  0  0  0
  -28.2618  -38.0099   24.7490 H   0  0  0  0  0  0
  -28.1062  -36.2624   24.6323 H   0  0  0  0  0  0
  -27.2294  -37.1511   25.8871 H   0  0  0  0  0  0
  -20.9268  -29.8753   21.6930 H   0  0  0  0  0  0
  -26.0191  -38.2871   24.1388 H   0  0  0  0  0  0
  -27.3285  -19.8019   22.4121 H   0  0  0  0  0  0
  -28.3959  -17.6716   22.5243 H   0  0  0  0  0  0
  -31.3748  -18.9776   19.7303 H   0  0  0  0  0  0
  -29.7711  -25.2273   21.8241 H   0  0  0  0  0  0
  -28.2548  -25.0760   22.6529 H   0  0  0  0  0  0
  -27.8173  -24.5882   18.4503 H   0  0  0  0  0  0
  -29.3630  -24.2011   19.1347 H   0  0  0  0  0  0
  -29.0849  -22.9040   22.9243 H   0  0  0  0  0  0
  -30.0587  -23.0204   21.5394 H   0  0  0  0  0  0
  -28.0446  -22.1088   18.8959 H   0  0  0  0  0  0
  -26.6679  -22.8488   19.5549 H   0  0  0  0  0  0
  -26.9994  -25.1069   20.7757 H   0  0  0  0  0  0
  -31.5969  -21.1598   19.0958 H   0  0  0  0  0  0
  -30.5736  -22.4552   19.6097 H   0  0  0  0  0  0
  -30.0583  -21.4041   18.2952 H   0  0  0  0  0  0
  -31.1487  -16.8655   22.3845 H   0  0  0  0  0  0
  -31.6977  -16.9441   20.7487 H   0  0  0  0  0  0
  -29.1879  -15.4404   21.4826 H   0  0  0  0  0  0
  1 25  1  0  0  0
  1 30  2  0  0  0
  1 86  1  0  0  0
  2  3  1  0  0  0
  2 25  1  0  0  0
  2 90  1  0  0  0
  2 91  1  0  0  0
  3  4  1  0  0  0
  3 92  1  0  0  0
  3 93  1  0  0  0
  4  5  1  0  0  0
  4 94  1  0  0  0
  4 95  1  0  0  0
  5  6  1  0  0  0
  5 26  1  0  0  0
  5 96  1  0  0  0
  6 25  1  0  0  0
  6 97  1  0  0  0
  6 98  1  0  0  0
  7  8  2  0  0  0
  7 26  1  0  0  0
  7 29  1  0  0  0
  8  9  1  0  0  0
  8 22  1  0  0  0
  9 10  1  0  0  0
  9 27  2  0  0  0
 10 11  2  0  0  0
 10 15  1  0  0  0
 11 12  1  0  0  0
 11 99  1  0  0  0
 12 13  2  0  0  0
 12100  1  0  0  0
 13 14  1  0  0  0
 13 31  1  0  0  0
 14 15  2  0  0  0
 14101  1  0  0  0
 15102  1  0  0  0
 16 17  2  0  0  0
 16 21  1  0  0  0
 16 31  1  0  0  0
 17 18  1  0  0  0
 17103  1  0  0  0
 18 19  2  0  0  0
 18104  1  0  0  0
 19 20  1  0  0  0
 19 24  1  0  0  0
 20 21  2  0  0  0
 20105  1  0  0  0
 21 23  1  0  0  0
 22 28  1  0  0  0
 22 32  2  0  0  0
 26 27  1  0  0  0
 28106  1  0  0  0
 28107  1  0  0  0
 29108  1  0  0  0
 29109  1  0  0  0
 33 34  1  0  0  0
 33 66  1  0  0  0
 33 70  2  0  0  0
 34 36  1  0  0  0
 34 59  1  0  0  0
 34110  1  0  0  0
 35 44  2  0  0  0
 35 45  1  0  0  0
 35 68  1  0  0  0
 36 56  1  0  0  0
 36111  1  0  0  0
 37 39  1  0  0  0
 37 47  1  0  0  0
 37 66  1  0  0  0
 37112  1  0  0  0
 38 43  2  0  0  0
 38 46  1  0  0  0
 38 47  1  0  0  0
 39 64  1  0  0  0
 39 67  2  0  0  0
 40 52  1  0  0  0
 40 53  2  0  0  0
 40 58  1  0  0  0
 41113  1  0  0  0
 41114  1  0  0  0
 41115  1  0  0  0
 41 48  1  0  0  0
 42 43  1  0  0  0
 42 66  1  0  0  0
 42116  1  0  0  0
 42117  1  0  0  0
 43 44  1  0  0  0
 44118  1  0  0  0
 45 46  2  0  0  0
 45119  1  0  0  0
 46120  1  0  0  0
 47121  1  0  0  0
 47122  1  0  0  0
 48 56  1  0  0  0
 48 65  1  0  0  0
 48123  1  0  0  0
 49 50  1  0  0  0
 49 53  1  0  0  0
 49 64  1  0  0  0
 49124  1  0  0  0
 50 51  1  0  0  0
 50125  1  0  0  0
 50126  1  0  0  0
 51 52  1  0  0  0
 51127  1  0  0  0
 51128  1  0  0  0
 52129  1  0  0  0
 52130  1  0  0  0
 53 54  1  0  0  0
 54 55  2  0  0  0
 54131  1  0  0  0
 55 57  1  0  0  0
 55132  1  0  0  0
 56 69  2  0  0  0
 57 58  2  0  0  0
 57133  1  0  0  0
 58134  1  0  0  0
 59 60  1  0  0  0
 59 61  1  0  0  0
 59 62  1  0  0  0
 60135  1  0  0  0
 60136  1  0  0  0
 60137  1  0  0  0
 61138  1  0  0  0
 61139  1  0  0  0
 61140  1  0  0  0
 62141  1  0  0  0
 62142  1  0  0  0
 62143  1  0  0  0
 63 65  1  0  0  0
 63144  1  0  0  0
 63145  1  0  0  0
 63146  1  0  0  0
 64147  1  0  0  0
 65148  1  0  0  0
 68 81  1  0  0  0
 71 72  2  0  0  0
 71 74  1  0  0  0
 71149  1  0  0  0
 72 75  1  0  0  0
 72150  1  0  0  0
 73 75  2  0  0  0
 73 76  1  0  0  0
 73151  1  0  0  0
 74 76  2  0  0  0
 74 82  1  0  0  0
 75 84  1  0  0  0
 76 83  1  0  0  0
 77 79  1  0  0  0
 77 81  1  0  0  0
 77152  1  0  0  0
 77153  1  0  0  0
 78 80  1  0  0  0
 78 81  1  0  0  0
 78154  1  0  0  0
 78155  1  0  0  0
 79 82  1  0  0  0
 79156  1  0  0  0
 79157  1  0  0  0
 80 82  1  0  0  0
 80158  1  0  0  0
 80159  1  0  0  0
 81160  1  0  0  0
 82 85  1  0  0  0
 83161  1  0  0  0
 83162  1  0  0  0
 83163  1  0  0  0
 84 86  1  0  0  0
 84164  1  0  0  0
 84165  1  0  0  0
 85 87  1  0  0  0
 85 88  1  0  0  0
 85 89  1  0  0  0
 86166  1  0  0  0
M  ISO  4   1 100  68 101  81 101  86 100
M  END
> <chiral flag>
0

> <version>
0

> <s_m_source_file>
/data/baiqing/PycharmProjects/Reinvent-master-3.2/result/LINK_invent/BTK/process_docking_weight1_custom_sum_contain_oxygen_bond_distance_aromatic_linkinvent_7_9_3/rearranged_h_0034.sdf

> <i_m_source_file_index>
51

> <r_mmod_Potential_Energy-OPLS-2005>
124.096542358398

> <r_mmod_Stretch_Energy-OPLS-2005>
60.0845146179199

> <r_mmod_Bend_Energy-OPLS-2005>
126.251472473145

> <r_mmod_Torsional_Energy-OPLS-2005>
278.66015625

> <r_mmod_Improper_Torsional_Energy-OPLS-2005>
2.97564435005188

> <r_mmod_Van_der_Waal_Energy-OPLS-2005>
189.02619934082

> <r_mmod_Electrostatic_Energy-OPLS-2005>
-360.651916503906

> <r_mmod_Solvation_Energy-OPLS-2005>
-195.169174194336

> <b_mmod_Minimization_Converged-OPLS-2005>
0

> <r_mmod_RMS_Derivative-OPLS-2005>
2.44248723983765

$$$$
52
                    3D
 Structure written by MMmdl.
152160  0  0  1  0            999 V2000
  -30.5856  -14.8667   20.4378 C   0  0  0  0  0  0
  -30.4313  -12.5353   19.4939 C   0  0  0  0  0  0
  -29.5162  -12.5197   18.2497 C   0  0  0  0  0  0
  -28.0464  -12.3204   18.6648 C   0  0  0  0  0  0
  -27.6318  -13.2439   19.8413 C   0  0  2  0  0  0
  -28.6736  -13.2477   20.9798 C   0  0  0  0  0  0
  -25.2468  -13.8214   20.5698 C   0  0  0  0  0  0
  -24.1784  -13.0443   20.9213 C   0  0  0  0  0  0
  -24.6395  -11.6925   20.8746 C   0  0  0  0  0  0
  -23.9077  -10.4296   21.0401 C   0  0  0  0  0  0
  -24.3631   -9.4212   21.9179 C   0  0  0  0  0  0
  -23.6301   -8.2249   22.0753 C   0  0  0  0  0  0
  -22.4279   -8.0288   21.3550 C   0  0  0  0  0  0
  -21.9915   -9.0261   20.4649 C   0  0  0  0  0  0
  -22.7247  -10.2138   20.3053 C   0  0  0  0  0  0
  -21.6860   -6.0735   22.5279 C   0  0  0  0  0  0
  -21.4018   -6.5636   23.8211 C   0  0  0  0  0  0
  -21.3660   -5.6788   24.9172 C   0  0  0  0  0  0
  -21.6047   -4.3052   24.7222 C   0  0  0  0  0  0
  -21.8819   -3.8145   23.4341 C   0  0  0  0  0  0
  -21.9195   -4.6963   22.3400 C   0  0  0  0  0  0
  -22.7806  -13.5216   21.1875 C   0  0  0  0  0  0
  -22.1667   -4.2149   21.0976 F   0  0  0  0  0  0
  -21.5626   -3.4535   25.7733 F   0  0  0  0  0  0
  -29.9587  -13.6299   20.3849 N   0  0  0  0  0  0
  -26.2891  -12.9438   20.3246 N   0  0  0  0  0  0
  -25.9324  -11.6570   20.5733 N   0  0  0  0  0  0
  -22.0457  -12.8203   22.0431 N   0  0  0  0  0  0
  -25.4133  -15.1940   20.4112 N   0  0  0  0  0  0
  -31.7873  -14.9150   20.1594 O   0  0  0  0  0  0
  -21.6648   -6.8882   21.4243 O   0  0  0  0  0  0
  -22.3480  -14.5515   20.6711 O   0  0  0  0  0  0
  -24.6399  -31.8479   23.1914 C   0  0  0  0  0  0
  -25.9191  -32.4718   23.8287 C   0  0  1  0  0  0
  -27.2169  -27.1755   20.1502 C   0  0  0  0  0  0
  -25.5956  -33.8522   24.2216 N   0  0  0  0  0  0
  -23.4413  -30.4682   21.5361 C   0  0  2  0  0  0
  -24.8895  -28.8996   20.1103 C   0  0  0  0  0  0
  -22.7549  -29.4570   22.4877 C   0  0  0  0  0  0
  -18.0305  -28.1385   22.8484 C   0  0  0  0  0  0
  -24.1492  -36.7262   23.2642 C   0  0  0  0  0  0
  -25.9938  -30.7351   21.3831 C   0  0  0  0  0  0
  -26.0651  -29.3492   20.7253 C   0  0  0  0  0  0
  -27.2308  -28.5029   20.7272 C   0  0  0  0  0  0
  -26.0169  -26.8155   19.4987 C   0  0  0  0  0  0
  -24.8761  -27.6451   19.4820 C   0  0  0  0  0  0
  -23.6649  -29.7980   20.1544 C   0  0  0  0  0  0
  -25.4125  -36.3049   24.0321 C   0  0  1  0  0  0
  -20.5916  -28.3716   23.1248 C   0  0  2  0  0  0
  -20.6789  -26.9424   22.5407 C   0  0  0  0  0  0
  -19.5763  -26.6381   21.5215 C   0  0  0  0  0  0
  -18.1945  -26.7926   22.1626 C   0  0  0  0  0  0
  -19.1559  -28.8868   23.2860 C   0  0  0  0  0  0
  -18.9474  -30.1465   23.8884 C   0  0  0  0  0  0
  -17.6470  -30.6585   24.0560 C   0  0  0  0  0  0
  -25.9074  -34.9421   23.5076 C   0  0  0  0  0  0
  -16.5364  -29.9077   23.6331 C   0  0  0  0  0  0
  -16.7289  -28.6492   23.0361 C   0  0  0  0  0  0
  -26.4524  -31.6567   25.0708 C   0  0  0  0  0  0
  -25.3721  -31.3731   26.1410 C   0  0  0  0  0  0
  -27.0384  -30.2973   24.6249 C   0  0  0  0  0  0
  -27.6061  -32.4323   25.7491 C   0  0  0  0  0  0
  -27.5583  -37.1791   24.8469 C   0  0  0  0  0  0
  -21.4246  -29.3047   22.3622 N   0  0  0  0  0  0
  -26.4293  -37.3759   23.9412 N   0  0  0  0  0  0
  -24.7114  -31.0371   22.0925 N   0  0  0  0  0  0
  -23.4207  -28.8122   23.3017 O   0  0  0  0  0  0
  -28.2845  -26.2230   20.2232 O   0  0  0  0  0  0
  -26.5653  -34.8911   22.4651 O   0  0  0  0  0  0
  -23.5531  -32.1332   23.7164 O   0  0  0  0  0  0
  -28.9324  -21.0955   21.5995 C   0  0  0  0  0  0
  -29.0969  -21.9165   20.4346 C   0  0  0  0  0  0
  -29.2067  -19.6730   21.6293 C   0  0  0  0  0  0
  -29.4793  -21.1105   19.3107 C   0  0  0  0  0  0
  -29.6503  -18.9688   20.4659 C   0  0  0  0  0  0
  -29.7349  -21.7696   17.9712 C   0  0  0  0  0  0
  -29.1714  -23.5609   20.4947 C   0  0  0  0  0  0
  -30.4079  -17.5141   20.4715 C   0  0  0  0  0  0
  -28.0329  -24.7039   20.1109 C   0  0  0  0  0  0
  -29.7341  -19.7433   19.3314 N   0  0  0  0  0  0
  -29.8553  -16.0619   20.5877 N   0  0  0  0  0  0
  -29.1050  -18.8409   23.1399 Cl  0  0  0  0  0  0
  -31.4703  -12.6697   19.1893 H   0  0  0  0  0  0
  -30.3963  -11.5769   20.0138 H   0  0  0  0  0  0
  -29.8231  -11.7309   17.5616 H   0  0  0  0  0  0
  -29.6217  -13.4597   17.7060 H   0  0  0  0  0  0
  -27.9272  -11.2762   18.9557 H   0  0  0  0  0  0
  -27.3871  -12.4748   17.8101 H   0  0  0  0  0  0
  -27.6034  -14.2521   19.4278 H   0  0  0  0  0  0
  -28.7391  -12.2686   21.4554 H   0  0  0  0  0  0
  -28.3869  -13.9540   21.7608 H   0  0  0  0  0  0
  -25.2776   -9.5687   22.4752 H   0  0  0  0  0  0
  -24.0017   -7.4632   22.7464 H   0  0  0  0  0  0
  -21.0850   -8.8772   19.8946 H   0  0  0  0  0  0
  -22.3703  -10.9678   19.6160 H   0  0  0  0  0  0
  -21.2016   -7.6144   23.9715 H   0  0  0  0  0  0
  -21.1485   -6.0517   25.9074 H   0  0  0  0  0  0
  -22.0599   -2.7608   23.2839 H   0  0  0  0  0  0
  -22.4093  -11.9884   22.4843 H   0  0  0  0  0  0
  -21.1069  -13.1216   22.2624 H   0  0  0  0  0  0
  -24.6423  -15.8442   20.5199 H   0  0  0  0  0  0
  -26.2532  -15.6353   20.0607 H   0  0  0  0  0  0
  -26.7256  -32.5339   23.1020 H   0  0  0  0  0  0
  -25.0098  -33.9643   25.0360 H   0  0  0  0  0  0
  -22.7426  -31.2934   21.3841 H   0  0  0  0  0  0
  -23.3766  -35.9581   23.3292 H   0  0  0  0  0  0
  -24.3580  -36.8899   22.2059 H   0  0  0  0  0  0
  -23.7227  -37.6450   23.6677 H   0  0  0  0  0  0
  -26.1456  -31.4934   20.6136 H   0  0  0  0  0  0
  -26.8659  -30.7836   22.0234 H   0  0  0  0  0  0
  -28.1276  -28.8418   21.2268 H   0  0  0  0  0  0
  -25.9308  -25.8555   19.0124 H   0  0  0  0  0  0
  -23.9784  -27.2961   18.9904 H   0  0  0  0  0  0
  -23.7996  -30.5726   19.3983 H   0  0  0  0  0  0
  -22.7802  -29.2382   19.8452 H   0  0  0  0  0  0
  -25.1314  -36.1886   25.0812 H   0  0  0  0  0  0
  -21.0011  -28.3297   24.1368 H   0  0  0  0  0  0
  -20.5693  -26.2330   23.3623 H   0  0  0  0  0  0
  -21.6656  -26.7438   22.1203 H   0  0  0  0  0  0
  -19.6930  -25.6287   21.1261 H   0  0  0  0  0  0
  -19.6692  -27.3180   20.6734 H   0  0  0  0  0  0
  -17.4217  -26.6681   21.4023 H   0  0  0  0  0  0
  -18.0335  -26.0063   22.9016 H   0  0  0  0  0  0
  -19.7950  -30.7291   24.2242 H   0  0  0  0  0  0
  -17.5022  -31.6264   24.5163 H   0  0  0  0  0  0
  -15.5365  -30.2978   23.7655 H   0  0  0  0  0  0
  -15.8689  -28.0806   22.7088 H   0  0  0  0  0  0
  -24.5904  -30.7080   25.7723 H   0  0  0  0  0  0
  -24.8907  -32.2901   26.4813 H   0  0  0  0  0  0
  -25.8015  -30.8914   27.0201 H   0  0  0  0  0  0
  -26.2983  -29.6703   24.1267 H   0  0  0  0  0  0
  -27.4033  -29.7261   25.4796 H   0  0  0  0  0  0
  -27.8876  -30.4230   23.9530 H   0  0  0  0  0  0
  -27.2660  -33.3634   26.2037 H   0  0  0  0  0  0
  -28.3889  -32.6867   25.0332 H   0  0  0  0  0  0
  -28.0711  -31.8469   26.5435 H   0  0  0  0  0  0
  -28.2599  -38.0092   24.7528 H   0  0  0  0  0  0
  -28.1081  -36.2625   24.6282 H   0  0  0  0  0  0
  -27.2304  -37.1422   25.8872 H   0  0  0  0  0  0
  -20.9452  -29.8747   21.6797 H   0  0  0  0  0  0
  -26.0167  -38.2831   24.1407 H   0  0  0  0  0  0
  -28.6784  -21.5785   22.5318 H   0  0  0  0  0  0
  -30.7223  -22.2317   17.9599 H   0  0  0  0  0  0
  -28.9902  -22.5397   17.7702 H   0  0  0  0  0  0
  -29.6901  -21.0453   17.1577 H   0  0  0  0  0  0
  -30.0551  -23.8217   19.9121 H   0  0  0  0  0  0
  -29.4689  -23.7841   21.5194 H   0  0  0  0  0  0
  -31.1422  -17.5933   21.2738 H   0  0  0  0  0  0
  -31.0145  -17.5107   19.5657 H   0  0  0  0  0  0
  -27.1517  -24.4864   20.7163 H   0  0  0  0  0  0
  -27.7364  -24.5121   19.0799 H   0  0  0  0  0  0
  -28.8665  -15.9761   20.7628 H   0  0  0  0  0  0
  1 25  1  0  0  0
  1 30  2  0  0  0
  1 81  1  0  0  0
  2  3  1  0  0  0
  2 25  1  0  0  0
  2 83  1  0  0  0
  2 84  1  0  0  0
  3  4  1  0  0  0
  3 85  1  0  0  0
  3 86  1  0  0  0
  4  5  1  0  0  0
  4 87  1  0  0  0
  4 88  1  0  0  0
  5  6  1  0  0  0
  5 26  1  0  0  0
  5 89  1  0  0  0
  6 25  1  0  0  0
  6 90  1  0  0  0
  6 91  1  0  0  0
  7  8  2  0  0  0
  7 26  1  0  0  0
  7 29  1  0  0  0
  8  9  1  0  0  0
  8 22  1  0  0  0
  9 10  1  0  0  0
  9 27  2  0  0  0
 10 11  2  0  0  0
 10 15  1  0  0  0
 11 12  1  0  0  0
 11 92  1  0  0  0
 12 13  2  0  0  0
 12 93  1  0  0  0
 13 14  1  0  0  0
 13 31  1  0  0  0
 14 15  2  0  0  0
 14 94  1  0  0  0
 15 95  1  0  0  0
 16 17  2  0  0  0
 16 21  1  0  0  0
 16 31  1  0  0  0
 17 18  1  0  0  0
 17 96  1  0  0  0
 18 19  2  0  0  0
 18 97  1  0  0  0
 19 20  1  0  0  0
 19 24  1  0  0  0
 20 21  2  0  0  0
 20 98  1  0  0  0
 21 23  1  0  0  0
 22 28  1  0  0  0
 22 32  2  0  0  0
 26 27  1  0  0  0
 28 99  1  0  0  0
 28100  1  0  0  0
 29101  1  0  0  0
 29102  1  0  0  0
 33 34  1  0  0  0
 33 66  1  0  0  0
 33 70  2  0  0  0
 34 36  1  0  0  0
 34 59  1  0  0  0
 34103  1  0  0  0
 35 44  2  0  0  0
 35 45  1  0  0  0
 35 68  1  0  0  0
 36 56  1  0  0  0
 36104  1  0  0  0
 37 39  1  0  0  0
 37 47  1  0  0  0
 37 66  1  0  0  0
 37105  1  0  0  0
 38 43  2  0  0  0
 38 46  1  0  0  0
 38 47  1  0  0  0
 39 64  1  0  0  0
 39 67  2  0  0  0
 40 52  1  0  0  0
 40 53  2  0  0  0
 40 58  1  0  0  0
 41106  1  0  0  0
 41107  1  0  0  0
 41108  1  0  0  0
 41 48  1  0  0  0
 42 43  1  0  0  0
 42 66  1  0  0  0
 42109  1  0  0  0
 42110  1  0  0  0
 43 44  1  0  0  0
 44111  1  0  0  0
 45 46  2  0  0  0
 45112  1  0  0  0
 46113  1  0  0  0
 47114  1  0  0  0
 47115  1  0  0  0
 48 56  1  0  0  0
 48 65  1  0  0  0
 48116  1  0  0  0
 49 50  1  0  0  0
 49 53  1  0  0  0
 49 64  1  0  0  0
 49117  1  0  0  0
 50 51  1  0  0  0
 50118  1  0  0  0
 50119  1  0  0  0
 51 52  1  0  0  0
 51120  1  0  0  0
 51121  1  0  0  0
 52122  1  0  0  0
 52123  1  0  0  0
 53 54  1  0  0  0
 54 55  2  0  0  0
 54124  1  0  0  0
 55 57  1  0  0  0
 55125  1  0  0  0
 56 69  2  0  0  0
 57 58  2  0  0  0
 57126  1  0  0  0
 58127  1  0  0  0
 59 60  1  0  0  0
 59 61  1  0  0  0
 59 62  1  0  0  0
 60128  1  0  0  0
 60129  1  0  0  0
 60130  1  0  0  0
 61131  1  0  0  0
 61132  1  0  0  0
 61133  1  0  0  0
 62134  1  0  0  0
 62135  1  0  0  0
 62136  1  0  0  0
 63 65  1  0  0  0
 63137  1  0  0  0
 63138  1  0  0  0
 63139  1  0  0  0
 64140  1  0  0  0
 65141  1  0  0  0
 68 79  1  0  0  0
 71 72  2  0  0  0
 71 73  1  0  0  0
 71142  1  0  0  0
 72 74  1  0  0  0
 72 77  1  0  0  0
 73 75  2  0  0  0
 73 82  1  0  0  0
 74 76  1  0  0  0
 74 80  2  0  0  0
 75 78  1  0  0  0
 75 80  1  0  0  0
 76143  1  0  0  0
 76144  1  0  0  0
 76145  1  0  0  0
 77 79  1  0  0  0
 77146  1  0  0  0
 77147  1  0  0  0
 78 81  1  0  0  0
 78148  1  0  0  0
 78149  1  0  0  0
 79150  1  0  0  0
 79151  1  0  0  0
 81152  1  0  0  0
M  ISO  4   1 100  68 101  79 101  81 100
M  END
> <chiral flag>
0

> <version>
0

> <s_m_source_file>
/data/baiqing/PycharmProjects/Reinvent-master-3.2/result/LINK_invent/BTK/process_docking_weight1_custom_sum_contain_oxygen_bond_distance_aromatic_linkinvent_7_9_3/rearranged_h_0034.sdf

> <i_m_source_file_index>
52

> <r_mmod_Potential_Energy-OPLS-2005>
158.006851196289

> <r_mmod_Stretch_Energy-OPLS-2005>
191.518005371094

> <r_mmod_Bend_Energy-OPLS-2005>
234.619689941406

> <r_mmod_Torsional_Energy-OPLS-2005>
219.890670776367

> <r_mmod_Improper_Torsional_Energy-OPLS-2005>
9.57854175567627

> <r_mmod_Van_der_Waal_Energy-OPLS-2005>
133.160369873047

> <r_mmod_Electrostatic_Energy-OPLS-2005>
-560.725158691406

> <r_mmod_Solvation_Energy-OPLS-2005>
-218.191421508789

> <b_mmod_Minimization_Converged-OPLS-2005>
0

> <r_mmod_RMS_Derivative-OPLS-2005>
0.880309700965881

$$$$
53
                    3D
 Structure written by MMmdl.
171179  0  0  1  0            999 V2000
  -30.6336  -14.5477   20.5277 C   0  0  0  0  0  0
  -30.4287  -12.3691   19.4294 C   0  0  0  0  0  0
  -29.4754  -12.4921   18.2168 C   0  0  0  0  0  0
  -28.0045  -12.3349   18.6355 C   0  0  0  0  0  0
  -27.6429  -13.1966   19.8646 C   0  0  2  0  0  0
  -28.6820  -13.0563   20.9964 C   0  0  0  0  0  0
  -25.2520  -13.8184   20.5761 C   0  0  0  0  0  0
  -24.1815  -13.0473   20.9251 C   0  0  0  0  0  0
  -24.6386  -11.6892   20.8771 C   0  0  0  0  0  0
  -23.9093  -10.4280   21.0449 C   0  0  0  0  0  0
  -24.3658   -9.4189   21.9208 C   0  0  0  0  0  0
  -23.6341   -8.2207   22.0734 C   0  0  0  0  0  0
  -22.4292   -8.0275   21.3562 C   0  0  0  0  0  0
  -21.9947   -9.0228   20.4642 C   0  0  0  0  0  0
  -22.7276  -10.2109   20.3099 C   0  0  0  0  0  0
  -21.6856   -6.0730   22.5278 C   0  0  0  0  0  0
  -21.3982   -6.5634   23.8200 C   0  0  0  0  0  0
  -21.3666   -5.6834   24.9174 C   0  0  0  0  0  0
  -21.6087   -4.3085   24.7254 C   0  0  0  0  0  0
  -21.8819   -3.8157   23.4358 C   0  0  0  0  0  0
  -21.9196   -4.6972   22.3405 C   0  0  0  0  0  0
  -22.7845  -13.5144   21.2015 C   0  0  0  0  0  0
  -22.1679   -4.2148   21.0997 F   0  0  0  0  0  0
  -21.5699   -3.4566   25.7744 F   0  0  0  0  0  0
  -30.0099  -13.3505   20.4357 N   0  0  0  0  0  0
  -26.2903  -12.9325   20.3349 N   0  0  0  0  0  0
  -25.9315  -11.6491   20.5871 N   0  0  0  0  0  0
  -22.0650  -12.7945   22.0502 N   0  0  0  0  0  0
  -25.4480  -15.1914   20.4211 N   0  0  0  0  0  0
  -31.8019  -14.7312   20.1709 O   0  0  0  0  0  0
  -21.6700   -6.8868   21.4206 O   0  0  0  0  0  0
  -22.3468  -14.5474   20.6958 O   0  0  0  0  0  0
  -24.6203  -31.8679   23.2384 C   0  0  0  0  0  0
  -25.9092  -32.4881   23.8610 C   0  0  1  0  0  0
  -27.2381  -27.4850   20.0681 C   0  0  0  0  0  0
  -25.6059  -33.8689   24.2530 N   0  0  0  0  0  0
  -23.4118  -30.4836   21.5889 C   0  0  2  0  0  0
  -24.8627  -29.0010   20.1041 C   0  0  0  0  0  0
  -22.7547  -29.4446   22.5251 C   0  0  0  0  0  0
  -18.0333  -28.1245   22.8465 C   0  0  0  0  0  0
  -24.1491  -36.7223   23.2631 C   0  0  0  0  0  0
  -25.9397  -30.8600   21.3836 C   0  0  0  0  0  0
  -26.0231  -29.5071   20.7080 C   0  0  0  0  0  0
  -27.2151  -28.7497   20.7012 C   0  0  0  0  0  0
  -26.0916  -27.0360   19.3794 C   0  0  0  0  0  0
  -24.8872  -27.7579   19.4487 C   0  0  0  0  0  0
  -23.6194  -29.8555   20.1878 C   0  0  0  0  0  0
  -25.4112  -36.3109   24.0413 C   0  0  1  0  0  0
  -20.5907  -28.3463   23.1387 C   0  0  2  0  0  0
  -20.6831  -26.9183   22.5500 C   0  0  0  0  0  0
  -19.5880  -26.6302   21.5236 C   0  0  0  0  0  0
  -18.2034  -26.7753   22.1618 C   0  0  0  0  0  0
  -19.1559  -28.8758   23.2847 C   0  0  0  0  0  0
  -18.9505  -30.1406   23.8741 C   0  0  0  0  0  0
  -17.6487  -30.6518   24.0414 C   0  0  0  0  0  0
  -25.9018  -34.9503   23.5179 C   0  0  0  0  0  0
  -16.5386  -29.8932   23.6295 C   0  0  0  0  0  0
  -16.7297  -28.6354   23.0318 C   0  0  0  0  0  0
  -26.4526  -31.6629   25.0866 C   0  0  0  0  0  0
  -25.3734  -31.3752   26.1593 C   0  0  0  0  0  0
  -27.0503  -30.3181   24.6178 C   0  0  0  0  0  0
  -27.6209  -32.4306   25.7558 C   0  0  0  0  0  0
  -27.5590  -37.1853   24.8509 C   0  0  0  0  0  0
  -21.4267  -29.2839   22.3961 N   0  0  0  0  0  0
  -26.4293  -37.3813   23.9449 N   0  0  0  0  0  0
  -24.6757  -31.0791   22.1329 N   0  0  0  0  0  0
  -23.4344  -28.8024   23.3301 O   0  0  0  0  0  0
  -28.3444  -26.6781   20.1334 O   0  0  0  0  0  0
  -26.5369  -34.8895   22.4620 O   0  0  0  0  0  0
  -23.5406  -32.1373   23.7824 O   0  0  0  0  0  0
  -28.0011  -23.2754   21.2751 C   0  0  0  0  0  0
  -26.0581  -24.6860   21.1848 C   0  0  0  0  0  0
  -27.4622  -24.5720   21.2100 C   0  0  0  0  0  0
  -27.1779  -22.1296   21.2300 C   0  0  0  0  0  0
  -25.2258  -23.5746   20.9523 C   0  0  0  0  0  0
  -25.7897  -22.2582   20.9006 C   0  0  0  0  0  0
  -27.8924  -20.8192   21.5354 C   0  0  0  0  0  0
  -23.7368  -23.8761   20.7620 C   0  0  0  0  0  0
  -24.8522  -21.0835   20.5392 C   0  0  0  0  0  0
  -28.3730  -25.8075   21.2809 C   0  0  0  0  0  0
  -25.3806  -19.7898   19.8513 C   0  0  0  0  0  0
  -26.4280  -19.9407   18.7086 C   0  0  0  0  0  0
  -27.1893  -18.6409   18.3089 C   0  0  0  0  0  0
  -28.6811  -18.5703   18.7909 C   0  0  0  0  0  0
  -28.8688  -17.8814   20.1943 C   0  0  0  0  0  0
  -30.0800  -17.0100   20.7087 C   0  0  0  0  0  0
  -29.8092  -15.5710   20.8256 N   0  0  0  0  0  0
  -31.4532  -12.5481   19.1047 H   0  0  0  0  0  0
  -30.4167  -11.3748   19.8791 H   0  0  0  0  0  0
  -29.7259  -11.7497   17.4532 H   0  0  0  0  0  0
  -29.5863  -13.4677   17.7318 H   0  0  0  0  0  0
  -27.8251  -11.2784   18.8466 H   0  0  0  0  0  0
  -27.3447  -12.6112   17.8104 H   0  0  0  0  0  0
  -27.6662  -14.2280   19.5185 H   0  0  0  0  0  0
  -28.6869  -12.0625   21.4277 H   0  0  0  0  0  0
  -28.4253  -13.7307   21.8177 H   0  0  0  0  0  0
  -25.2834   -9.5620   22.4764 H   0  0  0  0  0  0
  -24.0112   -7.4567   22.7353 H   0  0  0  0  0  0
  -21.0916   -8.8702   19.8920 H   0  0  0  0  0  0
  -22.3759  -10.9626   19.6188 H   0  0  0  0  0  0
  -21.1940   -7.6160   23.9648 H   0  0  0  0  0  0
  -21.1523   -6.0605   25.9072 H   0  0  0  0  0  0
  -22.0617   -2.7615   23.2865 H   0  0  0  0  0  0
  -22.4411  -11.9429   22.4522 H   0  0  0  0  0  0
  -21.1370  -13.0791   22.3207 H   0  0  0  0  0  0
  -24.7116  -15.8784   20.5388 H   0  0  0  0  0  0
  -26.3128  -15.5882   20.0836 H   0  0  0  0  0  0
  -26.7164  -32.5670   23.1395 H   0  0  0  0  0  0
  -25.0832  -33.9939   25.1059 H   0  0  0  0  0  0
  -22.6669  -31.2764   21.4853 H   0  0  0  0  0  0
  -23.3804  -35.9495   23.3303 H   0  0  0  0  0  0
  -24.3580  -36.8726   22.2017 H   0  0  0  0  0  0
  -23.7178  -37.6436   23.6522 H   0  0  0  0  0  0
  -26.0242  -31.6545   20.6372 H   0  0  0  0  0  0
  -26.8375  -30.9129   21.9858 H   0  0  0  0  0  0
  -28.1066  -29.1251   21.1835 H   0  0  0  0  0  0
  -26.0833  -26.0902   18.8561 H   0  0  0  0  0  0
  -23.9998  -27.3449   18.9887 H   0  0  0  0  0  0
  -23.7066  -30.6504   19.4474 H   0  0  0  0  0  0
  -22.7425  -29.2782   19.8869 H   0  0  0  0  0  0
  -25.1299  -36.2035   25.0918 H   0  0  0  0  0  0
  -20.9833  -28.3055   24.1545 H   0  0  0  0  0  0
  -20.5744  -26.1923   23.3605 H   0  0  0  0  0  0
  -21.6692  -26.7273   22.1266 H   0  0  0  0  0  0
  -19.7006  -25.6299   21.1057 H   0  0  0  0  0  0
  -19.6908  -27.3276   20.6918 H   0  0  0  0  0  0
  -17.4384  -26.6249   21.4041 H   0  0  0  0  0  0
  -18.0522  -25.9954   22.9094 H   0  0  0  0  0  0
  -19.7983  -30.7296   24.1995 H   0  0  0  0  0  0
  -17.5054  -31.6210   24.4976 H   0  0  0  0  0  0
  -15.5364  -30.2761   23.7788 H   0  0  0  0  0  0
  -15.8670  -28.0681   22.6998 H   0  0  0  0  0  0
  -24.5907  -30.7114   25.7872 H   0  0  0  0  0  0
  -24.8892  -32.2883   26.5052 H   0  0  0  0  0  0
  -25.7980  -30.8898   27.0377 H   0  0  0  0  0  0
  -26.3176  -29.6837   24.1184 H   0  0  0  0  0  0
  -27.4349  -29.7523   25.4665 H   0  0  0  0  0  0
  -27.8846  -30.4655   23.9328 H   0  0  0  0  0  0
  -27.2981  -33.3653   26.2165 H   0  0  0  0  0  0
  -28.3923  -32.6797   25.0222 H   0  0  0  0  0  0
  -28.0942  -31.8375   26.5384 H   0  0  0  0  0  0
  -28.2703  -38.0084   24.7546 H   0  0  0  0  0  0
  -28.1026  -36.2642   24.6413 H   0  0  0  0  0  0
  -27.2272  -37.1556   25.8902 H   0  0  0  0  0  0
  -20.9397  -29.8434   21.7108 H   0  0  0  0  0  0
  -26.0177  -38.2840   24.1591 H   0  0  0  0  0  0
  -29.0675  -23.1546   21.4082 H   0  0  0  0  0  0
  -25.6125  -25.6580   21.3031 H   0  0  0  0  0  0
  -28.5637  -20.5798   20.7077 H   0  0  0  0  0  0
  -27.2194  -19.9921   21.7519 H   0  0  0  0  0  0
  -28.5193  -20.9328   22.4269 H   0  0  0  0  0  0
  -23.0771  -23.2832   21.4009 H   0  0  0  0  0  0
  -23.4138  -23.7563   19.7268 H   0  0  0  0  0  0
  -23.5372  -24.9144   21.0282 H   0  0  0  0  0  0
  -24.1266  -21.4871   19.8314 H   0  0  0  0  0  0
  -24.2904  -20.8176   21.4331 H   0  0  0  0  0  0
  -29.4008  -25.4753   21.4307 H   0  0  0  0  0  0
  -28.1148  -26.3594   22.1819 H   0  0  0  0  0  0
  -25.7312  -19.1036   20.6191 H   0  0  0  0  0  0
  -24.5065  -19.2862   19.4336 H   0  0  0  0  0  0
  -27.1587  -20.7099   18.9510 H   0  0  0  0  0  0
  -25.9198  -20.3435   17.8299 H   0  0  0  0  0  0
  -27.1914  -18.5958   17.2131 H   0  0  0  0  0  0
  -26.6257  -17.7502   18.6134 H   0  0  0  0  0  0
  -29.0759  -19.5963   18.7213 H   0  0  0  0  0  0
  -29.3053  -18.0370   18.0613 H   0  0  0  0  0  0
  -29.6635  -18.6286   20.2406 H   0  0  0  0  0  0
  -28.5625  -17.0204   19.5964 H   0  0  0  0  0  0
  -30.9904  -17.1657   20.1167 H   0  0  0  0  0  0
  -30.3244  -17.3309   21.7238 H   0  0  0  0  0  0
  -28.8567  -15.3511   21.0745 H   0  0  0  0  0  0
  1 25  1  0  0  0
  1 30  2  0  0  0
  1 87  1  0  0  0
  2  3  1  0  0  0
  2 25  1  0  0  0
  2 88  1  0  0  0
  2 89  1  0  0  0
  3  4  1  0  0  0
  3 90  1  0  0  0
  3 91  1  0  0  0
  4  5  1  0  0  0
  4 92  1  0  0  0
  4 93  1  0  0  0
  5  6  1  0  0  0
  5 26  1  0  0  0
  5 94  1  0  0  0
  6 25  1  0  0  0
  6 95  1  0  0  0
  6 96  1  0  0  0
  7  8  2  0  0  0
  7 26  1  0  0  0
  7 29  1  0  0  0
  8  9  1  0  0  0
  8 22  1  0  0  0
  9 10  1  0  0  0
  9 27  2  0  0  0
 10 11  2  0  0  0
 10 15  1  0  0  0
 11 12  1  0  0  0
 11 97  1  0  0  0
 12 13  2  0  0  0
 12 98  1  0  0  0
 13 14  1  0  0  0
 13 31  1  0  0  0
 14 15  2  0  0  0
 14 99  1  0  0  0
 15100  1  0  0  0
 16 17  2  0  0  0
 16 21  1  0  0  0
 16 31  1  0  0  0
 17 18  1  0  0  0
 17101  1  0  0  0
 18 19  2  0  0  0
 18102  1  0  0  0
 19 20  1  0  0  0
 19 24  1  0  0  0
 20 21  2  0  0  0
 20103  1  0  0  0
 21 23  1  0  0  0
 22 28  1  0  0  0
 22 32  2  0  0  0
 26 27  1  0  0  0
 28104  1  0  0  0
 28105  1  0  0  0
 29106  1  0  0  0
 29107  1  0  0  0
 33 34  1  0  0  0
 33 66  1  0  0  0
 33 70  2  0  0  0
 34 36  1  0  0  0
 34 59  1  0  0  0
 34108  1  0  0  0
 35 44  2  0  0  0
 35 45  1  0  0  0
 35 68  1  0  0  0
 36 56  1  0  0  0
 36109  1  0  0  0
 37 39  1  0  0  0
 37 47  1  0  0  0
 37 66  1  0  0  0
 37110  1  0  0  0
 38 43  2  0  0  0
 38 46  1  0  0  0
 38 47  1  0  0  0
 39 64  1  0  0  0
 39 67  2  0  0  0
 40 52  1  0  0  0
 40 53  2  0  0  0
 40 58  1  0  0  0
 41111  1  0  0  0
 41112  1  0  0  0
 41113  1  0  0  0
 41 48  1  0  0  0
 42 43  1  0  0  0
 42 66  1  0  0  0
 42114  1  0  0  0
 42115  1  0  0  0
 43 44  1  0  0  0
 44116  1  0  0  0
 45 46  2  0  0  0
 45117  1  0  0  0
 46118  1  0  0  0
 47119  1  0  0  0
 47120  1  0  0  0
 48 56  1  0  0  0
 48 65  1  0  0  0
 48121  1  0  0  0
 49 50  1  0  0  0
 49 53  1  0  0  0
 49 64  1  0  0  0
 49122  1  0  0  0
 50 51  1  0  0  0
 50123  1  0  0  0
 50124  1  0  0  0
 51 52  1  0  0  0
 51125  1  0  0  0
 51126  1  0  0  0
 52127  1  0  0  0
 52128  1  0  0  0
 53 54  1  0  0  0
 54 55  2  0  0  0
 54129  1  0  0  0
 55 57  1  0  0  0
 55130  1  0  0  0
 56 69  2  0  0  0
 57 58  2  0  0  0
 57131  1  0  0  0
 58132  1  0  0  0
 59 60  1  0  0  0
 59 61  1  0  0  0
 59 62  1  0  0  0
 60133  1  0  0  0
 60134  1  0  0  0
 60135  1  0  0  0
 61136  1  0  0  0
 61137  1  0  0  0
 61138  1  0  0  0
 62139  1  0  0  0
 62140  1  0  0  0
 62141  1  0  0  0
 63 65  1  0  0  0
 63142  1  0  0  0
 63143  1  0  0  0
 63144  1  0  0  0
 64145  1  0  0  0
 65146  1  0  0  0
 68 80  1  0  0  0
 71 73  2  0  0  0
 71 74  1  0  0  0
 71147  1  0  0  0
 72 73  1  0  0  0
 72 75  2  0  0  0
 72148  1  0  0  0
 73 80  1  0  0  0
 74 76  2  0  0  0
 74 77  1  0  0  0
 75 76  1  0  0  0
 75 78  1  0  0  0
 76 79  1  0  0  0
 77149  1  0  0  0
 77150  1  0  0  0
 77151  1  0  0  0
 78152  1  0  0  0
 78153  1  0  0  0
 78154  1  0  0  0
 79 81  1  0  0  0
 79155  1  0  0  0
 79156  1  0  0  0
 80157  1  0  0  0
 80158  1  0  0  0
 81 82  1  0  0  0
 81159  1  0  0  0
 81160  1  0  0  0
 82 83  1  0  0  0
 82161  1  0  0  0
 82162  1  0  0  0
 83 84  1  0  0  0
 83163  1  0  0  0
 83164  1  0  0  0
 84 85  1  0  0  0
 84165  1  0  0  0
 84166  1  0  0  0
 85 86  1  0  0  0
 85167  1  0  0  0
 85168  1  0  0  0
 86 87  1  0  0  0
 86169  1  0  0  0
 86170  1  0  0  0
 87171  1  0  0  0
M  ISO  4   1 100  68 101  80 101  87 100
M  END
> <chiral flag>
0

> <version>
0

> <s_m_source_file>
/data/baiqing/PycharmProjects/Reinvent-master-3.2/result/LINK_invent/BTK/process_docking_weight1_custom_sum_contain_oxygen_bond_distance_aromatic_linkinvent_7_9_3/rearranged_h_0034.sdf

> <i_m_source_file_index>
53

> <r_mmod_Potential_Energy-OPLS-2005>
331.492431640625

> <r_mmod_Stretch_Energy-OPLS-2005>
48.1919708251953

> <r_mmod_Bend_Energy-OPLS-2005>
352.226593017578

> <r_mmod_Torsional_Energy-OPLS-2005>
290.139678955078

> <r_mmod_Improper_Torsional_Energy-OPLS-2005>
5.40814399719238

> <r_mmod_Van_der_Waal_Energy-OPLS-2005>
180.717208862305

> <r_mmod_Electrostatic_Energy-OPLS-2005>
-375.190093994141

> <r_mmod_Solvation_Energy-OPLS-2005>
-198.062942504883

> <b_mmod_Minimization_Converged-OPLS-2005>
0

> <r_mmod_RMS_Derivative-OPLS-2005>
13.8377847671509

$$$$
54
                    3D
 Structure written by MMmdl.
158166  0  0  1  0            999 V2000
  -30.7399  -14.4721   20.5423 C   0  0  0  0  0  0
  -30.4133  -12.2742   19.4396 C   0  0  0  0  0  0
  -29.4983  -12.4924   18.2174 C   0  0  0  0  0  0
  -28.0169  -12.3669   18.6233 C   0  0  0  0  0  0
  -27.6598  -13.2170   19.8735 C   0  0  2  0  0  0
  -28.6932  -13.0252   21.0054 C   0  0  0  0  0  0
  -25.2567  -13.8187   20.5680 C   0  0  0  0  0  0
  -24.1828  -13.0449   20.9172 C   0  0  0  0  0  0
  -24.6397  -11.6919   20.8728 C   0  0  0  0  0  0
  -23.9071  -10.4298   21.0397 C   0  0  0  0  0  0
  -24.3621   -9.4212   21.9176 C   0  0  0  0  0  0
  -23.6297   -8.2247   22.0748 C   0  0  0  0  0  0
  -22.4276   -8.0285   21.3544 C   0  0  0  0  0  0
  -21.9913   -9.0259   20.4644 C   0  0  0  0  0  0
  -22.7244  -10.2137   20.3049 C   0  0  0  0  0  0
  -21.6858   -6.0737   22.5279 C   0  0  0  0  0  0
  -21.4021   -6.5639   23.8213 C   0  0  0  0  0  0
  -21.3657   -5.6791   24.9176 C   0  0  0  0  0  0
  -21.6043   -4.3054   24.7224 C   0  0  0  0  0  0
  -21.8821   -3.8146   23.4346 C   0  0  0  0  0  0
  -21.9196   -4.6964   22.3403 C   0  0  0  0  0  0
  -22.7851  -13.5236   21.1845 C   0  0  0  0  0  0
  -22.1663   -4.2148   21.0980 F   0  0  0  0  0  0
  -21.5625   -3.4536   25.7737 F   0  0  0  0  0  0
  -30.0311  -13.2639   20.4538 N   0  0  0  0  0  0
  -26.3010  -12.9381   20.3352 N   0  0  0  0  0  0
  -25.9326  -11.6527   20.5756 N   0  0  0  0  0  0
  -22.0502  -12.8221   22.0404 N   0  0  0  0  0  0
  -25.4295  -15.1904   20.4105 N   0  0  0  0  0  0
  -31.8623  -14.6565   20.0682 O   0  0  0  0  0  0
  -21.6643   -6.8879   21.4241 O   0  0  0  0  0  0
  -22.3530  -14.5547   20.6708 O   0  0  0  0  0  0
  -24.6156  -31.8684   23.2117 C   0  0  0  0  0  0
  -25.9045  -32.4828   23.8411 C   0  0  1  0  0  0
  -27.2250  -27.4271   20.0967 C   0  0  0  0  0  0
  -25.5902  -33.8628   24.2339 N   0  0  0  0  0  0
  -23.4039  -30.4948   21.5515 C   0  0  2  0  0  0
  -24.8505  -28.9690   20.1080 C   0  0  0  0  0  0
  -22.7419  -29.4665   22.4972 C   0  0  0  0  0  0
  -18.0276  -28.1380   22.8496 C   0  0  0  0  0  0
  -24.1486  -36.7310   23.2637 C   0  0  0  0  0  0
  -25.9359  -30.8329   21.3676 C   0  0  0  0  0  0
  -26.0130  -29.4699   20.7091 C   0  0  0  0  0  0
  -27.2068  -28.7076   20.6997 C   0  0  0  0  0  0
  -26.0512  -26.9606   19.4632 C   0  0  0  0  0  0
  -24.8655  -27.7144   19.4793 C   0  0  0  0  0  0
  -23.6125  -29.8347   20.1637 C   0  0  0  0  0  0
  -25.4107  -36.3114   24.0339 C   0  0  1  0  0  0
  -20.5870  -28.3666   23.1313 C   0  0  2  0  0  0
  -20.6764  -26.9397   22.5422 C   0  0  0  0  0  0
  -19.5745  -26.6385   21.5216 C   0  0  0  0  0  0
  -18.1919  -26.7932   22.1621 C   0  0  0  0  0  0
  -19.1527  -28.8839   23.2905 C   0  0  0  0  0  0
  -18.9456  -30.1446   23.8912 C   0  0  0  0  0  0
  -17.6457  -30.6584   24.0569 C   0  0  0  0  0  0
  -25.9036  -34.9480   23.5136 C   0  0  0  0  0  0
  -16.5347  -29.9088   23.6328 C   0  0  0  0  0  0
  -16.7266  -28.6506   23.0347 C   0  0  0  0  0  0
  -26.4470  -31.6603   25.0735 C   0  0  0  0  0  0
  -25.3740  -31.3711   26.1483 C   0  0  0  0  0  0
  -27.0299  -30.3045   24.6114 C   0  0  0  0  0  0
  -27.6055  -32.4312   25.7492 C   0  0  0  0  0  0
  -27.5580  -37.1810   24.8467 C   0  0  0  0  0  0
  -21.4144  -29.3036   22.3720 N   0  0  0  0  0  0
  -26.4294  -37.3797   23.9412 N   0  0  0  0  0  0
  -24.6700  -31.0794   22.1013 N   0  0  0  0  0  0
  -23.4195  -28.8196   23.3004 O   0  0  0  0  0  0
  -28.3482  -26.6229   20.1468 O   0  0  0  0  0  0
  -26.5594  -34.8924   22.4695 O   0  0  0  0  0  0
  -23.5344  -32.1426   23.7510 O   0  0  0  0  0  0
  -30.5261  -24.6462   20.4203 C   0  0  0  0  0  0
  -28.9041  -22.9727   21.1311 C   0  0  0  0  0  0
  -29.1995  -24.3047   20.7471 C   0  0  0  0  0  0
  -31.5442  -23.6710   20.5007 C   0  0  0  0  0  0
  -29.9112  -21.9802   21.2164 C   0  0  0  0  0  0
  -31.2417  -22.3505   20.9069 C   0  0  0  0  0  0
  -32.9777  -24.0451   20.1783 C   0  0  0  0  0  0
  -29.5574  -20.5723   21.7311 C   0  0  0  0  0  0
  -28.0731  -25.3374   20.7479 C   0  0  0  0  0  0
  -30.0290  -19.3715   20.8679 C   0  0  0  0  0  0
  -29.6197  -17.9738   21.4153 C   0  0  0  0  0  0
  -30.4085  -16.8328   20.7338 C   0  0  0  0  0  0
  -29.9896  -15.4950   21.0502 O   0  0  0  0  0  0
  -32.2478  -21.4514   21.0232 F   0  0  0  0  0  0
  -31.4631  -12.3556   19.1509 H   0  0  0  0  0  0
  -30.2887  -11.2666   19.8396 H   0  0  0  0  0  0
  -29.7344  -11.7669   17.4379 H   0  0  0  0  0  0
  -29.6817  -13.4776   17.7852 H   0  0  0  0  0  0
  -27.8202  -11.3134   18.8234 H   0  0  0  0  0  0
  -27.3731  -12.6407   17.7868 H   0  0  0  0  0  0
  -27.7009  -14.2626   19.5664 H   0  0  0  0  0  0
  -28.6438  -12.0082   21.3973 H   0  0  0  0  0  0
  -28.4748  -13.6825   21.8486 H   0  0  0  0  0  0
  -25.2768   -9.5686   22.4750 H   0  0  0  0  0  0
  -24.0009   -7.4636   22.7463 H   0  0  0  0  0  0
  -21.0846   -8.8779   19.8949 H   0  0  0  0  0  0
  -22.3704  -10.9675   19.6153 H   0  0  0  0  0  0
  -21.2018   -7.6149   23.9719 H   0  0  0  0  0  0
  -21.1476   -6.0520   25.9079 H   0  0  0  0  0  0
  -22.0602   -2.7609   23.2847 H   0  0  0  0  0  0
  -22.4132  -11.9885   22.4782 H   0  0  0  0  0  0
  -21.1115  -13.1231   22.2613 H   0  0  0  0  0  0
  -24.6706  -15.8522   20.5316 H   0  0  0  0  0  0
  -26.2973  -15.6275   20.1248 H   0  0  0  0  0  0
  -26.7120  -32.5540   23.1182 H   0  0  0  0  0  0
  -25.0087  -33.9810   25.0506 H   0  0  0  0  0  0
  -22.6921  -31.3119   21.4160 H   0  0  0  0  0  0
  -23.3744  -35.9649   23.3317 H   0  0  0  0  0  0
  -24.3584  -36.8899   22.2048 H   0  0  0  0  0  0
  -23.7235  -37.6520   23.6641 H   0  0  0  0  0  0
  -26.0539  -31.6023   20.6033 H   0  0  0  0  0  0
  -26.8221  -30.8816   21.9888 H   0  0  0  0  0  0
  -28.0998  -29.0844   21.1789 H   0  0  0  0  0  0
  -26.0376  -26.0082   18.9534 H   0  0  0  0  0  0
  -23.9765  -27.3276   18.9997 H   0  0  0  0  0  0
  -23.7201  -30.6143   19.4081 H   0  0  0  0  0  0
  -22.7362  -29.2559   19.8651 H   0  0  0  0  0  0
  -25.1277  -36.1984   25.0831 H   0  0  0  0  0  0
  -20.9968  -28.3231   24.1431 H   0  0  0  0  0  0
  -20.5652  -26.2276   23.3614 H   0  0  0  0  0  0
  -21.6638  -26.7431   22.1223 H   0  0  0  0  0  0
  -19.6906  -25.6299   21.1235 H   0  0  0  0  0  0
  -19.6692  -27.3210   20.6758 H   0  0  0  0  0  0
  -17.4198  -26.6697   21.4011 H   0  0  0  0  0  0
  -18.0302  -26.0068   22.9004 H   0  0  0  0  0  0
  -19.7930  -30.7261   24.2281 H   0  0  0  0  0  0
  -17.5012  -31.6265   24.5171 H   0  0  0  0  0  0
  -15.5349  -30.2996   23.7642 H   0  0  0  0  0  0
  -15.8665  -28.0834   22.7047 H   0  0  0  0  0  0
  -24.5966  -30.6982   25.7844 H   0  0  0  0  0  0
  -24.8867  -32.2859   26.4866 H   0  0  0  0  0  0
  -25.8106  -30.8963   27.0278 H   0  0  0  0  0  0
  -26.2846  -29.6814   24.1156 H   0  0  0  0  0  0
  -27.4050  -29.7270   25.4573 H   0  0  0  0  0  0
  -27.8692  -30.4354   23.9281 H   0  0  0  0  0  0
  -27.2697  -33.3629   26.2058 H   0  0  0  0  0  0
  -28.3876  -32.6831   25.0319 H   0  0  0  0  0  0
  -28.0708  -31.8433   26.5415 H   0  0  0  0  0  0
  -28.2609  -38.0096   24.7500 H   0  0  0  0  0  0
  -28.1059  -36.2627   24.6301 H   0  0  0  0  0  0
  -27.2304  -37.1465   25.8872 H   0  0  0  0  0  0
  -20.9291  -29.8775   21.6966 H   0  0  0  0  0  0
  -26.0180  -38.2875   24.1410 H   0  0  0  0  0  0
  -30.7638  -25.6597   20.1281 H   0  0  0  0  0  0
  -27.8867  -22.7199   21.3948 H   0  0  0  0  0  0
  -33.0686  -25.0957   19.8998 H   0  0  0  0  0  0
  -33.3519  -23.4404   19.3519 H   0  0  0  0  0  0
  -33.6155  -23.8675   21.0444 H   0  0  0  0  0  0
  -28.4759  -20.5077   21.8575 H   0  0  0  0  0  0
  -29.9783  -20.4773   22.7329 H   0  0  0  0  0  0
  -27.7873  -25.5037   21.7882 H   0  0  0  0  0  0
  -27.2274  -24.8382   20.2771 H   0  0  0  0  0  0
  -31.1144  -19.3945   20.7828 H   0  0  0  0  0  0
  -29.6470  -19.4818   19.8523 H   0  0  0  0  0  0
  -28.5489  -17.8223   21.2732 H   0  0  0  0  0  0
  -29.7986  -17.9297   22.4902 H   0  0  0  0  0  0
  -31.4635  -16.9508   20.9867 H   0  0  0  0  0  0
  -30.3350  -16.9557   19.6521 H   0  0  0  0  0  0
  1 25  1  0  0  0
  1 30  2  0  0  0
  1 83  1  0  0  0
  2  3  1  0  0  0
  2 25  1  0  0  0
  2 85  1  0  0  0
  2 86  1  0  0  0
  3  4  1  0  0  0
  3 87  1  0  0  0
  3 88  1  0  0  0
  4  5  1  0  0  0
  4 89  1  0  0  0
  4 90  1  0  0  0
  5  6  1  0  0  0
  5 26  1  0  0  0
  5 91  1  0  0  0
  6 25  1  0  0  0
  6 92  1  0  0  0
  6 93  1  0  0  0
  7  8  2  0  0  0
  7 26  1  0  0  0
  7 29  1  0  0  0
  8  9  1  0  0  0
  8 22  1  0  0  0
  9 10  1  0  0  0
  9 27  2  0  0  0
 10 11  2  0  0  0
 10 15  1  0  0  0
 11 12  1  0  0  0
 11 94  1  0  0  0
 12 13  2  0  0  0
 12 95  1  0  0  0
 13 14  1  0  0  0
 13 31  1  0  0  0
 14 15  2  0  0  0
 14 96  1  0  0  0
 15 97  1  0  0  0
 16 17  2  0  0  0
 16 21  1  0  0  0
 16 31  1  0  0  0
 17 18  1  0  0  0
 17 98  1  0  0  0
 18 19  2  0  0  0
 18 99  1  0  0  0
 19 20  1  0  0  0
 19 24  1  0  0  0
 20 21  2  0  0  0
 20100  1  0  0  0
 21 23  1  0  0  0
 22 28  1  0  0  0
 22 32  2  0  0  0
 26 27  1  0  0  0
 28101  1  0  0  0
 28102  1  0  0  0
 29103  1  0  0  0
 29104  1  0  0  0
 33 34  1  0  0  0
 33 66  1  0  0  0
 33 70  2  0  0  0
 34 36  1  0  0  0
 34 59  1  0  0  0
 34105  1  0  0  0
 35 44  2  0  0  0
 35 45  1  0  0  0
 35 68  1  0  0  0
 36 56  1  0  0  0
 36106  1  0  0  0
 37 39  1  0  0  0
 37 47  1  0  0  0
 37 66  1  0  0  0
 37107  1  0  0  0
 38 43  2  0  0  0
 38 46  1  0  0  0
 38 47  1  0  0  0
 39 64  1  0  0  0
 39 67  2  0  0  0
 40 52  1  0  0  0
 40 53  2  0  0  0
 40 58  1  0  0  0
 41108  1  0  0  0
 41109  1  0  0  0
 41110  1  0  0  0
 41 48  1  0  0  0
 42 43  1  0  0  0
 42 66  1  0  0  0
 42111  1  0  0  0
 42112  1  0  0  0
 43 44  1  0  0  0
 44113  1  0  0  0
 45 46  2  0  0  0
 45114  1  0  0  0
 46115  1  0  0  0
 47116  1  0  0  0
 47117  1  0  0  0
 48 56  1  0  0  0
 48 65  1  0  0  0
 48118  1  0  0  0
 49 50  1  0  0  0
 49 53  1  0  0  0
 49 64  1  0  0  0
 49119  1  0  0  0
 50 51  1  0  0  0
 50120  1  0  0  0
 50121  1  0  0  0
 51 52  1  0  0  0
 51122  1  0  0  0
 51123  1  0  0  0
 52124  1  0  0  0
 52125  1  0  0  0
 53 54  1  0  0  0
 54 55  2  0  0  0
 54126  1  0  0  0
 55 57  1  0  0  0
 55127  1  0  0  0
 56 69  2  0  0  0
 57 58  2  0  0  0
 57128  1  0  0  0
 58129  1  0  0  0
 59 60  1  0  0  0
 59 61  1  0  0  0
 59 62  1  0  0  0
 60130  1  0  0  0
 60131  1  0  0  0
 60132  1  0  0  0
 61133  1  0  0  0
 61134  1  0  0  0
 61135  1  0  0  0
 62136  1  0  0  0
 62137  1  0  0  0
 62138  1  0  0  0
 63 65  1  0  0  0
 63139  1  0  0  0
 63140  1  0  0  0
 63141  1  0  0  0
 64142  1  0  0  0
 65143  1  0  0  0
 68 79  1  0  0  0
 71 73  2  0  0  0
 71 74  1  0  0  0
 71144  1  0  0  0
 72 73  1  0  0  0
 72 75  2  0  0  0
 72145  1  0  0  0
 73 79  1  0  0  0
 74 76  2  0  0  0
 74 77  1  0  0  0
 75 76  1  0  0  0
 75 78  1  0  0  0
 76 84  1  0  0  0
 77146  1  0  0  0
 77147  1  0  0  0
 77148  1  0  0  0
 78 80  1  0  0  0
 78149  1  0  0  0
 78150  1  0  0  0
 79151  1  0  0  0
 79152  1  0  0  0
 80 81  1  0  0  0
 80153  1  0  0  0
 80154  1  0  0  0
 81 82  1  0  0  0
 81155  1  0  0  0
 81156  1  0  0  0
 82 83  1  0  0  0
 82157  1  0  0  0
 82158  1  0  0  0
M  ISO  4   1 100  68 101  79 101  83 100
M  END
> <chiral flag>
0

> <version>
0

> <s_m_source_file>
/data/baiqing/PycharmProjects/Reinvent-master-3.2/result/LINK_invent/BTK/process_docking_weight1_custom_sum_contain_oxygen_bond_distance_aromatic_linkinvent_7_9_3/rearranged_h_0034.sdf

> <i_m_source_file_index>
54

> <r_mmod_Potential_Energy-OPLS-2005>
-15.1977186203003

> <r_mmod_Stretch_Energy-OPLS-2005>
38.9344215393066

> <r_mmod_Bend_Energy-OPLS-2005>
91.8198471069336

> <r_mmod_Torsional_Energy-OPLS-2005>
187.220123291016

> <r_mmod_Improper_Torsional_Energy-OPLS-2005>
4.1235785484314

> <r_mmod_Van_der_Waal_Energy-OPLS-2005>
154.378677368164

> <r_mmod_Electrostatic_Energy-OPLS-2005>
-327.819488525391

> <r_mmod_Solvation_Energy-OPLS-2005>
-179.783615112305

> <b_mmod_Minimization_Converged-OPLS-2005>
0

> <r_mmod_RMS_Derivative-OPLS-2005>
0.966461896896362

$$$$
55
                    3D
 Structure written by MMmdl.
156164  0  0  1  0            999 V2000
  -30.5901  -14.8330   20.4467 C   0  0  0  0  0  0
  -30.4383  -12.5103   19.4870 C   0  0  0  0  0  0
  -29.5147  -12.5124   18.2463 C   0  0  0  0  0  0
  -28.0436  -12.3232   18.6635 C   0  0  0  0  0  0
  -27.6396  -13.2389   19.8493 C   0  0  2  0  0  0
  -28.6857  -13.2107   20.9863 C   0  0  0  0  0  0
  -25.2507  -13.8209   20.5712 C   0  0  0  0  0  0
  -24.1808  -13.0446   20.9230 C   0  0  0  0  0  0
  -24.6413  -11.6926   20.8764 C   0  0  0  0  0  0
  -23.9096  -10.4297   21.0420 C   0  0  0  0  0  0
  -24.3641   -9.4200   21.9190 C   0  0  0  0  0  0
  -23.6301   -8.2240   22.0752 C   0  0  0  0  0  0
  -22.4282   -8.0288   21.3542 C   0  0  0  0  0  0
  -21.9933   -9.0270   20.4647 C   0  0  0  0  0  0
  -22.7278  -10.2141   20.3056 C   0  0  0  0  0  0
  -21.6856   -6.0747   22.5282 C   0  0  0  0  0  0
  -21.4018   -6.5651   23.8220 C   0  0  0  0  0  0
  -21.3652   -5.6798   24.9180 C   0  0  0  0  0  0
  -21.6037   -4.3059   24.7229 C   0  0  0  0  0  0
  -21.8819   -3.8156   23.4348 C   0  0  0  0  0  0
  -21.9195   -4.6973   22.3406 C   0  0  0  0  0  0
  -22.7830  -13.5217   21.1888 C   0  0  0  0  0  0
  -22.1660   -4.2163   21.0983 F   0  0  0  0  0  0
  -21.5622   -3.4539   25.7738 F   0  0  0  0  0  0
  -29.9764  -13.5905   20.3976 N   0  0  0  0  0  0
  -26.2938  -12.9428   20.3293 N   0  0  0  0  0  0
  -25.9343  -11.6566   20.5761 N   0  0  0  0  0  0
  -22.0483  -12.8186   22.0431 N   0  0  0  0  0  0
  -25.4193  -15.1935   20.4111 N   0  0  0  0  0  0
  -31.7804  -14.9169   20.1313 O   0  0  0  0  0  0
  -21.6636   -6.8893   21.4243 O   0  0  0  0  0  0
  -22.3513  -14.5527   20.6746 O   0  0  0  0  0  0
  -24.6401  -31.8500   23.1955 C   0  0  0  0  0  0
  -25.9207  -32.4720   23.8308 C   0  0  1  0  0  0
  -27.2056  -27.1771   20.1303 C   0  0  0  0  0  0
  -25.5986  -33.8530   24.2227 N   0  0  0  0  0  0
  -23.4405  -30.4761   21.5397 C   0  0  2  0  0  0
  -24.8880  -28.9232   20.1060 C   0  0  0  0  0  0
  -22.7550  -29.4587   22.4864 C   0  0  0  0  0  0
  -18.0302  -28.1410   22.8472 C   0  0  0  0  0  0
  -24.1493  -36.7245   23.2637 C   0  0  0  0  0  0
  -25.9973  -30.7346   21.3940 C   0  0  0  0  0  0
  -26.0659  -29.3540   20.7287 C   0  0  0  0  0  0
  -27.2259  -28.4950   20.7324 C   0  0  0  0  0  0
  -26.0018  -26.8595   19.4528 C   0  0  0  0  0  0
  -24.8672  -27.6876   19.4540 C   0  0  0  0  0  0
  -23.6648  -29.8194   20.1546 C   0  0  0  0  0  0
  -25.4127  -36.3036   24.0313 C   0  0  1  0  0  0
  -20.5912  -28.3732   23.1241 C   0  0  2  0  0  0
  -20.6791  -26.9442   22.5406 C   0  0  0  0  0  0
  -19.5771  -26.6398   21.5208 C   0  0  0  0  0  0
  -18.1944  -26.7954   22.1610 C   0  0  0  0  0  0
  -19.1556  -28.8886   23.2851 C   0  0  0  0  0  0
  -18.9482  -30.1479   23.8881 C   0  0  0  0  0  0
  -17.6480  -30.6607   24.0568 C   0  0  0  0  0  0
  -25.9082  -34.9418   23.5066 C   0  0  0  0  0  0
  -16.5367  -29.9105   23.6344 C   0  0  0  0  0  0
  -16.7285  -28.6524   23.0362 C   0  0  0  0  0  0
  -26.4546  -31.6568   25.0729 C   0  0  0  0  0  0
  -25.3733  -31.3758   26.1418 C   0  0  0  0  0  0
  -27.0403  -30.2959   24.6301 C   0  0  0  0  0  0
  -27.6083  -32.4317   25.7516 C   0  0  0  0  0  0
  -27.5573  -37.1784   24.8467 C   0  0  0  0  0  0
  -21.4242  -29.3063   22.3610 N   0  0  0  0  0  0
  -26.4285  -37.3749   23.9408 N   0  0  0  0  0  0
  -24.7118  -31.0399   22.0972 N   0  0  0  0  0  0
  -23.4214  -28.8120   23.2990 O   0  0  0  0  0  0
  -28.2362  -26.1743   20.2140 O   0  0  0  0  0  0
  -26.5641  -34.8905   22.4631 O   0  0  0  0  0  0
  -23.5531  -32.1360   23.7200 O   0  0  0  0  0  0
  -29.1014  -21.2451   21.5577 C   0  0  0  0  0  0
  -28.7029  -22.3536   19.0697 C   0  0  0  0  0  0
  -28.8253  -22.6654   21.4143 C   0  0  0  0  0  0
  -28.9506  -20.9323   19.2113 C   0  0  0  0  0  0
  -29.1321  -20.2939   20.4804 C   0  0  0  0  0  0
  -28.5784  -23.2913   20.1489 C   0  0  0  0  0  0
  -28.6897  -23.4999   22.6727 C   0  0  0  0  0  0
  -28.9122  -20.0702   17.9614 C   0  0  0  0  0  0
  -29.0464  -18.6762   20.7277 C   0  0  0  0  0  0
  -27.8288  -24.7247   19.9033 C   0  0  0  0  0  0
  -30.1708  -17.5043   20.4326 C   0  0  0  0  0  0
  -29.8241  -15.9937   20.6350 N   0  0  0  0  0  0
  -31.4763  -12.6481   19.1797 H   0  0  0  0  0  0
  -30.4049  -11.5431   19.9917 H   0  0  0  0  0  0
  -29.8075  -11.7222   17.5532 H   0  0  0  0  0  0
  -29.6259  -13.4531   17.7065 H   0  0  0  0  0  0
  -27.9171  -11.2781   18.9481 H   0  0  0  0  0  0
  -27.3808  -12.4875   17.8129 H   0  0  0  0  0  0
  -27.6223  -14.2522   19.4473 H   0  0  0  0  0  0
  -28.7430  -12.2184   21.4373 H   0  0  0  0  0  0
  -28.4084  -13.8975   21.7876 H   0  0  0  0  0  0
  -25.2785   -9.5663   22.4777 H   0  0  0  0  0  0
  -24.0010   -7.4621   22.7463 H   0  0  0  0  0  0
  -21.0868   -8.8806   19.8941 H   0  0  0  0  0  0
  -22.3755  -10.9688   19.6166 H   0  0  0  0  0  0
  -21.2014   -7.6159   23.9731 H   0  0  0  0  0  0
  -21.1468   -6.0523   25.9083 H   0  0  0  0  0  0
  -22.0602   -2.7620   23.2845 H   0  0  0  0  0  0
  -22.4103  -11.9827   22.4780 H   0  0  0  0  0  0
  -21.1103  -13.1195   22.2663 H   0  0  0  0  0  0
  -24.6523  -15.8474   20.5236 H   0  0  0  0  0  0
  -26.2595  -15.6296   20.0540 H   0  0  0  0  0  0
  -26.7266  -32.5336   23.1034 H   0  0  0  0  0  0
  -25.0165  -33.9673   25.0394 H   0  0  0  0  0  0
  -22.7404  -31.3012   21.3935 H   0  0  0  0  0  0
  -23.3760  -35.9574   23.3299 H   0  0  0  0  0  0
  -24.3574  -36.8872   22.2050 H   0  0  0  0  0  0
  -23.7253  -37.6445   23.6669 H   0  0  0  0  0  0
  -26.1581  -31.4954   20.6288 H   0  0  0  0  0  0
  -26.8659  -30.7741   22.0391 H   0  0  0  0  0  0
  -28.1179  -28.8160   21.2525 H   0  0  0  0  0  0
  -25.8719  -25.9299   18.9225 H   0  0  0  0  0  0
  -23.9710  -27.3587   18.9456 H   0  0  0  0  0  0
  -23.8001  -30.6001   19.4044 H   0  0  0  0  0  0
  -22.7808  -29.2620   19.8388 H   0  0  0  0  0  0
  -25.1317  -36.1853   25.0805 H   0  0  0  0  0  0
  -20.9998  -28.3322   24.1365 H   0  0  0  0  0  0
  -20.5690  -26.2350   23.3623 H   0  0  0  0  0  0
  -21.6662  -26.7471   22.1203 H   0  0  0  0  0  0
  -19.6940  -25.6302   21.1260 H   0  0  0  0  0  0
  -19.6710  -27.3193   20.6725 H   0  0  0  0  0  0
  -17.4218  -26.6693   21.4007 H   0  0  0  0  0  0
  -18.0341  -26.0106   22.9017 H   0  0  0  0  0  0
  -19.7958  -30.7295   24.2245 H   0  0  0  0  0  0
  -17.5043  -31.6285   24.5176 H   0  0  0  0  0  0
  -15.5368  -30.3011   23.7691 H   0  0  0  0  0  0
  -15.8677  -28.0843   22.7098 H   0  0  0  0  0  0
  -24.5963  -30.7039   25.7749 H   0  0  0  0  0  0
  -24.8866  -32.2936   26.4720 H   0  0  0  0  0  0
  -25.8030  -30.9036   27.0263 H   0  0  0  0  0  0
  -26.3016  -29.6680   24.1301 H   0  0  0  0  0  0
  -27.4001  -29.7254   25.4876 H   0  0  0  0  0  0
  -27.8940  -30.4178   23.9633 H   0  0  0  0  0  0
  -27.2698  -33.3660   26.2008 H   0  0  0  0  0  0
  -28.3956  -32.6797   25.0384 H   0  0  0  0  0  0
  -28.0676  -31.8485   26.5506 H   0  0  0  0  0  0
  -28.2586  -38.0081   24.7510 H   0  0  0  0  0  0
  -28.1068  -36.2612   24.6293 H   0  0  0  0  0  0
  -27.2291  -37.1433   25.8869 H   0  0  0  0  0  0
  -20.9439  -29.8774   21.6795 H   0  0  0  0  0  0
  -26.0138  -38.2811   24.1421 H   0  0  0  0  0  0
  -29.1989  -20.8541   22.5617 H   0  0  0  0  0  0
  -28.4930  -22.7246   18.0759 H   0  0  0  0  0  0
  -29.2327  -23.0543   23.5065 H   0  0  0  0  0  0
  -27.6413  -23.5873   22.9579 H   0  0  0  0  0  0
  -29.0856  -24.5038   22.5172 H   0  0  0  0  0  0
  -28.7219  -20.6611   17.0651 H   0  0  0  0  0  0
  -28.1172  -19.3278   18.0331 H   0  0  0  0  0  0
  -29.8590  -19.5469   17.8242 H   0  0  0  0  0  0
  -28.1466  -18.3642   20.1967 H   0  0  0  0  0  0
  -28.7716  -18.5667   21.7770 H   0  0  0  0  0  0
  -26.8786  -24.5701   20.4170 H   0  0  0  0  0  0
  -27.6022  -24.7154   18.8367 H   0  0  0  0  0  0
  -31.0481  -17.7178   21.0455 H   0  0  0  0  0  0
  -30.5083  -17.6082   19.4009 H   0  0  0  0  0  0
  -28.8589  -15.8085   20.8647 H   0  0  0  0  0  0
  1 25  1  0  0  0
  1 30  2  0  0  0
  1 82  1  0  0  0
  2  3  1  0  0  0
  2 25  1  0  0  0
  2 83  1  0  0  0
  2 84  1  0  0  0
  3  4  1  0  0  0
  3 85  1  0  0  0
  3 86  1  0  0  0
  4  5  1  0  0  0
  4 87  1  0  0  0
  4 88  1  0  0  0
  5  6  1  0  0  0
  5 26  1  0  0  0
  5 89  1  0  0  0
  6 25  1  0  0  0
  6 90  1  0  0  0
  6 91  1  0  0  0
  7  8  2  0  0  0
  7 26  1  0  0  0
  7 29  1  0  0  0
  8  9  1  0  0  0
  8 22  1  0  0  0
  9 10  1  0  0  0
  9 27  2  0  0  0
 10 11  2  0  0  0
 10 15  1  0  0  0
 11 12  1  0  0  0
 11 92  1  0  0  0
 12 13  2  0  0  0
 12 93  1  0  0  0
 13 14  1  0  0  0
 13 31  1  0  0  0
 14 15  2  0  0  0
 14 94  1  0  0  0
 15 95  1  0  0  0
 16 17  2  0  0  0
 16 21  1  0  0  0
 16 31  1  0  0  0
 17 18  1  0  0  0
 17 96  1  0  0  0
 18 19  2  0  0  0
 18 97  1  0  0  0
 19 20  1  0  0  0
 19 24  1  0  0  0
 20 21  2  0  0  0
 20 98  1  0  0  0
 21 23  1  0  0  0
 22 28  1  0  0  0
 22 32  2  0  0  0
 26 27  1  0  0  0
 28 99  1  0  0  0
 28100  1  0  0  0
 29101  1  0  0  0
 29102  1  0  0  0
 33 34  1  0  0  0
 33 66  1  0  0  0
 33 70  2  0  0  0
 34 36  1  0  0  0
 34 59  1  0  0  0
 34103  1  0  0  0
 35 44  2  0  0  0
 35 45  1  0  0  0
 35 68  1  0  0  0
 36 56  1  0  0  0
 36104  1  0  0  0
 37 39  1  0  0  0
 37 47  1  0  0  0
 37 66  1  0  0  0
 37105  1  0  0  0
 38 43  2  0  0  0
 38 46  1  0  0  0
 38 47  1  0  0  0
 39 64  1  0  0  0
 39 67  2  0  0  0
 40 52  1  0  0  0
 40 53  2  0  0  0
 40 58  1  0  0  0
 41106  1  0  0  0
 41107  1  0  0  0
 41108  1  0  0  0
 41 48  1  0  0  0
 42 43  1  0  0  0
 42 66  1  0  0  0
 42109  1  0  0  0
 42110  1  0  0  0
 43 44  1  0  0  0
 44111  1  0  0  0
 45 46  2  0  0  0
 45112  1  0  0  0
 46113  1  0  0  0
 47114  1  0  0  0
 47115  1  0  0  0
 48 56  1  0  0  0
 48 65  1  0  0  0
 48116  1  0  0  0
 49 50  1  0  0  0
 49 53  1  0  0  0
 49 64  1  0  0  0
 49117  1  0  0  0
 50 51  1  0  0  0
 50118  1  0  0  0
 50119  1  0  0  0
 51 52  1  0  0  0
 51120  1  0  0  0
 51121  1  0  0  0
 52122  1  0  0  0
 52123  1  0  0  0
 53 54  1  0  0  0
 54 55  2  0  0  0
 54124  1  0  0  0
 55 57  1  0  0  0
 55125  1  0  0  0
 56 69  2  0  0  0
 57 58  2  0  0  0
 57126  1  0  0  0
 58127  1  0  0  0
 59 60  1  0  0  0
 59 61  1  0  0  0
 59 62  1  0  0  0
 60128  1  0  0  0
 60129  1  0  0  0
 60130  1  0  0  0
 61131  1  0  0  0
 61132  1  0  0  0
 61133  1  0  0  0
 62134  1  0  0  0
 62135  1  0  0  0
 62136  1  0  0  0
 63 65  1  0  0  0
 63137  1  0  0  0
 63138  1  0  0  0
 63139  1  0  0  0
 64140  1  0  0  0
 65141  1  0  0  0
 68 80  1  0  0  0
 71 73  2  0  0  0
 71 75  1  0  0  0
 71142  1  0  0  0
 72 74  1  0  0  0
 72 76  2  0  0  0
 72143  1  0  0  0
 73 76  1  0  0  0
 73 77  1  0  0  0
 74 75  2  0  0  0
 74 78  1  0  0  0
 75 79  1  0  0  0
 76 80  1  0  0  0
 77144  1  0  0  0
 77145  1  0  0  0
 77146  1  0  0  0
 78147  1  0  0  0
 78148  1  0  0  0
 78149  1  0  0  0
 79 81  1  0  0  0
 79150  1  0  0  0
 79151  1  0  0  0
 80152  1  0  0  0
 80153  1  0  0  0
 81 82  1  0  0  0
 81154  1  0  0  0
 81155  1  0  0  0
 82156  1  0  0  0
M  ISO  4   1 100  68 101  80 101  82 100
M  END
> <chiral flag>
0

> <version>
0

> <s_m_source_file>
/data/baiqing/PycharmProjects/Reinvent-master-3.2/result/LINK_invent/BTK/process_docking_weight1_custom_sum_contain_oxygen_bond_distance_aromatic_linkinvent_7_9_3/rearranged_h_0034.sdf

> <i_m_source_file_index>
55

> <r_mmod_Potential_Energy-OPLS-2005>
359.935638427734

> <r_mmod_Stretch_Energy-OPLS-2005>
185.79606628418

> <r_mmod_Bend_Energy-OPLS-2005>
232.258804321289

> <r_mmod_Torsional_Energy-OPLS-2005>
226.903717041016

> <r_mmod_Improper_Torsional_Energy-OPLS-2005>
10.9395837783813

> <r_mmod_Van_der_Waal_Energy-OPLS-2005>
141.489639282227

> <r_mmod_Electrostatic_Energy-OPLS-2005>
-368.202239990234

> <r_mmod_Solvation_Energy-OPLS-2005>
-211.421844482422

> <b_mmod_Minimization_Converged-OPLS-2005>
0

> <r_mmod_RMS_Derivative-OPLS-2005>
1.44167971611023

$$$$
56
                    3D
 Structure written by MMmdl.
159167  0  0  1  0            999 V2000
  -30.6534  -14.6929   20.4556 C   0  0  0  0  0  0
  -30.4390  -12.4318   19.4335 C   0  0  0  0  0  0
  -29.4983  -12.4969   18.2113 C   0  0  0  0  0  0
  -28.0267  -12.3388   18.6400 C   0  0  0  0  0  0
  -27.6479  -13.2319   19.8516 C   0  0  2  0  0  0
  -28.7068  -13.1480   20.9735 C   0  0  0  0  0  0
  -25.2550  -13.8204   20.5725 C   0  0  0  0  0  0
  -24.1831  -13.0472   20.9248 C   0  0  0  0  0  0
  -24.6423  -11.6938   20.8815 C   0  0  0  0  0  0
  -23.9105  -10.4303   21.0438 C   0  0  0  0  0  0
  -24.3641   -9.4206   21.9218 C   0  0  0  0  0  0
  -23.6297   -8.2244   22.0759 C   0  0  0  0  0  0
  -22.4291   -8.0297   21.3525 C   0  0  0  0  0  0
  -21.9942   -9.0287   20.4656 C   0  0  0  0  0  0
  -22.7278  -10.2162   20.3079 C   0  0  0  0  0  0
  -21.6851   -6.0755   22.5273 C   0  0  0  0  0  0
  -21.4005   -6.5632   23.8221 C   0  0  0  0  0  0
  -21.3673   -5.6773   24.9173 C   0  0  0  0  0  0
  -21.6056   -4.3032   24.7221 C   0  0  0  0  0  0
  -21.8823   -3.8150   23.4325 C   0  0  0  0  0  0
  -21.9183   -4.6980   22.3407 C   0  0  0  0  0  0
  -22.7829  -13.5254   21.1844 C   0  0  0  0  0  0
  -22.1652   -4.2159   21.0975 F   0  0  0  0  0  0
  -21.5639   -3.4531   25.7734 F   0  0  0  0  0  0
  -30.0082  -13.4829   20.3767 N   0  0  0  0  0  0
  -26.2989  -12.9412   20.3340 N   0  0  0  0  0  0
  -25.9357  -11.6553   20.5843 N   0  0  0  0  0  0
  -22.0393  -12.8330   22.0401 N   0  0  0  0  0  0
  -25.4183  -15.1941   20.4115 N   0  0  0  0  0  0
  -31.8443  -14.7948   20.1592 O   0  0  0  0  0  0
  -21.6624   -6.8904   21.4238 O   0  0  0  0  0  0
  -22.3539  -14.5549   20.6636 O   0  0  0  0  0  0
  -24.6324  -31.8521   23.1973 C   0  0  0  0  0  0
  -25.9129  -32.4734   23.8338 C   0  0  1  0  0  0
  -27.2336  -27.2674   20.1424 C   0  0  0  0  0  0
  -25.5922  -33.8543   24.2250 N   0  0  0  0  0  0
  -23.4292  -30.4774   21.5370 C   0  0  2  0  0  0
  -24.8790  -28.9213   20.1089 C   0  0  0  0  0  0
  -22.7513  -29.4590   22.4867 C   0  0  0  0  0  0
  -18.0286  -28.1439   22.8468 C   0  0  0  0  0  0
  -24.1470  -36.7309   23.2637 C   0  0  0  0  0  0
  -25.9733  -30.7705   21.3731 C   0  0  0  0  0  0
  -26.0476  -29.3914   20.7212 C   0  0  0  0  0  0
  -27.2259  -28.5804   20.7224 C   0  0  0  0  0  0
  -26.0361  -26.8548   19.5112 C   0  0  0  0  0  0
  -24.8802  -27.6626   19.4882 C   0  0  0  0  0  0
  -23.6490  -29.8107   20.1513 C   0  0  0  0  0  0
  -25.4084  -36.3057   24.0324 C   0  0  1  0  0  0
  -20.5890  -28.3731   23.1258 C   0  0  2  0  0  0
  -20.6765  -26.9437   22.5413 C   0  0  0  0  0  0
  -19.5721  -26.6401   21.5226 C   0  0  0  0  0  0
  -18.1907  -26.7970   22.1641 C   0  0  0  0  0  0
  -19.1544  -28.8902   23.2852 C   0  0  0  0  0  0
  -18.9467  -30.1505   23.8866 C   0  0  0  0  0  0
  -17.6466  -30.6613   24.0585 C   0  0  0  0  0  0
  -25.9032  -34.9433   23.5085 C   0  0  0  0  0  0
  -16.5353  -29.9122   23.6352 C   0  0  0  0  0  0
  -16.7276  -28.6565   23.0318 C   0  0  0  0  0  0
  -26.4500  -31.6575   25.0747 C   0  0  0  0  0  0
  -25.3745  -31.3745   26.1489 C   0  0  0  0  0  0
  -27.0349  -30.2990   24.6240 C   0  0  0  0  0  0
  -27.6026  -32.4347   25.7534 C   0  0  0  0  0  0
  -27.5553  -37.1802   24.8456 C   0  0  0  0  0  0
  -21.4210  -29.3085   22.3656 N   0  0  0  0  0  0
  -26.4262  -37.3764   23.9414 N   0  0  0  0  0  0
  -24.6969  -31.0509   22.0931 N   0  0  0  0  0  0
  -23.4216  -28.8105   23.2934 O   0  0  0  0  0  0
  -28.3460  -26.3943   20.2008 O   0  0  0  0  0  0
  -26.5615  -34.8915   22.4658 O   0  0  0  0  0  0
  -23.5479  -32.1348   23.7268 O   0  0  0  0  0  0
  -28.5313  -19.6940   21.9918 C   0  0  0  0  0  0
  -28.1114  -20.8147   22.7271 C   0  0  0  0  0  0
  -29.2422  -19.8180   20.7860 C   0  0  0  0  0  0
  -28.3846  -22.1332   22.2744 C   0  0  0  0  0  0
  -29.0034  -22.3607   21.0042 C   0  0  0  0  0  0
  -29.4330  -21.1691   20.2769 C   0  0  0  0  0  0
  -27.3854  -20.5478   24.0421 C   0  0  0  0  0  0
  -28.0426  -23.2798   23.2241 C   0  0  0  0  0  0
  -29.6637  -18.4583   20.0789 C   0  0  0  0  0  0
  -29.3041  -23.8653   20.5388 C   0  0  0  0  0  0
  -30.2860  -17.2506   20.9541 C   0  0  0  0  0  0
  -28.1180  -24.9079   20.1880 C   0  0  0  0  0  0
  -29.8832  -15.8120   20.6764 N   0  0  0  0  0  0
  -30.2064  -21.3628   18.7419 Cl  0  0  0  0  0  0
  -31.4744  -12.5603   19.1119 H   0  0  0  0  0  0
  -30.3926  -11.4536   19.9112 H   0  0  0  0  0  0
  -29.7561  -11.7159   17.4943 H   0  0  0  0  0  0
  -29.6291  -13.4474   17.6907 H   0  0  0  0  0  0
  -27.8723  -11.2896   18.8936 H   0  0  0  0  0  0
  -27.3640  -12.5461   17.7967 H   0  0  0  0  0  0
  -27.6465  -14.2583   19.4817 H   0  0  0  0  0  0
  -28.4606  -13.8338   21.7869 H   0  0  0  0  0  0
  -28.7361  -12.1515   21.4166 H   0  0  0  0  0  0
  -25.2778   -9.5668   22.4820 H   0  0  0  0  0  0
  -23.9994   -7.4640   22.7492 H   0  0  0  0  0  0
  -21.0869   -8.8849   19.8973 H   0  0  0  0  0  0
  -22.3757  -10.9731   19.6205 H   0  0  0  0  0  0
  -21.1975   -7.6136   23.9730 H   0  0  0  0  0  0
  -21.1497   -6.0491   25.9088 H   0  0  0  0  0  0
  -22.0593   -2.7613   23.2818 H   0  0  0  0  0  0
  -22.3941  -12.0047   22.4940 H   0  0  0  0  0  0
  -21.0993  -13.1396   22.2463 H   0  0  0  0  0  0
  -24.6409  -15.8372   20.5161 H   0  0  0  0  0  0
  -26.2494  -15.6408   20.0456 H   0  0  0  0  0  0
  -26.7212  -32.5401   23.1106 H   0  0  0  0  0  0
  -25.0083  -33.9683   25.0407 H   0  0  0  0  0  0
  -22.7265  -31.3001   21.3914 H   0  0  0  0  0  0
  -23.3704  -35.9671   23.3299 H   0  0  0  0  0  0
  -24.3566  -36.8938   22.2059 H   0  0  0  0  0  0
  -23.7266  -37.6524   23.6674 H   0  0  0  0  0  0
  -26.1071  -31.5218   20.5935 H   0  0  0  0  0  0
  -26.8545  -30.8276   22.0015 H   0  0  0  0  0  0
  -28.1191  -28.9348   21.2197 H   0  0  0  0  0  0
  -25.9687  -25.8840   19.0449 H   0  0  0  0  0  0
  -23.9865  -27.3019   18.9979 H   0  0  0  0  0  0
  -23.7844  -30.5914   19.4018 H   0  0  0  0  0  0
  -22.7662  -29.2507   19.8349 H   0  0  0  0  0  0
  -25.1263  -36.1887   25.0812 H   0  0  0  0  0  0
  -21.0000  -28.3311   24.1369 H   0  0  0  0  0  0
  -20.5642  -26.2345   23.3628 H   0  0  0  0  0  0
  -21.6624  -26.7431   22.1203 H   0  0  0  0  0  0
  -19.6859  -25.6298   21.1269 H   0  0  0  0  0  0
  -19.6654  -27.3206   20.6741 H   0  0  0  0  0  0
  -17.4167  -26.6714   21.4050 H   0  0  0  0  0  0
  -18.0298  -26.0137   22.9061 H   0  0  0  0  0  0
  -19.7939  -30.7345   24.2194 H   0  0  0  0  0  0
  -17.5018  -31.6273   24.5227 H   0  0  0  0  0  0
  -15.5354  -30.3015   23.7694 H   0  0  0  0  0  0
  -15.8676  -28.0910   22.6991 H   0  0  0  0  0  0
  -24.5896  -30.7096   25.7865 H   0  0  0  0  0  0
  -24.8993  -32.2943   26.4922 H   0  0  0  0  0  0
  -25.8111  -30.8948   27.0265 H   0  0  0  0  0  0
  -26.2954  -29.6740   24.1230 H   0  0  0  0  0  0
  -27.3983  -29.7233   25.4764 H   0  0  0  0  0  0
  -27.8839  -30.4250   23.9519 H   0  0  0  0  0  0
  -27.2575  -33.3620   26.2117 H   0  0  0  0  0  0
  -28.3852  -32.6953   25.0400 H   0  0  0  0  0  0
  -28.0691  -31.8497   26.5474 H   0  0  0  0  0  0
  -28.2555  -38.0108   24.7480 H   0  0  0  0  0  0
  -28.1055  -36.2640   24.6279 H   0  0  0  0  0  0
  -27.2296  -37.1459   25.8866 H   0  0  0  0  0  0
  -20.9381  -29.8908   21.6948 H   0  0  0  0  0  0
  -26.0119  -38.2821   24.1430 H   0  0  0  0  0  0
  -28.3025  -18.7098   22.3766 H   0  0  0  0  0  0
  -26.8951  -19.5734   24.0232 H   0  0  0  0  0  0
  -26.6081  -21.2808   24.2586 H   0  0  0  0  0  0
  -28.0951  -20.5495   24.8679 H   0  0  0  0  0  0
  -26.9644  -23.4026   23.3090 H   0  0  0  0  0  0
  -28.4675  -24.2424   22.9520 H   0  0  0  0  0  0
  -28.4243  -23.0537   24.2218 H   0  0  0  0  0  0
  -30.3936  -18.6911   19.3031 H   0  0  0  0  0  0
  -28.7911  -18.0968   19.5338 H   0  0  0  0  0  0
  -29.9886  -23.8449   19.6927 H   0  0  0  0  0  0
  -29.9162  -24.3040   21.3273 H   0  0  0  0  0  0
  -30.0285  -17.3990   22.0001 H   0  0  0  0  0  0
  -31.3748  -17.3354   20.9360 H   0  0  0  0  0  0
  -27.2875  -24.7168   20.8658 H   0  0  0  0  0  0
  -27.7602  -24.6236   19.1966 H   0  0  0  0  0  0
  -28.9007  -15.6200   20.7942 H   0  0  0  0  0  0
  1 25  1  0  0  0
  1 30  2  0  0  0
  1 83  1  0  0  0
  2  3  1  0  0  0
  2 25  1  0  0  0
  2 85  1  0  0  0
  2 86  1  0  0  0
  3  4  1  0  0  0
  3 87  1  0  0  0
  3 88  1  0  0  0
  4  5  1  0  0  0
  4 89  1  0  0  0
  4 90  1  0  0  0
  5  6  1  0  0  0
  5 26  1  0  0  0
  5 91  1  0  0  0
  6 25  1  0  0  0
  6 92  1  0  0  0
  6 93  1  0  0  0
  7  8  2  0  0  0
  7 26  1  0  0  0
  7 29  1  0  0  0
  8  9  1  0  0  0
  8 22  1  0  0  0
  9 10  1  0  0  0
  9 27  2  0  0  0
 10 11  2  0  0  0
 10 15  1  0  0  0
 11 12  1  0  0  0
 11 94  1  0  0  0
 12 13  2  0  0  0
 12 95  1  0  0  0
 13 14  1  0  0  0
 13 31  1  0  0  0
 14 15  2  0  0  0
 14 96  1  0  0  0
 15 97  1  0  0  0
 16 17  2  0  0  0
 16 21  1  0  0  0
 16 31  1  0  0  0
 17 18  1  0  0  0
 17 98  1  0  0  0
 18 19  2  0  0  0
 18 99  1  0  0  0
 19 20  1  0  0  0
 19 24  1  0  0  0
 20 21  2  0  0  0
 20100  1  0  0  0
 21 23  1  0  0  0
 22 28  1  0  0  0
 22 32  2  0  0  0
 26 27  1  0  0  0
 28101  1  0  0  0
 28102  1  0  0  0
 29103  1  0  0  0
 29104  1  0  0  0
 33 34  1  0  0  0
 33 66  1  0  0  0
 33 70  2  0  0  0
 34 36  1  0  0  0
 34 59  1  0  0  0
 34105  1  0  0  0
 35 44  2  0  0  0
 35 45  1  0  0  0
 35 68  1  0  0  0
 36 56  1  0  0  0
 36106  1  0  0  0
 37 39  1  0  0  0
 37 47  1  0  0  0
 37 66  1  0  0  0
 37107  1  0  0  0
 38 43  2  0  0  0
 38 46  1  0  0  0
 38 47  1  0  0  0
 39 64  1  0  0  0
 39 67  2  0  0  0
 40 52  1  0  0  0
 40 53  2  0  0  0
 40 58  1  0  0  0
 41108  1  0  0  0
 41109  1  0  0  0
 41110  1  0  0  0
 41 48  1  0  0  0
 42 43  1  0  0  0
 42 66  1  0  0  0
 42111  1  0  0  0
 42112  1  0  0  0
 43 44  1  0  0  0
 44113  1  0  0  0
 45 46  2  0  0  0
 45114  1  0  0  0
 46115  1  0  0  0
 47116  1  0  0  0
 47117  1  0  0  0
 48 56  1  0  0  0
 48 65  1  0  0  0
 48118  1  0  0  0
 49 50  1  0  0  0
 49 53  1  0  0  0
 49 64  1  0  0  0
 49119  1  0  0  0
 50 51  1  0  0  0
 50120  1  0  0  0
 50121  1  0  0  0
 51 52  1  0  0  0
 51122  1  0  0  0
 51123  1  0  0  0
 52124  1  0  0  0
 52125  1  0  0  0
 53 54  1  0  0  0
 54 55  2  0  0  0
 54126  1  0  0  0
 55 57  1  0  0  0
 55127  1  0  0  0
 56 69  2  0  0  0
 57 58  2  0  0  0
 57128  1  0  0  0
 58129  1  0  0  0
 59 60  1  0  0  0
 59 61  1  0  0  0
 59 62  1  0  0  0
 60130  1  0  0  0
 60131  1  0  0  0
 60132  1  0  0  0
 61133  1  0  0  0
 61134  1  0  0  0
 61135  1  0  0  0
 62136  1  0  0  0
 62137  1  0  0  0
 62138  1  0  0  0
 63 65  1  0  0  0
 63139  1  0  0  0
 63140  1  0  0  0
 63141  1  0  0  0
 64142  1  0  0  0
 65143  1  0  0  0
 68 82  1  0  0  0
 71 72  2  0  0  0
 71 73  1  0  0  0
 71144  1  0  0  0
 72 74  1  0  0  0
 72 77  1  0  0  0
 73 76  2  0  0  0
 73 79  1  0  0  0
 74 75  2  0  0  0
 74 78  1  0  0  0
 75 76  1  0  0  0
 75 80  1  0  0  0
 76 84  1  0  0  0
 77145  1  0  0  0
 77146  1  0  0  0
 77147  1  0  0  0
 78148  1  0  0  0
 78149  1  0  0  0
 78150  1  0  0  0
 79 81  1  0  0  0
 79151  1  0  0  0
 79152  1  0  0  0
 80 82  1  0  0  0
 80153  1  0  0  0
 80154  1  0  0  0
 81 83  1  0  0  0
 81155  1  0  0  0
 81156  1  0  0  0
 82157  1  0  0  0
 82158  1  0  0  0
 83159  1  0  0  0
M  ISO  4   1 100  68 101  82 101  83 100
M  END
> <chiral flag>
0

> <version>
0

> <s_m_source_file>
/data/baiqing/PycharmProjects/Reinvent-master-3.2/result/LINK_invent/BTK/process_docking_weight1_custom_sum_contain_oxygen_bond_distance_aromatic_linkinvent_7_9_3/rearranged_h_0034.sdf

> <i_m_source_file_index>
56

> <r_mmod_Potential_Energy-OPLS-2005>
118.089660644531

> <r_mmod_Stretch_Energy-OPLS-2005>
118.827682495117

> <r_mmod_Bend_Energy-OPLS-2005>
154.379730224609

> <r_mmod_Torsional_Energy-OPLS-2005>
222.815460205078

> <r_mmod_Improper_Torsional_Energy-OPLS-2005>
5.23150634765625

> <r_mmod_Van_der_Waal_Energy-OPLS-2005>
145.533981323242

> <r_mmod_Electrostatic_Energy-OPLS-2005>
-395.086181640625

> <r_mmod_Solvation_Energy-OPLS-2005>
-207.010498046875

> <b_mmod_Minimization_Converged-OPLS-2005>
0

> <r_mmod_RMS_Derivative-OPLS-2005>
4.01992750167847

$$$$
57
                    3D
 Structure written by MMmdl.
165173  0  0  1  0            999 V2000
  -30.7251  -14.4777   20.6160 C   0  0  0  0  0  0
  -30.4280  -12.3207   19.4123 C   0  0  0  0  0  0
  -29.5022  -12.5159   18.1947 C   0  0  0  0  0  0
  -28.0231  -12.3966   18.6018 C   0  0  0  0  0  0
  -27.6767  -13.2031   19.8840 C   0  0  2  0  0  0
  -28.7207  -12.9859   21.0026 C   0  0  0  0  0  0
  -25.2742  -13.8063   20.5747 C   0  0  0  0  0  0
  -24.1962  -13.0423   20.9135 C   0  0  0  0  0  0
  -24.6444  -11.6842   20.8706 C   0  0  0  0  0  0
  -23.9067  -10.4293   21.0408 C   0  0  0  0  0  0
  -24.3612   -9.4241   21.9227 C   0  0  0  0  0  0
  -23.6331   -8.2250   22.0782 C   0  0  0  0  0  0
  -22.4333   -8.0241   21.3536 C   0  0  0  0  0  0
  -21.9942   -9.0242   20.4686 C   0  0  0  0  0  0
  -22.7206  -10.2151   20.3103 C   0  0  0  0  0  0
  -21.6881   -6.0712   22.5239 C   0  0  0  0  0  0
  -21.4016   -6.5632   23.8156 C   0  0  0  0  0  0
  -21.3733   -5.6805   24.9152 C   0  0  0  0  0  0
  -21.6067   -4.3065   24.7235 C   0  0  0  0  0  0
  -21.8837   -3.8132   23.4355 C   0  0  0  0  0  0
  -21.9227   -4.6939   22.3385 C   0  0  0  0  0  0
  -22.7981  -13.5245   21.1804 C   0  0  0  0  0  0
  -22.1683   -4.2100   21.0986 F   0  0  0  0  0  0
  -21.5732   -3.4571   25.7774 F   0  0  0  0  0  0
  -30.0484  -13.3045   20.4439 N   0  0  0  0  0  0
  -26.3172  -12.9228   20.3402 N   0  0  0  0  0  0
  -25.9388  -11.6378   20.5696 N   0  0  0  0  0  0
  -22.0566  -12.8313   22.0352 N   0  0  0  0  0  0
  -25.4601  -15.1789   20.4236 N   0  0  0  0  0  0
  -31.8122  -14.7089   20.0765 O   0  0  0  0  0  0
  -21.6715   -6.8829   21.4179 O   0  0  0  0  0  0
  -22.3709  -14.5582   20.6666 O   0  0  0  0  0  0
  -24.6134  -31.8671   23.2058 C   0  0  0  0  0  0
  -25.9016  -32.4849   23.8385 C   0  0  1  0  0  0
  -27.2675  -27.4516   20.0768 C   0  0  0  0  0  0
  -25.5874  -33.8646   24.2320 N   0  0  0  0  0  0
  -23.4044  -30.4829   21.5429 C   0  0  2  0  0  0
  -24.8615  -28.9482   20.1055 C   0  0  0  0  0  0
  -22.7390  -29.4613   22.4946 C   0  0  0  0  0  0
  -18.0300  -28.1379   22.8555 C   0  0  0  0  0  0
  -24.1484  -36.7290   23.2647 C   0  0  0  0  0  0
  -25.9275  -30.8371   21.3516 C   0  0  0  0  0  0
  -26.0126  -29.4673   20.7085 C   0  0  0  0  0  0
  -27.2082  -28.7162   20.7079 C   0  0  0  0  0  0
  -26.0996  -26.9439   19.4641 C   0  0  0  0  0  0
  -24.8992  -27.6842   19.4867 C   0  0  0  0  0  0
  -23.6166  -29.8071   20.1591 C   0  0  0  0  0  0
  -25.4109  -36.3114   24.0336 C   0  0  1  0  0  0
  -20.5888  -28.3675   23.1322 C   0  0  2  0  0  0
  -20.6806  -26.9390   22.5463 C   0  0  0  0  0  0
  -19.5749  -26.6341   21.5302 C   0  0  0  0  0  0
  -18.1942  -26.7910   22.1714 C   0  0  0  0  0  0
  -19.1536  -28.8835   23.2946 C   0  0  0  0  0  0
  -18.9465  -30.1448   23.8938 C   0  0  0  0  0  0
  -17.6467  -30.6622   24.0507 C   0  0  0  0  0  0
  -25.9030  -34.9482   23.5137 C   0  0  0  0  0  0
  -16.5358  -29.9125   23.6284 C   0  0  0  0  0  0
  -16.7291  -28.6516   23.0396 C   0  0  0  0  0  0
  -26.4444  -31.6634   25.0700 C   0  0  0  0  0  0
  -25.3700  -31.3698   26.1425 C   0  0  0  0  0  0
  -27.0295  -30.3110   24.6028 C   0  0  0  0  0  0
  -27.6084  -32.4288   25.7408 C   0  0  0  0  0  0
  -27.5571  -37.1807   24.8472 C   0  0  0  0  0  0
  -21.4126  -29.2990   22.3658 N   0  0  0  0  0  0
  -26.4310  -37.3790   23.9400 N   0  0  0  0  0  0
  -24.6669  -31.0764   22.0939 N   0  0  0  0  0  0
  -23.4118  -28.8182   23.3058 O   0  0  0  0  0  0
  -28.4530  -26.7476   20.1326 O   0  0  0  0  0  0
  -26.5597  -34.8928   22.4685 O   0  0  0  0  0  0
  -23.5339  -32.1402   23.7456 O   0  0  0  0  0  0
  -27.0735  -22.5153   21.3541 C   0  0  0  0  0  0
  -26.5371  -21.4197   22.0639 C   0  0  0  0  0  0
  -29.2185  -21.3755   21.2598 C   0  0  0  0  0  0
  -28.4348  -22.5306   20.9913 C   0  0  0  0  0  0
  -27.3568  -20.3331   22.4507 C   0  0  0  0  0  0
  -28.7076  -20.2763   22.0112 C   0  0  0  0  0  0
  -26.1655  -18.0654   22.7298 C   0  0  0  0  0  0
  -29.0659  -23.8733   20.5643 C   0  0  0  0  0  0
  -26.7781  -19.3011   23.4162 C   0  0  0  0  0  0
  -29.6759  -19.1610   22.4816 C   0  0  0  0  0  0
  -28.7836  -24.4453   19.1431 C   0  0  0  0  0  0
  -29.3385  -17.6887   22.1079 C   0  0  0  0  0  0
  -30.5091  -16.8211   21.5707 C   0  0  0  0  0  0
  -28.9227  -25.9962   19.0079 C   0  0  0  0  0  0
  -30.0952  -15.4194   21.3425 N   0  0  0  0  0  0
  -31.4740  -12.4103   19.1066 H   0  0  0  0  0  0
  -30.3146  -11.3063   19.8045 H   0  0  0  0  0  0
  -29.7301  -11.7700   17.4336 H   0  0  0  0  0  0
  -29.6848  -13.4907   17.7349 H   0  0  0  0  0  0
  -27.7980  -11.3387   18.7365 H   0  0  0  0  0  0
  -27.3920  -12.7406   17.7832 H   0  0  0  0  0  0
  -27.7269  -14.2613   19.6171 H   0  0  0  0  0  0
  -28.7052  -11.9580   21.3631 H   0  0  0  0  0  0
  -28.4822  -13.5892   21.8793 H   0  0  0  0  0  0
  -25.2760   -9.5765   22.4811 H   0  0  0  0  0  0
  -24.0089   -7.4683   22.7518 H   0  0  0  0  0  0
  -21.0863   -8.8732   19.9025 H   0  0  0  0  0  0
  -22.3621  -10.9712   19.6258 H   0  0  0  0  0  0
  -21.1936   -7.6124   23.9633 H   0  0  0  0  0  0
  -21.1555   -6.0540   25.9050 H   0  0  0  0  0  0
  -22.0558   -2.7573   23.2838 H   0  0  0  0  0  0
  -22.4120  -12.0011   22.4860 H   0  0  0  0  0  0
  -21.1171  -13.1376   22.2470 H   0  0  0  0  0  0
  -24.7139  -15.8391   20.5941 H   0  0  0  0  0  0
  -26.3246  -15.6150   20.1346 H   0  0  0  0  0  0
  -26.7071  -32.5578   23.1156 H   0  0  0  0  0  0
  -25.0031  -33.9827   25.0455 H   0  0  0  0  0  0
  -22.6918  -31.2968   21.3932 H   0  0  0  0  0  0
  -23.3766  -35.9614   23.3354 H   0  0  0  0  0  0
  -24.3586  -36.8863   22.2064 H   0  0  0  0  0  0
  -23.7218  -37.6500   23.6623 H   0  0  0  0  0  0
  -26.0260  -31.6002   20.5808 H   0  0  0  0  0  0
  -26.8171  -30.9038   21.9654 H   0  0  0  0  0  0
  -28.0937  -29.1148   21.1854 H   0  0  0  0  0  0
  -26.1041  -25.9756   18.9856 H   0  0  0  0  0  0
  -24.0145  -27.2690   19.0242 H   0  0  0  0  0  0
  -23.7062  -30.5723   19.3857 H   0  0  0  0  0  0
  -22.7468  -29.2091   19.8835 H   0  0  0  0  0  0
  -25.1296  -36.2017   25.0842 H   0  0  0  0  0  0
  -21.0032  -28.3405   24.1433 H   0  0  0  0  0  0
  -20.5753  -26.2314   23.3725 H   0  0  0  0  0  0
  -21.6687  -26.7501   22.1218 H   0  0  0  0  0  0
  -19.6902  -25.6214   21.1458 H   0  0  0  0  0  0
  -19.6672  -27.3059   20.6747 H   0  0  0  0  0  0
  -17.4199  -26.6575   21.4148 H   0  0  0  0  0  0
  -18.0377  -26.0079   22.9140 H   0  0  0  0  0  0
  -19.7906  -30.7224   24.2378 H   0  0  0  0  0  0
  -17.5017  -31.6300   24.5110 H   0  0  0  0  0  0
  -15.5339  -30.3042   23.7603 H   0  0  0  0  0  0
  -15.8685  -28.0807   22.7198 H   0  0  0  0  0  0
  -24.5886  -30.7063   25.7664 H   0  0  0  0  0  0
  -24.8855  -32.2852   26.4861 H   0  0  0  0  0  0
  -25.8038  -30.8830   27.0176 H   0  0  0  0  0  0
  -26.2842  -29.6826   24.1140 H   0  0  0  0  0  0
  -27.4183  -29.7392   25.4457 H   0  0  0  0  0  0
  -27.8595  -30.4463   23.9088 H   0  0  0  0  0  0
  -27.2819  -33.3596   26.2027 H   0  0  0  0  0  0
  -28.3856  -32.6809   25.0183 H   0  0  0  0  0  0
  -28.0775  -31.8356   26.5275 H   0  0  0  0  0  0
  -28.2625  -38.0064   24.7513 H   0  0  0  0  0  0
  -28.1055  -36.2630   24.6336 H   0  0  0  0  0  0
  -27.2303  -37.1443   25.8875 H   0  0  0  0  0  0
  -20.9339  -29.8673   21.6826 H   0  0  0  0  0  0
  -26.0227  -38.2878   24.1434 H   0  0  0  0  0  0
  -26.4729  -23.3960   21.1634 H   0  0  0  0  0  0
  -25.5049  -21.4489   22.3899 H   0  0  0  0  0  0
  -30.2641  -21.3662   20.9912 H   0  0  0  0  0  0
  -25.1856  -17.8311   23.1521 H   0  0  0  0  0  0
  -26.7801  -17.1750   22.8512 H   0  0  0  0  0  0
  -26.0509  -18.2091   21.6562 H   0  0  0  0  0  0
  -30.1399  -23.8365   20.7461 H   0  0  0  0  0  0
  -28.6921  -24.5949   21.2885 H   0  0  0  0  0  0
  -26.0140  -19.7717   24.0367 H   0  0  0  0  0  0
  -27.5623  -19.0147   24.1168 H   0  0  0  0  0  0
  -29.7330  -19.2110   23.5702 H   0  0  0  0  0  0
  -30.6862  -19.3990   22.1515 H   0  0  0  0  0  0
  -27.7968  -24.1575   18.7869 H   0  0  0  0  0  0
  -29.4875  -23.9904   18.4409 H   0  0  0  0  0  0
  -28.5212  -17.6806   21.3901 H   0  0  0  0  0  0
  -28.9650  -17.1979   23.0064 H   0  0  0  0  0  0
  -31.3470  -16.8393   22.2701 H   0  0  0  0  0  0
  -30.8819  -17.2662   20.6473 H   0  0  0  0  0  0
  -29.9880  -26.2399   18.9285 H   0  0  0  0  0  0
  -28.4727  -26.3653   18.0816 H   0  0  0  0  0  0
  -29.2170  -15.1269   21.7438 H   0  0  0  0  0  0
  1 25  1  0  0  0
  1 30  2  0  0  0
  1 85  1  0  0  0
  2  3  1  0  0  0
  2 25  1  0  0  0
  2 86  1  0  0  0
  2 87  1  0  0  0
  3  4  1  0  0  0
  3 88  1  0  0  0
  3 89  1  0  0  0
  4  5  1  0  0  0
  4 90  1  0  0  0
  4 91  1  0  0  0
  5  6  1  0  0  0
  5 26  1  0  0  0
  5 92  1  0  0  0
  6 25  1  0  0  0
  6 93  1  0  0  0
  6 94  1  0  0  0
  7  8  2  0  0  0
  7 26  1  0  0  0
  7 29  1  0  0  0
  8  9  1  0  0  0
  8 22  1  0  0  0
  9 10  1  0  0  0
  9 27  2  0  0  0
 10 11  2  0  0  0
 10 15  1  0  0  0
 11 12  1  0  0  0
 11 95  1  0  0  0
 12 13  2  0  0  0
 12 96  1  0  0  0
 13 14  1  0  0  0
 13 31  1  0  0  0
 14 15  2  0  0  0
 14 97  1  0  0  0
 15 98  1  0  0  0
 16 17  2  0  0  0
 16 21  1  0  0  0
 16 31  1  0  0  0
 17 18  1  0  0  0
 17 99  1  0  0  0
 18 19  2  0  0  0
 18100  1  0  0  0
 19 20  1  0  0  0
 19 24  1  0  0  0
 20 21  2  0  0  0
 20101  1  0  0  0
 21 23  1  0  0  0
 22 28  1  0  0  0
 22 32  2  0  0  0
 26 27  1  0  0  0
 28102  1  0  0  0
 28103  1  0  0  0
 29104  1  0  0  0
 29105  1  0  0  0
 33 34  1  0  0  0
 33 66  1  0  0  0
 33 70  2  0  0  0
 34 36  1  0  0  0
 34 59  1  0  0  0
 34106  1  0  0  0
 35 44  2  0  0  0
 35 45  1  0  0  0
 35 68  1  0  0  0
 36 56  1  0  0  0
 36107  1  0  0  0
 37 39  1  0  0  0
 37 47  1  0  0  0
 37 66  1  0  0  0
 37108  1  0  0  0
 38 43  2  0  0  0
 38 46  1  0  0  0
 38 47  1  0  0  0
 39 64  1  0  0  0
 39 67  2  0  0  0
 40 52  1  0  0  0
 40 53  2  0  0  0
 40 58  1  0  0  0
 41109  1  0  0  0
 41110  1  0  0  0
 41111  1  0  0  0
 41 48  1  0  0  0
 42 43  1  0  0  0
 42 66  1  0  0  0
 42112  1  0  0  0
 42113  1  0  0  0
 43 44  1  0  0  0
 44114  1  0  0  0
 45 46  2  0  0  0
 45115  1  0  0  0
 46116  1  0  0  0
 47117  1  0  0  0
 47118  1  0  0  0
 48 56  1  0  0  0
 48 65  1  0  0  0
 48119  1  0  0  0
 49 50  1  0  0  0
 49 53  1  0  0  0
 49 64  1  0  0  0
 49120  1  0  0  0
 50 51  1  0  0  0
 50121  1  0  0  0
 50122  1  0  0  0
 51 52  1  0  0  0
 51123  1  0  0  0
 51124  1  0  0  0
 52125  1  0  0  0
 52126  1  0  0  0
 53 54  1  0  0  0
 54 55  2  0  0  0
 54127  1  0  0  0
 55 57  1  0  0  0
 55128  1  0  0  0
 56 69  2  0  0  0
 57 58  2  0  0  0
 57129  1  0  0  0
 58130  1  0  0  0
 59 60  1  0  0  0
 59 61  1  0  0  0
 59 62  1  0  0  0
 60131  1  0  0  0
 60132  1  0  0  0
 60133  1  0  0  0
 61134  1  0  0  0
 61135  1  0  0  0
 61136  1  0  0  0
 62137  1  0  0  0
 62138  1  0  0  0
 62139  1  0  0  0
 63 65  1  0  0  0
 63140  1  0  0  0
 63141  1  0  0  0
 63142  1  0  0  0
 64143  1  0  0  0
 65144  1  0  0  0
 68 84  1  0  0  0
 71 72  2  0  0  0
 71 74  1  0  0  0
 71145  1  0  0  0
 72 75  1  0  0  0
 72146  1  0  0  0
 73 74  2  0  0  0
 73 76  1  0  0  0
 73147  1  0  0  0
 74 78  1  0  0  0
 75 76  2  0  0  0
 75 79  1  0  0  0
 76 80  1  0  0  0
 77 79  1  0  0  0
 77148  1  0  0  0
 77149  1  0  0  0
 77150  1  0  0  0
 78 81  1  0  0  0
 78151  1  0  0  0
 78152  1  0  0  0
 79153  1  0  0  0
 79154  1  0  0  0
 80 82  1  0  0  0
 80155  1  0  0  0
 80156  1  0  0  0
 81 84  1  0  0  0
 81157  1  0  0  0
 81158  1  0  0  0
 82 83  1  0  0  0
 82159  1  0  0  0
 82160  1  0  0  0
 83 85  1  0  0  0
 83161  1  0  0  0
 83162  1  0  0  0
 84163  1  0  0  0
 84164  1  0  0  0
 85165  1  0  0  0
M  ISO  4   1 100  68 101  84 101  85 100
M  END
> <chiral flag>
0

> <version>
0

> <s_m_source_file>
/data/baiqing/PycharmProjects/Reinvent-master-3.2/result/LINK_invent/BTK/process_docking_weight1_custom_sum_contain_oxygen_bond_distance_aromatic_linkinvent_7_9_3/rearranged_h_0034.sdf

> <i_m_source_file_index>
57

> <r_mmod_Potential_Energy-OPLS-2005>
-19.0441226959229

> <r_mmod_Stretch_Energy-OPLS-2005>
45.5381469726562

> <r_mmod_Bend_Energy-OPLS-2005>
116.652984619141

> <r_mmod_Torsional_Energy-OPLS-2005>
251.244812011719

> <r_mmod_Improper_Torsional_Energy-OPLS-2005>
4.67310810089111

> <r_mmod_Van_der_Waal_Energy-OPLS-2005>
142.215866088867

> <r_mmod_Electrostatic_Energy-OPLS-2005>
-390.28955078125

> <r_mmod_Solvation_Energy-OPLS-2005>
-202.180618286133

> <b_mmod_Minimization_Converged-OPLS-2005>
0

> <r_mmod_RMS_Derivative-OPLS-2005>
9.39362239837646

$$$$
58
                    3D
 Structure written by MMmdl.
155163  0  0  1  0            999 V2000
  -30.6235  -14.7307   20.4745 C   0  0  0  0  0  0
  -30.4272  -12.4477   19.4772 C   0  0  0  0  0  0
  -29.5071  -12.5229   18.2390 C   0  0  0  0  0  0
  -28.0328  -12.3490   18.6540 C   0  0  0  0  0  0
  -27.6426  -13.2402   19.8642 C   0  0  2  0  0  0
  -28.6884  -13.1632   20.9978 C   0  0  0  0  0  0
  -25.2459  -13.8229   20.5688 C   0  0  0  0  0  0
  -24.1763  -13.0443   20.9184 C   0  0  0  0  0  0
  -24.6388  -11.6931   20.8756 C   0  0  0  0  0  0
  -23.9098  -10.4284   21.0429 C   0  0  0  0  0  0
  -24.3636   -9.4188   21.9199 C   0  0  0  0  0  0
  -23.6295   -8.2230   22.0785 C   0  0  0  0  0  0
  -22.4269   -8.0287   21.3579 C   0  0  0  0  0  0
  -21.9911   -9.0271   20.4671 C   0  0  0  0  0  0
  -22.7270  -10.2127   20.3084 C   0  0  0  0  0  0
  -21.6848   -6.0712   22.5265 C   0  0  0  0  0  0
  -21.4015   -6.5614   23.8195 C   0  0  0  0  0  0
  -21.3678   -5.6788   24.9162 C   0  0  0  0  0  0
  -21.6060   -4.3051   24.7225 C   0  0  0  0  0  0
  -21.8821   -3.8130   23.4359 C   0  0  0  0  0  0
  -21.9188   -4.6935   22.3392 C   0  0  0  0  0  0
  -22.7770  -13.5190   21.1843 C   0  0  0  0  0  0
  -22.1640   -4.2113   21.0976 F   0  0  0  0  0  0
  -21.5666   -3.4537   25.7744 F   0  0  0  0  0  0
  -29.9913  -13.5103   20.4134 N   0  0  0  0  0  0
  -26.2934  -12.9461   20.3370 N   0  0  0  0  0  0
  -25.9324  -11.6574   20.5795 N   0  0  0  0  0  0
  -22.0474  -12.8159   22.0424 N   0  0  0  0  0  0
  -25.4102  -15.1959   20.4083 N   0  0  0  0  0  0
  -31.8095  -14.8282   20.1441 O   0  0  0  0  0  0
  -21.6660   -6.8864   21.4233 O   0  0  0  0  0  0
  -22.3416  -14.5502   20.6721 O   0  0  0  0  0  0
  -24.6284  -31.8582   23.1973 C   0  0  0  0  0  0
  -25.9122  -32.4761   23.8323 C   0  0  1  0  0  0
  -27.2230  -27.2794   20.1398 C   0  0  0  0  0  0
  -25.5913  -33.8562   24.2254 N   0  0  0  0  0  0
  -23.4242  -30.4764   21.5422 C   0  0  2  0  0  0
  -24.8693  -28.9144   20.1188 C   0  0  0  0  0  0
  -22.7476  -29.4613   22.4959 C   0  0  0  0  0  0
  -18.0301  -28.1363   22.8500 C   0  0  0  0  0  0
  -24.1482  -36.7297   23.2648 C   0  0  0  0  0  0
  -25.9659  -30.7752   21.3701 C   0  0  0  0  0  0
  -26.0409  -29.3964   20.7185 C   0  0  0  0  0  0
  -27.2237  -28.5954   20.7073 C   0  0  0  0  0  0
  -26.0322  -26.8486   19.5225 C   0  0  0  0  0  0
  -24.8691  -27.6468   19.5114 C   0  0  0  0  0  0
  -23.6384  -29.8002   20.1620 C   0  0  0  0  0  0
  -25.4109  -36.3085   24.0334 C   0  0  1  0  0  0
  -20.5890  -28.3671   23.1288 C   0  0  2  0  0  0
  -20.6777  -26.9400   22.5419 C   0  0  0  0  0  0
  -19.5747  -26.6373   21.5221 C   0  0  0  0  0  0
  -18.1925  -26.7914   22.1637 C   0  0  0  0  0  0
  -19.1549  -28.8845   23.2880 C   0  0  0  0  0  0
  -18.9469  -30.1452   23.8878 C   0  0  0  0  0  0
  -17.6469  -30.6570   24.0563 C   0  0  0  0  0  0
  -25.9061  -34.9455   23.5114 C   0  0  0  0  0  0
  -16.5361  -29.9066   23.6326 C   0  0  0  0  0  0
  -16.7285  -28.6479   23.0349 C   0  0  0  0  0  0
  -26.4483  -31.6571   25.0703 C   0  0  0  0  0  0
  -25.3705  -31.3732   26.1426 C   0  0  0  0  0  0
  -27.0329  -30.2987   24.6184 C   0  0  0  0  0  0
  -27.6011  -32.4328   25.7480 C   0  0  0  0  0  0
  -27.5586  -37.1793   24.8462 C   0  0  0  0  0  0
  -21.4183  -29.3031   22.3679 N   0  0  0  0  0  0
  -26.4291  -37.3770   23.9423 N   0  0  0  0  0  0
  -24.6921  -31.0552   22.0932 N   0  0  0  0  0  0
  -23.4184  -28.8189   23.3080 O   0  0  0  0  0  0
  -28.3452  -26.4329   20.1098 O   0  0  0  0  0  0
  -26.5645  -34.8927   22.4689 O   0  0  0  0  0  0
  -23.5442  -32.1401   23.7289 O   0  0  0  0  0  0
  -31.0835  -20.3531   20.1995 C   0  0  0  0  0  0
  -30.5965  -22.7226   19.9536 C   0  0  0  0  0  0
  -31.5290  -21.6665   19.9559 C   0  0  0  0  0  0
  -29.7158  -20.0864   20.4135 C   0  0  0  0  0  0
  -29.2294  -22.4696   20.1655 C   0  0  0  0  0  0
  -32.9906  -21.9364   19.6472 C   0  0  0  0  0  0
  -29.2381  -18.5709   20.6201 C   0  0  0  0  0  0
  -28.2130  -23.6771   19.9306 C   0  0  0  0  0  0
  -30.3064  -17.3391   20.5831 C   0  0  0  0  0  0
  -28.3124  -25.0741   20.7458 C   0  0  0  0  0  0
  -28.8125  -21.1547   20.3919 N   0  0  0  0  0  0
  -29.8664  -15.8721   20.6977 N   0  0  0  0  0  0
  -31.4736  -12.5521   19.1878 H   0  0  0  0  0  0
  -30.3519  -11.4694   19.9547 H   0  0  0  0  0  0
  -29.7872  -11.7643   17.5070 H   0  0  0  0  0  0
  -29.6360  -13.4897   17.7464 H   0  0  0  0  0  0
  -27.8800  -11.2996   18.9058 H   0  0  0  0  0  0
  -27.3771  -12.5622   17.8091 H   0  0  0  0  0  0
  -27.6427  -14.2669   19.4973 H   0  0  0  0  0  0
  -28.7117  -12.1635   21.4330 H   0  0  0  0  0  0
  -28.4346  -13.8426   21.8132 H   0  0  0  0  0  0
  -25.2799   -9.5636   22.4736 H   0  0  0  0  0  0
  -24.0003   -7.4623   22.7506 H   0  0  0  0  0  0
  -21.0851   -8.8826   19.8945 H   0  0  0  0  0  0
  -22.3800  -10.9674   19.6176 H   0  0  0  0  0  0
  -21.1997   -7.6120   23.9677 H   0  0  0  0  0  0
  -21.1509   -6.0527   25.9068 H   0  0  0  0  0  0
  -22.0583   -2.7587   23.2879 H   0  0  0  0  0  0
  -22.4120  -11.9816   22.4763 H   0  0  0  0  0  0
  -21.1119  -13.1186   22.2719 H   0  0  0  0  0  0
  -24.6427  -15.8500   20.5291 H   0  0  0  0  0  0
  -26.2571  -15.6442   20.0839 H   0  0  0  0  0  0
  -26.7195  -32.5412   23.1065 H   0  0  0  0  0  0
  -24.9984  -33.9679   25.0351 H   0  0  0  0  0  0
  -22.7207  -31.2979   21.3933 H   0  0  0  0  0  0
  -23.3751  -35.9622   23.3280 H   0  0  0  0  0  0
  -24.3601  -36.8946   22.2076 H   0  0  0  0  0  0
  -23.7217  -37.6479   23.6693 H   0  0  0  0  0  0
  -26.1059  -31.5348   20.6001 H   0  0  0  0  0  0
  -26.8441  -30.8251   22.0022 H   0  0  0  0  0  0
  -28.1306  -28.9714   21.1599 H   0  0  0  0  0  0
  -26.0023  -25.8759   19.0513 H   0  0  0  0  0  0
  -23.9700  -27.2659   19.0460 H   0  0  0  0  0  0
  -23.7604  -30.5725   19.4015 H   0  0  0  0  0  0
  -22.7553  -29.2300   19.8643 H   0  0  0  0  0  0
  -25.1283  -36.1932   25.0821 H   0  0  0  0  0  0
  -20.9994  -28.3257   24.1403 H   0  0  0  0  0  0
  -20.5675  -26.2297   23.3621 H   0  0  0  0  0  0
  -21.6641  -26.7414   22.1214 H   0  0  0  0  0  0
  -19.6911  -25.6284   21.1240 H   0  0  0  0  0  0
  -19.6681  -27.3192   20.6757 H   0  0  0  0  0  0
  -17.4206  -26.6686   21.4022 H   0  0  0  0  0  0
  -18.0319  -26.0032   22.9009 H   0  0  0  0  0  0
  -19.7953  -30.7286   24.2209 H   0  0  0  0  0  0
  -17.5023  -31.6247   24.5180 H   0  0  0  0  0  0
  -15.5362  -30.2962   23.7651 H   0  0  0  0  0  0
  -15.8689  -28.0800   22.7056 H   0  0  0  0  0  0
  -24.5859  -30.7110   25.7757 H   0  0  0  0  0  0
  -24.8928  -32.2916   26.4854 H   0  0  0  0  0  0
  -25.8018  -30.8900   27.0199 H   0  0  0  0  0  0
  -26.2918  -29.6736   24.1202 H   0  0  0  0  0  0
  -27.4002  -29.7251   25.4698 H   0  0  0  0  0  0
  -27.8784  -30.4263   23.9426 H   0  0  0  0  0  0
  -27.2585  -33.3631   26.2033 H   0  0  0  0  0  0
  -28.3823  -32.6904   25.0313 H   0  0  0  0  0  0
  -28.0674  -31.8483   26.5419 H   0  0  0  0  0  0
  -28.2570  -38.0114   24.7538 H   0  0  0  0  0  0
  -28.1108  -36.2655   24.6236 H   0  0  0  0  0  0
  -27.2330  -37.1371   25.8864 H   0  0  0  0  0  0
  -20.9392  -29.8738   21.6851 H   0  0  0  0  0  0
  -26.0174  -38.2850   24.1398 H   0  0  0  0  0  0
  -31.8008  -19.5443   20.1862 H   0  0  0  0  0  0
  -30.9278  -23.7276   19.7306 H   0  0  0  0  0  0
  -33.4882  -21.0300   19.3004 H   0  0  0  0  0  0
  -33.5188  -22.3012   20.5291 H   0  0  0  0  0  0
  -33.0880  -22.6830   18.8581 H   0  0  0  0  0  0
  -28.4811  -18.3798   19.8599 H   0  0  0  0  0  0
  -28.7082  -18.5305   21.5726 H   0  0  0  0  0  0
  -27.2033  -23.2852   20.0583 H   0  0  0  0  0  0
  -28.2813  -23.9141   18.8696 H   0  0  0  0  0  0
  -31.0341  -17.5052   21.3796 H   0  0  0  0  0  0
  -30.8682  -17.4244   19.6511 H   0  0  0  0  0  0
  -29.2307  -25.0330   21.3326 H   0  0  0  0  0  0
  -27.5284  -25.0783   21.5050 H   0  0  0  0  0  0
  -28.8950  -15.7117   20.9170 H   0  0  0  0  0  0
  1 25  1  0  0  0
  1 30  2  0  0  0
  1 82  1  0  0  0
  2  3  1  0  0  0
  2 25  1  0  0  0
  2 83  1  0  0  0
  2 84  1  0  0  0
  3  4  1  0  0  0
  3 85  1  0  0  0
  3 86  1  0  0  0
  4  5  1  0  0  0
  4 87  1  0  0  0
  4 88  1  0  0  0
  5  6  1  0  0  0
  5 26  1  0  0  0
  5 89  1  0  0  0
  6 25  1  0  0  0
  6 90  1  0  0  0
  6 91  1  0  0  0
  7  8  2  0  0  0
  7 26  1  0  0  0
  7 29  1  0  0  0
  8  9  1  0  0  0
  8 22  1  0  0  0
  9 10  1  0  0  0
  9 27  2  0  0  0
 10 11  2  0  0  0
 10 15  1  0  0  0
 11 12  1  0  0  0
 11 92  1  0  0  0
 12 13  2  0  0  0
 12 93  1  0  0  0
 13 14  1  0  0  0
 13 31  1  0  0  0
 14 15  2  0  0  0
 14 94  1  0  0  0
 15 95  1  0  0  0
 16 17  2  0  0  0
 16 21  1  0  0  0
 16 31  1  0  0  0
 17 18  1  0  0  0
 17 96  1  0  0  0
 18 19  2  0  0  0
 18 97  1  0  0  0
 19 20  1  0  0  0
 19 24  1  0  0  0
 20 21  2  0  0  0
 20 98  1  0  0  0
 21 23  1  0  0  0
 22 28  1  0  0  0
 22 32  2  0  0  0
 26 27  1  0  0  0
 28 99  1  0  0  0
 28100  1  0  0  0
 29101  1  0  0  0
 29102  1  0  0  0
 33 34  1  0  0  0
 33 66  1  0  0  0
 33 70  2  0  0  0
 34 36  1  0  0  0
 34 59  1  0  0  0
 34103  1  0  0  0
 35 44  2  0  0  0
 35 45  1  0  0  0
 35 68  1  0  0  0
 36 56  1  0  0  0
 36104  1  0  0  0
 37 39  1  0  0  0
 37 47  1  0  0  0
 37 66  1  0  0  0
 37105  1  0  0  0
 38 43  2  0  0  0
 38 46  1  0  0  0
 38 47  1  0  0  0
 39 64  1  0  0  0
 39 67  2  0  0  0
 40 52  1  0  0  0
 40 53  2  0  0  0
 40 58  1  0  0  0
 41106  1  0  0  0
 41107  1  0  0  0
 41108  1  0  0  0
 41 48  1  0  0  0
 42 43  1  0  0  0
 42 66  1  0  0  0
 42109  1  0  0  0
 42110  1  0  0  0
 43 44  1  0  0  0
 44111  1  0  0  0
 45 46  2  0  0  0
 45112  1  0  0  0
 46113  1  0  0  0
 47114  1  0  0  0
 47115  1  0  0  0
 48 56  1  0  0  0
 48 65  1  0  0  0
 48116  1  0  0  0
 49 50  1  0  0  0
 49 53  1  0  0  0
 49 64  1  0  0  0
 49117  1  0  0  0
 50 51  1  0  0  0
 50118  1  0  0  0
 50119  1  0  0  0
 51 52  1  0  0  0
 51120  1  0  0  0
 51121  1  0  0  0
 52122  1  0  0  0
 52123  1  0  0  0
 53 54  1  0  0  0
 54 55  2  0  0  0
 54124  1  0  0  0
 55 57  1  0  0  0
 55125  1  0  0  0
 56 69  2  0  0  0
 57 58  2  0  0  0
 57126  1  0  0  0
 58127  1  0  0  0
 59 60  1  0  0  0
 59 61  1  0  0  0
 59 62  1  0  0  0
 60128  1  0  0  0
 60129  1  0  0  0
 60130  1  0  0  0
 61131  1  0  0  0
 61132  1  0  0  0
 61133  1  0  0  0
 62134  1  0  0  0
 62135  1  0  0  0
 62136  1  0  0  0
 63 65  1  0  0  0
 63137  1  0  0  0
 63138  1  0  0  0
 63139  1  0  0  0
 64140  1  0  0  0
 65141  1  0  0  0
 68 80  1  0  0  0
 71 73  2  0  0  0
 71 74  1  0  0  0
 71142  1  0  0  0
 72 73  1  0  0  0
 72 75  2  0  0  0
 72143  1  0  0  0
 73 76  1  0  0  0
 74 77  1  0  0  0
 74 81  2  0  0  0
 75 78  1  0  0  0
 75 81  1  0  0  0
 76144  1  0  0  0
 76145  1  0  0  0
 76146  1  0  0  0
 77 79  1  0  0  0
 77147  1  0  0  0
 77148  1  0  0  0
 78 80  1  0  0  0
 78149  1  0  0  0
 78150  1  0  0  0
 79 82  1  0  0  0
 79151  1  0  0  0
 79152  1  0  0  0
 80153  1  0  0  0
 80154  1  0  0  0
 82155  1  0  0  0
M  ISO  4   1 100  68 101  80 101  82 100
M  END
> <chiral flag>
0

> <version>
0

> <s_m_source_file>
/data/baiqing/PycharmProjects/Reinvent-master-3.2/result/LINK_invent/BTK/process_docking_weight1_custom_sum_contain_oxygen_bond_distance_aromatic_linkinvent_7_9_3/rearranged_h_0034.sdf

> <i_m_source_file_index>
58

> <r_mmod_Potential_Energy-OPLS-2005>
28.1687202453613

> <r_mmod_Stretch_Energy-OPLS-2005>
124.53980255127

> <r_mmod_Bend_Energy-OPLS-2005>
170.087463378906

> <r_mmod_Torsional_Energy-OPLS-2005>
231.293991088867

> <r_mmod_Improper_Torsional_Energy-OPLS-2005>
5.64170360565186

> <r_mmod_Van_der_Waal_Energy-OPLS-2005>
132.401168823242

> <r_mmod_Electrostatic_Energy-OPLS-2005>
-480.567779541016

> <r_mmod_Solvation_Energy-OPLS-2005>
-228.142440795898

> <b_mmod_Minimization_Converged-OPLS-2005>
0

> <r_mmod_RMS_Derivative-OPLS-2005>
3.39441752433777

$$$$
59
                    3D
 Structure written by MMmdl.
173182  0  0  1  0            999 V2000
  -30.8394  -14.2385   20.7944 C   0  0  0  0  0  0
  -30.4056  -12.2863   19.3568 C   0  0  0  0  0  0
  -29.4658  -12.5578   18.1735 C   0  0  0  0  0  0
  -27.9988  -12.3855   18.6027 C   0  0  0  0  0  0
  -27.6645  -13.2031   19.8755 C   0  0  2  0  0  0
  -28.7007  -12.9409   20.9892 C   0  0  0  0  0  0
  -25.2610  -13.8170   20.5669 C   0  0  0  0  0  0
  -24.1838  -13.0438   20.9149 C   0  0  0  0  0  0
  -24.6398  -11.6921   20.8725 C   0  0  0  0  0  0
  -23.9076  -10.4297   21.0395 C   0  0  0  0  0  0
  -24.3616   -9.4218   21.9183 C   0  0  0  0  0  0
  -23.6292   -8.2251   22.0757 C   0  0  0  0  0  0
  -22.4278   -8.0279   21.3551 C   0  0  0  0  0  0
  -21.9915   -9.0249   20.4648 C   0  0  0  0  0  0
  -22.7243  -10.2137   20.3052 C   0  0  0  0  0  0
  -21.6854   -6.0743   22.5281 C   0  0  0  0  0  0
  -21.4011   -6.5642   23.8215 C   0  0  0  0  0  0
  -21.3657   -5.6797   24.9176 C   0  0  0  0  0  0
  -21.6042   -4.3055   24.7226 C   0  0  0  0  0  0
  -21.8824   -3.8153   23.4343 C   0  0  0  0  0  0
  -21.9192   -4.6975   22.3400 C   0  0  0  0  0  0
  -22.7877  -13.5243   21.1832 C   0  0  0  0  0  0
  -22.1664   -4.2153   21.0984 F   0  0  0  0  0  0
  -21.5628   -3.4538   25.7742 F   0  0  0  0  0  0
  -30.0554  -13.1901   20.4577 N   0  0  0  0  0  0
  -26.3030  -12.9326   20.3355 N   0  0  0  0  0  0
  -25.9313  -11.6487   20.5742 N   0  0  0  0  0  0
  -22.0522  -12.8216   22.0389 N   0  0  0  0  0  0
  -25.4350  -15.1876   20.4079 N   0  0  0  0  0  0
  -31.7486  -14.6811   20.0838 O   0  0  0  0  0  0
  -21.6640   -6.8881   21.4245 O   0  0  0  0  0  0
  -22.3559  -14.5541   20.6692 O   0  0  0  0  0  0
  -24.6068  -31.8698   23.2159 C   0  0  0  0  0  0
  -25.9027  -32.4833   23.8413 C   0  0  1  0  0  0
  -27.2672  -27.4985   20.1399 C   0  0  0  0  0  0
  -25.5955  -33.8632   24.2400 N   0  0  0  0  0  0
  -23.3899  -30.4921   21.5489 C   0  0  2  0  0  0
  -24.8438  -28.9610   20.1099 C   0  0  0  0  0  0
  -22.7372  -29.4634   22.4986 C   0  0  0  0  0  0
  -18.0240  -28.1325   22.8509 C   0  0  0  0  0  0
  -24.1483  -36.7266   23.2658 C   0  0  0  0  0  0
  -25.9016  -30.8651   21.3471 C   0  0  0  0  0  0
  -25.9840  -29.4996   20.7117 C   0  0  0  0  0  0
  -27.1856  -28.7796   20.7272 C   0  0  0  0  0  0
  -26.1143  -26.9670   19.5184 C   0  0  0  0  0  0
  -24.8986  -27.6883   19.5059 C   0  0  0  0  0  0
  -23.5996  -29.8186   20.1595 C   0  0  0  0  0  0
  -25.4111  -36.3122   24.0359 C   0  0  1  0  0  0
  -20.5848  -28.3614   23.1342 C   0  0  2  0  0  0
  -20.6731  -26.9368   22.5427 C   0  0  0  0  0  0
  -19.5711  -26.6368   21.5193 C   0  0  0  0  0  0
  -18.1871  -26.7884   22.1603 C   0  0  0  0  0  0
  -19.1500  -28.8800   23.2914 C   0  0  0  0  0  0
  -18.9491  -30.1434   23.8896 C   0  0  0  0  0  0
  -17.6503  -30.6607   24.0564 C   0  0  0  0  0  0
  -25.9038  -34.9490   23.5167 C   0  0  0  0  0  0
  -16.5363  -29.9124   23.6355 C   0  0  0  0  0  0
  -16.7244  -28.6501   23.0393 C   0  0  0  0  0  0
  -26.4546  -31.6581   25.0674 C   0  0  0  0  0  0
  -25.3900  -31.3545   26.1474 C   0  0  0  0  0  0
  -27.0428  -30.3103   24.5855 C   0  0  0  0  0  0
  -27.6138  -32.4288   25.7433 C   0  0  0  0  0  0
  -27.5565  -37.1795   24.8492 C   0  0  0  0  0  0
  -21.4112  -29.2978   22.3751 N   0  0  0  0  0  0
  -26.4289  -37.3818   23.9433 N   0  0  0  0  0  0
  -24.6502  -31.0901   22.0987 N   0  0  0  0  0  0
  -23.4216  -28.8208   23.2989 O   0  0  0  0  0  0
  -28.4208  -26.7383   20.1547 O   0  0  0  0  0  0
  -26.5578  -34.8942   22.4706 O   0  0  0  0  0  0
  -23.5310  -32.1356   23.7693 O   0  0  0  0  0  0
  -29.6056  -19.9088   22.9002 C   0  0  0  0  0  0
  -29.4745  -18.6978   22.1994 C   0  0  0  0  0  0
  -29.4306  -21.1038   22.1800 C   0  0  0  0  0  0
  -29.1358  -18.7620   20.8272 C   0  0  0  0  0  0
  -31.4692  -24.0347   23.6538 C   0  0  0  0  0  0
  -31.0002  -23.0693   22.5478 C   0  0  0  0  0  0
  -28.4190  -23.3946   22.6723 C   0  0  0  0  0  0
  -30.9120  -25.4649   23.5506 C   0  0  0  0  0  0
  -28.5193  -24.7243   23.4459 C   0  0  0  0  0  0
  -29.6234  -22.4449   22.8748 C   0  0  1  0  0  0
  -29.7878  -17.3914   22.8990 C   0  0  0  0  0  0
  -31.2304  -16.9693   22.5598 C   0  0  0  0  0  0
  -31.5498  -15.4987   22.8395 C   0  0  0  0  0  0
  -29.2468  -26.9581   22.4963 C   0  0  0  0  0  0
  -29.5132  -27.1785   20.9815 C   0  0  0  0  0  0
  -29.1549  -21.1113   20.8515 N   0  0  0  0  0  0
  -28.9851  -19.9561   20.1946 N   0  0  0  0  0  0
  -30.6905  -14.6015   22.0743 N   0  0  0  0  0  0
  -29.5984  -25.5587   22.8599 N   0  3  1  0  0  0
  -28.9217  -17.3125   19.9027 Cl  0  0  0  0  0  0
  -31.4456  -12.3957   19.0457 H   0  0  0  0  0  0
  -30.3039  -11.2540   19.6916 H   0  0  0  0  0  0
  -29.6950  -11.8882   17.3431 H   0  0  0  0  0  0
  -29.6232  -13.5725   17.8048 H   0  0  0  0  0  0
  -27.8194  -11.3248   18.7801 H   0  0  0  0  0  0
  -27.3330  -12.6753   17.7875 H   0  0  0  0  0  0
  -27.7263  -14.2581   19.6070 H   0  0  0  0  0  0
  -28.6396  -11.9081   21.3350 H   0  0  0  0  0  0
  -28.4487  -13.5608   21.8512 H   0  0  0  0  0  0
  -25.2756   -9.5696   22.4755 H   0  0  0  0  0  0
  -24.0001   -7.4650   22.7478 H   0  0  0  0  0  0
  -21.0843   -8.8766   19.8942 H   0  0  0  0  0  0
  -22.3695  -10.9673   19.6151 H   0  0  0  0  0  0
  -21.2006   -7.6148   23.9722 H   0  0  0  0  0  0
  -21.1471   -6.0523   25.9082 H   0  0  0  0  0  0
  -22.0602   -2.7613   23.2846 H   0  0  0  0  0  0
  -22.4140  -11.9858   22.4731 H   0  0  0  0  0  0
  -21.1160  -13.1264   22.2636 H   0  0  0  0  0  0
  -24.6727  -15.8481   20.5126 H   0  0  0  0  0  0
  -26.3007  -15.6233   20.1135 H   0  0  0  0  0  0
  -26.7089  -32.5609   23.1175 H   0  0  0  0  0  0
  -25.0284  -33.9822   25.0674 H   0  0  0  0  0  0
  -22.6749  -31.3042   21.4117 H   0  0  0  0  0  0
  -23.3784  -35.9565   23.3361 H   0  0  0  0  0  0
  -24.3546  -36.8827   22.2057 H   0  0  0  0  0  0
  -23.7192  -37.6452   23.6657 H   0  0  0  0  0  0
  -25.9875  -31.6237   20.5679 H   0  0  0  0  0  0
  -26.7965  -30.9414   21.9489 H   0  0  0  0  0  0
  -28.0290  -29.2462   21.2153 H   0  0  0  0  0  0
  -26.1578  -25.9904   19.0532 H   0  0  0  0  0  0
  -24.0240  -27.2668   19.0324 H   0  0  0  0  0  0
  -23.7055  -30.5917   19.3983 H   0  0  0  0  0  0
  -22.7274  -29.2287   19.8692 H   0  0  0  0  0  0
  -25.1279  -36.1956   25.0839 H   0  0  0  0  0  0
  -20.9915  -28.3191   24.1466 H   0  0  0  0  0  0
  -20.5589  -26.2256   23.3628 H   0  0  0  0  0  0
  -21.6620  -26.7400   22.1239 H   0  0  0  0  0  0
  -19.6900  -25.6267   21.1241 H   0  0  0  0  0  0
  -19.6659  -27.3187   20.6728 H   0  0  0  0  0  0
  -17.4146  -26.6703   21.3981 H   0  0  0  0  0  0
  -18.0240  -25.9991   22.8964 H   0  0  0  0  0  0
  -19.7998  -30.7225   24.2254 H   0  0  0  0  0  0
  -17.5080  -31.6282   24.5186 H   0  0  0  0  0  0
  -15.5368  -30.3035   23.7695 H   0  0  0  0  0  0
  -15.8605  -28.0836   22.7134 H   0  0  0  0  0  0
  -24.6090  -30.6873   25.7801 H   0  0  0  0  0  0
  -24.9103  -32.2660   26.5067 H   0  0  0  0  0  0
  -25.8372  -30.8630   27.0131 H   0  0  0  0  0  0
  -26.2842  -29.6688   24.1361 H   0  0  0  0  0  0
  -27.4813  -29.7495   25.4112 H   0  0  0  0  0  0
  -27.8391  -30.4528   23.8546 H   0  0  0  0  0  0
  -27.2745  -33.3561   26.2073 H   0  0  0  0  0  0
  -28.3954  -32.6871   25.0276 H   0  0  0  0  0  0
  -28.0812  -31.8358   26.5293 H   0  0  0  0  0  0
  -28.2639  -38.0055   24.7566 H   0  0  0  0  0  0
  -28.1016  -36.2588   24.6321 H   0  0  0  0  0  0
  -27.2294  -37.1442   25.8908 H   0  0  0  0  0  0
  -20.9269  -29.8638   21.6925 H   0  0  0  0  0  0
  -26.0178  -38.2890   24.1482 H   0  0  0  0  0  0
  -29.8689  -19.9207   23.9475 H   0  0  0  0  0  0
  -32.5581  -24.1027   23.6403 H   0  0  0  0  0  0
  -31.2343  -23.6187   24.6344 H   0  0  0  0  0  0
  -31.7359  -22.2654   22.4829 H   0  0  0  0  0  0
  -31.0098  -23.5433   21.5672 H   0  0  0  0  0  0
  -28.2799  -23.5976   21.6085 H   0  0  0  0  0  0
  -27.5154  -22.8759   22.9953 H   0  0  0  0  0  0
  -31.6316  -26.0649   22.9889 H   0  0  0  0  0  0
  -30.8529  -25.9091   24.5470 H   0  0  0  0  0  0
  -28.6775  -24.5436   24.5095 H   0  0  0  0  0  0
  -27.5531  -25.2245   23.3780 H   0  0  0  0  0  0
  -29.6319  -22.1952   23.9356 H   0  0  0  0  0  0
  -29.0508  -16.6424   22.6061 H   0  0  0  0  0  0
  -29.6730  -17.5080   23.9783 H   0  0  0  0  0  0
  -31.9315  -17.6138   23.0914 H   0  0  0  0  0  0
  -31.4240  -17.1453   21.5029 H   0  0  0  0  0  0
  -31.4312  -15.2815   23.9014 H   0  0  0  0  0  0
  -32.5942  -15.2982   22.5975 H   0  0  0  0  0  0
  -28.2283  -27.2263   22.7816 H   0  0  0  0  0  0
  -29.8796  -27.6427   23.0692 H   0  0  0  0  0  0
  -30.4052  -26.6232   20.6862 H   0  0  0  0  0  0
  -29.7764  -28.2150   20.7699 H   0  0  0  0  0  0
  -29.9718  -14.1089   22.5856 H   0  0  0  0  0  0
  -29.7387  -25.1269   21.9585 H   0  0  0  0  0  0
  1 25  1  0  0  0
  1 30  2  0  0  0
  1 88  1  0  0  0
  2  3  1  0  0  0
  2 25  1  0  0  0
  2 91  1  0  0  0
  2 92  1  0  0  0
  3  4  1  0  0  0
  3 93  1  0  0  0
  3 94  1  0  0  0
  4  5  1  0  0  0
  4 95  1  0  0  0
  4 96  1  0  0  0
  5  6  1  0  0  0
  5 26  1  0  0  0
  5 97  1  0  0  0
  6 25  1  0  0  0
  6 98  1  0  0  0
  6 99  1  0  0  0
  7  8  2  0  0  0
  7 26  1  0  0  0
  7 29  1  0  0  0
  8  9  1  0  0  0
  8 22  1  0  0  0
  9 10  1  0  0  0
  9 27  2  0  0  0
 10 11  2  0  0  0
 10 15  1  0  0  0
 11 12  1  0  0  0
 11100  1  0  0  0
 12 13  2  0  0  0
 12101  1  0  0  0
 13 14  1  0  0  0
 13 31  1  0  0  0
 14 15  2  0  0  0
 14102  1  0  0  0
 15103  1  0  0  0
 16 17  2  0  0  0
 16 21  1  0  0  0
 16 31  1  0  0  0
 17 18  1  0  0  0
 17104  1  0  0  0
 18 19  2  0  0  0
 18105  1  0  0  0
 19 20  1  0  0  0
 19 24  1  0  0  0
 20 21  2  0  0  0
 20106  1  0  0  0
 21 23  1  0  0  0
 22 28  1  0  0  0
 22 32  2  0  0  0
 26 27  1  0  0  0
 28107  1  0  0  0
 28108  1  0  0  0
 29109  1  0  0  0
 29110  1  0  0  0
 33 34  1  0  0  0
 33 66  1  0  0  0
 33 70  2  0  0  0
 34 36  1  0  0  0
 34 59  1  0  0  0
 34111  1  0  0  0
 35 44  2  0  0  0
 35 45  1  0  0  0
 35 68  1  0  0  0
 36 56  1  0  0  0
 36112  1  0  0  0
 37 39  1  0  0  0
 37 47  1  0  0  0
 37 66  1  0  0  0
 37113  1  0  0  0
 38 43  2  0  0  0
 38 46  1  0  0  0
 38 47  1  0  0  0
 39 64  1  0  0  0
 39 67  2  0  0  0
 40 52  1  0  0  0
 40 53  2  0  0  0
 40 58  1  0  0  0
 41114  1  0  0  0
 41115  1  0  0  0
 41116  1  0  0  0
 41 48  1  0  0  0
 42 43  1  0  0  0
 42 66  1  0  0  0
 42117  1  0  0  0
 42118  1  0  0  0
 43 44  1  0  0  0
 44119  1  0  0  0
 45 46  2  0  0  0
 45120  1  0  0  0
 46121  1  0  0  0
 47122  1  0  0  0
 47123  1  0  0  0
 48 56  1  0  0  0
 48 65  1  0  0  0
 48124  1  0  0  0
 49 50  1  0  0  0
 49 53  1  0  0  0
 49 64  1  0  0  0
 49125  1  0  0  0
 50 51  1  0  0  0
 50126  1  0  0  0
 50127  1  0  0  0
 51 52  1  0  0  0
 51128  1  0  0  0
 51129  1  0  0  0
 52130  1  0  0  0
 52131  1  0  0  0
 53 54  1  0  0  0
 54 55  2  0  0  0
 54132  1  0  0  0
 55 57  1  0  0  0
 55133  1  0  0  0
 56 69  2  0  0  0
 57 58  2  0  0  0
 57134  1  0  0  0
 58135  1  0  0  0
 59 60  1  0  0  0
 59 61  1  0  0  0
 59 62  1  0  0  0
 60136  1  0  0  0
 60137  1  0  0  0
 60138  1  0  0  0
 61139  1  0  0  0
 61140  1  0  0  0
 61141  1  0  0  0
 62142  1  0  0  0
 62143  1  0  0  0
 62144  1  0  0  0
 63 65  1  0  0  0
 63145  1  0  0  0
 63146  1  0  0  0
 63147  1  0  0  0
 64148  1  0  0  0
 65149  1  0  0  0
 68 85  1  0  0  0
 71 72  2  0  0  0
 71 73  1  0  0  0
 71150  1  0  0  0
 72 74  1  0  0  0
 72 81  1  0  0  0
 73 86  2  0  0  0
 73 80  1  0  0  0
 74 87  2  0  0  0
 74 90  1  0  0  0
 75 76  1  0  0  0
 75 78  1  0  0  0
 75151  1  0  0  0
 75152  1  0  0  0
 76 80  1  0  0  0
 76153  1  0  0  0
 76154  1  0  0  0
 77 79  1  0  0  0
 77 80  1  0  0  0
 77155  1  0  0  0
 77156  1  0  0  0
 78 89  1  0  0  0
 78157  1  0  0  0
 78158  1  0  0  0
 79 89  1  0  0  0
 79159  1  0  0  0
 79160  1  0  0  0
 80161  1  0  0  0
 81 82  1  0  0  0
 81162  1  0  0  0
 81163  1  0  0  0
 82 83  1  0  0  0
 82164  1  0  0  0
 82165  1  0  0  0
 83 88  1  0  0  0
 83166  1  0  0  0
 83167  1  0  0  0
 84 85  1  0  0  0
 84168  1  0  0  0
 84169  1  0  0  0
 84 89  1  0  0  0
 85170  1  0  0  0
 85171  1  0  0  0
 86 87  1  0  0  0
 88172  1  0  0  0
 89173  1  0  0  0
M  CHG  1  89   1
M  ISO  4   1 100  68 101  85 101  88 100
M  END
> <chiral flag>
0

> <version>
0

> <s_m_source_file>
/data/baiqing/PycharmProjects/Reinvent-master-3.2/result/LINK_invent/BTK/process_docking_weight1_custom_sum_contain_oxygen_bond_distance_aromatic_linkinvent_7_9_3/rearranged_h_0034.sdf

> <i_m_source_file_index>
59

> <r_mmod_Potential_Energy-OPLS-2005>
-55.2401008605957

> <r_mmod_Stretch_Energy-OPLS-2005>
36.5985488891602

> <r_mmod_Bend_Energy-OPLS-2005>
111.001029968262

> <r_mmod_Torsional_Energy-OPLS-2005>
250.521987915039

> <r_mmod_Improper_Torsional_Energy-OPLS-2005>
4.89326572418213

> <r_mmod_Van_der_Waal_Energy-OPLS-2005>
157.833084106445

> <r_mmod_Electrostatic_Energy-OPLS-2005>
-191.59326171875

> <r_mmod_Solvation_Energy-OPLS-2005>
-435.643127441406

> <b_mmod_Minimization_Converged-OPLS-2005>
0

> <r_mmod_RMS_Derivative-OPLS-2005>
4.94102430343628

$$$$
60
                    3D
 Structure written by MMmdl.
162170  0  0  1  0            999 V2000
  -30.7279  -14.4033   20.6534 C   0  0  0  0  0  0
  -30.4237  -12.2963   19.4001 C   0  0  0  0  0  0
  -29.4877  -12.5169   18.1962 C   0  0  0  0  0  0
  -28.0096  -12.3763   18.6106 C   0  0  0  0  0  0
  -27.6644  -13.2002   19.8788 C   0  0  2  0  0  0
  -28.7023  -12.9384   20.9913 C   0  0  0  0  0  0
  -25.2602  -13.8157   20.5685 C   0  0  0  0  0  0
  -24.1841  -13.0444   20.9176 C   0  0  0  0  0  0
  -24.6383  -11.6906   20.8734 C   0  0  0  0  0  0
  -23.9044  -10.4294   21.0406 C   0  0  0  0  0  0
  -24.3595   -9.4210   21.9185 C   0  0  0  0  0  0
  -23.6281   -8.2238   22.0749 C   0  0  0  0  0  0
  -22.4264   -8.0271   21.3539 C   0  0  0  0  0  0
  -21.9896   -9.0243   20.4643 C   0  0  0  0  0  0
  -22.7218  -10.2128   20.3059 C   0  0  0  0  0  0
  -21.6851   -6.0728   22.5285 C   0  0  0  0  0  0
  -21.4010   -6.5633   23.8218 C   0  0  0  0  0  0
  -21.3665   -5.6787   24.9182 C   0  0  0  0  0  0
  -21.6046   -4.3050   24.7229 C   0  0  0  0  0  0
  -21.8824   -3.8140   23.4351 C   0  0  0  0  0  0
  -21.9189   -4.6956   22.3406 C   0  0  0  0  0  0
  -22.7863  -13.5247   21.1845 C   0  0  0  0  0  0
  -22.1657   -4.2140   21.0985 F   0  0  0  0  0  0
  -21.5630   -3.4539   25.7744 F   0  0  0  0  0  0
  -30.0408  -13.2478   20.4526 N   0  0  0  0  0  0
  -26.3028  -12.9310   20.3374 N   0  0  0  0  0  0
  -25.9301  -11.6472   20.5747 N   0  0  0  0  0  0
  -22.0491  -12.8247   22.0402 N   0  0  0  0  0  0
  -25.4350  -15.1869   20.4096 N   0  0  0  0  0  0
  -31.7948  -14.6662   20.0890 O   0  0  0  0  0  0
  -21.6628   -6.8869   21.4246 O   0  0  0  0  0  0
  -22.3549  -14.5554   20.6698 O   0  0  0  0  0  0
  -24.6104  -31.8696   23.2113 C   0  0  0  0  0  0
  -25.9008  -32.4833   23.8397 C   0  0  1  0  0  0
  -27.2351  -27.4582   20.1000 C   0  0  0  0  0  0
  -25.5880  -33.8629   24.2335 N   0  0  0  0  0  0
  -23.3979  -30.4916   21.5506 C   0  0  2  0  0  0
  -24.8468  -28.9547   20.1197 C   0  0  0  0  0  0
  -22.7401  -29.4657   22.5004 C   0  0  0  0  0  0
  -18.0277  -28.1360   22.8497 C   0  0  0  0  0  0
  -24.1487  -36.7320   23.2637 C   0  0  0  0  0  0
  -25.9226  -30.8401   21.3642 C   0  0  0  0  0  0
  -26.0017  -29.4724   20.7201 C   0  0  0  0  0  0
  -27.2007  -28.7282   20.7153 C   0  0  0  0  0  0
  -26.0723  -26.9479   19.4920 C   0  0  0  0  0  0
  -24.8746  -27.6886   19.5062 C   0  0  0  0  0  0
  -23.6074  -29.8195   20.1663 C   0  0  0  0  0  0
  -25.4110  -36.3126   24.0345 C   0  0  1  0  0  0
  -20.5861  -28.3652   23.1331 C   0  0  2  0  0  0
  -20.6766  -26.9392   22.5422 C   0  0  0  0  0  0
  -19.5749  -26.6376   21.5210 C   0  0  0  0  0  0
  -18.1923  -26.7908   22.1619 C   0  0  0  0  0  0
  -19.1522  -28.8823   23.2905 C   0  0  0  0  0  0
  -18.9446  -30.1428   23.8921 C   0  0  0  0  0  0
  -17.6447  -30.6568   24.0575 C   0  0  0  0  0  0
  -25.9031  -34.9487   23.5136 C   0  0  0  0  0  0
  -16.5341  -29.9071   23.6321 C   0  0  0  0  0  0
  -16.7266  -28.6482   23.0349 C   0  0  0  0  0  0
  -26.4457  -31.6601   25.0708 C   0  0  0  0  0  0
  -25.3733  -31.3707   26.1460 C   0  0  0  0  0  0
  -27.0273  -30.3048   24.6049 C   0  0  0  0  0  0
  -27.6038  -32.4318   25.7464 C   0  0  0  0  0  0
  -27.5590  -37.1816   24.8469 C   0  0  0  0  0  0
  -21.4130  -29.3022   22.3751 N   0  0  0  0  0  0
  -26.4304  -37.3805   23.9407 N   0  0  0  0  0  0
  -24.6613  -31.0817   22.1006 N   0  0  0  0  0  0
  -23.4193  -28.8210   23.3036 O   0  0  0  0  0  0
  -28.3900  -26.7214   20.0497 O   0  0  0  0  0  0
  -26.5583  -34.8933   22.4696 O   0  0  0  0  0  0
  -23.5300  -32.1440   23.7517 O   0  0  0  0  0  0
  -29.2600  -21.2267   22.5059 C   0  0  0  0  0  0
  -28.6696  -19.9234   22.5420 C   0  0  0  0  0  0
  -28.3598  -22.2490   22.3423 C   0  0  0  0  0  0
  -27.3025  -19.9762   22.3720 C   0  0  0  0  0  0
  -25.5089  -18.7831   23.6993 C   0  0  0  0  0  0
  -29.4778  -18.6792   22.8210 C   0  0  0  0  0  0
  -28.6353  -23.7235   22.3975 C   0  0  0  0  0  0
  -26.3026  -18.8601   22.3905 C   0  0  0  0  0  0
  -29.6454  -17.7137   21.6289 C   0  0  0  0  0  0
  -28.2532  -24.5245   21.1376 C   0  0  0  0  0  0
  -30.6395  -16.5682   21.9374 C   0  0  0  0  0  0
  -28.6875  -26.0009   21.2441 C   0  0  0  0  0  0
  -30.1420  -15.2631   21.4970 N   0  0  0  0  0  0
  -26.7467  -21.6216   22.1646 S   0  0  0  0  0  0
  -31.4651  -12.4099   19.0928 H   0  0  0  0  0  0
  -30.3330  -11.2746   19.7719 H   0  0  0  0  0  0
  -29.7221  -11.8070   17.4020 H   0  0  0  0  0  0
  -29.6590  -13.5097   17.7781 H   0  0  0  0  0  0
  -27.8185  -11.3189   18.7961 H   0  0  0  0  0  0
  -27.3570  -12.6607   17.7841 H   0  0  0  0  0  0
  -27.7234  -14.2543   19.6057 H   0  0  0  0  0  0
  -28.6702  -11.8907   21.2953 H   0  0  0  0  0  0
  -28.4492  -13.4993   21.8907 H   0  0  0  0  0  0
  -25.2740   -9.5688   22.4755 H   0  0  0  0  0  0
  -23.9996   -7.4630   22.7465 H   0  0  0  0  0  0
  -21.0823   -8.8759   19.8948 H   0  0  0  0  0  0
  -22.3676  -10.9659   19.6160 H   0  0  0  0  0  0
  -21.2005   -7.6141   23.9725 H   0  0  0  0  0  0
  -21.1483   -6.0513   25.9086 H   0  0  0  0  0  0
  -22.0596   -2.7600   23.2855 H   0  0  0  0  0  0
  -22.4073  -11.9897   22.4796 H   0  0  0  0  0  0
  -21.1114  -13.1286   22.2605 H   0  0  0  0  0  0
  -24.6736  -15.8474   20.5214 H   0  0  0  0  0  0
  -26.2934  -15.6192   20.0922 H   0  0  0  0  0  0
  -26.7082  -32.5568   23.1171 H   0  0  0  0  0  0
  -25.0062  -33.9809   25.0498 H   0  0  0  0  0  0
  -22.6843  -31.3062   21.4119 H   0  0  0  0  0  0
  -23.3746  -35.9655   23.3319 H   0  0  0  0  0  0
  -24.3579  -36.8898   22.2044 H   0  0  0  0  0  0
  -23.7232  -37.6536   23.6625 H   0  0  0  0  0  0
  -26.0285  -31.6052   20.5944 H   0  0  0  0  0  0
  -26.8126  -30.8971   21.9783 H   0  0  0  0  0  0
  -28.0947  -29.1275   21.1739 H   0  0  0  0  0  0
  -26.0979  -25.9797   19.0115 H   0  0  0  0  0  0
  -23.9880  -27.2831   19.0390 H   0  0  0  0  0  0
  -23.7181  -30.5927   19.4045 H   0  0  0  0  0  0
  -22.7319  -29.2385   19.8709 H   0  0  0  0  0  0
  -25.1287  -36.2011   25.0841 H   0  0  0  0  0  0
  -20.9949  -28.3211   24.1452 H   0  0  0  0  0  0
  -20.5634  -26.2271   23.3610 H   0  0  0  0  0  0
  -21.6646  -26.7421   22.1245 H   0  0  0  0  0  0
  -19.6915  -25.6292   21.1231 H   0  0  0  0  0  0
  -19.6672  -27.3201   20.6754 H   0  0  0  0  0  0
  -17.4190  -26.6655   21.4022 H   0  0  0  0  0  0
  -18.0326  -26.0035   22.9000 H   0  0  0  0  0  0
  -19.7923  -30.7240   24.2297 H   0  0  0  0  0  0
  -17.5004  -31.6258   24.5161 H   0  0  0  0  0  0
  -15.5342  -30.2980   23.7619 H   0  0  0  0  0  0
  -15.8668  -28.0812   22.7044 H   0  0  0  0  0  0
  -24.5899  -30.7056   25.7809 H   0  0  0  0  0  0
  -24.8927  -32.2862   26.4926 H   0  0  0  0  0  0
  -25.8093  -30.8870   27.0207 H   0  0  0  0  0  0
  -26.2798  -29.6820   24.1107 H   0  0  0  0  0  0
  -27.4068  -29.7271   25.4489 H   0  0  0  0  0  0
  -27.8634  -30.4382   23.9171 H   0  0  0  0  0  0
  -27.2657  -33.3601   26.2084 H   0  0  0  0  0  0
  -28.3824  -32.6894   25.0272 H   0  0  0  0  0  0
  -28.0725  -31.8403   26.5339 H   0  0  0  0  0  0
  -28.2631  -38.0094   24.7514 H   0  0  0  0  0  0
  -28.1063  -36.2626   24.6308 H   0  0  0  0  0  0
  -27.2303  -37.1494   25.8871 H   0  0  0  0  0  0
  -20.9277  -29.8788   21.7023 H   0  0  0  0  0  0
  -26.0201  -38.2893   24.1388 H   0  0  0  0  0  0
  -30.3216  -21.3723   22.6551 H   0  0  0  0  0  0
  -24.7937  -17.9601   23.6737 H   0  0  0  0  0  0
  -24.9485  -19.6996   23.8834 H   0  0  0  0  0  0
  -26.1709  -18.6166   24.5493 H   0  0  0  0  0  0
  -29.0306  -18.1336   23.6534 H   0  0  0  0  0  0
  -30.4694  -18.9674   23.1719 H   0  0  0  0  0  0
  -29.6967  -23.8721   22.6001 H   0  0  0  0  0  0
  -28.1119  -24.1457   23.2567 H   0  0  0  0  0  0
  -26.7889  -17.9011   22.2295 H   0  0  0  0  0  0
  -25.6128  -18.9819   21.5543 H   0  0  0  0  0  0
  -30.0015  -18.2671   20.7589 H   0  0  0  0  0  0
  -28.6755  -17.3120   21.3422 H   0  0  0  0  0  0
  -27.1761  -24.4653   20.9778 H   0  0  0  0  0  0
  -28.7245  -24.0769   20.2617 H   0  0  0  0  0  0
  -30.8052  -16.4906   23.0124 H   0  0  0  0  0  0
  -31.6153  -16.7977   21.5051 H   0  0  0  0  0  0
  -29.7657  -26.0491   21.3984 H   0  0  0  0  0  0
  -28.2339  -26.4675   22.1207 H   0  0  0  0  0  0
  -29.2763  -14.9451   21.9086 H   0  0  0  0  0  0
  1 25  1  0  0  0
  1 30  2  0  0  0
  1 83  1  0  0  0
  2  3  1  0  0  0
  2 25  1  0  0  0
  2 85  1  0  0  0
  2 86  1  0  0  0
  3  4  1  0  0  0
  3 87  1  0  0  0
  3 88  1  0  0  0
  4  5  1  0  0  0
  4 89  1  0  0  0
  4 90  1  0  0  0
  5  6  1  0  0  0
  5 26  1  0  0  0
  5 91  1  0  0  0
  6 25  1  0  0  0
  6 92  1  0  0  0
  6 93  1  0  0  0
  7  8  2  0  0  0
  7 26  1  0  0  0
  7 29  1  0  0  0
  8  9  1  0  0  0
  8 22  1  0  0  0
  9 10  1  0  0  0
  9 27  2  0  0  0
 10 11  2  0  0  0
 10 15  1  0  0  0
 11 12  1  0  0  0
 11 94  1  0  0  0
 12 13  2  0  0  0
 12 95  1  0  0  0
 13 14  1  0  0  0
 13 31  1  0  0  0
 14 15  2  0  0  0
 14 96  1  0  0  0
 15 97  1  0  0  0
 16 17  2  0  0  0
 16 21  1  0  0  0
 16 31  1  0  0  0
 17 18  1  0  0  0
 17 98  1  0  0  0
 18 19  2  0  0  0
 18 99  1  0  0  0
 19 20  1  0  0  0
 19 24  1  0  0  0
 20 21  2  0  0  0
 20100  1  0  0  0
 21 23  1  0  0  0
 22 28  1  0  0  0
 22 32  2  0  0  0
 26 27  1  0  0  0
 28101  1  0  0  0
 28102  1  0  0  0
 29103  1  0  0  0
 29104  1  0  0  0
 33 34  1  0  0  0
 33 66  1  0  0  0
 33 70  2  0  0  0
 34 36  1  0  0  0
 34 59  1  0  0  0
 34105  1  0  0  0
 35 44  2  0  0  0
 35 45  1  0  0  0
 35 68  1  0  0  0
 36 56  1  0  0  0
 36106  1  0  0  0
 37 39  1  0  0  0
 37 47  1  0  0  0
 37 66  1  0  0  0
 37107  1  0  0  0
 38 43  2  0  0  0
 38 46  1  0  0  0
 38 47  1  0  0  0
 39 64  1  0  0  0
 39 67  2  0  0  0
 40 52  1  0  0  0
 40 53  2  0  0  0
 40 58  1  0  0  0
 41108  1  0  0  0
 41109  1  0  0  0
 41110  1  0  0  0
 41 48  1  0  0  0
 42 43  1  0  0  0
 42 66  1  0  0  0
 42111  1  0  0  0
 42112  1  0  0  0
 43 44  1  0  0  0
 44113  1  0  0  0
 45 46  2  0  0  0
 45114  1  0  0  0
 46115  1  0  0  0
 47116  1  0  0  0
 47117  1  0  0  0
 48 56  1  0  0  0
 48 65  1  0  0  0
 48118  1  0  0  0
 49 50  1  0  0  0
 49 53  1  0  0  0
 49 64  1  0  0  0
 49119  1  0  0  0
 50 51  1  0  0  0
 50120  1  0  0  0
 50121  1  0  0  0
 51 52  1  0  0  0
 51122  1  0  0  0
 51123  1  0  0  0
 52124  1  0  0  0
 52125  1  0  0  0
 53 54  1  0  0  0
 54 55  2  0  0  0
 54126  1  0  0  0
 55 57  1  0  0  0
 55127  1  0  0  0
 56 69  2  0  0  0
 57 58  2  0  0  0
 57128  1  0  0  0
 58129  1  0  0  0
 59 60  1  0  0  0
 59 61  1  0  0  0
 59 62  1  0  0  0
 60130  1  0  0  0
 60131  1  0  0  0
 60132  1  0  0  0
 61133  1  0  0  0
 61134  1  0  0  0
 61135  1  0  0  0
 62136  1  0  0  0
 62137  1  0  0  0
 62138  1  0  0  0
 63 65  1  0  0  0
 63139  1  0  0  0
 63140  1  0  0  0
 63141  1  0  0  0
 64142  1  0  0  0
 65143  1  0  0  0
 68 82  1  0  0  0
 71 72  1  0  0  0
 71 73  2  0  0  0
 71144  1  0  0  0
 72 74  2  0  0  0
 72 76  1  0  0  0
 73 77  1  0  0  0
 73 84  1  0  0  0
 74 78  1  0  0  0
 74 84  1  0  0  0
 75 78  1  0  0  0
 75145  1  0  0  0
 75146  1  0  0  0
 75147  1  0  0  0
 76 79  1  0  0  0
 76148  1  0  0  0
 76149  1  0  0  0
 77 80  1  0  0  0
 77150  1  0  0  0
 77151  1  0  0  0
 78152  1  0  0  0
 78153  1  0  0  0
 79 81  1  0  0  0
 79154  1  0  0  0
 79155  1  0  0  0
 80 82  1  0  0  0
 80156  1  0  0  0
 80157  1  0  0  0
 81 83  1  0  0  0
 81158  1  0  0  0
 81159  1  0  0  0
 82160  1  0  0  0
 82161  1  0  0  0
 83162  1  0  0  0
M  ISO  4   1 100  68 101  82 101  83 100
M  END
> <chiral flag>
0

> <version>
0

> <s_m_source_file>
/data/baiqing/PycharmProjects/Reinvent-master-3.2/result/LINK_invent/BTK/process_docking_weight1_custom_sum_contain_oxygen_bond_distance_aromatic_linkinvent_7_9_3/rearranged_h_0034.sdf

> <i_m_source_file_index>
60

> <r_mmod_Potential_Energy-OPLS-2005>
-125.366348266602

> <r_mmod_Stretch_Energy-OPLS-2005>
30.97385597229

> <r_mmod_Bend_Energy-OPLS-2005>
94.0325546264648

> <r_mmod_Torsional_Energy-OPLS-2005>
202.211517333984

> <r_mmod_Improper_Torsional_Energy-OPLS-2005>
2.23475432395935

> <r_mmod_Van_der_Waal_Energy-OPLS-2005>
119.929733276367

> <r_mmod_Electrostatic_Energy-OPLS-2005>
-379.371063232422

> <r_mmod_Solvation_Energy-OPLS-2005>
-202.485229492188

> <b_mmod_Minimization_Converged-OPLS-2005>
0

> <r_mmod_RMS_Derivative-OPLS-2005>
1.58216071128845

$$$$
61
                    3D
 Structure written by MMmdl.
160168  0  0  1  0            999 V2000
  -30.7331  -14.4099   20.5878 C   0  0  0  0  0  0
  -30.4122  -12.2721   19.4111 C   0  0  0  0  0  0
  -29.4888  -12.5074   18.1995 C   0  0  0  0  0  0
  -28.0088  -12.3789   18.6116 C   0  0  0  0  0  0
  -27.6650  -13.2070   19.8798 C   0  0  2  0  0  0
  -28.7084  -12.9629   20.9944 C   0  0  0  0  0  0
  -25.2599  -13.8169   20.5694 C   0  0  0  0  0  0
  -24.1846  -13.0443   20.9179 C   0  0  0  0  0  0
  -24.6399  -11.6904   20.8740 C   0  0  0  0  0  0
  -23.9064  -10.4295   21.0401 C   0  0  0  0  0  0
  -24.3617   -9.4209   21.9180 C   0  0  0  0  0  0
  -23.6291   -8.2246   22.0751 C   0  0  0  0  0  0
  -22.4272   -8.0287   21.3546 C   0  0  0  0  0  0
  -21.9911   -9.0255   20.4650 C   0  0  0  0  0  0
  -22.7236  -10.2132   20.3051 C   0  0  0  0  0  0
  -21.6850   -6.0740   22.5275 C   0  0  0  0  0  0
  -21.4016   -6.5644   23.8212 C   0  0  0  0  0  0
  -21.3657   -5.6792   24.9178 C   0  0  0  0  0  0
  -21.6041   -4.3058   24.7222 C   0  0  0  0  0  0
  -21.8821   -3.8148   23.4346 C   0  0  0  0  0  0
  -21.9192   -4.6965   22.3403 C   0  0  0  0  0  0
  -22.7867  -13.5242   21.1830 C   0  0  0  0  0  0
  -22.1660   -4.2153   21.0978 F   0  0  0  0  0  0
  -21.5625   -3.4538   25.7735 F   0  0  0  0  0  0
  -30.0393  -13.2513   20.4422 N   0  0  0  0  0  0
  -26.3045  -12.9338   20.3405 N   0  0  0  0  0  0
  -25.9328  -11.6495   20.5782 N   0  0  0  0  0  0
  -22.0503  -12.8234   22.0388 N   0  0  0  0  0  0
  -25.4334  -15.1885   20.4091 N   0  0  0  0  0  0
  -31.8601  -14.5537   20.1038 O   0  0  0  0  0  0
  -21.6636   -6.8882   21.4240 O   0  0  0  0  0  0
  -22.3552  -14.5550   20.6683 O   0  0  0  0  0  0
  -24.6118  -31.8707   23.2071 C   0  0  0  0  0  0
  -25.9013  -32.4845   23.8372 C   0  0  1  0  0  0
  -27.2472  -27.4602   20.0864 C   0  0  0  0  0  0
  -25.5854  -33.8647   24.2307 N   0  0  0  0  0  0
  -23.3968  -30.4921   21.5473 C   0  0  2  0  0  0
  -24.8443  -28.9547   20.1167 C   0  0  0  0  0  0
  -22.7390  -29.4683   22.4998 C   0  0  0  0  0  0
  -18.0264  -28.1381   22.8521 C   0  0  0  0  0  0
  -24.1471  -36.7326   23.2638 C   0  0  0  0  0  0
  -25.9207  -30.8455   21.3501 C   0  0  0  0  0  0
  -25.9991  -29.4771   20.7059 C   0  0  0  0  0  0
  -27.1994  -28.7372   20.6881 C   0  0  0  0  0  0
  -26.0656  -26.9384   19.5052 C   0  0  0  0  0  0
  -24.8699  -27.6832   19.5177 C   0  0  0  0  0  0
  -23.6032  -29.8163   20.1640 C   0  0  0  0  0  0
  -25.4096  -36.3130   24.0339 C   0  0  1  0  0  0
  -20.5851  -28.3652   23.1343 C   0  0  2  0  0  0
  -20.6761  -26.9401   22.5416 C   0  0  0  0  0  0
  -19.5734  -26.6393   21.5216 C   0  0  0  0  0  0
  -18.1910  -26.7933   22.1641 C   0  0  0  0  0  0
  -19.1518  -28.8840   23.2930 C   0  0  0  0  0  0
  -18.9458  -30.1466   23.8928 C   0  0  0  0  0  0
  -17.6455  -30.6596   24.0579 C   0  0  0  0  0  0
  -25.9025  -34.9507   23.5128 C   0  0  0  0  0  0
  -16.5351  -29.9099   23.6334 C   0  0  0  0  0  0
  -16.7254  -28.6509   23.0358 C   0  0  0  0  0  0
  -26.4439  -31.6636   25.0705 C   0  0  0  0  0  0
  -25.3697  -31.3772   26.1453 C   0  0  0  0  0  0
  -27.0247  -30.3086   24.6045 C   0  0  0  0  0  0
  -27.5998  -32.4365   25.7479 C   0  0  0  0  0  0
  -27.5576  -37.1818   24.8467 C   0  0  0  0  0  0
  -21.4122  -29.3035   22.3762 N   0  0  0  0  0  0
  -26.4287  -37.3815   23.9413 N   0  0  0  0  0  0
  -24.6614  -31.0836   22.0944 N   0  0  0  0  0  0
  -23.4194  -28.8234   23.3024 O   0  0  0  0  0  0
  -28.4658  -26.8168   20.0812 O   0  0  0  0  0  0
  -26.5595  -34.8958   22.4697 O   0  0  0  0  0  0
  -23.5321  -32.1451   23.7492 O   0  0  0  0  0  0
  -28.4269  -18.5167   20.7187 C   0  0  0  0  0  0
  -30.7014  -19.1831   21.2690 C   0  0  0  0  0  0
  -29.7980  -18.2089   20.7990 C   0  0  0  0  0  0
  -28.8729  -20.7984   21.4983 C   0  0  0  0  0  0
  -27.9615  -19.8024   21.0613 C   0  0  0  0  0  0
  -30.2470  -20.4687   21.6162 C   0  0  0  0  0  0
  -30.6636  -15.8823   22.6473 C   0  0  0  0  0  0
  -30.3169  -16.8722   20.2968 C   0  0  0  0  0  0
  -28.3981  -22.2157   21.8119 C   0  0  0  0  0  0
  -28.2094  -24.5257   20.8927 C   0  0  0  0  0  0
  -28.5772  -25.4442   19.7093 C   0  0  0  0  0  0
  -30.0900  -15.6576   21.2347 C   0  0  1  0  0  0
  -28.6455  -23.1253   20.6707 N   0  3  0  0  0  0
  -26.2730  -20.1326   20.8888 Cl  0  0  0  0  0  0
  -31.4097  -21.6434   22.1265 Cl  0  0  0  0  0  0
  -31.4583  -12.3447   19.1091 H   0  0  0  0  0  0
  -30.2876  -11.2577   19.7936 H   0  0  0  0  0  0
  -29.7190  -11.7979   17.4037 H   0  0  0  0  0  0
  -29.6712  -13.5001   17.7850 H   0  0  0  0  0  0
  -27.8060  -11.3234   18.7934 H   0  0  0  0  0  0
  -27.3616  -12.6734   17.7849 H   0  0  0  0  0  0
  -27.7174  -14.2590   19.5974 H   0  0  0  0  0  0
  -28.6721  -11.9215   21.3178 H   0  0  0  0  0  0
  -28.4878  -13.5444   21.8893 H   0  0  0  0  0  0
  -25.2763   -9.5680   22.4759 H   0  0  0  0  0  0
  -23.9997   -7.4636   22.7471 H   0  0  0  0  0  0
  -21.0844   -8.8777   19.8958 H   0  0  0  0  0  0
  -22.3701  -10.9672   19.6163 H   0  0  0  0  0  0
  -21.2012   -7.6151   23.9721 H   0  0  0  0  0  0
  -21.1475   -6.0522   25.9081 H   0  0  0  0  0  0
  -22.0603   -2.7610   23.2842 H   0  0  0  0  0  0
  -22.4102  -11.9884   22.4772 H   0  0  0  0  0  0
  -21.1122  -13.1269   22.2593 H   0  0  0  0  0  0
  -24.6693  -15.8473   20.5151 H   0  0  0  0  0  0
  -26.2920  -15.6229   20.0961 H   0  0  0  0  0  0
  -26.7109  -32.5561   23.1166 H   0  0  0  0  0  0
  -24.9991  -33.9810   25.0447 H   0  0  0  0  0  0
  -22.6823  -31.3064   21.4062 H   0  0  0  0  0  0
  -23.3736  -35.9656   23.3318 H   0  0  0  0  0  0
  -24.3549  -36.8912   22.2039 H   0  0  0  0  0  0
  -23.7225  -37.6541   23.6647 H   0  0  0  0  0  0
  -26.0143  -31.6024   20.5702 H   0  0  0  0  0  0
  -26.8174  -30.9150   21.9542 H   0  0  0  0  0  0
  -28.0952  -29.1480   21.1332 H   0  0  0  0  0  0
  -26.0394  -25.9691   19.0306 H   0  0  0  0  0  0
  -23.9775  -27.2748   19.0644 H   0  0  0  0  0  0
  -23.7050  -30.5853   19.3975 H   0  0  0  0  0  0
  -22.7294  -29.2284   19.8759 H   0  0  0  0  0  0
  -25.1277  -36.1980   25.0831 H   0  0  0  0  0  0
  -20.9971  -28.3203   24.1457 H   0  0  0  0  0  0
  -20.5679  -26.2258   23.3589 H   0  0  0  0  0  0
  -21.6633  -26.7451   22.1204 H   0  0  0  0  0  0
  -19.6874  -25.6303   21.1230 H   0  0  0  0  0  0
  -19.6667  -27.3236   20.6770 H   0  0  0  0  0  0
  -17.4182  -26.6724   21.4023 H   0  0  0  0  0  0
  -18.0309  -26.0050   22.9023 H   0  0  0  0  0  0
  -19.7923  -30.7298   24.2285 H   0  0  0  0  0  0
  -17.4993  -31.6274   24.5187 H   0  0  0  0  0  0
  -15.5348  -30.3011   23.7628 H   0  0  0  0  0  0
  -15.8653  -28.0834   22.7053 H   0  0  0  0  0  0
  -24.5846  -30.7133   25.7820 H   0  0  0  0  0  0
  -24.8915  -32.2944   26.4890 H   0  0  0  0  0  0
  -25.8027  -30.8958   27.0226 H   0  0  0  0  0  0
  -26.2778  -29.6880   24.1067 H   0  0  0  0  0  0
  -27.4000  -29.7272   25.4478 H   0  0  0  0  0  0
  -27.8621  -30.4427   23.9191 H   0  0  0  0  0  0
  -27.2596  -33.3654   26.2072 H   0  0  0  0  0  0
  -28.3810  -32.6936   25.0320 H   0  0  0  0  0  0
  -28.0670  -31.8484   26.5391 H   0  0  0  0  0  0
  -28.2618  -38.0093   24.7520 H   0  0  0  0  0  0
  -28.1042  -36.2629   24.6292 H   0  0  0  0  0  0
  -27.2296  -37.1472   25.8870 H   0  0  0  0  0  0
  -20.9269  -29.8721   21.6969 H   0  0  0  0  0  0
  -26.0164  -38.2893   24.1419 H   0  0  0  0  0  0
  -27.7253  -17.7778   20.3589 H   0  0  0  0  0  0
  -31.7571  -18.9607   21.3302 H   0  0  0  0  0  0
  -30.1463  -16.6913   23.1621 H   0  0  0  0  0  0
  -31.7229  -16.1378   22.6114 H   0  0  0  0  0  0
  -30.5593  -14.9878   23.2632 H   0  0  0  0  0  0
  -31.3789  -16.9949   20.0762 H   0  0  0  0  0  0
  -29.8472  -16.6737   19.3320 H   0  0  0  0  0  0
  -28.9124  -22.5831   22.7010 H   0  0  0  0  0  0
  -27.3399  -22.2263   22.0696 H   0  0  0  0  0  0
  -27.1339  -24.5580   21.0702 H   0  0  0  0  0  0
  -28.6921  -24.9014   21.7951 H   0  0  0  0  0  0
  -28.0287  -25.2002   18.8004 H   0  0  0  0  0  0
  -29.6275  -25.2921   19.4567 H   0  0  0  0  0  0
  -29.0126  -15.5354   21.3202 H   0  0  0  0  0  0
  -28.1814  -22.7562   19.8540 H   0  0  0  0  0  0
  -29.6379  -23.1158   20.4894 H   0  0  0  0  0  0
  1 25  1  0  0  0
  1 30  2  0  0  0
  1 82  1  0  0  0
  2  3  1  0  0  0
  2 25  1  0  0  0
  2 86  1  0  0  0
  2 87  1  0  0  0
  3  4  1  0  0  0
  3 88  1  0  0  0
  3 89  1  0  0  0
  4  5  1  0  0  0
  4 90  1  0  0  0
  4 91  1  0  0  0
  5  6  1  0  0  0
  5 26  1  0  0  0
  5 92  1  0  0  0
  6 25  1  0  0  0
  6 93  1  0  0  0
  6 94  1  0  0  0
  7  8  2  0  0  0
  7 26  1  0  0  0
  7 29  1  0  0  0
  8  9  1  0  0  0
  8 22  1  0  0  0
  9 10  1  0  0  0
  9 27  2  0  0  0
 10 11  2  0  0  0
 10 15  1  0  0  0
 11 12  1  0  0  0
 11 95  1  0  0  0
 12 13  2  0  0  0
 12 96  1  0  0  0
 13 14  1  0  0  0
 13 31  1  0  0  0
 14 15  2  0  0  0
 14 97  1  0  0  0
 15 98  1  0  0  0
 16 17  2  0  0  0
 16 21  1  0  0  0
 16 31  1  0  0  0
 17 18  1  0  0  0
 17 99  1  0  0  0
 18 19  2  0  0  0
 18100  1  0  0  0
 19 20  1  0  0  0
 19 24  1  0  0  0
 20 21  2  0  0  0
 20101  1  0  0  0
 21 23  1  0  0  0
 22 28  1  0  0  0
 22 32  2  0  0  0
 26 27  1  0  0  0
 28102  1  0  0  0
 28103  1  0  0  0
 29104  1  0  0  0
 29105  1  0  0  0
 33 34  1  0  0  0
 33 66  1  0  0  0
 33 70  2  0  0  0
 34 36  1  0  0  0
 34 59  1  0  0  0
 34106  1  0  0  0
 35 44  2  0  0  0
 35 45  1  0  0  0
 35 68  1  0  0  0
 36 56  1  0  0  0
 36107  1  0  0  0
 37 39  1  0  0  0
 37 47  1  0  0  0
 37 66  1  0  0  0
 37108  1  0  0  0
 38 43  2  0  0  0
 38 46  1  0  0  0
 38 47  1  0  0  0
 39 64  1  0  0  0
 39 67  2  0  0  0
 40 52  1  0  0  0
 40 53  2  0  0  0
 40 58  1  0  0  0
 41109  1  0  0  0
 41110  1  0  0  0
 41111  1  0  0  0
 41 48  1  0  0  0
 42 43  1  0  0  0
 42 66  1  0  0  0
 42112  1  0  0  0
 42113  1  0  0  0
 43 44  1  0  0  0
 44114  1  0  0  0
 45 46  2  0  0  0
 45115  1  0  0  0
 46116  1  0  0  0
 47117  1  0  0  0
 47118  1  0  0  0
 48 56  1  0  0  0
 48 65  1  0  0  0
 48119  1  0  0  0
 49 50  1  0  0  0
 49 53  1  0  0  0
 49 64  1  0  0  0
 49120  1  0  0  0
 50 51  1  0  0  0
 50121  1  0  0  0
 50122  1  0  0  0
 51 52  1  0  0  0
 51123  1  0  0  0
 51124  1  0  0  0
 52125  1  0  0  0
 52126  1  0  0  0
 53 54  1  0  0  0
 54 55  2  0  0  0
 54127  1  0  0  0
 55 57  1  0  0  0
 55128  1  0  0  0
 56 69  2  0  0  0
 57 58  2  0  0  0
 57129  1  0  0  0
 58130  1  0  0  0
 59 60  1  0  0  0
 59 61  1  0  0  0
 59 62  1  0  0  0
 60131  1  0  0  0
 60132  1  0  0  0
 60133  1  0  0  0
 61134  1  0  0  0
 61135  1  0  0  0
 61136  1  0  0  0
 62137  1  0  0  0
 62138  1  0  0  0
 62139  1  0  0  0
 63 65  1  0  0  0
 63140  1  0  0  0
 63141  1  0  0  0
 63142  1  0  0  0
 64143  1  0  0  0
 65144  1  0  0  0
 68 81  1  0  0  0
 71 73  2  0  0  0
 71 75  1  0  0  0
 71145  1  0  0  0
 72 73  1  0  0  0
 72 76  2  0  0  0
 72146  1  0  0  0
 73 78  1  0  0  0
 74 75  2  0  0  0
 74 76  1  0  0  0
 74 79  1  0  0  0
 75 84  1  0  0  0
 76 85  1  0  0  0
 77147  1  0  0  0
 77148  1  0  0  0
 77149  1  0  0  0
 77 82  1  0  0  0
 78 82  1  0  0  0
 78150  1  0  0  0
 78151  1  0  0  0
 79 83  1  0  0  0
 79152  1  0  0  0
 79153  1  0  0  0
 80 81  1  0  0  0
 80 83  1  0  0  0
 80154  1  0  0  0
 80155  1  0  0  0
 81156  1  0  0  0
 81157  1  0  0  0
 82158  1  0  0  0
 83159  1  0  0  0
 83160  1  0  0  0
M  CHG  1  83   1
M  ISO  4   1 100  68 101  81 101  82 100
M  END
> <chiral flag>
0

> <version>
0

> <s_m_source_file>
/data/baiqing/PycharmProjects/Reinvent-master-3.2/result/LINK_invent/BTK/process_docking_weight1_custom_sum_contain_oxygen_bond_distance_aromatic_linkinvent_7_9_3/rearranged_h_0034.sdf

> <i_m_source_file_index>
61

> <r_mmod_Potential_Energy-OPLS-2005>
-226.787384033203

> <r_mmod_Stretch_Energy-OPLS-2005>
34.1013336181641

> <r_mmod_Bend_Energy-OPLS-2005>
100.309288024902

> <r_mmod_Torsional_Energy-OPLS-2005>
160.265151977539

> <r_mmod_Improper_Torsional_Energy-OPLS-2005>
3.22520399093628

> <r_mmod_Van_der_Waal_Energy-OPLS-2005>
148.652526855469

> <r_mmod_Electrostatic_Energy-OPLS-2005>
-257.564178466797

> <r_mmod_Solvation_Energy-OPLS-2005>
-427.2119140625

> <b_mmod_Minimization_Converged-OPLS-2005>
0

> <r_mmod_RMS_Derivative-OPLS-2005>
2.21546769142151

$$$$
62
                    3D
 Structure written by MMmdl.
180189  0  0  1  0            999 V2000
  -29.8808  -16.4581   19.8271 C   0  0  0  0  0  0
  -30.3222  -13.6781   19.3927 C   0  0  0  0  0  0
  -29.5599  -12.8386   18.3131 C   0  0  0  0  0  0
  -28.2162  -12.3207   18.8459 C   0  0  0  0  0  0
  -27.5570  -13.3867   19.7442 C   0  0  2  0  0  0
  -28.5192  -14.1094   20.7300 C   0  0  0  0  0  0
  -25.2235  -13.8346   20.5926 C   0  0  0  0  0  0
  -24.1713  -13.0386   20.9343 C   0  0  0  0  0  0
  -24.6549  -11.6942   20.8747 C   0  0  0  0  0  0
  -23.9255  -10.4259   21.0362 C   0  0  0  0  0  0
  -24.3698   -9.4181   21.9205 C   0  0  0  0  0  0
  -23.6336   -8.2232   22.0754 C   0  0  0  0  0  0
  -22.4328   -8.0293   21.3533 C   0  0  0  0  0  0
  -21.9995   -9.0283   20.4636 C   0  0  0  0  0  0
  -22.7369  -10.2147   20.3063 C   0  0  0  0  0  0
  -21.6874   -6.0740   22.5281 C   0  0  0  0  0  0
  -21.4038   -6.5649   23.8207 C   0  0  0  0  0  0
  -21.3667   -5.6805   24.9167 C   0  0  0  0  0  0
  -21.6023   -4.3061   24.7221 C   0  0  0  0  0  0
  -21.8823   -3.8155   23.4347 C   0  0  0  0  0  0
  -21.9192   -4.6966   22.3399 C   0  0  0  0  0  0
  -22.7698  -13.5078   21.1925 C   0  0  0  0  0  0
  -22.1665   -4.2149   21.0975 F   0  0  0  0  0  0
  -21.5614   -3.4548   25.7732 F   0  0  0  0  0  0
  -29.5052  -14.9369   19.9128 N   0  0  0  0  0  0
  -26.2803  -12.9889   20.3290 N   0  0  0  0  0  0
  -25.9516  -11.6856   20.5545 N   0  0  0  0  0  0
  -22.0379  -12.8055   22.0474 N   0  0  0  0  0  0
  -25.3570  -15.2093   20.4354 N   0  0  0  0  0  0
  -31.1388  -16.2801   19.8604 O   0  0  0  0  0  0
  -21.6663   -6.8905   21.4253 O   0  0  0  0  0  0
  -22.3338  -14.5355   20.6737 O   0  0  0  0  0  0
  -24.8040  -31.6504   22.9406 C   0  0  0  0  0  0
  -25.9962  -32.3589   23.7377 C   0  0  1  0  0  0
  -27.5021  -26.2315   20.8267 C   0  0  0  0  0  0
  -25.5530  -33.7527   24.0496 N   0  0  0  0  0  0
  -23.6125  -30.1710   21.2715 C   0  0  2  0  0  0
  -25.0219  -28.3127   19.6339 C   0  0  0  0  0  0
  -22.8022  -29.3964   22.3848 C   0  0  0  0  0  0
  -18.0435  -28.1394   22.8457 C   0  0  0  0  0  0
  -24.1384  -36.6978   23.2647 C   0  0  0  0  0  0
  -26.1396  -30.4475   20.8602 C   0  0  0  0  0  0
  -26.3863  -28.9570   20.0853 C   0  0  0  0  0  0
  -27.6536  -27.9461   20.4451 C   0  0  0  0  0  0
  -25.8540  -25.4892   20.3674 C   0  0  0  0  0  0
  -24.7331  -26.6773   19.6614 C   0  0  0  0  0  0
  -23.8141  -29.3306   19.8860 C   0  0  0  0  0  0
  -25.4095  -36.2504   24.0125 C   0  0  1  0  0  0
  -20.6096  -28.3639   23.0937 C   0  0  2  0  0  0
  -20.6518  -26.9107   22.5610 C   0  0  0  0  0  0
  -19.5594  -26.6136   21.5270 C   0  0  0  0  0  0
  -18.1799  -26.7929   22.1567 C   0  0  0  0  0  0
  -19.1776  -28.8915   23.2620 C   0  0  0  0  0  0
  -18.9763  -30.1482   23.8726 C   0  0  0  0  0  0
  -17.6780  -30.6657   24.0537 C   0  0  0  0  0  0
  -25.9116  -34.8973   23.4371 C   0  0  0  0  0  0
  -16.5607  -29.9189   23.6364 C   0  0  0  0  0  0
  -16.7437  -28.6519   23.0503 C   0  0  0  0  0  0
  -26.3998  -31.7809   25.1988 C   0  0  0  0  0  0
  -25.2197  -31.5517   26.1619 C   0  0  0  0  0  0
  -27.0713  -30.4432   25.3474 C   0  0  0  0  0  0
  -27.4892  -32.7131   25.8104 C   0  0  0  0  0  0
  -27.5489  -37.1549   24.8489 C   0  0  0  0  0  0
  -21.4620  -29.2582   22.2801 N   0  0  0  0  0  0
  -26.4114  -37.3500   23.9517 N   0  0  0  0  0  0
  -24.8999  -30.8128   21.7776 N   0  0  0  0  0  0
  -23.4043  -28.9112   23.3439 O   0  0  0  0  0  0
  -28.4990  -25.5170   21.2204 O   0  0  0  0  0  0
  -26.6244  -34.8945   22.4343 O   0  0  0  0  0  0
  -23.6960  -31.9568   23.4186 O   0  0  0  0  0  0
  -24.5802  -26.6410   22.3071 C   0  0  0  0  0  0
  -24.9118  -25.6356   23.2093 C   0  0  0  0  0  0
  -25.7372  -27.3129   21.6812 C   0  0  0  0  0  0
  -25.7261  -26.0482   24.2266 C   0  0  0  0  0  0
  -26.5589  -27.7397   22.8586 C   0  0  0  0  0  0
  -25.1801  -24.1962   22.7278 C   0  0  0  0  0  0
  -26.2231  -24.9987   25.1648 C   0  0  0  0  0  0
  -27.1255  -24.0326   24.3769 C   0  0  0  0  0  0
  -26.7604  -23.8875   22.8653 C   0  0  2  0  0  0
  -32.2022  -29.9867   24.4374 C   0  0  0  0  0  0
  -26.8809  -26.5032   18.7271 C   0  0  0  0  0  0
  -27.5725  -28.9259   23.0204 C   0  0  0  0  0  0
  -28.0364  -24.2531   21.8751 C   0  0  0  0  0  0
  -31.6135  -29.5299   23.0818 C   0  0  0  0  0  0
  -27.7244  -24.3125   18.6693 C   0  0  0  0  0  0
  -29.0062  -29.4309   22.5425 C   0  0  0  0  0  0
  -30.2428  -28.8096   23.2333 C   0  0  0  0  0  0
  -27.8738  -22.0493   19.0668 C   0  0  0  0  0  0
  -28.9961  -20.0540   19.2451 C   0  0  0  0  0  0
  -26.4641  -27.1472   24.0939 N   0  0  0  0  0  0
  -29.0846  -18.0097   19.5623 N   0  0  0  0  0  0
  -31.2556  -14.0205   18.9370 H   0  0  0  0  0  0
  -30.6433  -13.0316   20.2149 H   0  0  0  0  0  0
  -30.1848  -12.0079   17.9746 H   0  0  0  0  0  0
  -29.3963  -13.4775   17.4422 H   0  0  0  0  0  0
  -28.4221  -11.4316   19.4400 H   0  0  0  0  0  0
  -27.5583  -12.0343   18.0217 H   0  0  0  0  0  0
  -27.2871  -14.1702   19.0341 H   0  0  0  0  0  0
  -28.9821  -13.4163   21.4347 H   0  0  0  0  0  0
  -27.9596  -14.8131   21.3490 H   0  0  0  0  0  0
  -25.2844   -9.5621   22.4773 H   0  0  0  0  0  0
  -24.0007   -7.4631   22.7504 H   0  0  0  0  0  0
  -21.0904   -8.8843   19.8957 H   0  0  0  0  0  0
  -22.3862  -10.9674   19.6141 H   0  0  0  0  0  0
  -21.2074   -7.6165   23.9711 H   0  0  0  0  0  0
  -21.1477   -6.0537   25.9062 H   0  0  0  0  0  0
  -22.0596   -2.7617   23.2852 H   0  0  0  0  0  0
  -22.4052  -11.9782   22.4917 H   0  0  0  0  0  0
  -21.0948  -13.0959   22.2611 H   0  0  0  0  0  0
  -24.5641  -15.8288   20.5588 H   0  0  0  0  0  0
  -26.1881  -15.6851   20.1112 H   0  0  0  0  0  0
  -26.8700  -32.3912   23.0767 H   0  0  0  0  0  0
  -24.9082  -33.8355   24.8248 H   0  0  0  0  0  0
  -22.9438  -30.9774   20.9536 H   0  0  0  0  0  0
  -23.3719  -35.9200   23.2967 H   0  0  0  0  0  0
  -24.3487  -36.9142   22.2136 H   0  0  0  0  0  0
  -23.6938  -37.5891   23.7148 H   0  0  0  0  0  0
  -26.2685  -31.2202   20.1076 H   0  0  0  0  0  0
  -27.0300  -30.7231   21.3802 H   0  0  0  0  0  0
  -28.6520  -28.3207   20.4624 H   0  0  0  0  0  0
  -25.7316  -24.4343   20.2285 H   0  0  0  0  0  0
  -23.7522  -26.3089   19.3807 H   0  0  0  0  0  0
  -23.8476  -30.0293   19.0468 H   0  0  0  0  0  0
  -22.8880  -28.7837   19.6961 H   0  0  0  0  0  0
  -25.1307  -36.0947   25.0595 H   0  0  0  0  0  0
  -21.0294  -28.3261   24.0979 H   0  0  0  0  0  0
  -20.4849  -26.2235   23.3944 H   0  0  0  0  0  0
  -21.6380  -26.6495   22.1848 H   0  0  0  0  0  0
  -19.6570  -25.5963   21.1460 H   0  0  0  0  0  0
  -19.6657  -27.2922   20.6800 H   0  0  0  0  0  0
  -17.4060  -26.6973   21.3926 H   0  0  0  0  0  0
  -17.9906  -26.0090   22.8910 H   0  0  0  0  0  0
  -19.8408  -30.7212   24.1948 H   0  0  0  0  0  0
  -17.5490  -31.6374   24.5118 H   0  0  0  0  0  0
  -15.5631  -30.3046   23.7938 H   0  0  0  0  0  0
  -15.8780  -28.0850   22.7386 H   0  0  0  0  0  0
  -24.5025  -30.8446   25.7370 H   0  0  0  0  0  0
  -24.6648  -32.4576   26.4064 H   0  0  0  0  0  0
  -25.5587  -31.1031   27.0996 H   0  0  0  0  0  0
  -26.3748  -29.6098   25.1979 H   0  0  0  0  0  0
  -27.5386  -30.3016   26.3405 H   0  0  0  0  0  0
  -27.9416  -30.4955   24.7426 H   0  0  0  0  0  0
  -27.1294  -33.7263   25.9839 H   0  0  0  0  0  0
  -28.3769  -32.7931   25.1757 H   0  0  0  0  0  0
  -27.8174  -32.3864   26.7920 H   0  0  0  0  0  0
  -28.2337  -37.9996   24.7621 H   0  0  0  0  0  0
  -28.1112  -36.2482   24.6189 H   0  0  0  0  0  0
  -27.2262  -37.1001   25.8901 H   0  0  0  0  0  0
  -21.0085  -29.7376   21.5233 H   0  0  0  0  0  0
  -25.9815  -38.2452   24.1757 H   0  0  0  0  0  0
  -23.7762  -26.2676   21.7047 H   0  0  0  0  0  0
  -24.7069  -23.9509   21.7798 H   0  0  0  0  0  0
  -24.5812  -23.5317   23.3456 H   0  0  0  0  0  0
  -25.3240  -24.4811   25.5090 H   0  0  0  0  0  0
  -26.6950  -25.4321   26.0390 H   0  0  0  0  0  0
  -27.0589  -23.0559   24.8466 H   0  0  0  0  0  0
  -28.1640  -24.3383   24.4904 H   0  0  0  0  0  0
  -26.7208  -22.8014   22.7355 H   0  0  0  0  0  0
  -32.8590  -30.8581   24.3501 H   0  0  0  0  0  0
  -32.7437  -29.1587   24.8982 H   0  0  0  0  0  0
  -31.4462  -30.2961   25.1578 H   0  0  0  0  0  0
  -27.6128  -27.1690   18.2695 H   0  0  0  0  0  0
  -26.1825  -26.5244   17.8791 H   0  0  0  0  0  0
  -27.9560  -28.6587   23.9856 H   0  0  0  0  0  0
  -26.9237  -29.7678   23.1062 H   0  0  0  0  0  0
  -28.1628  -23.4551   21.1621 H   0  0  0  0  0  0
  -28.9212  -24.0835   22.4862 H   0  0  0  0  0  0
  -32.3216  -28.8509   22.5997 H   0  0  0  0  0  0
  -31.5618  -30.3861   22.4068 H   0  0  0  0  0  0
  -28.7694  -24.5591   18.8532 H   0  0  0  0  0  0
  -27.6616  -24.2217   17.5906 H   0  0  0  0  0  0
  -28.9854  -30.4528   22.9200 H   0  0  0  0  0  0
  -29.1738  -29.7758   21.5280 H   0  0  0  0  0  0
  -30.0209  -28.7989   24.2925 H   0  0  0  0  0  0
  -30.3178  -27.7558   22.9858 H   0  0  0  0  0  0
  -27.1964  -21.7482   18.2637 H   0  0  0  0  0  0
  -27.2225  -21.9565   19.9293 H   0  0  0  0  0  0
  -29.7508  -20.3357   19.9748 H   0  0  0  0  0  0
  -29.5538  -20.1134   18.3050 H   0  0  0  0  0  0
  -28.1132  -17.7297   19.4860 H   0  0  0  0  0  0
  1 25  1  0  0  0
  1 30  2  0  0  0
  1 91  1  0  0  0
  2  3  1  0  0  0
  2 25  1  0  0  0
  2 92  1  0  0  0
  2 93  1  0  0  0
  3  4  1  0  0  0
  3 94  1  0  0  0
  3 95  1  0  0  0
  4  5  1  0  0  0
  4 96  1  0  0  0
  4 97  1  0  0  0
  5  6  1  0  0  0
  5 26  1  0  0  0
  5 98  1  0  0  0
  6 25  1  0  0  0
  6 99  1  0  0  0
  6100  1  0  0  0
  7  8  2  0  0  0
  7 26  1  0  0  0
  7 29  1  0  0  0
  8  9  1  0  0  0
  8 22  1  0  0  0
  9 10  1  0  0  0
  9 27  2  0  0  0
 10 11  2  0  0  0
 10 15  1  0  0  0
 11 12  1  0  0  0
 11101  1  0  0  0
 12 13  2  0  0  0
 12102  1  0  0  0
 13 14  1  0  0  0
 13 31  1  0  0  0
 14 15  2  0  0  0
 14103  1  0  0  0
 15104  1  0  0  0
 16 17  2  0  0  0
 16 21  1  0  0  0
 16 31  1  0  0  0
 17 18  1  0  0  0
 17105  1  0  0  0
 18 19  2  0  0  0
 18106  1  0  0  0
 19 20  1  0  0  0
 19 24  1  0  0  0
 20 21  2  0  0  0
 20107  1  0  0  0
 21 23  1  0  0  0
 22 28  1  0  0  0
 22 32  2  0  0  0
 26 27  1  0  0  0
 28108  1  0  0  0
 28109  1  0  0  0
 29110  1  0  0  0
 29111  1  0  0  0
 33 34  1  0  0  0
 33 66  1  0  0  0
 33 70  2  0  0  0
 34 36  1  0  0  0
 34 59  1  0  0  0
 34112  1  0  0  0
 35 44  2  0  0  0
 35 45  1  0  0  0
 35 68  1  0  0  0
 36 56  1  0  0  0
 36113  1  0  0  0
 37 39  1  0  0  0
 37 47  1  0  0  0
 37 66  1  0  0  0
 37114  1  0  0  0
 38 43  2  0  0  0
 38 46  1  0  0  0
 38 47  1  0  0  0
 39 64  1  0  0  0
 39 67  2  0  0  0
 40 52  1  0  0  0
 40 53  2  0  0  0
 40 58  1  0  0  0
 41115  1  0  0  0
 41116  1  0  0  0
 41117  1  0  0  0
 41 48  1  0  0  0
 42 43  1  0  0  0
 42 66  1  0  0  0
 42118  1  0  0  0
 42119  1  0  0  0
 43 44  1  0  0  0
 44120  1  0  0  0
 45 46  2  0  0  0
 45121  1  0  0  0
 46122  1  0  0  0
 47123  1  0  0  0
 47124  1  0  0  0
 48 56  1  0  0  0
 48 65  1  0  0  0
 48125  1  0  0  0
 49 50  1  0  0  0
 49 53  1  0  0  0
 49 64  1  0  0  0
 49126  1  0  0  0
 50 51  1  0  0  0
 50127  1  0  0  0
 50128  1  0  0  0
 51 52  1  0  0  0
 51129  1  0  0  0
 51130  1  0  0  0
 52131  1  0  0  0
 52132  1  0  0  0
 53 54  1  0  0  0
 54 55  2  0  0  0
 54133  1  0  0  0
 55 57  1  0  0  0
 55134  1  0  0  0
 56 69  2  0  0  0
 57 58  2  0  0  0
 57135  1  0  0  0
 58136  1  0  0  0
 59 60  1  0  0  0
 59 61  1  0  0  0
 59 62  1  0  0  0
 60137  1  0  0  0
 60138  1  0  0  0
 60139  1  0  0  0
 61140  1  0  0  0
 61141  1  0  0  0
 61142  1  0  0  0
 62143  1  0  0  0
 62144  1  0  0  0
 62145  1  0  0  0
 63 65  1  0  0  0
 63146  1  0  0  0
 63147  1  0  0  0
 63148  1  0  0  0
 64149  1  0  0  0
 65150  1  0  0  0
 68 83  1  0  0  0
 71 72  2  0  0  0
 71 73  1  0  0  0
 71151  1  0  0  0
 72 74  1  0  0  0
 72 76  1  0  0  0
 73 75  2  0  0  0
 73 81  1  0  0  0
 74 77  1  0  0  0
 74 90  2  0  0  0
 75 82  1  0  0  0
 75 90  1  0  0  0
 76 79  1  0  0  0
 76152  1  0  0  0
 76153  1  0  0  0
 77 78  1  0  0  0
 77154  1  0  0  0
 77155  1  0  0  0
 78 79  1  0  0  0
 78156  1  0  0  0
 78157  1  0  0  0
 79 83  1  0  0  0
 79158  1  0  0  0
 80 84  1  0  0  0
 80159  1  0  0  0
 80160  1  0  0  0
 80161  1  0  0  0
 81 85  1  0  0  0
 81162  1  0  0  0
 81163  1  0  0  0
 82 86  1  0  0  0
 82164  1  0  0  0
 82165  1  0  0  0
 83166  1  0  0  0
 83167  1  0  0  0
 84 87  1  0  0  0
 84168  1  0  0  0
 84169  1  0  0  0
 85 88  1  0  0  0
 85170  1  0  0  0
 85171  1  0  0  0
 86 87  1  0  0  0
 86172  1  0  0  0
 86173  1  0  0  0
 87174  1  0  0  0
 87175  1  0  0  0
 88 89  1  0  0  0
 88176  1  0  0  0
 88177  1  0  0  0
 89 91  1  0  0  0
 89178  1  0  0  0
 89179  1  0  0  0
 91180  1  0  0  0
M  ISO  4   1 100  68 101  83 101  91 100
M  END
> <chiral flag>
0

> <version>
0

> <s_m_source_file>
/data/baiqing/PycharmProjects/Reinvent-master-3.2/result/LINK_invent/BTK/process_docking_weight1_custom_sum_contain_oxygen_bond_distance_aromatic_linkinvent_7_9_3/rearranged_h_0034.sdf

> <i_m_source_file_index>
62

> <r_mmod_Potential_Energy-OPLS-2005>
15763.2587890625

> <r_mmod_Stretch_Energy-OPLS-2005>
8827.6923828125

> <r_mmod_Bend_Energy-OPLS-2005>
1411.67321777344

> <r_mmod_Torsional_Energy-OPLS-2005>
599.265197753906

> <r_mmod_Improper_Torsional_Energy-OPLS-2005>
60.4500007629395

> <r_mmod_Van_der_Waal_Energy-OPLS-2005>
2491.453125

> <r_mmod_Electrostatic_Energy-OPLS-2005>
-466.455932617188

> <r_mmod_Solvation_Energy-OPLS-2005>
-237.108184814453

> <b_mmod_Minimization_Converged-OPLS-2005>
0

> <r_mmod_RMS_Derivative-OPLS-2005>
35.9841766357422

$$$$
63
                    3D
 Structure written by MMmdl.
188196  0  0  1  0            999 V2000
  -30.6638  -14.5237   20.5064 C   0  0  0  0  0  0
  -30.4210  -12.3305   19.4265 C   0  0  0  0  0  0
  -29.4795  -12.4861   18.2102 C   0  0  0  0  0  0
  -28.0035  -12.3419   18.6276 C   0  0  0  0  0  0
  -27.6513  -13.1911   19.8754 C   0  0  2  0  0  0
  -28.7014  -13.0142   20.9971 C   0  0  0  0  0  0
  -25.2543  -13.8091   20.5706 C   0  0  0  0  0  0
  -24.1837  -13.0445   20.9241 C   0  0  0  0  0  0
  -24.6325  -11.6867   20.8819 C   0  0  0  0  0  0
  -23.8972  -10.4352   21.0448 C   0  0  0  0  0  0
  -24.3562   -9.4290   21.9208 C   0  0  0  0  0  0
  -23.6308   -8.2299   22.0704 C   0  0  0  0  0  0
  -22.4289   -8.0313   21.3506 C   0  0  0  0  0  0
  -21.9900   -9.0286   20.4585 C   0  0  0  0  0  0
  -22.7151  -10.2210   20.3053 C   0  0  0  0  0  0
  -21.6861   -6.0748   22.5276 C   0  0  0  0  0  0
  -21.4020   -6.5644   23.8206 C   0  0  0  0  0  0
  -21.3664   -5.6792   24.9176 C   0  0  0  0  0  0
  -21.6049   -4.3060   24.7223 C   0  0  0  0  0  0
  -21.8818   -3.8138   23.4348 C   0  0  0  0  0  0
  -21.9194   -4.6968   22.3406 C   0  0  0  0  0  0
  -22.7850  -13.5242   21.1980 C   0  0  0  0  0  0
  -22.1676   -4.2128   21.0999 F   0  0  0  0  0  0
  -21.5632   -3.4551   25.7753 F   0  0  0  0  0  0
  -30.0223  -13.3276   20.4245 N   0  0  0  0  0  0
  -26.2958  -12.9230   20.3378 N   0  0  0  0  0  0
  -25.9247  -11.6393   20.5851 N   0  0  0  0  0  0
  -22.0531  -12.8223   22.0485 N   0  0  0  0  0  0
  -25.4310  -15.1835   20.4061 N   0  0  0  0  0  0
  -31.8292  -14.6980   20.1448 O   0  0  0  0  0  0
  -21.6653   -6.8917   21.4233 O   0  0  0  0  0  0
  -22.3568  -14.5642   20.6904 O   0  0  0  0  0  0
  -24.6239  -31.8750   23.2255 C   0  0  0  0  0  0
  -25.9156  -32.4808   23.8530 C   0  0  1  0  0  0
  -27.1725  -27.4337   20.0778 C   0  0  0  0  0  0
  -25.6004  -33.8587   24.2500 N   0  0  0  0  0  0
  -23.4043  -30.5196   21.5588 C   0  0  2  0  0  0
  -24.8379  -29.0192   20.0783 C   0  0  0  0  0  0
  -22.7484  -29.4779   22.4963 C   0  0  0  0  0  0
  -18.0412  -28.1366   22.8592 C   0  0  0  0  0  0
  -24.1460  -36.7223   23.2668 C   0  0  0  0  0  0
  -25.9346  -30.8248   21.3970 C   0  0  0  0  0  0
  -25.9908  -29.4636   20.7394 C   0  0  0  0  0  0
  -27.1583  -28.6587   20.7842 C   0  0  0  0  0  0
  -26.0723  -27.1024   19.2800 C   0  0  0  0  0  0
  -24.8807  -27.8420   19.3185 C   0  0  0  0  0  0
  -23.5998  -29.8859   20.1578 C   0  0  0  0  0  0
  -25.4124  -36.3047   24.0334 C   0  0  1  0  0  0
  -20.6034  -28.3746   23.1311 C   0  0  2  0  0  0
  -20.7016  -26.9532   22.5369 C   0  0  0  0  0  0
  -19.5879  -26.6391   21.5292 C   0  0  0  0  0  0
  -18.2070  -26.7896   22.1802 C   0  0  0  0  0  0
  -19.1660  -28.8907   23.2926 C   0  0  0  0  0  0
  -18.9439  -30.1537   23.8915 C   0  0  0  0  0  0
  -17.6395  -30.6593   24.0530 C   0  0  0  0  0  0
  -25.9046  -34.9430   23.5182 C   0  0  0  0  0  0
  -16.5339  -29.9040   23.6274 C   0  0  0  0  0  0
  -16.7374  -28.6435   23.0375 C   0  0  0  0  0  0
  -26.4482  -31.6557   25.0869 C   0  0  0  0  0  0
  -25.3735  -31.3607   26.1603 C   0  0  0  0  0  0
  -27.0420  -30.3062   24.6171 C   0  0  0  0  0  0
  -27.6103  -32.4230   25.7650 C   0  0  0  0  0  0
  -27.5609  -37.1718   24.8390 C   0  0  0  0  0  0
  -21.4254  -29.3115   22.3685 N   0  0  0  0  0  0
  -26.4343  -37.3684   23.9302 N   0  0  0  0  0  0
  -24.6705  -31.0852   22.1171 N   0  0  0  0  0  0
  -23.4214  -28.8460   23.3112 O   0  0  0  0  0  0
  -28.1519  -26.4750   20.2113 O   0  0  0  0  0  0
  -26.5439  -34.8801   22.4616 O   0  0  0  0  0  0
  -23.5469  -32.1592   23.7654 O   0  0  0  0  0  0
  -25.8107  -22.9698   17.1802 C   0  0  0  0  0  0
  -24.3060  -24.5159   18.2422 C   0  0  0  0  0  0
  -26.4669  -22.7730   18.4106 C   0  0  0  0  0  0
  -26.2361  -23.6800   19.4799 C   0  0  0  0  0  0
  -24.8718  -24.0118   17.0530 C   0  0  0  0  0  0
  -24.9645  -24.3104   19.4824 C   0  0  0  0  0  0
  -27.3937  -21.5775   18.5207 C   0  0  0  0  0  0
  -27.3462  -23.9427   20.5287 C   0  0  0  0  0  0
  -30.0898  -23.0418   17.1436 C   0  0  0  0  0  0
  -31.4839  -22.5487   17.5859 C   0  0  0  0  0  0
  -29.9325  -24.3401   16.3015 C   0  0  0  0  0  0
  -31.4724  -21.5382   18.7869 C   0  0  0  0  0  0
  -28.4156  -24.6242   16.1701 C   0  0  0  0  0  0
  -30.9307  -20.1006   18.5248 C   0  0  0  0  0  0
  -27.9803  -25.7836   15.2498 C   0  0  0  0  0  0
  -30.7045  -19.2533   19.8147 C   0  0  0  0  0  0
  -26.4377  -26.0269   15.1614 C   0  0  0  0  0  0
  -30.3079  -17.7633   19.6225 C   0  0  0  0  0  0
  -25.5760  -24.7852   14.8315 C   0  0  0  0  0  0
  -30.2114  -16.9821   20.9725 C   0  0  0  0  0  0
  -27.6739  -25.3899   21.0747 C   0  0  0  0  0  0
  -24.4961  -24.5258   15.7961 N   0  0  0  0  0  0
  -29.8659  -15.5582   20.8333 N   0  0  0  0  0  0
  -24.2581  -24.9722   20.9174 Cl  0  0  0  0  0  0
  -31.4568  -12.4612   19.1078 H   0  0  0  0  0  0
  -30.3549  -11.3258   19.8464 H   0  0  0  0  0  0
  -29.7335  -11.7426   17.4553 H   0  0  0  0  0  0
  -29.6023  -13.4540   17.7284 H   0  0  0  0  0  0
  -27.8373  -11.2892   18.8482 H   0  0  0  0  0  0
  -27.3392  -12.5733   17.7916 H   0  0  0  0  0  0
  -27.6772  -14.2306   19.5506 H   0  0  0  0  0  0
  -28.7046  -11.9936   21.3818 H   0  0  0  0  0  0
  -28.4520  -13.6453   21.8509 H   0  0  0  0  0  0
  -25.2710   -9.5822   22.4759 H   0  0  0  0  0  0
  -24.0040   -7.4686   22.7373 H   0  0  0  0  0  0
  -21.0836   -8.8732   19.8899 H   0  0  0  0  0  0
  -22.3544  -10.9741   19.6167 H   0  0  0  0  0  0
  -21.2019   -7.6147   23.9712 H   0  0  0  0  0  0
  -21.1478   -6.0531   25.9079 H   0  0  0  0  0  0
  -22.0589   -2.7589   23.2849 H   0  0  0  0  0  0
  -22.4141  -11.9815   22.4782 H   0  0  0  0  0  0
  -21.1132  -13.1156   22.2753 H   0  0  0  0  0  0
  -24.6581  -15.8299   20.5186 H   0  0  0  0  0  0
  -26.2750  -15.6255   20.0628 H   0  0  0  0  0  0
  -26.7319  -32.5571   23.1418 H   0  0  0  0  0  0
  -25.0133  -33.9717   25.0657 H   0  0  0  0  0  0
  -22.7069  -31.3493   21.4499 H   0  0  0  0  0  0
  -23.3756  -35.9504   23.3316 H   0  0  0  0  0  0
  -24.3456  -36.8910   22.2071 H   0  0  0  0  0  0
  -23.7265  -37.6426   23.6736 H   0  0  0  0  0  0
  -26.0759  -31.5912   20.6308 H   0  0  0  0  0  0
  -26.8194  -30.8509   22.0171 H   0  0  0  0  0  0
  -28.0077  -28.9596   21.3863 H   0  0  0  0  0  0
  -26.1669  -26.2570   18.6175 H   0  0  0  0  0  0
  -24.0220  -27.5433   18.7321 H   0  0  0  0  0  0
  -23.6877  -30.6716   19.3996 H   0  0  0  0  0  0
  -22.7157  -29.3009   19.8964 H   0  0  0  0  0  0
  -25.1388  -36.1987   25.0870 H   0  0  0  0  0  0
  -21.0181  -28.3252   24.1401 H   0  0  0  0  0  0
  -20.6223  -26.2394   23.3559 H   0  0  0  0  0  0
  -21.6857  -26.7672   22.0968 H   0  0  0  0  0  0
  -19.7035  -25.6202   21.1564 H   0  0  0  0  0  0
  -19.6838  -27.3039   20.6645 H   0  0  0  0  0  0
  -17.4278  -26.6637   21.4277 H   0  0  0  0  0  0
  -18.0517  -26.0050   22.9239 H   0  0  0  0  0  0
  -19.7829  -30.7540   24.2166 H   0  0  0  0  0  0
  -17.4792  -31.6257   24.5124 H   0  0  0  0  0  0
  -15.5296  -30.2918   23.7362 H   0  0  0  0  0  0
  -15.8814  -28.0722   22.7054 H   0  0  0  0  0  0
  -24.5810  -30.7152   25.7844 H   0  0  0  0  0  0
  -24.9148  -32.2763   26.5318 H   0  0  0  0  0  0
  -25.7950  -30.8603   27.0338 H   0  0  0  0  0  0
  -26.3109  -29.6752   24.1150 H   0  0  0  0  0  0
  -27.4240  -29.7262   25.4577 H   0  0  0  0  0  0
  -27.8831  -30.4418   23.9379 H   0  0  0  0  0  0
  -27.2736  -33.3295   26.2753 H   0  0  0  0  0  0
  -28.3725  -32.7167   25.0397 H   0  0  0  0  0  0
  -28.0945  -31.8059   26.5249 H   0  0  0  0  0  0
  -28.2618  -38.0044   24.7569 H   0  0  0  0  0  0
  -28.1186  -36.2603   24.6144 H   0  0  0  0  0  0
  -27.2252  -37.1324   25.8775 H   0  0  0  0  0  0
  -20.9323  -29.8667   21.6853 H   0  0  0  0  0  0
  -26.0239  -38.2777   24.1205 H   0  0  0  0  0  0
  -26.0841  -22.3655   16.3268 H   0  0  0  0  0  0
  -23.4433  -25.1596   18.2009 H   0  0  0  0  0  0
  -26.8173  -20.6556   18.4683 H   0  0  0  0  0  0
  -27.9627  -21.5359   19.4469 H   0  0  0  0  0  0
  -28.0676  -21.5431   17.6738 H   0  0  0  0  0  0
  -28.2835  -23.6065   20.0942 H   0  0  0  0  0  0
  -27.1679  -23.2727   21.3672 H   0  0  0  0  0  0
  -29.4939  -23.1694   18.0515 H   0  0  0  0  0  0
  -29.6511  -22.2563   16.5303 H   0  0  0  0  0  0
  -32.0613  -23.4212   17.9002 H   0  0  0  0  0  0
  -31.9948  -22.1152   16.7219 H   0  0  0  0  0  0
  -30.3836  -24.2212   15.3123 H   0  0  0  0  0  0
  -30.4232  -25.2039   16.7579 H   0  0  0  0  0  0
  -30.9533  -21.9768   19.6434 H   0  0  0  0  0  0
  -32.4969  -21.4250   19.1327 H   0  0  0  0  0  0
  -27.9959  -24.7999   17.1668 H   0  0  0  0  0  0
  -27.9778  -23.7120   15.7873 H   0  0  0  0  0  0
  -30.0211  -20.1649   17.9235 H   0  0  0  0  0  0
  -31.6695  -19.5747   17.9192 H   0  0  0  0  0  0
  -28.3605  -25.6098   14.2423 H   0  0  0  0  0  0
  -28.4658  -26.6959   15.5971 H   0  0  0  0  0  0
  -29.9978  -19.7733   20.4657 H   0  0  0  0  0  0
  -31.6355  -19.2289   20.3713 H   0  0  0  0  0  0
  -26.2693  -26.7554   14.3662 H   0  0  0  0  0  0
  -26.0625  -26.5146   16.0597 H   0  0  0  0  0  0
  -29.3470  -17.7241   19.1152 H   0  0  0  0  0  0
  -31.0170  -17.2674   18.9439 H   0  0  0  0  0  0
  -26.2107  -23.9097   14.7008 H   0  0  0  0  0  0
  -25.1207  -24.9606   13.8551 H   0  0  0  0  0  0
  -29.4530  -17.4388   21.6179 H   0  0  0  0  0  0
  -31.1428  -17.0656   21.5392 H   0  0  0  0  0  0
  -28.4735  -25.2421   21.8017 H   0  0  0  0  0  0
  -26.8443  -25.7203   21.7006 H   0  0  0  0  0  0
  -23.8208  -25.2880   15.8435 H   0  0  0  0  0  0
  -28.9000  -15.3211   21.0010 H   0  0  0  0  0  0
  1 25  1  0  0  0
  1 30  2  0  0  0
  1 93  1  0  0  0
  2  3  1  0  0  0
  2 25  1  0  0  0
  2 95  1  0  0  0
  2 96  1  0  0  0
  3  4  1  0  0  0
  3 97  1  0  0  0
  3 98  1  0  0  0
  4  5  1  0  0  0
  4 99  1  0  0  0
  4100  1  0  0  0
  5  6  1  0  0  0
  5 26  1  0  0  0
  5101  1  0  0  0
  6 25  1  0  0  0
  6102  1  0  0  0
  6103  1  0  0  0
  7  8  2  0  0  0
  7 26  1  0  0  0
  7 29  1  0  0  0
  8  9  1  0  0  0
  8 22  1  0  0  0
  9 10  1  0  0  0
  9 27  2  0  0  0
 10 11  2  0  0  0
 10 15  1  0  0  0
 11 12  1  0  0  0
 11104  1  0  0  0
 12 13  2  0  0  0
 12105  1  0  0  0
 13 14  1  0  0  0
 13 31  1  0  0  0
 14 15  2  0  0  0
 14106  1  0  0  0
 15107  1  0  0  0
 16 17  2  0  0  0
 16 21  1  0  0  0
 16 31  1  0  0  0
 17 18  1  0  0  0
 17108  1  0  0  0
 18 19  2  0  0  0
 18109  1  0  0  0
 19 20  1  0  0  0
 19 24  1  0  0  0
 20 21  2  0  0  0
 20110  1  0  0  0
 21 23  1  0  0  0
 22 28  1  0  0  0
 22 32  2  0  0  0
 26 27  1  0  0  0
 28111  1  0  0  0
 28112  1  0  0  0
 29113  1  0  0  0
 29114  1  0  0  0
 33 34  1  0  0  0
 33 66  1  0  0  0
 33 70  2  0  0  0
 34 36  1  0  0  0
 34 59  1  0  0  0
 34115  1  0  0  0
 35 44  2  0  0  0
 35 45  1  0  0  0
 35 68  1  0  0  0
 36 56  1  0  0  0
 36116  1  0  0  0
 37 39  1  0  0  0
 37 47  1  0  0  0
 37 66  1  0  0  0
 37117  1  0  0  0
 38 43  2  0  0  0
 38 46  1  0  0  0
 38 47  1  0  0  0
 39 64  1  0  0  0
 39 67  2  0  0  0
 40 52  1  0  0  0
 40 53  2  0  0  0
 40 58  1  0  0  0
 41118  1  0  0  0
 41119  1  0  0  0
 41120  1  0  0  0
 41 48  1  0  0  0
 42 43  1  0  0  0
 42 66  1  0  0  0
 42121  1  0  0  0
 42122  1  0  0  0
 43 44  1  0  0  0
 44123  1  0  0  0
 45 46  2  0  0  0
 45124  1  0  0  0
 46125  1  0  0  0
 47126  1  0  0  0
 47127  1  0  0  0
 48 56  1  0  0  0
 48 65  1  0  0  0
 48128  1  0  0  0
 49 50  1  0  0  0
 49 53  1  0  0  0
 49 64  1  0  0  0
 49129  1  0  0  0
 50 51  1  0  0  0
 50130  1  0  0  0
 50131  1  0  0  0
 51 52  1  0  0  0
 51132  1  0  0  0
 51133  1  0  0  0
 52134  1  0  0  0
 52135  1  0  0  0
 53 54  1  0  0  0
 54 55  2  0  0  0
 54136  1  0  0  0
 55 57  1  0  0  0
 55137  1  0  0  0
 56 69  2  0  0  0
 57 58  2  0  0  0
 57138  1  0  0  0
 58139  1  0  0  0
 59 60  1  0  0  0
 59 61  1  0  0  0
 59 62  1  0  0  0
 60140  1  0  0  0
 60141  1  0  0  0
 60142  1  0  0  0
 61143  1  0  0  0
 61144  1  0  0  0
 61145  1  0  0  0
 62146  1  0  0  0
 62147  1  0  0  0
 62148  1  0  0  0
 63 65  1  0  0  0
 63149  1  0  0  0
 63150  1  0  0  0
 63151  1  0  0  0
 64152  1  0  0  0
 65153  1  0  0  0
 68 91  1  0  0  0
 71 73  2  0  0  0
 71 75  1  0  0  0
 71154  1  0  0  0
 72 75  2  0  0  0
 72 76  1  0  0  0
 72155  1  0  0  0
 73 74  1  0  0  0
 73 77  1  0  0  0
 74 76  2  0  0  0
 74 78  1  0  0  0
 75 92  1  0  0  0
 76 94  1  0  0  0
 77156  1  0  0  0
 77157  1  0  0  0
 77158  1  0  0  0
 78 91  1  0  0  0
 78159  1  0  0  0
 78160  1  0  0  0
 79 80  1  0  0  0
 79 81  1  0  0  0
 79161  1  0  0  0
 79162  1  0  0  0
 80 82  1  0  0  0
 80163  1  0  0  0
 80164  1  0  0  0
 81 83  1  0  0  0
 81165  1  0  0  0
 81166  1  0  0  0
 82 84  1  0  0  0
 82167  1  0  0  0
 82168  1  0  0  0
 83 85  1  0  0  0
 83169  1  0  0  0
 83170  1  0  0  0
 84 86  1  0  0  0
 84171  1  0  0  0
 84172  1  0  0  0
 85 87  1  0  0  0
 85173  1  0  0  0
 85174  1  0  0  0
 86 88  1  0  0  0
 86175  1  0  0  0
 86176  1  0  0  0
 87 89  1  0  0  0
 87177  1  0  0  0
 87178  1  0  0  0
 88 90  1  0  0  0
 88179  1  0  0  0
 88180  1  0  0  0
 89 92  1  0  0  0
 89181  1  0  0  0
 89182  1  0  0  0
 90 93  1  0  0  0
 90183  1  0  0  0
 90184  1  0  0  0
 91185  1  0  0  0
 91186  1  0  0  0
 92187  1  0  0  0
 93188  1  0  0  0
M  ISO  4   1 100  68 101  91 101  93 100
M  END
> <chiral flag>
0

> <version>
0

> <s_m_source_file>
/data/baiqing/PycharmProjects/Reinvent-master-3.2/result/LINK_invent/BTK/process_docking_weight1_custom_sum_contain_oxygen_bond_distance_aromatic_linkinvent_7_9_3/rearranged_h_0034.sdf

> <i_m_source_file_index>
63

> <r_mmod_Potential_Energy-OPLS-2005>
183.093566894531

> <r_mmod_Stretch_Energy-OPLS-2005>
52.9921760559082

> <r_mmod_Bend_Energy-OPLS-2005>
157.288284301758

> <r_mmod_Torsional_Energy-OPLS-2005>
335.754364013672

> <r_mmod_Improper_Torsional_Energy-OPLS-2005>
9.58850955963135

> <r_mmod_Van_der_Waal_Energy-OPLS-2005>
142.109252929688

> <r_mmod_Electrostatic_Energy-OPLS-2005>
-355.344848632812

> <r_mmod_Solvation_Energy-OPLS-2005>
-211.614151000977

> <b_mmod_Minimization_Converged-OPLS-2005>
0

> <r_mmod_RMS_Derivative-OPLS-2005>
13.0550127029419

$$$$
64
                    3D
 Structure written by MMmdl.
166175  0  0  1  0            999 V2000
  -30.6921  -14.4995   20.6162 C   0  0  0  0  0  0
  -30.4305  -12.3468   19.4125 C   0  0  0  0  0  0
  -29.4920  -12.5111   18.1998 C   0  0  0  0  0  0
  -28.0153  -12.3616   18.6163 C   0  0  0  0  0  0
  -27.6574  -13.2072   19.8679 C   0  0  2  0  0  0
  -28.6985  -12.9947   20.9870 C   0  0  0  0  0  0
  -25.2569  -13.8156   20.5656 C   0  0  0  0  0  0
  -24.1826  -13.0430   20.9163 C   0  0  0  0  0  0
  -24.6384  -11.6900   20.8719 C   0  0  0  0  0  0
  -23.9057  -10.4283   21.0396 C   0  0  0  0  0  0
  -24.3615   -9.4203   21.9180 C   0  0  0  0  0  0
  -23.6290   -8.2237   22.0750 C   0  0  0  0  0  0
  -22.4274   -8.0275   21.3543 C   0  0  0  0  0  0
  -21.9904   -9.0245   20.4643 C   0  0  0  0  0  0
  -22.7228  -10.2125   20.3048 C   0  0  0  0  0  0
  -21.6855   -6.0729   22.5274 C   0  0  0  0  0  0
  -21.4008   -6.5635   23.8206 C   0  0  0  0  0  0
  -21.3659   -5.6787   24.9172 C   0  0  0  0  0  0
  -21.6045   -4.3049   24.7220 C   0  0  0  0  0  0
  -21.8827   -3.8142   23.4343 C   0  0  0  0  0  0
  -21.9192   -4.6955   22.3397 C   0  0  0  0  0  0
  -22.7854  -13.5227   21.1838 C   0  0  0  0  0  0
  -22.1663   -4.2138   21.0974 F   0  0  0  0  0  0
  -21.5634   -3.4536   25.7736 F   0  0  0  0  0  0
  -30.0225  -13.3263   20.4341 N   0  0  0  0  0  0
  -26.3003  -12.9326   20.3326 N   0  0  0  0  0  0
  -25.9309  -11.6489   20.5749 N   0  0  0  0  0  0
  -22.0509  -12.8216   22.0399 N   0  0  0  0  0  0
  -25.4305  -15.1873   20.4065 N   0  0  0  0  0  0
  -31.8155  -14.7015   20.1451 O   0  0  0  0  0  0
  -21.6643   -6.8870   21.4240 O   0  0  0  0  0  0
  -22.3532  -14.5537   20.6694 O   0  0  0  0  0  0
  -24.6171  -31.8655   23.2033 C   0  0  0  0  0  0
  -25.9069  -32.4802   23.8337 C   0  0  1  0  0  0
  -27.2393  -27.3969   20.1093 C   0  0  0  0  0  0
  -25.5966  -33.8604   24.2289 N   0  0  0  0  0  0
  -23.4069  -30.4871   21.5431 C   0  0  2  0  0  0
  -24.8499  -28.9366   20.1189 C   0  0  0  0  0  0
  -22.7429  -29.4653   22.4932 C   0  0  0  0  0  0
  -18.0294  -28.1396   22.8493 C   0  0  0  0  0  0
  -24.1498  -36.7269   23.2639 C   0  0  0  0  0  0
  -25.9342  -30.8187   21.3575 C   0  0  0  0  0  0
  -26.0086  -29.4473   20.7121 C   0  0  0  0  0  0
  -27.2003  -28.6875   20.6944 C   0  0  0  0  0  0
  -26.0532  -26.8959   19.5302 C   0  0  0  0  0  0
  -24.8675  -27.6626   19.5250 C   0  0  0  0  0  0
  -23.6184  -29.8155   20.1578 C   0  0  0  0  0  0
  -25.4120  -36.3068   24.0327 C   0  0  1  0  0  0
  -20.5887  -28.3686   23.1286 C   0  0  2  0  0  0
  -20.6780  -26.9412   22.5412 C   0  0  0  0  0  0
  -19.5760  -26.6391   21.5211 C   0  0  0  0  0  0
  -18.1935  -26.7947   22.1615 C   0  0  0  0  0  0
  -19.1546  -28.8855   23.2900 C   0  0  0  0  0  0
  -18.9486  -30.1463   23.8911 C   0  0  0  0  0  0
  -17.6492  -30.6607   24.0580 C   0  0  0  0  0  0
  -25.9065  -34.9464   23.5087 C   0  0  0  0  0  0
  -16.5379  -29.9114   23.6336 C   0  0  0  0  0  0
  -16.7288  -28.6533   23.0344 C   0  0  0  0  0  0
  -26.4499  -31.6599   25.0678 C   0  0  0  0  0  0
  -25.3771  -31.3725   26.1430 C   0  0  0  0  0  0
  -27.0325  -30.3057   24.6026 C   0  0  0  0  0  0
  -27.6042  -32.4334   25.7468 C   0  0  0  0  0  0
  -27.5579  -37.1772   24.8476 C   0  0  0  0  0  0
  -21.4152  -29.3047   22.3682 N   0  0  0  0  0  0
  -26.4284  -37.3768   23.9434 N   0  0  0  0  0  0
  -24.6709  -31.0752   22.0934 N   0  0  0  0  0  0
  -23.4190  -28.8198   23.2980 O   0  0  0  0  0  0
  -28.4656  -26.7476   20.0900 O   0  0  0  0  0  0
  -26.5596  -34.8928   22.4626 O   0  0  0  0  0  0
  -23.5364  -32.1417   23.7421 O   0  0  0  0  0  0
  -28.9214  -20.9310   20.1169 C   0  0  0  0  0  0
  -28.3541  -20.8645   22.4690 C   0  0  0  0  0  0
  -28.7061  -22.3377   20.0946 C   0  0  0  0  0  0
  -28.2882  -23.0168   21.2712 C   0  0  0  0  0  0
  -28.7398  -20.1740   21.2992 C   0  0  0  0  0  0
  -28.1178  -22.2605   22.4618 C   0  0  0  0  0  0
  -28.9587  -23.1050   18.7929 C   0  0  0  0  0  0
  -28.0099  -24.5388   21.2592 C   0  0  0  0  0  0
  -28.4810  -24.5795   18.7766 C   0  0  0  0  0  0
  -28.7122  -25.3156   20.1171 C   0  0  1  0  0  0
  -27.6584  -22.9256   23.7498 C   0  0  0  0  0  0
  -30.2270  -25.3590   20.4188 C   0  0  0  0  0  0
  -28.8742  -18.6323   21.3301 C   0  0  0  0  0  0
  -30.3095  -18.0538   21.1908 C   0  0  0  0  0  0
  -30.5945  -16.6858   21.8937 C   0  0  0  0  0  0
  -30.0240  -15.4626   21.2906 N   0  0  0  0  0  0
  -31.4684  -12.4789   19.1021 H   0  0  0  0  0  0
  -30.3685  -11.3359   19.8173 H   0  0  0  0  0  0
  -29.7386  -11.7769   17.4318 H   0  0  0  0  0  0
  -29.6451  -13.4915   17.7450 H   0  0  0  0  0  0
  -27.8336  -11.3056   18.8185 H   0  0  0  0  0  0
  -27.3616  -12.6262   17.7840 H   0  0  0  0  0  0
  -27.6972  -14.2544   19.5662 H   0  0  0  0  0  0
  -28.6919  -11.9546   21.3160 H   0  0  0  0  0  0
  -28.4453  -13.5795   21.8718 H   0  0  0  0  0  0
  -25.2771   -9.5672   22.4742 H   0  0  0  0  0  0
  -23.9998   -7.4626   22.7464 H   0  0  0  0  0  0
  -21.0841   -8.8759   19.8945 H   0  0  0  0  0  0
  -22.3698  -10.9660   19.6141 H   0  0  0  0  0  0
  -21.2000   -7.6142   23.9702 H   0  0  0  0  0  0
  -21.1474   -6.0521   25.9070 H   0  0  0  0  0  0
  -22.0609   -2.7602   23.2847 H   0  0  0  0  0  0
  -22.4140  -11.9875   22.4780 H   0  0  0  0  0  0
  -21.1124  -13.1230   22.2617 H   0  0  0  0  0  0
  -24.6652  -15.8452   20.5080 H   0  0  0  0  0  0
  -26.2871  -15.6237   20.0898 H   0  0  0  0  0  0
  -26.7118  -32.5504   23.1067 H   0  0  0  0  0  0
  -25.0253  -33.9758   25.0527 H   0  0  0  0  0  0
  -22.6965  -31.3040   21.3963 H   0  0  0  0  0  0
  -23.3768  -35.9599   23.3337 H   0  0  0  0  0  0
  -24.3591  -36.8853   22.2048 H   0  0  0  0  0  0
  -23.7240  -37.6471   23.6643 H   0  0  0  0  0  0
  -26.0481  -31.5784   20.5821 H   0  0  0  0  0  0
  -26.8216  -30.8734   21.9769 H   0  0  0  0  0  0
  -28.1008  -29.0878   21.1366 H   0  0  0  0  0  0
  -26.0152  -25.9276   19.0641 H   0  0  0  0  0  0
  -23.9760  -27.2611   19.0637 H   0  0  0  0  0  0
  -23.7424  -30.5901   19.4000 H   0  0  0  0  0  0
  -22.7387  -29.2458   19.8524 H   0  0  0  0  0  0
  -25.1290  -36.1885   25.0815 H   0  0  0  0  0  0
  -21.0000  -28.3246   24.1397 H   0  0  0  0  0  0
  -20.5690  -26.2288   23.3602 H   0  0  0  0  0  0
  -21.6642  -26.7451   22.1195 H   0  0  0  0  0  0
  -19.6941  -25.6297   21.1243 H   0  0  0  0  0  0
  -19.6715  -27.3203   20.6746 H   0  0  0  0  0  0
  -17.4204  -26.6719   21.4016 H   0  0  0  0  0  0
  -18.0346  -26.0062   22.8990 H   0  0  0  0  0  0
  -19.7966  -30.7274   24.2269 H   0  0  0  0  0  0
  -17.5060  -31.6281   24.5182 H   0  0  0  0  0  0
  -15.5384  -30.3046   23.7643 H   0  0  0  0  0  0
  -15.8683  -28.0876   22.7044 H   0  0  0  0  0  0
  -24.5958  -30.7066   25.7779 H   0  0  0  0  0  0
  -24.8967  -32.2896   26.4853 H   0  0  0  0  0  0
  -25.8123  -30.8921   27.0209 H   0  0  0  0  0  0
  -26.2849  -29.6802   24.1140 H   0  0  0  0  0  0
  -27.4208  -29.7299   25.4437 H   0  0  0  0  0  0
  -27.8634  -30.4418   23.9095 H   0  0  0  0  0  0
  -27.2650  -33.3649   26.2023 H   0  0  0  0  0  0
  -28.3877  -32.6884   25.0319 H   0  0  0  0  0  0
  -28.0698  -31.8489   26.5409 H   0  0  0  0  0  0
  -28.2558  -38.0102   24.7519 H   0  0  0  0  0  0
  -28.1090  -36.2613   24.6282 H   0  0  0  0  0  0
  -27.2295  -37.1387   25.8877 H   0  0  0  0  0  0
  -20.9313  -29.8787   21.6912 H   0  0  0  0  0  0
  -26.0155  -38.2831   24.1471 H   0  0  0  0  0  0
  -29.2177  -20.4206   19.2110 H   0  0  0  0  0  0
  -28.2091  -20.3092   23.3861 H   0  0  0  0  0  0
  -28.4962  -22.5675   17.9644 H   0  0  0  0  0  0
  -30.0334  -23.0806   18.6034 H   0  0  0  0  0  0
  -28.3080  -24.9831   22.2090 H   0  0  0  0  0  0
  -26.9313  -24.6724   21.1890 H   0  0  0  0  0  0
  -27.4219  -24.5538   18.5451 H   0  0  0  0  0  0
  -28.9501  -25.1154   17.9512 H   0  0  0  0  0  0
  -27.4947  -22.1986   24.5461 H   0  0  0  0  0  0
  -26.7193  -23.4567   23.5929 H   0  0  0  0  0  0
  -28.4006  -23.6395   24.1061 H   0  0  0  0  0  0
  -30.6697  -24.3664   20.5056 H   0  0  0  0  0  0
  -30.4273  -25.8707   21.3613 H   0  0  0  0  0  0
  -30.7695  -25.8946   19.6395 H   0  0  0  0  0  0
  -28.2374  -18.2005   20.5571 H   0  0  0  0  0  0
  -28.4526  -18.2826   22.2735 H   0  0  0  0  0  0
  -30.9843  -18.7696   21.6632 H   0  0  0  0  0  0
  -30.6133  -18.0238   20.1442 H   0  0  0  0  0  0
  -30.2326  -16.7378   22.9227 H   0  0  0  0  0  0
  -31.6757  -16.5588   21.9876 H   0  0  0  0  0  0
  -29.0872  -15.2177   21.5751 H   0  0  0  0  0  0
  1 25  1  0  0  0
  1 30  2  0  0  0
  1 86  1  0  0  0
  2  3  1  0  0  0
  2 25  1  0  0  0
  2 87  1  0  0  0
  2 88  1  0  0  0
  3  4  1  0  0  0
  3 89  1  0  0  0
  3 90  1  0  0  0
  4  5  1  0  0  0
  4 91  1  0  0  0
  4 92  1  0  0  0
  5  6  1  0  0  0
  5 26  1  0  0  0
  5 93  1  0  0  0
  6 25  1  0  0  0
  6 94  1  0  0  0
  6 95  1  0  0  0
  7  8  2  0  0  0
  7 26  1  0  0  0
  7 29  1  0  0  0
  8  9  1  0  0  0
  8 22  1  0  0  0
  9 10  1  0  0  0
  9 27  2  0  0  0
 10 11  2  0  0  0
 10 15  1  0  0  0
 11 12  1  0  0  0
 11 96  1  0  0  0
 12 13  2  0  0  0
 12 97  1  0  0  0
 13 14  1  0  0  0
 13 31  1  0  0  0
 14 15  2  0  0  0
 14 98  1  0  0  0
 15 99  1  0  0  0
 16 17  2  0  0  0
 16 21  1  0  0  0
 16 31  1  0  0  0
 17 18  1  0  0  0
 17100  1  0  0  0
 18 19  2  0  0  0
 18101  1  0  0  0
 19 20  1  0  0  0
 19 24  1  0  0  0
 20 21  2  0  0  0
 20102  1  0  0  0
 21 23  1  0  0  0
 22 28  1  0  0  0
 22 32  2  0  0  0
 26 27  1  0  0  0
 28103  1  0  0  0
 28104  1  0  0  0
 29105  1  0  0  0
 29106  1  0  0  0
 33 34  1  0  0  0
 33 66  1  0  0  0
 33 70  2  0  0  0
 34 36  1  0  0  0
 34 59  1  0  0  0
 34107  1  0  0  0
 35 44  2  0  0  0
 35 45  1  0  0  0
 35 68  1  0  0  0
 36 56  1  0  0  0
 36108  1  0  0  0
 37 39  1  0  0  0
 37 47  1  0  0  0
 37 66  1  0  0  0
 37109  1  0  0  0
 38 43  2  0  0  0
 38 46  1  0  0  0
 38 47  1  0  0  0
 39 64  1  0  0  0
 39 67  2  0  0  0
 40 52  1  0  0  0
 40 53  2  0  0  0
 40 58  1  0  0  0
 41110  1  0  0  0
 41111  1  0  0  0
 41112  1  0  0  0
 41 48  1  0  0  0
 42 43  1  0  0  0
 42 66  1  0  0  0
 42113  1  0  0  0
 42114  1  0  0  0
 43 44  1  0  0  0
 44115  1  0  0  0
 45 46  2  0  0  0
 45116  1  0  0  0
 46117  1  0  0  0
 47118  1  0  0  0
 47119  1  0  0  0
 48 56  1  0  0  0
 48 65  1  0  0  0
 48120  1  0  0  0
 49 50  1  0  0  0
 49 53  1  0  0  0
 49 64  1  0  0  0
 49121  1  0  0  0
 50 51  1  0  0  0
 50122  1  0  0  0
 50123  1  0  0  0
 51 52  1  0  0  0
 51124  1  0  0  0
 51125  1  0  0  0
 52126  1  0  0  0
 52127  1  0  0  0
 53 54  1  0  0  0
 54 55  2  0  0  0
 54128  1  0  0  0
 55 57  1  0  0  0
 55129  1  0  0  0
 56 69  2  0  0  0
 57 58  2  0  0  0
 57130  1  0  0  0
 58131  1  0  0  0
 59 60  1  0  0  0
 59 61  1  0  0  0
 59 62  1  0  0  0
 60132  1  0  0  0
 60133  1  0  0  0
 60134  1  0  0  0
 61135  1  0  0  0
 61136  1  0  0  0
 61137  1  0  0  0
 62138  1  0  0  0
 62139  1  0  0  0
 62140  1  0  0  0
 63 65  1  0  0  0
 63141  1  0  0  0
 63142  1  0  0  0
 63143  1  0  0  0
 64144  1  0  0  0
 65145  1  0  0  0
 68 80  1  0  0  0
 71 73  2  0  0  0
 71 75  1  0  0  0
 71146  1  0  0  0
 72 75  2  0  0  0
 72 76  1  0  0  0
 72147  1  0  0  0
 73 74  1  0  0  0
 73 77  1  0  0  0
 74 76  2  0  0  0
 74 78  1  0  0  0
 75 83  1  0  0  0
 76 81  1  0  0  0
 77 79  1  0  0  0
 77148  1  0  0  0
 77149  1  0  0  0
 78 80  1  0  0  0
 78150  1  0  0  0
 78151  1  0  0  0
 79 80  1  0  0  0
 79152  1  0  0  0
 79153  1  0  0  0
 80 82  1  0  0  0
 81154  1  0  0  0
 81155  1  0  0  0
 81156  1  0  0  0
 82157  1  0  0  0
 82158  1  0  0  0
 82159  1  0  0  0
 83 84  1  0  0  0
 83160  1  0  0  0
 83161  1  0  0  0
 84 85  1  0  0  0
 84162  1  0  0  0
 84163  1  0  0  0
 85 86  1  0  0  0
 85164  1  0  0  0
 85165  1  0  0  0
 86166  1  0  0  0
M  ISO  4   1 100  68 101  80 101  86 100
M  END
> <chiral flag>
0

> <version>
0

> <s_m_source_file>
/data/baiqing/PycharmProjects/Reinvent-master-3.2/result/LINK_invent/BTK/process_docking_weight1_custom_sum_contain_oxygen_bond_distance_aromatic_linkinvent_7_9_3/rearranged_h_0034.sdf

> <i_m_source_file_index>
64

> <r_mmod_Potential_Energy-OPLS-2005>
-30.106351852417

> <r_mmod_Stretch_Energy-OPLS-2005>
47.6723022460938

> <r_mmod_Bend_Energy-OPLS-2005>
144.50114440918

> <r_mmod_Torsional_Energy-OPLS-2005>
212.342636108398

> <r_mmod_Improper_Torsional_Energy-OPLS-2005>
2.64153575897217

> <r_mmod_Van_der_Waal_Energy-OPLS-2005>
149.976043701172

> <r_mmod_Electrostatic_Energy-OPLS-2005>
-403.798187255859

> <r_mmod_Solvation_Energy-OPLS-2005>
-200.376022338867

> <b_mmod_Minimization_Converged-OPLS-2005>
0

> <r_mmod_RMS_Derivative-OPLS-2005>
2.74698090553284

$$$$
65
                    3D
 Structure written by MMmdl.
162170  0  0  1  0            999 V2000
  -30.7426  -14.3972   20.6640 C   0  0  0  0  0  0
  -30.4229  -12.3016   19.3959 C   0  0  0  0  0  0
  -29.4862  -12.5197   18.1921 C   0  0  0  0  0  0
  -28.0102  -12.3742   18.6105 C   0  0  0  0  0  0
  -27.6651  -13.2009   19.8771 C   0  0  2  0  0  0
  -28.7039  -12.9451   20.9902 C   0  0  0  0  0  0
  -25.2608  -13.8150   20.5671 C   0  0  0  0  0  0
  -24.1848  -13.0438   20.9164 C   0  0  0  0  0  0
  -24.6388  -11.6900   20.8726 C   0  0  0  0  0  0
  -23.9054  -10.4292   21.0402 C   0  0  0  0  0  0
  -24.3607   -9.4209   21.9182 C   0  0  0  0  0  0
  -23.6285   -8.2245   22.0755 C   0  0  0  0  0  0
  -22.4270   -8.0279   21.3543 C   0  0  0  0  0  0
  -21.9902   -9.0252   20.4646 C   0  0  0  0  0  0
  -22.7228  -10.2133   20.3052 C   0  0  0  0  0  0
  -21.6852   -6.0733   22.5278 C   0  0  0  0  0  0
  -21.4013   -6.5638   23.8210 C   0  0  0  0  0  0
  -21.3658   -5.6792   24.9174 C   0  0  0  0  0  0
  -21.6046   -4.3054   24.7227 C   0  0  0  0  0  0
  -21.8819   -3.8145   23.4347 C   0  0  0  0  0  0
  -21.9192   -4.6961   22.3402 C   0  0  0  0  0  0
  -22.7873  -13.5244   21.1832 C   0  0  0  0  0  0
  -22.1661   -4.2147   21.0980 F   0  0  0  0  0  0
  -21.5630   -3.4538   25.7739 F   0  0  0  0  0  0
  -30.0415  -13.2537   20.4492 N   0  0  0  0  0  0
  -26.3039  -12.9309   20.3364 N   0  0  0  0  0  0
  -25.9311  -11.6473   20.5751 N   0  0  0  0  0  0
  -22.0509  -12.8240   22.0386 N   0  0  0  0  0  0
  -25.4356  -15.1866   20.4084 N   0  0  0  0  0  0
  -31.8061  -14.6593   20.0947 O   0  0  0  0  0  0
  -21.6636   -6.8875   21.4240 O   0  0  0  0  0  0
  -22.3564  -14.5555   20.6686 O   0  0  0  0  0  0
  -24.6137  -31.8694   23.2114 C   0  0  0  0  0  0
  -25.9034  -32.4831   23.8410 C   0  0  1  0  0  0
  -27.2366  -27.4387   20.0888 C   0  0  0  0  0  0
  -25.5884  -33.8630   24.2334 N   0  0  0  0  0  0
  -23.4010  -30.4927   21.5531 C   0  0  2  0  0  0
  -24.8448  -28.9567   20.1214 C   0  0  0  0  0  0
  -22.7412  -29.4660   22.5014 C   0  0  0  0  0  0
  -18.0268  -28.1375   22.8492 C   0  0  0  0  0  0
  -24.1487  -36.7320   23.2637 C   0  0  0  0  0  0
  -25.9300  -30.8337   21.3656 C   0  0  0  0  0  0
  -26.0055  -29.4682   20.7132 C   0  0  0  0  0  0
  -27.2018  -28.7169   20.6917 C   0  0  0  0  0  0
  -26.0519  -26.9391   19.4966 C   0  0  0  0  0  0
  -24.8623  -27.6905   19.5138 C   0  0  0  0  0  0
  -23.6085  -29.8247   20.1686 C   0  0  0  0  0  0
  -25.4105  -36.3118   24.0338 C   0  0  1  0  0  0
  -20.5860  -28.3655   23.1331 C   0  0  2  0  0  0
  -20.6765  -26.9397   22.5420 C   0  0  0  0  0  0
  -19.5741  -26.6386   21.5217 C   0  0  0  0  0  0
  -18.1915  -26.7919   22.1624 C   0  0  0  0  0  0
  -19.1518  -28.8832   23.2905 C   0  0  0  0  0  0
  -18.9451  -30.1440   23.8915 C   0  0  0  0  0  0
  -17.6457  -30.6584   24.0564 C   0  0  0  0  0  0
  -25.9030  -34.9483   23.5137 C   0  0  0  0  0  0
  -16.5346  -29.9087   23.6327 C   0  0  0  0  0  0
  -16.7258  -28.6504   23.0346 C   0  0  0  0  0  0
  -26.4461  -31.6610   25.0738 C   0  0  0  0  0  0
  -25.3725  -31.3715   26.1492 C   0  0  0  0  0  0
  -27.0291  -30.3051   24.6111 C   0  0  0  0  0  0
  -27.6038  -32.4330   25.7500 C   0  0  0  0  0  0
  -27.5583  -37.1815   24.8463 C   0  0  0  0  0  0
  -21.4142  -29.3028   22.3752 N   0  0  0  0  0  0
  -26.4298  -37.3797   23.9404 N   0  0  0  0  0  0
  -24.6665  -31.0798   22.1015 N   0  0  0  0  0  0
  -23.4196  -28.8201   23.3045 O   0  0  0  0  0  0
  -28.4386  -26.7582   20.0605 O   0  0  0  0  0  0
  -26.5604  -34.8929   22.4704 O   0  0  0  0  0  0
  -23.5331  -32.1455   23.7511 O   0  0  0  0  0  0
  -27.8822  -19.7623   21.9034 C   0  0  0  0  0  0
  -29.0730  -21.9397   20.5981 C   0  0  0  0  0  0
  -27.4421  -21.0731   22.1845 C   0  0  0  0  0  0
  -28.9027  -19.5219   20.9616 C   0  0  0  0  0  0
  -28.0403  -22.1838   21.5333 C   0  0  0  0  0  0
  -29.4980  -20.6255   20.3054 C   0  0  0  0  0  0
  -26.3107  -21.2547   23.1842 C   0  0  0  0  0  0
  -29.2992  -18.0778   20.6529 C   0  0  0  0  0  0
  -27.5355  -23.6034   21.8303 C   0  0  0  0  0  0
  -30.7143  -17.6853   21.1343 C   0  0  0  0  0  0
  -28.4692  -24.7978   21.5287 C   0  0  0  0  0  0
  -30.7825  -16.4687   22.0839 C   0  0  0  0  0  0
  -28.4473  -25.3232   20.0781 C   0  0  0  0  0  0
  -30.1909  -15.2410   21.5478 N   0  0  0  0  0  0
  -30.7402  -20.3972   19.1250 Cl  0  0  0  0  0  0
  -31.4643  -12.4137   19.0888 H   0  0  0  0  0  0
  -30.3345  -11.2807   19.7703 H   0  0  0  0  0  0
  -29.7209  -11.8078   17.3999 H   0  0  0  0  0  0
  -29.6525  -13.5125   17.7712 H   0  0  0  0  0  0
  -27.8207  -11.3162   18.7967 H   0  0  0  0  0  0
  -27.3555  -12.6585   17.7861 H   0  0  0  0  0  0
  -27.7225  -14.2541   19.6012 H   0  0  0  0  0  0
  -28.6750  -11.8988   21.2979 H   0  0  0  0  0  0
  -28.4495  -13.5098   21.8871 H   0  0  0  0  0  0
  -25.2752   -9.5688   22.4753 H   0  0  0  0  0  0
  -23.9995   -7.4639   22.7475 H   0  0  0  0  0  0
  -21.0835   -8.8768   19.8950 H   0  0  0  0  0  0
  -22.3687  -10.9669   19.6159 H   0  0  0  0  0  0
  -21.2003   -7.6146   23.9714 H   0  0  0  0  0  0
  -21.1481   -6.0521   25.9077 H   0  0  0  0  0  0
  -22.0600   -2.7607   23.2848 H   0  0  0  0  0  0
  -22.4114  -11.9895   22.4770 H   0  0  0  0  0  0
  -21.1126  -13.1271   22.2583 H   0  0  0  0  0  0
  -24.6740  -15.8471   20.5192 H   0  0  0  0  0  0
  -26.2947  -15.6211   20.0952 H   0  0  0  0  0  0
  -26.7106  -32.5549   23.1178 H   0  0  0  0  0  0
  -25.0021  -33.9788   25.0473 H   0  0  0  0  0  0
  -22.6888  -31.3089   21.4154 H   0  0  0  0  0  0
  -23.3746  -35.9656   23.3314 H   0  0  0  0  0  0
  -24.3578  -36.8921   22.2047 H   0  0  0  0  0  0
  -23.7249  -37.6530   23.6649 H   0  0  0  0  0  0
  -26.0453  -31.6005   20.5983 H   0  0  0  0  0  0
  -26.8167  -30.8852   21.9860 H   0  0  0  0  0  0
  -28.1021  -29.1134   21.1407 H   0  0  0  0  0  0
  -26.0201  -25.9884   18.9885 H   0  0  0  0  0  0
  -23.9704  -27.2927   19.0495 H   0  0  0  0  0  0
  -23.7175  -30.5998   19.4093 H   0  0  0  0  0  0
  -22.7320  -29.2442   19.8737 H   0  0  0  0  0  0
  -25.1283  -36.1992   25.0830 H   0  0  0  0  0  0
  -20.9941  -28.3222   24.1456 H   0  0  0  0  0  0
  -20.5691  -26.2258   23.3600 H   0  0  0  0  0  0
  -21.6633  -26.7459   22.1196 H   0  0  0  0  0  0
  -19.6910  -25.6308   21.1221 H   0  0  0  0  0  0
  -19.6684  -27.3220   20.6767 H   0  0  0  0  0  0
  -17.4190  -26.6672   21.4019 H   0  0  0  0  0  0
  -18.0307  -26.0061   22.9021 H   0  0  0  0  0  0
  -19.7935  -30.7236   24.2299 H   0  0  0  0  0  0
  -17.5019  -31.6266   24.5159 H   0  0  0  0  0  0
  -15.5346  -30.2992   23.7649 H   0  0  0  0  0  0
  -15.8657  -28.0830   22.7053 H   0  0  0  0  0  0
  -24.5884  -30.7081   25.7832 H   0  0  0  0  0  0
  -24.8930  -32.2864   26.4974 H   0  0  0  0  0  0
  -25.8070  -30.8860   27.0239 H   0  0  0  0  0  0
  -26.2842  -29.6823   24.1143 H   0  0  0  0  0  0
  -27.4039  -29.7278   25.4572 H   0  0  0  0  0  0
  -27.8686  -30.4370   23.9282 H   0  0  0  0  0  0
  -27.2653  -33.3616   26.2113 H   0  0  0  0  0  0
  -28.3822  -32.6916   25.0310 H   0  0  0  0  0  0
  -28.0734  -31.8438   26.5385 H   0  0  0  0  0  0
  -28.2605  -38.0110   24.7502 H   0  0  0  0  0  0
  -28.1073  -36.2638   24.6299 H   0  0  0  0  0  0
  -27.2294  -37.1471   25.8866 H   0  0  0  0  0  0
  -20.9318  -29.8758   21.6974 H   0  0  0  0  0  0
  -26.0195  -38.2881   24.1396 H   0  0  0  0  0  0
  -27.4153  -18.9250   22.4043 H   0  0  0  0  0  0
  -29.5488  -22.7558   20.0774 H   0  0  0  0  0  0
  -25.8343  -20.3040   23.4250 H   0  0  0  0  0  0
  -25.5370  -21.9117   22.7864 H   0  0  0  0  0  0
  -26.6852  -21.6829   24.1143 H   0  0  0  0  0  0
  -29.2265  -17.9232   19.5756 H   0  0  0  0  0  0
  -28.5556  -17.4072   21.0844 H   0  0  0  0  0  0
  -27.3250  -23.6538   22.8987 H   0  0  0  0  0  0
  -26.5740  -23.7472   21.3360 H   0  0  0  0  0  0
  -31.1761  -18.5339   21.6413 H   0  0  0  0  0  0
  -31.3453  -17.5010   20.2637 H   0  0  0  0  0  0
  -29.4894  -24.5978   21.8589 H   0  0  0  0  0  0
  -28.1244  -25.6134   22.1653 H   0  0  0  0  0  0
  -30.2676  -16.7092   23.0150 H   0  0  0  0  0  0
  -31.8212  -16.2761   22.3590 H   0  0  0  0  0  0
  -27.6522  -24.8606   19.4990 H   0  0  0  0  0  0
  -29.3629  -25.0080   19.5784 H   0  0  0  0  0  0
  -29.3172  -14.9402   21.9546 H   0  0  0  0  0  0
  1 25  1  0  0  0
  1 30  2  0  0  0
  1 84  1  0  0  0
  2  3  1  0  0  0
  2 25  1  0  0  0
  2 86  1  0  0  0
  2 87  1  0  0  0
  3  4  1  0  0  0
  3 88  1  0  0  0
  3 89  1  0  0  0
  4  5  1  0  0  0
  4 90  1  0  0  0
  4 91  1  0  0  0
  5  6  1  0  0  0
  5 26  1  0  0  0
  5 92  1  0  0  0
  6 25  1  0  0  0
  6 93  1  0  0  0
  6 94  1  0  0  0
  7  8  2  0  0  0
  7 26  1  0  0  0
  7 29  1  0  0  0
  8  9  1  0  0  0
  8 22  1  0  0  0
  9 10  1  0  0  0
  9 27  2  0  0  0
 10 11  2  0  0  0
 10 15  1  0  0  0
 11 12  1  0  0  0
 11 95  1  0  0  0
 12 13  2  0  0  0
 12 96  1  0  0  0
 13 14  1  0  0  0
 13 31  1  0  0  0
 14 15  2  0  0  0
 14 97  1  0  0  0
 15 98  1  0  0  0
 16 17  2  0  0  0
 16 21  1  0  0  0
 16 31  1  0  0  0
 17 18  1  0  0  0
 17 99  1  0  0  0
 18 19  2  0  0  0
 18100  1  0  0  0
 19 20  1  0  0  0
 19 24  1  0  0  0
 20 21  2  0  0  0
 20101  1  0  0  0
 21 23  1  0  0  0
 22 28  1  0  0  0
 22 32  2  0  0  0
 26 27  1  0  0  0
 28102  1  0  0  0
 28103  1  0  0  0
 29104  1  0  0  0
 29105  1  0  0  0
 33 34  1  0  0  0
 33 66  1  0  0  0
 33 70  2  0  0  0
 34 36  1  0  0  0
 34 59  1  0  0  0
 34106  1  0  0  0
 35 44  2  0  0  0
 35 45  1  0  0  0
 35 68  1  0  0  0
 36 56  1  0  0  0
 36107  1  0  0  0
 37 39  1  0  0  0
 37 47  1  0  0  0
 37 66  1  0  0  0
 37108  1  0  0  0
 38 43  2  0  0  0
 38 46  1  0  0  0
 38 47  1  0  0  0
 39 64  1  0  0  0
 39 67  2  0  0  0
 40 52  1  0  0  0
 40 53  2  0  0  0
 40 58  1  0  0  0
 41109  1  0  0  0
 41110  1  0  0  0
 41111  1  0  0  0
 41 48  1  0  0  0
 42 43  1  0  0  0
 42 66  1  0  0  0
 42112  1  0  0  0
 42113  1  0  0  0
 43 44  1  0  0  0
 44114  1  0  0  0
 45 46  2  0  0  0
 45115  1  0  0  0
 46116  1  0  0  0
 47117  1  0  0  0
 47118  1  0  0  0
 48 56  1  0  0  0
 48 65  1  0  0  0
 48119  1  0  0  0
 49 50  1  0  0  0
 49 53  1  0  0  0
 49 64  1  0  0  0
 49120  1  0  0  0
 50 51  1  0  0  0
 50121  1  0  0  0
 50122  1  0  0  0
 51 52  1  0  0  0
 51123  1  0  0  0
 51124  1  0  0  0
 52125  1  0  0  0
 52126  1  0  0  0
 53 54  1  0  0  0
 54 55  2  0  0  0
 54127  1  0  0  0
 55 57  1  0  0  0
 55128  1  0  0  0
 56 69  2  0  0  0
 57 58  2  0  0  0
 57129  1  0  0  0
 58130  1  0  0  0
 59 60  1  0  0  0
 59 61  1  0  0  0
 59 62  1  0  0  0
 60131  1  0  0  0
 60132  1  0  0  0
 60133  1  0  0  0
 61134  1  0  0  0
 61135  1  0  0  0
 61136  1  0  0  0
 62137  1  0  0  0
 62138  1  0  0  0
 62139  1  0  0  0
 63 65  1  0  0  0
 63140  1  0  0  0
 63141  1  0  0  0
 63142  1  0  0  0
 64143  1  0  0  0
 65144  1  0  0  0
 68 83  1  0  0  0
 71 73  2  0  0  0
 71 74  1  0  0  0
 71145  1  0  0  0
 72 75  2  0  0  0
 72 76  1  0  0  0
 72146  1  0  0  0
 73 75  1  0  0  0
 73 77  1  0  0  0
 74 76  2  0  0  0
 74 78  1  0  0  0
 75 79  1  0  0  0
 76 85  1  0  0  0
 77147  1  0  0  0
 77148  1  0  0  0
 77149  1  0  0  0
 78 80  1  0  0  0
 78150  1  0  0  0
 78151  1  0  0  0
 79 81  1  0  0  0
 79152  1  0  0  0
 79153  1  0  0  0
 80 82  1  0  0  0
 80154  1  0  0  0
 80155  1  0  0  0
 81 83  1  0  0  0
 81156  1  0  0  0
 81157  1  0  0  0
 82 84  1  0  0  0
 82158  1  0  0  0
 82159  1  0  0  0
 83160  1  0  0  0
 83161  1  0  0  0
 84162  1  0  0  0
M  ISO  4   1 100  68 101  83 101  84 100
M  END
> <chiral flag>
0

> <version>
0

> <s_m_source_file>
/data/baiqing/PycharmProjects/Reinvent-master-3.2/result/LINK_invent/BTK/process_docking_weight1_custom_sum_contain_oxygen_bond_distance_aromatic_linkinvent_7_9_3/rearranged_h_0034.sdf

> <i_m_source_file_index>
65

> <r_mmod_Potential_Energy-OPLS-2005>
-56.6947937011719

> <r_mmod_Stretch_Energy-OPLS-2005>
35.6417961120605

> <r_mmod_Bend_Energy-OPLS-2005>
104.854782104492

> <r_mmod_Torsional_Energy-OPLS-2005>
219.668334960938

> <r_mmod_Improper_Torsional_Energy-OPLS-2005>
1.89909958839417

> <r_mmod_Van_der_Waal_Energy-OPLS-2005>
153.690856933594

> <r_mmod_Electrostatic_Energy-OPLS-2005>
-378.458862304688

> <r_mmod_Solvation_Energy-OPLS-2005>
-202.39306640625

> <b_mmod_Minimization_Converged-OPLS-2005>
0

> <r_mmod_RMS_Derivative-OPLS-2005>
0.835932195186615

$$$$
66
                    3D
 Structure written by MMmdl.
159168  0  0  1  0            999 V2000
  -30.4834  -15.0000   20.4648 C   0  0  0  0  0  0
  -30.4481  -12.6285   19.5113 C   0  0  0  0  0  0
  -29.5321  -12.5684   18.2623 C   0  0  0  0  0  0
  -28.0555  -12.3474   18.6459 C   0  0  0  0  0  0
  -27.6277  -13.2393   19.8365 C   0  0  2  0  0  0
  -28.6598  -13.2092   20.9745 C   0  0  0  0  0  0
  -25.2407  -13.8183   20.5587 C   0  0  0  0  0  0
  -24.1713  -13.0417   20.9139 C   0  0  0  0  0  0
  -24.6323  -11.6898   20.8664 C   0  0  0  0  0  0
  -23.9005  -10.4271   21.0371 C   0  0  0  0  0  0
  -24.3582   -9.4210   21.9159 C   0  0  0  0  0  0
  -23.6251   -8.2241   22.0757 C   0  0  0  0  0  0
  -22.4240   -8.0231   21.3545 C   0  0  0  0  0  0
  -21.9866   -9.0196   20.4651 C   0  0  0  0  0  0
  -22.7163  -10.2087   20.3046 C   0  0  0  0  0  0
  -21.6860   -6.0656   22.5255 C   0  0  0  0  0  0
  -21.4029   -6.5595   23.8175 C   0  0  0  0  0  0
  -21.3668   -5.6764   24.9155 C   0  0  0  0  0  0
  -21.6055   -4.3022   24.7239 C   0  0  0  0  0  0
  -21.8824   -3.8095   23.4371 C   0  0  0  0  0  0
  -21.9197   -4.6881   22.3410 C   0  0  0  0  0  0
  -22.7741  -13.5214   21.1839 C   0  0  0  0  0  0
  -22.1644   -4.2040   21.0987 F   0  0  0  0  0  0
  -21.5651   -3.4539   25.7777 F   0  0  0  0  0  0
  -29.9369  -13.7029   20.4259 N   0  0  0  0  0  0
  -26.2831  -12.9379   20.3136 N   0  0  0  0  0  0
  -25.9259  -11.6531   20.5655 N   0  0  0  0  0  0
  -22.0433  -12.8179   22.0421 N   0  0  0  0  0  0
  -25.4207  -15.1910   20.4066 N   0  0  0  0  0  0
  -31.6607  -15.0800   20.0753 O   0  0  0  0  0  0
  -21.6663   -6.8791   21.4201 O   0  0  0  0  0  0
  -22.3379  -14.5502   20.6663 O   0  0  0  0  0  0
  -24.6499  -31.8403   23.1910 C   0  0  0  0  0  0
  -25.9218  -32.4690   23.8319 C   0  0  1  0  0  0
  -27.2083  -27.0803   20.1707 C   0  0  0  0  0  0
  -25.5970  -33.8518   24.2240 N   0  0  0  0  0  0
  -23.4569  -30.4545   21.5418 C   0  0  2  0  0  0
  -24.9038  -28.8710   20.1205 C   0  0  0  0  0  0
  -22.7595  -29.4487   22.4956 C   0  0  0  0  0  0
  -18.0283  -28.1386   22.8448 C   0  0  0  0  0  0
  -24.1496  -36.7278   23.2654 C   0  0  0  0  0  0
  -26.0147  -30.6953   21.3943 C   0  0  0  0  0  0
  -26.0847  -29.3006   20.7402 C   0  0  0  0  0  0
  -27.2397  -28.4207   20.7429 C   0  0  0  0  0  0
  -26.0030  -26.7715   19.5030 C   0  0  0  0  0  0
  -24.8803  -27.6241   19.4800 C   0  0  0  0  0  0
  -23.6891  -29.7849   20.1615 C   0  0  0  0  0  0
  -25.4119  -36.3050   24.0320 C   0  0  1  0  0  0
  -20.5906  -28.3707   23.1289 C   0  0  2  0  0  0
  -20.6782  -26.9420   22.5444 C   0  0  0  0  0  0
  -19.5758  -26.6375   21.5255 C   0  0  0  0  0  0
  -18.1927  -26.7918   22.1609 C   0  0  0  0  0  0
  -19.1536  -28.8854   23.2840 C   0  0  0  0  0  0
  -18.9460  -30.1457   23.8861 C   0  0  0  0  0  0
  -17.6453  -30.6595   24.0541 C   0  0  0  0  0  0
  -25.9080  -34.9411   23.5070 C   0  0  0  0  0  0
  -16.5346  -29.9087   23.6344 C   0  0  0  0  0  0
  -16.7259  -28.6503   23.0365 C   0  0  0  0  0  0
  -26.4522  -31.6565   25.0787 C   0  0  0  0  0  0
  -25.3696  -31.3760   26.1485 C   0  0  0  0  0  0
  -27.0393  -30.2954   24.6405 C   0  0  0  0  0  0
  -27.6092  -32.4341   25.7525 C   0  0  0  0  0  0
  -27.5568  -37.1786   24.8443 C   0  0  0  0  0  0
  -21.4275  -29.3051   22.3696 N   0  0  0  0  0  0
  -26.4265  -37.3773   23.9429 N   0  0  0  0  0  0
  -24.7278  -31.0205   22.0986 N   0  0  0  0  0  0
  -23.4212  -28.8027   23.3125 O   0  0  0  0  0  0
  -28.2418  -26.0595   20.2220 O   0  0  0  0  0  0
  -26.5682  -34.8897   22.4673 O   0  0  0  0  0  0
  -23.5603  -32.1289   23.7097 O   0  0  0  0  0  0
  -27.6713  -19.9802   22.2578 C   0  0  0  0  0  0
  -27.8461  -21.2800   21.7281 C   0  0  0  0  0  0
  -28.8831  -16.4125   21.9940 C   0  0  0  0  0  0
  -28.3486  -18.8206   21.7766 C   0  0  0  0  0  0
  -28.7043  -21.5490   20.6443 C   0  0  0  0  0  0
  -28.1782  -17.5629   22.4238 C   0  0  0  0  0  0
  -29.3452  -20.3017   20.0996 C   0  0  0  0  0  0
  -29.2207  -18.9044   20.6577 C   0  0  0  0  0  0
  -29.7098  -16.3941   20.8506 C   0  0  0  0  0  0
  -27.2411  -17.3909   23.6165 C   0  0  0  0  0  0
  -29.2884  -20.4785   17.5780 C   0  0  0  0  0  0
  -28.9837  -23.1641   20.2747 C   0  0  0  0  0  0
  -30.1754  -20.4650   18.8336 C   0  0  0  0  0  0
  -27.9272  -24.5068   20.3345 C   0  0  0  0  0  0
  -29.8522  -17.6804   20.2313 N   0  0  0  0  0  0
  -31.4729  -12.8068   19.1827 H   0  0  0  0  0  0
  -30.4791  -11.6613   20.0171 H   0  0  0  0  0  0
  -29.8636  -11.7827   17.5846 H   0  0  0  0  0  0
  -29.6258  -13.5059   17.7097 H   0  0  0  0  0  0
  -27.9219  -11.2929   18.8931 H   0  0  0  0  0  0
  -27.4149  -12.5435   17.7861 H   0  0  0  0  0  0
  -27.6111  -14.2570   19.4478 H   0  0  0  0  0  0
  -28.7680  -12.1982   21.3684 H   0  0  0  0  0  0
  -28.2848  -13.7814   21.8100 H   0  0  0  0  0  0
  -25.2731   -9.5650   22.4735 H   0  0  0  0  0  0
  -23.9934   -7.4647   22.7505 H   0  0  0  0  0  0
  -21.0791   -8.8644   19.8996 H   0  0  0  0  0  0
  -22.3552  -10.9578   19.6152 H   0  0  0  0  0  0
  -21.2022   -7.6106   23.9624 H   0  0  0  0  0  0
  -21.1508   -6.0534   25.9034 H   0  0  0  0  0  0
  -22.0619   -2.7548   23.2925 H   0  0  0  0  0  0
  -22.4072  -11.9824   22.4753 H   0  0  0  0  0  0
  -21.1064  -13.1153   22.2773 H   0  0  0  0  0  0
  -24.6781  -15.8638   20.5538 H   0  0  0  0  0  0
  -26.3042  -15.6222   20.1610 H   0  0  0  0  0  0
  -26.7278  -32.5267   23.1044 H   0  0  0  0  0  0
  -25.0063  -33.9656   25.0348 H   0  0  0  0  0  0
  -22.7631  -31.2858   21.3874 H   0  0  0  0  0  0
  -23.3789  -35.9587   23.3258 H   0  0  0  0  0  0
  -24.3607  -36.8996   22.2095 H   0  0  0  0  0  0
  -23.7229  -37.6437   23.6733 H   0  0  0  0  0  0
  -26.1728  -31.4403   20.6147 H   0  0  0  0  0  0
  -26.8874  -30.7562   22.0317 H   0  0  0  0  0  0
  -28.1408  -28.7446   21.2401 H   0  0  0  0  0  0
  -25.9003  -25.8200   19.0073 H   0  0  0  0  0  0
  -23.9797  -27.2997   18.9791 H   0  0  0  0  0  0
  -23.8454  -30.5693   19.4199 H   0  0  0  0  0  0
  -22.7990  -29.2433   19.8319 H   0  0  0  0  0  0
  -25.1307  -36.1872   25.0808 H   0  0  0  0  0  0
  -20.9891  -28.3252   24.1458 H   0  0  0  0  0  0
  -20.5787  -26.2284   23.3640 H   0  0  0  0  0  0
  -21.6627  -26.7511   22.1174 H   0  0  0  0  0  0
  -19.6963  -25.6313   21.1264 H   0  0  0  0  0  0
  -19.6710  -27.3193   20.6808 H   0  0  0  0  0  0
  -17.4228  -26.6700   21.3974 H   0  0  0  0  0  0
  -18.0234  -26.0088   22.9004 H   0  0  0  0  0  0
  -19.7949  -30.7282   24.2206 H   0  0  0  0  0  0
  -17.5028  -31.6278   24.5166 H   0  0  0  0  0  0
  -15.5354  -30.2985   23.7737 H   0  0  0  0  0  0
  -15.8627  -28.0828   22.7130 H   0  0  0  0  0  0
  -24.5906  -30.7059   25.7824 H   0  0  0  0  0  0
  -24.8829  -32.2923   26.4821 H   0  0  0  0  0  0
  -25.7965  -30.8997   27.0320 H   0  0  0  0  0  0
  -26.2999  -29.6700   24.1391 H   0  0  0  0  0  0
  -27.3960  -29.7230   25.4988 H   0  0  0  0  0  0
  -27.8929  -30.4207   23.9753 H   0  0  0  0  0  0
  -27.2725  -33.3721   26.1930 H   0  0  0  0  0  0
  -28.3917  -32.6782   25.0333 H   0  0  0  0  0  0
  -28.0705  -31.8575   26.5533 H   0  0  0  0  0  0
  -28.2520  -38.0142   24.7569 H   0  0  0  0  0  0
  -28.1090  -36.2678   24.6104 H   0  0  0  0  0  0
  -27.2292  -37.1254   25.8837 H   0  0  0  0  0  0
  -20.9539  -29.8736   21.6813 H   0  0  0  0  0  0
  -26.0112  -38.2828   24.1482 H   0  0  0  0  0  0
  -27.0054  -19.9133   23.1054 H   0  0  0  0  0  0
  -27.3313  -22.0991   22.2121 H   0  0  0  0  0  0
  -28.7969  -15.5251   22.5982 H   0  0  0  0  0  0
  -27.4305  -16.4565   24.1465 H   0  0  0  0  0  0
  -26.1977  -17.3748   23.2925 H   0  0  0  0  0  0
  -27.3699  -18.1887   24.3449 H   0  0  0  0  0  0
  -29.8851  -20.5147   16.6654 H   0  0  0  0  0  0
  -28.6299  -21.3467   17.5701 H   0  0  0  0  0  0
  -28.6660  -19.5830   17.5296 H   0  0  0  0  0  0
  -29.4735  -23.1959   19.3069 H   0  0  0  0  0  0
  -29.7739  -23.4207   20.9787 H   0  0  0  0  0  0
  -30.9089  -19.6620   18.7530 H   0  0  0  0  0  0
  -30.7514  -21.3894   18.8773 H   0  0  0  0  0  0
  -27.4032  -24.4249   21.2865 H   0  0  0  0  0  0
  -27.1804  -24.2715   19.5805 H   0  0  0  0  0  0
  1 25  1  0  0  0
  1 30  2  0  0  0
  1 79  1  0  0  0
  2  3  1  0  0  0
  2 25  1  0  0  0
  2 86  1  0  0  0
  2 87  1  0  0  0
  3  4  1  0  0  0
  3 88  1  0  0  0
  3 89  1  0  0  0
  4  5  1  0  0  0
  4 90  1  0  0  0
  4 91  1  0  0  0
  5  6  1  0  0  0
  5 26  1  0  0  0
  5 92  1  0  0  0
  6 25  1  0  0  0
  6 93  1  0  0  0
  6 94  1  0  0  0
  7  8  2  0  0  0
  7 26  1  0  0  0
  7 29  1  0  0  0
  8  9  1  0  0  0
  8 22  1  0  0  0
  9 10  1  0  0  0
  9 27  2  0  0  0
 10 11  2  0  0  0
 10 15  1  0  0  0
 11 12  1  0  0  0
 11 95  1  0  0  0
 12 13  2  0  0  0
 12 96  1  0  0  0
 13 14  1  0  0  0
 13 31  1  0  0  0
 14 15  2  0  0  0
 14 97  1  0  0  0
 15 98  1  0  0  0
 16 17  2  0  0  0
 16 21  1  0  0  0
 16 31  1  0  0  0
 17 18  1  0  0  0
 17 99  1  0  0  0
 18 19  2  0  0  0
 18100  1  0  0  0
 19 20  1  0  0  0
 19 24  1  0  0  0
 20 21  2  0  0  0
 20101  1  0  0  0
 21 23  1  0  0  0
 22 28  1  0  0  0
 22 32  2  0  0  0
 26 27  1  0  0  0
 28102  1  0  0  0
 28103  1  0  0  0
 29104  1  0  0  0
 29105  1  0  0  0
 33 34  1  0  0  0
 33 66  1  0  0  0
 33 70  2  0  0  0
 34 36  1  0  0  0
 34 59  1  0  0  0
 34106  1  0  0  0
 35 44  2  0  0  0
 35 45  1  0  0  0
 35 68  1  0  0  0
 36 56  1  0  0  0
 36107  1  0  0  0
 37 39  1  0  0  0
 37 47  1  0  0  0
 37 66  1  0  0  0
 37108  1  0  0  0
 38 43  2  0  0  0
 38 46  1  0  0  0
 38 47  1  0  0  0
 39 64  1  0  0  0
 39 67  2  0  0  0
 40 52  1  0  0  0
 40 53  2  0  0  0
 40 58  1  0  0  0
 41109  1  0  0  0
 41110  1  0  0  0
 41111  1  0  0  0
 41 48  1  0  0  0
 42 43  1  0  0  0
 42 66  1  0  0  0
 42112  1  0  0  0
 42113  1  0  0  0
 43 44  1  0  0  0
 44114  1  0  0  0
 45 46  2  0  0  0
 45115  1  0  0  0
 46116  1  0  0  0
 47117  1  0  0  0
 47118  1  0  0  0
 48 56  1  0  0  0
 48 65  1  0  0  0
 48119  1  0  0  0
 49 50  1  0  0  0
 49 53  1  0  0  0
 49 64  1  0  0  0
 49120  1  0  0  0
 50 51  1  0  0  0
 50121  1  0  0  0
 50122  1  0  0  0
 51 52  1  0  0  0
 51123  1  0  0  0
 51124  1  0  0  0
 52125  1  0  0  0
 52126  1  0  0  0
 53 54  1  0  0  0
 54 55  2  0  0  0
 54127  1  0  0  0
 55 57  1  0  0  0
 55128  1  0  0  0
 56 69  2  0  0  0
 57 58  2  0  0  0
 57129  1  0  0  0
 58130  1  0  0  0
 59 60  1  0  0  0
 59 61  1  0  0  0
 59 62  1  0  0  0
 60131  1  0  0  0
 60132  1  0  0  0
 60133  1  0  0  0
 61134  1  0  0  0
 61135  1  0  0  0
 61136  1  0  0  0
 62137  1  0  0  0
 62138  1  0  0  0
 62139  1  0  0  0
 63 65  1  0  0  0
 63140  1  0  0  0
 63141  1  0  0  0
 63142  1  0  0  0
 64143  1  0  0  0
 65144  1  0  0  0
 68 84  1  0  0  0
 71 72  2  0  0  0
 71 74  1  0  0  0
 71145  1  0  0  0
 72 75  1  0  0  0
 72146  1  0  0  0
 73 76  1  0  0  0
 73 79  2  0  0  0
 73147  1  0  0  0
 74 76  2  0  0  0
 74 78  1  0  0  0
 75 77  2  0  0  0
 75 82  1  0  0  0
 76 80  1  0  0  0
 77 78  1  0  0  0
 77 83  1  0  0  0
 78 85  2  0  0  0
 79 85  1  0  0  0
 80148  1  0  0  0
 80149  1  0  0  0
 80150  1  0  0  0
 81 83  1  0  0  0
 81151  1  0  0  0
 81152  1  0  0  0
 81153  1  0  0  0
 82 84  1  0  0  0
 82154  1  0  0  0
 82155  1  0  0  0
 83156  1  0  0  0
 83157  1  0  0  0
 84158  1  0  0  0
 84159  1  0  0  0
M  ISO  4   1 100  68 101  79 100  84 101
M  END
> <chiral flag>
0

> <version>
0

> <s_m_source_file>
/data/baiqing/PycharmProjects/Reinvent-master-3.2/result/LINK_invent/BTK/process_docking_weight1_custom_sum_contain_oxygen_bond_distance_aromatic_linkinvent_7_9_3/rearranged_h_0034.sdf

> <i_m_source_file_index>
66

> <r_mmod_Potential_Energy-OPLS-2005>
676.094116210938

> <r_mmod_Stretch_Energy-OPLS-2005>
319.942077636719

> <r_mmod_Bend_Energy-OPLS-2005>
273.174072265625

> <r_mmod_Torsional_Energy-OPLS-2005>
200.717132568359

> <r_mmod_Improper_Torsional_Energy-OPLS-2005>
3.39420700073242

> <r_mmod_Van_der_Waal_Energy-OPLS-2005>
148.631744384766

> <r_mmod_Electrostatic_Energy-OPLS-2005>
-293.244201660156

> <r_mmod_Solvation_Energy-OPLS-2005>
-207.901351928711

> <b_mmod_Minimization_Converged-OPLS-2005>
0

> <r_mmod_RMS_Derivative-OPLS-2005>
6.15449571609497

$$$$
67
                    3D
 Structure written by MMmdl.
153162  0  0  1  0            999 V2000
  -30.2602  -15.7280   20.3013 C   0  0  0  0  0  0
  -30.4218  -13.1368   19.5630 C   0  0  0  0  0  0
  -29.5635  -12.6738   18.3458 C   0  0  0  0  0  0
  -28.1477  -12.2804   18.7886 C   0  0  0  0  0  0
  -27.5912  -13.3089   19.7979 C   0  0  2  0  0  0
  -28.5884  -13.6984   20.9154 C   0  0  0  0  0  0
  -25.2325  -13.8238   20.5694 C   0  0  0  0  0  0
  -24.1725  -13.0406   20.9251 C   0  0  0  0  0  0
  -24.6427  -11.6918   20.8745 C   0  0  0  0  0  0
  -23.9107  -10.4285   21.0367 C   0  0  0  0  0  0
  -24.3645   -9.4200   21.9142 C   0  0  0  0  0  0
  -23.6304   -8.2248   22.0747 C   0  0  0  0  0  0
  -22.4277   -8.0288   21.3555 C   0  0  0  0  0  0
  -21.9922   -9.0246   20.4638 C   0  0  0  0  0  0
  -22.7269  -10.2113   20.3024 C   0  0  0  0  0  0
  -21.6859   -6.0725   22.5267 C   0  0  0  0  0  0
  -21.4015   -6.5631   23.8200 C   0  0  0  0  0  0
  -21.3660   -5.6792   24.9168 C   0  0  0  0  0  0
  -21.6048   -4.3047   24.7224 C   0  0  0  0  0  0
  -21.8819   -3.8134   23.4342 C   0  0  0  0  0  0
  -21.9192   -4.6952   22.3391 C   0  0  0  0  0  0
  -22.7749  -13.5156   21.1910 C   0  0  0  0  0  0
  -22.1669   -4.2126   21.0974 F   0  0  0  0  0  0
  -21.5624   -3.4542   25.7738 F   0  0  0  0  0  0
  -29.7686  -14.3346   20.2799 N   0  0  0  0  0  0
  -26.2755  -12.9571   20.3122 N   0  0  0  0  0  0
  -25.9364  -11.6655   20.5633 N   0  0  0  0  0  0
  -22.0443  -12.8114   22.0471 N   0  0  0  0  0  0
  -25.3914  -15.1957   20.3983 N   0  0  0  0  0  0
  -31.4945  -15.6231   20.1386 O   0  0  0  0  0  0
  -21.6648   -6.8873   21.4233 O   0  0  0  0  0  0
  -22.3404  -14.5445   20.6737 O   0  0  0  0  0  0
  -24.6889  -31.7921   23.1481 C   0  0  0  0  0  0
  -25.9440  -32.4437   23.8039 C   0  0  1  0  0  0
  -27.2298  -26.6549   20.2017 C   0  0  0  0  0  0
  -25.5994  -33.8265   24.1936 N   0  0  0  0  0  0
  -23.5170  -30.3927   21.5028 C   0  0  2  0  0  0
  -24.9753  -28.7253   20.1142 C   0  0  0  0  0  0
  -22.7790  -29.4265   22.4686 C   0  0  0  0  0  0
  -18.0326  -28.1407   22.8451 C   0  0  0  0  0  0
  -24.1486  -36.7142   23.2662 C   0  0  0  0  0  0
  -26.0987  -30.5105   21.4170 C   0  0  0  0  0  0
  -26.1645  -29.0707   20.7649 C   0  0  0  0  0  0
  -27.2724  -28.0625   20.7766 C   0  0  0  0  0  0
  -26.0073  -26.5306   19.4925 C   0  0  0  0  0  0
  -24.9393  -27.4833   19.4546 C   0  0  0  0  0  0
  -23.7745  -29.6880   20.1384 C   0  0  0  0  0  0
  -25.4147  -36.2881   24.0283 C   0  0  1  0  0  0
  -20.5974  -28.3765   23.1133 C   0  0  2  0  0  0
  -20.6780  -26.9413   22.5404 C   0  0  0  0  0  0
  -19.5762  -26.6362   21.5204 C   0  0  0  0  0  0
  -18.1953  -26.7940   22.1620 C   0  0  0  0  0  0
  -19.1596  -28.8909   23.2776 C   0  0  0  0  0  0
  -18.9505  -30.1491   23.8830 C   0  0  0  0  0  0
  -17.6495  -30.6596   24.0536 C   0  0  0  0  0  0
  -25.9127  -34.9266   23.4954 C   0  0  0  0  0  0
  -16.5385  -29.9082   23.6328 C   0  0  0  0  0  0
  -16.7307  -28.6496   23.0364 C   0  0  0  0  0  0
  -26.4608  -31.6497   25.0677 C   0  0  0  0  0  0
  -25.3658  -31.3835   26.1288 C   0  0  0  0  0  0
  -27.0529  -30.2830   24.6585 C   0  0  0  0  0  0
  -27.6051  -32.4355   25.7507 C   0  0  0  0  0  0
  -27.5542  -37.1745   24.8485 C   0  0  0  0  0  0
  -21.4431  -29.3021   22.3464 N   0  0  0  0  0  0
  -26.4271  -37.3638   23.9396 N   0  0  0  0  0  0
  -24.7925  -30.9311   22.0770 N   0  0  0  0  0  0
  -23.4217  -28.7867   23.3032 O   0  0  0  0  0  0
  -28.1910  -25.4197   20.3050 O   0  0  0  0  0  0
  -26.5763  -34.8849   22.4570 O   0  0  0  0  0  0
  -23.5892  -32.1012   23.6402 O   0  0  0  0  0  0
  -28.1278  -17.8890   20.5630 C   0  0  0  0  0  0
  -29.9344  -18.8909   20.2423 C   0  0  0  0  0  0
  -29.5029  -17.4330   20.3508 C   0  0  0  0  0  0
  -27.8707  -19.2912   20.6007 C   0  0  0  0  0  0
  -26.6248  -20.0448   20.9451 C   0  0  0  0  0  0
  -26.8354  -21.1956   21.9757 C   0  0  0  0  0  0
  -28.2236  -21.9203   22.0167 C   0  0  2  0  0  0
  -28.8993  -21.9432   20.6242 C   0  0  2  0  0  0
  -29.1450  -21.3748   23.1273 C   0  0  0  0  0  0
  -28.1389  -23.6564   19.9913 C   0  0  0  0  0  0
  -28.9635  -20.1337   20.3566 N   0  0  0  0  0  0
  -31.4166  -13.3975   19.2004 H   0  0  0  0  0  0
  -30.5868  -12.3115   20.2579 H   0  0  0  0  0  0
  -30.0474  -11.8395   17.8387 H   0  0  0  0  0  0
  -29.5002  -13.4844   17.6170 H   0  0  0  0  0  0
  -28.2094  -11.3017   19.2662 H   0  0  0  0  0  0
  -27.4842  -12.1648   17.9287 H   0  0  0  0  0  0
  -27.4417  -14.2042   19.1944 H   0  0  0  0  0  0
  -28.8569  -12.8404   21.5343 H   0  0  0  0  0  0
  -28.1281  -14.4268   21.5847 H   0  0  0  0  0  0
  -25.2802   -9.5649   22.4698 H   0  0  0  0  0  0
  -24.0002   -7.4628   22.7465 H   0  0  0  0  0  0
  -21.0857   -8.8748   19.8939 H   0  0  0  0  0  0
  -22.3730  -10.9626   19.6121 H   0  0  0  0  0  0
  -21.2024   -7.6136   23.9687 H   0  0  0  0  0  0
  -21.1483   -6.0529   25.9062 H   0  0  0  0  0  0
  -22.0600   -2.7592   23.2850 H   0  0  0  0  0  0
  -22.4139  -11.9820   22.4871 H   0  0  0  0  0  0
  -21.1031  -13.1047   22.2660 H   0  0  0  0  0  0
  -24.6124  -15.8385   20.4710 H   0  0  0  0  0  0
  -26.2095  -15.6097   19.9734 H   0  0  0  0  0  0
  -26.7531  -32.4897   23.0752 H   0  0  0  0  0  0
  -25.0023  -33.9292   25.0011 H   0  0  0  0  0  0
  -22.8457  -31.2311   21.3112 H   0  0  0  0  0  0
  -23.3733  -35.9482   23.3330 H   0  0  0  0  0  0
  -24.3532  -36.8788   22.2070 H   0  0  0  0  0  0
  -23.7263  -37.6340   23.6729 H   0  0  0  0  0  0
  -26.2993  -31.2309   20.6221 H   0  0  0  0  0  0
  -26.9535  -30.5870   22.0773 H   0  0  0  0  0  0
  -28.1643  -28.3312   21.3230 H   0  0  0  0  0  0
  -25.8296  -25.5914   18.9880 H   0  0  0  0  0  0
  -24.0421  -27.2133   18.9135 H   0  0  0  0  0  0
  -23.9540  -30.4493   19.3789 H   0  0  0  0  0  0
  -22.8769  -29.1613   19.8096 H   0  0  0  0  0  0
  -25.1355  -36.1649   25.0768 H   0  0  0  0  0  0
  -21.0043  -28.3378   24.1264 H   0  0  0  0  0  0
  -20.5596  -26.2384   23.3669 H   0  0  0  0  0  0
  -21.6643  -26.7320   22.1242 H   0  0  0  0  0  0
  -19.6907  -25.6256   21.1269 H   0  0  0  0  0  0
  -19.6704  -27.3134   20.6703 H   0  0  0  0  0  0
  -17.4207  -26.6650   21.4044 H   0  0  0  0  0  0
  -18.0356  -26.0112   22.9043 H   0  0  0  0  0  0
  -19.7981  -30.7304   24.2200 H   0  0  0  0  0  0
  -17.5047  -31.6267   24.5151 H   0  0  0  0  0  0
  -15.5387  -30.2962   23.7688 H   0  0  0  0  0  0
  -15.8706  -28.0784   22.7140 H   0  0  0  0  0  0
  -24.5882  -30.7142   25.7608 H   0  0  0  0  0  0
  -24.8797  -32.3050   26.4493 H   0  0  0  0  0  0
  -25.7820  -30.9164   27.0220 H   0  0  0  0  0  0
  -26.3241  -29.6455   24.1576 H   0  0  0  0  0  0
  -27.3953  -29.7280   25.5333 H   0  0  0  0  0  0
  -27.9224  -30.3966   24.0106 H   0  0  0  0  0  0
  -27.2611  -33.3744   26.1864 H   0  0  0  0  0  0
  -28.3988  -32.6777   25.0425 H   0  0  0  0  0  0
  -28.0577  -31.8621   26.5611 H   0  0  0  0  0  0
  -28.2598  -37.9997   24.7418 H   0  0  0  0  0  0
  -28.0989  -36.2512   24.6455 H   0  0  0  0  0  0
  -27.2229  -37.1557   25.8881 H   0  0  0  0  0  0
  -20.9731  -29.8723   21.6568 H   0  0  0  0  0  0
  -26.0093  -38.2691   24.1360 H   0  0  0  0  0  0
  -27.3218  -17.1902   20.7373 H   0  0  0  0  0  0
  -30.9694  -19.1803   20.1266 H   0  0  0  0  0  0
  -25.8567  -19.3644   21.3145 H   0  0  0  0  0  0
  -26.2199  -20.4706   20.0249 H   0  0  0  0  0  0
  -26.6189  -20.8077   22.9694 H   0  0  0  0  0  0
  -26.0573  -21.9402   21.7949 H   0  0  0  0  0  0
  -28.0283  -22.9485   22.3262 H   0  0  0  0  0  0
  -29.9508  -22.2046   20.7436 H   0  0  0  0  0  0
  -28.6384  -21.3643   24.0926 H   0  0  0  0  0  0
  -30.0235  -22.0105   23.2423 H   0  0  0  0  0  0
  -29.4971  -20.3640   22.9268 H   0  0  0  0  0  0
  -27.0651  -23.4681   19.9687 H   0  0  0  0  0  0
  -28.4108  -23.6418   18.9348 H   0  0  0  0  0  0
  1 25  1  0  0  0
  1 30  2  0  0  0
  1 73  1  0  0  0
  2  3  1  0  0  0
  2 25  1  0  0  0
  2 82  1  0  0  0
  2 83  1  0  0  0
  3  4  1  0  0  0
  3 84  1  0  0  0
  3 85  1  0  0  0
  4  5  1  0  0  0
  4 86  1  0  0  0
  4 87  1  0  0  0
  5  6  1  0  0  0
  5 26  1  0  0  0
  5 88  1  0  0  0
  6 25  1  0  0  0
  6 89  1  0  0  0
  6 90  1  0  0  0
  7  8  2  0  0  0
  7 26  1  0  0  0
  7 29  1  0  0  0
  8  9  1  0  0  0
  8 22  1  0  0  0
  9 10  1  0  0  0
  9 27  2  0  0  0
 10 11  2  0  0  0
 10 15  1  0  0  0
 11 12  1  0  0  0
 11 91  1  0  0  0
 12 13  2  0  0  0
 12 92  1  0  0  0
 13 14  1  0  0  0
 13 31  1  0  0  0
 14 15  2  0  0  0
 14 93  1  0  0  0
 15 94  1  0  0  0
 16 17  2  0  0  0
 16 21  1  0  0  0
 16 31  1  0  0  0
 17 18  1  0  0  0
 17 95  1  0  0  0
 18 19  2  0  0  0
 18 96  1  0  0  0
 19 20  1  0  0  0
 19 24  1  0  0  0
 20 21  2  0  0  0
 20 97  1  0  0  0
 21 23  1  0  0  0
 22 28  1  0  0  0
 22 32  2  0  0  0
 26 27  1  0  0  0
 28 98  1  0  0  0
 28 99  1  0  0  0
 29100  1  0  0  0
 29101  1  0  0  0
 33 34  1  0  0  0
 33 66  1  0  0  0
 33 70  2  0  0  0
 34 36  1  0  0  0
 34 59  1  0  0  0
 34102  1  0  0  0
 35 44  2  0  0  0
 35 45  1  0  0  0
 35 68  1  0  0  0
 36 56  1  0  0  0
 36103  1  0  0  0
 37 39  1  0  0  0
 37 47  1  0  0  0
 37 66  1  0  0  0
 37104  1  0  0  0
 38 43  2  0  0  0
 38 46  1  0  0  0
 38 47  1  0  0  0
 39 64  1  0  0  0
 39 67  2  0  0  0
 40 52  1  0  0  0
 40 53  2  0  0  0
 40 58  1  0  0  0
 41105  1  0  0  0
 41106  1  0  0  0
 41107  1  0  0  0
 41 48  1  0  0  0
 42 43  1  0  0  0
 42 66  1  0  0  0
 42108  1  0  0  0
 42109  1  0  0  0
 43 44  1  0  0  0
 44110  1  0  0  0
 45 46  2  0  0  0
 45111  1  0  0  0
 46112  1  0  0  0
 47113  1  0  0  0
 47114  1  0  0  0
 48 56  1  0  0  0
 48 65  1  0  0  0
 48115  1  0  0  0
 49 50  1  0  0  0
 49 53  1  0  0  0
 49 64  1  0  0  0
 49116  1  0  0  0
 50 51  1  0  0  0
 50117  1  0  0  0
 50118  1  0  0  0
 51 52  1  0  0  0
 51119  1  0  0  0
 51120  1  0  0  0
 52121  1  0  0  0
 52122  1  0  0  0
 53 54  1  0  0  0
 54 55  2  0  0  0
 54123  1  0  0  0
 55 57  1  0  0  0
 55124  1  0  0  0
 56 69  2  0  0  0
 57 58  2  0  0  0
 57125  1  0  0  0
 58126  1  0  0  0
 59 60  1  0  0  0
 59 61  1  0  0  0
 59 62  1  0  0  0
 60127  1  0  0  0
 60128  1  0  0  0
 60129  1  0  0  0
 61130  1  0  0  0
 61131  1  0  0  0
 61132  1  0  0  0
 62133  1  0  0  0
 62134  1  0  0  0
 62135  1  0  0  0
 63 65  1  0  0  0
 63136  1  0  0  0
 63137  1  0  0  0
 63138  1  0  0  0
 64139  1  0  0  0
 65140  1  0  0  0
 68 80  1  0  0  0
 71 73  1  0  0  0
 71 74  2  0  0  0
 71141  1  0  0  0
 72 73  2  0  0  0
 72 81  1  0  0  0
 72142  1  0  0  0
 74 75  1  0  0  0
 74 81  1  0  0  0
 75 76  1  0  0  0
 75143  1  0  0  0
 75144  1  0  0  0
 76 77  1  0  0  0
 76145  1  0  0  0
 76146  1  0  0  0
 77 78  1  0  0  0
 77 79  1  0  0  0
 77147  1  0  0  0
 78 80  1  0  0  0
 78 81  1  0  0  0
 78148  1  0  0  0
 79149  1  0  0  0
 79150  1  0  0  0
 79151  1  0  0  0
 80152  1  0  0  0
 80153  1  0  0  0
M  ISO  4   1 100  68 101  73 100  80 101
M  END
> <chiral flag>
0

> <version>
0

> <s_m_source_file>
/data/baiqing/PycharmProjects/Reinvent-master-3.2/result/LINK_invent/BTK/process_docking_weight1_custom_sum_contain_oxygen_bond_distance_aromatic_linkinvent_7_9_3/rearranged_h_0034.sdf

> <i_m_source_file_index>
67

> <r_mmod_Potential_Energy-OPLS-2005>
2871.06298828125

> <r_mmod_Stretch_Energy-OPLS-2005>
1207.69506835938

> <r_mmod_Bend_Energy-OPLS-2005>
715.450988769531

> <r_mmod_Torsional_Energy-OPLS-2005>
255.428848266602

> <r_mmod_Improper_Torsional_Energy-OPLS-2005>
8.46937656402588

> <r_mmod_Van_der_Waal_Energy-OPLS-2005>
112.128128051758

> <r_mmod_Electrostatic_Energy-OPLS-2005>
-254.67643737793

> <r_mmod_Solvation_Energy-OPLS-2005>
-196.413833618164

> <b_mmod_Minimization_Converged-OPLS-2005>
0

> <r_mmod_RMS_Derivative-OPLS-2005>
3.17897605895996

$$$$
69
                    3D
 Structure written by MMmdl.
162170  0  0  1  0            999 V2000
  -30.7199  -14.4731   20.5550 C   0  0  0  0  0  0
  -30.4173  -12.3031   19.4332 C   0  0  0  0  0  0
  -29.4954  -12.4991   18.2125 C   0  0  0  0  0  0
  -28.0159  -12.3662   18.6222 C   0  0  0  0  0  0
  -27.6608  -13.2122   19.8749 C   0  0  2  0  0  0
  -28.7034  -13.0154   21.0002 C   0  0  0  0  0  0
  -25.2578  -13.8177   20.5692 C   0  0  0  0  0  0
  -24.1833  -13.0446   20.9180 C   0  0  0  0  0  0
  -24.6394  -11.6914   20.8733 C   0  0  0  0  0  0
  -23.9060  -10.4298   21.0398 C   0  0  0  0  0  0
  -24.3613   -9.4215   21.9177 C   0  0  0  0  0  0
  -23.6293   -8.2247   22.0750 C   0  0  0  0  0  0
  -22.4275   -8.0281   21.3542 C   0  0  0  0  0  0
  -21.9906   -9.0253   20.4643 C   0  0  0  0  0  0
  -22.7230  -10.2135   20.3049 C   0  0  0  0  0  0
  -21.6855   -6.0734   22.5279 C   0  0  0  0  0  0
  -21.4015   -6.5640   23.8212 C   0  0  0  0  0  0
  -21.3659   -5.6791   24.9175 C   0  0  0  0  0  0
  -21.6045   -4.3054   24.7225 C   0  0  0  0  0  0
  -21.8819   -3.8146   23.4347 C   0  0  0  0  0  0
  -21.9196   -4.6962   22.3403 C   0  0  0  0  0  0
  -22.7854  -13.5236   21.1843 C   0  0  0  0  0  0
  -22.1664   -4.2147   21.0980 F   0  0  0  0  0  0
  -21.5629   -3.4538   25.7738 F   0  0  0  0  0  0
  -30.0346  -13.3029   20.4438 N   0  0  0  0  0  0
  -26.3024  -12.9356   20.3377 N   0  0  0  0  0  0
  -25.9325  -11.6511   20.5771 N   0  0  0  0  0  0
  -22.0496  -12.8227   22.0400 N   0  0  0  0  0  0
  -25.4293  -15.1894   20.4105 N   0  0  0  0  0  0
  -31.8519  -14.6267   20.0900 O   0  0  0  0  0  0
  -21.6642   -6.8877   21.4240 O   0  0  0  0  0  0
  -22.3535  -14.5542   20.6694 O   0  0  0  0  0  0
  -24.6174  -31.8677   23.2108 C   0  0  0  0  0  0
  -25.9063  -32.4818   23.8397 C   0  0  1  0  0  0
  -27.2211  -27.4107   20.0940 C   0  0  0  0  0  0
  -25.5919  -33.8620   24.2327 N   0  0  0  0  0  0
  -23.4050  -30.4954   21.5524 C   0  0  2  0  0  0
  -24.8479  -28.9691   20.1077 C   0  0  0  0  0  0
  -22.7422  -29.4663   22.4972 C   0  0  0  0  0  0
  -18.0273  -28.1379   22.8495 C   0  0  0  0  0  0
  -24.1488  -36.7307   23.2637 C   0  0  0  0  0  0
  -25.9384  -30.8264   21.3689 C   0  0  0  0  0  0
  -26.0121  -29.4626   20.7101 C   0  0  0  0  0  0
  -27.2011  -28.6913   20.7011 C   0  0  0  0  0  0
  -26.0383  -26.9587   19.4566 C   0  0  0  0  0  0
  -24.8582  -27.7176   19.4764 C   0  0  0  0  0  0
  -23.6123  -29.8376   20.1636 C   0  0  0  0  0  0
  -25.4111  -36.3110   24.0334 C   0  0  1  0  0  0
  -20.5868  -28.3670   23.1309 C   0  0  2  0  0  0
  -20.6769  -26.9405   22.5413 C   0  0  0  0  0  0
  -19.5745  -26.6387   21.5212 C   0  0  0  0  0  0
  -18.1923  -26.7928   22.1624 C   0  0  0  0  0  0
  -19.1524  -28.8841   23.2902 C   0  0  0  0  0  0
  -18.9453  -30.1447   23.8911 C   0  0  0  0  0  0
  -17.6454  -30.6587   24.0568 C   0  0  0  0  0  0
  -25.9041  -34.9475   23.5125 C   0  0  0  0  0  0
  -16.5345  -29.9090   23.6329 C   0  0  0  0  0  0
  -16.7262  -28.6506   23.0352 C   0  0  0  0  0  0
  -26.4479  -31.6601   25.0732 C   0  0  0  0  0  0
  -25.3742  -31.3712   26.1479 C   0  0  0  0  0  0
  -27.0306  -30.3043   24.6113 C   0  0  0  0  0  0
  -27.6053  -32.4317   25.7496 C   0  0  0  0  0  0
  -27.5579  -37.1814   24.8468 C   0  0  0  0  0  0
  -21.4146  -29.3039   22.3714 N   0  0  0  0  0  0
  -26.4296  -37.3796   23.9407 N   0  0  0  0  0  0
  -24.6721  -31.0773   22.1016 N   0  0  0  0  0  0
  -23.4191  -28.8192   23.3005 O   0  0  0  0  0  0
  -28.3613  -26.6207   20.1604 O   0  0  0  0  0  0
  -26.5596  -34.8926   22.4680 O   0  0  0  0  0  0
  -23.5364  -32.1428   23.7497 O   0  0  0  0  0  0
  -31.2699  -23.9309   21.8329 C   0  0  0  0  0  0
  -30.3724  -24.7675   21.1492 C   0  0  0  0  0  0
  -30.9644  -22.5736   22.0655 C   0  0  0  0  0  0
  -29.1610  -24.2531   20.6536 C   0  0  0  0  0  0
  -28.8751  -22.8610   20.8170 C   0  0  0  0  0  0
  -29.7540  -22.0190   21.5669 C   0  0  0  0  0  0
  -31.9602  -21.7491   22.8688 C   0  0  0  0  0  0
  -27.6057  -22.2700   20.2068 C   0  0  0  0  0  0
  -29.3642  -20.5633   21.9201 C   0  0  0  0  0  0
  -28.1572  -25.1981   19.9785 C   0  0  0  0  0  0
  -30.0360  -19.4504   21.0783 C   0  0  0  0  0  0
  -29.6050  -18.0095   21.4740 C   0  0  0  0  0  0
  -30.4930  -16.9219   20.8231 C   0  0  0  0  0  0
  -30.0366  -15.5343   21.0277 N   0  0  0  0  0  0
  -31.4634  -12.3869   19.1329 H   0  0  0  0  0  0
  -30.3081  -11.2973   19.8419 H   0  0  0  0  0  0
  -29.7357  -11.7699   17.4376 H   0  0  0  0  0  0
  -29.6685  -13.4821   17.7722 H   0  0  0  0  0  0
  -27.8214  -11.3114   18.8195 H   0  0  0  0  0  0
  -27.3692  -12.6425   17.7885 H   0  0  0  0  0  0
  -27.6991  -14.2574   19.5674 H   0  0  0  0  0  0
  -28.6763  -11.9893   21.3699 H   0  0  0  0  0  0
  -28.4720  -13.6452   21.8603 H   0  0  0  0  0  0
  -25.2759   -9.5700   22.4745 H   0  0  0  0  0  0
  -24.0010   -7.4642   22.7468 H   0  0  0  0  0  0
  -21.0838   -8.8766   19.8946 H   0  0  0  0  0  0
  -22.3685  -10.9670   19.6154 H   0  0  0  0  0  0
  -21.2004   -7.6147   23.9715 H   0  0  0  0  0  0
  -21.1481   -6.0522   25.9078 H   0  0  0  0  0  0
  -22.0598   -2.7608   23.2848 H   0  0  0  0  0  0
  -22.4114  -11.9893   22.4795 H   0  0  0  0  0  0
  -21.1108  -13.1242   22.2593 H   0  0  0  0  0  0
  -24.6639  -15.8457   20.5223 H   0  0  0  0  0  0
  -26.2835  -15.6295   20.0923 H   0  0  0  0  0  0
  -26.7132  -32.5520   23.1158 H   0  0  0  0  0  0
  -25.0104  -33.9783   25.0496 H   0  0  0  0  0  0
  -22.6949  -31.3137   21.4179 H   0  0  0  0  0  0
  -23.3746  -35.9646   23.3315 H   0  0  0  0  0  0
  -24.3586  -36.8902   22.2049 H   0  0  0  0  0  0
  -23.7243  -37.6518   23.6639 H   0  0  0  0  0  0
  -26.0586  -31.5942   20.6031 H   0  0  0  0  0  0
  -26.8248  -30.8736   21.9899 H   0  0  0  0  0  0
  -28.0945  -29.0630   21.1839 H   0  0  0  0  0  0
  -25.9946  -26.0108   18.9406 H   0  0  0  0  0  0
  -23.9669  -27.3361   18.9972 H   0  0  0  0  0  0
  -23.7218  -30.6180   19.4093 H   0  0  0  0  0  0
  -22.7347  -29.2617   19.8638 H   0  0  0  0  0  0
  -25.1288  -36.1974   25.0827 H   0  0  0  0  0  0
  -20.9964  -28.3233   24.1427 H   0  0  0  0  0  0
  -20.5680  -26.2273   23.3599 H   0  0  0  0  0  0
  -21.6640  -26.7452   22.1197 H   0  0  0  0  0  0
  -19.6909  -25.6302   21.1231 H   0  0  0  0  0  0
  -19.6688  -27.3211   20.6753 H   0  0  0  0  0  0
  -17.4196  -26.6678   21.4023 H   0  0  0  0  0  0
  -18.0321  -26.0069   22.9016 H   0  0  0  0  0  0
  -19.7929  -30.7261   24.2286 H   0  0  0  0  0  0
  -17.5011  -31.6270   24.5165 H   0  0  0  0  0  0
  -15.5348  -30.2999   23.7650 H   0  0  0  0  0  0
  -15.8659  -28.0834   22.7059 H   0  0  0  0  0  0
  -24.5924  -30.7042   25.7825 H   0  0  0  0  0  0
  -24.8924  -32.2871   26.4914 H   0  0  0  0  0  0
  -25.8103  -30.8901   27.0244 H   0  0  0  0  0  0
  -26.2851  -29.6816   24.1155 H   0  0  0  0  0  0
  -27.4059  -29.7267   25.4570 H   0  0  0  0  0  0
  -27.8697  -30.4354   23.9276 H   0  0  0  0  0  0
  -27.2669  -33.3609   26.2090 H   0  0  0  0  0  0
  -28.3860  -32.6886   25.0324 H   0  0  0  0  0  0
  -28.0724  -31.8430   26.5400 H   0  0  0  0  0  0
  -28.2610  -38.0099   24.7508 H   0  0  0  0  0  0
  -28.1060  -36.2632   24.6303 H   0  0  0  0  0  0
  -27.2298  -37.1473   25.8872 H   0  0  0  0  0  0
  -20.9299  -29.8776   21.6955 H   0  0  0  0  0  0
  -26.0181  -38.2872   24.1407 H   0  0  0  0  0  0
  -32.1919  -24.3538   22.2081 H   0  0  0  0  0  0
  -30.6140  -25.8133   21.0183 H   0  0  0  0  0  0
  -32.7609  -22.3737   23.2658 H   0  0  0  0  0  0
  -32.4275  -20.9888   22.2447 H   0  0  0  0  0  0
  -31.4875  -21.2632   23.7216 H   0  0  0  0  0  0
  -27.2431  -22.8371   19.3508 H   0  0  0  0  0  0
  -26.8084  -22.2279   20.9492 H   0  0  0  0  0  0
  -27.7820  -21.2621   19.8306 H   0  0  0  0  0  0
  -28.2835  -20.4378   21.8751 H   0  0  0  0  0  0
  -29.5875  -20.3924   22.9728 H   0  0  0  0  0  0
  -27.1974  -24.9145   20.4135 H   0  0  0  0  0  0
  -28.1257  -24.9762   18.9109 H   0  0  0  0  0  0
  -31.1177  -19.5303   21.1718 H   0  0  0  0  0  0
  -29.8154  -19.6135   20.0228 H   0  0  0  0  0  0
  -28.5610  -17.8600   21.1947 H   0  0  0  0  0  0
  -29.6512  -17.8993   22.5584 H   0  0  0  0  0  0
  -31.5121  -17.0225   21.2021 H   0  0  0  0  0  0
  -30.5484  -17.1044   19.7478 H   0  0  0  0  0  0
  -29.1041  -15.3760   21.3796 H   0  0  0  0  0  0
  1 25  1  0  0  0
  1 30  2  0  0  0
  1 84  1  0  0  0
  2  3  1  0  0  0
  2 25  1  0  0  0
  2 85  1  0  0  0
  2 86  1  0  0  0
  3  4  1  0  0  0
  3 87  1  0  0  0
  3 88  1  0  0  0
  4  5  1  0  0  0
  4 89  1  0  0  0
  4 90  1  0  0  0
  5  6  1  0  0  0
  5 26  1  0  0  0
  5 91  1  0  0  0
  6 25  1  0  0  0
  6 92  1  0  0  0
  6 93  1  0  0  0
  7  8  2  0  0  0
  7 26  1  0  0  0
  7 29  1  0  0  0
  8  9  1  0  0  0
  8 22  1  0  0  0
  9 10  1  0  0  0
  9 27  2  0  0  0
 10 11  2  0  0  0
 10 15  1  0  0  0
 11 12  1  0  0  0
 11 94  1  0  0  0
 12 13  2  0  0  0
 12 95  1  0  0  0
 13 14  1  0  0  0
 13 31  1  0  0  0
 14 15  2  0  0  0
 14 96  1  0  0  0
 15 97  1  0  0  0
 16 17  2  0  0  0
 16 21  1  0  0  0
 16 31  1  0  0  0
 17 18  1  0  0  0
 17 98  1  0  0  0
 18 19  2  0  0  0
 18 99  1  0  0  0
 19 20  1  0  0  0
 19 24  1  0  0  0
 20 21  2  0  0  0
 20100  1  0  0  0
 21 23  1  0  0  0
 22 28  1  0  0  0
 22 32  2  0  0  0
 26 27  1  0  0  0
 28101  1  0  0  0
 28102  1  0  0  0
 29103  1  0  0  0
 29104  1  0  0  0
 33 34  1  0  0  0
 33 66  1  0  0  0
 33 70  2  0  0  0
 34 36  1  0  0  0
 34 59  1  0  0  0
 34105  1  0  0  0
 35 44  2  0  0  0
 35 45  1  0  0  0
 35 68  1  0  0  0
 36 56  1  0  0  0
 36106  1  0  0  0
 37 39  1  0  0  0
 37 47  1  0  0  0
 37 66  1  0  0  0
 37107  1  0  0  0
 38 43  2  0  0  0
 38 46  1  0  0  0
 38 47  1  0  0  0
 39 64  1  0  0  0
 39 67  2  0  0  0
 40 52  1  0  0  0
 40 53  2  0  0  0
 40 58  1  0  0  0
 41108  1  0  0  0
 41109  1  0  0  0
 41110  1  0  0  0
 41 48  1  0  0  0
 42 43  1  0  0  0
 42 66  1  0  0  0
 42111  1  0  0  0
 42112  1  0  0  0
 43 44  1  0  0  0
 44113  1  0  0  0
 45 46  2  0  0  0
 45114  1  0  0  0
 46115  1  0  0  0
 47116  1  0  0  0
 47117  1  0  0  0
 48 56  1  0  0  0
 48 65  1  0  0  0
 48118  1  0  0  0
 49 50  1  0  0  0
 49 53  1  0  0  0
 49 64  1  0  0  0
 49119  1  0  0  0
 50 51  1  0  0  0
 50120  1  0  0  0
 50121  1  0  0  0
 51 52  1  0  0  0
 51122  1  0  0  0
 51123  1  0  0  0
 52124  1  0  0  0
 52125  1  0  0  0
 53 54  1  0  0  0
 54 55  2  0  0  0
 54126  1  0  0  0
 55 57  1  0  0  0
 55127  1  0  0  0
 56 69  2  0  0  0
 57 58  2  0  0  0
 57128  1  0  0  0
 58129  1  0  0  0
 59 60  1  0  0  0
 59 61  1  0  0  0
 59 62  1  0  0  0
 60130  1  0  0  0
 60131  1  0  0  0
 60132  1  0  0  0
 61133  1  0  0  0
 61134  1  0  0  0
 61135  1  0  0  0
 62136  1  0  0  0
 62137  1  0  0  0
 62138  1  0  0  0
 63 65  1  0  0  0
 63139  1  0  0  0
 63140  1  0  0  0
 63141  1  0  0  0
 64142  1  0  0  0
 65143  1  0  0  0
 68 80  1  0  0  0
 71 72  2  0  0  0
 71 73  1  0  0  0
 71144  1  0  0  0
 72 74  1  0  0  0
 72145  1  0  0  0
 73 76  2  0  0  0
 73 77  1  0  0  0
 74 75  2  0  0  0
 74 80  1  0  0  0
 75 76  1  0  0  0
 75 78  1  0  0  0
 76 79  1  0  0  0
 77146  1  0  0  0
 77147  1  0  0  0
 77148  1  0  0  0
 78149  1  0  0  0
 78150  1  0  0  0
 78151  1  0  0  0
 79 81  1  0  0  0
 79152  1  0  0  0
 79153  1  0  0  0
 80154  1  0  0  0
 80155  1  0  0  0
 81 82  1  0  0  0
 81156  1  0  0  0
 81157  1  0  0  0
 82 83  1  0  0  0
 82158  1  0  0  0
 82159  1  0  0  0
 83 84  1  0  0  0
 83160  1  0  0  0
 83161  1  0  0  0
 84162  1  0  0  0
M  ISO  4   1 100  68 101  80 101  84 100
M  END
> <chiral flag>
0

> <version>
0

> <s_m_source_file>
/data/baiqing/PycharmProjects/Reinvent-master-3.2/result/LINK_invent/BTK/process_docking_weight1_custom_sum_contain_oxygen_bond_distance_aromatic_linkinvent_7_9_3/rearranged_h_0034.sdf

> <i_m_source_file_index>
68

> <r_mmod_Potential_Energy-OPLS-2005>
-46.1020202636719

> <r_mmod_Stretch_Energy-OPLS-2005>
43.8845062255859

> <r_mmod_Bend_Energy-OPLS-2005>
95.4504318237305

> <r_mmod_Torsional_Energy-OPLS-2005>
208.084747314453

> <r_mmod_Improper_Torsional_Energy-OPLS-2005>
4.67176246643066

> <r_mmod_Van_der_Waal_Energy-OPLS-2005>
167.158508300781

> <r_mmod_Electrostatic_Energy-OPLS-2005>
-377.049102783203

> <r_mmod_Solvation_Energy-OPLS-2005>
-206.313125610352

> <b_mmod_Minimization_Converged-OPLS-2005>
0

> <r_mmod_RMS_Derivative-OPLS-2005>
0.72575455904007

$$$$
70
                    3D
 Structure written by MMmdl.
156164  0  0  1  0            999 V2000
  -30.5061  -14.9941   20.3774 C   0  0  0  0  0  0
  -30.4552  -12.6050   19.5206 C   0  0  0  0  0  0
  -29.5461  -12.5416   18.2710 C   0  0  0  0  0  0
  -28.0652  -12.3536   18.6561 C   0  0  0  0  0  0
  -27.6403  -13.2600   19.8430 C   0  0  2  0  0  0
  -28.6804  -13.2765   20.9838 C   0  0  0  0  0  0
  -25.2522  -13.8245   20.5684 C   0  0  0  0  0  0
  -24.1832  -13.0462   20.9206 C   0  0  0  0  0  0
  -24.6456  -11.6943   20.8719 C   0  0  0  0  0  0
  -23.9130  -10.4302   21.0358 C   0  0  0  0  0  0
  -24.3665   -9.4228   21.9160 C   0  0  0  0  0  0
  -23.6332   -8.2270   22.0739 C   0  0  0  0  0  0
  -22.4324   -8.0293   21.3523 C   0  0  0  0  0  0
  -21.9963   -9.0276   20.4632 C   0  0  0  0  0  0
  -22.7295  -10.2150   20.3023 C   0  0  0  0  0  0
  -21.6876   -6.0761   22.5268 C   0  0  0  0  0  0
  -21.4020   -6.5652   23.8207 C   0  0  0  0  0  0
  -21.3651   -5.6795   24.9164 C   0  0  0  0  0  0
  -21.6049   -4.3062   24.7205 C   0  0  0  0  0  0
  -21.8823   -3.8158   23.4323 C   0  0  0  0  0  0
  -21.9208   -4.6983   22.3389 C   0  0  0  0  0  0
  -22.7846  -13.5232   21.1812 C   0  0  0  0  0  0
  -22.1657   -4.2164   21.0971 F   0  0  0  0  0  0
  -21.5634   -3.4535   25.7715 F   0  0  0  0  0  0
  -29.9579  -13.7087   20.4008 N   0  0  0  0  0  0
  -26.2959  -12.9493   20.3219 N   0  0  0  0  0  0
  -25.9397  -11.6612   20.5691 N   0  0  0  0  0  0
  -22.0448  -12.8248   22.0355 N   0  0  0  0  0  0
  -25.4219  -15.1975   20.4104 N   0  0  0  0  0  0
  -31.6786  -15.0895   19.9986 O   0  0  0  0  0  0
  -21.6647   -6.8914   21.4241 O   0  0  0  0  0  0
  -22.3537  -14.5525   20.6604 O   0  0  0  0  0  0
  -24.6428  -31.8376   23.1822 C   0  0  0  0  0  0
  -25.9182  -32.4646   23.8200 C   0  0  1  0  0  0
  -27.2279  -27.1135   20.1335 C   0  0  0  0  0  0
  -25.5928  -33.8466   24.2101 N   0  0  0  0  0  0
  -23.4470  -30.4536   21.5283 C   0  0  2  0  0  0
  -24.9012  -28.8732   20.1018 C   0  0  0  0  0  0
  -22.7537  -29.4481   22.4834 C   0  0  0  0  0  0
  -18.0305  -28.1336   22.8512 C   0  0  0  0  0  0
  -24.1495  -36.7237   23.2645 C   0  0  0  0  0  0
  -26.0036  -30.7029   21.3843 C   0  0  0  0  0  0
  -26.0759  -29.3126   20.7213 C   0  0  0  0  0  0
  -27.2353  -28.4473   20.7234 C   0  0  0  0  0  0
  -26.0266  -26.7773   19.4757 C   0  0  0  0  0  0
  -24.8892  -27.6197   19.4659 C   0  0  0  0  0  0
  -23.6722  -29.7731   20.1510 C   0  0  0  0  0  0
  -25.4135  -36.3000   24.0299 C   0  0  1  0  0  0
  -20.5920  -28.3627   23.1243 C   0  0  2  0  0  0
  -20.6770  -26.9331   22.5404 C   0  0  0  0  0  0
  -19.5752  -26.6332   21.5198 C   0  0  0  0  0  0
  -18.1939  -26.7881   22.1620 C   0  0  0  0  0  0
  -19.1569  -28.8813   23.2870 C   0  0  0  0  0  0
  -18.9473  -30.1423   23.8865 C   0  0  0  0  0  0
  -17.6474  -30.6558   24.0534 C   0  0  0  0  0  0
  -25.9075  -34.9381   23.5009 C   0  0  0  0  0  0
  -16.5365  -29.9030   23.6352 C   0  0  0  0  0  0
  -16.7294  -28.6440   23.0399 C   0  0  0  0  0  0
  -26.4515  -31.6553   25.0674 C   0  0  0  0  0  0
  -25.3682  -31.3788   26.1357 C   0  0  0  0  0  0
  -27.0370  -30.2938   24.6281 C   0  0  0  0  0  0
  -27.6009  -32.4334   25.7484 C   0  0  0  0  0  0
  -27.5579  -37.1773   24.8457 C   0  0  0  0  0  0
  -21.4231  -29.2966   22.3593 N   0  0  0  0  0  0
  -26.4283  -37.3731   23.9408 N   0  0  0  0  0  0
  -24.7174  -31.0193   22.0867 N   0  0  0  0  0  0
  -23.4188  -28.8035   23.2978 O   0  0  0  0  0  0
  -28.2995  -26.1436   20.2373 O   0  0  0  0  0  0
  -26.5673  -34.8896   22.4590 O   0  0  0  0  0  0
  -23.5536  -32.1268   23.7014 O   0  0  0  0  0  0
  -31.1204  -19.4637   20.1492 C   0  0  0  0  0  0
  -28.8645  -20.3360   20.1891 C   0  0  0  0  0  0
  -29.7556  -19.1304   20.1591 C   0  0  0  0  0  0
  -31.5865  -20.8004   20.1659 C   0  0  0  0  0  0
  -29.2877  -21.7759   20.2491 C   0  0  0  0  0  0
  -30.7072  -21.9224   20.2739 C   0  0  0  0  0  0
  -33.0940  -20.9941   20.0346 C   0  0  0  0  0  0
  -31.3320  -23.3001   20.4662 C   0  0  0  0  0  0
  -28.3294  -23.1458   20.4521 C   0  0  0  0  0  0
  -29.3969  -17.5318   19.8562 C   0  0  0  0  0  0
  -28.3968  -24.6737   19.6769 C   0  0  0  0  0  0
  -29.7045  -16.1563   20.6093 N   0  0  0  0  0  0
  -31.4896  -12.7685   19.2128 H   0  0  0  0  0  0
  -30.4573  -11.6530   20.0536 H   0  0  0  0  0  0
  -29.8689  -11.7286   17.6162 H   0  0  0  0  0  0
  -29.6597  -13.4655   17.7001 H   0  0  0  0  0  0
  -27.9144  -11.3039   18.9138 H   0  0  0  0  0  0
  -27.4324  -12.5480   17.7874 H   0  0  0  0  0  0
  -27.6072  -14.2721   19.4368 H   0  0  0  0  0  0
  -28.7727  -12.2893   21.4390 H   0  0  0  0  0  0
  -28.3729  -13.9587   21.7792 H   0  0  0  0  0  0
  -25.2796   -9.5708   22.4763 H   0  0  0  0  0  0
  -24.0023   -7.4677   22.7486 H   0  0  0  0  0  0
  -21.0878   -8.8823   19.8965 H   0  0  0  0  0  0
  -22.3746  -10.9702   19.6146 H   0  0  0  0  0  0
  -21.1986   -7.6157   23.9707 H   0  0  0  0  0  0
  -21.1473   -6.0514   25.9071 H   0  0  0  0  0  0
  -22.0609   -2.7623   23.2803 H   0  0  0  0  0  0
  -22.4038  -11.9946   22.4841 H   0  0  0  0  0  0
  -21.1045  -13.1273   22.2451 H   0  0  0  0  0  0
  -24.6589  -15.8540   20.5330 H   0  0  0  0  0  0
  -26.2600  -15.6294   20.0402 H   0  0  0  0  0  0
  -26.7226  -32.5233   23.0892 H   0  0  0  0  0  0
  -25.0041  -33.9580   25.0222 H   0  0  0  0  0  0
  -22.7522  -31.2822   21.3687 H   0  0  0  0  0  0
  -23.3760  -35.9564   23.3277 H   0  0  0  0  0  0
  -24.3579  -36.8910   22.2071 H   0  0  0  0  0  0
  -23.7248  -37.6421   23.6704 H   0  0  0  0  0  0
  -26.1630  -31.4635   20.6196 H   0  0  0  0  0  0
  -26.8721  -30.7502   22.0299 H   0  0  0  0  0  0
  -28.1295  -28.7801   21.2325 H   0  0  0  0  0  0
  -25.9350  -25.8160   18.9950 H   0  0  0  0  0  0
  -23.9911  -27.2749   18.9731 H   0  0  0  0  0  0
  -23.7905  -30.5436   19.3882 H   0  0  0  0  0  0
  -22.7902  -29.2030   19.8518 H   0  0  0  0  0  0
  -25.1335  -36.1814   25.0798 H   0  0  0  0  0  0
  -21.0056  -28.3196   24.1342 H   0  0  0  0  0  0
  -20.5603  -26.2233   23.3604 H   0  0  0  0  0  0
  -21.6635  -26.7289   22.1221 H   0  0  0  0  0  0
  -19.6890  -25.6235   21.1225 H   0  0  0  0  0  0
  -19.6710  -27.3144   20.6733 H   0  0  0  0  0  0
  -17.4208  -26.6655   21.4024 H   0  0  0  0  0  0
  -18.0321  -26.0001   22.8997 H   0  0  0  0  0  0
  -19.7963  -30.7251   24.2197 H   0  0  0  0  0  0
  -17.5028  -31.6267   24.5069 H   0  0  0  0  0  0
  -15.5346  -30.2902   23.7693 H   0  0  0  0  0  0
  -15.8700  -28.0722   22.7131 H   0  0  0  0  0  0
  -24.5849  -30.7150   25.7685 H   0  0  0  0  0  0
  -24.8896  -32.3001   26.4686 H   0  0  0  0  0  0
  -25.7961  -30.9031   27.0188 H   0  0  0  0  0  0
  -26.2997  -29.6661   24.1265 H   0  0  0  0  0  0
  -27.3935  -29.7255   25.4880 H   0  0  0  0  0  0
  -27.8924  -30.4152   23.9629 H   0  0  0  0  0  0
  -27.2554  -33.3642   26.1991 H   0  0  0  0  0  0
  -28.3876  -32.6880   25.0370 H   0  0  0  0  0  0
  -28.0589  -31.8502   26.5478 H   0  0  0  0  0  0
  -28.2551  -38.0110   24.7515 H   0  0  0  0  0  0
  -28.1115  -36.2631   24.6259 H   0  0  0  0  0  0
  -27.2286  -37.1382   25.8853 H   0  0  0  0  0  0
  -20.9367  -29.8724   21.6860 H   0  0  0  0  0  0
  -26.0135  -38.2792   24.1426 H   0  0  0  0  0  0
  -31.8398  -18.6608   20.0657 H   0  0  0  0  0  0
  -27.7998  -20.1405   20.1654 H   0  0  0  0  0  0
  -33.5594  -20.1421   19.5361 H   0  0  0  0  0  0
  -33.5709  -21.1055   21.0094 H   0  0  0  0  0  0
  -33.3336  -21.8652   19.4237 H   0  0  0  0  0  0
  -32.2380  -23.2359   21.0655 H   0  0  0  0  0  0
  -30.6845  -23.9784   21.0158 H   0  0  0  0  0  0
  -31.5964  -23.7501   19.5092 H   0  0  0  0  0  0
  -28.3961  -23.3614   21.5179 H   0  0  0  0  0  0
  -27.3010  -22.8060   20.3287 H   0  0  0  0  0  0
  -29.7647  -17.3690   18.8403 H   0  0  0  0  0  0
  -28.3128  -17.5264   19.7314 H   0  0  0  0  0  0
  -27.7556  -24.6134   18.7982 H   0  0  0  0  0  0
  -29.3860  -24.6946   19.2249 H   0  0  0  0  0  0
  -28.8971  -15.8846   21.1497 H   0  0  0  0  0  0
  1 25  1  0  0  0
  1 30  2  0  0  0
  1 82  1  0  0  0
  2  3  1  0  0  0
  2 25  1  0  0  0
  2 83  1  0  0  0
  2 84  1  0  0  0
  3  4  1  0  0  0
  3 85  1  0  0  0
  3 86  1  0  0  0
  4  5  1  0  0  0
  4 87  1  0  0  0
  4 88  1  0  0  0
  5  6  1  0  0  0
  5 26  1  0  0  0
  5 89  1  0  0  0
  6 25  1  0  0  0
  6 90  1  0  0  0
  6 91  1  0  0  0
  7  8  2  0  0  0
  7 26  1  0  0  0
  7 29  1  0  0  0
  8  9  1  0  0  0
  8 22  1  0  0  0
  9 10  1  0  0  0
  9 27  2  0  0  0
 10 11  2  0  0  0
 10 15  1  0  0  0
 11 12  1  0  0  0
 11 92  1  0  0  0
 12 13  2  0  0  0
 12 93  1  0  0  0
 13 14  1  0  0  0
 13 31  1  0  0  0
 14 15  2  0  0  0
 14 94  1  0  0  0
 15 95  1  0  0  0
 16 17  2  0  0  0
 16 21  1  0  0  0
 16 31  1  0  0  0
 17 18  1  0  0  0
 17 96  1  0  0  0
 18 19  2  0  0  0
 18 97  1  0  0  0
 19 20  1  0  0  0
 19 24  1  0  0  0
 20 21  2  0  0  0
 20 98  1  0  0  0
 21 23  1  0  0  0
 22 28  1  0  0  0
 22 32  2  0  0  0
 26 27  1  0  0  0
 28 99  1  0  0  0
 28100  1  0  0  0
 29101  1  0  0  0
 29102  1  0  0  0
 33 34  1  0  0  0
 33 66  1  0  0  0
 33 70  2  0  0  0
 34 36  1  0  0  0
 34 59  1  0  0  0
 34103  1  0  0  0
 35 44  2  0  0  0
 35 45  1  0  0  0
 35 68  1  0  0  0
 36 56  1  0  0  0
 36104  1  0  0  0
 37 39  1  0  0  0
 37 47  1  0  0  0
 37 66  1  0  0  0
 37105  1  0  0  0
 38 43  2  0  0  0
 38 46  1  0  0  0
 38 47  1  0  0  0
 39 64  1  0  0  0
 39 67  2  0  0  0
 40 52  1  0  0  0
 40 53  2  0  0  0
 40 58  1  0  0  0
 41106  1  0  0  0
 41107  1  0  0  0
 41108  1  0  0  0
 41 48  1  0  0  0
 42 43  1  0  0  0
 42 66  1  0  0  0
 42109  1  0  0  0
 42110  1  0  0  0
 43 44  1  0  0  0
 44111  1  0  0  0
 45 46  2  0  0  0
 45112  1  0  0  0
 46113  1  0  0  0
 47114  1  0  0  0
 47115  1  0  0  0
 48 56  1  0  0  0
 48 65  1  0  0  0
 48116  1  0  0  0
 49 50  1  0  0  0
 49 53  1  0  0  0
 49 64  1  0  0  0
 49117  1  0  0  0
 50 51  1  0  0  0
 50118  1  0  0  0
 50119  1  0  0  0
 51 52  1  0  0  0
 51120  1  0  0  0
 51121  1  0  0  0
 52122  1  0  0  0
 52123  1  0  0  0
 53 54  1  0  0  0
 54 55  2  0  0  0
 54124  1  0  0  0
 55 57  1  0  0  0
 55125  1  0  0  0
 56 69  2  0  0  0
 57 58  2  0  0  0
 57126  1  0  0  0
 58127  1  0  0  0
 59 60  1  0  0  0
 59 61  1  0  0  0
 59 62  1  0  0  0
 60128  1  0  0  0
 60129  1  0  0  0
 60130  1  0  0  0
 61131  1  0  0  0
 61132  1  0  0  0
 61133  1  0  0  0
 62134  1  0  0  0
 62135  1  0  0  0
 62136  1  0  0  0
 63 65  1  0  0  0
 63137  1  0  0  0
 63138  1  0  0  0
 63139  1  0  0  0
 64140  1  0  0  0
 65141  1  0  0  0
 68 81  1  0  0  0
 71 73  2  0  0  0
 71 74  1  0  0  0
 71142  1  0  0  0
 72 73  1  0  0  0
 72 75  2  0  0  0
 72143  1  0  0  0
 73 80  1  0  0  0
 74 76  2  0  0  0
 74 77  1  0  0  0
 75 76  1  0  0  0
 75 79  1  0  0  0
 76 78  1  0  0  0
 77144  1  0  0  0
 77145  1  0  0  0
 77146  1  0  0  0
 78147  1  0  0  0
 78148  1  0  0  0
 78149  1  0  0  0
 79 81  1  0  0  0
 79150  1  0  0  0
 79151  1  0  0  0
 80 82  1  0  0  0
 80152  1  0  0  0
 80153  1  0  0  0
 81154  1  0  0  0
 81155  1  0  0  0
 82156  1  0  0  0
M  ISO  4   1 100  68 101  81 101  82 100
M  END
> <chiral flag>
0

> <version>
0

> <s_m_source_file>
/data/baiqing/PycharmProjects/Reinvent-master-3.2/result/LINK_invent/BTK/process_docking_weight1_custom_sum_contain_oxygen_bond_distance_aromatic_linkinvent_7_9_3/rearranged_h_0034.sdf

> <i_m_source_file_index>
69

> <r_mmod_Potential_Energy-OPLS-2005>
611.40869140625

> <r_mmod_Stretch_Energy-OPLS-2005>
310.21826171875

> <r_mmod_Bend_Energy-OPLS-2005>
330.798492431641

> <r_mmod_Torsional_Energy-OPLS-2005>
240.214462280273

> <r_mmod_Improper_Torsional_Energy-OPLS-2005>
8.43454074859619

> <r_mmod_Van_der_Waal_Energy-OPLS-2005>
133.958419799805

> <r_mmod_Electrostatic_Energy-OPLS-2005>
-411.434265136719

> <r_mmod_Solvation_Energy-OPLS-2005>
-219.389877319336

> <b_mmod_Minimization_Converged-OPLS-2005>
0

> <r_mmod_RMS_Derivative-OPLS-2005>
3.94578146934509

$$$$
71
                    3D
 Structure written by MMmdl.
167175  0  0  1  0            999 V2000
  -30.7461  -14.3575   20.6740 C   0  0  0  0  0  0
  -30.4167  -12.2867   19.3745 C   0  0  0  0  0  0
  -29.4794  -12.5478   18.1798 C   0  0  0  0  0  0
  -28.0019  -12.4074   18.5977 C   0  0  0  0  0  0
  -27.6694  -13.2011   19.8895 C   0  0  2  0  0  0
  -28.7103  -12.9042   20.9900 C   0  0  0  0  0  0
  -25.2621  -13.8147   20.5655 C   0  0  0  0  0  0
  -24.1870  -13.0440   20.9148 C   0  0  0  0  0  0
  -24.6417  -11.6905   20.8735 C   0  0  0  0  0  0
  -23.9097  -10.4285   21.0402 C   0  0  0  0  0  0
  -24.3643   -9.4185   21.9169 C   0  0  0  0  0  0
  -23.6301   -8.2241   22.0744 C   0  0  0  0  0  0
  -22.4276   -8.0295   21.3550 C   0  0  0  0  0  0
  -21.9930   -9.0273   20.4651 C   0  0  0  0  0  0
  -22.7274  -10.2135   20.3052 C   0  0  0  0  0  0
  -21.6848   -6.0747   22.5279 C   0  0  0  0  0  0
  -21.4019   -6.5650   23.8214 C   0  0  0  0  0  0
  -21.3661   -5.6803   24.9169 C   0  0  0  0  0  0
  -21.6027   -4.3067   24.7223 C   0  0  0  0  0  0
  -21.8821   -3.8160   23.4345 C   0  0  0  0  0  0
  -21.9191   -4.6978   22.3395 C   0  0  0  0  0  0
  -22.7892  -13.5228   21.1840 C   0  0  0  0  0  0
  -22.1659   -4.2159   21.0976 F   0  0  0  0  0  0
  -21.5617   -3.4548   25.7732 F   0  0  0  0  0  0
  -30.0507  -13.2152   20.4507 N   0  0  0  0  0  0
  -26.3073  -12.9321   20.3434 N   0  0  0  0  0  0
  -25.9347  -11.6478   20.5785 N   0  0  0  0  0  0
  -22.0573  -12.8207   22.0406 N   0  0  0  0  0  0
  -25.4359  -15.1853   20.4041 N   0  0  0  0  0  0
  -31.7909  -14.6613   20.0869 O   0  0  0  0  0  0
  -21.6648   -6.8887   21.4237 O   0  0  0  0  0  0
  -22.3556  -14.5538   20.6697 O   0  0  0  0  0  0
  -24.6140  -31.8700   23.2118 C   0  0  0  0  0  0
  -25.9058  -32.4808   23.8417 C   0  0  1  0  0  0
  -27.2249  -27.4551   20.0733 C   0  0  0  0  0  0
  -25.5943  -33.8609   24.2341 N   0  0  0  0  0  0
  -23.3989  -30.4995   21.5553 C   0  0  2  0  0  0
  -24.8380  -28.9664   20.1246 C   0  0  0  0  0  0
  -22.7391  -29.4712   22.5019 C   0  0  0  0  0  0
  -18.0254  -28.1371   22.8484 C   0  0  0  0  0  0
  -24.1496  -36.7306   23.2638 C   0  0  0  0  0  0
  -25.9290  -30.8416   21.3601 C   0  0  0  0  0  0
  -26.0026  -29.4757   20.7126 C   0  0  0  0  0  0
  -27.1998  -28.7262   20.6878 C   0  0  0  0  0  0
  -26.0499  -26.9728   19.4617 C   0  0  0  0  0  0
  -24.8534  -27.7087   19.5037 C   0  0  0  0  0  0
  -23.6028  -29.8346   20.1702 C   0  0  0  0  0  0
  -25.4113  -36.3094   24.0333 C   0  0  1  0  0  0
  -20.5843  -28.3687   23.1309 C   0  0  2  0  0  0
  -20.6775  -26.9423   22.5429 C   0  0  0  0  0  0
  -19.5771  -26.6372   21.5228 C   0  0  0  0  0  0
  -18.1940  -26.7910   22.1631 C   0  0  0  0  0  0
  -19.1494  -28.8851   23.2900 C   0  0  0  0  0  0
  -18.9405  -30.1447   23.8915 C   0  0  0  0  0  0
  -17.6399  -30.6581   24.0557 C   0  0  0  0  0  0
  -25.9056  -34.9457   23.5118 C   0  0  0  0  0  0
  -16.5299  -29.9077   23.6310 C   0  0  0  0  0  0
  -16.7230  -28.6499   23.0319 C   0  0  0  0  0  0
  -26.4491  -31.6574   25.0733 C   0  0  0  0  0  0
  -25.3781  -31.3684   26.1505 C   0  0  0  0  0  0
  -27.0316  -30.3026   24.6066 C   0  0  0  0  0  0
  -27.6078  -32.4285   25.7501 C   0  0  0  0  0  0
  -27.5574  -37.1807   24.8471 C   0  0  0  0  0  0
  -21.4130  -29.3033   22.3703 N   0  0  0  0  0  0
  -26.4285  -37.3782   23.9422 N   0  0  0  0  0  0
  -24.6664  -31.0842   22.1001 N   0  0  0  0  0  0
  -23.4164  -28.8260   23.3081 O   0  0  0  0  0  0
  -28.3880  -26.7210   20.0434 O   0  0  0  0  0  0
  -26.5605  -34.8919   22.4677 O   0  0  0  0  0  0
  -23.5342  -32.1424   23.7562 O   0  0  0  0  0  0
  -26.5545  -21.1403   20.5830 C   0  0  0  0  0  0
  -26.5029  -22.8928   22.2455 C   0  0  0  0  0  0
  -26.5769  -22.5158   20.8918 C   0  0  0  0  0  0
  -26.4608  -20.2048   21.6292 C   0  0  0  0  0  0
  -26.4019  -20.6885   22.9567 C   0  0  0  0  0  0
  -26.5922  -23.5635   19.7886 C   0  0  0  0  0  0
  -26.2858  -19.7684   24.1657 C   0  0  0  0  0  0
  -27.9466  -24.2856   19.5682 C   0  0  0  0  0  0
  -27.5740  -19.6802   25.0142 C   0  0  0  0  0  0
  -28.4259  -18.4283   24.7471 C   0  0  0  0  0  0
  -29.2673  -18.4859   23.4552 C   0  0  0  0  0  0
  -29.4727  -17.0428   22.8962 C   0  0  0  0  0  0
  -30.6397  -16.4592   22.0379 C   0  0  0  0  0  0
  -28.3063  -25.3966   20.5894 C   0  0  0  0  0  0
  -26.4162  -22.0074   23.2554 N   0  0  0  0  0  0
  -30.1906  -15.1523   21.5899 N   0  0  0  0  0  0
  -26.4362  -18.5175   21.2510 Cl  0  0  0  0  0  0
  -31.4554  -12.4062   19.0636 H   0  0  0  0  0  0
  -30.3214  -11.2554   19.7184 H   0  0  0  0  0  0
  -29.7036  -11.8590   17.3645 H   0  0  0  0  0  0
  -29.6531  -13.5502   17.7854 H   0  0  0  0  0  0
  -27.7870  -11.3487   18.7407 H   0  0  0  0  0  0
  -27.3552  -12.7447   17.7855 H   0  0  0  0  0  0
  -27.7372  -14.2619   19.6502 H   0  0  0  0  0  0
  -28.6746  -11.8511   21.2716 H   0  0  0  0  0  0
  -28.4610  -13.4388   21.9064 H   0  0  0  0  0  0
  -25.2803   -9.5635   22.4730 H   0  0  0  0  0  0
  -24.0010   -7.4615   22.7456 H   0  0  0  0  0  0
  -21.0862   -8.8812   19.8952 H   0  0  0  0  0  0
  -22.3759  -10.9684   19.6167 H   0  0  0  0  0  0
  -21.2029   -7.6166   23.9708 H   0  0  0  0  0  0
  -21.1474   -6.0543   25.9065 H   0  0  0  0  0  0
  -22.0599   -2.7630   23.2844 H   0  0  0  0  0  0
  -22.4255  -11.9879   22.4774 H   0  0  0  0  0  0
  -21.1182  -13.1181   22.2639 H   0  0  0  0  0  0
  -24.6847  -15.8515   20.5393 H   0  0  0  0  0  0
  -26.3109  -15.6302   20.1562 H   0  0  0  0  0  0
  -26.7158  -32.5533   23.1223 H   0  0  0  0  0  0
  -25.0128  -33.9753   25.0502 H   0  0  0  0  0  0
  -22.6863  -31.3152   21.4207 H   0  0  0  0  0  0
  -23.3727  -35.9668   23.3305 H   0  0  0  0  0  0
  -24.3598  -36.8906   22.2052 H   0  0  0  0  0  0
  -23.7267  -37.6522   23.6642 H   0  0  0  0  0  0
  -26.0369  -31.5987   20.5802 H   0  0  0  0  0  0
  -26.8195  -30.8973   21.9758 H   0  0  0  0  0  0
  -28.1024  -29.1140   21.1386 H   0  0  0  0  0  0
  -26.0522  -26.0524   18.9050 H   0  0  0  0  0  0
  -23.9621  -27.3155   19.0360 H   0  0  0  0  0  0
  -23.7232  -30.6110   19.4137 H   0  0  0  0  0  0
  -22.7225  -29.2641   19.8667 H   0  0  0  0  0  0
  -25.1277  -36.1948   25.0815 H   0  0  0  0  0  0
  -20.9915  -28.3268   24.1435 H   0  0  0  0  0  0
  -20.5685  -26.2313   23.3635 H   0  0  0  0  0  0
  -21.6650  -26.7491   22.1221 H   0  0  0  0  0  0
  -19.6930  -25.6282   21.1277 H   0  0  0  0  0  0
  -19.6708  -27.3159   20.6749 H   0  0  0  0  0  0
  -17.4197  -26.6592   21.4045 H   0  0  0  0  0  0
  -18.0378  -26.0079   22.9081 H   0  0  0  0  0  0
  -19.7868  -30.7269   24.2284 H   0  0  0  0  0  0
  -17.4928  -31.6244   24.5168 H   0  0  0  0  0  0
  -15.5292  -30.2966   23.7627 H   0  0  0  0  0  0
  -15.8633  -28.0830   22.7001 H   0  0  0  0  0  0
  -24.5960  -30.7010   25.7867 H   0  0  0  0  0  0
  -24.8984  -32.2846   26.4966 H   0  0  0  0  0  0
  -25.8167  -30.8869   27.0262 H   0  0  0  0  0  0
  -26.2844  -29.6814   24.1124 H   0  0  0  0  0  0
  -27.4113  -29.7225   25.4490 H   0  0  0  0  0  0
  -27.8668  -30.4352   23.9187 H   0  0  0  0  0  0
  -27.2691  -33.3576   26.2118 H   0  0  0  0  0  0
  -28.3885  -32.6864   25.0321 H   0  0  0  0  0  0
  -28.0765  -31.8392   26.5399 H   0  0  0  0  0  0
  -28.2596  -38.0099   24.7497 H   0  0  0  0  0  0
  -28.1062  -36.2621   24.6312 H   0  0  0  0  0  0
  -27.2306  -37.1488   25.8882 H   0  0  0  0  0  0
  -20.9324  -29.8649   21.6809 H   0  0  0  0  0  0
  -26.0161  -38.2854   24.1419 H   0  0  0  0  0  0
  -26.5973  -20.7987   19.5578 H   0  0  0  0  0  0
  -26.4942  -23.9316   22.5364 H   0  0  0  0  0  0
  -25.7918  -24.2686   20.0079 H   0  0  0  0  0  0
  -26.3065  -23.0789   18.8556 H   0  0  0  0  0  0
  -25.9478  -18.7735   23.8771 H   0  0  0  0  0  0
  -25.4811  -20.1658   24.7861 H   0  0  0  0  0  0
  -28.7410  -23.5398   19.5347 H   0  0  0  0  0  0
  -27.9464  -24.7304   18.5729 H   0  0  0  0  0  0
  -27.2634  -19.6255   26.0576 H   0  0  0  0  0  0
  -28.1691  -20.5909   24.9315 H   0  0  0  0  0  0
  -27.7704  -17.5554   24.7380 H   0  0  0  0  0  0
  -29.0994  -18.2723   25.5922 H   0  0  0  0  0  0
  -28.7627  -19.1562   22.7559 H   0  0  0  0  0  0
  -30.2132  -19.0030   23.6520 H   0  0  0  0  0  0
  -29.2176  -17.5173   21.9481 H   0  0  0  0  0  0
  -30.2259  -17.0406   23.6843 H   0  0  0  0  0  0
  -30.9168  -17.0745   21.1738 H   0  0  0  0  0  0
  -31.5828  -16.3057   22.5744 H   0  0  0  0  0  0
  -29.2879  -25.1716   21.0098 H   0  0  0  0  0  0
  -27.6218  -25.4026   21.4374 H   0  0  0  0  0  0
  -29.3219  -14.8244   21.9832 H   0  0  0  0  0  0
  1 25  1  0  0  0
  1 30  2  0  0  0
  1 86  1  0  0  0
  2  3  1  0  0  0
  2 25  1  0  0  0
  2 88  1  0  0  0
  2 89  1  0  0  0
  3  4  1  0  0  0
  3 90  1  0  0  0
  3 91  1  0  0  0
  4  5  1  0  0  0
  4 92  1  0  0  0
  4 93  1  0  0  0
  5  6  1  0  0  0
  5 26  1  0  0  0
  5 94  1  0  0  0
  6 25  1  0  0  0
  6 95  1  0  0  0
  6 96  1  0  0  0
  7  8  2  0  0  0
  7 26  1  0  0  0
  7 29  1  0  0  0
  8  9  1  0  0  0
  8 22  1  0  0  0
  9 10  1  0  0  0
  9 27  2  0  0  0
 10 11  2  0  0  0
 10 15  1  0  0  0
 11 12  1  0  0  0
 11 97  1  0  0  0
 12 13  2  0  0  0
 12 98  1  0  0  0
 13 14  1  0  0  0
 13 31  1  0  0  0
 14 15  2  0  0  0
 14 99  1  0  0  0
 15100  1  0  0  0
 16 17  2  0  0  0
 16 21  1  0  0  0
 16 31  1  0  0  0
 17 18  1  0  0  0
 17101  1  0  0  0
 18 19  2  0  0  0
 18102  1  0  0  0
 19 20  1  0  0  0
 19 24  1  0  0  0
 20 21  2  0  0  0
 20103  1  0  0  0
 21 23  1  0  0  0
 22 28  1  0  0  0
 22 32  2  0  0  0
 26 27  1  0  0  0
 28104  1  0  0  0
 28105  1  0  0  0
 29106  1  0  0  0
 29107  1  0  0  0
 33 34  1  0  0  0
 33 66  1  0  0  0
 33 70  2  0  0  0
 34 36  1  0  0  0
 34 59  1  0  0  0
 34108  1  0  0  0
 35 44  2  0  0  0
 35 45  1  0  0  0
 35 68  1  0  0  0
 36 56  1  0  0  0
 36109  1  0  0  0
 37 39  1  0  0  0
 37 47  1  0  0  0
 37 66  1  0  0  0
 37110  1  0  0  0
 38 43  2  0  0  0
 38 46  1  0  0  0
 38 47  1  0  0  0
 39 64  1  0  0  0
 39 67  2  0  0  0
 40 52  1  0  0  0
 40 53  2  0  0  0
 40 58  1  0  0  0
 41111  1  0  0  0
 41112  1  0  0  0
 41113  1  0  0  0
 41 48  1  0  0  0
 42 43  1  0  0  0
 42 66  1  0  0  0
 42114  1  0  0  0
 42115  1  0  0  0
 43 44  1  0  0  0
 44116  1  0  0  0
 45 46  2  0  0  0
 45117  1  0  0  0
 46118  1  0  0  0
 47119  1  0  0  0
 47120  1  0  0  0
 48 56  1  0  0  0
 48 65  1  0  0  0
 48121  1  0  0  0
 49 50  1  0  0  0
 49 53  1  0  0  0
 49 64  1  0  0  0
 49122  1  0  0  0
 50 51  1  0  0  0
 50123  1  0  0  0
 50124  1  0  0  0
 51 52  1  0  0  0
 51125  1  0  0  0
 51126  1  0  0  0
 52127  1  0  0  0
 52128  1  0  0  0
 53 54  1  0  0  0
 54 55  2  0  0  0
 54129  1  0  0  0
 55 57  1  0  0  0
 55130  1  0  0  0
 56 69  2  0  0  0
 57 58  2  0  0  0
 57131  1  0  0  0
 58132  1  0  0  0
 59 60  1  0  0  0
 59 61  1  0  0  0
 59 62  1  0  0  0
 60133  1  0  0  0
 60134  1  0  0  0
 60135  1  0  0  0
 61136  1  0  0  0
 61137  1  0  0  0
 61138  1  0  0  0
 62139  1  0  0  0
 62140  1  0  0  0
 62141  1  0  0  0
 63 65  1  0  0  0
 63142  1  0  0  0
 63143  1  0  0  0
 63144  1  0  0  0
 64145  1  0  0  0
 65146  1  0  0  0
 68 84  1  0  0  0
 71 73  2  0  0  0
 71 74  1  0  0  0
 71147  1  0  0  0
 72 73  1  0  0  0
 72 85  2  0  0  0
 72148  1  0  0  0
 73 76  1  0  0  0
 74 75  2  0  0  0
 74 87  1  0  0  0
 75 77  1  0  0  0
 75 85  1  0  0  0
 76 78  1  0  0  0
 76149  1  0  0  0
 76150  1  0  0  0
 77 79  1  0  0  0
 77151  1  0  0  0
 77152  1  0  0  0
 78 84  1  0  0  0
 78153  1  0  0  0
 78154  1  0  0  0
 79 80  1  0  0  0
 79155  1  0  0  0
 79156  1  0  0  0
 80 81  1  0  0  0
 80157  1  0  0  0
 80158  1  0  0  0
 81 82  1  0  0  0
 81159  1  0  0  0
 81160  1  0  0  0
 82 83  1  0  0  0
 82161  1  0  0  0
 82162  1  0  0  0
 83 86  1  0  0  0
 83163  1  0  0  0
 83164  1  0  0  0
 84165  1  0  0  0
 84166  1  0  0  0
 86167  1  0  0  0
M  ISO  4   1 100  68 101  84 101  86 100
M  END
> <chiral flag>
0

> <version>
0

> <s_m_source_file>
/data/baiqing/PycharmProjects/Reinvent-master-3.2/result/LINK_invent/BTK/process_docking_weight1_custom_sum_contain_oxygen_bond_distance_aromatic_linkinvent_7_9_3/rearranged_h_0034.sdf

> <i_m_source_file_index>
70

> <r_mmod_Potential_Energy-OPLS-2005>
135.044998168945

> <r_mmod_Stretch_Energy-OPLS-2005>
35.1800308227539

> <r_mmod_Bend_Energy-OPLS-2005>
331.068267822266

> <r_mmod_Torsional_Energy-OPLS-2005>
244.679748535156

> <r_mmod_Improper_Torsional_Energy-OPLS-2005>
1.93501317501068

> <r_mmod_Van_der_Waal_Energy-OPLS-2005>
170.561233520508

> <r_mmod_Electrostatic_Energy-OPLS-2005>
-450.756072998047

> <r_mmod_Solvation_Energy-OPLS-2005>
-205.34651184082

> <b_mmod_Minimization_Converged-OPLS-2005>
0

> <r_mmod_RMS_Derivative-OPLS-2005>
4.46902084350586

$$$$
72
                    3D
 Structure written by MMmdl.
159167  0  0  1  0            999 V2000
  -30.7617  -14.3590   20.7019 C   0  0  0  0  0  0
  -30.4147  -12.2956   19.3908 C   0  0  0  0  0  0
  -29.4824  -12.5377   18.1896 C   0  0  0  0  0  0
  -28.0073  -12.3852   18.6057 C   0  0  0  0  0  0
  -27.6643  -13.2009   19.8797 C   0  0  2  0  0  0
  -28.7003  -12.9355   20.9935 C   0  0  0  0  0  0
  -25.2592  -13.8159   20.5675 C   0  0  0  0  0  0
  -24.1832  -13.0438   20.9159 C   0  0  0  0  0  0
  -24.6371  -11.6902   20.8708 C   0  0  0  0  0  0
  -23.9036  -10.4296   21.0390 C   0  0  0  0  0  0
  -24.3591   -9.4224   21.9176 C   0  0  0  0  0  0
  -23.6276   -8.2254   22.0757 C   0  0  0  0  0  0
  -22.4260   -8.0276   21.3548 C   0  0  0  0  0  0
  -21.9890   -9.0240   20.4642 C   0  0  0  0  0  0
  -22.7204  -10.2129   20.3044 C   0  0  0  0  0  0
  -21.6850   -6.0725   22.5282 C   0  0  0  0  0  0
  -21.4018   -6.5630   23.8210 C   0  0  0  0  0  0
  -21.3667   -5.6790   24.9176 C   0  0  0  0  0  0
  -21.6047   -4.3049   24.7228 C   0  0  0  0  0  0
  -21.8817   -3.8140   23.4349 C   0  0  0  0  0  0
  -21.9188   -4.6954   22.3403 C   0  0  0  0  0  0
  -22.7860  -13.5252   21.1824 C   0  0  0  0  0  0
  -22.1657   -4.2134   21.0984 F   0  0  0  0  0  0
  -21.5631   -3.4540   25.7745 F   0  0  0  0  0  0
  -30.0434  -13.2331   20.4604 N   0  0  0  0  0  0
  -26.3023  -12.9311   20.3367 N   0  0  0  0  0  0
  -25.9293  -11.6472   20.5727 N   0  0  0  0  0  0
  -22.0492  -12.8246   22.0377 N   0  0  0  0  0  0
  -25.4333  -15.1876   20.4103 N   0  0  0  0  0  0
  -31.7780  -14.6661   20.0716 O   0  0  0  0  0  0
  -21.6641   -6.8863   21.4237 O   0  0  0  0  0  0
  -22.3558  -14.5561   20.6676 O   0  0  0  0  0  0
  -24.6132  -31.8691   23.2100 C   0  0  0  0  0  0
  -25.9040  -32.4816   23.8379 C   0  0  1  0  0  0
  -27.2384  -27.4558   20.0731 C   0  0  0  0  0  0
  -25.5912  -33.8615   24.2324 N   0  0  0  0  0  0
  -23.3979  -30.4938   21.5497 C   0  0  2  0  0  0
  -24.8409  -28.9563   20.1166 C   0  0  0  0  0  0
  -22.7381  -29.4694   22.4998 C   0  0  0  0  0  0
  -18.0270  -28.1396   22.8507 C   0  0  0  0  0  0
  -24.1510  -36.7327   23.2642 C   0  0  0  0  0  0
  -25.9252  -30.8369   21.3599 C   0  0  0  0  0  0
  -25.9993  -29.4710   20.7106 C   0  0  0  0  0  0
  -27.1958  -28.7244   20.6922 C   0  0  0  0  0  0
  -26.0533  -26.9387   19.4982 C   0  0  0  0  0  0
  -24.8609  -27.6865   19.5142 C   0  0  0  0  0  0
  -23.6030  -29.8213   20.1657 C   0  0  0  0  0  0
  -25.4130  -36.3106   24.0335 C   0  0  1  0  0  0
  -20.5855  -28.3687   23.1336 C   0  0  2  0  0  0
  -20.6773  -26.9430   22.5418 C   0  0  0  0  0  0
  -19.5757  -26.6406   21.5219 C   0  0  0  0  0  0
  -18.1924  -26.7951   22.1620 C   0  0  0  0  0  0
  -19.1513  -28.8855   23.2924 C   0  0  0  0  0  0
  -18.9438  -30.1459   23.8939 C   0  0  0  0  0  0
  -17.6445  -30.6611   24.0568 C   0  0  0  0  0  0
  -25.9045  -34.9466   23.5122 C   0  0  0  0  0  0
  -16.5337  -29.9116   23.6327 C   0  0  0  0  0  0
  -16.7258  -28.6523   23.0368 C   0  0  0  0  0  0
  -26.4465  -31.6588   25.0700 C   0  0  0  0  0  0
  -25.3738  -31.3693   26.1454 C   0  0  0  0  0  0
  -27.0269  -30.3027   24.6063 C   0  0  0  0  0  0
  -27.6076  -32.4265   25.7451 C   0  0  0  0  0  0
  -27.5588  -37.1846   24.8476 C   0  0  0  0  0  0
  -21.4113  -29.3053   22.3727 N   0  0  0  0  0  0
  -26.4323  -37.3779   23.9383 N   0  0  0  0  0  0
  -24.6636  -31.0811   22.0983 N   0  0  0  0  0  0
  -23.4161  -28.8246   23.3041 O   0  0  0  0  0  0
  -28.4477  -26.7947   20.0483 O   0  0  0  0  0  0
  -26.5593  -34.8910   22.4675 O   0  0  0  0  0  0
  -23.5335  -32.1436   23.7514 O   0  0  0  0  0  0
  -27.5151  -22.0554   19.8310 C   0  0  0  0  0  0
  -29.0427  -24.0596   21.0702 C   0  0  0  0  0  0
  -28.1856  -21.7679   21.0409 C   0  0  0  0  0  0
  -28.3949  -24.3358   19.8492 C   0  0  0  0  0  0
  -27.6200  -23.3286   19.2347 C   0  0  0  0  0  0
  -28.9380  -22.7895   21.6696 C   0  0  0  0  0  0
  -28.1145  -20.3620   21.6301 C   0  0  0  0  0  0
  -28.6255  -25.6787   19.1736 C   0  0  0  0  0  0
  -30.7696  -17.5809   21.5957 C   0  0  0  0  0  0
  -31.0136  -16.2421   22.3249 C   0  0  0  0  0  0
  -29.3847  -18.2196   21.8390 C   0  0  0  0  0  0
  -30.3193  -15.1016   21.7272 N   0  0  0  0  0  0
  -29.3218  -19.5873   21.2757 N   0  3  0  0  0  0
  -26.9900  -23.5670   18.0597 F   0  0  0  0  0  0
  -29.7807  -22.4948   23.1488 Cl  0  0  0  0  0  0
  -31.4588  -12.3993   19.0889 H   0  0  0  0  0  0
  -30.3122  -11.2702   19.7490 H   0  0  0  0  0  0
  -29.7181  -11.8433   17.3820 H   0  0  0  0  0  0
  -29.6492  -13.5395   17.7897 H   0  0  0  0  0  0
  -27.8159  -11.3257   18.7792 H   0  0  0  0  0  0
  -27.3528  -12.6808   17.7849 H   0  0  0  0  0  0
  -27.7246  -14.2560   19.6132 H   0  0  0  0  0  0
  -28.6645  -11.8891   21.3003 H   0  0  0  0  0  0
  -28.4421  -13.5022   21.8881 H   0  0  0  0  0  0
  -25.2733   -9.5716   22.4751 H   0  0  0  0  0  0
  -23.9985   -7.4663   22.7491 H   0  0  0  0  0  0
  -21.0823   -8.8738   19.8956 H   0  0  0  0  0  0
  -22.3643  -10.9652   19.6152 H   0  0  0  0  0  0
  -21.2016   -7.6140   23.9707 H   0  0  0  0  0  0
  -21.1494   -6.0526   25.9079 H   0  0  0  0  0  0
  -22.0589   -2.7600   23.2856 H   0  0  0  0  0  0
  -22.4082  -11.9890   22.4756 H   0  0  0  0  0  0
  -21.1115  -13.1286   22.2569 H   0  0  0  0  0  0
  -24.6681  -15.8446   20.5184 H   0  0  0  0  0  0
  -26.2887  -15.6235   20.0899 H   0  0  0  0  0  0
  -26.7112  -32.5524   23.1146 H   0  0  0  0  0  0
  -25.0066  -33.9768   25.0471 H   0  0  0  0  0  0
  -22.6856  -31.3099   21.4096 H   0  0  0  0  0  0
  -23.3777  -35.9650   23.3253 H   0  0  0  0  0  0
  -24.3605  -36.9009   22.2067 H   0  0  0  0  0  0
  -23.7260  -37.6510   23.6704 H   0  0  0  0  0  0
  -26.0348  -31.6018   20.5895 H   0  0  0  0  0  0
  -26.8156  -30.8903   21.9745 H   0  0  0  0  0  0
  -28.0955  -29.1275   21.1366 H   0  0  0  0  0  0
  -26.0274  -25.9638   19.0339 H   0  0  0  0  0  0
  -23.9673  -27.2810   19.0599 H   0  0  0  0  0  0
  -23.7048  -30.5920   19.4010 H   0  0  0  0  0  0
  -22.7282  -29.2354   19.8783 H   0  0  0  0  0  0
  -25.1323  -36.1968   25.0833 H   0  0  0  0  0  0
  -20.9959  -28.3260   24.1451 H   0  0  0  0  0  0
  -20.5724  -26.2284   23.3591 H   0  0  0  0  0  0
  -21.6644  -26.7512   22.1186 H   0  0  0  0  0  0
  -19.6922  -25.6322   21.1248 H   0  0  0  0  0  0
  -19.6716  -27.3210   20.6748 H   0  0  0  0  0  0
  -17.4212  -26.6730   21.4007 H   0  0  0  0  0  0
  -18.0308  -26.0079   22.8996 H   0  0  0  0  0  0
  -19.7902  -30.7265   24.2347 H   0  0  0  0  0  0
  -17.4995  -31.6296   24.5162 H   0  0  0  0  0  0
  -15.5341  -30.3036   23.7635 H   0  0  0  0  0  0
  -15.8648  -28.0847   22.7094 H   0  0  0  0  0  0
  -24.5822  -30.7174   25.7744 H   0  0  0  0  0  0
  -24.9041  -32.2860   26.5023 H   0  0  0  0  0  0
  -25.8063  -30.8702   27.0132 H   0  0  0  0  0  0
  -26.2777  -29.6794   24.1164 H   0  0  0  0  0  0
  -27.4085  -29.7272   25.4506 H   0  0  0  0  0  0
  -27.8603  -30.4342   23.9158 H   0  0  0  0  0  0
  -27.2770  -33.3618   26.1976 H   0  0  0  0  0  0
  -28.3912  -32.6715   25.0271 H   0  0  0  0  0  0
  -28.0685  -31.8379   26.5391 H   0  0  0  0  0  0
  -28.2647  -38.0102   24.7444 H   0  0  0  0  0  0
  -28.1046  -36.2623   24.6423 H   0  0  0  0  0  0
  -27.2272  -37.1640   25.8871 H   0  0  0  0  0  0
  -20.9260  -29.8737   21.6927 H   0  0  0  0  0  0
  -26.0211  -38.2875   24.1303 H   0  0  0  0  0  0
  -26.9250  -21.2948   19.3412 H   0  0  0  0  0  0
  -29.6515  -24.8210   21.5357 H   0  0  0  0  0  0
  -27.2276  -19.8470   21.2600 H   0  0  0  0  0  0
  -28.0027  -20.4185   22.7138 H   0  0  0  0  0  0
  -28.0631  -25.7772   18.2445 H   0  0  0  0  0  0
  -29.6705  -25.6904   18.8634 H   0  0  0  0  0  0
  -30.9470  -17.4621   20.5261 H   0  0  0  0  0  0
  -31.5325  -18.2776   21.9456 H   0  0  0  0  0  0
  -30.7162  -16.3244   23.3712 H   0  0  0  0  0  0
  -32.0850  -16.0324   22.3412 H   0  0  0  0  0  0
  -29.1856  -18.2658   22.9108 H   0  0  0  0  0  0
  -28.5984  -17.6027   21.4001 H   0  0  0  0  0  0
  -29.5064  -14.7466   22.2104 H   0  0  0  0  0  0
  -30.1193  -20.1040   21.6090 H   0  0  0  0  0  0
  -29.3865  -19.5350   20.2721 H   0  0  0  0  0  0
  1 25  1  0  0  0
  1 30  2  0  0  0
  1 82  1  0  0  0
  2  3  1  0  0  0
  2 25  1  0  0  0
  2 86  1  0  0  0
  2 87  1  0  0  0
  3  4  1  0  0  0
  3 88  1  0  0  0
  3 89  1  0  0  0
  4  5  1  0  0  0
  4 90  1  0  0  0
  4 91  1  0  0  0
  5  6  1  0  0  0
  5 26  1  0  0  0
  5 92  1  0  0  0
  6 25  1  0  0  0
  6 93  1  0  0  0
  6 94  1  0  0  0
  7  8  2  0  0  0
  7 26  1  0  0  0
  7 29  1  0  0  0
  8  9  1  0  0  0
  8 22  1  0  0  0
  9 10  1  0  0  0
  9 27  2  0  0  0
 10 11  2  0  0  0
 10 15  1  0  0  0
 11 12  1  0  0  0
 11 95  1  0  0  0
 12 13  2  0  0  0
 12 96  1  0  0  0
 13 14  1  0  0  0
 13 31  1  0  0  0
 14 15  2  0  0  0
 14 97  1  0  0  0
 15 98  1  0  0  0
 16 17  2  0  0  0
 16 21  1  0  0  0
 16 31  1  0  0  0
 17 18  1  0  0  0
 17 99  1  0  0  0
 18 19  2  0  0  0
 18100  1  0  0  0
 19 20  1  0  0  0
 19 24  1  0  0  0
 20 21  2  0  0  0
 20101  1  0  0  0
 21 23  1  0  0  0
 22 28  1  0  0  0
 22 32  2  0  0  0
 26 27  1  0  0  0
 28102  1  0  0  0
 28103  1  0  0  0
 29104  1  0  0  0
 29105  1  0  0  0
 33 34  1  0  0  0
 33 66  1  0  0  0
 33 70  2  0  0  0
 34 36  1  0  0  0
 34 59  1  0  0  0
 34106  1  0  0  0
 35 44  2  0  0  0
 35 45  1  0  0  0
 35 68  1  0  0  0
 36 56  1  0  0  0
 36107  1  0  0  0
 37 39  1  0  0  0
 37 47  1  0  0  0
 37 66  1  0  0  0
 37108  1  0  0  0
 38 43  2  0  0  0
 38 46  1  0  0  0
 38 47  1  0  0  0
 39 64  1  0  0  0
 39 67  2  0  0  0
 40 52  1  0  0  0
 40 53  2  0  0  0
 40 58  1  0  0  0
 41109  1  0  0  0
 41110  1  0  0  0
 41111  1  0  0  0
 41 48  1  0  0  0
 42 43  1  0  0  0
 42 66  1  0  0  0
 42112  1  0  0  0
 42113  1  0  0  0
 43 44  1  0  0  0
 44114  1  0  0  0
 45 46  2  0  0  0
 45115  1  0  0  0
 46116  1  0  0  0
 47117  1  0  0  0
 47118  1  0  0  0
 48 56  1  0  0  0
 48 65  1  0  0  0
 48119  1  0  0  0
 49 50  1  0  0  0
 49 53  1  0  0  0
 49 64  1  0  0  0
 49120  1  0  0  0
 50 51  1  0  0  0
 50121  1  0  0  0
 50122  1  0  0  0
 51 52  1  0  0  0
 51123  1  0  0  0
 51124  1  0  0  0
 52125  1  0  0  0
 52126  1  0  0  0
 53 54  1  0  0  0
 54 55  2  0  0  0
 54127  1  0  0  0
 55 57  1  0  0  0
 55128  1  0  0  0
 56 69  2  0  0  0
 57 58  2  0  0  0
 57129  1  0  0  0
 58130  1  0  0  0
 59 60  1  0  0  0
 59 61  1  0  0  0
 59 62  1  0  0  0
 60131  1  0  0  0
 60132  1  0  0  0
 60133  1  0  0  0
 61134  1  0  0  0
 61135  1  0  0  0
 61136  1  0  0  0
 62137  1  0  0  0
 62138  1  0  0  0
 62139  1  0  0  0
 63 65  1  0  0  0
 63140  1  0  0  0
 63141  1  0  0  0
 63142  1  0  0  0
 64143  1  0  0  0
 65144  1  0  0  0
 68 78  1  0  0  0
 71 73  2  0  0  0
 71 75  1  0  0  0
 71145  1  0  0  0
 72 74  1  0  0  0
 72 76  2  0  0  0
 72146  1  0  0  0
 73 76  1  0  0  0
 73 77  1  0  0  0
 74 75  2  0  0  0
 74 78  1  0  0  0
 75 84  1  0  0  0
 76 85  1  0  0  0
 77 83  1  0  0  0
 77147  1  0  0  0
 77148  1  0  0  0
 78149  1  0  0  0
 78150  1  0  0  0
 79 80  1  0  0  0
 79 81  1  0  0  0
 79151  1  0  0  0
 79152  1  0  0  0
 80 82  1  0  0  0
 80153  1  0  0  0
 80154  1  0  0  0
 81 83  1  0  0  0
 81155  1  0  0  0
 81156  1  0  0  0
 82157  1  0  0  0
 83158  1  0  0  0
 83159  1  0  0  0
M  CHG  1  83   1
M  ISO  4   1 100  68 101  78 101  82 100
M  END
> <chiral flag>
0

> <version>
0

> <s_m_source_file>
/data/baiqing/PycharmProjects/Reinvent-master-3.2/result/LINK_invent/BTK/process_docking_weight1_custom_sum_contain_oxygen_bond_distance_aromatic_linkinvent_7_9_3/rearranged_h_0034.sdf

> <i_m_source_file_index>
71

> <r_mmod_Potential_Energy-OPLS-2005>
-309.284973144531

> <r_mmod_Stretch_Energy-OPLS-2005>
32.4532279968262

> <r_mmod_Bend_Energy-OPLS-2005>
93.3358306884766

> <r_mmod_Torsional_Energy-OPLS-2005>
192.418380737305

> <r_mmod_Improper_Torsional_Energy-OPLS-2005>
2.37011051177979

> <r_mmod_Van_der_Waal_Energy-OPLS-2005>
150.068801879883

> <r_mmod_Electrostatic_Energy-OPLS-2005>
-304.568542480469

> <r_mmod_Solvation_Energy-OPLS-2005>
-483.168212890625

> <b_mmod_Minimization_Converged-OPLS-2005>
0

> <r_mmod_RMS_Derivative-OPLS-2005>
1.36412417888641

$$$$
73
                    3D
 Structure written by MMmdl.
162171  0  0  1  0            999 V2000
  -30.7514  -14.4256   20.6389 C   0  0  0  0  0  0
  -30.4169  -12.3092   19.4088 C   0  0  0  0  0  0
  -29.4868  -12.5180   18.1987 C   0  0  0  0  0  0
  -28.0112  -12.3725   18.6156 C   0  0  0  0  0  0
  -27.6624  -13.2089   19.8755 C   0  0  2  0  0  0
  -28.7037  -12.9835   20.9945 C   0  0  0  0  0  0
  -25.2587  -13.8169   20.5680 C   0  0  0  0  0  0
  -24.1837  -13.0442   20.9170 C   0  0  0  0  0  0
  -24.6393  -11.6910   20.8728 C   0  0  0  0  0  0
  -23.9060  -10.4295   21.0399 C   0  0  0  0  0  0
  -24.3612   -9.4212   21.9177 C   0  0  0  0  0  0
  -23.6289   -8.2246   22.0751 C   0  0  0  0  0  0
  -22.4271   -8.0282   21.3542 C   0  0  0  0  0  0
  -21.9905   -9.0255   20.4643 C   0  0  0  0  0  0
  -22.7232  -10.2135   20.3050 C   0  0  0  0  0  0
  -21.6852   -6.0735   22.5279 C   0  0  0  0  0  0
  -21.4014   -6.5639   23.8212 C   0  0  0  0  0  0
  -21.3659   -5.6791   24.9174 C   0  0  0  0  0  0
  -21.6044   -4.3054   24.7224 C   0  0  0  0  0  0
  -21.8819   -3.8146   23.4345 C   0  0  0  0  0  0
  -21.9193   -4.6963   22.3402 C   0  0  0  0  0  0
  -22.7860  -13.5239   21.1838 C   0  0  0  0  0  0
  -22.1661   -4.2149   21.0979 F   0  0  0  0  0  0
  -21.5630   -3.4538   25.7737 F   0  0  0  0  0  0
  -30.0388  -13.2823   20.4462 N   0  0  0  0  0  0
  -26.3027  -12.9342   20.3370 N   0  0  0  0  0  0
  -25.9321  -11.6498   20.5761 N   0  0  0  0  0  0
  -22.0504  -12.8230   22.0397 N   0  0  0  0  0  0
  -25.4319  -15.1885   20.4094 N   0  0  0  0  0  0
  -31.8265  -14.6476   20.0757 O   0  0  0  0  0  0
  -21.6638   -6.8877   21.4240 O   0  0  0  0  0  0
  -22.3543  -14.5545   20.6693 O   0  0  0  0  0  0
  -24.6167  -31.8685   23.2122 C   0  0  0  0  0  0
  -25.9059  -32.4823   23.8407 C   0  0  1  0  0  0
  -27.2216  -27.4185   20.0907 C   0  0  0  0  0  0
  -25.5916  -33.8621   24.2336 N   0  0  0  0  0  0
  -23.4040  -30.4966   21.5539 C   0  0  2  0  0  0
  -24.8472  -28.9730   20.1095 C   0  0  0  0  0  0
  -22.7422  -29.4665   22.4984 C   0  0  0  0  0  0
  -18.0275  -28.1374   22.8488 C   0  0  0  0  0  0
  -24.1489  -36.7313   23.2635 C   0  0  0  0  0  0
  -25.9375  -30.8303   21.3693 C   0  0  0  0  0  0
  -26.0128  -29.4681   20.7081 C   0  0  0  0  0  0
  -27.2044  -28.7005   20.6939 C   0  0  0  0  0  0
  -26.0353  -26.9622   19.4647 C   0  0  0  0  0  0
  -24.8548  -27.7195   19.4833 C   0  0  0  0  0  0
  -23.6110  -29.8399   20.1653 C   0  0  0  0  0  0
  -25.4109  -36.3110   24.0338 C   0  0  1  0  0  0
  -20.5868  -28.3666   23.1310 C   0  0  2  0  0  0
  -20.6767  -26.9401   22.5412 C   0  0  0  0  0  0
  -19.5746  -26.6383   21.5209 C   0  0  0  0  0  0
  -18.1924  -26.7920   22.1620 C   0  0  0  0  0  0
  -19.1525  -28.8836   23.2895 C   0  0  0  0  0  0
  -18.9454  -30.1441   23.8907 C   0  0  0  0  0  0
  -17.6457  -30.6581   24.0564 C   0  0  0  0  0  0
  -25.9038  -34.9474   23.5130 C   0  0  0  0  0  0
  -16.5347  -29.9084   23.6328 C   0  0  0  0  0  0
  -16.7265  -28.6501   23.0348 C   0  0  0  0  0  0
  -26.4479  -31.6599   25.0735 C   0  0  0  0  0  0
  -25.3743  -31.3711   26.1483 C   0  0  0  0  0  0
  -27.0309  -30.3039   24.6118 C   0  0  0  0  0  0
  -27.6055  -32.4315   25.7498 C   0  0  0  0  0  0
  -27.5586  -37.1808   24.8461 C   0  0  0  0  0  0
  -21.4148  -29.3037   22.3721 N   0  0  0  0  0  0
  -26.4294  -37.3796   23.9412 N   0  0  0  0  0  0
  -24.6711  -31.0783   22.1030 N   0  0  0  0  0  0
  -23.4193  -28.8196   23.3017 O   0  0  0  0  0  0
  -28.3628  -26.6263   20.1395 O   0  0  0  0  0  0
  -26.5595  -34.8925   22.4689 O   0  0  0  0  0  0
  -23.5357  -32.1445   23.7512 O   0  0  0  0  0  0
  -29.9696  -21.1948   21.2851 C   0  0  0  0  0  0
  -29.9330  -22.4317   20.6031 C   0  0  0  0  0  0
  -29.6586  -20.0082   20.5828 C   0  0  0  0  0  0
  -29.6105  -22.4297   19.2385 C   0  0  0  0  0  0
  -29.3435  -20.1196   19.2101 C   0  0  0  0  0  0
  -30.1813  -23.7582   21.3160 C   0  0  0  0  0  0
  -29.4403  -23.7424   18.4953 C   0  0  0  0  0  0
  -28.8943  -24.5887   21.5179 C   0  0  0  0  0  0
  -28.1487  -24.4510   18.9290 C   0  0  0  0  0  0
  -28.1427  -25.1989   20.2940 C   0  0  2  0  0  0
  -29.6037  -18.6605   21.3139 C   0  0  0  0  0  0
  -30.8512  -17.7728   21.1080 C   0  0  0  0  0  0
  -30.9090  -16.5117   22.0097 C   0  0  0  0  0  0
  -29.3187  -21.3025   18.5590 N   0  0  0  0  0  0
  -30.2172  -15.3251   21.4827 N   0  0  0  0  0  0
  -28.9413  -18.7162   18.2866 Cl  0  0  0  0  0  0
  -31.4603  -12.4049   19.1032 H   0  0  0  0  0  0
  -30.3167  -11.2948   19.7979 H   0  0  0  0  0  0
  -29.7251  -11.8009   17.4120 H   0  0  0  0  0  0
  -29.6528  -13.5083   17.7715 H   0  0  0  0  0  0
  -27.8241  -11.3156   18.8095 H   0  0  0  0  0  0
  -27.3571  -12.6491   17.7879 H   0  0  0  0  0  0
  -27.7102  -14.2586   19.5845 H   0  0  0  0  0  0
  -28.6765  -11.9463   21.3320 H   0  0  0  0  0  0
  -28.4554  -13.5789   21.8733 H   0  0  0  0  0  0
  -25.2758   -9.5689   22.4748 H   0  0  0  0  0  0
  -24.0002   -7.4638   22.7469 H   0  0  0  0  0  0
  -21.0836   -8.8769   19.8949 H   0  0  0  0  0  0
  -22.3688  -10.9670   19.6156 H   0  0  0  0  0  0
  -21.2006   -7.6147   23.9715 H   0  0  0  0  0  0
  -21.1481   -6.0521   25.9076 H   0  0  0  0  0  0
  -22.0599   -2.7609   23.2845 H   0  0  0  0  0  0
  -22.4119  -11.9892   22.4784 H   0  0  0  0  0  0
  -21.1122  -13.1253   22.2605 H   0  0  0  0  0  0
  -24.6684  -15.8475   20.5169 H   0  0  0  0  0  0
  -26.2913  -15.6252   20.0996 H   0  0  0  0  0  0
  -26.7129  -32.5530   23.1169 H   0  0  0  0  0  0
  -25.0083  -33.9786   25.0491 H   0  0  0  0  0  0
  -22.6927  -31.3144   21.4203 H   0  0  0  0  0  0
  -23.3750  -35.9647   23.3295 H   0  0  0  0  0  0
  -24.3587  -36.8929   22.2049 H   0  0  0  0  0  0
  -23.7242  -37.6519   23.6650 H   0  0  0  0  0  0
  -26.0568  -31.6010   20.6063 H   0  0  0  0  0  0
  -26.8226  -30.8755   21.9919 H   0  0  0  0  0  0
  -28.0995  -29.0746   21.1710 H   0  0  0  0  0  0
  -25.9895  -26.0072   18.9651 H   0  0  0  0  0  0
  -23.9618  -27.3340   19.0107 H   0  0  0  0  0  0
  -23.7201  -30.6203   19.4111 H   0  0  0  0  0  0
  -22.7336  -29.2635   19.8663 H   0  0  0  0  0  0
  -25.1281  -36.1975   25.0830 H   0  0  0  0  0  0
  -20.9958  -28.3229   24.1432 H   0  0  0  0  0  0
  -20.5675  -26.2271   23.3598 H   0  0  0  0  0  0
  -21.6638  -26.7448   22.1202 H   0  0  0  0  0  0
  -19.6911  -25.6299   21.1227 H   0  0  0  0  0  0
  -19.6685  -27.3202   20.6744 H   0  0  0  0  0  0
  -17.4195  -26.6666   21.4022 H   0  0  0  0  0  0
  -18.0327  -26.0058   22.9013 H   0  0  0  0  0  0
  -19.7932  -30.7251   24.2282 H   0  0  0  0  0  0
  -17.5015  -31.6264   24.5159 H   0  0  0  0  0  0
  -15.5349  -30.2989   23.7647 H   0  0  0  0  0  0
  -15.8663  -28.0827   22.7055 H   0  0  0  0  0  0
  -24.5908  -30.7068   25.7820 H   0  0  0  0  0  0
  -24.8947  -32.2872   26.4942 H   0  0  0  0  0  0
  -25.8091  -30.8870   27.0236 H   0  0  0  0  0  0
  -26.2859  -29.6805   24.1161 H   0  0  0  0  0  0
  -27.4062  -29.7270   25.4580 H   0  0  0  0  0  0
  -27.8702  -30.4351   23.9284 H   0  0  0  0  0  0
  -27.2675  -33.3604   26.2102 H   0  0  0  0  0  0
  -28.3852  -32.6891   25.0316 H   0  0  0  0  0  0
  -28.0737  -31.8422   26.5392 H   0  0  0  0  0  0
  -28.2592  -38.0116   24.7527 H   0  0  0  0  0  0
  -28.1091  -36.2649   24.6258 H   0  0  0  0  0  0
  -27.2307  -37.1426   25.8864 H   0  0  0  0  0  0
  -20.9304  -29.8778   21.6965 H   0  0  0  0  0  0
  -26.0181  -38.2872   24.1423 H   0  0  0  0  0  0
  -30.1997  -21.1599   22.3405 H   0  0  0  0  0  0
  -30.9351  -24.3414   20.7865 H   0  0  0  0  0  0
  -30.6178  -23.5467   22.2934 H   0  0  0  0  0  0
  -29.3874  -23.5324   17.4263 H   0  0  0  0  0  0
  -30.3089  -24.3881   18.6211 H   0  0  0  0  0  0
  -29.1181  -25.4039   22.2073 H   0  0  0  0  0  0
  -28.1969  -23.9535   22.0670 H   0  0  0  0  0  0
  -27.3417  -23.7166   18.9187 H   0  0  0  0  0  0
  -27.8936  -25.1653   18.1470 H   0  0  0  0  0  0
  -27.1181  -25.0795   20.6492 H   0  0  0  0  0  0
  -28.7076  -18.1178   21.0102 H   0  0  0  0  0  0
  -29.4751  -18.8571   22.3791 H   0  0  0  0  0  0
  -31.7258  -18.3799   21.3471 H   0  0  0  0  0  0
  -30.9656  -17.4974   20.0591 H   0  0  0  0  0  0
  -30.5103  -16.7392   22.9991 H   0  0  0  0  0  0
  -31.9555  -16.2503   22.1798 H   0  0  0  0  0  0
  -29.3263  -15.0853   21.8931 H   0  0  0  0  0  0
  1 25  1  0  0  0
  1 30  2  0  0  0
  1 85  1  0  0  0
  2  3  1  0  0  0
  2 25  1  0  0  0
  2 87  1  0  0  0
  2 88  1  0  0  0
  3  4  1  0  0  0
  3 89  1  0  0  0
  3 90  1  0  0  0
  4  5  1  0  0  0
  4 91  1  0  0  0
  4 92  1  0  0  0
  5  6  1  0  0  0
  5 26  1  0  0  0
  5 93  1  0  0  0
  6 25  1  0  0  0
  6 94  1  0  0  0
  6 95  1  0  0  0
  7  8  2  0  0  0
  7 26  1  0  0  0
  7 29  1  0  0  0
  8  9  1  0  0  0
  8 22  1  0  0  0
  9 10  1  0  0  0
  9 27  2  0  0  0
 10 11  2  0  0  0
 10 15  1  0  0  0
 11 12  1  0  0  0
 11 96  1  0  0  0
 12 13  2  0  0  0
 12 97  1  0  0  0
 13 14  1  0  0  0
 13 31  1  0  0  0
 14 15  2  0  0  0
 14 98  1  0  0  0
 15 99  1  0  0  0
 16 17  2  0  0  0
 16 21  1  0  0  0
 16 31  1  0  0  0
 17 18  1  0  0  0
 17100  1  0  0  0
 18 19  2  0  0  0
 18101  1  0  0  0
 19 20  1  0  0  0
 19 24  1  0  0  0
 20 21  2  0  0  0
 20102  1  0  0  0
 21 23  1  0  0  0
 22 28  1  0  0  0
 22 32  2  0  0  0
 26 27  1  0  0  0
 28103  1  0  0  0
 28104  1  0  0  0
 29105  1  0  0  0
 29106  1  0  0  0
 33 34  1  0  0  0
 33 66  1  0  0  0
 33 70  2  0  0  0
 34 36  1  0  0  0
 34 59  1  0  0  0
 34107  1  0  0  0
 35 44  2  0  0  0
 35 45  1  0  0  0
 35 68  1  0  0  0
 36 56  1  0  0  0
 36108  1  0  0  0
 37 39  1  0  0  0
 37 47  1  0  0  0
 37 66  1  0  0  0
 37109  1  0  0  0
 38 43  2  0  0  0
 38 46  1  0  0  0
 38 47  1  0  0  0
 39 64  1  0  0  0
 39 67  2  0  0  0
 40 52  1  0  0  0
 40 53  2  0  0  0
 40 58  1  0  0  0
 41110  1  0  0  0
 41111  1  0  0  0
 41112  1  0  0  0
 41 48  1  0  0  0
 42 43  1  0  0  0
 42 66  1  0  0  0
 42113  1  0  0  0
 42114  1  0  0  0
 43 44  1  0  0  0
 44115  1  0  0  0
 45 46  2  0  0  0
 45116  1  0  0  0
 46117  1  0  0  0
 47118  1  0  0  0
 47119  1  0  0  0
 48 56  1  0  0  0
 48 65  1  0  0  0
 48120  1  0  0  0
 49 50  1  0  0  0
 49 53  1  0  0  0
 49 64  1  0  0  0
 49121  1  0  0  0
 50 51  1  0  0  0
 50122  1  0  0  0
 50123  1  0  0  0
 51 52  1  0  0  0
 51124  1  0  0  0
 51125  1  0  0  0
 52126  1  0  0  0
 52127  1  0  0  0
 53 54  1  0  0  0
 54 55  2  0  0  0
 54128  1  0  0  0
 55 57  1  0  0  0
 55129  1  0  0  0
 56 69  2  0  0  0
 57 58  2  0  0  0
 57130  1  0  0  0
 58131  1  0  0  0
 59 60  1  0  0  0
 59 61  1  0  0  0
 59 62  1  0  0  0
 60132  1  0  0  0
 60133  1  0  0  0
 60134  1  0  0  0
 61135  1  0  0  0
 61136  1  0  0  0
 61137  1  0  0  0
 62138  1  0  0  0
 62139  1  0  0  0
 62140  1  0  0  0
 63 65  1  0  0  0
 63141  1  0  0  0
 63142  1  0  0  0
 63143  1  0  0  0
 64144  1  0  0  0
 65145  1  0  0  0
 68 80  1  0  0  0
 71 72  2  0  0  0
 71 73  1  0  0  0
 71146  1  0  0  0
 72 74  1  0  0  0
 72 76  1  0  0  0
 73 75  2  0  0  0
 73 81  1  0  0  0
 74 77  1  0  0  0
 74 84  2  0  0  0
 75 84  1  0  0  0
 75 86  1  0  0  0
 76 78  1  0  0  0
 76147  1  0  0  0
 76148  1  0  0  0
 77 79  1  0  0  0
 77149  1  0  0  0
 77150  1  0  0  0
 78 80  1  0  0  0
 78151  1  0  0  0
 78152  1  0  0  0
 79 80  1  0  0  0
 79153  1  0  0  0
 79154  1  0  0  0
 80155  1  0  0  0
 81 82  1  0  0  0
 81156  1  0  0  0
 81157  1  0  0  0
 82 83  1  0  0  0
 82158  1  0  0  0
 82159  1  0  0  0
 83 85  1  0  0  0
 83160  1  0  0  0
 83161  1  0  0  0
 85162  1  0  0  0
M  ISO  4   1 100  68 101  80 101  85 100
M  END
> <chiral flag>
0

> <version>
0

> <s_m_source_file>
/data/baiqing/PycharmProjects/Reinvent-master-3.2/result/LINK_invent/BTK/process_docking_weight1_custom_sum_contain_oxygen_bond_distance_aromatic_linkinvent_7_9_3/rearranged_h_0034.sdf

> <i_m_source_file_index>
72

> <r_mmod_Potential_Energy-OPLS-2005>
-189.977142333984

> <r_mmod_Stretch_Energy-OPLS-2005>
39.9412612915039

> <r_mmod_Bend_Energy-OPLS-2005>
116.596878051758

> <r_mmod_Torsional_Energy-OPLS-2005>
230.993850708008

> <r_mmod_Improper_Torsional_Energy-OPLS-2005>
2.4139666557312

> <r_mmod_Van_der_Waal_Energy-OPLS-2005>
164.114608764648

> <r_mmod_Electrostatic_Energy-OPLS-2005>
-542.260009765625

> <r_mmod_Solvation_Energy-OPLS-2005>
-215.088790893555

> <b_mmod_Minimization_Converged-OPLS-2005>
0

> <r_mmod_RMS_Derivative-OPLS-2005>
0.369156062602997

$$$$
74
                    3D
 Structure written by MMmdl.
159167  0  0  1  0            999 V2000
  -30.7034  -14.4714   20.5492 C   0  0  0  0  0  0
  -30.4163  -12.2954   19.4360 C   0  0  0  0  0  0
  -29.4954  -12.4987   18.2142 C   0  0  0  0  0  0
  -28.0155  -12.3627   18.6235 C   0  0  0  0  0  0
  -27.6610  -13.2075   19.8762 C   0  0  2  0  0  0
  -28.7013  -13.0042   21.0036 C   0  0  0  0  0  0
  -25.2594  -13.8166   20.5700 C   0  0  0  0  0  0
  -24.1838  -13.0445   20.9166 C   0  0  0  0  0  0
  -24.6379  -11.6909   20.8725 C   0  0  0  0  0  0
  -23.9034  -10.4297   21.0394 C   0  0  0  0  0  0
  -24.3588   -9.4225   21.9179 C   0  0  0  0  0  0
  -23.6278   -8.2253   22.0754 C   0  0  0  0  0  0
  -22.4263   -8.0282   21.3540 C   0  0  0  0  0  0
  -21.9882   -9.0248   20.4648 C   0  0  0  0  0  0
  -22.7198  -10.2133   20.3059 C   0  0  0  0  0  0
  -21.6858   -6.0733   22.5271 C   0  0  0  0  0  0
  -21.4022   -6.5640   23.8208 C   0  0  0  0  0  0
  -21.3661   -5.6793   24.9166 C   0  0  0  0  0  0
  -21.6047   -4.3054   24.7220 C   0  0  0  0  0  0
  -21.8822   -3.8139   23.4337 C   0  0  0  0  0  0
  -21.9197   -4.6958   22.3397 C   0  0  0  0  0  0
  -22.7871  -13.5251   21.1836 C   0  0  0  0  0  0
  -22.1661   -4.2145   21.0975 F   0  0  0  0  0  0
  -21.5621   -3.4541   25.7728 F   0  0  0  0  0  0
  -30.0359  -13.2901   20.4510 N   0  0  0  0  0  0
  -26.3017  -12.9330   20.3373 N   0  0  0  0  0  0
  -25.9304  -11.6488   20.5759 N   0  0  0  0  0  0
  -22.0516  -12.8253   22.0402 N   0  0  0  0  0  0
  -25.4360  -15.1878   20.4164 N   0  0  0  0  0  0
  -31.8335  -14.6457   20.0865 O   0  0  0  0  0  0
  -21.6638   -6.8866   21.4232 O   0  0  0  0  0  0
  -22.3561  -14.5558   20.6683 O   0  0  0  0  0  0
  -24.6164  -31.8691   23.2105 C   0  0  0  0  0  0
  -25.9058  -32.4822   23.8398 C   0  0  1  0  0  0
  -27.2266  -27.4218   20.0967 C   0  0  0  0  0  0
  -25.5914  -33.8620   24.2335 N   0  0  0  0  0  0
  -23.4032  -30.4944   21.5529 C   0  0  2  0  0  0
  -24.8484  -28.9661   20.1104 C   0  0  0  0  0  0
  -22.7418  -29.4670   22.4999 C   0  0  0  0  0  0
  -18.0268  -28.1383   22.8488 C   0  0  0  0  0  0
  -24.1488  -36.7312   23.2639 C   0  0  0  0  0  0
  -25.9349  -30.8325   21.3651 C   0  0  0  0  0  0
  -26.0121  -29.4684   20.7075 C   0  0  0  0  0  0
  -27.2050  -28.7048   20.6960 C   0  0  0  0  0  0
  -26.0446  -26.9529   19.4737 C   0  0  0  0  0  0
  -24.8608  -27.7087   19.4888 C   0  0  0  0  0  0
  -23.6106  -29.8320   20.1658 C   0  0  0  0  0  0
  -25.4110  -36.3112   24.0338 C   0  0  1  0  0  0
  -20.5862  -28.3679   23.1314 C   0  0  2  0  0  0
  -20.6765  -26.9415   22.5416 C   0  0  0  0  0  0
  -19.5744  -26.6392   21.5212 C   0  0  0  0  0  0
  -18.1920  -26.7925   22.1623 C   0  0  0  0  0  0
  -19.1516  -28.8847   23.2894 C   0  0  0  0  0  0
  -18.9446  -30.1451   23.8909 C   0  0  0  0  0  0
  -17.6448  -30.6592   24.0562 C   0  0  0  0  0  0
  -25.9038  -34.9476   23.5136 C   0  0  0  0  0  0
  -16.5340  -29.9095   23.6323 C   0  0  0  0  0  0
  -16.7255  -28.6507   23.0353 C   0  0  0  0  0  0
  -26.4479  -31.6596   25.0728 C   0  0  0  0  0  0
  -25.3738  -31.3700   26.1475 C   0  0  0  0  0  0
  -27.0312  -30.3035   24.6103 C   0  0  0  0  0  0
  -27.6061  -32.4313   25.7488 C   0  0  0  0  0  0
  -27.5580  -37.1811   24.8468 C   0  0  0  0  0  0
  -21.4145  -29.3041   22.3724 N   0  0  0  0  0  0
  -26.4299  -37.3793   23.9403 N   0  0  0  0  0  0
  -24.6698  -31.0792   22.1011 N   0  0  0  0  0  0
  -23.4183  -28.8220   23.3049 O   0  0  0  0  0  0
  -28.3691  -26.6393   20.1500 O   0  0  0  0  0  0
  -26.5593  -34.8931   22.4693 O   0  0  0  0  0  0
  -23.5355  -32.1450   23.7500 O   0  0  0  0  0  0
  -27.7422  -22.9727   22.3927 C   0  0  0  0  0  0
  -29.1970  -21.7935   20.8466 C   0  0  0  0  0  0
  -28.7306  -23.0149   21.3934 C   0  0  0  0  0  0
  -27.1607  -21.7526   22.7799 C   0  0  0  0  0  0
  -28.6437  -20.5398   21.2370 C   0  0  0  0  0  0
  -27.5841  -20.5392   22.1885 C   0  0  0  0  0  0
  -26.0493  -21.7716   23.8164 C   0  0  0  0  0  0
  -29.2369  -24.3875   20.9265 C   0  0  0  0  0  0
  -29.1568  -19.2684   20.5229 C   0  0  0  0  0  0
  -29.3822  -17.9607   21.3428 C   0  0  0  0  0  0
  -30.2434  -16.9135   20.5902 C   0  0  0  0  0  0
  -28.1300  -25.2157   20.2254 C   0  0  0  0  0  0
  -29.9737  -15.5173   20.9795 N   0  0  0  0  0  0
  -26.7348  -19.0957   22.6242 Cl  0  0  0  0  0  0
  -31.4647  -12.3745   19.1445 H   0  0  0  0  0  0
  -30.2960  -11.2896   19.8405 H   0  0  0  0  0  0
  -29.7390  -11.7754   17.4340 H   0  0  0  0  0  0
  -29.6644  -13.4850   17.7783 H   0  0  0  0  0  0
  -27.8217  -11.3079   18.8214 H   0  0  0  0  0  0
  -27.3680  -12.6374   17.7900 H   0  0  0  0  0  0
  -27.6976  -14.2527   19.5666 H   0  0  0  0  0  0
  -28.6686  -11.9766   21.3718 H   0  0  0  0  0  0
  -28.4689  -13.6293   21.8662 H   0  0  0  0  0  0
  -25.2734   -9.5718   22.4749 H   0  0  0  0  0  0
  -24.0005   -7.4648   22.7470 H   0  0  0  0  0  0
  -21.0820   -8.8753   19.8945 H   0  0  0  0  0  0
  -22.3648  -10.9668   19.6169 H   0  0  0  0  0  0
  -21.2021   -7.6154   23.9705 H   0  0  0  0  0  0
  -21.1481   -6.0522   25.9066 H   0  0  0  0  0  0
  -22.0598   -2.7600   23.2835 H   0  0  0  0  0  0
  -22.4113  -11.9897   22.4769 H   0  0  0  0  0  0
  -21.1132  -13.1290   22.2601 H   0  0  0  0  0  0
  -24.6821  -15.8517   20.5561 H   0  0  0  0  0  0
  -26.3009  -15.6272   20.1272 H   0  0  0  0  0  0
  -26.7136  -32.5538   23.1168 H   0  0  0  0  0  0
  -25.0071  -33.9777   25.0485 H   0  0  0  0  0  0
  -22.6915  -31.3111   21.4159 H   0  0  0  0  0  0
  -23.3744  -35.9650   23.3317 H   0  0  0  0  0  0
  -24.3582  -36.8909   22.2049 H   0  0  0  0  0  0
  -23.7247  -37.6528   23.6639 H   0  0  0  0  0  0
  -26.0513  -31.6019   20.5997 H   0  0  0  0  0  0
  -26.8213  -30.8821   21.9857 H   0  0  0  0  0  0
  -28.0986  -29.0856   21.1712 H   0  0  0  0  0  0
  -26.0163  -25.9931   18.9794 H   0  0  0  0  0  0
  -23.9682  -27.3158   19.0209 H   0  0  0  0  0  0
  -23.7184  -30.6099   19.4087 H   0  0  0  0  0  0
  -22.7328  -29.2544   19.8700 H   0  0  0  0  0  0
  -25.1281  -36.1976   25.0828 H   0  0  0  0  0  0
  -20.9941  -28.3246   24.1441 H   0  0  0  0  0  0
  -20.5677  -26.2285   23.3602 H   0  0  0  0  0  0
  -21.6636  -26.7467   22.1204 H   0  0  0  0  0  0
  -19.6917  -25.6307   21.1234 H   0  0  0  0  0  0
  -19.6685  -27.3209   20.6746 H   0  0  0  0  0  0
  -17.4190  -26.6666   21.4026 H   0  0  0  0  0  0
  -18.0330  -26.0064   22.9019 H   0  0  0  0  0  0
  -19.7927  -30.7255   24.2289 H   0  0  0  0  0  0
  -17.5012  -31.6274   24.5162 H   0  0  0  0  0  0
  -15.5345  -30.3008   23.7638 H   0  0  0  0  0  0
  -15.8652  -28.0829   22.7076 H   0  0  0  0  0  0
  -24.5913  -30.7043   25.7810 H   0  0  0  0  0  0
  -24.8929  -32.2858   26.4928 H   0  0  0  0  0  0
  -25.8096  -30.8868   27.0229 H   0  0  0  0  0  0
  -26.2860  -29.6792   24.1156 H   0  0  0  0  0  0
  -27.4085  -29.7273   25.4563 H   0  0  0  0  0  0
  -27.8695  -30.4356   23.9254 H   0  0  0  0  0  0
  -27.2682  -33.3606   26.2090 H   0  0  0  0  0  0
  -28.3857  -32.6882   25.0299 H   0  0  0  0  0  0
  -28.0741  -31.8415   26.5384 H   0  0  0  0  0  0
  -28.2610  -38.0098   24.7501 H   0  0  0  0  0  0
  -28.1064  -36.2627   24.6307 H   0  0  0  0  0  0
  -27.2295  -37.1479   25.8874 H   0  0  0  0  0  0
  -20.9313  -29.8754   21.6937 H   0  0  0  0  0  0
  -26.0188  -38.2873   24.1398 H   0  0  0  0  0  0
  -27.3945  -23.8938   22.8404 H   0  0  0  0  0  0
  -29.9694  -21.8189   20.0904 H   0  0  0  0  0  0
  -26.2780  -21.0927   24.6377 H   0  0  0  0  0  0
  -25.1034  -21.4629   23.3687 H   0  0  0  0  0  0
  -25.9090  -22.7669   24.2384 H   0  0  0  0  0  0
  -30.0967  -24.2769   20.2662 H   0  0  0  0  0  0
  -29.5924  -24.9269   21.8042 H   0  0  0  0  0  0
  -30.1020  -19.5230   20.0414 H   0  0  0  0  0  0
  -28.4650  -19.0536   19.7078 H   0  0  0  0  0  0
  -28.4264  -17.4991   21.5784 H   0  0  0  0  0  0
  -29.8603  -18.1956   22.2943 H   0  0  0  0  0  0
  -31.3020  -17.1508   20.7192 H   0  0  0  0  0  0
  -30.0442  -16.9871   19.5190 H   0  0  0  0  0  0
  -27.2104  -25.0559   20.7903 H   0  0  0  0  0  0
  -27.9586  -24.8110   19.2273 H   0  0  0  0  0  0
  -29.0604  -15.3029   21.3504 H   0  0  0  0  0  0
  1 25  1  0  0  0
  1 30  2  0  0  0
  1 83  1  0  0  0
  2  3  1  0  0  0
  2 25  1  0  0  0
  2 85  1  0  0  0
  2 86  1  0  0  0
  3  4  1  0  0  0
  3 87  1  0  0  0
  3 88  1  0  0  0
  4  5  1  0  0  0
  4 89  1  0  0  0
  4 90  1  0  0  0
  5  6  1  0  0  0
  5 26  1  0  0  0
  5 91  1  0  0  0
  6 25  1  0  0  0
  6 92  1  0  0  0
  6 93  1  0  0  0
  7  8  2  0  0  0
  7 26  1  0  0  0
  7 29  1  0  0  0
  8  9  1  0  0  0
  8 22  1  0  0  0
  9 10  1  0  0  0
  9 27  2  0  0  0
 10 11  2  0  0  0
 10 15  1  0  0  0
 11 12  1  0  0  0
 11 94  1  0  0  0
 12 13  2  0  0  0
 12 95  1  0  0  0
 13 14  1  0  0  0
 13 31  1  0  0  0
 14 15  2  0  0  0
 14 96  1  0  0  0
 15 97  1  0  0  0
 16 17  2  0  0  0
 16 21  1  0  0  0
 16 31  1  0  0  0
 17 18  1  0  0  0
 17 98  1  0  0  0
 18 19  2  0  0  0
 18 99  1  0  0  0
 19 20  1  0  0  0
 19 24  1  0  0  0
 20 21  2  0  0  0
 20100  1  0  0  0
 21 23  1  0  0  0
 22 28  1  0  0  0
 22 32  2  0  0  0
 26 27  1  0  0  0
 28101  1  0  0  0
 28102  1  0  0  0
 29103  1  0  0  0
 29104  1  0  0  0
 33 34  1  0  0  0
 33 66  1  0  0  0
 33 70  2  0  0  0
 34 36  1  0  0  0
 34 59  1  0  0  0
 34105  1  0  0  0
 35 44  2  0  0  0
 35 45  1  0  0  0
 35 68  1  0  0  0
 36 56  1  0  0  0
 36106  1  0  0  0
 37 39  1  0  0  0
 37 47  1  0  0  0
 37 66  1  0  0  0
 37107  1  0  0  0
 38 43  2  0  0  0
 38 46  1  0  0  0
 38 47  1  0  0  0
 39 64  1  0  0  0
 39 67  2  0  0  0
 40 52  1  0  0  0
 40 53  2  0  0  0
 40 58  1  0  0  0
 41108  1  0  0  0
 41109  1  0  0  0
 41110  1  0  0  0
 41 48  1  0  0  0
 42 43  1  0  0  0
 42 66  1  0  0  0
 42111  1  0  0  0
 42112  1  0  0  0
 43 44  1  0  0  0
 44113  1  0  0  0
 45 46  2  0  0  0
 45114  1  0  0  0
 46115  1  0  0  0
 47116  1  0  0  0
 47117  1  0  0  0
 48 56  1  0  0  0
 48 65  1  0  0  0
 48118  1  0  0  0
 49 50  1  0  0  0
 49 53  1  0  0  0
 49 64  1  0  0  0
 49119  1  0  0  0
 50 51  1  0  0  0
 50120  1  0  0  0
 50121  1  0  0  0
 51 52  1  0  0  0
 51122  1  0  0  0
 51123  1  0  0  0
 52124  1  0  0  0
 52125  1  0  0  0
 53 54  1  0  0  0
 54 55  2  0  0  0
 54126  1  0  0  0
 55 57  1  0  0  0
 55127  1  0  0  0
 56 69  2  0  0  0
 57 58  2  0  0  0
 57128  1  0  0  0
 58129  1  0  0  0
 59 60  1  0  0  0
 59 61  1  0  0  0
 59 62  1  0  0  0
 60130  1  0  0  0
 60131  1  0  0  0
 60132  1  0  0  0
 61133  1  0  0  0
 61134  1  0  0  0
 61135  1  0  0  0
 62136  1  0  0  0
 62137  1  0  0  0
 62138  1  0  0  0
 63 65  1  0  0  0
 63139  1  0  0  0
 63140  1  0  0  0
 63141  1  0  0  0
 64142  1  0  0  0
 65143  1  0  0  0
 68 82  1  0  0  0
 71 73  2  0  0  0
 71 74  1  0  0  0
 71144  1  0  0  0
 72 73  1  0  0  0
 72 75  2  0  0  0
 72145  1  0  0  0
 73 78  1  0  0  0
 74 76  2  0  0  0
 74 77  1  0  0  0
 75 76  1  0  0  0
 75 79  1  0  0  0
 76 84  1  0  0  0
 77146  1  0  0  0
 77147  1  0  0  0
 77148  1  0  0  0
 78 82  1  0  0  0
 78149  1  0  0  0
 78150  1  0  0  0
 79 80  1  0  0  0
 79151  1  0  0  0
 79152  1  0  0  0
 80 81  1  0  0  0
 80153  1  0  0  0
 80154  1  0  0  0
 81 83  1  0  0  0
 81155  1  0  0  0
 81156  1  0  0  0
 82157  1  0  0  0
 82158  1  0  0  0
 83159  1  0  0  0
M  ISO  4   1 100  68 101  82 101  83 100
M  END
> <chiral flag>
0

> <version>
0

> <s_m_source_file>
/data/baiqing/PycharmProjects/Reinvent-master-3.2/result/LINK_invent/BTK/process_docking_weight1_custom_sum_contain_oxygen_bond_distance_aromatic_linkinvent_7_9_3/rearranged_h_0034.sdf

> <i_m_source_file_index>
73

> <r_mmod_Potential_Energy-OPLS-2005>
-25.6948108673096

> <r_mmod_Stretch_Energy-OPLS-2005>
41.6990242004395

> <r_mmod_Bend_Energy-OPLS-2005>
96.399055480957

> <r_mmod_Torsional_Energy-OPLS-2005>
216.992492675781

> <r_mmod_Improper_Torsional_Energy-OPLS-2005>
6.1379075050354

> <r_mmod_Van_der_Waal_Energy-OPLS-2005>
163.159851074219

> <r_mmod_Electrostatic_Energy-OPLS-2005>
-365.803771972656

> <r_mmod_Solvation_Energy-OPLS-2005>
-200.089706420898

> <b_mmod_Minimization_Converged-OPLS-2005>
0

> <r_mmod_RMS_Derivative-OPLS-2005>
1.79094302654266

$$$$
75
                    3D
 Structure written by MMmdl.
169178  0  0  1  0            999 V2000
  -30.6108  -14.7096   20.4755 C   0  0  0  0  0  0
  -30.4330  -12.4346   19.4677 C   0  0  0  0  0  0
  -29.5095  -12.5130   18.2319 C   0  0  0  0  0  0
  -28.0338  -12.3411   18.6418 C   0  0  0  0  0  0
  -27.6448  -13.2282   19.8544 C   0  0  2  0  0  0
  -28.6882  -13.1337   20.9894 C   0  0  0  0  0  0
  -25.2520  -13.8194   20.5683 C   0  0  0  0  0  0
  -24.1810  -13.0442   20.9200 C   0  0  0  0  0  0
  -24.6395  -11.6920   20.8740 C   0  0  0  0  0  0
  -23.9072  -10.4296   21.0403 C   0  0  0  0  0  0
  -24.3623   -9.4213   21.9180 C   0  0  0  0  0  0
  -23.6300   -8.2246   22.0752 C   0  0  0  0  0  0
  -22.4281   -8.0282   21.3543 C   0  0  0  0  0  0
  -21.9915   -9.0254   20.4646 C   0  0  0  0  0  0
  -22.7241  -10.2136   20.3053 C   0  0  0  0  0  0
  -21.6855   -6.0738   22.5278 C   0  0  0  0  0  0
  -21.4013   -6.5641   23.8212 C   0  0  0  0  0  0
  -21.3660   -5.6793   24.9174 C   0  0  0  0  0  0
  -21.6046   -4.3056   24.7223 C   0  0  0  0  0  0
  -21.8819   -3.8149   23.4343 C   0  0  0  0  0  0
  -21.9193   -4.6965   22.3401 C   0  0  0  0  0  0
  -22.7831  -13.5223   21.1862 C   0  0  0  0  0  0
  -22.1662   -4.2151   21.0978 F   0  0  0  0  0  0
  -21.5630   -3.4539   25.7735 F   0  0  0  0  0  0
  -29.9943  -13.4822   20.4161 N   0  0  0  0  0  0
  -26.2947  -12.9394   20.3277 N   0  0  0  0  0  0
  -25.9323  -11.6539   20.5743 N   0  0  0  0  0  0
  -22.0478  -12.8215   22.0420 N   0  0  0  0  0  0
  -25.4206  -15.1919   20.4095 N   0  0  0  0  0  0
  -31.7890  -14.8327   20.1311 O   0  0  0  0  0  0
  -21.6642   -6.8881   21.4241 O   0  0  0  0  0  0
  -22.3510  -14.5524   20.6707 O   0  0  0  0  0  0
  -24.6302  -31.8563   23.1988 C   0  0  0  0  0  0
  -25.9133  -32.4759   23.8332 C   0  0  1  0  0  0
  -27.2229  -27.2734   20.1162 C   0  0  0  0  0  0
  -25.5934  -33.8561   24.2258 N   0  0  0  0  0  0
  -23.4253  -30.4795   21.5425 C   0  0  2  0  0  0
  -24.8701  -28.9274   20.1097 C   0  0  0  0  0  0
  -22.7495  -29.4607   22.4918 C   0  0  0  0  0  0
  -18.0291  -28.1390   22.8483 C   0  0  0  0  0  0
  -24.1489  -36.7283   23.2641 C   0  0  0  0  0  0
  -25.9703  -30.7724   21.3759 C   0  0  0  0  0  0
  -26.0410  -29.3962   20.7165 C   0  0  0  0  0  0
  -27.2153  -28.5805   20.7101 C   0  0  0  0  0  0
  -26.0196  -26.8628   19.4962 C   0  0  0  0  0  0
  -24.8639  -27.6681   19.4923 C   0  0  0  0  0  0
  -23.6416  -29.8140   20.1579 C   0  0  0  0  0  0
  -25.4116  -36.3073   24.0328 C   0  0  1  0  0  0
  -20.5893  -28.3698   23.1273 C   0  0  2  0  0  0
  -20.6780  -26.9417   22.5408 C   0  0  0  0  0  0
  -19.5756  -26.6383   21.5213 C   0  0  0  0  0  0
  -18.1936  -26.7932   22.1624 C   0  0  0  0  0  0
  -19.1545  -28.8861   23.2874 C   0  0  0  0  0  0
  -18.9465  -30.1460   23.8895 C   0  0  0  0  0  0
  -17.6465  -30.6590   24.0562 C   0  0  0  0  0  0
  -25.9058  -34.9443   23.5096 C   0  0  0  0  0  0
  -16.5355  -29.9088   23.6329 C   0  0  0  0  0  0
  -16.7278  -28.6505   23.0351 C   0  0  0  0  0  0
  -26.4501  -31.6586   25.0722 C   0  0  0  0  0  0
  -25.3719  -31.3730   26.1438 C   0  0  0  0  0  0
  -27.0352  -30.3008   24.6203 C   0  0  0  0  0  0
  -27.6058  -32.4325   25.7496 C   0  0  0  0  0  0
  -27.5579  -37.1797   24.8465 C   0  0  0  0  0  0
  -21.4204  -29.3044   22.3662 N   0  0  0  0  0  0
  -26.4290  -37.3771   23.9409 N   0  0  0  0  0  0
  -24.6946  -31.0537   22.0957 N   0  0  0  0  0  0
  -23.4201  -28.8153   23.3016 O   0  0  0  0  0  0
  -28.3529  -26.4274   20.1933 O   0  0  0  0  0  0
  -26.5629  -34.8919   22.4665 O   0  0  0  0  0  0
  -23.5457  -32.1381   23.7294 O   0  0  0  0  0  0
  -29.0665  -22.3144   18.3296 C   0  0  0  0  0  0
  -28.9403  -20.9965   20.3359 C   0  0  0  0  0  0
  -29.1316  -21.1317   17.5697 C   0  0  0  0  0  0
  -29.0349  -19.8265   18.1595 C   0  0  0  0  0  0
  -28.8937  -22.3076   19.7177 C   0  0  0  0  0  0
  -29.0378  -19.7373   19.6053 C   0  0  0  0  0  0
  -29.2836  -21.3618   16.0709 C   0  0  0  0  0  0
  -28.6479  -20.2811   15.2206 C   0  0  0  0  0  0
  -29.1284  -18.9287   15.7159 C   0  0  0  0  0  0
  -28.7458  -18.6224   17.1883 C   0  0  0  0  0  0
  -29.5002  -17.3072   17.4659 C   0  0  0  0  0  0
  -27.2281  -18.3248   17.2211 C   0  0  0  0  0  0
  -28.6690  -23.7047   20.4585 C   0  0  0  0  0  0
  -28.9289  -18.3410   20.3783 C   0  0  0  0  0  0
  -30.1573  -17.3025   20.5558 C   0  0  0  0  0  0
  -28.4394  -25.0569   19.5894 C   0  0  0  0  0  0
  -29.8248  -15.8196   20.7205 N   0  0  0  0  0  0
  -31.4744  -12.5595   19.1666 H   0  0  0  0  0  0
  -30.3730  -11.4498   19.9339 H   0  0  0  0  0  0
  -29.7880  -11.7513   17.5026 H   0  0  0  0  0  0
  -29.6418  -13.4758   17.7353 H   0  0  0  0  0  0
  -27.8817  -11.2900   18.8896 H   0  0  0  0  0  0
  -27.3793  -12.5514   17.7950 H   0  0  0  0  0  0
  -27.6478  -14.2552   19.4890 H   0  0  0  0  0  0
  -28.7140  -12.1271   21.4095 H   0  0  0  0  0  0
  -28.4273  -13.8002   21.8128 H   0  0  0  0  0  0
  -25.2769   -9.5693   22.4753 H   0  0  0  0  0  0
  -24.0012   -7.4640   22.7472 H   0  0  0  0  0  0
  -21.0843   -8.8772   19.8954 H   0  0  0  0  0  0
  -22.3695  -10.9674   19.6164 H   0  0  0  0  0  0
  -21.2003   -7.6149   23.9716 H   0  0  0  0  0  0
  -21.1484   -6.0522   25.9078 H   0  0  0  0  0  0
  -22.0598   -2.7611   23.2842 H   0  0  0  0  0  0
  -22.4099  -11.9881   22.4811 H   0  0  0  0  0  0
  -21.1094  -13.1235   22.2625 H   0  0  0  0  0  0
  -24.6476  -15.8404   20.5126 H   0  0  0  0  0  0
  -26.2583  -15.6308   20.0517 H   0  0  0  0  0  0
  -26.7200  -32.5409   23.1074 H   0  0  0  0  0  0
  -25.0074  -33.9693   25.0399 H   0  0  0  0  0  0
  -22.7215  -31.3019   21.3979 H   0  0  0  0  0  0
  -23.3756  -35.9610   23.3300 H   0  0  0  0  0  0
  -24.3580  -36.8907   22.2056 H   0  0  0  0  0  0
  -23.7235  -37.6480   23.6667 H   0  0  0  0  0  0
  -26.1086  -31.5341   20.6072 H   0  0  0  0  0  0
  -26.8484  -30.8197   22.0083 H   0  0  0  0  0  0
  -28.1129  -28.9369   21.1961 H   0  0  0  0  0  0
  -25.9140  -25.8973   19.0307 H   0  0  0  0  0  0
  -23.9627  -27.2988   19.0222 H   0  0  0  0  0  0
  -23.7669  -30.5911   19.4030 H   0  0  0  0  0  0
  -22.7594  -29.2485   19.8525 H   0  0  0  0  0  0
  -25.1297  -36.1921   25.0820 H   0  0  0  0  0  0
  -20.9985  -28.3277   24.1395 H   0  0  0  0  0  0
  -20.5682  -26.2308   23.3612 H   0  0  0  0  0  0
  -21.6648  -26.7445   22.1202 H   0  0  0  0  0  0
  -19.6917  -25.6291   21.1251 H   0  0  0  0  0  0
  -19.6698  -27.3187   20.6738 H   0  0  0  0  0  0
  -17.4205  -26.6677   21.4027 H   0  0  0  0  0  0
  -18.0340  -26.0076   22.9023 H   0  0  0  0  0  0
  -19.7942  -30.7277   24.2266 H   0  0  0  0  0  0
  -17.5019  -31.6271   24.5164 H   0  0  0  0  0  0
  -15.5356  -30.2991   23.7652 H   0  0  0  0  0  0
  -15.8677  -28.0822   22.7070 H   0  0  0  0  0  0
  -24.5902  -30.7075   25.7756 H   0  0  0  0  0  0
  -24.8900  -32.2895   26.4853 H   0  0  0  0  0  0
  -25.8029  -30.8910   27.0222 H   0  0  0  0  0  0
  -26.2936  -29.6751   24.1223 H   0  0  0  0  0  0
  -27.4038  -29.7276   25.4720 H   0  0  0  0  0  0
  -27.8811  -30.4294   23.9446 H   0  0  0  0  0  0
  -27.2675  -33.3634   26.2061 H   0  0  0  0  0  0
  -28.3876  -32.6869   25.0326 H   0  0  0  0  0  0
  -28.0720  -31.8455   26.5420 H   0  0  0  0  0  0
  -28.2592  -38.0098   24.7516 H   0  0  0  0  0  0
  -28.1078  -36.2628   24.6287 H   0  0  0  0  0  0
  -27.2298  -37.1440   25.8868 H   0  0  0  0  0  0
  -20.9392  -29.8763   21.6863 H   0  0  0  0  0  0
  -26.0170  -38.2845   24.1411 H   0  0  0  0  0  0
  -29.1080  -23.2564   17.8038 H   0  0  0  0  0  0
  -28.8464  -20.9511   21.4124 H   0  0  0  0  0  0
  -30.3504  -21.4232   15.8506 H   0  0  0  0  0  0
  -28.8602  -22.3253   15.7832 H   0  0  0  0  0  0
  -28.9174  -20.4227   14.1733 H   0  0  0  0  0  0
  -27.5617  -20.3495   15.2699 H   0  0  0  0  0  0
  -30.2148  -18.9047   15.6087 H   0  0  0  0  0  0
  -28.7522  -18.1521   15.0478 H   0  0  0  0  0  0
  -30.5703  -17.4734   17.5859 H   0  0  0  0  0  0
  -29.3911  -16.6085   16.6354 H   0  0  0  0  0  0
  -29.1046  -16.7554   18.3093 H   0  0  0  0  0  0
  -26.6380  -19.2063   16.9713 H   0  0  0  0  0  0
  -26.8835  -17.9960   18.1985 H   0  0  0  0  0  0
  -26.9571  -17.5408   16.5131 H   0  0  0  0  0  0
  -29.5298  -23.8606   21.1086 H   0  0  0  0  0  0
  -27.8162  -23.5822   21.1263 H   0  0  0  0  0  0
  -28.0845  -17.8036   19.9580 H   0  0  0  0  0  0
  -28.5780  -18.5762   21.3837 H   0  0  0  0  0  0
  -30.7420  -17.6127   21.4228 H   0  0  0  0  0  0
  -30.8547  -17.4029   19.7283 H   0  0  0  0  0  0
  -27.6381  -24.8677   18.8827 H   0  0  0  0  0  0
  -29.3173  -25.1475   18.9502 H   0  0  0  0  0  0
  -28.8737  -15.6111   20.9837 H   0  0  0  0  0  0
  1 25  1  0  0  0
  1 30  2  0  0  0
  1 87  1  0  0  0
  2  3  1  0  0  0
  2 25  1  0  0  0
  2 88  1  0  0  0
  2 89  1  0  0  0
  3  4  1  0  0  0
  3 90  1  0  0  0
  3 91  1  0  0  0
  4  5  1  0  0  0
  4 92  1  0  0  0
  4 93  1  0  0  0
  5  6  1  0  0  0
  5 26  1  0  0  0
  5 94  1  0  0  0
  6 25  1  0  0  0
  6 95  1  0  0  0
  6 96  1  0  0  0
  7  8  2  0  0  0
  7 26  1  0  0  0
  7 29  1  0  0  0
  8  9  1  0  0  0
  8 22  1  0  0  0
  9 10  1  0  0  0
  9 27  2  0  0  0
 10 11  2  0  0  0
 10 15  1  0  0  0
 11 12  1  0  0  0
 11 97  1  0  0  0
 12 13  2  0  0  0
 12 98  1  0  0  0
 13 14  1  0  0  0
 13 31  1  0  0  0
 14 15  2  0  0  0
 14 99  1  0  0  0
 15100  1  0  0  0
 16 17  2  0  0  0
 16 21  1  0  0  0
 16 31  1  0  0  0
 17 18  1  0  0  0
 17101  1  0  0  0
 18 19  2  0  0  0
 18102  1  0  0  0
 19 20  1  0  0  0
 19 24  1  0  0  0
 20 21  2  0  0  0
 20103  1  0  0  0
 21 23  1  0  0  0
 22 28  1  0  0  0
 22 32  2  0  0  0
 26 27  1  0  0  0
 28104  1  0  0  0
 28105  1  0  0  0
 29106  1  0  0  0
 29107  1  0  0  0
 33 34  1  0  0  0
 33 66  1  0  0  0
 33 70  2  0  0  0
 34 36  1  0  0  0
 34 59  1  0  0  0
 34108  1  0  0  0
 35 44  2  0  0  0
 35 45  1  0  0  0
 35 68  1  0  0  0
 36 56  1  0  0  0
 36109  1  0  0  0
 37 39  1  0  0  0
 37 47  1  0  0  0
 37 66  1  0  0  0
 37110  1  0  0  0
 38 43  2  0  0  0
 38 46  1  0  0  0
 38 47  1  0  0  0
 39 64  1  0  0  0
 39 67  2  0  0  0
 40 52  1  0  0  0
 40 53  2  0  0  0
 40 58  1  0  0  0
 41111  1  0  0  0
 41112  1  0  0  0
 41113  1  0  0  0
 41 48  1  0  0  0
 42 43  1  0  0  0
 42 66  1  0  0  0
 42114  1  0  0  0
 42115  1  0  0  0
 43 44  1  0  0  0
 44116  1  0  0  0
 45 46  2  0  0  0
 45117  1  0  0  0
 46118  1  0  0  0
 47119  1  0  0  0
 47120  1  0  0  0
 48 56  1  0  0  0
 48 65  1  0  0  0
 48121  1  0  0  0
 49 50  1  0  0  0
 49 53  1  0  0  0
 49 64  1  0  0  0
 49122  1  0  0  0
 50 51  1  0  0  0
 50123  1  0  0  0
 50124  1  0  0  0
 51 52  1  0  0  0
 51125  1  0  0  0
 51126  1  0  0  0
 52127  1  0  0  0
 52128  1  0  0  0
 53 54  1  0  0  0
 54 55  2  0  0  0
 54129  1  0  0  0
 55 57  1  0  0  0
 55130  1  0  0  0
 56 69  2  0  0  0
 57 58  2  0  0  0
 57131  1  0  0  0
 58132  1  0  0  0
 59 60  1  0  0  0
 59 61  1  0  0  0
 59 62  1  0  0  0
 60133  1  0  0  0
 60134  1  0  0  0
 60135  1  0  0  0
 61136  1  0  0  0
 61137  1  0  0  0
 61138  1  0  0  0
 62139  1  0  0  0
 62140  1  0  0  0
 62141  1  0  0  0
 63 65  1  0  0  0
 63142  1  0  0  0
 63143  1  0  0  0
 63144  1  0  0  0
 64145  1  0  0  0
 65146  1  0  0  0
 68 86  1  0  0  0
 71 73  2  0  0  0
 71 75  1  0  0  0
 71147  1  0  0  0
 72 75  2  0  0  0
 72 76  1  0  0  0
 72148  1  0  0  0
 73 74  1  0  0  0
 73 77  1  0  0  0
 74 76  2  0  0  0
 74 80  1  0  0  0
 75 83  1  0  0  0
 76 84  1  0  0  0
 77 78  1  0  0  0
 77149  1  0  0  0
 77150  1  0  0  0
 78 79  1  0  0  0
 78151  1  0  0  0
 78152  1  0  0  0
 79 80  1  0  0  0
 79153  1  0  0  0
 79154  1  0  0  0
 80 81  1  0  0  0
 80 82  1  0  0  0
 81155  1  0  0  0
 81156  1  0  0  0
 81157  1  0  0  0
 82158  1  0  0  0
 82159  1  0  0  0
 82160  1  0  0  0
 83 86  1  0  0  0
 83161  1  0  0  0
 83162  1  0  0  0
 84 85  1  0  0  0
 84163  1  0  0  0
 84164  1  0  0  0
 85 87  1  0  0  0
 85165  1  0  0  0
 85166  1  0  0  0
 86167  1  0  0  0
 86168  1  0  0  0
 87169  1  0  0  0
M  ISO  4   1 100  68 101  86 101  87 100
M  END
> <chiral flag>
0

> <version>
0

> <s_m_source_file>
/data/baiqing/PycharmProjects/Reinvent-master-3.2/result/LINK_invent/BTK/process_docking_weight1_custom_sum_contain_oxygen_bond_distance_aromatic_linkinvent_7_9_3/rearranged_h_0034.sdf

> <i_m_source_file_index>
74

> <r_mmod_Potential_Energy-OPLS-2005>
175.791549682617

> <r_mmod_Stretch_Energy-OPLS-2005>
131.963455200195

> <r_mmod_Bend_Energy-OPLS-2005>
193.187408447266

> <r_mmod_Torsional_Energy-OPLS-2005>
226.901947021484

> <r_mmod_Improper_Torsional_Energy-OPLS-2005>
6.49348163604736

> <r_mmod_Van_der_Waal_Energy-OPLS-2005>
155.739349365234

> <r_mmod_Electrostatic_Energy-OPLS-2005>
-402.702697753906

> <r_mmod_Solvation_Energy-OPLS-2005>
-207.071868896484

> <b_mmod_Minimization_Converged-OPLS-2005>
0

> <r_mmod_RMS_Derivative-OPLS-2005>
0.491302758455276

$$$$
76
                    3D
 Structure written by MMmdl.
153161  0  0  1  0            999 V2000
  -30.6312  -14.6897   20.5001 C   0  0  0  0  0  0
  -30.4363  -12.4341   19.4537 C   0  0  0  0  0  0
  -29.5036  -12.5075   18.2249 C   0  0  0  0  0  0
  -28.0323  -12.3218   18.6466 C   0  0  0  0  0  0
  -27.6446  -13.2219   19.8497 C   0  0  2  0  0  0
  -28.6900  -13.1281   20.9815 C   0  0  0  0  0  0
  -25.2534  -13.8185   20.5670 C   0  0  0  0  0  0
  -24.1807  -13.0452   20.9196 C   0  0  0  0  0  0
  -24.6400  -11.6922   20.8762 C   0  0  0  0  0  0
  -23.9088  -10.4309   21.0443 C   0  0  0  0  0  0
  -24.3633   -9.4216   21.9211 C   0  0  0  0  0  0
  -23.6300   -8.2257   22.0762 C   0  0  0  0  0  0
  -22.4285   -8.0301   21.3542 C   0  0  0  0  0  0
  -21.9940   -9.0283   20.4638 C   0  0  0  0  0  0
  -22.7279  -10.2154   20.3068 C   0  0  0  0  0  0
  -21.6843   -6.0762   22.5285 C   0  0  0  0  0  0
  -21.4003   -6.5652   23.8228 C   0  0  0  0  0  0
  -21.3658   -5.6788   24.9180 C   0  0  0  0  0  0
  -21.6047   -4.3060   24.7206 C   0  0  0  0  0  0
  -21.8824   -3.8164   23.4328 C   0  0  0  0  0  0
  -21.9186   -4.6991   22.3396 C   0  0  0  0  0  0
  -22.7833  -13.5227   21.1877 C   0  0  0  0  0  0
  -22.1654   -4.2191   21.0973 F   0  0  0  0  0  0
  -21.5638   -3.4543   25.7719 F   0  0  0  0  0  0
  -29.9954  -13.4764   20.4030 N   0  0  0  0  0  0
  -26.2951  -12.9373   20.3276 N   0  0  0  0  0  0
  -25.9315  -11.6533   20.5760 N   0  0  0  0  0  0
  -22.0480  -12.8177   22.0410 N   0  0  0  0  0  0
  -25.4251  -15.1907   20.4037 N   0  0  0  0  0  0
  -31.8175  -14.8112   20.1843 O   0  0  0  0  0  0
  -21.6621   -6.8910   21.4255 O   0  0  0  0  0  0
  -22.3521  -14.5548   20.6756 O   0  0  0  0  0  0
  -24.6288  -31.8575   23.2073 C   0  0  0  0  0  0
  -25.9115  -32.4787   23.8410 C   0  0  1  0  0  0
  -27.2128  -27.2811   20.1054 C   0  0  0  0  0  0
  -25.5937  -33.8596   24.2318 N   0  0  0  0  0  0
  -23.4280  -30.4837   21.5503 C   0  0  2  0  0  0
  -24.8729  -28.9437   20.1137 C   0  0  0  0  0  0
  -22.7522  -29.4574   22.4919 C   0  0  0  0  0  0
  -18.0293  -28.1355   22.8466 C   0  0  0  0  0  0
  -24.1486  -36.7267   23.2644 C   0  0  0  0  0  0
  -25.9748  -30.7754   21.3888 C   0  0  0  0  0  0
  -26.0490  -29.4035   20.7196 C   0  0  0  0  0  0
  -27.2250  -28.5822   20.7071 C   0  0  0  0  0  0
  -26.0078  -26.8992   19.4630 C   0  0  0  0  0  0
  -24.8548  -27.7002   19.4761 C   0  0  0  0  0  0
  -23.6469  -29.8330   20.1629 C   0  0  0  0  0  0
  -25.4114  -36.3091   24.0344 C   0  0  1  0  0  0
  -20.5911  -28.3643   23.1282 C   0  0  2  0  0  0
  -20.6772  -26.9367   22.5402 C   0  0  0  0  0  0
  -19.5745  -26.6376   21.5195 C   0  0  0  0  0  0
  -18.1913  -26.7901   22.1613 C   0  0  0  0  0  0
  -19.1569  -28.8819   23.2851 C   0  0  0  0  0  0
  -18.9505  -30.1412   23.8856 C   0  0  0  0  0  0
  -17.6502  -30.6550   24.0546 C   0  0  0  0  0  0
  -25.9052  -34.9453   23.5138 C   0  0  0  0  0  0
  -16.5374  -29.9041   23.6362 C   0  0  0  0  0  0
  -16.7295  -28.6483   23.0338 C   0  0  0  0  0  0
  -26.4502  -31.6575   25.0749 C   0  0  0  0  0  0
  -25.3734  -31.3665   26.1465 C   0  0  0  0  0  0
  -27.0384  -30.3020   24.6180 C   0  0  0  0  0  0
  -27.6080  -32.4288   25.7496 C   0  0  0  0  0  0
  -27.5582  -37.1759   24.8479 C   0  0  0  0  0  0
  -21.4235  -29.2992   22.3668 N   0  0  0  0  0  0
  -26.4293  -37.3788   23.9434 N   0  0  0  0  0  0
  -24.6967  -31.0553   22.1060 N   0  0  0  0  0  0
  -23.4242  -28.8074   23.2969 O   0  0  0  0  0  0
  -28.3025  -26.3782   20.1423 O   0  0  0  0  0  0
  -26.5625  -34.8906   22.4696 O   0  0  0  0  0  0
  -23.5424  -32.1403   23.7356 O   0  0  0  0  0  0
  -29.6054  -20.8030   18.6840 C   0  0  0  0  0  0
  -30.3080  -18.4661   18.9776 C   0  0  0  0  0  0
  -29.1963  -20.9059   20.0332 C   0  0  0  0  0  0
  -29.9157  -18.4732   20.3320 C   0  0  0  0  0  0
  -30.1569  -19.6109   18.1680 C   0  0  0  0  0  0
  -29.3563  -19.7132   20.8498 C   0  0  0  0  0  0
  -28.4789  -22.2458   20.4962 C   0  0  0  0  0  0
  -30.2677  -17.1962   21.1971 C   0  0  0  0  0  0
  -29.0513  -23.7186   20.1647 C   0  0  0  0  0  0
  -27.9792  -24.9140   20.0802 C   0  0  0  0  0  0
  -29.8617  -15.7916   20.7939 N   0  0  0  0  0  0
  -30.6648  -19.5539   16.5192 Cl  0  0  0  0  0  0
  -28.8589  -19.7723   22.5059 Cl  0  0  0  0  0  0
  -31.4753  -12.5675   19.1496 H   0  0  0  0  0  0
  -30.3813  -11.4506   19.9245 H   0  0  0  0  0  0
  -29.7817  -11.7490   17.4921 H   0  0  0  0  0  0
  -29.6212  -13.4731   17.7296 H   0  0  0  0  0  0
  -27.8976  -11.2741   18.9195 H   0  0  0  0  0  0
  -27.3655  -12.5040   17.8036 H   0  0  0  0  0  0
  -27.6519  -14.2468   19.4758 H   0  0  0  0  0  0
  -28.7168  -12.1198   21.3988 H   0  0  0  0  0  0
  -28.4296  -13.7919   21.8073 H   0  0  0  0  0  0
  -25.2797   -9.5665   22.4770 H   0  0  0  0  0  0
  -24.0011   -7.4629   22.7470 H   0  0  0  0  0  0
  -21.0890   -8.8810   19.8919 H   0  0  0  0  0  0
  -22.3791  -10.9687   19.6151 H   0  0  0  0  0  0
  -21.1993   -7.6147   23.9744 H   0  0  0  0  0  0
  -21.1475   -6.0506   25.9075 H   0  0  0  0  0  0
  -22.0602   -2.7634   23.2807 H   0  0  0  0  0  0
  -22.4057  -11.9769   22.4692 H   0  0  0  0  0  0
  -21.1107  -13.1194   22.2673 H   0  0  0  0  0  0
  -24.6615  -15.8474   20.5183 H   0  0  0  0  0  0
  -26.2654  -15.6250   20.0437 H   0  0  0  0  0  0
  -26.7154  -32.5428   23.1134 H   0  0  0  0  0  0
  -25.0070  -33.9751   25.0460 H   0  0  0  0  0  0
  -22.7208  -31.3041   21.4102 H   0  0  0  0  0  0
  -23.3778  -35.9568   23.3328 H   0  0  0  0  0  0
  -24.3565  -36.8901   22.2051 H   0  0  0  0  0  0
  -23.7204  -37.6464   23.6662 H   0  0  0  0  0  0
  -26.1104  -31.5453   20.6288 H   0  0  0  0  0  0
  -26.8551  -30.8234   22.0195 H   0  0  0  0  0  0
  -28.1241  -28.9203   21.2052 H   0  0  0  0  0  0
  -25.8979  -25.9681   18.9328 H   0  0  0  0  0  0
  -23.9545  -27.3466   18.9879 H   0  0  0  0  0  0
  -23.7870  -30.6223   19.4213 H   0  0  0  0  0  0
  -22.7632  -29.2768   19.8484 H   0  0  0  0  0  0
  -25.1273  -36.1951   25.0840 H   0  0  0  0  0  0
  -20.9971  -28.3214   24.1414 H   0  0  0  0  0  0
  -20.5724  -26.2201   23.3579 H   0  0  0  0  0  0
  -21.6615  -26.7412   22.1138 H   0  0  0  0  0  0
  -19.6925  -25.6301   21.1182 H   0  0  0  0  0  0
  -19.6710  -27.3218   20.6736 H   0  0  0  0  0  0
  -17.4194  -26.6679   21.3997 H   0  0  0  0  0  0
  -18.0290  -26.0031   22.9007 H   0  0  0  0  0  0
  -19.8000  -30.7203   24.2226 H   0  0  0  0  0  0
  -17.5085  -31.6266   24.5105 H   0  0  0  0  0  0
  -15.5380  -30.2905   23.7733 H   0  0  0  0  0  0
  -15.8698  -28.0800   22.7018 H   0  0  0  0  0  0
  -24.6027  -30.6882   25.7791 H   0  0  0  0  0  0
  -24.8728  -32.2759   26.4784 H   0  0  0  0  0  0
  -25.8050  -30.8973   27.0311 H   0  0  0  0  0  0
  -26.2941  -29.6654   24.1374 H   0  0  0  0  0  0
  -27.4323  -29.7358   25.4623 H   0  0  0  0  0  0
  -27.8723  -30.4357   23.9285 H   0  0  0  0  0  0
  -27.2846  -33.3706   26.1946 H   0  0  0  0  0  0
  -28.3985  -32.6633   25.0354 H   0  0  0  0  0  0
  -28.0642  -31.8455   26.5512 H   0  0  0  0  0  0
  -28.2567  -38.0075   24.7552 H   0  0  0  0  0  0
  -28.1117  -36.2598   24.6307 H   0  0  0  0  0  0
  -27.2287  -37.1405   25.8878 H   0  0  0  0  0  0
  -20.9391  -29.8776   21.6952 H   0  0  0  0  0  0
  -26.0200  -38.2877   24.1465 H   0  0  0  0  0  0
  -29.4854  -21.6479   18.0204 H   0  0  0  0  0  0
  -30.7666  -17.5801   18.5611 H   0  0  0  0  0  0
  -28.3019  -22.2010   21.5688 H   0  0  0  0  0  0
  -27.4841  -22.1874   20.0555 H   0  0  0  0  0  0
  -29.8993  -17.3360   22.2117 H   0  0  0  0  0  0
  -31.3530  -17.2123   21.3079 H   0  0  0  0  0  0
  -29.5655  -23.6871   19.2027 H   0  0  0  0  0  0
  -29.8199  -23.9709   20.8962 H   0  0  0  0  0  0
  -27.2261  -24.7281   20.8495 H   0  0  0  0  0  0
  -27.4913  -24.7305   19.1256 H   0  0  0  0  0  0
  -28.8854  -15.5824   20.9332 H   0  0  0  0  0  0
  1 25  1  0  0  0
  1 30  2  0  0  0
  1 81  1  0  0  0
  2  3  1  0  0  0
  2 25  1  0  0  0
  2 84  1  0  0  0
  2 85  1  0  0  0
  3  4  1  0  0  0
  3 86  1  0  0  0
  3 87  1  0  0  0
  4  5  1  0  0  0
  4 88  1  0  0  0
  4 89  1  0  0  0
  5  6  1  0  0  0
  5 26  1  0  0  0
  5 90  1  0  0  0
  6 25  1  0  0  0
  6 91  1  0  0  0
  6 92  1  0  0  0
  7  8  2  0  0  0
  7 26  1  0  0  0
  7 29  1  0  0  0
  8  9  1  0  0  0
  8 22  1  0  0  0
  9 10  1  0  0  0
  9 27  2  0  0  0
 10 11  2  0  0  0
 10 15  1  0  0  0
 11 12  1  0  0  0
 11 93  1  0  0  0
 12 13  2  0  0  0
 12 94  1  0  0  0
 13 14  1  0  0  0
 13 31  1  0  0  0
 14 15  2  0  0  0
 14 95  1  0  0  0
 15 96  1  0  0  0
 16 17  2  0  0  0
 16 21  1  0  0  0
 16 31  1  0  0  0
 17 18  1  0  0  0
 17 97  1  0  0  0
 18 19  2  0  0  0
 18 98  1  0  0  0
 19 20  1  0  0  0
 19 24  1  0  0  0
 20 21  2  0  0  0
 20 99  1  0  0  0
 21 23  1  0  0  0
 22 28  1  0  0  0
 22 32  2  0  0  0
 26 27  1  0  0  0
 28100  1  0  0  0
 28101  1  0  0  0
 29102  1  0  0  0
 29103  1  0  0  0
 33 34  1  0  0  0
 33 66  1  0  0  0
 33 70  2  0  0  0
 34 36  1  0  0  0
 34 59  1  0  0  0
 34104  1  0  0  0
 35 44  2  0  0  0
 35 45  1  0  0  0
 35 68  1  0  0  0
 36 56  1  0  0  0
 36105  1  0  0  0
 37 39  1  0  0  0
 37 47  1  0  0  0
 37 66  1  0  0  0
 37106  1  0  0  0
 38 43  2  0  0  0
 38 46  1  0  0  0
 38 47  1  0  0  0
 39 64  1  0  0  0
 39 67  2  0  0  0
 40 52  1  0  0  0
 40 53  2  0  0  0
 40 58  1  0  0  0
 41107  1  0  0  0
 41108  1  0  0  0
 41109  1  0  0  0
 41 48  1  0  0  0
 42 43  1  0  0  0
 42 66  1  0  0  0
 42110  1  0  0  0
 42111  1  0  0  0
 43 44  1  0  0  0
 44112  1  0  0  0
 45 46  2  0  0  0
 45113  1  0  0  0
 46114  1  0  0  0
 47115  1  0  0  0
 47116  1  0  0  0
 48 56  1  0  0  0
 48 65  1  0  0  0
 48117  1  0  0  0
 49 50  1  0  0  0
 49 53  1  0  0  0
 49 64  1  0  0  0
 49118  1  0  0  0
 50 51  1  0  0  0
 50119  1  0  0  0
 50120  1  0  0  0
 51 52  1  0  0  0
 51121  1  0  0  0
 51122  1  0  0  0
 52123  1  0  0  0
 52124  1  0  0  0
 53 54  1  0  0  0
 54 55  2  0  0  0
 54125  1  0  0  0
 55 57  1  0  0  0
 55126  1  0  0  0
 56 69  2  0  0  0
 57 58  2  0  0  0
 57127  1  0  0  0
 58128  1  0  0  0
 59 60  1  0  0  0
 59 61  1  0  0  0
 59 62  1  0  0  0
 60129  1  0  0  0
 60130  1  0  0  0
 60131  1  0  0  0
 61132  1  0  0  0
 61133  1  0  0  0
 61134  1  0  0  0
 62135  1  0  0  0
 62136  1  0  0  0
 62137  1  0  0  0
 63 65  1  0  0  0
 63138  1  0  0  0
 63139  1  0  0  0
 63140  1  0  0  0
 64141  1  0  0  0
 65142  1  0  0  0
 68 80  1  0  0  0
 71 73  2  0  0  0
 71 75  1  0  0  0
 71143  1  0  0  0
 72 74  1  0  0  0
 72 75  2  0  0  0
 72144  1  0  0  0
 73 76  1  0  0  0
 73 77  1  0  0  0
 74 76  2  0  0  0
 74 78  1  0  0  0
 75 82  1  0  0  0
 76 83  1  0  0  0
 77 79  1  0  0  0
 77145  1  0  0  0
 77146  1  0  0  0
 78 81  1  0  0  0
 78147  1  0  0  0
 78148  1  0  0  0
 79 80  1  0  0  0
 79149  1  0  0  0
 79150  1  0  0  0
 80151  1  0  0  0
 80152  1  0  0  0
 81153  1  0  0  0
M  ISO  4   1 100  68 101  80 101  81 100
M  END
> <chiral flag>
0

> <version>
0

> <s_m_source_file>
/data/baiqing/PycharmProjects/Reinvent-master-3.2/result/LINK_invent/BTK/process_docking_weight1_custom_sum_contain_oxygen_bond_distance_aromatic_linkinvent_7_9_3/rearranged_h_0034.sdf

> <i_m_source_file_index>
75

> <r_mmod_Potential_Energy-OPLS-2005>
83.3577194213867

> <r_mmod_Stretch_Energy-OPLS-2005>
105.560485839844

> <r_mmod_Bend_Energy-OPLS-2005>
156.126358032227

> <r_mmod_Torsional_Energy-OPLS-2005>
211.336486816406

> <r_mmod_Improper_Torsional_Energy-OPLS-2005>
4.91196823120117

> <r_mmod_Van_der_Waal_Energy-OPLS-2005>
142.982574462891

> <r_mmod_Electrostatic_Energy-OPLS-2005>
-401.086303710938

> <r_mmod_Solvation_Energy-OPLS-2005>
-207.076995849609

> <b_mmod_Minimization_Converged-OPLS-2005>
0

> <r_mmod_RMS_Derivative-OPLS-2005>
4.42647504806519

$$$$
77
                    3D
 Structure written by MMmdl.
162170  0  0  1  0            999 V2000
  -30.6210  -14.6874   20.4557 C   0  0  0  0  0  0
  -30.4260  -12.3984   19.5114 C   0  0  0  0  0  0
  -29.5331  -12.5077   18.2545 C   0  0  0  0  0  0
  -28.0481  -12.3529   18.6411 C   0  0  0  0  0  0
  -27.6476  -13.2354   19.8566 C   0  0  2  0  0  0
  -28.6805  -13.1471   21.0064 C   0  0  0  0  0  0
  -25.2492  -13.8201   20.5650 C   0  0  0  0  0  0
  -24.1795  -13.0441   20.9181 C   0  0  0  0  0  0
  -24.6400  -11.6919   20.8708 C   0  0  0  0  0  0
  -23.9084  -10.4290   21.0386 C   0  0  0  0  0  0
  -24.3630   -9.4211   21.9162 C   0  0  0  0  0  0
  -23.6301   -8.2251   22.0746 C   0  0  0  0  0  0
  -22.4275   -8.0285   21.3544 C   0  0  0  0  0  0
  -21.9910   -9.0256   20.4650 C   0  0  0  0  0  0
  -22.7254  -10.2120   20.3047 C   0  0  0  0  0  0
  -21.6849   -6.0736   22.5269 C   0  0  0  0  0  0
  -21.4029   -6.5635   23.8214 C   0  0  0  0  0  0
  -21.3673   -5.6782   24.9163 C   0  0  0  0  0  0
  -21.6044   -4.3048   24.7215 C   0  0  0  0  0  0
  -21.8814   -3.8147   23.4334 C   0  0  0  0  0  0
  -21.9186   -4.6962   22.3395 C   0  0  0  0  0  0
  -22.7811  -13.5213   21.1867 C   0  0  0  0  0  0
  -22.1650   -4.2153   21.0967 F   0  0  0  0  0  0
  -21.5633   -3.4529   25.7722 F   0  0  0  0  0  0
  -30.0028  -13.4613   20.4476 N   0  0  0  0  0  0
  -26.2944  -12.9426   20.3232 N   0  0  0  0  0  0
  -25.9330  -11.6563   20.5695 N   0  0  0  0  0  0
  -22.0464  -12.8195   22.0421 N   0  0  0  0  0  0
  -25.4126  -15.1927   20.4094 N   0  0  0  0  0  0
  -31.7796  -14.8011   20.0471 O   0  0  0  0  0  0
  -21.6646   -6.8878   21.4238 O   0  0  0  0  0  0
  -22.3497  -14.5534   20.6761 O   0  0  0  0  0  0
  -24.6277  -31.8593   23.1950 C   0  0  0  0  0  0
  -25.9119  -32.4784   23.8295 C   0  0  1  0  0  0
  -27.2220  -27.3045   20.1002 C   0  0  0  0  0  0
  -25.5916  -33.8577   24.2242 N   0  0  0  0  0  0
  -23.4214  -30.4836   21.5410 C   0  0  2  0  0  0
  -24.8664  -28.9382   20.1073 C   0  0  0  0  0  0
  -22.7482  -29.4630   22.4892 C   0  0  0  0  0  0
  -18.0296  -28.1382   22.8481 C   0  0  0  0  0  0
  -24.1499  -36.7328   23.2621 C   0  0  0  0  0  0
  -25.9619  -30.7931   21.3572 C   0  0  0  0  0  0
  -26.0387  -29.4127   20.7076 C   0  0  0  0  0  0
  -27.2210  -28.6099   20.6924 C   0  0  0  0  0  0
  -26.0224  -26.8935   19.4728 C   0  0  0  0  0  0
  -24.8609  -27.6844   19.4828 C   0  0  0  0  0  0
  -23.6356  -29.8204   20.1555 C   0  0  0  0  0  0
  -25.4110  -36.3090   24.0319 C   0  0  1  0  0  0
  -20.5894  -28.3697   23.1263 C   0  0  2  0  0  0
  -20.6770  -26.9412   22.5399 C   0  0  0  0  0  0
  -19.5749  -26.6381   21.5199 C   0  0  0  0  0  0
  -18.1932  -26.7925   22.1619 C   0  0  0  0  0  0
  -19.1547  -28.8853   23.2882 C   0  0  0  0  0  0
  -18.9470  -30.1442   23.8915 C   0  0  0  0  0  0
  -17.6469  -30.6582   24.0566 C   0  0  0  0  0  0
  -25.9049  -34.9460   23.5096 C   0  0  0  0  0  0
  -16.5361  -29.9091   23.6309 C   0  0  0  0  0  0
  -16.7283  -28.6506   23.0340 C   0  0  0  0  0  0
  -26.4486  -31.6560   25.0641 C   0  0  0  0  0  0
  -25.3715  -31.3706   26.1364 C   0  0  0  0  0  0
  -27.0269  -30.2983   24.6007 C   0  0  0  0  0  0
  -27.6052  -32.4256   25.7441 C   0  0  0  0  0  0
  -27.5594  -37.1802   24.8448 C   0  0  0  0  0  0
  -21.4187  -29.3059   22.3660 N   0  0  0  0  0  0
  -26.4279  -37.3786   23.9422 N   0  0  0  0  0  0
  -24.6911  -31.0603   22.0909 N   0  0  0  0  0  0
  -23.4202  -28.8158   23.2956 O   0  0  0  0  0  0
  -28.3296  -26.4323   20.1466 O   0  0  0  0  0  0
  -26.5631  -34.8937   22.4664 O   0  0  0  0  0  0
  -23.5446  -32.1379   23.7294 O   0  0  0  0  0  0
  -31.7196  -20.0670   21.6602 C   0  0  0  0  0  0
  -29.4331  -19.7405   20.1533 C   0  0  0  0  0  0
  -31.2743  -18.7555   21.3959 C   0  0  0  0  0  0
  -31.0716  -21.2231   21.1591 C   0  0  0  0  0  0
  -29.8391  -21.1035   20.4474 C   0  0  0  0  0  0
  -30.1510  -18.5479   20.5652 C   0  0  0  0  0  0
  -32.0906  -17.5979   21.9418 C   0  0  0  0  0  0
  -32.6220  -22.8852   20.0607 C   0  0  0  0  0  0
  -31.8434  -22.5253   21.3353 C   0  0  0  0  0  0
  -28.9645  -22.3341   19.9117 C   0  0  0  0  0  0
  -29.8460  -17.1209   19.9442 C   0  0  0  0  0  0
  -29.1846  -23.8878   20.3089 C   0  0  0  0  0  0
  -28.0964  -24.9803   19.8932 C   0  0  0  0  0  0
  -29.8397  -15.7961   20.6917 N   0  0  0  0  0  0
  -31.4846  -12.4653   19.2500 H   0  0  0  0  0  0
  -30.3019  -11.4204   19.9821 H   0  0  0  0  0  0
  -29.8182  -11.7507   17.5231 H   0  0  0  0  0  0
  -29.6903  -13.4735   17.7710 H   0  0  0  0  0  0
  -27.8732  -11.3003   18.8702 H   0  0  0  0  0  0
  -27.4151  -12.5879   17.7852 H   0  0  0  0  0  0
  -27.6505  -14.2639   19.4918 H   0  0  0  0  0  0
  -28.6779  -12.1559   21.4614 H   0  0  0  0  0  0
  -28.4167  -13.8379   21.8093 H   0  0  0  0  0  0
  -25.2788   -9.5698   22.4743 H   0  0  0  0  0  0
  -24.0005   -7.4658   22.7483 H   0  0  0  0  0  0
  -21.0830   -8.8797   19.8971 H   0  0  0  0  0  0
  -22.3721  -10.9657   19.6166 H   0  0  0  0  0  0
  -21.2035   -7.6151   23.9716 H   0  0  0  0  0  0
  -21.1505   -6.0512   25.9068 H   0  0  0  0  0  0
  -22.0585   -2.7610   23.2823 H   0  0  0  0  0  0
  -22.4085  -11.9853   22.4797 H   0  0  0  0  0  0
  -21.1106  -13.1246   22.2686 H   0  0  0  0  0  0
  -24.6406  -15.8377   20.5391 H   0  0  0  0  0  0
  -26.2416  -15.6381   20.0366 H   0  0  0  0  0  0
  -26.7180  -32.5471   23.1043 H   0  0  0  0  0  0
  -25.0018  -33.9707   25.0362 H   0  0  0  0  0  0
  -22.7164  -31.3054   21.3976 H   0  0  0  0  0  0
  -23.3750  -35.9671   23.3238 H   0  0  0  0  0  0
  -24.3607  -36.8996   22.2047 H   0  0  0  0  0  0
  -23.7263  -37.6523   23.6671 H   0  0  0  0  0  0
  -26.0653  -31.5440   20.5722 H   0  0  0  0  0  0
  -26.8535  -30.8678   21.9657 H   0  0  0  0  0  0
  -28.1216  -28.9744   21.1655 H   0  0  0  0  0  0
  -25.9449  -25.9393   18.9738 H   0  0  0  0  0  0
  -23.9626  -27.3159   19.0051 H   0  0  0  0  0  0
  -23.7578  -30.5973   19.3997 H   0  0  0  0  0  0
  -22.7553  -29.2519   19.8502 H   0  0  0  0  0  0
  -25.1282  -36.1922   25.0808 H   0  0  0  0  0  0
  -21.0011  -28.3267   24.1377 H   0  0  0  0  0  0
  -20.5642  -26.2308   23.3605 H   0  0  0  0  0  0
  -21.6644  -26.7416   22.1218 H   0  0  0  0  0  0
  -19.6904  -25.6292   21.1234 H   0  0  0  0  0  0
  -19.6674  -27.3184   20.6722 H   0  0  0  0  0  0
  -17.4193  -26.6662   21.4036 H   0  0  0  0  0  0
  -18.0348  -26.0071   22.9027 H   0  0  0  0  0  0
  -19.7944  -30.7241   24.2308 H   0  0  0  0  0  0
  -17.5030  -31.6257   24.5177 H   0  0  0  0  0  0
  -15.5368  -30.3004   23.7609 H   0  0  0  0  0  0
  -15.8681  -28.0825   22.7048 H   0  0  0  0  0  0
  -24.5920  -30.7019   25.7701 H   0  0  0  0  0  0
  -24.8865  -32.2876   26.4719 H   0  0  0  0  0  0
  -25.8036  -30.8942   27.0171 H   0  0  0  0  0  0
  -26.2770  -29.6772   24.1090 H   0  0  0  0  0  0
  -27.4067  -29.7187   25.4429 H   0  0  0  0  0  0
  -27.8606  -30.4276   23.9100 H   0  0  0  0  0  0
  -27.2676  -33.3577   26.1982 H   0  0  0  0  0  0
  -28.3898  -32.6766   25.0294 H   0  0  0  0  0  0
  -28.0654  -31.8370   26.5383 H   0  0  0  0  0  0
  -28.2556  -38.0155   24.7556 H   0  0  0  0  0  0
  -28.1147  -36.2688   24.6177 H   0  0  0  0  0  0
  -27.2334  -37.1341   25.8853 H   0  0  0  0  0  0
  -20.9344  -29.8822   21.6915 H   0  0  0  0  0  0
  -26.0162  -38.2856   24.1444 H   0  0  0  0  0  0
  -32.6394  -20.1820   22.2161 H   0  0  0  0  0  0
  -28.5595  -19.6053   19.5291 H   0  0  0  0  0  0
  -32.9018  -17.9325   22.5887 H   0  0  0  0  0  0
  -32.5331  -17.0388   21.1200 H   0  0  0  0  0  0
  -31.4641  -16.9297   22.5345 H   0  0  0  0  0  0
  -33.1916  -23.8038   20.1935 H   0  0  0  0  0  0
  -31.9540  -23.0315   19.2117 H   0  0  0  0  0  0
  -33.3217  -22.0929   19.7930 H   0  0  0  0  0  0
  -32.5569  -22.4140   22.1529 H   0  0  0  0  0  0
  -31.2244  -23.3475   21.6682 H   0  0  0  0  0  0
  -27.9360  -22.0879   20.1781 H   0  0  0  0  0  0
  -28.9863  -22.2727   18.8231 H   0  0  0  0  0  0
  -30.5545  -17.0195   19.1216 H   0  0  0  0  0  0
  -28.8756  -17.1924   19.4534 H   0  0  0  0  0  0
  -30.1318  -24.2296   19.8962 H   0  0  0  0  0  0
  -29.2430  -23.9627   21.3919 H   0  0  0  0  0  0
  -27.1876  -24.6929   20.4226 H   0  0  0  0  0  0
  -27.8937  -24.8569   18.8293 H   0  0  0  0  0  0
  -28.9426  -15.5697   21.0937 H   0  0  0  0  0  0
  1 25  1  0  0  0
  1 30  2  0  0  0
  1 84  1  0  0  0
  2  3  1  0  0  0
  2 25  1  0  0  0
  2 85  1  0  0  0
  2 86  1  0  0  0
  3  4  1  0  0  0
  3 87  1  0  0  0
  3 88  1  0  0  0
  4  5  1  0  0  0
  4 89  1  0  0  0
  4 90  1  0  0  0
  5  6  1  0  0  0
  5 26  1  0  0  0
  5 91  1  0  0  0
  6 25  1  0  0  0
  6 92  1  0  0  0
  6 93  1  0  0  0
  7  8  2  0  0  0
  7 26  1  0  0  0
  7 29  1  0  0  0
  8  9  1  0  0  0
  8 22  1  0  0  0
  9 10  1  0  0  0
  9 27  2  0  0  0
 10 11  2  0  0  0
 10 15  1  0  0  0
 11 12  1  0  0  0
 11 94  1  0  0  0
 12 13  2  0  0  0
 12 95  1  0  0  0
 13 14  1  0  0  0
 13 31  1  0  0  0
 14 15  2  0  0  0
 14 96  1  0  0  0
 15 97  1  0  0  0
 16 17  2  0  0  0
 16 21  1  0  0  0
 16 31  1  0  0  0
 17 18  1  0  0  0
 17 98  1  0  0  0
 18 19  2  0  0  0
 18 99  1  0  0  0
 19 20  1  0  0  0
 19 24  1  0  0  0
 20 21  2  0  0  0
 20100  1  0  0  0
 21 23  1  0  0  0
 22 28  1  0  0  0
 22 32  2  0  0  0
 26 27  1  0  0  0
 28101  1  0  0  0
 28102  1  0  0  0
 29103  1  0  0  0
 29104  1  0  0  0
 33 34  1  0  0  0
 33 66  1  0  0  0
 33 70  2  0  0  0
 34 36  1  0  0  0
 34 59  1  0  0  0
 34105  1  0  0  0
 35 44  2  0  0  0
 35 45  1  0  0  0
 35 68  1  0  0  0
 36 56  1  0  0  0
 36106  1  0  0  0
 37 39  1  0  0  0
 37 47  1  0  0  0
 37 66  1  0  0  0
 37107  1  0  0  0
 38 43  2  0  0  0
 38 46  1  0  0  0
 38 47  1  0  0  0
 39 64  1  0  0  0
 39 67  2  0  0  0
 40 52  1  0  0  0
 40 53  2  0  0  0
 40 58  1  0  0  0
 41108  1  0  0  0
 41109  1  0  0  0
 41110  1  0  0  0
 41 48  1  0  0  0
 42 43  1  0  0  0
 42 66  1  0  0  0
 42111  1  0  0  0
 42112  1  0  0  0
 43 44  1  0  0  0
 44113  1  0  0  0
 45 46  2  0  0  0
 45114  1  0  0  0
 46115  1  0  0  0
 47116  1  0  0  0
 47117  1  0  0  0
 48 56  1  0  0  0
 48 65  1  0  0  0
 48118  1  0  0  0
 49 50  1  0  0  0
 49 53  1  0  0  0
 49 64  1  0  0  0
 49119  1  0  0  0
 50 51  1  0  0  0
 50120  1  0  0  0
 50121  1  0  0  0
 51 52  1  0  0  0
 51122  1  0  0  0
 51123  1  0  0  0
 52124  1  0  0  0
 52125  1  0  0  0
 53 54  1  0  0  0
 54 55  2  0  0  0
 54126  1  0  0  0
 55 57  1  0  0  0
 55127  1  0  0  0
 56 69  2  0  0  0
 57 58  2  0  0  0
 57128  1  0  0  0
 58129  1  0  0  0
 59 60  1  0  0  0
 59 61  1  0  0  0
 59 62  1  0  0  0
 60130  1  0  0  0
 60131  1  0  0  0
 60132  1  0  0  0
 61133  1  0  0  0
 61134  1  0  0  0
 61135  1  0  0  0
 62136  1  0  0  0
 62137  1  0  0  0
 62138  1  0  0  0
 63 65  1  0  0  0
 63139  1  0  0  0
 63140  1  0  0  0
 63141  1  0  0  0
 64142  1  0  0  0
 65143  1  0  0  0
 68 83  1  0  0  0
 71 73  2  0  0  0
 71 74  1  0  0  0
 71144  1  0  0  0
 72 75  1  0  0  0
 72 76  2  0  0  0
 72145  1  0  0  0
 73 76  1  0  0  0
 73 77  1  0  0  0
 74 75  2  0  0  0
 74 79  1  0  0  0
 75 80  1  0  0  0
 76 81  1  0  0  0
 77146  1  0  0  0
 77147  1  0  0  0
 77148  1  0  0  0
 78 79  1  0  0  0
 78149  1  0  0  0
 78150  1  0  0  0
 78151  1  0  0  0
 79152  1  0  0  0
 79153  1  0  0  0
 80 82  1  0  0  0
 80154  1  0  0  0
 80155  1  0  0  0
 81 84  1  0  0  0
 81156  1  0  0  0
 81157  1  0  0  0
 82 83  1  0  0  0
 82158  1  0  0  0
 82159  1  0  0  0
 83160  1  0  0  0
 83161  1  0  0  0
 84162  1  0  0  0
M  ISO  4   1 100  68 101  83 101  84 100
M  END
> <chiral flag>
0

> <version>
0

> <s_m_source_file>
/data/baiqing/PycharmProjects/Reinvent-master-3.2/result/LINK_invent/BTK/process_docking_weight1_custom_sum_contain_oxygen_bond_distance_aromatic_linkinvent_7_9_3/rearranged_h_0034.sdf

> <i_m_source_file_index>
76

> <r_mmod_Potential_Energy-OPLS-2005>
93.2760467529297

> <r_mmod_Stretch_Energy-OPLS-2005>
107.054054260254

> <r_mmod_Bend_Energy-OPLS-2005>
171.685501098633

> <r_mmod_Torsional_Energy-OPLS-2005>
223.560272216797

> <r_mmod_Improper_Torsional_Energy-OPLS-2005>
9.56747913360596

> <r_mmod_Van_der_Waal_Energy-OPLS-2005>
150.863876342773

> <r_mmod_Electrostatic_Energy-OPLS-2005>
-423.880401611328

> <r_mmod_Solvation_Energy-OPLS-2005>
-208.316116333008

> <b_mmod_Minimization_Converged-OPLS-2005>
0

> <r_mmod_RMS_Derivative-OPLS-2005>
3.80479073524475

$$$$
78
                    3D
 Structure written by MMmdl.
172181  0  0  1  0            999 V2000
  -30.8480  -14.2434   20.7772 C   0  0  0  0  0  0
  -30.4077  -12.2832   19.3583 C   0  0  0  0  0  0
  -29.4664  -12.5423   18.1735 C   0  0  0  0  0  0
  -27.9995  -12.3817   18.6048 C   0  0  0  0  0  0
  -27.6666  -13.2028   19.8760 C   0  0  2  0  0  0
  -28.7057  -12.9493   20.9902 C   0  0  0  0  0  0
  -25.2610  -13.8163   20.5673 C   0  0  0  0  0  0
  -24.1849  -13.0444   20.9160 C   0  0  0  0  0  0
  -24.6395  -11.6908   20.8719 C   0  0  0  0  0  0
  -23.9057  -10.4295   21.0396 C   0  0  0  0  0  0
  -24.3610   -9.4212   21.9176 C   0  0  0  0  0  0
  -23.6288   -8.2247   22.0752 C   0  0  0  0  0  0
  -22.4271   -8.0282   21.3544 C   0  0  0  0  0  0
  -21.9903   -9.0251   20.4645 C   0  0  0  0  0  0
  -22.7229  -10.2132   20.3049 C   0  0  0  0  0  0
  -21.6853   -6.0736   22.5280 C   0  0  0  0  0  0
  -21.4014   -6.5641   23.8213 C   0  0  0  0  0  0
  -21.3658   -5.6792   24.9173 C   0  0  0  0  0  0
  -21.6042   -4.3055   24.7223 C   0  0  0  0  0  0
  -21.8818   -3.8148   23.4345 C   0  0  0  0  0  0
  -21.9193   -4.6965   22.3403 C   0  0  0  0  0  0
  -22.7874  -13.5247   21.1834 C   0  0  0  0  0  0
  -22.1662   -4.2151   21.0980 F   0  0  0  0  0  0
  -21.5626   -3.4540   25.7736 F   0  0  0  0  0  0
  -30.0589  -13.1935   20.4548 N   0  0  0  0  0  0
  -26.3052  -12.9329   20.3378 N   0  0  0  0  0  0
  -25.9322  -11.6487   20.5752 N   0  0  0  0  0  0
  -22.0514  -12.8235   22.0389 N   0  0  0  0  0  0
  -25.4347  -15.1877   20.4088 N   0  0  0  0  0  0
  -31.7431  -14.6857   20.0494 O   0  0  0  0  0  0
  -21.6639   -6.8878   21.4242 O   0  0  0  0  0  0
  -22.3560  -14.5560   20.6697 O   0  0  0  0  0  0
  -24.6102  -31.8707   23.2128 C   0  0  0  0  0  0
  -25.9015  -32.4836   23.8406 C   0  0  1  0  0  0
  -27.2362  -27.4761   20.0823 C   0  0  0  0  0  0
  -25.5888  -33.8635   24.2338 N   0  0  0  0  0  0
  -23.3951  -30.4948   21.5529 C   0  0  2  0  0  0
  -24.8395  -28.9640   20.1161 C   0  0  0  0  0  0
  -22.7382  -29.4672   22.5013 C   0  0  0  0  0  0
  -18.0266  -28.1372   22.8494 C   0  0  0  0  0  0
  -24.1483  -36.7319   23.2631 C   0  0  0  0  0  0
  -25.9194  -30.8488   21.3587 C   0  0  0  0  0  0
  -25.9969  -29.4868   20.7050 C   0  0  0  0  0  0
  -27.1980  -28.7506   20.6821 C   0  0  0  0  0  0
  -26.0610  -26.9552   19.4936 C   0  0  0  0  0  0
  -24.8641  -27.6955   19.5102 C   0  0  0  0  0  0
  -23.5997  -29.8259   20.1673 C   0  0  0  0  0  0
  -25.4100  -36.3120   24.0341 C   0  0  1  0  0  0
  -20.5852  -28.3649   23.1335 C   0  0  2  0  0  0
  -20.6758  -26.9391   22.5423 C   0  0  0  0  0  0
  -19.5740  -26.6384   21.5214 C   0  0  0  0  0  0
  -18.1915  -26.7923   22.1618 C   0  0  0  0  0  0
  -19.1514  -28.8826   23.2914 C   0  0  0  0  0  0
  -18.9447  -30.1437   23.8919 C   0  0  0  0  0  0
  -17.6451  -30.6581   24.0569 C   0  0  0  0  0  0
  -25.9030  -34.9486   23.5137 C   0  0  0  0  0  0
  -16.5341  -29.9087   23.6325 C   0  0  0  0  0  0
  -16.7257  -28.6504   23.0344 C   0  0  0  0  0  0
  -26.4459  -31.6605   25.0719 C   0  0  0  0  0  0
  -25.3741  -31.3706   26.1484 C   0  0  0  0  0  0
  -27.0277  -30.3052   24.6063 C   0  0  0  0  0  0
  -27.6047  -32.4315   25.7471 C   0  0  0  0  0  0
  -27.5598  -37.1788   24.8445 C   0  0  0  0  0  0
  -21.4115  -29.3028   22.3752 N   0  0  0  0  0  0
  -26.4279  -37.3815   23.9437 N   0  0  0  0  0  0
  -24.6596  -31.0844   22.1007 N   0  0  0  0  0  0
  -23.4175  -28.8217   23.3039 O   0  0  0  0  0  0
  -28.4316  -26.7976   20.0838 O   0  0  0  0  0  0
  -26.5594  -34.8935   22.4699 O   0  0  0  0  0  0
  -23.5308  -32.1442   23.7553 O   0  0  0  0  0  0
  -29.0626  -20.6402   21.3449 C   0  0  0  0  0  0
  -29.1987  -19.2677   21.6101 C   0  0  0  0  0  0
  -30.2179  -19.7958   23.7563 C   0  0  0  0  0  0
  -29.5205  -21.6088   22.2677 C   0  0  0  0  0  0
  -29.7891  -18.8437   22.8132 C   0  0  0  0  0  0
  -30.0836  -21.1765   23.5008 C   0  0  0  0  0  0
  -27.9170  -23.5445   21.9717 C   0  0  0  0  0  0
  -29.9932  -23.4191   20.5236 C   0  0  0  0  0  0
  -27.7935  -25.0418   21.6585 C   0  0  0  0  0  0
  -29.8685  -24.9178   20.2118 C   0  0  0  0  0  0
  -29.3835  -23.0867   21.9026 C   0  0  2  0  0  0
  -28.4056  -25.3878   20.2817 C   0  0  2  0  0  0
  -31.9986  -22.6254   24.3301 C   0  0  0  0  0  0
  -30.0054  -17.3692   23.0713 C   0  0  0  0  0  0
  -30.5633  -22.1430   24.5765 C   0  0  0  0  0  0
  -31.3998  -16.9355   22.5957 C   0  0  0  0  0  0
  -31.6805  -15.4413   22.7981 C   0  0  0  0  0  0
  -30.7435  -14.5983   22.0623 N   0  0  0  0  0  0
  -31.4476  -12.3934   19.0440 H   0  0  0  0  0  0
  -30.3103  -11.2523   19.7018 H   0  0  0  0  0  0
  -29.6923  -11.8566   17.3559 H   0  0  0  0  0  0
  -29.6294  -13.5491   17.7855 H   0  0  0  0  0  0
  -27.8170  -11.3220   18.7875 H   0  0  0  0  0  0
  -27.3349  -12.6687   17.7890 H   0  0  0  0  0  0
  -27.7259  -14.2566   19.6025 H   0  0  0  0  0  0
  -28.6448  -11.9187   21.3425 H   0  0  0  0  0  0
  -28.4631  -13.5762   21.8489 H   0  0  0  0  0  0
  -25.2756   -9.5690   22.4746 H   0  0  0  0  0  0
  -23.9999   -7.4641   22.7473 H   0  0  0  0  0  0
  -21.0834   -8.8765   19.8953 H   0  0  0  0  0  0
  -22.3686  -10.9665   19.6153 H   0  0  0  0  0  0
  -21.2007   -7.6148   23.9715 H   0  0  0  0  0  0
  -21.1479   -6.0524   25.9075 H   0  0  0  0  0  0
  -22.0597   -2.7612   23.2844 H   0  0  0  0  0  0
  -22.4127  -11.9889   22.4761 H   0  0  0  0  0  0
  -21.1134  -13.1262   22.2602 H   0  0  0  0  0  0
  -24.6744  -15.8491   20.5231 H   0  0  0  0  0  0
  -26.2996  -15.6248   20.1147 H   0  0  0  0  0  0
  -26.7086  -32.5559   23.1176 H   0  0  0  0  0  0
  -25.0048  -33.9805   25.0488 H   0  0  0  0  0  0
  -22.6818  -31.3103   21.4159 H   0  0  0  0  0  0
  -23.3765  -35.9628   23.3251 H   0  0  0  0  0  0
  -24.3597  -36.8976   22.2057 H   0  0  0  0  0  0
  -23.7198  -37.6496   23.6670 H   0  0  0  0  0  0
  -26.0256  -31.6175   20.5921 H   0  0  0  0  0  0
  -26.8095  -30.9015   21.9737 H   0  0  0  0  0  0
  -28.0952  -29.1534   21.1311 H   0  0  0  0  0  0
  -26.0565  -25.9901   19.0094 H   0  0  0  0  0  0
  -23.9735  -27.2876   19.0522 H   0  0  0  0  0  0
  -23.7030  -30.5997   19.4059 H   0  0  0  0  0  0
  -22.7250  -29.2422   19.8750 H   0  0  0  0  0  0
  -25.1265  -36.1979   25.0830 H   0  0  0  0  0  0
  -20.9944  -28.3207   24.1455 H   0  0  0  0  0  0
  -20.5659  -26.2256   23.3603 H   0  0  0  0  0  0
  -21.6630  -26.7440   22.1215 H   0  0  0  0  0  0
  -19.6902  -25.6301   21.1228 H   0  0  0  0  0  0
  -19.6688  -27.3209   20.6757 H   0  0  0  0  0  0
  -17.4192  -26.6686   21.4011 H   0  0  0  0  0  0
  -18.0306  -26.0054   22.9000 H   0  0  0  0  0  0
  -19.7925  -30.7246   24.2295 H   0  0  0  0  0  0
  -17.5009  -31.6266   24.5161 H   0  0  0  0  0  0
  -15.5344  -30.2999   23.7636 H   0  0  0  0  0  0
  -15.8655  -28.0836   22.7040 H   0  0  0  0  0  0
  -24.5904  -30.7061   25.7830 H   0  0  0  0  0  0
  -24.8948  -32.2863   26.4956 H   0  0  0  0  0  0
  -25.8109  -30.8861   27.0225 H   0  0  0  0  0  0
  -26.2806  -29.6823   24.1128 H   0  0  0  0  0  0
  -27.4076  -29.7273   25.4498 H   0  0  0  0  0  0
  -27.8628  -30.4382   23.9181 H   0  0  0  0  0  0
  -27.2675  -33.3601   26.2089 H   0  0  0  0  0  0
  -28.3833  -32.6895   25.0281 H   0  0  0  0  0  0
  -28.0740  -31.8414   26.5352 H   0  0  0  0  0  0
  -28.2541  -38.0161   24.7617 H   0  0  0  0  0  0
  -28.1169  -36.2706   24.6097 H   0  0  0  0  0  0
  -27.2347  -37.1227   25.8848 H   0  0  0  0  0  0
  -20.9262  -29.8759   21.6991 H   0  0  0  0  0  0
  -26.0166  -38.2874   24.1518 H   0  0  0  0  0  0
  -28.6080  -20.9428   20.4124 H   0  0  0  0  0  0
  -28.8644  -18.5445   20.8789 H   0  0  0  0  0  0
  -30.6700  -19.4613   24.6803 H   0  0  0  0  0  0
  -27.3086  -22.9723   21.2702 H   0  0  0  0  0  0
  -27.5129  -23.3459   22.9650 H   0  0  0  0  0  0
  -31.0439  -23.1270   20.5029 H   0  0  0  0  0  0
  -29.5001  -22.8573   19.7308 H   0  0  0  0  0  0
  -28.2958  -25.6174   22.4371 H   0  0  0  0  0  0
  -26.7422  -25.3268   21.6994 H   0  0  0  0  0  0
  -30.2786  -25.1253   19.2228 H   0  0  0  0  0  0
  -30.4724  -25.4866   20.9203 H   0  0  0  0  0  0
  -29.9403  -23.6876   22.6175 H   0  0  0  0  0  0
  -27.8531  -24.8905   19.4840 H   0  0  0  0  0  0
  -32.3179  -23.3097   25.1165 H   0  0  0  0  0  0
  -32.0914  -23.1480   23.3781 H   0  0  0  0  0  0
  -32.6957  -21.7869   24.3174 H   0  0  0  0  0  0
  -29.2277  -16.7998   22.5605 H   0  0  0  0  0  0
  -29.8875  -17.1642   24.1362 H   0  0  0  0  0  0
  -30.5198  -21.6447   25.5461 H   0  0  0  0  0  0
  -29.8774  -22.9853   24.6680 H   0  0  0  0  0  0
  -32.1564  -17.5108   23.1313 H   0  0  0  0  0  0
  -31.5228  -17.1890   21.5416 H   0  0  0  0  0  0
  -31.6119  -15.1910   23.8576 H   0  0  0  0  0  0
  -32.7046  -15.2101   22.4984 H   0  0  0  0  0  0
  -30.0345  -14.1190   22.5984 H   0  0  0  0  0  0
  1 25  1  0  0  0
  1 30  2  0  0  0
  1 88  1  0  0  0
  2  3  1  0  0  0
  2 25  1  0  0  0
  2 89  1  0  0  0
  2 90  1  0  0  0
  3  4  1  0  0  0
  3 91  1  0  0  0
  3 92  1  0  0  0
  4  5  1  0  0  0
  4 93  1  0  0  0
  4 94  1  0  0  0
  5  6  1  0  0  0
  5 26  1  0  0  0
  5 95  1  0  0  0
  6 25  1  0  0  0
  6 96  1  0  0  0
  6 97  1  0  0  0
  7  8  2  0  0  0
  7 26  1  0  0  0
  7 29  1  0  0  0
  8  9  1  0  0  0
  8 22  1  0  0  0
  9 10  1  0  0  0
  9 27  2  0  0  0
 10 11  2  0  0  0
 10 15  1  0  0  0
 11 12  1  0  0  0
 11 98  1  0  0  0
 12 13  2  0  0  0
 12 99  1  0  0  0
 13 14  1  0  0  0
 13 31  1  0  0  0
 14 15  2  0  0  0
 14100  1  0  0  0
 15101  1  0  0  0
 16 17  2  0  0  0
 16 21  1  0  0  0
 16 31  1  0  0  0
 17 18  1  0  0  0
 17102  1  0  0  0
 18 19  2  0  0  0
 18103  1  0  0  0
 19 20  1  0  0  0
 19 24  1  0  0  0
 20 21  2  0  0  0
 20104  1  0  0  0
 21 23  1  0  0  0
 22 28  1  0  0  0
 22 32  2  0  0  0
 26 27  1  0  0  0
 28105  1  0  0  0
 28106  1  0  0  0
 29107  1  0  0  0
 29108  1  0  0  0
 33 34  1  0  0  0
 33 66  1  0  0  0
 33 70  2  0  0  0
 34 36  1  0  0  0
 34 59  1  0  0  0
 34109  1  0  0  0
 35 44  2  0  0  0
 35 45  1  0  0  0
 35 68  1  0  0  0
 36 56  1  0  0  0
 36110  1  0  0  0
 37 39  1  0  0  0
 37 47  1  0  0  0
 37 66  1  0  0  0
 37111  1  0  0  0
 38 43  2  0  0  0
 38 46  1  0  0  0
 38 47  1  0  0  0
 39 64  1  0  0  0
 39 67  2  0  0  0
 40 52  1  0  0  0
 40 53  2  0  0  0
 40 58  1  0  0  0
 41112  1  0  0  0
 41113  1  0  0  0
 41114  1  0  0  0
 41 48  1  0  0  0
 42 43  1  0  0  0
 42 66  1  0  0  0
 42115  1  0  0  0
 42116  1  0  0  0
 43 44  1  0  0  0
 44117  1  0  0  0
 45 46  2  0  0  0
 45118  1  0  0  0
 46119  1  0  0  0
 47120  1  0  0  0
 47121  1  0  0  0
 48 56  1  0  0  0
 48 65  1  0  0  0
 48122  1  0  0  0
 49 50  1  0  0  0
 49 53  1  0  0  0
 49 64  1  0  0  0
 49123  1  0  0  0
 50 51  1  0  0  0
 50124  1  0  0  0
 50125  1  0  0  0
 51 52  1  0  0  0
 51126  1  0  0  0
 51127  1  0  0  0
 52128  1  0  0  0
 52129  1  0  0  0
 53 54  1  0  0  0
 54 55  2  0  0  0
 54130  1  0  0  0
 55 57  1  0  0  0
 55131  1  0  0  0
 56 69  2  0  0  0
 57 58  2  0  0  0
 57132  1  0  0  0
 58133  1  0  0  0
 59 60  1  0  0  0
 59 61  1  0  0  0
 59 62  1  0  0  0
 60134  1  0  0  0
 60135  1  0  0  0
 60136  1  0  0  0
 61137  1  0  0  0
 61138  1  0  0  0
 61139  1  0  0  0
 62140  1  0  0  0
 62141  1  0  0  0
 62142  1  0  0  0
 63 65  1  0  0  0
 63143  1  0  0  0
 63144  1  0  0  0
 63145  1  0  0  0
 64146  1  0  0  0
 65147  1  0  0  0
 68 82  1  0  0  0
 71 72  2  0  0  0
 71 74  1  0  0  0
 71148  1  0  0  0
 72 75  1  0  0  0
 72149  1  0  0  0
 73 75  2  0  0  0
 73 76  1  0  0  0
 73150  1  0  0  0
 74 76  2  0  0  0
 74 81  1  0  0  0
 75 84  1  0  0  0
 76 85  1  0  0  0
 77 79  1  0  0  0
 77 81  1  0  0  0
 77151  1  0  0  0
 77152  1  0  0  0
 78 80  1  0  0  0
 78 81  1  0  0  0
 78153  1  0  0  0
 78154  1  0  0  0
 79 82  1  0  0  0
 79155  1  0  0  0
 79156  1  0  0  0
 80 82  1  0  0  0
 80157  1  0  0  0
 80158  1  0  0  0
 81159  1  0  0  0
 82160  1  0  0  0
 83 85  1  0  0  0
 83161  1  0  0  0
 83162  1  0  0  0
 83163  1  0  0  0
 84 86  1  0  0  0
 84164  1  0  0  0
 84165  1  0  0  0
 85166  1  0  0  0
 85167  1  0  0  0
 86 87  1  0  0  0
 86168  1  0  0  0
 86169  1  0  0  0
 87 88  1  0  0  0
 87170  1  0  0  0
 87171  1  0  0  0
 88172  1  0  0  0
M  ISO  4   1 100  68 101  82 101  88 100
M  END
> <chiral flag>
0

> <version>
0

> <s_m_source_file>
/data/baiqing/PycharmProjects/Reinvent-master-3.2/result/LINK_invent/BTK/process_docking_weight1_custom_sum_contain_oxygen_bond_distance_aromatic_linkinvent_7_9_3/rearranged_h_0034.sdf

> <i_m_source_file_index>
77

> <r_mmod_Potential_Energy-OPLS-2005>
-77.3572235107422

> <r_mmod_Stretch_Energy-OPLS-2005>
31.4288959503174

> <r_mmod_Bend_Energy-OPLS-2005>
90.4290313720703

> <r_mmod_Torsional_Energy-OPLS-2005>
224.457916259766

> <r_mmod_Improper_Torsional_Energy-OPLS-2005>
5.35610198974609

> <r_mmod_Van_der_Waal_Energy-OPLS-2005>
156.298934936523

> <r_mmod_Electrostatic_Energy-OPLS-2005>
-400.849884033203

> <r_mmod_Solvation_Energy-OPLS-2005>
-195.353240966797

> <b_mmod_Minimization_Converged-OPLS-2005>
0

> <r_mmod_RMS_Derivative-OPLS-2005>
0.326374173164368

$$$$
79
                    3D
 Structure written by MMmdl.
158167  0  0  1  0            999 V2000
  -30.5789  -14.7903   20.4573 C   0  0  0  0  0  0
  -30.4408  -12.4841   19.4803 C   0  0  0  0  0  0
  -29.5222  -12.5277   18.2376 C   0  0  0  0  0  0
  -28.0489  -12.3298   18.6468 C   0  0  0  0  0  0
  -27.6400  -13.2295   19.8428 C   0  0  2  0  0  0
  -28.6826  -13.1701   20.9817 C   0  0  0  0  0  0
  -25.2496  -13.8098   20.5752 C   0  0  0  0  0  0
  -24.1808  -13.0366   20.9282 C   0  0  0  0  0  0
  -24.6407  -11.6849   20.8759 C   0  0  0  0  0  0
  -23.9069  -10.4237   21.0407 C   0  0  0  0  0  0
  -24.3614   -9.4148   21.9181 C   0  0  0  0  0  0
  -23.6277   -8.2192   22.0741 C   0  0  0  0  0  0
  -22.4262   -8.0250   21.3527 C   0  0  0  0  0  0
  -21.9902   -9.0225   20.4626 C   0  0  0  0  0  0
  -22.7245  -10.2096   20.3040 C   0  0  0  0  0  0
  -21.6827   -6.0727   22.5294 C   0  0  0  0  0  0
  -21.3995   -6.5631   23.8224 C   0  0  0  0  0  0
  -21.3660   -5.6786   24.9184 C   0  0  0  0  0  0
  -21.6048   -4.3049   24.7234 C   0  0  0  0  0  0
  -21.8811   -3.8145   23.4352 C   0  0  0  0  0  0
  -21.9173   -4.6961   22.3411 C   0  0  0  0  0  0
  -22.7830  -13.5171   21.1922 C   0  0  0  0  0  0
  -22.1651   -4.2150   21.0986 F   0  0  0  0  0  0
  -21.5628   -3.4534   25.7739 F   0  0  0  0  0  0
  -29.9828  -13.5445   20.4089 N   0  0  0  0  0  0
  -26.2920  -12.9343   20.3191 N   0  0  0  0  0  0
  -25.9322  -11.6486   20.5674 N   0  0  0  0  0  0
  -22.0433  -12.8187   22.0460 N   0  0  0  0  0  0
  -25.4115  -15.1793   20.4209 N   0  0  0  0  0  0
  -31.7588  -14.9132   20.1150 O   0  0  0  0  0  0
  -21.6600   -6.8877   21.4257 O   0  0  0  0  0  0
  -22.3542  -14.5480   20.6735 O   0  0  0  0  0  0
  -24.6351  -31.8525   23.1971 C   0  0  0  0  0  0
  -25.9155  -32.4745   23.8321 C   0  0  1  0  0  0
  -27.2100  -27.2350   20.1379 C   0  0  0  0  0  0
  -25.5923  -33.8550   24.2242 N   0  0  0  0  0  0
  -23.4320  -30.4773   21.5417 C   0  0  2  0  0  0
  -24.8763  -28.9243   20.1087 C   0  0  0  0  0  0
  -22.7518  -29.4601   22.4915 C   0  0  0  0  0  0
  -18.0349  -28.1356   22.8503 C   0  0  0  0  0  0
  -24.1480  -36.7289   23.2648 C   0  0  0  0  0  0
  -25.9823  -30.7606   21.3789 C   0  0  0  0  0  0
  -26.0529  -29.3828   20.7172 C   0  0  0  0  0  0
  -27.2240  -28.5528   20.7168 C   0  0  0  0  0  0
  -26.0092  -26.8545   19.4940 C   0  0  0  0  0  0
  -24.8622  -27.6688   19.4859 C   0  0  0  0  0  0
  -23.6493  -29.8164   20.1560 C   0  0  0  0  0  0
  -25.4108  -36.3084   24.0337 C   0  0  1  0  0  0
  -20.5956  -28.3708   23.1325 C   0  0  2  0  0  0
  -20.6863  -26.9430   22.5454 C   0  0  0  0  0  0
  -19.5841  -26.6457   21.5236 C   0  0  0  0  0  0
  -18.2035  -26.7871   22.1729 C   0  0  0  0  0  0
  -19.1586  -28.8853   23.2897 C   0  0  0  0  0  0
  -18.9483  -30.1466   23.8900 C   0  0  0  0  0  0
  -17.6471  -30.6571   24.0531 C   0  0  0  0  0  0
  -25.9050  -34.9448   23.5100 C   0  0  0  0  0  0
  -16.5373  -29.9041   23.6279 C   0  0  0  0  0  0
  -16.7323  -28.6451   23.0336 C   0  0  0  0  0  0
  -26.4488  -31.6585   25.0724 C   0  0  0  0  0  0
  -25.3692  -31.3750   26.1440 C   0  0  0  0  0  0
  -27.0339  -30.2998   24.6232 C   0  0  0  0  0  0
  -27.6027  -32.4346   25.7506 C   0  0  0  0  0  0
  -27.5569  -37.1802   24.8464 C   0  0  0  0  0  0
  -21.4231  -29.3045   22.3669 N   0  0  0  0  0  0
  -26.4286  -37.3776   23.9411 N   0  0  0  0  0  0
  -24.7033  -31.0457   22.0963 N   0  0  0  0  0  0
  -23.4209  -28.8171   23.3048 O   0  0  0  0  0  0
  -28.2833  -26.3062   20.2189 O   0  0  0  0  0  0
  -26.5642  -34.8928   22.4682 O   0  0  0  0  0  0
  -23.5488  -32.1366   23.7241 O   0  0  0  0  0  0
  -27.2960  -21.8214   19.8546 C   0  0  0  0  0  0
  -27.9289  -17.4440   19.1511 C   0  0  0  0  0  0
  -27.2039  -20.3922   19.6597 C   0  0  0  0  0  0
  -28.7362  -18.3050   19.9286 C   0  0  0  0  0  0
  -25.7075  -18.5520   18.7180 C   0  0  0  0  0  0
  -28.4822  -19.7802   20.0436 C   0  0  0  0  0  0
  -26.6461  -17.5204   18.6090 C   0  0  0  0  0  0
  -25.9694  -19.8581   19.1776 C   0  0  0  0  0  0
  -28.6190  -22.0630   20.3062 C   0  0  0  0  0  0
  -24.2907  -18.2264   18.2387 C   0  0  0  0  0  0
  -29.9504  -17.4356   20.5255 C   0  0  0  0  0  0
  -29.0051  -23.6140   20.5087 C   0  0  0  0  0  0
  -27.9841  -24.8229   20.0949 C   0  0  0  0  0  0
  -29.2583  -20.8426   20.4560 N   0  0  0  0  0  0
  -29.7697  -15.8995   20.6940 N   0  0  0  0  0  0
  -26.2576  -16.3917   17.9678 F   0  0  0  0  0  0
  -24.6313  -20.9703   19.0726 Cl  0  0  0  0  0  0
  -31.4837  -12.6189   19.1871 H   0  0  0  0  0  0
  -30.3874  -11.5076   19.9645 H   0  0  0  0  0  0
  -29.8210  -11.7642   17.5187 H   0  0  0  0  0  0
  -29.6409  -13.4874   17.7293 H   0  0  0  0  0  0
  -27.9241  -11.2821   18.9196 H   0  0  0  0  0  0
  -27.3937  -12.5052   17.7924 H   0  0  0  0  0  0
  -27.6284  -14.2485   19.4571 H   0  0  0  0  0  0
  -28.7287  -12.1665   21.4105 H   0  0  0  0  0  0
  -28.4038  -13.8390   21.7976 H   0  0  0  0  0  0
  -25.2766   -9.5595   22.4750 H   0  0  0  0  0  0
  -23.9954   -7.4571   22.7459 H   0  0  0  0  0  0
  -21.0822   -8.8766   19.8941 H   0  0  0  0  0  0
  -22.3732  -10.9632   19.6132 H   0  0  0  0  0  0
  -21.1993   -7.6141   23.9731 H   0  0  0  0  0  0
  -21.1491   -6.0514   25.9089 H   0  0  0  0  0  0
  -22.0592   -2.7609   23.2853 H   0  0  0  0  0  0
  -22.4011  -11.9864   22.4920 H   0  0  0  0  0  0
  -21.1039  -13.1217   22.2598 H   0  0  0  0  0  0
  -24.5705  -15.7433   20.3975 H   0  0  0  0  0  0
  -26.1049  -15.5163   19.7661 H   0  0  0  0  0  0
  -26.7227  -32.5389   23.1073 H   0  0  0  0  0  0
  -24.9991  -33.9670   25.0338 H   0  0  0  0  0  0
  -22.7329  -31.3034   21.3967 H   0  0  0  0  0  0
  -23.3746  -35.9611   23.3318 H   0  0  0  0  0  0
  -24.3566  -36.8899   22.2054 H   0  0  0  0  0  0
  -23.7215  -37.6490   23.6666 H   0  0  0  0  0  0
  -26.1232  -31.5239   20.6118 H   0  0  0  0  0  0
  -26.8585  -30.8067   22.0144 H   0  0  0  0  0  0
  -28.1229  -28.8942   21.2123 H   0  0  0  0  0  0
  -25.9144  -25.8935   19.0107 H   0  0  0  0  0  0
  -23.9611  -27.3082   19.0083 H   0  0  0  0  0  0
  -23.7805  -30.5981   19.4072 H   0  0  0  0  0  0
  -22.7653  -29.2569   19.8458 H   0  0  0  0  0  0
  -25.1287  -36.1944   25.0831 H   0  0  0  0  0  0
  -21.0042  -28.3308   24.1463 H   0  0  0  0  0  0
  -20.5741  -26.2286   23.3628 H   0  0  0  0  0  0
  -21.6736  -26.7450   22.1227 H   0  0  0  0  0  0
  -19.7070  -25.6426   21.1153 H   0  0  0  0  0  0
  -19.6714  -27.3374   20.6847 H   0  0  0  0  0  0
  -17.4266  -26.6460   21.4207 H   0  0  0  0  0  0
  -18.0620  -26.0047   22.9192 H   0  0  0  0  0  0
  -19.7966  -30.7288   24.2266 H   0  0  0  0  0  0
  -17.4981  -31.6248   24.5118 H   0  0  0  0  0  0
  -15.5349  -30.2930   23.7548 H   0  0  0  0  0  0
  -15.8753  -28.0729   22.7048 H   0  0  0  0  0  0
  -24.5870  -30.7096   25.7771 H   0  0  0  0  0  0
  -24.8883  -32.2920   26.4854 H   0  0  0  0  0  0
  -25.8007  -30.8936   27.0226 H   0  0  0  0  0  0
  -26.2932  -29.6753   24.1222 H   0  0  0  0  0  0
  -27.3957  -29.7270   25.4778 H   0  0  0  0  0  0
  -27.8842  -30.4259   23.9529 H   0  0  0  0  0  0
  -27.2611  -33.3650   26.2056 H   0  0  0  0  0  0
  -28.3852  -32.6897   25.0350 H   0  0  0  0  0  0
  -28.0676  -31.8487   26.5439 H   0  0  0  0  0  0
  -28.2605  -38.0084   24.7508 H   0  0  0  0  0  0
  -28.1060  -36.2619   24.6318 H   0  0  0  0  0  0
  -27.2294  -37.1481   25.8870 H   0  0  0  0  0  0
  -20.9404  -29.8676   21.6816 H   0  0  0  0  0  0
  -26.0183  -38.2860   24.1408 H   0  0  0  0  0  0
  -26.5364  -22.5677   19.6591 H   0  0  0  0  0  0
  -28.3421  -16.4775   18.9166 H   0  0  0  0  0  0
  -24.1159  -17.1633   18.0787 H   0  0  0  0  0  0
  -24.0717  -18.7407   17.3032 H   0  0  0  0  0  0
  -23.5518  -18.5296   18.9798 H   0  0  0  0  0  0
  -30.2021  -17.8476   21.5046 H   0  0  0  0  0  0
  -30.8237  -17.6186   19.8976 H   0  0  0  0  0  0
  -29.9294  -23.7735   19.9552 H   0  0  0  0  0  0
  -29.2716  -23.7461   21.5583 H   0  0  0  0  0  0
  -27.0684  -24.6472   20.6607 H   0  0  0  0  0  0
  -27.7309  -24.6525   19.0494 H   0  0  0  0  0  0
  -28.8338  -15.6431   20.9685 H   0  0  0  0  0  0
  1 25  1  0  0  0
  1 30  2  0  0  0
  1 85  1  0  0  0
  2  3  1  0  0  0
  2 25  1  0  0  0
  2 88  1  0  0  0
  2 89  1  0  0  0
  3  4  1  0  0  0
  3 90  1  0  0  0
  3 91  1  0  0  0
  4  5  1  0  0  0
  4 92  1  0  0  0
  4 93  1  0  0  0
  5  6  1  0  0  0
  5 26  1  0  0  0
  5 94  1  0  0  0
  6 25  1  0  0  0
  6 95  1  0  0  0
  6 96  1  0  0  0
  7  8  2  0  0  0
  7 26  1  0  0  0
  7 29  1  0  0  0
  8  9  1  0  0  0
  8 22  1  0  0  0
  9 10  1  0  0  0
  9 27  2  0  0  0
 10 11  2  0  0  0
 10 15  1  0  0  0
 11 12  1  0  0  0
 11 97  1  0  0  0
 12 13  2  0  0  0
 12 98  1  0  0  0
 13 14  1  0  0  0
 13 31  1  0  0  0
 14 15  2  0  0  0
 14 99  1  0  0  0
 15100  1  0  0  0
 16 17  2  0  0  0
 16 21  1  0  0  0
 16 31  1  0  0  0
 17 18  1  0  0  0
 17101  1  0  0  0
 18 19  2  0  0  0
 18102  1  0  0  0
 19 20  1  0  0  0
 19 24  1  0  0  0
 20 21  2  0  0  0
 20103  1  0  0  0
 21 23  1  0  0  0
 22 28  1  0  0  0
 22 32  2  0  0  0
 26 27  1  0  0  0
 28104  1  0  0  0
 28105  1  0  0  0
 29106  1  0  0  0
 29107  1  0  0  0
 33 34  1  0  0  0
 33 66  1  0  0  0
 33 70  2  0  0  0
 34 36  1  0  0  0
 34 59  1  0  0  0
 34108  1  0  0  0
 35 44  2  0  0  0
 35 45  1  0  0  0
 35 68  1  0  0  0
 36 56  1  0  0  0
 36109  1  0  0  0
 37 39  1  0  0  0
 37 47  1  0  0  0
 37 66  1  0  0  0
 37110  1  0  0  0
 38 43  2  0  0  0
 38 46  1  0  0  0
 38 47  1  0  0  0
 39 64  1  0  0  0
 39 67  2  0  0  0
 40 52  1  0  0  0
 40 53  2  0  0  0
 40 58  1  0  0  0
 41111  1  0  0  0
 41112  1  0  0  0
 41113  1  0  0  0
 41 48  1  0  0  0
 42 43  1  0  0  0
 42 66  1  0  0  0
 42114  1  0  0  0
 42115  1  0  0  0
 43 44  1  0  0  0
 44116  1  0  0  0
 45 46  2  0  0  0
 45117  1  0  0  0
 46118  1  0  0  0
 47119  1  0  0  0
 47120  1  0  0  0
 48 56  1  0  0  0
 48 65  1  0  0  0
 48121  1  0  0  0
 49 50  1  0  0  0
 49 53  1  0  0  0
 49 64  1  0  0  0
 49122  1  0  0  0
 50 51  1  0  0  0
 50123  1  0  0  0
 50124  1  0  0  0
 51 52  1  0  0  0
 51125  1  0  0  0
 51126  1  0  0  0
 52127  1  0  0  0
 52128  1  0  0  0
 53 54  1  0  0  0
 54 55  2  0  0  0
 54129  1  0  0  0
 55 57  1  0  0  0
 55130  1  0  0  0
 56 69  2  0  0  0
 57 58  2  0  0  0
 57131  1  0  0  0
 58132  1  0  0  0
 59 60  1  0  0  0
 59 61  1  0  0  0
 59 62  1  0  0  0
 60133  1  0  0  0
 60134  1  0  0  0
 60135  1  0  0  0
 61136  1  0  0  0
 61137  1  0  0  0
 61138  1  0  0  0
 62139  1  0  0  0
 62140  1  0  0  0
 62141  1  0  0  0
 63 65  1  0  0  0
 63142  1  0  0  0
 63143  1  0  0  0
 63144  1  0  0  0
 64145  1  0  0  0
 65146  1  0  0  0
 68 83  1  0  0  0
 71 73  2  0  0  0
 71 79  1  0  0  0
 71147  1  0  0  0
 72 74  1  0  0  0
 72 77  2  0  0  0
 72148  1  0  0  0
 73 76  1  0  0  0
 73 78  1  0  0  0
 74 76  2  0  0  0
 74 81  1  0  0  0
 75 77  1  0  0  0
 75 78  2  0  0  0
 75 80  1  0  0  0
 76 84  1  0  0  0
 77 86  1  0  0  0
 78 87  1  0  0  0
 79 82  1  0  0  0
 79 84  2  0  0  0
 80149  1  0  0  0
 80150  1  0  0  0
 80151  1  0  0  0
 81 85  1  0  0  0
 81152  1  0  0  0
 81153  1  0  0  0
 82 83  1  0  0  0
 82154  1  0  0  0
 82155  1  0  0  0
 83156  1  0  0  0
 83157  1  0  0  0
 85158  1  0  0  0
M  ISO  4   1 100  68 101  83 101  85 100
M  END
> <chiral flag>
0

> <version>
0

> <s_m_source_file>
/data/baiqing/PycharmProjects/Reinvent-master-3.2/result/LINK_invent/BTK/process_docking_weight1_custom_sum_contain_oxygen_bond_distance_aromatic_linkinvent_7_9_3/rearranged_h_0034.sdf

> <i_m_source_file_index>
78

> <r_mmod_Potential_Energy-OPLS-2005>
263.814361572266

> <r_mmod_Stretch_Energy-OPLS-2005>
155.50178527832

> <r_mmod_Bend_Energy-OPLS-2005>
258.925750732422

> <r_mmod_Torsional_Energy-OPLS-2005>
228.552963256836

> <r_mmod_Improper_Torsional_Energy-OPLS-2005>
8.68208026885986

> <r_mmod_Van_der_Waal_Energy-OPLS-2005>
146.718200683594

> <r_mmod_Electrostatic_Energy-OPLS-2005>
-429.028656005859

> <r_mmod_Solvation_Energy-OPLS-2005>
-212.739852905273

> <b_mmod_Minimization_Converged-OPLS-2005>
0

> <r_mmod_RMS_Derivative-OPLS-2005>
3.19116640090942

$$$$
80
                    3D
 Structure written by MMmdl.
189197  0  0  1  0            999 V2000
  -30.7237  -14.4079   20.5968 C   0  0  0  0  0  0
  -30.4110  -12.2919   19.3858 C   0  0  0  0  0  0
  -29.4750  -12.5577   18.1875 C   0  0  0  0  0  0
  -28.0018  -12.3986   18.6034 C   0  0  0  0  0  0
  -27.6615  -13.2099   19.8793 C   0  0  2  0  0  0
  -28.7094  -12.9307   20.9814 C   0  0  0  0  0  0
  -25.2612  -13.8174   20.5739 C   0  0  0  0  0  0
  -24.1847  -13.0409   20.9196 C   0  0  0  0  0  0
  -24.6450  -11.6883   20.8839 C   0  0  0  0  0  0
  -23.9130  -10.4256   21.0532 C   0  0  0  0  0  0
  -24.3645   -9.4122   21.9297 C   0  0  0  0  0  0
  -23.6280   -8.2172   22.0780 C   0  0  0  0  0  0
  -22.4253   -8.0307   21.3556 C   0  0  0  0  0  0
  -21.9955   -9.0307   20.4669 C   0  0  0  0  0  0
  -22.7339  -10.2147   20.3121 C   0  0  0  0  0  0
  -21.6802   -6.0794   22.5295 C   0  0  0  0  0  0
  -21.4005   -6.5681   23.8254 C   0  0  0  0  0  0
  -21.3653   -5.6805   24.9199 C   0  0  0  0  0  0
  -21.6028   -4.3072   24.7198 C   0  0  0  0  0  0
  -21.8806   -3.8182   23.4313 C   0  0  0  0  0  0
  -21.9145   -4.7026   22.3380 C   0  0  0  0  0  0
  -22.7869  -13.5216   21.1818 C   0  0  0  0  0  0
  -22.1557   -4.2245   21.0939 F   0  0  0  0  0  0
  -21.5619   -3.4512   25.7673 F   0  0  0  0  0  0
  -30.0405  -13.2441   20.4411 N   0  0  0  0  0  0
  -26.3047  -12.9335   20.3414 N   0  0  0  0  0  0
  -25.9371  -11.6485   20.5799 N   0  0  0  0  0  0
  -22.0486  -12.8210   22.0393 N   0  0  0  0  0  0
  -25.4330  -15.1903   20.4269 N   0  0  0  0  0  0
  -31.8278  -14.5917   20.0769 O   0  0  0  0  0  0
  -21.6560   -6.8947   21.4277 O   0  0  0  0  0  0
  -22.3536  -14.5481   20.6626 O   0  0  0  0  0  0
  -24.6073  -31.8736   23.2151 C   0  0  0  0  0  0
  -25.8990  -32.4852   23.8447 C   0  0  1  0  0  0
  -27.2740  -27.4993   20.0770 C   0  0  0  0  0  0
  -25.5859  -33.8650   24.2386 N   0  0  0  0  0  0
  -23.3958  -30.4920   21.5541 C   0  0  2  0  0  0
  -24.8538  -28.9665   20.1215 C   0  0  0  0  0  0
  -22.7395  -29.4659   22.5034 C   0  0  0  0  0  0
  -18.0262  -28.1367   22.8522 C   0  0  0  0  0  0
  -24.1477  -36.7308   23.2646 C   0  0  0  0  0  0
  -25.9190  -30.8547   21.3654 C   0  0  0  0  0  0
  -26.0067  -29.4922   20.7176 C   0  0  0  0  0  0
  -27.2166  -28.7677   20.7015 C   0  0  0  0  0  0
  -26.0990  -26.9767   19.4935 C   0  0  0  0  0  0
  -24.8911  -27.7025   19.5112 C   0  0  0  0  0  0
  -23.6071  -29.8216   20.1702 C   0  0  0  0  0  0
  -25.4092  -36.3122   24.0361 C   0  0  1  0  0  0
  -20.5864  -28.3637   23.1351 C   0  0  2  0  0  0
  -20.6768  -26.9380   22.5443 C   0  0  0  0  0  0
  -19.5740  -26.6384   21.5247 C   0  0  0  0  0  0
  -18.1911  -26.7923   22.1646 C   0  0  0  0  0  0
  -19.1519  -28.8818   23.2935 C   0  0  0  0  0  0
  -18.9439  -30.1429   23.8931 C   0  0  0  0  0  0
  -17.6441  -30.6581   24.0553 C   0  0  0  0  0  0
  -25.9010  -34.9483   23.5170 C   0  0  0  0  0  0
  -16.5328  -29.9073   23.6332 C   0  0  0  0  0  0
  -16.7251  -28.6483   23.0372 C   0  0  0  0  0  0
  -26.4459  -31.6586   25.0729 C   0  0  0  0  0  0
  -25.3741  -31.3676   26.1484 C   0  0  0  0  0  0
  -27.0311  -30.3041   24.6064 C   0  0  0  0  0  0
  -27.6072  -32.4279   25.7474 C   0  0  0  0  0  0
  -27.5582  -37.1799   24.8468 C   0  0  0  0  0  0
  -21.4129  -29.3009   22.3766 N   0  0  0  0  0  0
  -26.4285  -37.3792   23.9425 N   0  0  0  0  0  0
  -24.6577  -31.0864   22.1038 N   0  0  0  0  0  0
  -23.4192  -28.8213   23.3072 O   0  0  0  0  0  0
  -28.4087  -26.7222   19.9840 O   0  0  0  0  0  0
  -26.5562  -34.8923   22.4730 O   0  0  0  0  0  0
  -23.5271  -32.1476   23.7552 O   0  0  0  0  0  0
  -32.5028  -29.4975   18.5817 C   0  0  0  0  0  0
  -30.4963  -28.1464   18.4702 C   0  0  0  0  0  0
  -31.4822  -28.9134   17.8105 C   0  0  0  0  0  0
  -32.4935  -29.3053   19.9732 C   0  0  0  0  0  0
  -30.5603  -28.0104   19.8739 C   0  0  0  0  0  0
  -34.6308  -28.7535   21.1963 C   0  0  0  0  0  0
  -31.5099  -29.0057   16.2956 C   0  0  0  0  0  0
  -33.6089  -29.8448   20.8456 C   0  0  0  0  0  0
  -29.6095  -27.1058   20.6618 C   0  0  0  0  0  0
  -30.1066  -15.6007   21.3485 C   0  0  0  0  0  0
  -29.5111  -16.6770   20.4064 C   0  0  0  0  0  0
  -30.5151  -17.3356   19.4433 C   0  0  0  0  0  0
  -29.9120  -18.5187   18.6749 C   0  0  0  0  0  0
  -30.9964  -19.2947   17.9169 C   0  0  0  0  0  0
  -30.4333  -20.5045   17.1648 C   0  0  0  0  0  0
  -31.5090  -21.2904   16.3983 C   0  0  0  0  0  0
  -31.0146  -22.7006   16.0588 C   0  0  0  0  0  0
  -31.9425  -23.5133   15.1396 C   0  0  0  0  0  0
  -31.4680  -24.9737   15.0826 C   0  0  0  0  0  0
  -32.3229  -25.9135   14.2102 C   0  0  0  0  0  0
  -31.9187  -27.3874   14.4189 C   0  0  0  0  0  0
  -31.5425  -28.5844   20.6031 N   0  0  0  0  0  0
  -32.1952  -27.8007   15.8106 N   0  3  0  0  0  0
  -31.4565  -12.3742   19.0820 H   0  0  0  0  0  0
  -30.2955  -11.2694   19.7422 H   0  0  0  0  0  0
  -29.6997  -11.8940   17.3513 H   0  0  0  0  0  0
  -29.6367  -13.5752   17.8283 H   0  0  0  0  0  0
  -27.8177  -11.3406   18.7858 H   0  0  0  0  0  0
  -27.3463  -12.6919   17.7818 H   0  0  0  0  0  0
  -27.7128  -14.2612   19.6019 H   0  0  0  0  0  0
  -28.6912  -11.8712   21.2415 H   0  0  0  0  0  0
  -28.4705  -13.4412   21.9104 H   0  0  0  0  0  0
  -25.2795   -9.5513   22.4895 H   0  0  0  0  0  0
  -23.9997   -7.4476   22.7410 H   0  0  0  0  0  0
  -21.0910   -8.8871   19.8906 H   0  0  0  0  0  0
  -22.3925  -10.9716   19.6185 H   0  0  0  0  0  0
  -21.2039   -7.6174   23.9825 H   0  0  0  0  0  0
  -21.1480   -6.0495   25.9121 H   0  0  0  0  0  0
  -22.0619   -2.7656   23.2735 H   0  0  0  0  0  0
  -22.3976  -11.9807   22.4732 H   0  0  0  0  0  0
  -21.1144  -13.1341   22.2562 H   0  0  0  0  0  0
  -24.6936  -15.8580   20.6236 H   0  0  0  0  0  0
  -26.3137  -15.6353   20.2059 H   0  0  0  0  0  0
  -26.7071  -32.5601   23.1240 H   0  0  0  0  0  0
  -25.0024  -33.9841   25.0532 H   0  0  0  0  0  0
  -22.6789  -31.3037   21.4157 H   0  0  0  0  0  0
  -23.3741  -35.9636   23.3307 H   0  0  0  0  0  0
  -24.3598  -36.8902   22.2061 H   0  0  0  0  0  0
  -23.7206  -37.6516   23.6636 H   0  0  0  0  0  0
  -26.0277  -31.6216   20.5972 H   0  0  0  0  0  0
  -26.8061  -30.9125   21.9831 H   0  0  0  0  0  0
  -28.0938  -29.2076   21.1537 H   0  0  0  0  0  0
  -26.1259  -26.0072   19.0150 H   0  0  0  0  0  0
  -24.0051  -27.2915   19.0457 H   0  0  0  0  0  0
  -23.7034  -30.5953   19.4083 H   0  0  0  0  0  0
  -22.7380  -29.2292   19.8796 H   0  0  0  0  0  0
  -25.1269  -36.2011   25.0853 H   0  0  0  0  0  0
  -20.9956  -28.3196   24.1472 H   0  0  0  0  0  0
  -20.5721  -26.2234   23.3622 H   0  0  0  0  0  0
  -21.6626  -26.7469   22.1192 H   0  0  0  0  0  0
  -19.6901  -25.6313   21.1226 H   0  0  0  0  0  0
  -19.6673  -27.3245   20.6820 H   0  0  0  0  0  0
  -17.4207  -26.6707   21.4014 H   0  0  0  0  0  0
  -18.0264  -26.0045   22.9012 H   0  0  0  0  0  0
  -19.7907  -30.7238   24.2332 H   0  0  0  0  0  0
  -17.4982  -31.6274   24.5126 H   0  0  0  0  0  0
  -15.5327  -30.2972   23.7636 H   0  0  0  0  0  0
  -15.8651  -28.0779   22.7110 H   0  0  0  0  0  0
  -24.5901  -30.7050   25.7800 H   0  0  0  0  0  0
  -24.8943  -32.2829   26.4959 H   0  0  0  0  0  0
  -25.8077  -30.8808   27.0225 H   0  0  0  0  0  0
  -26.2864  -29.6772   24.1147 H   0  0  0  0  0  0
  -27.4162  -29.7287   25.4492 H   0  0  0  0  0  0
  -27.8648  -30.4402   23.9175 H   0  0  0  0  0  0
  -27.2752  -33.3594   26.2076 H   0  0  0  0  0  0
  -28.3861  -32.6802   25.0263 H   0  0  0  0  0  0
  -28.0759  -31.8370   26.5357 H   0  0  0  0  0  0
  -28.2590  -38.0107   24.7537 H   0  0  0  0  0  0
  -28.1091  -36.2641   24.6261 H   0  0  0  0  0  0
  -27.2318  -37.1402   25.8877 H   0  0  0  0  0  0
  -20.9289  -29.8690   21.6946 H   0  0  0  0  0  0
  -26.0186  -38.2879   24.1420 H   0  0  0  0  0  0
  -33.2948  -30.0675   18.1136 H   0  0  0  0  0  0
  -29.7150  -27.6451   17.9143 H   0  0  0  0  0  0
  -35.4269  -29.1449   21.8298 H   0  0  0  0  0  0
  -35.0901  -28.3455   20.2957 H   0  0  0  0  0  0
  -34.1552  -27.9292   21.7290 H   0  0  0  0  0  0
  -32.0443  -29.8946   15.9538 H   0  0  0  0  0  0
  -30.4843  -29.0733   15.9280 H   0  0  0  0  0  0
  -33.1773  -30.2630   21.7555 H   0  0  0  0  0  0
  -34.1053  -30.6690   20.3330 H   0  0  0  0  0  0
  -29.4119  -27.5231   21.6502 H   0  0  0  0  0  0
  -30.1572  -26.1834   20.8529 H   0  0  0  0  0  0
  -29.3614  -15.2974   22.0779 H   0  0  0  0  0  0
  -30.9022  -16.0481   21.9463 H   0  0  0  0  0  0
  -29.0539  -17.4506   21.0263 H   0  0  0  0  0  0
  -28.6979  -16.2551   19.8193 H   0  0  0  0  0  0
  -30.8850  -16.6085   18.7178 H   0  0  0  0  0  0
  -31.3866  -17.6703   20.0069 H   0  0  0  0  0  0
  -29.4044  -19.1944   19.3660 H   0  0  0  0  0  0
  -29.1508  -18.1692   17.9736 H   0  0  0  0  0  0
  -31.5048  -18.6329   17.2166 H   0  0  0  0  0  0
  -31.7521  -19.6354   18.6261 H   0  0  0  0  0  0
  -29.9325  -21.1609   17.8801 H   0  0  0  0  0  0
  -29.6669  -20.1785   16.4611 H   0  0  0  0  0  0
  -31.7806  -20.7484   15.4922 H   0  0  0  0  0  0
  -32.4195  -21.3634   16.9944 H   0  0  0  0  0  0
  -30.8774  -23.2363   16.9998 H   0  0  0  0  0  0
  -30.0274  -22.6424   15.5975 H   0  0  0  0  0  0
  -31.9546  -23.0772   14.1391 H   0  0  0  0  0  0
  -32.9674  -23.4757   15.5141 H   0  0  0  0  0  0
  -31.4534  -25.3421   16.1083 H   0  0  0  0  0  0
  -30.4318  -25.0120   14.7405 H   0  0  0  0  0  0
  -32.2073  -25.6464   13.1580 H   0  0  0  0  0  0
  -33.3832  -25.7923   14.4358 H   0  0  0  0  0  0
  -30.8596  -27.5081   14.1904 H   0  0  0  0  0  0
  -32.4628  -28.0399   13.7358 H   0  0  0  0  0  0
  -31.8854  -27.0623   16.4213 H   0  0  0  0  0  0
  -33.1849  -27.9155   15.9538 H   0  0  0  0  0  0
  1 25  1  0  0  0
  1 30  2  0  0  0
  1 80  1  0  0  0
  2  3  1  0  0  0
  2 25  1  0  0  0
  2 94  1  0  0  0
  2 95  1  0  0  0
  3  4  1  0  0  0
  3 96  1  0  0  0
  3 97  1  0  0  0
  4  5  1  0  0  0
  4 98  1  0  0  0
  4 99  1  0  0  0
  5  6  1  0  0  0
  5 26  1  0  0  0
  5100  1  0  0  0
  6 25  1  0  0  0
  6101  1  0  0  0
  6102  1  0  0  0
  7  8  2  0  0  0
  7 26  1  0  0  0
  7 29  1  0  0  0
  8  9  1  0  0  0
  8 22  1  0  0  0
  9 10  1  0  0  0
  9 27  2  0  0  0
 10 11  2  0  0  0
 10 15  1  0  0  0
 11 12  1  0  0  0
 11103  1  0  0  0
 12 13  2  0  0  0
 12104  1  0  0  0
 13 14  1  0  0  0
 13 31  1  0  0  0
 14 15  2  0  0  0
 14105  1  0  0  0
 15106  1  0  0  0
 16 17  2  0  0  0
 16 21  1  0  0  0
 16 31  1  0  0  0
 17 18  1  0  0  0
 17107  1  0  0  0
 18 19  2  0  0  0
 18108  1  0  0  0
 19 20  1  0  0  0
 19 24  1  0  0  0
 20 21  2  0  0  0
 20109  1  0  0  0
 21 23  1  0  0  0
 22 28  1  0  0  0
 22 32  2  0  0  0
 26 27  1  0  0  0
 28110  1  0  0  0
 28111  1  0  0  0
 29112  1  0  0  0
 29113  1  0  0  0
 33 34  1  0  0  0
 33 66  1  0  0  0
 33 70  2  0  0  0
 34 36  1  0  0  0
 34 59  1  0  0  0
 34114  1  0  0  0
 35 44  2  0  0  0
 35 45  1  0  0  0
 35 68  1  0  0  0
 36 56  1  0  0  0
 36115  1  0  0  0
 37 39  1  0  0  0
 37 47  1  0  0  0
 37 66  1  0  0  0
 37116  1  0  0  0
 38 43  2  0  0  0
 38 46  1  0  0  0
 38 47  1  0  0  0
 39 64  1  0  0  0
 39 67  2  0  0  0
 40 52  1  0  0  0
 40 53  2  0  0  0
 40 58  1  0  0  0
 41117  1  0  0  0
 41118  1  0  0  0
 41119  1  0  0  0
 41 48  1  0  0  0
 42 43  1  0  0  0
 42 66  1  0  0  0
 42120  1  0  0  0
 42121  1  0  0  0
 43 44  1  0  0  0
 44122  1  0  0  0
 45 46  2  0  0  0
 45123  1  0  0  0
 46124  1  0  0  0
 47125  1  0  0  0
 47126  1  0  0  0
 48 56  1  0  0  0
 48 65  1  0  0  0
 48127  1  0  0  0
 49 50  1  0  0  0
 49 53  1  0  0  0
 49 64  1  0  0  0
 49128  1  0  0  0
 50 51  1  0  0  0
 50129  1  0  0  0
 50130  1  0  0  0
 51 52  1  0  0  0
 51131  1  0  0  0
 51132  1  0  0  0
 52133  1  0  0  0
 52134  1  0  0  0
 53 54  1  0  0  0
 54 55  2  0  0  0
 54135  1  0  0  0
 55 57  1  0  0  0
 55136  1  0  0  0
 56 69  2  0  0  0
 57 58  2  0  0  0
 57137  1  0  0  0
 58138  1  0  0  0
 59 60  1  0  0  0
 59 61  1  0  0  0
 59 62  1  0  0  0
 60139  1  0  0  0
 60140  1  0  0  0
 60141  1  0  0  0
 61142  1  0  0  0
 61143  1  0  0  0
 61144  1  0  0  0
 62145  1  0  0  0
 62146  1  0  0  0
 62147  1  0  0  0
 63 65  1  0  0  0
 63148  1  0  0  0
 63149  1  0  0  0
 63150  1  0  0  0
 64151  1  0  0  0
 65152  1  0  0  0
 68 79  1  0  0  0
 71 73  2  0  0  0
 71 74  1  0  0  0
 71153  1  0  0  0
 72 73  1  0  0  0
 72 75  2  0  0  0
 72154  1  0  0  0
 73 77  1  0  0  0
 74 78  1  0  0  0
 74 92  2  0  0  0
 75 79  1  0  0  0
 75 92  1  0  0  0
 76 78  1  0  0  0
 76155  1  0  0  0
 76156  1  0  0  0
 76157  1  0  0  0
 77 93  1  0  0  0
 77158  1  0  0  0
 77159  1  0  0  0
 78160  1  0  0  0
 78161  1  0  0  0
 79162  1  0  0  0
 79163  1  0  0  0
 80 81  1  0  0  0
 80164  1  0  0  0
 80165  1  0  0  0
 81 82  1  0  0  0
 81166  1  0  0  0
 81167  1  0  0  0
 82 83  1  0  0  0
 82168  1  0  0  0
 82169  1  0  0  0
 83 84  1  0  0  0
 83170  1  0  0  0
 83171  1  0  0  0
 84 85  1  0  0  0
 84172  1  0  0  0
 84173  1  0  0  0
 85 86  1  0  0  0
 85174  1  0  0  0
 85175  1  0  0  0
 86 87  1  0  0  0
 86176  1  0  0  0
 86177  1  0  0  0
 87 88  1  0  0  0
 87178  1  0  0  0
 87179  1  0  0  0
 88 89  1  0  0  0
 88180  1  0  0  0
 88181  1  0  0  0
 89 90  1  0  0  0
 89182  1  0  0  0
 89183  1  0  0  0
 90 91  1  0  0  0
 90184  1  0  0  0
 90185  1  0  0  0
 91 93  1  0  0  0
 91186  1  0  0  0
 91187  1  0  0  0
 93188  1  0  0  0
 93189  1  0  0  0
M  CHG  1  93   1
M  ISO  4   1 100  68 101  79 101  80 100
M  END
> <chiral flag>
0

> <version>
0

> <s_m_source_file>
/data/baiqing/PycharmProjects/Reinvent-master-3.2/result/LINK_invent/BTK/process_docking_weight1_custom_sum_contain_oxygen_bond_distance_aromatic_linkinvent_7_9_3/rearranged_h_0034.sdf

> <i_m_source_file_index>
79

> <r_mmod_Potential_Energy-OPLS-2005>
-408.870666503906

> <r_mmod_Stretch_Energy-OPLS-2005>
32.997745513916

> <r_mmod_Bend_Energy-OPLS-2005>
113.227401733398

> <r_mmod_Torsional_Energy-OPLS-2005>
167.044677734375

> <r_mmod_Improper_Torsional_Energy-OPLS-2005>
3.07759404182434

> <r_mmod_Van_der_Waal_Energy-OPLS-2005>
148.705261230469

> <r_mmod_Electrostatic_Energy-OPLS-2005>
-440.035980224609

> <r_mmod_Solvation_Energy-OPLS-2005>
-441.736968994141

> <b_mmod_Minimization_Converged-OPLS-2005>
0

> <r_mmod_RMS_Derivative-OPLS-2005>
4.12322235107422

$$$$
81
                    3D
 Structure written by MMmdl.
156164  0  0  1  0            999 V2000
  -30.6219  -14.6954   20.5176 C   0  0  0  0  0  0
  -30.4346  -12.4443   19.4577 C   0  0  0  0  0  0
  -29.5052  -12.5307   18.2278 C   0  0  0  0  0  0
  -28.0316  -12.3533   18.6434 C   0  0  0  0  0  0
  -27.6444  -13.2321   19.8618 C   0  0  2  0  0  0
  -28.6898  -13.1231   20.9934 C   0  0  0  0  0  0
  -25.2481  -13.8182   20.5725 C   0  0  0  0  0  0
  -24.1793  -13.0436   20.9239 C   0  0  0  0  0  0
  -24.6371  -11.6901   20.8748 C   0  0  0  0  0  0
  -23.9062  -10.4277   21.0398 C   0  0  0  0  0  0
  -24.3617   -9.4200   21.9176 C   0  0  0  0  0  0
  -23.6293   -8.2230   22.0731 C   0  0  0  0  0  0
  -22.4271   -8.0253   21.3520 C   0  0  0  0  0  0
  -21.9906   -9.0242   20.4638 C   0  0  0  0  0  0
  -22.7229  -10.2120   20.3057 C   0  0  0  0  0  0
  -21.6852   -6.0727   22.5270 C   0  0  0  0  0  0
  -21.4032   -6.5643   23.8203 C   0  0  0  0  0  0
  -21.3670   -5.6795   24.9174 C   0  0  0  0  0  0
  -21.6041   -4.3052   24.7219 C   0  0  0  0  0  0
  -21.8823   -3.8138   23.4349 C   0  0  0  0  0  0
  -21.9200   -4.6957   22.3402 C   0  0  0  0  0  0
  -22.7826  -13.5203   21.1915 C   0  0  0  0  0  0
  -22.1656   -4.2151   21.0981 F   0  0  0  0  0  0
  -21.5624   -3.4531   25.7735 F   0  0  0  0  0  0
  -29.9972  -13.4762   20.4197 N   0  0  0  0  0  0
  -26.2940  -12.9396   20.3331 N   0  0  0  0  0  0
  -25.9311  -11.6527   20.5764 N   0  0  0  0  0  0
  -22.0480  -12.8185   22.0467 N   0  0  0  0  0  0
  -25.4153  -15.1917   20.4162 N   0  0  0  0  0  0
  -31.7990  -14.8348   20.1747 O   0  0  0  0  0  0
  -21.6626   -6.8855   21.4215 O   0  0  0  0  0  0
  -22.3496  -14.5497   20.6744 O   0  0  0  0  0  0
  -24.6258  -31.8581   23.2029 C   0  0  0  0  0  0
  -25.9096  -32.4782   23.8358 C   0  0  1  0  0  0
  -27.2172  -27.3066   20.1297 C   0  0  0  0  0  0
  -25.5907  -33.8581   24.2288 N   0  0  0  0  0  0
  -23.4209  -30.4799   21.5475 C   0  0  2  0  0  0
  -24.8669  -28.9345   20.1122 C   0  0  0  0  0  0
  -22.7464  -29.4603   22.4952 C   0  0  0  0  0  0
  -18.0267  -28.1384   22.8489 C   0  0  0  0  0  0
  -24.1480  -36.7314   23.2639 C   0  0  0  0  0  0
  -25.9594  -30.7884   21.3701 C   0  0  0  0  0  0
  -26.0356  -29.4112   20.7203 C   0  0  0  0  0  0
  -27.2171  -28.6095   20.7195 C   0  0  0  0  0  0
  -26.0340  -26.8913   19.4839 C   0  0  0  0  0  0
  -24.8677  -27.6800   19.4832 C   0  0  0  0  0  0
  -23.6363  -29.8177   20.1618 C   0  0  0  0  0  0
  -25.4102  -36.3097   24.0336 C   0  0  1  0  0  0
  -20.5869  -28.3686   23.1296 C   0  0  2  0  0  0
  -20.6757  -26.9415   22.5417 C   0  0  0  0  0  0
  -19.5739  -26.6392   21.5212 C   0  0  0  0  0  0
  -18.1910  -26.7923   22.1625 C   0  0  0  0  0  0
  -19.1523  -28.8852   23.2883 C   0  0  0  0  0  0
  -18.9455  -30.1444   23.8914 C   0  0  0  0  0  0
  -17.6462  -30.6590   24.0564 C   0  0  0  0  0  0
  -25.9037  -34.9458   23.5116 C   0  0  0  0  0  0
  -16.5344  -29.9101   23.6325 C   0  0  0  0  0  0
  -16.7258  -28.6509   23.0359 C   0  0  0  0  0  0
  -26.4479  -31.6581   25.0721 C   0  0  0  0  0  0
  -25.3723  -31.3724   26.1464 C   0  0  0  0  0  0
  -27.0301  -30.3003   24.6132 C   0  0  0  0  0  0
  -27.6045  -32.4299   25.7492 C   0  0  0  0  0  0
  -27.5564  -37.1814   24.8467 C   0  0  0  0  0  0
  -21.4178  -29.3037   22.3693 N   0  0  0  0  0  0
  -26.4284  -37.3787   23.9405 N   0  0  0  0  0  0
  -24.6882  -31.0587   22.0982 N   0  0  0  0  0  0
  -23.4165  -28.8137   23.3035 O   0  0  0  0  0  0
  -28.3090  -26.4238   20.1502 O   0  0  0  0  0  0
  -26.5617  -34.8926   22.4689 O   0  0  0  0  0  0
  -23.5417  -32.1398   23.7346 O   0  0  0  0  0  0
  -28.3412  -19.6823   22.1308 C   0  0  0  0  0  0
  -29.2204  -21.1089   20.3815 C   0  0  0  0  0  0
  -29.0688  -19.7764   20.9347 C   0  0  0  0  0  0
  -27.7857  -20.8156   22.7531 C   0  0  0  0  0  0
  -28.6603  -22.3127   20.9824 C   0  0  0  0  0  0
  -27.9292  -22.1120   22.1975 C   0  0  0  0  0  0
  -27.0022  -20.6134   24.0437 C   0  0  0  0  0  0
  -29.5042  -18.4100   20.2540 C   0  0  0  0  0  0
  -28.8803  -23.7548   20.3106 C   0  0  0  0  0  0
  -30.1825  -17.2350   21.1248 C   0  0  0  0  0  0
  -28.0674  -25.0792   20.7460 C   0  0  0  0  0  0
  -29.8378  -15.7804   20.8405 N   0  0  0  0  0  0
  -27.1603  -23.3963   23.0713 Cl  0  0  0  0  0  0
  -31.4741  -12.5757   19.1540 H   0  0  0  0  0  0
  -30.3734  -11.4560   19.9147 H   0  0  0  0  0  0
  -29.7835  -11.7728   17.4943 H   0  0  0  0  0  0
  -29.6314  -13.4981   17.7364 H   0  0  0  0  0  0
  -27.8823  -11.3024   18.8888 H   0  0  0  0  0  0
  -27.3723  -12.5665   17.7997 H   0  0  0  0  0  0
  -27.6472  -14.2634   19.5116 H   0  0  0  0  0  0
  -28.7135  -12.1134   21.4056 H   0  0  0  0  0  0
  -28.4285  -13.7781   21.8261 H   0  0  0  0  0  0
  -25.2762   -9.5683   22.4750 H   0  0  0  0  0  0
  -24.0022   -7.4620   22.7438 H   0  0  0  0  0  0
  -21.0843   -8.8764   19.8946 H   0  0  0  0  0  0
  -22.3683  -10.9664   19.6176 H   0  0  0  0  0  0
  -21.2021   -7.6144   23.9722 H   0  0  0  0  0  0
  -21.1490   -6.0514   25.9086 H   0  0  0  0  0  0
  -22.0593   -2.7600   23.2846 H   0  0  0  0  0  0
  -22.4097  -11.9883   22.4927 H   0  0  0  0  0  0
  -21.1068  -13.1167   22.2628 H   0  0  0  0  0  0
  -24.6428  -15.8396   20.5271 H   0  0  0  0  0  0
  -26.2611  -15.6378   20.0876 H   0  0  0  0  0  0
  -26.7157  -32.5454   23.1100 H   0  0  0  0  0  0
  -25.0030  -33.9732   25.0410 H   0  0  0  0  0  0
  -22.7149  -31.3005   21.4048 H   0  0  0  0  0  0
  -23.3728  -35.9663   23.3323 H   0  0  0  0  0  0
  -24.3572  -36.8910   22.2052 H   0  0  0  0  0  0
  -23.7253  -37.6531   23.6642 H   0  0  0  0  0  0
  -26.0754  -31.5433   20.5913 H   0  0  0  0  0  0
  -26.8457  -30.8519   21.9899 H   0  0  0  0  0  0
  -28.1129  -28.9691   21.2057 H   0  0  0  0  0  0
  -26.0026  -25.9325   18.9857 H   0  0  0  0  0  0
  -23.9745  -27.3109   18.9977 H   0  0  0  0  0  0
  -23.7578  -30.5961   19.4068 H   0  0  0  0  0  0
  -22.7544  -29.2512   19.8584 H   0  0  0  0  0  0
  -25.1274  -36.1962   25.0831 H   0  0  0  0  0  0
  -20.9948  -28.3247   24.1426 H   0  0  0  0  0  0
  -20.5652  -26.2292   23.3610 H   0  0  0  0  0  0
  -21.6622  -26.7438   22.1217 H   0  0  0  0  0  0
  -19.6904  -25.6309   21.1236 H   0  0  0  0  0  0
  -19.6677  -27.3200   20.6747 H   0  0  0  0  0  0
  -17.4180  -26.6661   21.4027 H   0  0  0  0  0  0
  -18.0315  -26.0059   22.9030 H   0  0  0  0  0  0
  -19.7934  -30.7239   24.2290 H   0  0  0  0  0  0
  -17.5029  -31.6275   24.5161 H   0  0  0  0  0  0
  -15.5348  -30.3023   23.7646 H   0  0  0  0  0  0
  -15.8646  -28.0838   22.7093 H   0  0  0  0  0  0
  -24.5917  -30.7030   25.7817 H   0  0  0  0  0  0
  -24.8896  -32.2902   26.4839 H   0  0  0  0  0  0
  -25.8081  -30.8963   27.0263 H   0  0  0  0  0  0
  -26.2857  -29.6779   24.1152 H   0  0  0  0  0  0
  -27.4008  -29.7223   25.4604 H   0  0  0  0  0  0
  -27.8721  -30.4291   23.9328 H   0  0  0  0  0  0
  -27.2663  -33.3615   26.2040 H   0  0  0  0  0  0
  -28.3883  -32.6826   25.0336 H   0  0  0  0  0  0
  -28.0674  -31.8433   26.5441 H   0  0  0  0  0  0
  -28.2608  -38.0080   24.7473 H   0  0  0  0  0  0
  -28.1033  -36.2617   24.6339 H   0  0  0  0  0  0
  -27.2288  -37.1516   25.8872 H   0  0  0  0  0  0
  -20.9335  -29.8806   21.6959 H   0  0  0  0  0  0
  -26.0171  -38.2867   24.1398 H   0  0  0  0  0  0
  -28.1714  -18.7085   22.5667 H   0  0  0  0  0  0
  -29.7626  -21.2096   19.4507 H   0  0  0  0  0  0
  -26.9106  -19.5587   24.3026 H   0  0  0  0  0  0
  -25.9893  -21.0091   23.9453 H   0  0  0  0  0  0
  -27.4953  -21.1210   24.8746 H   0  0  0  0  0  0
  -30.1528  -18.6340   19.4066 H   0  0  0  0  0  0
  -28.5945  -18.0111   19.8048 H   0  0  0  0  0  0
  -28.7216  -23.6223   19.2416 H   0  0  0  0  0  0
  -29.9414  -23.9842   20.4113 H   0  0  0  0  0  0
  -31.2652  -17.3686   21.1259 H   0  0  0  0  0  0
  -29.9027  -17.3759   22.1678 H   0  0  0  0  0  0
  -28.2963  -25.2691   21.7914 H   0  0  0  0  0  0
  -27.0062  -24.8315   20.7029 H   0  0  0  0  0  0
  -28.8828  -15.5318   21.0508 H   0  0  0  0  0  0
  1 25  1  0  0  0
  1 30  2  0  0  0
  1 82  1  0  0  0
  2  3  1  0  0  0
  2 25  1  0  0  0
  2 84  1  0  0  0
  2 85  1  0  0  0
  3  4  1  0  0  0
  3 86  1  0  0  0
  3 87  1  0  0  0
  4  5  1  0  0  0
  4 88  1  0  0  0
  4 89  1  0  0  0
  5  6  1  0  0  0
  5 26  1  0  0  0
  5 90  1  0  0  0
  6 25  1  0  0  0
  6 91  1  0  0  0
  6 92  1  0  0  0
  7  8  2  0  0  0
  7 26  1  0  0  0
  7 29  1  0  0  0
  8  9  1  0  0  0
  8 22  1  0  0  0
  9 10  1  0  0  0
  9 27  2  0  0  0
 10 11  2  0  0  0
 10 15  1  0  0  0
 11 12  1  0  0  0
 11 93  1  0  0  0
 12 13  2  0  0  0
 12 94  1  0  0  0
 13 14  1  0  0  0
 13 31  1  0  0  0
 14 15  2  0  0  0
 14 95  1  0  0  0
 15 96  1  0  0  0
 16 17  2  0  0  0
 16 21  1  0  0  0
 16 31  1  0  0  0
 17 18  1  0  0  0
 17 97  1  0  0  0
 18 19  2  0  0  0
 18 98  1  0  0  0
 19 20  1  0  0  0
 19 24  1  0  0  0
 20 21  2  0  0  0
 20 99  1  0  0  0
 21 23  1  0  0  0
 22 28  1  0  0  0
 22 32  2  0  0  0
 26 27  1  0  0  0
 28100  1  0  0  0
 28101  1  0  0  0
 29102  1  0  0  0
 29103  1  0  0  0
 33 34  1  0  0  0
 33 66  1  0  0  0
 33 70  2  0  0  0
 34 36  1  0  0  0
 34 59  1  0  0  0
 34104  1  0  0  0
 35 44  2  0  0  0
 35 45  1  0  0  0
 35 68  1  0  0  0
 36 56  1  0  0  0
 36105  1  0  0  0
 37 39  1  0  0  0
 37 47  1  0  0  0
 37 66  1  0  0  0
 37106  1  0  0  0
 38 43  2  0  0  0
 38 46  1  0  0  0
 38 47  1  0  0  0
 39 64  1  0  0  0
 39 67  2  0  0  0
 40 52  1  0  0  0
 40 53  2  0  0  0
 40 58  1  0  0  0
 41107  1  0  0  0
 41108  1  0  0  0
 41109  1  0  0  0
 41 48  1  0  0  0
 42 43  1  0  0  0
 42 66  1  0  0  0
 42110  1  0  0  0
 42111  1  0  0  0
 43 44  1  0  0  0
 44112  1  0  0  0
 45 46  2  0  0  0
 45113  1  0  0  0
 46114  1  0  0  0
 47115  1  0  0  0
 47116  1  0  0  0
 48 56  1  0  0  0
 48 65  1  0  0  0
 48117  1  0  0  0
 49 50  1  0  0  0
 49 53  1  0  0  0
 49 64  1  0  0  0
 49118  1  0  0  0
 50 51  1  0  0  0
 50119  1  0  0  0
 50120  1  0  0  0
 51 52  1  0  0  0
 51121  1  0  0  0
 51122  1  0  0  0
 52123  1  0  0  0
 52124  1  0  0  0
 53 54  1  0  0  0
 54 55  2  0  0  0
 54125  1  0  0  0
 55 57  1  0  0  0
 55126  1  0  0  0
 56 69  2  0  0  0
 57 58  2  0  0  0
 57127  1  0  0  0
 58128  1  0  0  0
 59 60  1  0  0  0
 59 61  1  0  0  0
 59 62  1  0  0  0
 60129  1  0  0  0
 60130  1  0  0  0
 60131  1  0  0  0
 61132  1  0  0  0
 61133  1  0  0  0
 61134  1  0  0  0
 62135  1  0  0  0
 62136  1  0  0  0
 62137  1  0  0  0
 63 65  1  0  0  0
 63138  1  0  0  0
 63139  1  0  0  0
 63140  1  0  0  0
 64141  1  0  0  0
 65142  1  0  0  0
 68 81  1  0  0  0
 71 73  2  0  0  0
 71 74  1  0  0  0
 71143  1  0  0  0
 72 73  1  0  0  0
 72 75  2  0  0  0
 72144  1  0  0  0
 73 78  1  0  0  0
 74 76  2  0  0  0
 74 77  1  0  0  0
 75 76  1  0  0  0
 75 79  1  0  0  0
 76 83  1  0  0  0
 77145  1  0  0  0
 77146  1  0  0  0
 77147  1  0  0  0
 78 80  1  0  0  0
 78148  1  0  0  0
 78149  1  0  0  0
 79 81  1  0  0  0
 79150  1  0  0  0
 79151  1  0  0  0
 80 82  1  0  0  0
 80152  1  0  0  0
 80153  1  0  0  0
 81154  1  0  0  0
 81155  1  0  0  0
 82156  1  0  0  0
M  ISO  4   1 100  68 101  81 101  82 100
M  END
> <chiral flag>
0

> <version>
0

> <s_m_source_file>
/data/baiqing/PycharmProjects/Reinvent-master-3.2/result/LINK_invent/BTK/process_docking_weight1_custom_sum_contain_oxygen_bond_distance_aromatic_linkinvent_7_9_3/rearranged_h_0034.sdf

> <i_m_source_file_index>
80

> <r_mmod_Potential_Energy-OPLS-2005>
125.996955871582

> <r_mmod_Stretch_Energy-OPLS-2005>
108.195068359375

> <r_mmod_Bend_Energy-OPLS-2005>
158.909698486328

> <r_mmod_Torsional_Energy-OPLS-2005>
227.718505859375

> <r_mmod_Improper_Torsional_Energy-OPLS-2005>
4.38250732421875

> <r_mmod_Van_der_Waal_Energy-OPLS-2005>
151.324234008789

> <r_mmod_Electrostatic_Energy-OPLS-2005>
-380.765747070312

> <r_mmod_Solvation_Energy-OPLS-2005>
-207.526016235352

> <b_mmod_Minimization_Converged-OPLS-2005>
0

> <r_mmod_RMS_Derivative-OPLS-2005>
3.31098508834839

$$$$
82
                    3D
 Structure written by MMmdl.
169178  0  0  1  0            999 V2000
  -30.7427  -14.4014   20.6406 C   0  0  0  0  0  0
  -30.4170  -12.2952   19.4052 C   0  0  0  0  0  0
  -29.4873  -12.5146   18.1978 C   0  0  0  0  0  0
  -28.0096  -12.3728   18.6119 C   0  0  0  0  0  0
  -27.6623  -13.2033   19.8765 C   0  0  2  0  0  0
  -28.7000  -12.9606   20.9943 C   0  0  0  0  0  0
  -25.2587  -13.8158   20.5675 C   0  0  0  0  0  0
  -24.1841  -13.0439   20.9156 C   0  0  0  0  0  0
  -24.6382  -11.6901   20.8717 C   0  0  0  0  0  0
  -23.9049  -10.4288   21.0394 C   0  0  0  0  0  0
  -24.3602   -9.4207   21.9177 C   0  0  0  0  0  0
  -23.6285   -8.2247   22.0754 C   0  0  0  0  0  0
  -22.4271   -8.0277   21.3552 C   0  0  0  0  0  0
  -21.9899   -9.0239   20.4647 C   0  0  0  0  0  0
  -22.7218  -10.2124   20.3047 C   0  0  0  0  0  0
  -21.6854   -6.0734   22.5279 C   0  0  0  0  0  0
  -21.4010   -6.5639   23.8213 C   0  0  0  0  0  0
  -21.3658   -5.6794   24.9176 C   0  0  0  0  0  0
  -21.6040   -4.3055   24.7230 C   0  0  0  0  0  0
  -21.8823   -3.8146   23.4354 C   0  0  0  0  0  0
  -21.9192   -4.6960   22.3402 C   0  0  0  0  0  0
  -22.7866  -13.5238   21.1821 C   0  0  0  0  0  0
  -22.1664   -4.2140   21.0981 F   0  0  0  0  0  0
  -21.5628   -3.4537   25.7748 F   0  0  0  0  0  0
  -30.0378  -13.2558   20.4519 N   0  0  0  0  0  0
  -26.3018  -12.9328   20.3355 N   0  0  0  0  0  0
  -25.9309  -11.6481   20.5736 N   0  0  0  0  0  0
  -22.0502  -12.8243   22.0378 N   0  0  0  0  0  0
  -25.4311  -15.1891   20.4129 N   0  0  0  0  0  0
  -31.8128  -14.6343   20.0701 O   0  0  0  0  0  0
  -21.6645   -6.8875   21.4245 O   0  0  0  0  0  0
  -22.3551  -14.5546   20.6664 O   0  0  0  0  0  0
  -24.6106  -31.8672   23.2132 C   0  0  0  0  0  0
  -25.8993  -32.4829   23.8423 C   0  0  1  0  0  0
  -27.2460  -27.4596   20.0772 C   0  0  0  0  0  0
  -25.5847  -33.8637   24.2340 N   0  0  0  0  0  0
  -23.3962  -30.4872   21.5579 C   0  0  2  0  0  0
  -24.8397  -28.9501   20.1268 C   0  0  0  0  0  0
  -22.7388  -29.4593   22.5067 C   0  0  0  0  0  0
  -18.0243  -28.1319   22.8500 C   0  0  0  0  0  0
  -24.1481  -36.7301   23.2644 C   0  0  0  0  0  0
  -25.9242  -30.8360   21.3675 C   0  0  0  0  0  0
  -25.9993  -29.4742   20.7075 C   0  0  0  0  0  0
  -27.1998  -28.7357   20.6750 C   0  0  0  0  0  0
  -26.0555  -26.9241   19.5256 C   0  0  0  0  0  0
  -24.8594  -27.6698   19.5423 C   0  0  0  0  0  0
  -23.5985  -29.8112   20.1751 C   0  0  0  0  0  0
  -25.4103  -36.3126   24.0343 C   0  0  1  0  0  0
  -20.5829  -28.3572   23.1335 C   0  0  2  0  0  0
  -20.6720  -26.9319   22.5393 C   0  0  0  0  0  0
  -19.5713  -26.6334   21.5170 C   0  0  0  0  0  0
  -18.1885  -26.7880   22.1590 C   0  0  0  0  0  0
  -19.1503  -28.8778   23.2907 C   0  0  0  0  0  0
  -18.9443  -30.1411   23.8873 C   0  0  0  0  0  0
  -17.6444  -30.6547   24.0539 C   0  0  0  0  0  0
  -25.9023  -34.9482   23.5137 C   0  0  0  0  0  0
  -16.5331  -29.9035   23.6339 C   0  0  0  0  0  0
  -16.7236  -28.6454   23.0354 C   0  0  0  0  0  0
  -26.4426  -31.6656   25.0790 C   0  0  0  0  0  0
  -25.3714  -31.3714   26.1570 C   0  0  0  0  0  0
  -27.0283  -30.3119   24.6180 C   0  0  0  0  0  0
  -27.5999  -32.4414   25.7521 C   0  0  0  0  0  0
  -27.5584  -37.1794   24.8461 C   0  0  0  0  0  0
  -21.4122  -29.2960   22.3801 N   0  0  0  0  0  0
  -26.4300  -37.3798   23.9409 N   0  0  0  0  0  0
  -24.6606  -31.0768   22.1032 N   0  0  0  0  0  0
  -23.4190  -28.8125   23.3070 O   0  0  0  0  0  0
  -28.4717  -26.8300   20.0536 O   0  0  0  0  0  0
  -26.5608  -34.8910   22.4711 O   0  0  0  0  0  0
  -23.5301  -32.1420   23.7545 O   0  0  0  0  0  0
  -28.9904  -21.5640   23.8522 C   0  0  0  0  0  0
  -28.9011  -20.1804   23.6290 C   0  0  0  0  0  0
  -28.5698  -20.5965   21.2557 C   0  0  0  0  0  0
  -28.8858  -22.4692   22.7785 C   0  0  0  0  0  0
  -28.6244  -21.9992   21.4629 C   0  0  0  0  0  0
  -28.7366  -19.6834   22.3214 C   0  0  0  0  0  0
  -29.0836  -23.9402   23.0741 C   0  0  0  0  0  0
  -29.4581  -24.7199   21.8202 C   0  0  0  0  0  0
  -28.4254  -24.4693   20.7100 C   0  0  2  0  0  0
  -28.4212  -22.9630   20.2652 C   0  0  0  0  0  0
  -27.0582  -22.6679   19.5987 C   0  0  0  0  0  0
  -29.5409  -22.6983   19.2256 C   0  0  0  0  0  0
  -28.7782  -18.1795   22.0590 C   0  0  0  0  0  0
  -28.6168  -25.4974   19.5679 C   0  0  0  0  0  0
  -30.0099  -17.4972   22.7033 C   0  0  0  0  0  0
  -30.8294  -16.5875   21.7691 C   0  0  0  0  0  0
  -30.1930  -15.3066   21.4651 N   0  0  0  0  0  0
  -31.4588  -12.3971   19.0996 H   0  0  0  0  0  0
  -30.3214  -11.2761   19.7850 H   0  0  0  0  0  0
  -29.7232  -11.8026   17.4062 H   0  0  0  0  0  0
  -29.6558  -13.5076   17.7780 H   0  0  0  0  0  0
  -27.8170  -11.3159   18.7981 H   0  0  0  0  0  0
  -27.3589  -12.6581   17.7842 H   0  0  0  0  0  0
  -27.7161  -14.2551   19.5919 H   0  0  0  0  0  0
  -28.6671  -11.9190   21.3176 H   0  0  0  0  0  0
  -28.4531  -13.5449   21.8813 H   0  0  0  0  0  0
  -25.2753   -9.5700   22.4745 H   0  0  0  0  0  0
  -23.9994   -7.4652   22.7492 H   0  0  0  0  0  0
  -21.0824   -8.8751   19.8964 H   0  0  0  0  0  0
  -22.3666  -10.9657   19.6150 H   0  0  0  0  0  0
  -21.2002   -7.6147   23.9712 H   0  0  0  0  0  0
  -21.1475   -6.0526   25.9078 H   0  0  0  0  0  0
  -22.0603   -2.7605   23.2857 H   0  0  0  0  0  0
  -22.4118  -11.9897   22.4773 H   0  0  0  0  0  0
  -21.1111  -13.1268   22.2567 H   0  0  0  0  0  0
  -24.6652  -15.8428   20.5305 H   0  0  0  0  0  0
  -26.2894  -15.6333   20.1132 H   0  0  0  0  0  0
  -26.7072  -32.5535   23.1197 H   0  0  0  0  0  0
  -25.0012  -33.9794   25.0501 H   0  0  0  0  0  0
  -22.6856  -31.3049   21.4202 H   0  0  0  0  0  0
  -23.3771  -35.9614   23.3331 H   0  0  0  0  0  0
  -24.3554  -36.8889   22.2050 H   0  0  0  0  0  0
  -23.7211  -37.6494   23.6654 H   0  0  0  0  0  0
  -26.0522  -31.6143   20.6138 H   0  0  0  0  0  0
  -26.8042  -30.8697   21.9986 H   0  0  0  0  0  0
  -28.1057  -29.1435   21.1022 H   0  0  0  0  0  0
  -26.0222  -25.9422   19.0786 H   0  0  0  0  0  0
  -23.9594  -27.2496   19.1128 H   0  0  0  0  0  0
  -23.6949  -30.5793   19.4073 H   0  0  0  0  0  0
  -22.7256  -29.2214   19.8914 H   0  0  0  0  0  0
  -25.1287  -36.1994   25.0838 H   0  0  0  0  0  0
  -20.9910  -28.3092   24.1455 H   0  0  0  0  0  0
  -20.5544  -26.2171   23.3557 H   0  0  0  0  0  0
  -21.6600  -26.7309   22.1235 H   0  0  0  0  0  0
  -19.6873  -25.6248   21.1192 H   0  0  0  0  0  0
  -19.6685  -27.3152   20.6718 H   0  0  0  0  0  0
  -17.4152  -26.6623   21.3992 H   0  0  0  0  0  0
  -18.0303  -25.9999   22.8964 H   0  0  0  0  0  0
  -19.7938  -30.7205   24.2238 H   0  0  0  0  0  0
  -17.5013  -31.6242   24.5112 H   0  0  0  0  0  0
  -15.5339  -30.2906   23.7715 H   0  0  0  0  0  0
  -15.8627  -28.0756   22.7101 H   0  0  0  0  0  0
  -24.5895  -30.7045   25.7920 H   0  0  0  0  0  0
  -24.8902  -32.2840   26.5102 H   0  0  0  0  0  0
  -25.8117  -30.8856   27.0289 H   0  0  0  0  0  0
  -26.2839  -29.6872   24.1252 H   0  0  0  0  0  0
  -27.4067  -29.7376   25.4628 H   0  0  0  0  0  0
  -27.8647  -30.4462   23.9331 H   0  0  0  0  0  0
  -27.2617  -33.3716   26.2101 H   0  0  0  0  0  0
  -28.3781  -32.6978   25.0327 H   0  0  0  0  0  0
  -28.0706  -31.8568   26.5435 H   0  0  0  0  0  0
  -28.2606  -38.0098   24.7532 H   0  0  0  0  0  0
  -28.1084  -36.2618   24.6292 H   0  0  0  0  0  0
  -27.2282  -37.1430   25.8860 H   0  0  0  0  0  0
  -20.9291  -29.8748   21.7077 H   0  0  0  0  0  0
  -26.0208  -38.2872   24.1460 H   0  0  0  0  0  0
  -29.1645  -21.9292   24.8554 H   0  0  0  0  0  0
  -29.0028  -19.5026   24.4655 H   0  0  0  0  0  0
  -28.4193  -20.2091   20.2576 H   0  0  0  0  0  0
  -29.8676  -24.0640   23.8236 H   0  0  0  0  0  0
  -28.1658  -24.3382   23.5095 H   0  0  0  0  0  0
  -30.4508  -24.4207   21.4786 H   0  0  0  0  0  0
  -29.5296  -25.7794   22.0671 H   0  0  0  0  0  0
  -27.4496  -24.6781   21.1541 H   0  0  0  0  0  0
  -26.2353  -22.8011   20.3016 H   0  0  0  0  0  0
  -26.9938  -21.6491   19.2182 H   0  0  0  0  0  0
  -26.8705  -23.3296   18.7529 H   0  0  0  0  0  0
  -30.5247  -22.9642   19.6128 H   0  0  0  0  0  0
  -29.3890  -23.2682   18.3085 H   0  0  0  0  0  0
  -29.5840  -21.6526   18.9215 H   0  0  0  0  0  0
  -28.7697  -18.0058   20.9831 H   0  0  0  0  0  0
  -27.8621  -17.7242   22.4395 H   0  0  0  0  0  0
  -27.9840  -25.2974   18.7070 H   0  0  0  0  0  0
  -29.6361  -25.4258   19.1869 H   0  0  0  0  0  0
  -29.7181  -16.9676   23.6119 H   0  0  0  0  0  0
  -30.7042  -18.2705   23.0381 H   0  0  0  0  0  0
  -31.7931  -16.3829   22.2384 H   0  0  0  0  0  0
  -31.0535  -17.1172   20.8412 H   0  0  0  0  0  0
  -29.3064  -15.0860   21.8933 H   0  0  0  0  0  0
  1 25  1  0  0  0
  1 30  2  0  0  0
  1 87  1  0  0  0
  2  3  1  0  0  0
  2 25  1  0  0  0
  2 88  1  0  0  0
  2 89  1  0  0  0
  3  4  1  0  0  0
  3 90  1  0  0  0
  3 91  1  0  0  0
  4  5  1  0  0  0
  4 92  1  0  0  0
  4 93  1  0  0  0
  5  6  1  0  0  0
  5 26  1  0  0  0
  5 94  1  0  0  0
  6 25  1  0  0  0
  6 95  1  0  0  0
  6 96  1  0  0  0
  7  8  2  0  0  0
  7 26  1  0  0  0
  7 29  1  0  0  0
  8  9  1  0  0  0
  8 22  1  0  0  0
  9 10  1  0  0  0
  9 27  2  0  0  0
 10 11  2  0  0  0
 10 15  1  0  0  0
 11 12  1  0  0  0
 11 97  1  0  0  0
 12 13  2  0  0  0
 12 98  1  0  0  0
 13 14  1  0  0  0
 13 31  1  0  0  0
 14 15  2  0  0  0
 14 99  1  0  0  0
 15100  1  0  0  0
 16 17  2  0  0  0
 16 21  1  0  0  0
 16 31  1  0  0  0
 17 18  1  0  0  0
 17101  1  0  0  0
 18 19  2  0  0  0
 18102  1  0  0  0
 19 20  1  0  0  0
 19 24  1  0  0  0
 20 21  2  0  0  0
 20103  1  0  0  0
 21 23  1  0  0  0
 22 28  1  0  0  0
 22 32  2  0  0  0
 26 27  1  0  0  0
 28104  1  0  0  0
 28105  1  0  0  0
 29106  1  0  0  0
 29107  1  0  0  0
 33 34  1  0  0  0
 33 66  1  0  0  0
 33 70  2  0  0  0
 34 36  1  0  0  0
 34 59  1  0  0  0
 34108  1  0  0  0
 35 44  2  0  0  0
 35 45  1  0  0  0
 35 68  1  0  0  0
 36 56  1  0  0  0
 36109  1  0  0  0
 37 39  1  0  0  0
 37 47  1  0  0  0
 37 66  1  0  0  0
 37110  1  0  0  0
 38 43  2  0  0  0
 38 46  1  0  0  0
 38 47  1  0  0  0
 39 64  1  0  0  0
 39 67  2  0  0  0
 40 52  1  0  0  0
 40 53  2  0  0  0
 40 58  1  0  0  0
 41111  1  0  0  0
 41112  1  0  0  0
 41113  1  0  0  0
 41 48  1  0  0  0
 42 43  1  0  0  0
 42 66  1  0  0  0
 42114  1  0  0  0
 42115  1  0  0  0
 43 44  1  0  0  0
 44116  1  0  0  0
 45 46  2  0  0  0
 45117  1  0  0  0
 46118  1  0  0  0
 47119  1  0  0  0
 47120  1  0  0  0
 48 56  1  0  0  0
 48 65  1  0  0  0
 48121  1  0  0  0
 49 50  1  0  0  0
 49 53  1  0  0  0
 49 64  1  0  0  0
 49122  1  0  0  0
 50 51  1  0  0  0
 50123  1  0  0  0
 50124  1  0  0  0
 51 52  1  0  0  0
 51125  1  0  0  0
 51126  1  0  0  0
 52127  1  0  0  0
 52128  1  0  0  0
 53 54  1  0  0  0
 54 55  2  0  0  0
 54129  1  0  0  0
 55 57  1  0  0  0
 55130  1  0  0  0
 56 69  2  0  0  0
 57 58  2  0  0  0
 57131  1  0  0  0
 58132  1  0  0  0
 59 60  1  0  0  0
 59 61  1  0  0  0
 59 62  1  0  0  0
 60133  1  0  0  0
 60134  1  0  0  0
 60135  1  0  0  0
 61136  1  0  0  0
 61137  1  0  0  0
 61138  1  0  0  0
 62139  1  0  0  0
 62140  1  0  0  0
 62141  1  0  0  0
 63 65  1  0  0  0
 63142  1  0  0  0
 63143  1  0  0  0
 63144  1  0  0  0
 64145  1  0  0  0
 65146  1  0  0  0
 68 84  1  0  0  0
 71 72  2  0  0  0
 71 74  1  0  0  0
 71147  1  0  0  0
 72 76  1  0  0  0
 72148  1  0  0  0
 73 75  1  0  0  0
 73 76  2  0  0  0
 73149  1  0  0  0
 74 75  2  0  0  0
 74 77  1  0  0  0
 75 80  1  0  0  0
 76 83  1  0  0  0
 77 78  1  0  0  0
 77150  1  0  0  0
 77151  1  0  0  0
 78 79  1  0  0  0
 78152  1  0  0  0
 78153  1  0  0  0
 79 80  1  0  0  0
 79 84  1  0  0  0
 79154  1  0  0  0
 80 81  1  0  0  0
 80 82  1  0  0  0
 81155  1  0  0  0
 81156  1  0  0  0
 81157  1  0  0  0
 82158  1  0  0  0
 82159  1  0  0  0
 82160  1  0  0  0
 83 85  1  0  0  0
 83161  1  0  0  0
 83162  1  0  0  0
 84163  1  0  0  0
 84164  1  0  0  0
 85 86  1  0  0  0
 85165  1  0  0  0
 85166  1  0  0  0
 86 87  1  0  0  0
 86167  1  0  0  0
 86168  1  0  0  0
 87169  1  0  0  0
M  ISO  4   1 100  68 101  84 101  87 100
M  END
> <chiral flag>
0

> <version>
0

> <s_m_source_file>
/data/baiqing/PycharmProjects/Reinvent-master-3.2/result/LINK_invent/BTK/process_docking_weight1_custom_sum_contain_oxygen_bond_distance_aromatic_linkinvent_7_9_3/rearranged_h_0034.sdf

> <i_m_source_file_index>
81

> <r_mmod_Potential_Energy-OPLS-2005>
-49.4241371154785

> <r_mmod_Stretch_Energy-OPLS-2005>
38.5449066162109

> <r_mmod_Bend_Energy-OPLS-2005>
110.48908996582

> <r_mmod_Torsional_Energy-OPLS-2005>
220.336090087891

> <r_mmod_Improper_Torsional_Energy-OPLS-2005>
1.84528934955597

> <r_mmod_Van_der_Waal_Energy-OPLS-2005>
167.330078125

> <r_mmod_Electrostatic_Energy-OPLS-2005>
-400.00927734375

> <r_mmod_Solvation_Energy-OPLS-2005>
-197.555801391602

> <b_mmod_Minimization_Converged-OPLS-2005>
0

> <r_mmod_RMS_Derivative-OPLS-2005>
2.97676849365234

$$$$
83
                    3D
 Structure written by MMmdl.
177185  0  0  1  0            999 V2000
  -30.6718  -14.3684   20.5803 C   0  0  0  0  0  0
  -30.4097  -12.2546   19.3751 C   0  0  0  0  0  0
  -29.4697  -12.5097   18.1796 C   0  0  0  0  0  0
  -27.9849  -12.4126   18.5902 C   0  0  0  0  0  0
  -27.6630  -13.1881   19.8929 C   0  0  2  0  0  0
  -28.7056  -12.8655   20.9864 C   0  0  0  0  0  0
  -25.2620  -13.8167   20.5656 C   0  0  0  0  0  0
  -24.1841  -13.0463   20.9150 C   0  0  0  0  0  0
  -24.6318  -11.6912   20.8682 C   0  0  0  0  0  0
  -23.8961  -10.4324   21.0314 C   0  0  0  0  0  0
  -24.3566   -9.4290   21.9110 C   0  0  0  0  0  0
  -23.6311   -8.2309   22.0674 C   0  0  0  0  0  0
  -22.4292   -8.0309   21.3511 C   0  0  0  0  0  0
  -21.9865   -9.0222   20.4571 C   0  0  0  0  0  0
  -22.7136  -10.2134   20.2972 C   0  0  0  0  0  0
  -21.6867   -6.0774   22.5265 C   0  0  0  0  0  0
  -21.4021   -6.5662   23.8208 C   0  0  0  0  0  0
  -21.3672   -5.6800   24.9164 C   0  0  0  0  0  0
  -21.6054   -4.3058   24.7203 C   0  0  0  0  0  0
  -21.8845   -3.8180   23.4310 C   0  0  0  0  0  0
  -21.9200   -4.7009   22.3386 C   0  0  0  0  0  0
  -22.7897  -13.5233   21.1839 C   0  0  0  0  0  0
  -22.1655   -4.2214   21.0965 F   0  0  0  0  0  0
  -21.5619   -3.4515   25.7699 F   0  0  0  0  0  0
  -30.0391  -13.1828   20.4481 N   0  0  0  0  0  0
  -26.3015  -12.9260   20.3425 N   0  0  0  0  0  0
  -25.9246  -11.6433   20.5739 N   0  0  0  0  0  0
  -22.0572  -12.8198   22.0380 N   0  0  0  0  0  0
  -25.4464  -15.1886   20.4072 N   0  0  0  0  0  0
  -31.7972  -14.6078   20.1326 O   0  0  0  0  0  0
  -21.6694   -6.8906   21.4208 O   0  0  0  0  0  0
  -22.3579  -14.5559   20.6714 O   0  0  0  0  0  0
  -24.6065  -31.8725   23.2138 C   0  0  0  0  0  0
  -25.8987  -32.4838   23.8401 C   0  0  1  0  0  0
  -27.2564  -27.5126   20.0679 C   0  0  0  0  0  0
  -25.5885  -33.8646   24.2357 N   0  0  0  0  0  0
  -23.3917  -30.4947   21.5488 C   0  0  2  0  0  0
  -24.8403  -28.9564   20.1236 C   0  0  0  0  0  0
  -22.7354  -29.4705   22.4990 C   0  0  0  0  0  0
  -18.0257  -28.1353   22.8481 C   0  0  0  0  0  0
  -24.1504  -36.7313   23.2646 C   0  0  0  0  0  0
  -25.9126  -30.8540   21.3599 C   0  0  0  0  0  0
  -25.9948  -29.4933   20.7086 C   0  0  0  0  0  0
  -27.2021  -28.7763   20.6799 C   0  0  0  0  0  0
  -26.0860  -26.9584   19.5025 C   0  0  0  0  0  0
  -24.8744  -27.6772   19.5332 C   0  0  0  0  0  0
  -23.6019  -29.8182   20.1658 C   0  0  0  0  0  0
  -25.4117  -36.3117   24.0349 C   0  0  1  0  0  0
  -20.5845  -28.3640   23.1322 C   0  0  2  0  0  0
  -20.6760  -26.9390   22.5405 C   0  0  0  0  0  0
  -19.5752  -26.6377   21.5194 C   0  0  0  0  0  0
  -18.1914  -26.7909   22.1598 C   0  0  0  0  0  0
  -19.1501  -28.8809   23.2913 C   0  0  0  0  0  0
  -18.9463  -30.1410   23.8927 C   0  0  0  0  0  0
  -17.6473  -30.6579   24.0574 C   0  0  0  0  0  0
  -25.9024  -34.9483   23.5126 C   0  0  0  0  0  0
  -16.5365  -29.9090   23.6318 C   0  0  0  0  0  0
  -16.7246  -28.6508   23.0336 C   0  0  0  0  0  0
  -26.4448  -31.6605   25.0709 C   0  0  0  0  0  0
  -25.3738  -31.3701   26.1474 C   0  0  0  0  0  0
  -27.0288  -30.3064   24.6027 C   0  0  0  0  0  0
  -27.6023  -32.4306   25.7454 C   0  0  0  0  0  0
  -27.5580  -37.1817   24.8466 C   0  0  0  0  0  0
  -21.4094  -29.3049   22.3757 N   0  0  0  0  0  0
  -26.4311  -37.3794   23.9396 N   0  0  0  0  0  0
  -24.6530  -31.0864   22.1007 N   0  0  0  0  0  0
  -23.4155  -28.8246   23.3017 O   0  0  0  0  0  0
  -28.4712  -26.8895   20.0003 O   0  0  0  0  0  0
  -26.5585  -34.8931   22.4687 O   0  0  0  0  0  0
  -23.5261  -32.1463   23.7562 O   0  0  0  0  0  0
  -30.0214  -24.6488   16.0924 C   0  0  0  0  0  0
  -29.4613  -23.3649   16.0367 C   0  0  0  0  0  0
  -30.5063  -25.1774   17.2990 C   0  0  0  0  0  0
  -29.9179  -23.0850   18.4312 C   0  0  0  0  0  0
  -29.3722  -22.5824   17.2144 C   0  0  0  0  0  0
  -30.4719  -24.3949   18.4814 C   0  0  0  0  0  0
  -28.9472  -22.8980   14.6864 C   0  0  0  0  0  0
  -31.0661  -26.5867   17.2697 C   0  0  0  0  0  0
  -29.9243  -22.2350   19.7004 C   0  0  0  0  0  0
  -28.7221  -21.2016   17.1693 C   0  0  0  0  0  0
  -31.0053  -24.9672   19.8073 C   0  0  0  0  0  0
  -29.7743  -20.1107   16.9096 C   0  0  0  0  0  0
  -29.9313  -25.2419   20.8921 C   0  0  0  0  0  0
  -29.3249  -18.7185   17.3680 C   0  0  0  0  0  0
  -29.8767  -18.3635   18.7524 C   0  0  0  0  0  0
  -29.4691  -16.9724   19.2206 C   0  0  0  0  0  0
  -30.0209  -16.7373   20.6359 C   0  0  0  0  0  0
  -28.4956  -25.5434   20.4119 C   0  0  0  0  0  0
  -29.8651  -15.3455   21.0129 N   0  0  0  0  0  0
  -31.4466  -12.3699   19.0556 H   0  0  0  0  0  0
  -30.3055  -11.2257   19.7191 H   0  0  0  0  0  0
  -29.6718  -11.7964   17.3798 H   0  0  0  0  0  0
  -29.6652  -13.4977   17.7594 H   0  0  0  0  0  0
  -27.7306  -11.3575   18.6994 H   0  0  0  0  0  0
  -27.3520  -12.7877   17.7852 H   0  0  0  0  0  0
  -27.7268  -14.2514   19.6646 H   0  0  0  0  0  0
  -28.6707  -11.8061   21.2370 H   0  0  0  0  0  0
  -28.4869  -13.3872   21.9199 H   0  0  0  0  0  0
  -25.2677   -9.5863   22.4695 H   0  0  0  0  0  0
  -24.0079   -7.4700   22.7354 H   0  0  0  0  0  0
  -21.0823   -8.8671   19.8833 H   0  0  0  0  0  0
  -22.3506  -10.9674   19.6125 H   0  0  0  0  0  0
  -21.2017   -7.6173   23.9723 H   0  0  0  0  0  0
  -21.1431   -6.0521   25.9067 H   0  0  0  0  0  0
  -22.0600   -2.7640   23.2777 H   0  0  0  0  0  0
  -22.4218  -11.9854   22.4740 H   0  0  0  0  0  0
  -21.1149  -13.1134   22.2568 H   0  0  0  0  0  0
  -24.6907  -15.8583   20.5107 H   0  0  0  0  0  0
  -26.3132  -15.6136   20.1055 H   0  0  0  0  0  0
  -26.7059  -32.5579   23.1172 H   0  0  0  0  0  0
  -25.0083  -33.9822   25.0511 H   0  0  0  0  0  0
  -22.6780  -31.3097   21.4036 H   0  0  0  0  0  0
  -23.3762  -35.9652   23.3340 H   0  0  0  0  0  0
  -24.3600  -36.8868   22.2054 H   0  0  0  0  0  0
  -23.7260  -37.6535   23.6620 H   0  0  0  0  0  0
  -26.0205  -31.6199   20.5923 H   0  0  0  0  0  0
  -26.8009  -30.9054   21.9772 H   0  0  0  0  0  0
  -28.1012  -29.1931   21.1132 H   0  0  0  0  0  0
  -26.1111  -25.9937   19.0162 H   0  0  0  0  0  0
  -23.9805  -27.2506   19.0975 H   0  0  0  0  0  0
  -23.7211  -30.5908   19.4053 H   0  0  0  0  0  0
  -22.7258  -29.2409   19.8623 H   0  0  0  0  0  0
  -25.1301  -36.1995   25.0846 H   0  0  0  0  0  0
  -20.9932  -28.3187   24.1447 H   0  0  0  0  0  0
  -20.5645  -26.2256   23.3578 H   0  0  0  0  0  0
  -21.6626  -26.7436   22.1212 H   0  0  0  0  0  0
  -19.6938  -25.6295   21.1196 H   0  0  0  0  0  0
  -19.6702  -27.3212   20.6751 H   0  0  0  0  0  0
  -17.4198  -26.6645   21.3994 H   0  0  0  0  0  0
  -18.0338  -26.0025   22.8970 H   0  0  0  0  0  0
  -19.7954  -30.7190   24.2316 H   0  0  0  0  0  0
  -17.5054  -31.6264   24.5168 H   0  0  0  0  0  0
  -15.5362  -30.3033   23.7625 H   0  0  0  0  0  0
  -15.8632  -28.0849   22.7035 H   0  0  0  0  0  0
  -24.5903  -30.7047   25.7842 H   0  0  0  0  0  0
  -24.8953  -32.2871   26.4943 H   0  0  0  0  0  0
  -25.8117  -30.8876   27.0222 H   0  0  0  0  0  0
  -26.2831  -29.6809   24.1124 H   0  0  0  0  0  0
  -27.4163  -29.7300   25.4438 H   0  0  0  0  0  0
  -27.8603  -30.4434   23.9109 H   0  0  0  0  0  0
  -27.2655  -33.3597   26.2074 H   0  0  0  0  0  0
  -28.3823  -32.6878   25.0273 H   0  0  0  0  0  0
  -28.0712  -31.8410   26.5342 H   0  0  0  0  0  0
  -28.2620  -38.0102   24.7492 H   0  0  0  0  0  0
  -28.1059  -36.2620   24.6323 H   0  0  0  0  0  0
  -27.2291  -37.1498   25.8875 H   0  0  0  0  0  0
  -20.9216  -29.8829   21.7048 H   0  0  0  0  0  0
  -26.0205  -38.2877   24.1375 H   0  0  0  0  0  0
  -30.0629  -25.2402   15.1866 H   0  0  0  0  0  0
  -29.5115  -23.3853   13.8905 H   0  0  0  0  0  0
  -27.9064  -23.1995   14.5767 H   0  0  0  0  0  0
  -29.0324  -21.8218   14.5291 H   0  0  0  0  0  0
  -30.7828  -27.1075   16.3535 H   0  0  0  0  0  0
  -32.1538  -26.5396   17.3172 H   0  0  0  0  0  0
  -30.6907  -27.1766   18.1057 H   0  0  0  0  0  0
  -29.7222  -21.1861   19.5321 H   0  0  0  0  0  0
  -29.1716  -22.5894   20.4015 H   0  0  0  0  0  0
  -30.9023  -22.2684   20.1828 H   0  0  0  0  0  0
  -27.9572  -21.1482   16.3923 H   0  0  0  0  0  0
  -28.1679  -21.0261   18.0933 H   0  0  0  0  0  0
  -31.5765  -25.8770   19.6445 H   0  0  0  0  0  0
  -31.7592  -24.2918   20.2128 H   0  0  0  0  0  0
  -30.7153  -20.3615   17.4056 H   0  0  0  0  0  0
  -30.0153  -20.1045   15.8479 H   0  0  0  0  0  0
  -30.2703  -26.0513   21.5433 H   0  0  0  0  0  0
  -29.8933  -24.3713   21.5433 H   0  0  0  0  0  0
  -29.6755  -17.9848   16.6409 H   0  0  0  0  0  0
  -28.2345  -18.6512   17.3826 H   0  0  0  0  0  0
  -29.5360  -19.0780   19.5001 H   0  0  0  0  0  0
  -30.9669  -18.4326   18.7460 H   0  0  0  0  0  0
  -29.8564  -16.2317   18.5138 H   0  0  0  0  0  0
  -28.3823  -16.8720   19.2128 H   0  0  0  0  0  0
  -29.4981  -17.3833   21.3446 H   0  0  0  0  0  0
  -31.0741  -17.0148   20.6829 H   0  0  0  0  0  0
  -27.7927  -25.4054   21.2352 H   0  0  0  0  0  0
  -28.1643  -24.8972   19.5995 H   0  0  0  0  0  0
  -28.9534  -15.0516   21.3327 H   0  0  0  0  0  0
  1 25  1  0  0  0
  1 30  2  0  0  0
  1 89  1  0  0  0
  2  3  1  0  0  0
  2 25  1  0  0  0
  2 90  1  0  0  0
  2 91  1  0  0  0
  3  4  1  0  0  0
  3 92  1  0  0  0
  3 93  1  0  0  0
  4  5  1  0  0  0
  4 94  1  0  0  0
  4 95  1  0  0  0
  5  6  1  0  0  0
  5 26  1  0  0  0
  5 96  1  0  0  0
  6 25  1  0  0  0
  6 97  1  0  0  0
  6 98  1  0  0  0
  7  8  2  0  0  0
  7 26  1  0  0  0
  7 29  1  0  0  0
  8  9  1  0  0  0
  8 22  1  0  0  0
  9 10  1  0  0  0
  9 27  2  0  0  0
 10 11  2  0  0  0
 10 15  1  0  0  0
 11 12  1  0  0  0
 11 99  1  0  0  0
 12 13  2  0  0  0
 12100  1  0  0  0
 13 14  1  0  0  0
 13 31  1  0  0  0
 14 15  2  0  0  0
 14101  1  0  0  0
 15102  1  0  0  0
 16 17  2  0  0  0
 16 21  1  0  0  0
 16 31  1  0  0  0
 17 18  1  0  0  0
 17103  1  0  0  0
 18 19  2  0  0  0
 18104  1  0  0  0
 19 20  1  0  0  0
 19 24  1  0  0  0
 20 21  2  0  0  0
 20105  1  0  0  0
 21 23  1  0  0  0
 22 28  1  0  0  0
 22 32  2  0  0  0
 26 27  1  0  0  0
 28106  1  0  0  0
 28107  1  0  0  0
 29108  1  0  0  0
 29109  1  0  0  0
 33 34  1  0  0  0
 33 66  1  0  0  0
 33 70  2  0  0  0
 34 36  1  0  0  0
 34 59  1  0  0  0
 34110  1  0  0  0
 35 44  2  0  0  0
 35 45  1  0  0  0
 35 68  1  0  0  0
 36 56  1  0  0  0
 36111  1  0  0  0
 37 39  1  0  0  0
 37 47  1  0  0  0
 37 66  1  0  0  0
 37112  1  0  0  0
 38 43  2  0  0  0
 38 46  1  0  0  0
 38 47  1  0  0  0
 39 64  1  0  0  0
 39 67  2  0  0  0
 40 52  1  0  0  0
 40 53  2  0  0  0
 40 58  1  0  0  0
 41113  1  0  0  0
 41114  1  0  0  0
 41115  1  0  0  0
 41 48  1  0  0  0
 42 43  1  0  0  0
 42 66  1  0  0  0
 42116  1  0  0  0
 42117  1  0  0  0
 43 44  1  0  0  0
 44118  1  0  0  0
 45 46  2  0  0  0
 45119  1  0  0  0
 46120  1  0  0  0
 47121  1  0  0  0
 47122  1  0  0  0
 48 56  1  0  0  0
 48 65  1  0  0  0
 48123  1  0  0  0
 49 50  1  0  0  0
 49 53  1  0  0  0
 49 64  1  0  0  0
 49124  1  0  0  0
 50 51  1  0  0  0
 50125  1  0  0  0
 50126  1  0  0  0
 51 52  1  0  0  0
 51127  1  0  0  0
 51128  1  0  0  0
 52129  1  0  0  0
 52130  1  0  0  0
 53 54  1  0  0  0
 54 55  2  0  0  0
 54131  1  0  0  0
 55 57  1  0  0  0
 55132  1  0  0  0
 56 69  2  0  0  0
 57 58  2  0  0  0
 57133  1  0  0  0
 58134  1  0  0  0
 59 60  1  0  0  0
 59 61  1  0  0  0
 59 62  1  0  0  0
 60135  1  0  0  0
 60136  1  0  0  0
 60137  1  0  0  0
 61138  1  0  0  0
 61139  1  0  0  0
 61140  1  0  0  0
 62141  1  0  0  0
 62142  1  0  0  0
 62143  1  0  0  0
 63 65  1  0  0  0
 63144  1  0  0  0
 63145  1  0  0  0
 63146  1  0  0  0
 64147  1  0  0  0
 65148  1  0  0  0
 68 88  1  0  0  0
 71 72  2  0  0  0
 71 73  1  0  0  0
 71149  1  0  0  0
 72 75  1  0  0  0
 72 77  1  0  0  0
 73 76  2  0  0  0
 73 78  1  0  0  0
 74 75  2  0  0  0
 74 76  1  0  0  0
 74 79  1  0  0  0
 75 80  1  0  0  0
 76 81  1  0  0  0
 77150  1  0  0  0
 77151  1  0  0  0
 77152  1  0  0  0
 78153  1  0  0  0
 78154  1  0  0  0
 78155  1  0  0  0
 79156  1  0  0  0
 79157  1  0  0  0
 79158  1  0  0  0
 80 82  1  0  0  0
 80159  1  0  0  0
 80160  1  0  0  0
 81 83  1  0  0  0
 81161  1  0  0  0
 81162  1  0  0  0
 82 84  1  0  0  0
 82163  1  0  0  0
 82164  1  0  0  0
 83 88  1  0  0  0
 83165  1  0  0  0
 83166  1  0  0  0
 84 85  1  0  0  0
 84167  1  0  0  0
 84168  1  0  0  0
 85 86  1  0  0  0
 85169  1  0  0  0
 85170  1  0  0  0
 86 87  1  0  0  0
 86171  1  0  0  0
 86172  1  0  0  0
 87 89  1  0  0  0
 87173  1  0  0  0
 87174  1  0  0  0
 88175  1  0  0  0
 88176  1  0  0  0
 89177  1  0  0  0
M  ISO  4   1 100  68 101  88 101  89 100
M  END
> <chiral flag>
0

> <version>
0

> <s_m_source_file>
/data/baiqing/PycharmProjects/Reinvent-master-3.2/result/LINK_invent/BTK/process_docking_weight1_custom_sum_contain_oxygen_bond_distance_aromatic_linkinvent_7_9_3/rearranged_h_0034.sdf

> <i_m_source_file_index>
82

> <r_mmod_Potential_Energy-OPLS-2005>
-54.3423004150391

> <r_mmod_Stretch_Energy-OPLS-2005>
33.4181327819824

> <r_mmod_Bend_Energy-OPLS-2005>
97.1864318847656

> <r_mmod_Torsional_Energy-OPLS-2005>
237.933853149414

> <r_mmod_Improper_Torsional_Energy-OPLS-2005>
7.38067054748535

> <r_mmod_Van_der_Waal_Energy-OPLS-2005>
172.606597900391

> <r_mmod_Electrostatic_Energy-OPLS-2005>
-410.060607910156

> <r_mmod_Solvation_Energy-OPLS-2005>
-205.148391723633

> <b_mmod_Minimization_Converged-OPLS-2005>
0

> <r_mmod_RMS_Derivative-OPLS-2005>
6.3385009765625

$$$$
85
                    3D
 Structure written by MMmdl.
168176  0  0  1  0            999 V2000
  -30.8041  -14.2826   20.5375 C   0  0  0  0  0  0
  -30.4052  -12.1861   19.2727 C   0  0  0  0  0  0
  -29.4224  -12.4380   18.1084 C   0  0  0  0  0  0
  -27.9562  -12.3548   18.5778 C   0  0  0  0  0  0
  -27.6687  -13.1758   19.8450 C   0  0  2  0  0  0
  -28.7480  -12.8879   20.9085 C   0  0  0  0  0  0
  -25.2574  -13.7923   20.5420 C   0  0  0  0  0  0
  -24.1889  -13.0446   20.9102 C   0  0  0  0  0  0
  -24.6320  -11.6841   20.8813 C   0  0  0  0  0  0
  -23.8884  -10.4384   21.0504 C   0  0  0  0  0  0
  -24.3409   -9.4264   21.9260 C   0  0  0  0  0  0
  -23.6101   -8.2265   22.0781 C   0  0  0  0  0  0
  -22.4083   -8.0341   21.3579 C   0  0  0  0  0  0
  -21.9780   -9.0325   20.4676 C   0  0  0  0  0  0
  -22.7082  -10.2212   20.3120 C   0  0  0  0  0  0
  -21.6879   -6.0661   22.5201 C   0  0  0  0  0  0
  -21.4068   -6.5559   23.8169 C   0  0  0  0  0  0
  -21.3666   -5.6763   24.9147 C   0  0  0  0  0  0
  -21.6043   -4.3003   24.7243 C   0  0  0  0  0  0
  -21.8873   -3.8036   23.4392 C   0  0  0  0  0  0
  -21.9189   -4.6817   22.3405 C   0  0  0  0  0  0
  -22.7901  -13.5327   21.1861 C   0  0  0  0  0  0
  -22.1601   -4.1994   21.0958 F   0  0  0  0  0  0
  -21.5625   -3.4535   25.7759 F   0  0  0  0  0  0
  -30.0828  -13.1532   20.3285 N   0  0  0  0  0  0
  -26.3150  -12.9177   20.3392 N   0  0  0  0  0  0
  -25.9317  -11.6412   20.6068 N   0  0  0  0  0  0
  -22.0618  -12.8357   22.0351 N   0  0  0  0  0  0
  -25.4102  -15.1668   20.3440 N   0  0  0  0  0  0
  -31.9687  -14.4449   20.1604 O   0  0  0  0  0  0
  -21.6499   -6.8882   21.4249 O   0  0  0  0  0  0
  -22.3571  -14.5791   20.6795 O   0  0  0  0  0  0
  -24.6258  -31.8652   23.2390 C   0  0  0  0  0  0
  -25.9128  -32.4824   23.8746 C   0  0  1  0  0  0
  -27.1950  -27.4050   20.0355 C   0  0  0  0  0  0
  -25.6030  -33.8702   24.2600 N   0  0  0  0  0  0
  -23.4085  -30.4953   21.5763 C   0  0  2  0  0  0
  -24.8376  -29.0079   20.0860 C   0  0  0  0  0  0
  -22.7343  -29.4453   22.4951 C   0  0  0  0  0  0
  -18.0095  -28.1592   22.8853 C   0  0  0  0  0  0
  -24.1503  -36.7310   23.2643 C   0  0  0  0  0  0
  -25.9463  -30.8122   21.3935 C   0  0  0  0  0  0
  -26.0093  -29.4671   20.7017 C   0  0  0  0  0  0
  -27.1865  -28.6807   20.6696 C   0  0  0  0  0  0
  -25.9712  -26.9477   19.4904 C   0  0  0  0  0  0
  -24.8070  -27.7415   19.4830 C   0  0  0  0  0  0
  -23.6161  -29.9092   20.1610 C   0  0  0  0  0  0
  -25.4085  -36.3125   24.0411 C   0  0  1  0  0  0
  -20.5711  -28.3620   23.1396 C   0  0  2  0  0  0
  -20.6360  -26.8950   22.6500 C   0  0  0  0  0  0
  -19.5242  -26.5106   21.6557 C   0  0  0  0  0  0
  -18.1480  -26.7672   22.2942 C   0  0  0  0  0  0
  -19.1493  -28.8956   23.2785 C   0  0  0  0  0  0
  -18.9627  -30.1728   23.8552 C   0  0  0  0  0  0
  -17.6806  -30.7059   24.0515 C   0  0  0  0  0  0
  -25.8949  -34.9441   23.5196 C   0  0  0  0  0  0
  -16.5504  -29.9655   23.6707 C   0  0  0  0  0  0
  -16.7219  -28.6976   23.0811 C   0  0  0  0  0  0
  -26.4556  -31.6606   25.1003 C   0  0  0  0  0  0
  -25.3866  -31.3698   26.1727 C   0  0  0  0  0  0
  -27.0374  -30.3038   24.6377 C   0  0  0  0  0  0
  -27.6091  -32.4345   25.7737 C   0  0  0  0  0  0
  -27.5552  -37.1815   24.8463 C   0  0  0  0  0  0
  -21.4101  -29.2561   22.3282 N   0  0  0  0  0  0
  -26.4313  -37.3726   23.9372 N   0  0  0  0  0  0
  -24.6774  -31.0715   22.1256 N   0  0  0  0  0  0
  -23.3916  -28.8368   23.3474 O   0  0  0  0  0  0
  -28.3642  -26.6378   19.9877 O   0  0  0  0  0  0
  -26.5410  -34.8808   22.4693 O   0  0  0  0  0  0
  -23.5425  -32.1665   23.7636 O   0  0  0  0  0  0
  -29.4282  -19.5629   19.8701 C   0  0  0  0  0  0
  -30.4650  -18.8674   22.3288 C   0  0  0  0  0  0
  -29.2644  -18.2075   20.3215 C   0  0  0  0  0  0
  -30.1124  -20.5549   20.6483 C   0  0  0  0  0  0
  -30.3346  -20.2307   22.0008 C   0  0  0  0  0  0
  -30.0753  -17.8305   21.4399 C   0  0  0  0  0  0
  -28.1985  -17.2317   19.7219 C   0  0  0  0  0  0
  -27.8523  -21.7614   23.5925 C   0  0  0  0  0  0
  -30.4947  -21.9732   20.1402 C   0  0  0  0  0  0
  -30.4539  -21.3416   23.0553 C   0  0  0  0  0  0
  -30.5418  -16.4091   21.8344 C   0  0  0  0  0  0
  -29.2926  -21.5266   24.0662 C   0  0  0  0  0  0
  -29.2770  -22.9167   20.1107 C   0  0  0  0  0  0
  -29.5104  -24.4121   19.8015 C   0  0  0  0  0  0
  -28.1948  -25.2318   19.6992 C   0  0  0  0  0  0
  -30.0872  -15.2192   21.1386 N   0  0  0  0  0  0
  -31.4227  -12.2452   18.8781 H   0  0  0  0  0  0
  -30.2795  -11.1706   19.6491 H   0  0  0  0  0  0
  -29.5671  -11.7214   17.2962 H   0  0  0  0  0  0
  -29.6297  -13.4110   17.6642 H   0  0  0  0  0  0
  -27.7297  -11.3122   18.7796 H   0  0  0  0  0  0
  -27.2651  -12.6455   17.7768 H   0  0  0  0  0  0
  -27.7489  -14.2146   19.5391 H   0  0  0  0  0  0
  -28.5848  -13.4151   21.8421 H   0  0  0  0  0  0
  -28.6812  -11.8419   21.1718 H   0  0  0  0  0  0
  -25.2739   -9.5722   22.4599 H   0  0  0  0  0  0
  -23.9972   -7.4609   22.7386 H   0  0  0  0  0  0
  -21.0816   -8.8808   19.8829 H   0  0  0  0  0  0
  -22.3703  -10.9619   19.6006 H   0  0  0  0  0  0
  -21.2114   -7.6104   23.9601 H   0  0  0  0  0  0
  -21.1355   -6.0517   25.9042 H   0  0  0  0  0  0
  -22.0633   -2.7452   23.2983 H   0  0  0  0  0  0
  -22.4294  -12.0045   22.4800 H   0  0  0  0  0  0
  -21.1087  -13.0936   22.2524 H   0  0  0  0  0  0
  -24.6432  -15.8053   20.5227 H   0  0  0  0  0  0
  -26.2395  -15.6211   19.9872 H   0  0  0  0  0  0
  -26.7207  -32.5402   23.1528 H   0  0  0  0  0  0
  -25.0533  -33.9980   25.0955 H   0  0  0  0  0  0
  -22.6906  -31.3131   21.4938 H   0  0  0  0  0  0
  -23.3738  -35.9635   23.3331 H   0  0  0  0  0  0
  -24.3704  -36.8815   22.2052 H   0  0  0  0  0  0
  -23.7284  -37.6562   23.6594 H   0  0  0  0  0  0
  -26.0851  -31.5944   20.6458 H   0  0  0  0  0  0
  -26.8070  -30.8208   22.0490 H   0  0  0  0  0  0
  -28.0864  -29.0375   21.1391 H   0  0  0  0  0  0
  -25.8325  -25.9730   19.0511 H   0  0  0  0  0  0
  -23.9159  -27.3725   18.9790 H   0  0  0  0  0  0
  -23.7491  -30.7528   19.4833 H   0  0  0  0  0  0
  -22.7159  -29.3965   19.8241 H   0  0  0  0  0  0
  -25.1260  -36.2006   25.0925 H   0  0  0  0  0  0
  -20.9967  -28.3768   24.1515 H   0  0  0  0  0  0
  -20.4973  -26.2803   23.5457 H   0  0  0  0  0  0
  -21.6228  -26.6480   22.2625 H   0  0  0  0  0  0
  -19.6146  -27.1019   20.7398 H   0  0  0  0  0  0
  -19.5936  -25.4470   21.4005 H   0  0  0  0  0  0
  -17.9527  -26.0967   23.1368 H   0  0  0  0  0  0
  -17.3531  -26.5826   21.5716 H   0  0  0  0  0  0
  -19.8340  -30.7365   24.1566 H   0  0  0  0  0  0
  -17.5953  -31.6852   24.4952 H   0  0  0  0  0  0
  -15.5662  -30.3756   23.8309 H   0  0  0  0  0  0
  -15.8399  -28.1256   22.8218 H   0  0  0  0  0  0
  -24.5963  -30.7089   25.8207 H   0  0  0  0  0  0
  -24.9129  -32.2780   26.5424 H   0  0  0  0  0  0
  -25.8273  -30.8792   27.0368 H   0  0  0  0  0  0
  -26.2973  -29.6777   24.1327 H   0  0  0  0  0  0
  -27.3999  -29.7333   25.4945 H   0  0  0  0  0  0
  -27.8900  -30.4426   23.9712 H   0  0  0  0  0  0
  -27.2734  -33.3560   26.2532 H   0  0  0  0  0  0
  -28.3836  -32.7028   25.0555 H   0  0  0  0  0  0
  -28.0819  -31.8336   26.5482 H   0  0  0  0  0  0
  -28.2558  -38.0112   24.7431 H   0  0  0  0  0  0
  -28.1084  -36.2638   24.6356 H   0  0  0  0  0  0
  -27.2316  -37.1497   25.8887 H   0  0  0  0  0  0
  -20.9494  -29.7812   21.6005 H   0  0  0  0  0  0
  -26.0223  -38.2825   24.1212 H   0  0  0  0  0  0
  -28.9914  -19.9028   18.9375 H   0  0  0  0  0  0
  -30.8525  -18.6055   23.3046 H   0  0  0  0  0  0
  -28.2933  -16.8898   18.6656 H   0  0  0  0  0  0
  -27.1641  -17.5468   19.9494 H   0  0  0  0  0  0
  -28.1470  -16.3047   20.2761 H   0  0  0  0  0  0
  -27.1821  -20.9699   23.9523 H   0  0  0  0  0  0
  -27.7692  -21.8051   22.5120 H   0  0  0  0  0  0
  -27.4902  -22.7164   23.9852 H   0  0  0  0  0  0
  -31.0372  -21.9731   19.1882 H   0  0  0  0  0  0
  -31.2773  -22.4101   20.7790 H   0  0  0  0  0  0
  -30.5828  -22.3338   22.6448 H   0  0  0  0  0  0
  -31.3679  -21.1078   23.5969 H   0  0  0  0  0  0
  -31.6328  -16.3708   21.9350 H   0  0  0  0  0  0
  -30.1191  -16.1686   22.7991 H   0  0  0  0  0  0
  -29.2905  -20.6896   24.7553 H   0  0  0  0  0  0
  -29.5761  -22.3969   24.6659 H   0  0  0  0  0  0
  -28.8690  -22.9069   21.1211 H   0  0  0  0  0  0
  -28.5192  -22.5378   19.4285 H   0  0  0  0  0  0
  -30.1319  -24.8277   20.5826 H   0  0  0  0  0  0
  -30.0649  -24.5523   18.8740 H   0  0  0  0  0  0
  -27.4821  -24.8351   20.4214 H   0  0  0  0  0  0
  -27.7351  -25.0824   18.7089 H   0  0  0  0  0  0
  -29.1730  -14.8715   21.4007 H   0  0  0  0  0  0
  1 25  1  0  0  0
  1 30  2  0  0  0
  1 86  1  0  0  0
  2  3  1  0  0  0
  2 25  1  0  0  0
  2 87  1  0  0  0
  2 88  1  0  0  0
  3  4  1  0  0  0
  3 89  1  0  0  0
  3 90  1  0  0  0
  4  5  1  0  0  0
  4 91  1  0  0  0
  4 92  1  0  0  0
  5  6  1  0  0  0
  5 26  1  0  0  0
  5 93  1  0  0  0
  6 25  1  0  0  0
  6 94  1  0  0  0
  6 95  1  0  0  0
  7  8  2  0  0  0
  7 26  1  0  0  0
  7 29  1  0  0  0
  8  9  1  0  0  0
  8 22  1  0  0  0
  9 10  1  0  0  0
  9 27  2  0  0  0
 10 11  2  0  0  0
 10 15  1  0  0  0
 11 12  1  0  0  0
 11 96  1  0  0  0
 12 13  2  0  0  0
 12 97  1  0  0  0
 13 14  1  0  0  0
 13 31  1  0  0  0
 14 15  2  0  0  0
 14 98  1  0  0  0
 15 99  1  0  0  0
 16 17  2  0  0  0
 16 21  1  0  0  0
 16 31  1  0  0  0
 17 18  1  0  0  0
 17100  1  0  0  0
 18 19  2  0  0  0
 18101  1  0  0  0
 19 20  1  0  0  0
 19 24  1  0  0  0
 20 21  2  0  0  0
 20102  1  0  0  0
 21 23  1  0  0  0
 22 28  1  0  0  0
 22 32  2  0  0  0
 26 27  1  0  0  0
 28103  1  0  0  0
 28104  1  0  0  0
 29105  1  0  0  0
 29106  1  0  0  0
 33 34  1  0  0  0
 33 66  1  0  0  0
 33 70  2  0  0  0
 34 36  1  0  0  0
 34 59  1  0  0  0
 34107  1  0  0  0
 35 44  2  0  0  0
 35 45  1  0  0  0
 35 68  1  0  0  0
 36 56  1  0  0  0
 36108  1  0  0  0
 37 39  1  0  0  0
 37 47  1  0  0  0
 37 66  1  0  0  0
 37109  1  0  0  0
 38 43  2  0  0  0
 38 46  1  0  0  0
 38 47  1  0  0  0
 39 64  1  0  0  0
 39 67  2  0  0  0
 40 52  1  0  0  0
 40 53  2  0  0  0
 40 58  1  0  0  0
 41110  1  0  0  0
 41111  1  0  0  0
 41112  1  0  0  0
 41 48  1  0  0  0
 42 43  1  0  0  0
 42 66  1  0  0  0
 42113  1  0  0  0
 42114  1  0  0  0
 43 44  1  0  0  0
 44115  1  0  0  0
 45 46  2  0  0  0
 45116  1  0  0  0
 46117  1  0  0  0
 47118  1  0  0  0
 47119  1  0  0  0
 48 56  1  0  0  0
 48 65  1  0  0  0
 48120  1  0  0  0
 49 50  1  0  0  0
 49 53  1  0  0  0
 49 64  1  0  0  0
 49121  1  0  0  0
 50 51  1  0  0  0
 50122  1  0  0  0
 50123  1  0  0  0
 51 52  1  0  0  0
 51124  1  0  0  0
 51125  1  0  0  0
 52126  1  0  0  0
 52127  1  0  0  0
 53 54  1  0  0  0
 54 55  2  0  0  0
 54128  1  0  0  0
 55 57  1  0  0  0
 55129  1  0  0  0
 56 69  2  0  0  0
 57 58  2  0  0  0
 57130  1  0  0  0
 58131  1  0  0  0
 59 60  1  0  0  0
 59 61  1  0  0  0
 59 62  1  0  0  0
 60132  1  0  0  0
 60133  1  0  0  0
 60134  1  0  0  0
 61135  1  0  0  0
 61136  1  0  0  0
 61137  1  0  0  0
 62138  1  0  0  0
 62139  1  0  0  0
 62140  1  0  0  0
 63 65  1  0  0  0
 63141  1  0  0  0
 63142  1  0  0  0
 63143  1  0  0  0
 64144  1  0  0  0
 65145  1  0  0  0
 68 85  1  0  0  0
 71 73  2  0  0  0
 71 74  1  0  0  0
 71146  1  0  0  0
 72 75  1  0  0  0
 72 76  2  0  0  0
 72147  1  0  0  0
 73 76  1  0  0  0
 73 77  1  0  0  0
 74 75  2  0  0  0
 74 79  1  0  0  0
 75 80  1  0  0  0
 76 81  1  0  0  0
 77148  1  0  0  0
 77149  1  0  0  0
 77150  1  0  0  0
 78 82  1  0  0  0
 78151  1  0  0  0
 78152  1  0  0  0
 78153  1  0  0  0
 79 83  1  0  0  0
 79154  1  0  0  0
 79155  1  0  0  0
 80 82  1  0  0  0
 80156  1  0  0  0
 80157  1  0  0  0
 81 86  1  0  0  0
 81158  1  0  0  0
 81159  1  0  0  0
 82160  1  0  0  0
 82161  1  0  0  0
 83 84  1  0  0  0
 83162  1  0  0  0
 83163  1  0  0  0
 84 85  1  0  0  0
 84164  1  0  0  0
 84165  1  0  0  0
 85166  1  0  0  0
 85167  1  0  0  0
 86168  1  0  0  0
M  ISO  4   1 100  68 101  85 101  86 100
M  END
> <chiral flag>
0

> <version>
0

> <s_m_source_file>
/data/baiqing/PycharmProjects/Reinvent-master-3.2/result/LINK_invent/BTK/process_docking_weight1_custom_sum_contain_oxygen_bond_distance_aromatic_linkinvent_7_9_3/rearranged_h_0034.sdf

> <i_m_source_file_index>
83

> <r_mmod_Potential_Energy-OPLS-2005>
127.198921203613

> <r_mmod_Stretch_Energy-OPLS-2005>
59.0132141113281

> <r_mmod_Bend_Energy-OPLS-2005>
175.1123046875

> <r_mmod_Torsional_Energy-OPLS-2005>
290.717620849609

> <r_mmod_Improper_Torsional_Energy-OPLS-2005>
4.32807874679565

> <r_mmod_Van_der_Waal_Energy-OPLS-2005>
165.876251220703

> <r_mmod_Electrostatic_Energy-OPLS-2005>
-409.538970947266

> <r_mmod_Solvation_Energy-OPLS-2005>
-205.960098266602

> <b_mmod_Minimization_Converged-OPLS-2005>
0

> <r_mmod_RMS_Derivative-OPLS-2005>
28.4292392730713

$$$$
86
                    3D
 Structure written by MMmdl.
186194  0  0  1  0            999 V2000
  -30.9190  -14.3118   20.1129 C   0  0  0  0  0  0
  -30.3356  -12.1095   19.3449 C   0  0  0  0  0  0
  -29.4067  -12.3193   18.1352 C   0  0  0  0  0  0
  -27.9521  -12.3140   18.6116 C   0  0  0  0  0  0
  -27.6773  -13.2159   19.8515 C   0  0  2  0  0  0
  -28.8024  -13.1266   20.9328 C   0  0  0  0  0  0
  -25.2724  -13.8217   20.5811 C   0  0  0  0  0  0
  -24.1949  -13.0486   20.9261 C   0  0  0  0  0  0
  -24.6505  -11.6955   20.8847 C   0  0  0  0  0  0
  -23.9148  -10.4318   21.0428 C   0  0  0  0  0  0
  -24.3660   -9.4207   21.9186 C   0  0  0  0  0  0
  -23.6312   -8.2257   22.0766 C   0  0  0  0  0  0
  -22.4296   -8.0309   21.3564 C   0  0  0  0  0  0
  -21.9960   -9.0298   20.4667 C   0  0  0  0  0  0
  -22.7319  -10.2167   20.3067 C   0  0  0  0  0  0
  -21.6876   -6.0752   22.5287 C   0  0  0  0  0  0
  -21.4029   -6.5656   23.8215 C   0  0  0  0  0  0
  -21.3655   -5.6806   24.9175 C   0  0  0  0  0  0
  -21.6037   -4.3067   24.7226 C   0  0  0  0  0  0
  -21.8815   -3.8157   23.4345 C   0  0  0  0  0  0
  -21.9207   -4.6975   22.3403 C   0  0  0  0  0  0
  -22.7944  -13.5271   21.1843 C   0  0  0  0  0  0
  -22.1663   -4.2160   21.0975 F   0  0  0  0  0  0
  -21.5605   -3.4548   25.7735 F   0  0  0  0  0  0
  -30.1082  -13.2289   20.2440 N   0  0  0  0  0  0
  -26.3254  -12.9439   20.3651 N   0  0  0  0  0  0
  -25.9491  -11.6593   20.6070 N   0  0  0  0  0  0
  -22.0583  -12.8221   22.0371 N   0  0  0  0  0  0
  -25.4379  -15.1918   20.4087 N   0  0  0  0  0  0
  -31.5453  -14.8702   20.9746 O   0  0  0  0  0  0
  -21.6668   -6.8904   21.4250 O   0  0  0  0  0  0
  -22.3629  -14.5577   20.6713 O   0  0  0  0  0  0
  -24.6098  -31.8702   23.2136 C   0  0  0  0  0  0
  -25.9011  -32.4848   23.8419 C   0  0  1  0  0  0
  -27.2461  -27.4819   20.0965 C   0  0  0  0  0  0
  -25.5886  -33.8642   24.2350 N   0  0  0  0  0  0
  -23.3969  -30.4932   21.5508 C   0  0  2  0  0  0
  -24.8496  -28.9619   20.1186 C   0  0  0  0  0  0
  -22.7395  -29.4660   22.4996 C   0  0  0  0  0  0
  -18.0269  -28.1375   22.8496 C   0  0  0  0  0  0
  -24.1482  -36.7318   23.2638 C   0  0  0  0  0  0
  -25.9206  -30.8532   21.3578 C   0  0  0  0  0  0
  -26.0044  -29.4879   20.7119 C   0  0  0  0  0  0
  -27.2086  -28.7547   20.6987 C   0  0  0  0  0  0
  -26.0806  -26.9557   19.5034 C   0  0  0  0  0  0
  -24.8802  -27.6922   19.5130 C   0  0  0  0  0  0
  -23.6058  -29.8212   20.1660 C   0  0  0  0  0  0
  -25.4095  -36.3127   24.0347 C   0  0  1  0  0  0
  -20.5859  -28.3643   23.1328 C   0  0  2  0  0  0
  -20.6757  -26.9381   22.5422 C   0  0  0  0  0  0
  -19.5745  -26.6384   21.5213 C   0  0  0  0  0  0
  -18.1918  -26.7935   22.1610 C   0  0  0  0  0  0
  -19.1523  -28.8824   23.2914 C   0  0  0  0  0  0
  -18.9454  -30.1435   23.8915 C   0  0  0  0  0  0
  -17.6461  -30.6586   24.0565 C   0  0  0  0  0  0
  -25.9013  -34.9488   23.5139 C   0  0  0  0  0  0
  -16.5343  -29.9095   23.6327 C   0  0  0  0  0  0
  -16.7263  -28.6510   23.0350 C   0  0  0  0  0  0
  -26.4462  -31.6614   25.0723 C   0  0  0  0  0  0
  -25.3755  -31.3721   26.1499 C   0  0  0  0  0  0
  -27.0275  -30.3067   24.6043 C   0  0  0  0  0  0
  -27.6051  -32.4321   25.7471 C   0  0  0  0  0  0
  -27.5587  -37.1799   24.8461 C   0  0  0  0  0  0
  -21.4123  -29.3044   22.3759 N   0  0  0  0  0  0
  -26.4287  -37.3809   23.9419 N   0  0  0  0  0  0
  -24.6606  -31.0851   22.1007 N   0  0  0  0  0  0
  -23.4201  -28.8198   23.3019 O   0  0  0  0  0  0
  -28.4113  -26.7643   20.0626 O   0  0  0  0  0  0
  -26.5582  -34.8930   22.4703 O   0  0  0  0  0  0
  -23.5302  -32.1422   23.7563 O   0  0  0  0  0  0
  -30.7796  -24.8562   21.6566 C   0  0  0  0  0  0
  -31.8464  -23.9563   21.4706 C   0  0  0  0  0  0
  -29.6330  -24.7972   20.8445 C   0  0  0  0  0  0
  -29.5388  -23.8107   19.8311 C   0  0  0  0  0  0
  -30.5909  -22.8693   19.6609 C   0  0  0  0  0  0
  -31.7676  -22.9660   20.4573 C   0  0  0  0  0  0
  -33.0640  -24.0860   22.3740 C   0  0  0  0  0  0
  -28.3021  -23.7918   18.9331 C   0  0  0  0  0  0
  -30.4397  -21.7682   18.6126 C   0  0  0  0  0  0
  -32.9644  -22.0487   20.2019 C   0  0  0  0  0  0
  -28.4999  -25.7867   21.0939 C   0  0  0  0  0  0
  -32.8854  -20.7000   20.9373 C   0  0  0  0  0  0
  -34.1159  -19.8412   20.6223 C   0  0  0  0  0  0
  -34.0538  -18.4276   21.2163 C   0  0  0  0  0  0
  -35.2740  -17.6040   20.7756 C   0  0  0  0  0  0
  -35.1552  -16.0980   21.0686 C   0  0  0  0  0  0
  -35.9929  -15.2700   20.0694 C   0  0  0  0  0  0
  -35.5609  -13.8005   19.8952 C   0  0  0  0  0  0
  -34.1022  -13.5737   19.4271 C   0  0  0  0  0  0
  -33.5590  -14.6004   18.3969 C   0  0  0  0  0  0
  -32.1009  -14.4019   17.9172 C   0  0  0  0  0  0
  -31.0557  -14.8077   18.8759 N   0  0  0  0  0  0
  -31.3836  -12.0005   19.0656 H   0  0  0  0  0  0
  -30.0889  -11.1722   19.8480 H   0  0  0  0  0  0
  -29.5584  -11.5208   17.4105 H   0  0  0  0  0  0
  -29.5998  -13.2390   17.5879 H   0  0  0  0  0  0
  -27.7116  -11.2768   18.8460 H   0  0  0  0  0  0
  -27.2876  -12.5915   17.7912 H   0  0  0  0  0  0
  -27.6890  -14.2410   19.4771 H   0  0  0  0  0  0
  -28.7396  -12.1866   21.4848 H   0  0  0  0  0  0
  -28.6936  -13.9323   21.6610 H   0  0  0  0  0  0
  -25.2785   -9.5659   22.4795 H   0  0  0  0  0  0
  -24.0000   -7.4653   22.7494 H   0  0  0  0  0  0
  -21.0893   -8.8846   19.8980 H   0  0  0  0  0  0
  -22.3775  -10.9719   19.6191 H   0  0  0  0  0  0
  -21.2033   -7.6167   23.9723 H   0  0  0  0  0  0
  -21.1469   -6.0531   25.9079 H   0  0  0  0  0  0
  -22.0591   -2.7621   23.2853 H   0  0  0  0  0  0
  -22.4184  -11.9854   22.4717 H   0  0  0  0  0  0
  -21.1220  -13.1257   22.2620 H   0  0  0  0  0  0
  -24.6759  -15.8513   20.5184 H   0  0  0  0  0  0
  -26.3055  -15.6310   20.1256 H   0  0  0  0  0  0
  -26.7088  -32.5579   23.1195 H   0  0  0  0  0  0
  -25.0069  -33.9813   25.0522 H   0  0  0  0  0  0
  -22.6827  -31.3073   21.4108 H   0  0  0  0  0  0
  -23.3759  -35.9637   23.3291 H   0  0  0  0  0  0
  -24.3590  -36.8943   22.2059 H   0  0  0  0  0  0
  -23.7215  -37.6512   23.6650 H   0  0  0  0  0  0
  -26.0230  -31.6201   20.5883 H   0  0  0  0  0  0
  -26.8125  -30.9134   21.9681 H   0  0  0  0  0  0
  -28.1054  -29.1635   21.1427 H   0  0  0  0  0  0
  -26.1030  -25.9821   19.0354 H   0  0  0  0  0  0
  -23.9933  -27.2804   19.0527 H   0  0  0  0  0  0
  -23.7087  -30.5951   19.4050 H   0  0  0  0  0  0
  -22.7332  -29.2370   19.8707 H   0  0  0  0  0  0
  -25.1268  -36.1994   25.0843 H   0  0  0  0  0  0
  -20.9940  -28.3200   24.1453 H   0  0  0  0  0  0
  -20.5658  -26.2245   23.3604 H   0  0  0  0  0  0
  -21.6622  -26.7442   22.1206 H   0  0  0  0  0  0
  -19.6903  -25.6309   21.1224 H   0  0  0  0  0  0
  -19.6691  -27.3205   20.6760 H   0  0  0  0  0  0
  -17.4191  -26.6702   21.4006 H   0  0  0  0  0  0
  -18.0296  -26.0065   22.8987 H   0  0  0  0  0  0
  -19.7928  -30.7245   24.2291 H   0  0  0  0  0  0
  -17.5019  -31.6273   24.5160 H   0  0  0  0  0  0
  -15.5347  -30.3007   23.7654 H   0  0  0  0  0  0
  -15.8653  -28.0841   22.7065 H   0  0  0  0  0  0
  -24.5919  -30.7061   25.7878 H   0  0  0  0  0  0
  -24.8955  -32.2882   26.4952 H   0  0  0  0  0  0
  -25.8141  -30.8915   27.0255 H   0  0  0  0  0  0
  -26.2790  -29.6841   24.1128 H   0  0  0  0  0  0
  -27.4130  -29.7284   25.4452 H   0  0  0  0  0  0
  -27.8587  -30.4425   23.9115 H   0  0  0  0  0  0
  -27.2683  -33.3612   26.2078 H   0  0  0  0  0  0
  -28.3841  -32.6899   25.0284 H   0  0  0  0  0  0
  -28.0734  -31.8431   26.5366 H   0  0  0  0  0  0
  -28.2592  -38.0114   24.7540 H   0  0  0  0  0  0
  -28.1098  -36.2649   24.6230 H   0  0  0  0  0  0
  -27.2314  -37.1379   25.8869 H   0  0  0  0  0  0
  -20.9268  -29.8791   21.7008 H   0  0  0  0  0  0
  -26.0185  -38.2885   24.1455 H   0  0  0  0  0  0
  -30.8458  -25.6127   22.4273 H   0  0  0  0  0  0
  -32.8630  -24.7208   23.2381 H   0  0  0  0  0  0
  -33.8978  -24.5244   21.8263 H   0  0  0  0  0  0
  -33.3805  -23.1154   22.7552 H   0  0  0  0  0  0
  -27.4251  -23.4687   19.4962 H   0  0  0  0  0  0
  -28.3921  -23.1542   18.0556 H   0  0  0  0  0  0
  -28.1117  -24.7907   18.5408 H   0  0  0  0  0  0
  -30.5271  -22.1904   17.6120 H   0  0  0  0  0  0
  -29.4629  -21.2920   18.7002 H   0  0  0  0  0  0
  -31.1602  -20.9597   18.6945 H   0  0  0  0  0  0
  -33.8902  -22.5559   20.4714 H   0  0  0  0  0  0
  -33.0730  -21.8918   19.1285 H   0  0  0  0  0  0
  -28.6548  -26.2902   22.0493 H   0  0  0  0  0  0
  -27.5672  -25.2295   21.1924 H   0  0  0  0  0  0
  -31.9813  -20.1650   20.6427 H   0  0  0  0  0  0
  -32.8074  -20.8544   22.0143 H   0  0  0  0  0  0
  -35.0146  -20.3494   20.9758 H   0  0  0  0  0  0
  -34.2191  -19.7636   19.5379 H   0  0  0  0  0  0
  -33.1405  -17.9414   20.8686 H   0  0  0  0  0  0
  -33.9877  -18.4684   22.3045 H   0  0  0  0  0  0
  -36.1888  -18.0047   21.2164 H   0  0  0  0  0  0
  -35.3811  -17.7455   19.6994 H   0  0  0  0  0  0
  -34.1073  -15.8083   21.0050 H   0  0  0  0  0  0
  -35.4555  -15.8822   22.0955 H   0  0  0  0  0  0
  -37.0430  -15.3191   20.3607 H   0  0  0  0  0  0
  -35.9567  -15.7261   19.0806 H   0  0  0  0  0  0
  -35.7240  -13.2610   20.8297 H   0  0  0  0  0  0
  -36.2359  -13.3402   19.1709 H   0  0  0  0  0  0
  -33.4886  -13.5490   20.3207 H   0  0  0  0  0  0
  -34.0189  -12.5689   19.0125 H   0  0  0  0  0  0
  -34.2096  -14.5751   17.5209 H   0  0  0  0  0  0
  -33.6354  -15.6124   18.7889 H   0  0  0  0  0  0
  -31.9558  -13.3915   17.5420 H   0  0  0  0  0  0
  -31.9523  -15.0364   17.0432 H   0  0  0  0  0  0
  -31.0313  -15.8169   18.9203 H   0  0  0  0  0  0
  1 25  1  0  0  0
  1 30  2  0  0  0
  1 92  1  0  0  0
  2  3  1  0  0  0
  2 25  1  0  0  0
  2 93  1  0  0  0
  2 94  1  0  0  0
  3  4  1  0  0  0
  3 95  1  0  0  0
  3 96  1  0  0  0
  4  5  1  0  0  0
  4 97  1  0  0  0
  4 98  1  0  0  0
  5  6  1  0  0  0
  5 26  1  0  0  0
  5 99  1  0  0  0
  6 25  1  0  0  0
  6100  1  0  0  0
  6101  1  0  0  0
  7  8  2  0  0  0
  7 26  1  0  0  0
  7 29  1  0  0  0
  8  9  1  0  0  0
  8 22  1  0  0  0
  9 10  1  0  0  0
  9 27  2  0  0  0
 10 11  2  0  0  0
 10 15  1  0  0  0
 11 12  1  0  0  0
 11102  1  0  0  0
 12 13  2  0  0  0
 12103  1  0  0  0
 13 14  1  0  0  0
 13 31  1  0  0  0
 14 15  2  0  0  0
 14104  1  0  0  0
 15105  1  0  0  0
 16 17  2  0  0  0
 16 21  1  0  0  0
 16 31  1  0  0  0
 17 18  1  0  0  0
 17106  1  0  0  0
 18 19  2  0  0  0
 18107  1  0  0  0
 19 20  1  0  0  0
 19 24  1  0  0  0
 20 21  2  0  0  0
 20108  1  0  0  0
 21 23  1  0  0  0
 22 28  1  0  0  0
 22 32  2  0  0  0
 26 27  1  0  0  0
 28109  1  0  0  0
 28110  1  0  0  0
 29111  1  0  0  0
 29112  1  0  0  0
 33 34  1  0  0  0
 33 66  1  0  0  0
 33 70  2  0  0  0
 34 36  1  0  0  0
 34 59  1  0  0  0
 34113  1  0  0  0
 35 44  2  0  0  0
 35 45  1  0  0  0
 35 68  1  0  0  0
 36 56  1  0  0  0
 36114  1  0  0  0
 37 39  1  0  0  0
 37 47  1  0  0  0
 37 66  1  0  0  0
 37115  1  0  0  0
 38 43  2  0  0  0
 38 46  1  0  0  0
 38 47  1  0  0  0
 39 64  1  0  0  0
 39 67  2  0  0  0
 40 52  1  0  0  0
 40 53  2  0  0  0
 40 58  1  0  0  0
 41116  1  0  0  0
 41117  1  0  0  0
 41118  1  0  0  0
 41 48  1  0  0  0
 42 43  1  0  0  0
 42 66  1  0  0  0
 42119  1  0  0  0
 42120  1  0  0  0
 43 44  1  0  0  0
 44121  1  0  0  0
 45 46  2  0  0  0
 45122  1  0  0  0
 46123  1  0  0  0
 47124  1  0  0  0
 47125  1  0  0  0
 48 56  1  0  0  0
 48 65  1  0  0  0
 48126  1  0  0  0
 49 50  1  0  0  0
 49 53  1  0  0  0
 49 64  1  0  0  0
 49127  1  0  0  0
 50 51  1  0  0  0
 50128  1  0  0  0
 50129  1  0  0  0
 51 52  1  0  0  0
 51130  1  0  0  0
 51131  1  0  0  0
 52132  1  0  0  0
 52133  1  0  0  0
 53 54  1  0  0  0
 54 55  2  0  0  0
 54134  1  0  0  0
 55 57  1  0  0  0
 55135  1  0  0  0
 56 69  2  0  0  0
 57 58  2  0  0  0
 57136  1  0  0  0
 58137  1  0  0  0
 59 60  1  0  0  0
 59 61  1  0  0  0
 59 62  1  0  0  0
 60138  1  0  0  0
 60139  1  0  0  0
 60140  1  0  0  0
 61141  1  0  0  0
 61142  1  0  0  0
 61143  1  0  0  0
 62144  1  0  0  0
 62145  1  0  0  0
 62146  1  0  0  0
 63 65  1  0  0  0
 63147  1  0  0  0
 63148  1  0  0  0
 63149  1  0  0  0
 64150  1  0  0  0
 65151  1  0  0  0
 68 81  1  0  0  0
 71 72  2  0  0  0
 71 73  1  0  0  0
 71152  1  0  0  0
 72 76  1  0  0  0
 72 77  1  0  0  0
 73 74  2  0  0  0
 73 81  1  0  0  0
 74 75  1  0  0  0
 74 78  1  0  0  0
 75 76  2  0  0  0
 75 79  1  0  0  0
 76 80  1  0  0  0
 77153  1  0  0  0
 77154  1  0  0  0
 77155  1  0  0  0
 78156  1  0  0  0
 78157  1  0  0  0
 78158  1  0  0  0
 79159  1  0  0  0
 79160  1  0  0  0
 79161  1  0  0  0
 80 82  1  0  0  0
 80162  1  0  0  0
 80163  1  0  0  0
 81164  1  0  0  0
 81165  1  0  0  0
 82 83  1  0  0  0
 82166  1  0  0  0
 82167  1  0  0  0
 83 84  1  0  0  0
 83168  1  0  0  0
 83169  1  0  0  0
 84 85  1  0  0  0
 84170  1  0  0  0
 84171  1  0  0  0
 85 86  1  0  0  0
 85172  1  0  0  0
 85173  1  0  0  0
 86 87  1  0  0  0
 86174  1  0  0  0
 86175  1  0  0  0
 87 88  1  0  0  0
 87176  1  0  0  0
 87177  1  0  0  0
 88 89  1  0  0  0
 88178  1  0  0  0
 88179  1  0  0  0
 89 90  1  0  0  0
 89180  1  0  0  0
 89181  1  0  0  0
 90 91  1  0  0  0
 90182  1  0  0  0
 90183  1  0  0  0
 91 92  1  0  0  0
 91184  1  0  0  0
 91185  1  0  0  0
 92186  1  0  0  0
M  ISO  4   1 100  68 101  81 101  92 100
M  END
> <chiral flag>
0

> <version>
0

> <s_m_source_file>
/data/baiqing/PycharmProjects/Reinvent-master-3.2/result/LINK_invent/BTK/process_docking_weight1_custom_sum_contain_oxygen_bond_distance_aromatic_linkinvent_7_9_3/rearranged_h_0034.sdf

> <i_m_source_file_index>
84

> <r_mmod_Potential_Energy-OPLS-2005>
281.156311035156

> <r_mmod_Stretch_Energy-OPLS-2005>
40.956672668457

> <r_mmod_Bend_Energy-OPLS-2005>
125.166786193848

> <r_mmod_Torsional_Energy-OPLS-2005>
363.451049804688

> <r_mmod_Improper_Torsional_Energy-OPLS-2005>
6.91986703872681

> <r_mmod_Van_der_Waal_Energy-OPLS-2005>
168.878204345703

> <r_mmod_Electrostatic_Energy-OPLS-2005>
-386.467132568359

> <r_mmod_Solvation_Energy-OPLS-2005>
-191.433349609375

> <b_mmod_Minimization_Converged-OPLS-2005>
0

> <r_mmod_RMS_Derivative-OPLS-2005>
2.94430065155029

$$$$
87
                    3D
 Structure written by MMmdl.
180189  0  0  1  0            999 V2000
  -30.6964  -14.4436   20.5694 C   0  0  0  0  0  0
  -30.4144  -12.2922   19.4055 C   0  0  0  0  0  0
  -29.4873  -12.5056   18.1924 C   0  0  0  0  0  0
  -28.0081  -12.3688   18.6039 C   0  0  0  0  0  0
  -27.6591  -13.2010   19.8683 C   0  0  2  0  0  0
  -28.6989  -12.9663   20.9865 C   0  0  0  0  0  0
  -25.2599  -13.8146   20.5644 C   0  0  0  0  0  0
  -24.1856  -13.0429   20.9174 C   0  0  0  0  0  0
  -24.6395  -11.6895   20.8712 C   0  0  0  0  0  0
  -23.9057  -10.4285   21.0364 C   0  0  0  0  0  0
  -24.3607   -9.4200   21.9137 C   0  0  0  0  0  0
  -23.6295   -8.2230   22.0725 C   0  0  0  0  0  0
  -22.4265   -8.0265   21.3533 C   0  0  0  0  0  0
  -21.9907   -9.0231   20.4629 C   0  0  0  0  0  0
  -22.7224  -10.2118   20.3016 C   0  0  0  0  0  0
  -21.6862   -6.0714   22.5263 C   0  0  0  0  0  0
  -21.4021   -6.5629   23.8194 C   0  0  0  0  0  0
  -21.3668   -5.6781   24.9158 C   0  0  0  0  0  0
  -21.6050   -4.3041   24.7210 C   0  0  0  0  0  0
  -21.8834   -3.8129   23.4335 C   0  0  0  0  0  0
  -21.9205   -4.6950   22.3389 C   0  0  0  0  0  0
  -22.7884  -13.5210   21.1860 C   0  0  0  0  0  0
  -22.1663   -4.2131   21.0965 F   0  0  0  0  0  0
  -21.5637   -3.4535   25.7731 F   0  0  0  0  0  0
  -30.0305  -13.2686   20.4355 N   0  0  0  0  0  0
  -26.3009  -12.9293   20.3317 N   0  0  0  0  0  0
  -25.9306  -11.6461   20.5714 N   0  0  0  0  0  0
  -22.0538  -12.8190   22.0427 N   0  0  0  0  0  0
  -25.4362  -15.1863   20.4030 N   0  0  0  0  0  0
  -31.8227  -14.6356   20.0991 O   0  0  0  0  0  0
  -21.6629   -6.8865   21.4223 O   0  0  0  0  0  0
  -22.3554  -14.5494   20.6690 O   0  0  0  0  0  0
  -24.6153  -31.8687   23.2115 C   0  0  0  0  0  0
  -25.9056  -32.4825   23.8402 C   0  0  1  0  0  0
  -27.2264  -27.4515   20.0792 C   0  0  0  0  0  0
  -25.5900  -33.8623   24.2331 N   0  0  0  0  0  0
  -23.4030  -30.4950   21.5510 C   0  0  2  0  0  0
  -24.8510  -28.9715   20.1051 C   0  0  0  0  0  0
  -22.7418  -29.4673   22.4971 C   0  0  0  0  0  0
  -18.0274  -28.1396   22.8492 C   0  0  0  0  0  0
  -24.1485  -36.7322   23.2640 C   0  0  0  0  0  0
  -25.9323  -30.8421   21.3616 C   0  0  0  0  0  0
  -26.0139  -29.4826   20.6980 C   0  0  0  0  0  0
  -27.2142  -28.7320   20.6823 C   0  0  0  0  0  0
  -26.0468  -26.9488   19.5008 C   0  0  0  0  0  0
  -24.8615  -27.7030   19.5015 C   0  0  0  0  0  0
  -23.6104  -29.8337   20.1629 C   0  0  0  0  0  0
  -25.4107  -36.3115   24.0338 C   0  0  1  0  0  0
  -20.5864  -28.3686   23.1315 C   0  0  2  0  0  0
  -20.6768  -26.9419   22.5423 C   0  0  0  0  0  0
  -19.5748  -26.6398   21.5217 C   0  0  0  0  0  0
  -18.1925  -26.7946   22.1625 C   0  0  0  0  0  0
  -19.1529  -28.8854   23.2900 C   0  0  0  0  0  0
  -18.9459  -30.1456   23.8918 C   0  0  0  0  0  0
  -17.6461  -30.6597   24.0577 C   0  0  0  0  0  0
  -25.9035  -34.9476   23.5129 C   0  0  0  0  0  0
  -16.5347  -29.9102   23.6331 C   0  0  0  0  0  0
  -16.7269  -28.6525   23.0342 C   0  0  0  0  0  0
  -26.4486  -31.6597   25.0721 C   0  0  0  0  0  0
  -25.3754  -31.3700   26.1468 C   0  0  0  0  0  0
  -27.0335  -30.3043   24.6087 C   0  0  0  0  0  0
  -27.6059  -32.4324   25.7477 C   0  0  0  0  0  0
  -27.5582  -37.1813   24.8460 C   0  0  0  0  0  0
  -21.4138  -29.3049   22.3716 N   0  0  0  0  0  0
  -26.4292  -37.3800   23.9405 N   0  0  0  0  0  0
  -24.6688  -31.0807   22.1002 N   0  0  0  0  0  0
  -23.4188  -28.8214   23.3011 O   0  0  0  0  0  0
  -28.2826  -26.5791   20.1242 O   0  0  0  0  0  0
  -26.5598  -34.8930   22.4690 O   0  0  0  0  0  0
  -23.5356  -32.1426   23.7513 O   0  0  0  0  0  0
  -31.2606  -26.3057   21.5534 C   0  0  0  0  0  0
  -32.2707  -25.4220   22.0120 C   0  0  0  0  0  0
  -30.6052  -26.0172   20.3217 C   0  0  0  0  0  0
  -32.6072  -24.3125   21.2069 C   0  0  0  0  0  0
  -30.9103  -24.7800   19.6870 C   0  0  0  0  0  0
  -30.8369  -27.4696   22.4532 C   0  0  0  0  0  0
  -32.9332  -25.6367   23.3742 C   0  0  0  0  0  0
  -30.0923  -26.9744   23.7044 C   0  0  0  0  0  0
  -31.9579  -25.3743   24.5355 C   0  0  0  0  0  0
  -31.0234  -26.5548   24.8531 C   0  0  0  0  0  0
  -33.6841  -23.3105   21.5804 C   0  0  0  0  0  0
  -29.5731  -26.9828   19.7305 C   0  0  0  0  0  0
  -30.0898  -24.1452   18.5501 C   0  0  0  0  0  0
  -29.2782  -22.8658   18.9415 C   0  0  0  0  0  0
  -30.1009  -21.6415   19.4261 C   0  0  0  0  0  0
  -29.3160  -20.3143   19.5866 C   0  0  0  0  0  0
  -30.1655  -19.2344   20.3015 C   0  0  0  0  0  0
  -29.5510  -17.8145   20.3703 C   0  0  0  0  0  0
  -30.4136  -16.8476   21.2219 C   0  0  0  0  0  0
  -31.9477  -24.0164   20.0782 N   0  0  0  0  0  0
  -29.9902  -15.4445   21.1218 N   0  0  0  0  0  0
  -31.4576  -12.3872   19.1032 H   0  0  0  0  0  0
  -30.3051  -11.2771   19.7918 H   0  0  0  0  0  0
  -29.7227  -11.7866   17.4066 H   0  0  0  0  0  0
  -29.6631  -13.4946   17.7651 H   0  0  0  0  0  0
  -27.8162  -11.3112   18.7901 H   0  0  0  0  0  0
  -27.3568  -12.6467   17.7738 H   0  0  0  0  0  0
  -27.7075  -14.2516   19.5794 H   0  0  0  0  0  0
  -28.6755  -11.9247   21.3145 H   0  0  0  0  0  0
  -28.4613  -13.5604   21.8690 H   0  0  0  0  0  0
  -25.2763   -9.5672   22.4706 H   0  0  0  0  0  0
  -24.0030   -7.4605   22.7423 H   0  0  0  0  0  0
  -21.0850   -8.8717   19.8934 H   0  0  0  0  0  0
  -22.3659  -10.9640   19.6115 H   0  0  0  0  0  0
  -21.1998   -7.6132   23.9693 H   0  0  0  0  0  0
  -21.1492   -6.0503   25.9067 H   0  0  0  0  0  0
  -22.0618   -2.7595   23.2820 H   0  0  0  0  0  0
  -22.4203  -11.9868   22.4796 H   0  0  0  0  0  0
  -21.1129  -13.1166   22.2621 H   0  0  0  0  0  0
  -24.6710  -15.8460   20.4903 H   0  0  0  0  0  0
  -26.2921  -15.6193   20.0773 H   0  0  0  0  0  0
  -26.7128  -32.5546   23.1175 H   0  0  0  0  0  0
  -25.0044  -33.9782   25.0471 H   0  0  0  0  0  0
  -22.6923  -31.3131   21.4145 H   0  0  0  0  0  0
  -23.3738  -35.9663   23.3311 H   0  0  0  0  0  0
  -24.3579  -36.8929   22.2053 H   0  0  0  0  0  0
  -23.7243  -37.6532   23.6651 H   0  0  0  0  0  0
  -26.0455  -31.6147   20.5997 H   0  0  0  0  0  0
  -26.8209  -30.8912   21.9799 H   0  0  0  0  0  0
  -28.1024  -29.1160   21.1624 H   0  0  0  0  0  0
  -26.0456  -25.9613   19.0602 H   0  0  0  0  0  0
  -23.9655  -27.2992   19.0499 H   0  0  0  0  0  0
  -23.7164  -30.6124   19.4070 H   0  0  0  0  0  0
  -22.7354  -29.2538   19.8652 H   0  0  0  0  0  0
  -25.1281  -36.1978   25.0832 H   0  0  0  0  0  0
  -20.9971  -28.3259   24.1430 H   0  0  0  0  0  0
  -20.5678  -26.2295   23.3612 H   0  0  0  0  0  0
  -21.6636  -26.7467   22.1207 H   0  0  0  0  0  0
  -19.6907  -25.6309   21.1243 H   0  0  0  0  0  0
  -19.6691  -27.3214   20.6752 H   0  0  0  0  0  0
  -17.4196  -26.6703   21.4018 H   0  0  0  0  0  0
  -18.0316  -26.0082   22.9015 H   0  0  0  0  0  0
  -19.7929  -30.7264   24.2296 H   0  0  0  0  0  0
  -17.5017  -31.6275   24.5182 H   0  0  0  0  0  0
  -15.5349  -30.3016   23.7647 H   0  0  0  0  0  0
  -15.8663  -28.0856   22.7039 H   0  0  0  0  0  0
  -24.5914  -30.7068   25.7794 H   0  0  0  0  0  0
  -24.8963  -32.2862   26.4936 H   0  0  0  0  0  0
  -25.8104  -30.8844   27.0213 H   0  0  0  0  0  0
  -26.2888  -29.6793   24.1150 H   0  0  0  0  0  0
  -27.4127  -29.7282   25.4536 H   0  0  0  0  0  0
  -27.8706  -30.4365   23.9231 H   0  0  0  0  0  0
  -27.2668  -33.3601   26.2101 H   0  0  0  0  0  0
  -28.3839  -32.6930   25.0289 H   0  0  0  0  0  0
  -28.0770  -31.8431   26.5353 H   0  0  0  0  0  0
  -28.2604  -38.0110   24.7506 H   0  0  0  0  0  0
  -28.1075  -36.2638   24.6279 H   0  0  0  0  0  0
  -27.2306  -37.1456   25.8869 H   0  0  0  0  0  0
  -20.9302  -29.8776   21.6937 H   0  0  0  0  0  0
  -26.0181  -38.2877   24.1413 H   0  0  0  0  0  0
  -30.1867  -28.1770   21.9530 H   0  0  0  0  0  0
  -31.7095  -28.0621   22.7283 H   0  0  0  0  0  0
  -33.3548  -26.6396   23.4398 H   0  0  0  0  0  0
  -33.7908  -24.9783   23.4979 H   0  0  0  0  0  0
  -29.4027  -26.1711   23.4402 H   0  0  0  0  0  0
  -29.4684  -27.7906   24.0717 H   0  0  0  0  0  0
  -32.5437  -25.1772   25.4341 H   0  0  0  0  0  0
  -31.3870  -24.4619   24.3535 H   0  0  0  0  0  0
  -30.4090  -26.2899   25.7150 H   0  0  0  0  0  0
  -31.6165  -27.4147   25.1666 H   0  0  0  0  0  0
  -33.4269  -22.8100   22.5141 H   0  0  0  0  0  0
  -34.6480  -23.8063   21.6958 H   0  0  0  0  0  0
  -33.8001  -22.5431   20.8134 H   0  0  0  0  0  0
  -29.6314  -26.9527   18.6434 H   0  0  0  0  0  0
  -29.7901  -28.0236   19.9591 H   0  0  0  0  0  0
  -30.7629  -23.9118   17.7245 H   0  0  0  0  0  0
  -29.3836  -24.8632   18.1385 H   0  0  0  0  0  0
  -28.6912  -22.5607   18.0732 H   0  0  0  0  0  0
  -28.5527  -23.1306   19.7113 H   0  0  0  0  0  0
  -30.5454  -21.8814   20.3914 H   0  0  0  0  0  0
  -30.9335  -21.4814   18.7397 H   0  0  0  0  0  0
  -29.0068  -19.9514   18.6046 H   0  0  0  0  0  0
  -28.3996  -20.4922   20.1519 H   0  0  0  0  0  0
  -30.3766  -19.5747   21.3143 H   0  0  0  0  0  0
  -31.1361  -19.1680   19.8070 H   0  0  0  0  0  0
  -29.4521  -17.4262   19.3560 H   0  0  0  0  0  0
  -28.5419  -17.8641   20.7830 H   0  0  0  0  0  0
  -30.3574  -17.1364   22.2723 H   0  0  0  0  0  0
  -31.4649  -16.9576   20.9443 H   0  0  0  0  0  0
  -29.0747  -15.2066   21.4764 H   0  0  0  0  0  0
  1 25  1  0  0  0
  1 30  2  0  0  0
  1 91  1  0  0  0
  2  3  1  0  0  0
  2 25  1  0  0  0
  2 92  1  0  0  0
  2 93  1  0  0  0
  3  4  1  0  0  0
  3 94  1  0  0  0
  3 95  1  0  0  0
  4  5  1  0  0  0
  4 96  1  0  0  0
  4 97  1  0  0  0
  5  6  1  0  0  0
  5 26  1  0  0  0
  5 98  1  0  0  0
  6 25  1  0  0  0
  6 99  1  0  0  0
  6100  1  0  0  0
  7  8  2  0  0  0
  7 26  1  0  0  0
  7 29  1  0  0  0
  8  9  1  0  0  0
  8 22  1  0  0  0
  9 10  1  0  0  0
  9 27  2  0  0  0
 10 11  2  0  0  0
 10 15  1  0  0  0
 11 12  1  0  0  0
 11101  1  0  0  0
 12 13  2  0  0  0
 12102  1  0  0  0
 13 14  1  0  0  0
 13 31  1  0  0  0
 14 15  2  0  0  0
 14103  1  0  0  0
 15104  1  0  0  0
 16 17  2  0  0  0
 16 21  1  0  0  0
 16 31  1  0  0  0
 17 18  1  0  0  0
 17105  1  0  0  0
 18 19  2  0  0  0
 18106  1  0  0  0
 19 20  1  0  0  0
 19 24  1  0  0  0
 20 21  2  0  0  0
 20107  1  0  0  0
 21 23  1  0  0  0
 22 28  1  0  0  0
 22 32  2  0  0  0
 26 27  1  0  0  0
 28108  1  0  0  0
 28109  1  0  0  0
 29110  1  0  0  0
 29111  1  0  0  0
 33 34  1  0  0  0
 33 66  1  0  0  0
 33 70  2  0  0  0
 34 36  1  0  0  0
 34 59  1  0  0  0
 34112  1  0  0  0
 35 44  2  0  0  0
 35 45  1  0  0  0
 35 68  1  0  0  0
 36 56  1  0  0  0
 36113  1  0  0  0
 37 39  1  0  0  0
 37 47  1  0  0  0
 37 66  1  0  0  0
 37114  1  0  0  0
 38 43  2  0  0  0
 38 46  1  0  0  0
 38 47  1  0  0  0
 39 64  1  0  0  0
 39 67  2  0  0  0
 40 52  1  0  0  0
 40 53  2  0  0  0
 40 58  1  0  0  0
 41115  1  0  0  0
 41116  1  0  0  0
 41117  1  0  0  0
 41 48  1  0  0  0
 42 43  1  0  0  0
 42 66  1  0  0  0
 42118  1  0  0  0
 42119  1  0  0  0
 43 44  1  0  0  0
 44120  1  0  0  0
 45 46  2  0  0  0
 45121  1  0  0  0
 46122  1  0  0  0
 47123  1  0  0  0
 47124  1  0  0  0
 48 56  1  0  0  0
 48 65  1  0  0  0
 48125  1  0  0  0
 49 50  1  0  0  0
 49 53  1  0  0  0
 49 64  1  0  0  0
 49126  1  0  0  0
 50 51  1  0  0  0
 50127  1  0  0  0
 50128  1  0  0  0
 51 52  1  0  0  0
 51129  1  0  0  0
 51130  1  0  0  0
 52131  1  0  0  0
 52132  1  0  0  0
 53 54  1  0  0  0
 54 55  2  0  0  0
 54133  1  0  0  0
 55 57  1  0  0  0
 55134  1  0  0  0
 56 69  2  0  0  0
 57 58  2  0  0  0
 57135  1  0  0  0
 58136  1  0  0  0
 59 60  1  0  0  0
 59 61  1  0  0  0
 59 62  1  0  0  0
 60137  1  0  0  0
 60138  1  0  0  0
 60139  1  0  0  0
 61140  1  0  0  0
 61141  1  0  0  0
 61142  1  0  0  0
 62143  1  0  0  0
 62144  1  0  0  0
 62145  1  0  0  0
 63 65  1  0  0  0
 63146  1  0  0  0
 63147  1  0  0  0
 63148  1  0  0  0
 64149  1  0  0  0
 65150  1  0  0  0
 68 82  1  0  0  0
 71 72  1  0  0  0
 71 73  2  0  0  0
 71 76  1  0  0  0
 72 74  2  0  0  0
 72 77  1  0  0  0
 73 75  1  0  0  0
 73 82  1  0  0  0
 74 81  1  0  0  0
 74 90  1  0  0  0
 75 83  1  0  0  0
 75 90  2  0  0  0
 76 78  1  0  0  0
 76151  1  0  0  0
 76152  1  0  0  0
 77 79  1  0  0  0
 77153  1  0  0  0
 77154  1  0  0  0
 78 80  1  0  0  0
 78155  1  0  0  0
 78156  1  0  0  0
 79 80  1  0  0  0
 79157  1  0  0  0
 79158  1  0  0  0
 80159  1  0  0  0
 80160  1  0  0  0
 81161  1  0  0  0
 81162  1  0  0  0
 81163  1  0  0  0
 82164  1  0  0  0
 82165  1  0  0  0
 83 84  1  0  0  0
 83166  1  0  0  0
 83167  1  0  0  0
 84 85  1  0  0  0
 84168  1  0  0  0
 84169  1  0  0  0
 85 86  1  0  0  0
 85170  1  0  0  0
 85171  1  0  0  0
 86 87  1  0  0  0
 86172  1  0  0  0
 86173  1  0  0  0
 87 88  1  0  0  0
 87174  1  0  0  0
 87175  1  0  0  0
 88 89  1  0  0  0
 88176  1  0  0  0
 88177  1  0  0  0
 89 91  1  0  0  0
 89178  1  0  0  0
 89179  1  0  0  0
 91180  1  0  0  0
M  ISO  4   1 100  68 101  82 101  91 100
M  END
> <chiral flag>
0

> <version>
0

> <s_m_source_file>
/data/baiqing/PycharmProjects/Reinvent-master-3.2/result/LINK_invent/BTK/process_docking_weight1_custom_sum_contain_oxygen_bond_distance_aromatic_linkinvent_7_9_3/rearranged_h_0034.sdf

> <i_m_source_file_index>
85

> <r_mmod_Potential_Energy-OPLS-2005>
-139.642288208008

> <r_mmod_Stretch_Energy-OPLS-2005>
40.0493240356445

> <r_mmod_Bend_Energy-OPLS-2005>
117.336502075195

> <r_mmod_Torsional_Energy-OPLS-2005>
244.388687133789

> <r_mmod_Improper_Torsional_Energy-OPLS-2005>
4.33004426956177

> <r_mmod_Van_der_Waal_Energy-OPLS-2005>
155.404571533203

> <r_mmod_Electrostatic_Energy-OPLS-2005>
-498.358245849609

> <r_mmod_Solvation_Energy-OPLS-2005>
-218.208602905273

> <b_mmod_Minimization_Converged-OPLS-2005>
0

> <r_mmod_RMS_Derivative-OPLS-2005>
2.81410503387451

$$$$
88
                    3D
 Structure written by MMmdl.
167175  0  0  1  0            999 V2000
  -30.7370  -14.4580   20.5619 C   0  0  0  0  0  0
  -30.3993  -12.2986   19.4185 C   0  0  0  0  0  0
  -29.4815  -12.4964   18.1970 C   0  0  0  0  0  0
  -28.0030  -12.3432   18.6075 C   0  0  0  0  0  0
  -27.6462  -13.1877   19.8574 C   0  0  2  0  0  0
  -28.6960  -13.0153   20.9818 C   0  0  0  0  0  0
  -25.2563  -13.8072   20.5677 C   0  0  0  0  0  0
  -24.1826  -13.0377   20.9217 C   0  0  0  0  0  0
  -24.6379  -11.6847   20.8770 C   0  0  0  0  0  0
  -23.9053  -10.4253   21.0394 C   0  0  0  0  0  0
  -24.3601   -9.4182   21.9167 C   0  0  0  0  0  0
  -23.6276   -8.2217   22.0734 C   0  0  0  0  0  0
  -22.4261   -8.0271   21.3541 C   0  0  0  0  0  0
  -21.9902   -9.0239   20.4640 C   0  0  0  0  0  0
  -22.7219  -10.2107   20.3044 C   0  0  0  0  0  0
  -21.6835   -6.0734   22.5272 C   0  0  0  0  0  0
  -21.3985   -6.5631   23.8212 C   0  0  0  0  0  0
  -21.3649   -5.6776   24.9173 C   0  0  0  0  0  0
  -21.6054   -4.3045   24.7213 C   0  0  0  0  0  0
  -21.8826   -3.8145   23.4327 C   0  0  0  0  0  0
  -21.9183   -4.6958   22.3395 C   0  0  0  0  0  0
  -22.7844  -13.5186   21.1853 C   0  0  0  0  0  0
  -22.1651   -4.2160   21.0964 F   0  0  0  0  0  0
  -21.5646   -3.4541   25.7721 F   0  0  0  0  0  0
  -30.0236  -13.3062   20.4180 N   0  0  0  0  0  0
  -26.2954  -12.9216   20.3337 N   0  0  0  0  0  0
  -25.9292  -11.6393   20.5795 N   0  0  0  0  0  0
  -22.0487  -12.8190   22.0440 N   0  0  0  0  0  0
  -25.4293  -15.1771   20.3941 N   0  0  0  0  0  0
  -31.8801  -14.5987   20.1360 O   0  0  0  0  0  0
  -21.6611   -6.8875   21.4243 O   0  0  0  0  0  0
  -22.3522  -14.5489   20.6689 O   0  0  0  0  0  0
  -24.6129  -31.8693   23.2104 C   0  0  0  0  0  0
  -25.9019  -32.4823   23.8397 C   0  0  1  0  0  0
  -27.2226  -27.4483   20.1027 C   0  0  0  0  0  0
  -25.5884  -33.8626   24.2329 N   0  0  0  0  0  0
  -23.3981  -30.4931   21.5512 C   0  0  2  0  0  0
  -24.8401  -28.9573   20.1149 C   0  0  0  0  0  0
  -22.7382  -29.4685   22.5003 C   0  0  0  0  0  0
  -18.0294  -28.1349   22.8504 C   0  0  0  0  0  0
  -24.1478  -36.7325   23.2636 C   0  0  0  0  0  0
  -25.9240  -30.8404   21.3564 C   0  0  0  0  0  0
  -25.9991  -29.4746   20.7087 C   0  0  0  0  0  0
  -27.1960  -28.7296   20.6923 C   0  0  0  0  0  0
  -26.0505  -26.9383   19.5032 C   0  0  0  0  0  0
  -24.8608  -27.6891   19.5092 C   0  0  0  0  0  0
  -23.6038  -29.8238   20.1660 C   0  0  0  0  0  0
  -25.4099  -36.3119   24.0333 C   0  0  1  0  0  0
  -20.5863  -28.3690   23.1349 C   0  0  2  0  0  0
  -20.6824  -26.9410   22.5489 C   0  0  0  0  0  0
  -19.5797  -26.6314   21.5299 C   0  0  0  0  0  0
  -18.1967  -26.7861   22.1682 C   0  0  0  0  0  0
  -19.1513  -28.8845   23.2895 C   0  0  0  0  0  0
  -18.9422  -30.1468   23.8845 C   0  0  0  0  0  0
  -17.6419  -30.6593   24.0489 C   0  0  0  0  0  0
  -25.9026  -34.9474   23.5126 C   0  0  0  0  0  0
  -16.5323  -29.9050   23.6286 C   0  0  0  0  0  0
  -16.7266  -28.6442   23.0336 C   0  0  0  0  0  0
  -26.4452  -31.6602   25.0725 C   0  0  0  0  0  0
  -25.3737  -31.3708   26.1495 C   0  0  0  0  0  0
  -27.0271  -30.3055   24.6064 C   0  0  0  0  0  0
  -27.6029  -32.4325   25.7484 C   0  0  0  0  0  0
  -27.5574  -37.1818   24.8465 C   0  0  0  0  0  0
  -21.4111  -29.3056   22.3753 N   0  0  0  0  0  0
  -26.4291  -37.3803   23.9401 N   0  0  0  0  0  0
  -24.6639  -31.0800   22.0983 N   0  0  0  0  0  0
  -23.4172  -28.8217   23.3029 O   0  0  0  0  0  0
  -28.3928  -26.7285   20.1183 O   0  0  0  0  0  0
  -26.5593  -34.8926   22.4691 O   0  0  0  0  0  0
  -23.5326  -32.1425   23.7528 O   0  0  0  0  0  0
  -26.9148  -20.5807   23.3994 C   0  0  0  0  0  0
  -26.4427  -20.8940   22.1125 C   0  0  0  0  0  0
  -26.2632  -22.2679   21.7794 C   0  0  0  0  0  0
  -26.6526  -23.2435   22.7406 C   0  0  0  0  0  0
  -27.2442  -21.6104   24.2840 C   0  0  0  0  0  0
  -25.6444  -22.6625   20.4362 C   0  0  0  0  0  0
  -26.1269  -19.7582   21.1336 C   0  0  0  0  0  0
  -26.6049  -24.7569   22.5180 C   0  0  0  0  0  0
  -26.9824  -18.4693   21.2488 C   0  0  0  0  0  0
  -27.9779  -25.3544   22.1372 C   0  0  0  0  0  0
  -28.5204  -18.6491   21.3013 C   0  0  0  0  0  0
  -29.3113  -17.7681   20.3122 C   0  0  0  0  0  0
  -29.0723  -16.2440   20.4196 C   0  0  0  0  0  0
  -28.3107  -25.3919   20.6261 C   0  0  0  0  0  0
  -27.1324  -22.9089   23.9561 N   0  0  0  0  0  0
  -30.1222  -15.5092   21.1296 N   0  0  0  0  0  0
  -27.8380  -21.2139   25.8530 Cl  0  0  0  0  0  0
  -31.4480  -12.3721   19.1290 H   0  0  0  0  0  0
  -30.2684  -11.2969   19.8278 H   0  0  0  0  0  0
  -29.7240  -11.7692   17.4205 H   0  0  0  0  0  0
  -29.6465  -13.4848   17.7670 H   0  0  0  0  0  0
  -27.8269  -11.2868   18.8086 H   0  0  0  0  0  0
  -27.3506  -12.6152   17.7767 H   0  0  0  0  0  0
  -27.6536  -14.2145   19.5102 H   0  0  0  0  0  0
  -28.6764  -11.9945   21.3660 H   0  0  0  0  0  0
  -28.4641  -13.6583   21.8320 H   0  0  0  0  0  0
  -25.2753   -9.5621   22.4757 H   0  0  0  0  0  0
  -23.9976   -7.4597   22.7449 H   0  0  0  0  0  0
  -21.0834   -8.8742   19.8973 H   0  0  0  0  0  0
  -22.3679  -10.9636   19.6151 H   0  0  0  0  0  0
  -21.1965   -7.6147   23.9705 H   0  0  0  0  0  0
  -21.1463   -6.0519   25.9072 H   0  0  0  0  0  0
  -22.0619   -2.7622   23.2814 H   0  0  0  0  0  0
  -22.4001  -11.9831   22.4888 H   0  0  0  0  0  0
  -21.1119  -13.1228   22.2645 H   0  0  0  0  0  0
  -24.6584  -15.8317   20.4702 H   0  0  0  0  0  0
  -26.2804  -15.6022   20.0499 H   0  0  0  0  0  0
  -26.7096  -32.5540   23.1168 H   0  0  0  0  0  0
  -25.0038  -33.9786   25.0475 H   0  0  0  0  0  0
  -22.6874  -31.3104   21.4140 H   0  0  0  0  0  0
  -23.3732  -35.9673   23.3323 H   0  0  0  0  0  0
  -24.3570  -36.8925   22.2052 H   0  0  0  0  0  0
  -23.7251  -37.6540   23.6640 H   0  0  0  0  0  0
  -26.0260  -31.6019   20.5815 H   0  0  0  0  0  0
  -26.8173  -30.9005   21.9672 H   0  0  0  0  0  0
  -28.0942  -29.1198   21.1490 H   0  0  0  0  0  0
  -26.0504  -25.9701   19.0223 H   0  0  0  0  0  0
  -23.9666  -27.2909   19.0478 H   0  0  0  0  0  0
  -23.7123  -30.5965   19.4051 H   0  0  0  0  0  0
  -22.7270  -29.2441   19.8740 H   0  0  0  0  0  0
  -25.1278  -36.1985   25.0831 H   0  0  0  0  0  0
  -20.9926  -28.3315   24.1484 H   0  0  0  0  0  0
  -20.5780  -26.2313   23.3721 H   0  0  0  0  0  0
  -21.6715  -26.7498   22.1295 H   0  0  0  0  0  0
  -19.7004  -25.6204   21.1398 H   0  0  0  0  0  0
  -19.6742  -27.3084   20.6792 H   0  0  0  0  0  0
  -17.4278  -26.6560   21.4064 H   0  0  0  0  0  0
  -18.0365  -26.0020   22.9094 H   0  0  0  0  0  0
  -19.7889  -30.7330   24.2158 H   0  0  0  0  0  0
  -17.4945  -31.6300   24.5021 H   0  0  0  0  0  0
  -15.5316  -30.2939   23.7582 H   0  0  0  0  0  0
  -15.8663  -28.0756   22.7079 H   0  0  0  0  0  0
  -24.5889  -30.7064   25.7860 H   0  0  0  0  0  0
  -24.8941  -32.2864   26.4970 H   0  0  0  0  0  0
  -25.8109  -30.8874   27.0239 H   0  0  0  0  0  0
  -26.2810  -29.6844   24.1098 H   0  0  0  0  0  0
  -27.4046  -29.7260   25.4496 H   0  0  0  0  0  0
  -27.8632  -30.4399   23.9199 H   0  0  0  0  0  0
  -27.2633  -33.3603   26.2099 H   0  0  0  0  0  0
  -28.3807  -32.6928   25.0294 H   0  0  0  0  0  0
  -28.0723  -31.8433   26.5370 H   0  0  0  0  0  0
  -28.2605  -38.0101   24.7488 H   0  0  0  0  0  0
  -28.1050  -36.2630   24.6310 H   0  0  0  0  0  0
  -27.2284  -37.1502   25.8867 H   0  0  0  0  0  0
  -20.9258  -29.8772   21.6981 H   0  0  0  0  0  0
  -26.0176  -38.2877   24.1420 H   0  0  0  0  0  0
  -27.0433  -19.5541   23.7112 H   0  0  0  0  0  0
  -26.1686  -22.2049   19.5979 H   0  0  0  0  0  0
  -25.6546  -23.7314   20.2403 H   0  0  0  0  0  0
  -24.5989  -22.3507   20.4026 H   0  0  0  0  0  0
  -26.2467  -20.1115   20.1127 H   0  0  0  0  0  0
  -25.0696  -19.5034   21.2389 H   0  0  0  0  0  0
  -26.3164  -25.1986   23.4732 H   0  0  0  0  0  0
  -25.8119  -25.0740   21.8443 H   0  0  0  0  0  0
  -26.7193  -17.8422   20.3988 H   0  0  0  0  0  0
  -26.6676  -17.9000   22.1268 H   0  0  0  0  0  0
  -28.7594  -24.8124   22.6685 H   0  0  0  0  0  0
  -28.0364  -26.3707   22.5262 H   0  0  0  0  0  0
  -28.8757  -18.4666   22.3151 H   0  0  0  0  0  0
  -28.7718  -19.6881   21.0869 H   0  0  0  0  0  0
  -29.0400  -18.0810   19.3008 H   0  0  0  0  0  0
  -30.3748  -17.9981   20.3994 H   0  0  0  0  0  0
  -28.9947  -15.8711   19.3964 H   0  0  0  0  0  0
  -28.1268  -16.0305   20.9109 H   0  0  0  0  0  0
  -27.6485  -24.7650   20.0311 H   0  0  0  0  0  0
  -29.3016  -24.9572   20.4893 H   0  0  0  0  0  0
  -30.7872  -16.1435   21.5477 H   0  0  0  0  0  0
  1 25  1  0  0  0
  1 30  2  0  0  0
  1 86  1  0  0  0
  2  3  1  0  0  0
  2 25  1  0  0  0
  2 88  1  0  0  0
  2 89  1  0  0  0
  3  4  1  0  0  0
  3 90  1  0  0  0
  3 91  1  0  0  0
  4  5  1  0  0  0
  4 92  1  0  0  0
  4 93  1  0  0  0
  5  6  1  0  0  0
  5 26  1  0  0  0
  5 94  1  0  0  0
  6 25  1  0  0  0
  6 95  1  0  0  0
  6 96  1  0  0  0
  7  8  2  0  0  0
  7 26  1  0  0  0
  7 29  1  0  0  0
  8  9  1  0  0  0
  8 22  1  0  0  0
  9 10  1  0  0  0
  9 27  2  0  0  0
 10 11  2  0  0  0
 10 15  1  0  0  0
 11 12  1  0  0  0
 11 97  1  0  0  0
 12 13  2  0  0  0
 12 98  1  0  0  0
 13 14  1  0  0  0
 13 31  1  0  0  0
 14 15  2  0  0  0
 14 99  1  0  0  0
 15100  1  0  0  0
 16 17  2  0  0  0
 16 21  1  0  0  0
 16 31  1  0  0  0
 17 18  1  0  0  0
 17101  1  0  0  0
 18 19  2  0  0  0
 18102  1  0  0  0
 19 20  1  0  0  0
 19 24  1  0  0  0
 20 21  2  0  0  0
 20103  1  0  0  0
 21 23  1  0  0  0
 22 28  1  0  0  0
 22 32  2  0  0  0
 26 27  1  0  0  0
 28104  1  0  0  0
 28105  1  0  0  0
 29106  1  0  0  0
 29107  1  0  0  0
 33 34  1  0  0  0
 33 66  1  0  0  0
 33 70  2  0  0  0
 34 36  1  0  0  0
 34 59  1  0  0  0
 34108  1  0  0  0
 35 44  2  0  0  0
 35 45  1  0  0  0
 35 68  1  0  0  0
 36 56  1  0  0  0
 36109  1  0  0  0
 37 39  1  0  0  0
 37 47  1  0  0  0
 37 66  1  0  0  0
 37110  1  0  0  0
 38 43  2  0  0  0
 38 46  1  0  0  0
 38 47  1  0  0  0
 39 64  1  0  0  0
 39 67  2  0  0  0
 40 52  1  0  0  0
 40 53  2  0  0  0
 40 58  1  0  0  0
 41111  1  0  0  0
 41112  1  0  0  0
 41113  1  0  0  0
 41 48  1  0  0  0
 42 43  1  0  0  0
 42 66  1  0  0  0
 42114  1  0  0  0
 42115  1  0  0  0
 43 44  1  0  0  0
 44116  1  0  0  0
 45 46  2  0  0  0
 45117  1  0  0  0
 46118  1  0  0  0
 47119  1  0  0  0
 47120  1  0  0  0
 48 56  1  0  0  0
 48 65  1  0  0  0
 48121  1  0  0  0
 49 50  1  0  0  0
 49 53  1  0  0  0
 49 64  1  0  0  0
 49122  1  0  0  0
 50 51  1  0  0  0
 50123  1  0  0  0
 50124  1  0  0  0
 51 52  1  0  0  0
 51125  1  0  0  0
 51126  1  0  0  0
 52127  1  0  0  0
 52128  1  0  0  0
 53 54  1  0  0  0
 54 55  2  0  0  0
 54129  1  0  0  0
 55 57  1  0  0  0
 55130  1  0  0  0
 56 69  2  0  0  0
 57 58  2  0  0  0
 57131  1  0  0  0
 58132  1  0  0  0
 59 60  1  0  0  0
 59 61  1  0  0  0
 59 62  1  0  0  0
 60133  1  0  0  0
 60134  1  0  0  0
 60135  1  0  0  0
 61136  1  0  0  0
 61137  1  0  0  0
 61138  1  0  0  0
 62139  1  0  0  0
 62140  1  0  0  0
 62141  1  0  0  0
 63 65  1  0  0  0
 63142  1  0  0  0
 63143  1  0  0  0
 63144  1  0  0  0
 64145  1  0  0  0
 65146  1  0  0  0
 68 84  1  0  0  0
 71 72  2  0  0  0
 71 75  1  0  0  0
 71147  1  0  0  0
 72 73  1  0  0  0
 72 77  1  0  0  0
 73 74  2  0  0  0
 73 76  1  0  0  0
 74 78  1  0  0  0
 74 85  1  0  0  0
 75 85  2  0  0  0
 75 87  1  0  0  0
 76148  1  0  0  0
 76149  1  0  0  0
 76150  1  0  0  0
 77 79  1  0  0  0
 77151  1  0  0  0
 77152  1  0  0  0
 78 80  1  0  0  0
 78153  1  0  0  0
 78154  1  0  0  0
 79 81  1  0  0  0
 79155  1  0  0  0
 79156  1  0  0  0
 80 84  1  0  0  0
 80157  1  0  0  0
 80158  1  0  0  0
 81 82  1  0  0  0
 81159  1  0  0  0
 81160  1  0  0  0
 82 83  1  0  0  0
 82161  1  0  0  0
 82162  1  0  0  0
 83 86  1  0  0  0
 83163  1  0  0  0
 83164  1  0  0  0
 84165  1  0  0  0
 84166  1  0  0  0
 86167  1  0  0  0
M  ISO  4   1 100  68 101  84 101  86 100
M  END
> <chiral flag>
0

> <version>
0

> <s_m_source_file>
/data/baiqing/PycharmProjects/Reinvent-master-3.2/result/LINK_invent/BTK/process_docking_weight1_custom_sum_contain_oxygen_bond_distance_aromatic_linkinvent_7_9_3/rearranged_h_0034.sdf

> <i_m_source_file_index>
86

> <r_mmod_Potential_Energy-OPLS-2005>
-146.765838623047

> <r_mmod_Stretch_Energy-OPLS-2005>
36.0665016174316

> <r_mmod_Bend_Energy-OPLS-2005>
116.486099243164

> <r_mmod_Torsional_Energy-OPLS-2005>
304.966217041016

> <r_mmod_Improper_Torsional_Energy-OPLS-2005>
6.75283813476562

> <r_mmod_Van_der_Waal_Energy-OPLS-2005>
151.381057739258

> <r_mmod_Electrostatic_Energy-OPLS-2005>
-568.542541503906

> <r_mmod_Solvation_Energy-OPLS-2005>
-208.553604125977

> <b_mmod_Minimization_Converged-OPLS-2005>
0

> <r_mmod_RMS_Derivative-OPLS-2005>
4.49925565719604

$$$$
89
                    3D
 Structure written by MMmdl.
156164  0  0  1  0            999 V2000
  -30.7070  -14.5807   20.5090 C   0  0  0  0  0  0
  -30.4136  -12.3627   19.4489 C   0  0  0  0  0  0
  -29.4950  -12.4937   18.2176 C   0  0  0  0  0  0
  -28.0187  -12.3484   18.6322 C   0  0  0  0  0  0
  -27.6487  -13.2263   19.8585 C   0  0  2  0  0  0
  -28.6954  -13.1074   20.9886 C   0  0  0  0  0  0
  -25.2536  -13.8204   20.5700 C   0  0  0  0  0  0
  -24.1818  -13.0450   20.9203 C   0  0  0  0  0  0
  -24.6398  -11.6924   20.8750 C   0  0  0  0  0  0
  -23.9073  -10.4298   21.0406 C   0  0  0  0  0  0
  -24.3621   -9.4211   21.9183 C   0  0  0  0  0  0
  -23.6294   -8.2247   22.0752 C   0  0  0  0  0  0
  -22.4278   -8.0284   21.3541 C   0  0  0  0  0  0
  -21.9916   -9.0258   20.4644 C   0  0  0  0  0  0
  -22.7245  -10.2139   20.3053 C   0  0  0  0  0  0
  -21.6855   -6.0737   22.5276 C   0  0  0  0  0  0
  -21.4017   -6.5642   23.8208 C   0  0  0  0  0  0
  -21.3661   -5.6793   24.9172 C   0  0  0  0  0  0
  -21.6044   -4.3055   24.7224 C   0  0  0  0  0  0
  -21.8819   -3.8148   23.4343 C   0  0  0  0  0  0
  -21.9194   -4.6966   22.3398 C   0  0  0  0  0  0
  -22.7837  -13.5232   21.1862 C   0  0  0  0  0  0
  -22.1663   -4.2152   21.0974 F   0  0  0  0  0  0
  -21.5630   -3.4537   25.7736 F   0  0  0  0  0  0
  -30.0105  -13.4082   20.4094 N   0  0  0  0  0  0
  -26.2972  -12.9407   20.3330 N   0  0  0  0  0  0
  -25.9331  -11.6551   20.5772 N   0  0  0  0  0  0
  -22.0483  -12.8214   22.0412 N   0  0  0  0  0  0
  -25.4235  -15.1926   20.4105 N   0  0  0  0  0  0
  -31.8805  -14.6522   20.1414 O   0  0  0  0  0  0
  -21.6643   -6.8879   21.4235 O   0  0  0  0  0  0
  -22.3519  -14.5536   20.6712 O   0  0  0  0  0  0
  -24.6248  -31.8635   23.2077 C   0  0  0  0  0  0
  -25.9108  -32.4792   23.8387 C   0  0  1  0  0  0
  -27.2139  -27.3422   20.0950 C   0  0  0  0  0  0
  -25.5936  -33.8589   24.2303 N   0  0  0  0  0  0
  -23.4156  -30.4916   21.5517 C   0  0  2  0  0  0
  -24.8572  -28.9596   20.1095 C   0  0  0  0  0  0
  -22.7466  -29.4643   22.4956 C   0  0  0  0  0  0
  -18.0282  -28.1371   22.8480 C   0  0  0  0  0  0
  -24.1491  -36.7298   23.2640 C   0  0  0  0  0  0
  -25.9581  -30.7979   21.3802 C   0  0  0  0  0  0
  -26.0290  -29.4307   20.7160 C   0  0  0  0  0  0
  -27.2100  -28.6319   20.7060 C   0  0  0  0  0  0
  -26.0173  -26.9342   19.4525 C   0  0  0  0  0  0
  -24.8513  -27.7135   19.4728 C   0  0  0  0  0  0
  -23.6266  -29.8380   20.1640 C   0  0  0  0  0  0
  -25.4112  -36.3083   24.0334 C   0  0  1  0  0  0
  -20.5883  -28.3672   23.1279 C   0  0  2  0  0  0
  -20.6773  -26.9397   22.5406 C   0  0  0  0  0  0
  -19.5748  -26.6376   21.5206 C   0  0  0  0  0  0
  -18.1925  -26.7915   22.1616 C   0  0  0  0  0  0
  -19.1537  -28.8837   23.2873 C   0  0  0  0  0  0
  -18.9467  -30.1444   23.8882 C   0  0  0  0  0  0
  -17.6467  -30.6577   24.0560 C   0  0  0  0  0  0
  -25.9053  -34.9453   23.5113 C   0  0  0  0  0  0
  -16.5354  -29.9080   23.6326 C   0  0  0  0  0  0
  -16.7275  -28.6497   23.0344 C   0  0  0  0  0  0
  -26.4502  -31.6592   25.0749 C   0  0  0  0  0  0
  -25.3735  -31.3730   26.1478 C   0  0  0  0  0  0
  -27.0337  -30.3014   24.6197 C   0  0  0  0  0  0
  -27.6053  -32.4333   25.7514 C   0  0  0  0  0  0
  -27.5576  -37.1802   24.8466 C   0  0  0  0  0  0
  -21.4184  -29.3033   22.3685 N   0  0  0  0  0  0
  -26.4286  -37.3778   23.9412 N   0  0  0  0  0  0
  -24.6849  -31.0666   22.1029 N   0  0  0  0  0  0
  -23.4199  -28.8175   23.3022 O   0  0  0  0  0  0
  -28.3228  -26.4815   20.1480 O   0  0  0  0  0  0
  -26.5616  -34.8917   22.4674 O   0  0  0  0  0  0
  -23.5419  -32.1444   23.7407 O   0  0  0  0  0  0
  -28.5645  -20.3087   21.4022 C   0  0  0  0  0  0
  -30.4421  -19.1972   19.6700 C   0  0  0  0  0  0
  -29.0360  -18.9814   21.6234 C   0  0  0  0  0  0
  -29.0157  -21.1093   20.3200 C   0  0  0  0  0  0
  -29.9989  -18.3971   20.7567 C   0  0  0  0  0  0
  -29.9665  -20.5189   19.4485 C   0  0  0  0  0  0
  -28.5103  -18.2058   22.8185 C   0  0  0  0  0  0
  -28.3253  -22.4758   20.0112 C   0  0  0  0  0  0
  -30.7118  -17.0403   21.0598 C   0  0  0  0  0  0
  -29.0129  -23.8762   20.2811 C   0  0  0  0  0  0
  -28.0429  -25.0579   19.8871 C   0  0  0  0  0  0
  -30.0397  -15.7167   20.8639 N   0  0  0  0  0  0
  -30.5533  -21.3934   18.0785 Cl  0  0  0  0  0  0
  -31.4590  -12.4444   19.1466 H   0  0  0  0  0  0
  -30.3129  -11.3747   19.9012 H   0  0  0  0  0  0
  -29.7493  -11.7366   17.4744 H   0  0  0  0  0  0
  -29.6522  -13.4610   17.7376 H   0  0  0  0  0  0
  -27.8462  -11.2970   18.8645 H   0  0  0  0  0  0
  -27.3660  -12.5838   17.7911 H   0  0  0  0  0  0
  -27.6624  -14.2591   19.5098 H   0  0  0  0  0  0
  -28.6937  -12.1031   21.4141 H   0  0  0  0  0  0
  -28.4564  -13.7834   21.8106 H   0  0  0  0  0  0
  -25.2764   -9.5694   22.4760 H   0  0  0  0  0  0
  -24.0006   -7.4643   22.7474 H   0  0  0  0  0  0
  -21.0848   -8.8776   19.8949 H   0  0  0  0  0  0
  -22.3699  -10.9678   19.6166 H   0  0  0  0  0  0
  -21.2006   -7.6151   23.9714 H   0  0  0  0  0  0
  -21.1485   -6.0523   25.9075 H   0  0  0  0  0  0
  -22.0597   -2.7611   23.2840 H   0  0  0  0  0  0
  -22.4104  -11.9872   22.4790 H   0  0  0  0  0  0
  -21.1099  -13.1234   22.2620 H   0  0  0  0  0  0
  -24.6553  -15.8459   20.5165 H   0  0  0  0  0  0
  -26.2706  -15.6311   20.0720 H   0  0  0  0  0  0
  -26.7179  -32.5464   23.1137 H   0  0  0  0  0  0
  -25.0092  -33.9744   25.0449 H   0  0  0  0  0  0
  -22.7080  -31.3124   21.4150 H   0  0  0  0  0  0
  -23.3748  -35.9635   23.3312 H   0  0  0  0  0  0
  -24.3588  -36.8904   22.2052 H   0  0  0  0  0  0
  -23.7251  -37.6504   23.6658 H   0  0  0  0  0  0
  -26.0951  -31.5669   20.6188 H   0  0  0  0  0  0
  -26.8375  -30.8365   22.0121 H   0  0  0  0  0  0
  -28.1057  -28.9844   21.1980 H   0  0  0  0  0  0
  -25.9354  -25.9945   18.9285 H   0  0  0  0  0  0
  -23.9552  -27.3470   18.9906 H   0  0  0  0  0  0
  -23.7473  -30.6203   19.4139 H   0  0  0  0  0  0
  -22.7456  -29.2712   19.8580 H   0  0  0  0  0  0
  -25.1286  -36.1943   25.0827 H   0  0  0  0  0  0
  -20.9963  -28.3250   24.1408 H   0  0  0  0  0  0
  -20.5665  -26.2293   23.3611 H   0  0  0  0  0  0
  -21.6646  -26.7431   22.1199 H   0  0  0  0  0  0
  -19.6917  -25.6295   21.1229 H   0  0  0  0  0  0
  -19.6681  -27.3196   20.6741 H   0  0  0  0  0  0
  -17.4194  -26.6662   21.4015 H   0  0  0  0  0  0
  -18.0315  -26.0055   22.9011 H   0  0  0  0  0  0
  -19.7950  -30.7251   24.2244 H   0  0  0  0  0  0
  -17.5034  -31.6260   24.5163 H   0  0  0  0  0  0
  -15.5357  -30.2975   23.7667 H   0  0  0  0  0  0
  -15.8673  -28.0825   22.7046 H   0  0  0  0  0  0
  -24.5908  -30.7080   25.7816 H   0  0  0  0  0  0
  -24.8937  -32.2896   26.4906 H   0  0  0  0  0  0
  -25.8063  -30.8909   27.0252 H   0  0  0  0  0  0
  -26.2907  -29.6768   24.1219 H   0  0  0  0  0  0
  -27.4036  -29.7259   25.4693 H   0  0  0  0  0  0
  -27.8787  -30.4299   23.9425 H   0  0  0  0  0  0
  -27.2652  -33.3632   26.2086 H   0  0  0  0  0  0
  -28.3863  -32.6893   25.0342 H   0  0  0  0  0  0
  -28.0731  -31.8470   26.5438 H   0  0  0  0  0  0
  -28.2587  -38.0103   24.7499 H   0  0  0  0  0  0
  -28.1072  -36.2626   24.6295 H   0  0  0  0  0  0
  -27.2296  -37.1451   25.8870 H   0  0  0  0  0  0
  -20.9361  -29.8788   21.6929 H   0  0  0  0  0  0
  -26.0170  -38.2854   24.1412 H   0  0  0  0  0  0
  -27.8169  -20.7158   22.0687 H   0  0  0  0  0  0
  -31.1865  -18.8032   18.9929 H   0  0  0  0  0  0
  -27.7489  -18.7694   23.3591 H   0  0  0  0  0  0
  -29.3148  -17.9828   23.5192 H   0  0  0  0  0  0
  -28.0604  -17.2657   22.4990 H   0  0  0  0  0  0
  -27.3797  -22.4702   20.5551 H   0  0  0  0  0  0
  -28.0280  -22.4412   18.9625 H   0  0  0  0  0  0
  -31.0403  -17.0726   22.0990 H   0  0  0  0  0  0
  -31.6425  -17.0599   20.4906 H   0  0  0  0  0  0
  -29.9400  -23.9560   19.7124 H   0  0  0  0  0  0
  -29.2817  -23.9556   21.3343 H   0  0  0  0  0  0
  -27.1090  -24.8137   20.3954 H   0  0  0  0  0  0
  -27.8551  -24.9593   18.8165 H   0  0  0  0  0  0
  -29.0597  -15.6427   21.0870 H   0  0  0  0  0  0
  1 25  1  0  0  0
  1 30  2  0  0  0
  1 82  1  0  0  0
  2  3  1  0  0  0
  2 25  1  0  0  0
  2 84  1  0  0  0
  2 85  1  0  0  0
  3  4  1  0  0  0
  3 86  1  0  0  0
  3 87  1  0  0  0
  4  5  1  0  0  0
  4 88  1  0  0  0
  4 89  1  0  0  0
  5  6  1  0  0  0
  5 26  1  0  0  0
  5 90  1  0  0  0
  6 25  1  0  0  0
  6 91  1  0  0  0
  6 92  1  0  0  0
  7  8  2  0  0  0
  7 26  1  0  0  0
  7 29  1  0  0  0
  8  9  1  0  0  0
  8 22  1  0  0  0
  9 10  1  0  0  0
  9 27  2  0  0  0
 10 11  2  0  0  0
 10 15  1  0  0  0
 11 12  1  0  0  0
 11 93  1  0  0  0
 12 13  2  0  0  0
 12 94  1  0  0  0
 13 14  1  0  0  0
 13 31  1  0  0  0
 14 15  2  0  0  0
 14 95  1  0  0  0
 15 96  1  0  0  0
 16 17  2  0  0  0
 16 21  1  0  0  0
 16 31  1  0  0  0
 17 18  1  0  0  0
 17 97  1  0  0  0
 18 19  2  0  0  0
 18 98  1  0  0  0
 19 20  1  0  0  0
 19 24  1  0  0  0
 20 21  2  0  0  0
 20 99  1  0  0  0
 21 23  1  0  0  0
 22 28  1  0  0  0
 22 32  2  0  0  0
 26 27  1  0  0  0
 28100  1  0  0  0
 28101  1  0  0  0
 29102  1  0  0  0
 29103  1  0  0  0
 33 34  1  0  0  0
 33 66  1  0  0  0
 33 70  2  0  0  0
 34 36  1  0  0  0
 34 59  1  0  0  0
 34104  1  0  0  0
 35 44  2  0  0  0
 35 45  1  0  0  0
 35 68  1  0  0  0
 36 56  1  0  0  0
 36105  1  0  0  0
 37 39  1  0  0  0
 37 47  1  0  0  0
 37 66  1  0  0  0
 37106  1  0  0  0
 38 43  2  0  0  0
 38 46  1  0  0  0
 38 47  1  0  0  0
 39 64  1  0  0  0
 39 67  2  0  0  0
 40 52  1  0  0  0
 40 53  2  0  0  0
 40 58  1  0  0  0
 41107  1  0  0  0
 41108  1  0  0  0
 41109  1  0  0  0
 41 48  1  0  0  0
 42 43  1  0  0  0
 42 66  1  0  0  0
 42110  1  0  0  0
 42111  1  0  0  0
 43 44  1  0  0  0
 44112  1  0  0  0
 45 46  2  0  0  0
 45113  1  0  0  0
 46114  1  0  0  0
 47115  1  0  0  0
 47116  1  0  0  0
 48 56  1  0  0  0
 48 65  1  0  0  0
 48117  1  0  0  0
 49 50  1  0  0  0
 49 53  1  0  0  0
 49 64  1  0  0  0
 49118  1  0  0  0
 50 51  1  0  0  0
 50119  1  0  0  0
 50120  1  0  0  0
 51 52  1  0  0  0
 51121  1  0  0  0
 51122  1  0  0  0
 52123  1  0  0  0
 52124  1  0  0  0
 53 54  1  0  0  0
 54 55  2  0  0  0
 54125  1  0  0  0
 55 57  1  0  0  0
 55126  1  0  0  0
 56 69  2  0  0  0
 57 58  2  0  0  0
 57127  1  0  0  0
 58128  1  0  0  0
 59 60  1  0  0  0
 59 61  1  0  0  0
 59 62  1  0  0  0
 60129  1  0  0  0
 60130  1  0  0  0
 60131  1  0  0  0
 61132  1  0  0  0
 61133  1  0  0  0
 61134  1  0  0  0
 62135  1  0  0  0
 62136  1  0  0  0
 62137  1  0  0  0
 63 65  1  0  0  0
 63138  1  0  0  0
 63139  1  0  0  0
 63140  1  0  0  0
 64141  1  0  0  0
 65142  1  0  0  0
 68 81  1  0  0  0
 71 73  2  0  0  0
 71 74  1  0  0  0
 71143  1  0  0  0
 72 75  2  0  0  0
 72 76  1  0  0  0
 72144  1  0  0  0
 73 75  1  0  0  0
 73 77  1  0  0  0
 74 76  2  0  0  0
 74 78  1  0  0  0
 75 79  1  0  0  0
 76 83  1  0  0  0
 77145  1  0  0  0
 77146  1  0  0  0
 77147  1  0  0  0
 78 80  1  0  0  0
 78148  1  0  0  0
 78149  1  0  0  0
 79 82  1  0  0  0
 79150  1  0  0  0
 79151  1  0  0  0
 80 81  1  0  0  0
 80152  1  0  0  0
 80153  1  0  0  0
 81154  1  0  0  0
 81155  1  0  0  0
 82156  1  0  0  0
M  ISO  4   1 100  68 101  81 101  82 100
M  END
> <chiral flag>
0

> <version>
0

> <s_m_source_file>
/data/baiqing/PycharmProjects/Reinvent-master-3.2/result/LINK_invent/BTK/process_docking_weight1_custom_sum_contain_oxygen_bond_distance_aromatic_linkinvent_7_9_3/rearranged_h_0034.sdf

> <i_m_source_file_index>
87

> <r_mmod_Potential_Energy-OPLS-2005>
-7.89891815185547

> <r_mmod_Stretch_Energy-OPLS-2005>
65.1099853515625

> <r_mmod_Bend_Energy-OPLS-2005>
137.312606811523

> <r_mmod_Torsional_Energy-OPLS-2005>
205.110214233398

> <r_mmod_Improper_Torsional_Energy-OPLS-2005>
5.22937440872192

> <r_mmod_Van_der_Waal_Energy-OPLS-2005>
154.852783203125

> <r_mmod_Electrostatic_Energy-OPLS-2005>
-413.279235839844

> <r_mmod_Solvation_Energy-OPLS-2005>
-203.484298706055

> <b_mmod_Minimization_Converged-OPLS-2005>
0

> <r_mmod_RMS_Derivative-OPLS-2005>
1.18624603748322

$$$$
90
                    3D
 Structure written by MMmdl.
169177  0  0  1  0            999 V2000
  -30.7435  -14.4304   20.5879 C   0  0  0  0  0  0
  -30.4134  -12.2860   19.4241 C   0  0  0  0  0  0
  -29.4928  -12.4884   18.2053 C   0  0  0  0  0  0
  -28.0130  -12.3610   18.6154 C   0  0  0  0  0  0
  -27.6633  -13.2085   19.8699 C   0  0  2  0  0  0
  -28.7017  -12.9958   20.9935 C   0  0  0  0  0  0
  -25.2623  -13.8166   20.5670 C   0  0  0  0  0  0
  -24.1864  -13.0442   20.9182 C   0  0  0  0  0  0
  -24.6408  -11.6913   20.8752 C   0  0  0  0  0  0
  -23.9069  -10.4303   21.0397 C   0  0  0  0  0  0
  -24.3622   -9.4227   21.9191 C   0  0  0  0  0  0
  -23.6303   -8.2263   22.0748 C   0  0  0  0  0  0
  -22.4289   -8.0276   21.3549 C   0  0  0  0  0  0
  -21.9924   -9.0247   20.4647 C   0  0  0  0  0  0
  -22.7242  -10.2117   20.3059 C   0  0  0  0  0  0
  -21.6866   -6.0744   22.5298 C   0  0  0  0  0  0
  -21.4018   -6.5645   23.8236 C   0  0  0  0  0  0
  -21.3659   -5.6797   24.9189 C   0  0  0  0  0  0
  -21.6045   -4.3055   24.7234 C   0  0  0  0  0  0
  -21.8823   -3.8153   23.4364 C   0  0  0  0  0  0
  -21.9197   -4.6975   22.3420 C   0  0  0  0  0  0
  -22.7886  -13.5251   21.1808 C   0  0  0  0  0  0
  -22.1661   -4.2169   21.0999 F   0  0  0  0  0  0
  -21.5618   -3.4542   25.7745 F   0  0  0  0  0  0
  -30.0396  -13.2767   20.4454 N   0  0  0  0  0  0
  -26.3060  -12.9337   20.3360 N   0  0  0  0  0  0
  -25.9335  -11.6499   20.5773 N   0  0  0  0  0  0
  -22.0483  -12.8272   22.0348 N   0  0  0  0  0  0
  -25.4334  -15.1863   20.4075 N   0  0  0  0  0  0
  -31.8517  -14.6082   20.0756 O   0  0  0  0  0  0
  -21.6645   -6.8882   21.4256 O   0  0  0  0  0  0
  -22.3604  -14.5562   20.6612 O   0  0  0  0  0  0
  -24.6076  -31.8704   23.2100 C   0  0  0  0  0  0
  -25.8979  -32.4853   23.8416 C   0  0  1  0  0  0
  -27.2900  -27.5075   20.1015 C   0  0  0  0  0  0
  -25.5848  -33.8651   24.2356 N   0  0  0  0  0  0
  -23.3970  -30.4824   21.5494 C   0  0  2  0  0  0
  -24.8560  -28.9465   20.1295 C   0  0  0  0  0  0
  -22.7386  -29.4650   22.5056 C   0  0  0  0  0  0
  -18.0250  -28.1377   22.8483 C   0  0  0  0  0  0
  -24.1476  -36.7354   23.2637 C   0  0  0  0  0  0
  -25.9100  -30.8655   21.3427 C   0  0  0  0  0  0
  -26.0034  -29.4950   20.7113 C   0  0  0  0  0  0
  -27.2178  -28.7871   20.6970 C   0  0  0  0  0  0
  -26.1206  -26.9565   19.5322 C   0  0  0  0  0  0
  -24.9036  -27.6681   19.5417 C   0  0  0  0  0  0
  -23.6064  -29.7926   20.1721 C   0  0  0  0  0  0
  -25.4092  -36.3152   24.0341 C   0  0  1  0  0  0
  -20.5836  -28.3653   23.1350 C   0  0  2  0  0  0
  -20.6735  -26.9398   22.5439 C   0  0  0  0  0  0
  -19.5740  -26.6391   21.5213 C   0  0  0  0  0  0
  -18.1901  -26.7934   22.1602 C   0  0  0  0  0  0
  -19.1505  -28.8836   23.2909 C   0  0  0  0  0  0
  -18.9439  -30.1433   23.8932 C   0  0  0  0  0  0
  -17.6451  -30.6581   24.0571 C   0  0  0  0  0  0
  -25.9014  -34.9505   23.5151 C   0  0  0  0  0  0
  -16.5335  -29.9100   23.6314 C   0  0  0  0  0  0
  -16.7249  -28.6511   23.0347 C   0  0  0  0  0  0
  -26.4438  -31.6591   25.0698 C   0  0  0  0  0  0
  -25.3736  -31.3658   26.1469 C   0  0  0  0  0  0
  -27.0247  -30.3057   24.5967 C   0  0  0  0  0  0
  -27.6036  -32.4275   25.7462 C   0  0  0  0  0  0
  -27.5582  -37.1821   24.8460 C   0  0  0  0  0  0
  -21.4117  -29.3021   22.3781 N   0  0  0  0  0  0
  -26.4298  -37.3821   23.9407 N   0  0  0  0  0  0
  -24.6570  -31.0850   22.0969 N   0  0  0  0  0  0
  -23.4169  -28.8226   23.3111 O   0  0  0  0  0  0
  -28.4452  -26.7601   20.0313 O   0  0  0  0  0  0
  -26.5581  -34.8938   22.4722 O   0  0  0  0  0  0
  -23.5279  -32.1412   23.7527 O   0  0  0  0  0  0
  -28.9584  -24.3907   23.6784 C   0  0  0  0  0  0
  -29.9821  -23.7915   23.0018 C   0  0  0  0  0  0
  -30.6512  -24.8204   22.2649 C   0  0  0  0  0  0
  -29.9349  -25.9811   22.4351 C   0  0  0  0  0  0
  -31.8965  -24.6552   21.4256 C   0  0  0  0  0  0
  -27.9147  -26.6600   23.8260 C   0  0  0  0  0  0
  -30.2759  -22.3094   23.0327 C   0  0  0  0  0  0
  -30.1154  -27.3368   21.8055 C   0  0  0  0  0  0
  -29.6565  -17.7918   21.8905 C   0  0  0  0  0  0
  -30.0868  -19.2691   21.7681 C   0  0  0  0  0  0
  -30.6393  -16.8101   21.2384 C   0  0  0  0  0  0
  -29.0534  -20.1955   22.4348 C   0  0  0  0  0  0
  -29.7054  -27.3845   20.3152 C   0  0  0  0  0  0
  -28.9081  -25.7210   23.3311 N   0  0  0  0  0  0
  -30.1187  -15.4390   21.2170 N   0  0  0  0  0  0
  -29.2840  -21.6336   22.1785 N   0  3  0  0  0  0
  -31.4612  -12.3637   19.1264 H   0  0  0  0  0  0
  -30.2932  -11.2768   19.8204 H   0  0  0  0  0  0
  -29.7301  -11.7553   17.4335 H   0  0  0  0  0  0
  -29.6719  -13.4649   17.7563 H   0  0  0  0  0  0
  -27.8096  -11.3058   18.8031 H   0  0  0  0  0  0
  -27.3695  -12.6375   17.7791 H   0  0  0  0  0  0
  -27.7023  -14.2564   19.5689 H   0  0  0  0  0  0
  -28.6595  -11.9667   21.3496 H   0  0  0  0  0  0
  -28.4609  -13.6124   21.8601 H   0  0  0  0  0  0
  -25.2754   -9.5711   22.4771 H   0  0  0  0  0  0
  -24.0018   -7.4660   22.7459 H   0  0  0  0  0  0
  -21.0868   -8.8756   19.8965 H   0  0  0  0  0  0
  -22.3702  -10.9648   19.6168 H   0  0  0  0  0  0
  -21.2006   -7.6151   23.9750 H   0  0  0  0  0  0
  -21.1478   -6.0512   25.9093 H   0  0  0  0  0  0
  -22.0598   -2.7617   23.2856 H   0  0  0  0  0  0
  -22.4024  -11.9964   22.4859 H   0  0  0  0  0  0
  -21.1063  -13.1297   22.2398 H   0  0  0  0  0  0
  -24.6679  -15.8416   20.5258 H   0  0  0  0  0  0
  -26.2871  -15.6285   20.0882 H   0  0  0  0  0  0
  -26.7076  -32.5629   23.1232 H   0  0  0  0  0  0
  -24.9972  -33.9818   25.0479 H   0  0  0  0  0  0
  -22.6829  -31.2930   21.3970 H   0  0  0  0  0  0
  -23.3731  -35.9700   23.3321 H   0  0  0  0  0  0
  -24.3572  -36.8943   22.2053 H   0  0  0  0  0  0
  -23.7234  -37.6565   23.6633 H   0  0  0  0  0  0
  -25.9778  -31.6184   20.5565 H   0  0  0  0  0  0
  -26.8135  -30.9596   21.9322 H   0  0  0  0  0  0
  -28.0849  -29.2508   21.1414 H   0  0  0  0  0  0
  -26.1635  -25.9793   19.0733 H   0  0  0  0  0  0
  -24.0204  -27.2283   19.1007 H   0  0  0  0  0  0
  -23.7018  -30.5500   19.3939 H   0  0  0  0  0  0
  -22.7419  -29.1864   19.8938 H   0  0  0  0  0  0
  -25.1268  -36.2040   25.0832 H   0  0  0  0  0  0
  -20.9898  -28.3207   24.1481 H   0  0  0  0  0  0
  -20.5626  -26.2260   23.3619 H   0  0  0  0  0  0
  -21.6620  -26.7439   22.1244 H   0  0  0  0  0  0
  -19.6903  -25.6310   21.1229 H   0  0  0  0  0  0
  -19.6693  -27.3218   20.6762 H   0  0  0  0  0  0
  -17.4182  -26.6691   21.3991 H   0  0  0  0  0  0
  -18.0290  -26.0069   22.8989 H   0  0  0  0  0  0
  -19.7922  -30.7232   24.2330 H   0  0  0  0  0  0
  -17.5013  -31.6270   24.5171 H   0  0  0  0  0  0
  -15.5350  -30.3028   23.7632 H   0  0  0  0  0  0
  -15.8628  -28.0859   22.7053 H   0  0  0  0  0  0
  -24.5867  -30.7064   25.7789 H   0  0  0  0  0  0
  -24.8979  -32.2808   26.5013 H   0  0  0  0  0  0
  -25.8103  -30.8736   27.0166 H   0  0  0  0  0  0
  -26.2734  -29.6822   24.1103 H   0  0  0  0  0  0
  -27.4151  -29.7279   25.4353 H   0  0  0  0  0  0
  -27.8507  -30.4414   23.8979 H   0  0  0  0  0  0
  -27.2674  -33.3548   26.2114 H   0  0  0  0  0  0
  -28.3819  -32.6871   25.0274 H   0  0  0  0  0  0
  -28.0733  -31.8344   26.5317 H   0  0  0  0  0  0
  -28.2615  -38.0103   24.7502 H   0  0  0  0  0  0
  -28.1055  -36.2637   24.6291 H   0  0  0  0  0  0
  -27.2302  -37.1481   25.8861 H   0  0  0  0  0  0
  -20.9304  -29.8717   21.6971 H   0  0  0  0  0  0
  -26.0205  -38.2907   24.1400 H   0  0  0  0  0  0
  -28.2258  -23.9730   24.3577 H   0  0  0  0  0  0
  -32.7880  -24.7870   22.0401 H   0  0  0  0  0  0
  -31.9491  -25.3875   20.6218 H   0  0  0  0  0  0
  -31.9371  -23.6667   20.9709 H   0  0  0  0  0  0
  -27.3434  -26.2103   24.6393 H   0  0  0  0  0  0
  -27.2310  -26.9307   23.0220 H   0  0  0  0  0  0
  -28.3939  -27.5616   24.2069 H   0  0  0  0  0  0
  -30.1928  -21.9657   24.0640 H   0  0  0  0  0  0
  -31.2894  -22.0922   22.6964 H   0  0  0  0  0  0
  -31.1601  -27.6412   21.8946 H   0  0  0  0  0  0
  -29.5716  -28.0997   22.3599 H   0  0  0  0  0  0
  -28.6766  -17.6736   21.4270 H   0  0  0  0  0  0
  -29.5316  -17.5392   22.9445 H   0  0  0  0  0  0
  -30.1884  -19.5361   20.7147 H   0  0  0  0  0  0
  -31.0680  -19.4149   22.2214 H   0  0  0  0  0  0
  -31.5976  -16.8399   21.7599 H   0  0  0  0  0  0
  -30.8329  -17.1293   20.2121 H   0  0  0  0  0  0
  -28.9951  -20.0028   23.5072 H   0  0  0  0  0  0
  -28.0672  -19.9558   22.0308 H   0  0  0  0  0  0
  -30.4464  -26.8406   19.7317 H   0  0  0  0  0  0
  -29.7552  -28.4046   19.9309 H   0  0  0  0  0  0
  -29.1984  -15.2668   21.5942 H   0  0  0  0  0  0
  -29.4946  -21.8050   21.2093 H   0  0  0  0  0  0
  -28.4128  -22.1020   22.3692 H   0  0  0  0  0  0
  1 25  1  0  0  0
  1 30  2  0  0  0
  1 85  1  0  0  0
  2  3  1  0  0  0
  2 25  1  0  0  0
  2 87  1  0  0  0
  2 88  1  0  0  0
  3  4  1  0  0  0
  3 89  1  0  0  0
  3 90  1  0  0  0
  4  5  1  0  0  0
  4 91  1  0  0  0
  4 92  1  0  0  0
  5  6  1  0  0  0
  5 26  1  0  0  0
  5 93  1  0  0  0
  6 25  1  0  0  0
  6 94  1  0  0  0
  6 95  1  0  0  0
  7  8  2  0  0  0
  7 26  1  0  0  0
  7 29  1  0  0  0
  8  9  1  0  0  0
  8 22  1  0  0  0
  9 10  1  0  0  0
  9 27  2  0  0  0
 10 11  2  0  0  0
 10 15  1  0  0  0
 11 12  1  0  0  0
 11 96  1  0  0  0
 12 13  2  0  0  0
 12 97  1  0  0  0
 13 14  1  0  0  0
 13 31  1  0  0  0
 14 15  2  0  0  0
 14 98  1  0  0  0
 15 99  1  0  0  0
 16 17  2  0  0  0
 16 21  1  0  0  0
 16 31  1  0  0  0
 17 18  1  0  0  0
 17100  1  0  0  0
 18 19  2  0  0  0
 18101  1  0  0  0
 19 20  1  0  0  0
 19 24  1  0  0  0
 20 21  2  0  0  0
 20102  1  0  0  0
 21 23  1  0  0  0
 22 28  1  0  0  0
 22 32  2  0  0  0
 26 27  1  0  0  0
 28103  1  0  0  0
 28104  1  0  0  0
 29105  1  0  0  0
 29106  1  0  0  0
 33 34  1  0  0  0
 33 66  1  0  0  0
 33 70  2  0  0  0
 34 36  1  0  0  0
 34 59  1  0  0  0
 34107  1  0  0  0
 35 44  2  0  0  0
 35 45  1  0  0  0
 35 68  1  0  0  0
 36 56  1  0  0  0
 36108  1  0  0  0
 37 39  1  0  0  0
 37 47  1  0  0  0
 37 66  1  0  0  0
 37109  1  0  0  0
 38 43  2  0  0  0
 38 46  1  0  0  0
 38 47  1  0  0  0
 39 64  1  0  0  0
 39 67  2  0  0  0
 40 52  1  0  0  0
 40 53  2  0  0  0
 40 58  1  0  0  0
 41110  1  0  0  0
 41111  1  0  0  0
 41112  1  0  0  0
 41 48  1  0  0  0
 42 43  1  0  0  0
 42 66  1  0  0  0
 42113  1  0  0  0
 42114  1  0  0  0
 43 44  1  0  0  0
 44115  1  0  0  0
 45 46  2  0  0  0
 45116  1  0  0  0
 46117  1  0  0  0
 47118  1  0  0  0
 47119  1  0  0  0
 48 56  1  0  0  0
 48 65  1  0  0  0
 48120  1  0  0  0
 49 50  1  0  0  0
 49 53  1  0  0  0
 49 64  1  0  0  0
 49121  1  0  0  0
 50 51  1  0  0  0
 50122  1  0  0  0
 50123  1  0  0  0
 51 52  1  0  0  0
 51124  1  0  0  0
 51125  1  0  0  0
 52126  1  0  0  0
 52127  1  0  0  0
 53 54  1  0  0  0
 54 55  2  0  0  0
 54128  1  0  0  0
 55 57  1  0  0  0
 55129  1  0  0  0
 56 69  2  0  0  0
 57 58  2  0  0  0
 57130  1  0  0  0
 58131  1  0  0  0
 59 60  1  0  0  0
 59 61  1  0  0  0
 59 62  1  0  0  0
 60132  1  0  0  0
 60133  1  0  0  0
 60134  1  0  0  0
 61135  1  0  0  0
 61136  1  0  0  0
 61137  1  0  0  0
 62138  1  0  0  0
 62139  1  0  0  0
 62140  1  0  0  0
 63 65  1  0  0  0
 63141  1  0  0  0
 63142  1  0  0  0
 63143  1  0  0  0
 64144  1  0  0  0
 65145  1  0  0  0
 68 83  1  0  0  0
 71 72  2  0  0  0
 71 84  1  0  0  0
 71146  1  0  0  0
 72 73  1  0  0  0
 72 77  1  0  0  0
 73 74  2  0  0  0
 73 75  1  0  0  0
 74 78  1  0  0  0
 74 84  1  0  0  0
 75147  1  0  0  0
 75148  1  0  0  0
 75149  1  0  0  0
 76 84  1  0  0  0
 76150  1  0  0  0
 76151  1  0  0  0
 76152  1  0  0  0
 77 86  1  0  0  0
 77153  1  0  0  0
 77154  1  0  0  0
 78 83  1  0  0  0
 78155  1  0  0  0
 78156  1  0  0  0
 79 80  1  0  0  0
 79 81  1  0  0  0
 79157  1  0  0  0
 79158  1  0  0  0
 80 82  1  0  0  0
 80159  1  0  0  0
 80160  1  0  0  0
 81 85  1  0  0  0
 81161  1  0  0  0
 81162  1  0  0  0
 82 86  1  0  0  0
 82163  1  0  0  0
 82164  1  0  0  0
 83165  1  0  0  0
 83166  1  0  0  0
 85167  1  0  0  0
 86168  1  0  0  0
 86169  1  0  0  0
M  CHG  1  86   1
M  ISO  4   1 100  68 101  83 101  85 100
M  END
> <chiral flag>
0

> <version>
0

> <s_m_source_file>
/data/baiqing/PycharmProjects/Reinvent-master-3.2/result/LINK_invent/BTK/process_docking_weight1_custom_sum_contain_oxygen_bond_distance_aromatic_linkinvent_7_9_3/rearranged_h_0034.sdf

> <i_m_source_file_index>
88

> <r_mmod_Potential_Energy-OPLS-2005>
-331.709533691406

> <r_mmod_Stretch_Energy-OPLS-2005>
32.1746253967285

> <r_mmod_Bend_Energy-OPLS-2005>
106.646072387695

> <r_mmod_Torsional_Energy-OPLS-2005>
187.082855224609

> <r_mmod_Improper_Torsional_Energy-OPLS-2005>
3.07929515838623

> <r_mmod_Van_der_Waal_Energy-OPLS-2005>
119.179100036621

> <r_mmod_Electrostatic_Energy-OPLS-2005>
-338.277679443359

> <r_mmod_Solvation_Energy-OPLS-2005>
-450.532501220703

> <b_mmod_Minimization_Converged-OPLS-2005>
0

> <r_mmod_RMS_Derivative-OPLS-2005>
3.66582036018372

$$$$
91
                    3D
 Structure written by MMmdl.
158166  0  0  1  0            999 V2000
  -30.5597  -14.8772   20.4074 C   0  0  0  0  0  0
  -30.4325  -12.5380   19.4952 C   0  0  0  0  0  0
  -29.5154  -12.5157   18.2516 C   0  0  0  0  0  0
  -28.0437  -12.3241   18.6633 C   0  0  0  0  0  0
  -27.6304  -13.2453   19.8418 C   0  0  2  0  0  0
  -28.6717  -13.2456   20.9812 C   0  0  0  0  0  0
  -25.2451  -13.8225   20.5707 C   0  0  0  0  0  0
  -24.1768  -13.0452   20.9227 C   0  0  0  0  0  0
  -24.6379  -11.6929   20.8751 C   0  0  0  0  0  0
  -23.9071  -10.4294   21.0402 C   0  0  0  0  0  0
  -24.3618   -9.4206   21.9179 C   0  0  0  0  0  0
  -23.6292   -8.2239   22.0747 C   0  0  0  0  0  0
  -22.4273   -8.0274   21.3538 C   0  0  0  0  0  0
  -21.9910   -9.0254   20.4643 C   0  0  0  0  0  0
  -22.7242  -10.2132   20.3054 C   0  0  0  0  0  0
  -21.6856   -6.0730   22.5273 C   0  0  0  0  0  0
  -21.4013   -6.5634   23.8206 C   0  0  0  0  0  0
  -21.3655   -5.6787   24.9169 C   0  0  0  0  0  0
  -21.6040   -4.3049   24.7225 C   0  0  0  0  0  0
  -21.8822   -3.8143   23.4346 C   0  0  0  0  0  0
  -21.9194   -4.6957   22.3400 C   0  0  0  0  0  0
  -22.7785  -13.5208   21.1893 C   0  0  0  0  0  0
  -22.1662   -4.2140   21.0980 F   0  0  0  0  0  0
  -21.5629   -3.4533   25.7740 F   0  0  0  0  0  0
  -29.9582  -13.6278   20.3898 N   0  0  0  0  0  0
  -26.2874  -12.9453   20.3246 N   0  0  0  0  0  0
  -25.9311  -11.6587   20.5751 N   0  0  0  0  0  0
  -22.0446  -12.8191   22.0450 N   0  0  0  0  0  0
  -25.4129  -15.1958   20.4118 N   0  0  0  0  0  0
  -31.7547  -14.9450   20.1023 O   0  0  0  0  0  0
  -21.6635   -6.8871   21.4235 O   0  0  0  0  0  0
  -22.3454  -14.5513   20.6742 O   0  0  0  0  0  0
  -24.6390  -31.8475   23.1901 C   0  0  0  0  0  0
  -25.9182  -32.4723   23.8271 C   0  0  1  0  0  0
  -27.2112  -27.1755   20.1409 C   0  0  0  0  0  0
  -25.5933  -33.8528   24.2180 N   0  0  0  0  0  0
  -23.4402  -30.4684   21.5355 C   0  0  2  0  0  0
  -24.8874  -28.9016   20.1079 C   0  0  0  0  0  0
  -22.7544  -29.4565   22.4865 C   0  0  0  0  0  0
  -18.0294  -28.1394   22.8486 C   0  0  0  0  0  0
  -24.1498  -36.7270   23.2642 C   0  0  0  0  0  0
  -25.9930  -30.7347   21.3829 C   0  0  0  0  0  0
  -26.0631  -29.3488   20.7238 C   0  0  0  0  0  0
  -27.2270  -28.5002   20.7246 C   0  0  0  0  0  0
  -26.0112  -26.8179   19.4885 C   0  0  0  0  0  0
  -24.8715  -27.6490   19.4750 C   0  0  0  0  0  0
  -23.6641  -29.7997   20.1537 C   0  0  0  0  0  0
  -25.4131  -36.3053   24.0312 C   0  0  1  0  0  0
  -20.5909  -28.3725   23.1251 C   0  0  2  0  0  0
  -20.6803  -26.9438   22.5407 C   0  0  0  0  0  0
  -19.5773  -26.6378   21.5223 C   0  0  0  0  0  0
  -18.1939  -26.7933   22.1616 C   0  0  0  0  0  0
  -19.1549  -28.8872   23.2859 C   0  0  0  0  0  0
  -18.9473  -30.1467   23.8888 C   0  0  0  0  0  0
  -17.6477  -30.6611   24.0558 C   0  0  0  0  0  0
  -25.9070  -34.9433   23.5057 C   0  0  0  0  0  0
  -16.5359  -29.9114   23.6337 C   0  0  0  0  0  0
  -16.7280  -28.6519   23.0371 C   0  0  0  0  0  0
  -26.4507  -31.6591   25.0705 C   0  0  0  0  0  0
  -25.3684  -31.3793   26.1390 C   0  0  0  0  0  0
  -27.0378  -30.2995   24.6276 C   0  0  0  0  0  0
  -27.6030  -32.4371   25.7498 C   0  0  0  0  0  0
  -27.5585  -37.1788   24.8464 C   0  0  0  0  0  0
  -21.4241  -29.3041   22.3610 N   0  0  0  0  0  0
  -26.4297  -37.3761   23.9405 N   0  0  0  0  0  0
  -24.7098  -31.0378   22.0919 N   0  0  0  0  0  0
  -23.4201  -28.8120   23.3009 O   0  0  0  0  0  0
  -28.2759  -26.2199   20.2092 O   0  0  0  0  0  0
  -26.5667  -34.8928   22.4643 O   0  0  0  0  0  0
  -23.5523  -32.1328   23.7151 O   0  0  0  0  0  0
  -29.8959  -21.1595   21.4935 C   0  0  0  0  0  0
  -30.0659  -19.7142   21.4234 C   0  0  0  0  0  0
  -29.1550  -21.9168   20.5071 C   0  0  0  0  0  0
  -29.5694  -18.9473   20.3298 C   0  0  0  0  0  0
  -28.6131  -21.0399   19.5064 C   0  0  0  0  0  0
  -30.5848  -21.9195   22.6270 C   0  0  0  0  0  0
  -30.8561  -18.9710   22.4953 C   0  0  0  0  0  0
  -27.7507  -21.5936   18.3914 C   0  0  0  0  0  0
  -29.1519  -23.5766   20.5196 C   0  0  0  0  0  0
  -30.1119  -17.4549   19.9202 C   0  0  0  0  0  0
  -28.0338  -24.7035   20.0431 C   0  0  0  0  0  0
  -28.8324  -19.6677   19.4223 N   0  0  0  0  0  0
  -29.7904  -16.0516   20.5155 N   0  0  0  0  0  0
  -31.4681  -12.6826   19.1840 H   0  0  0  0  0  0
  -30.4105  -11.5791   20.0164 H   0  0  0  0  0  0
  -29.8204  -11.7199   17.5705 H   0  0  0  0  0  0
  -29.6214  -13.4518   17.6999 H   0  0  0  0  0  0
  -27.9146  -11.2798   18.9488 H   0  0  0  0  0  0
  -27.3870  -12.4867   17.8074 H   0  0  0  0  0  0
  -27.6022  -14.2541   19.4287 H   0  0  0  0  0  0
  -28.7371  -12.2657   21.4572 H   0  0  0  0  0  0
  -28.3855  -13.9511   21.7634 H   0  0  0  0  0  0
  -25.2761   -9.5677   22.4756 H   0  0  0  0  0  0
  -24.0000   -7.4623   22.7462 H   0  0  0  0  0  0
  -21.0841   -8.8776   19.8945 H   0  0  0  0  0  0
  -22.3699  -10.9672   19.6160 H   0  0  0  0  0  0
  -21.2000   -7.6141   23.9708 H   0  0  0  0  0  0
  -21.1474   -6.0515   25.9071 H   0  0  0  0  0  0
  -22.0607   -2.7606   23.2852 H   0  0  0  0  0  0
  -22.4080  -11.9849   22.4824 H   0  0  0  0  0  0
  -21.1064  -13.1203   22.2685 H   0  0  0  0  0  0
  -24.6453  -15.8497   20.5232 H   0  0  0  0  0  0
  -26.2521  -15.6330   20.0549 H   0  0  0  0  0  0
  -26.7253  -32.5346   23.1000 H   0  0  0  0  0  0
  -25.0045  -33.9628   25.0308 H   0  0  0  0  0  0
  -22.7406  -31.2930   21.3834 H   0  0  0  0  0  0
  -23.3765  -35.9598   23.3298 H   0  0  0  0  0  0
  -24.3573  -36.8915   22.2058 H   0  0  0  0  0  0
  -23.7252  -37.6459   23.6694 H   0  0  0  0  0  0
  -26.1413  -31.4922   20.6125 H   0  0  0  0  0  0
  -26.8662  -30.7854   22.0214 H   0  0  0  0  0  0
  -28.1247  -28.8365   21.2231 H   0  0  0  0  0  0
  -25.9248  -25.8592   18.9989 H   0  0  0  0  0  0
  -23.9738  -27.3020   18.9822 H   0  0  0  0  0  0
  -23.7960  -30.5741   19.3973 H   0  0  0  0  0  0
  -22.7813  -29.2361   19.8488 H   0  0  0  0  0  0
  -25.1324  -36.1876   25.0805 H   0  0  0  0  0  0
  -20.9987  -28.3345   24.1379 H   0  0  0  0  0  0
  -20.5732  -26.2343   23.3619 H   0  0  0  0  0  0
  -21.6673  -26.7480   22.1176 H   0  0  0  0  0  0
  -19.6951  -25.6276   21.1274 H   0  0  0  0  0  0
  -19.6733  -27.3184   20.6748 H   0  0  0  0  0  0
  -17.4213  -26.6673   21.4010 H   0  0  0  0  0  0
  -18.0332  -26.0087   22.9020 H   0  0  0  0  0  0
  -19.7959  -30.7265   24.2272 H   0  0  0  0  0  0
  -17.5048  -31.6297   24.5152 H   0  0  0  0  0  0
  -15.5360  -30.3018   23.7689 H   0  0  0  0  0  0
  -15.8662  -28.0838   22.7114 H   0  0  0  0  0  0
  -24.5854  -30.7151   25.7699 H   0  0  0  0  0  0
  -24.8855  -32.2985   26.4729 H   0  0  0  0  0  0
  -25.7927  -30.9006   27.0222 H   0  0  0  0  0  0
  -26.2995  -29.6709   24.1270 H   0  0  0  0  0  0
  -27.3999  -29.7298   25.4843 H   0  0  0  0  0  0
  -27.8904  -30.4236   23.9592 H   0  0  0  0  0  0
  -27.2611  -33.3701   26.1995 H   0  0  0  0  0  0
  -28.3881  -32.6887   25.0358 H   0  0  0  0  0  0
  -28.0654  -31.8545   26.5472 H   0  0  0  0  0  0
  -28.2583  -38.0102   24.7518 H   0  0  0  0  0  0
  -28.1095  -36.2622   24.6283 H   0  0  0  0  0  0
  -27.2288  -37.1432   25.8861 H   0  0  0  0  0  0
  -20.9436  -29.8746   21.6791 H   0  0  0  0  0  0
  -26.0166  -38.2832   24.1405 H   0  0  0  0  0  0
  -31.0783  -22.8188   22.2616 H   0  0  0  0  0  0
  -31.3791  -21.3608   23.1162 H   0  0  0  0  0  0
  -29.8592  -22.2052   23.3892 H   0  0  0  0  0  0
  -31.9264  -19.1351   22.3668 H   0  0  0  0  0  0
  -30.6759  -17.8967   22.4679 H   0  0  0  0  0  0
  -30.5672  -19.2954   23.4951 H   0  0  0  0  0  0
  -28.3663  -22.0741   17.6308 H   0  0  0  0  0  0
  -27.0356  -22.3196   18.7756 H   0  0  0  0  0  0
  -27.1736  -20.8014   17.9125 H   0  0  0  0  0  0
  -29.3182  -23.8660   21.5543 H   0  0  0  0  0  0
  -30.0727  -23.8487   20.0030 H   0  0  0  0  0  0
  -31.1989  -17.5446   19.9311 H   0  0  0  0  0  0
  -29.8740  -17.3522   18.8606 H   0  0  0  0  0  0
  -27.1051  -24.4670   20.5641 H   0  0  0  0  0  0
  -27.8328  -24.5411   18.9844 H   0  0  0  0  0  0
  -28.8272  -15.9180   20.7820 H   0  0  0  0  0  0
  1 25  1  0  0  0
  1 30  2  0  0  0
  1 83  1  0  0  0
  2  3  1  0  0  0
  2 25  1  0  0  0
  2 84  1  0  0  0
  2 85  1  0  0  0
  3  4  1  0  0  0
  3 86  1  0  0  0
  3 87  1  0  0  0
  4  5  1  0  0  0
  4 88  1  0  0  0
  4 89  1  0  0  0
  5  6  1  0  0  0
  5 26  1  0  0  0
  5 90  1  0  0  0
  6 25  1  0  0  0
  6 91  1  0  0  0
  6 92  1  0  0  0
  7  8  2  0  0  0
  7 26  1  0  0  0
  7 29  1  0  0  0
  8  9  1  0  0  0
  8 22  1  0  0  0
  9 10  1  0  0  0
  9 27  2  0  0  0
 10 11  2  0  0  0
 10 15  1  0  0  0
 11 12  1  0  0  0
 11 93  1  0  0  0
 12 13  2  0  0  0
 12 94  1  0  0  0
 13 14  1  0  0  0
 13 31  1  0  0  0
 14 15  2  0  0  0
 14 95  1  0  0  0
 15 96  1  0  0  0
 16 17  2  0  0  0
 16 21  1  0  0  0
 16 31  1  0  0  0
 17 18  1  0  0  0
 17 97  1  0  0  0
 18 19  2  0  0  0
 18 98  1  0  0  0
 19 20  1  0  0  0
 19 24  1  0  0  0
 20 21  2  0  0  0
 20 99  1  0  0  0
 21 23  1  0  0  0
 22 28  1  0  0  0
 22 32  2  0  0  0
 26 27  1  0  0  0
 28100  1  0  0  0
 28101  1  0  0  0
 29102  1  0  0  0
 29103  1  0  0  0
 33 34  1  0  0  0
 33 66  1  0  0  0
 33 70  2  0  0  0
 34 36  1  0  0  0
 34 59  1  0  0  0
 34104  1  0  0  0
 35 44  2  0  0  0
 35 45  1  0  0  0
 35 68  1  0  0  0
 36 56  1  0  0  0
 36105  1  0  0  0
 37 39  1  0  0  0
 37 47  1  0  0  0
 37 66  1  0  0  0
 37106  1  0  0  0
 38 43  2  0  0  0
 38 46  1  0  0  0
 38 47  1  0  0  0
 39 64  1  0  0  0
 39 67  2  0  0  0
 40 52  1  0  0  0
 40 53  2  0  0  0
 40 58  1  0  0  0
 41107  1  0  0  0
 41108  1  0  0  0
 41109  1  0  0  0
 41 48  1  0  0  0
 42 43  1  0  0  0
 42 66  1  0  0  0
 42110  1  0  0  0
 42111  1  0  0  0
 43 44  1  0  0  0
 44112  1  0  0  0
 45 46  2  0  0  0
 45113  1  0  0  0
 46114  1  0  0  0
 47115  1  0  0  0
 47116  1  0  0  0
 48 56  1  0  0  0
 48 65  1  0  0  0
 48117  1  0  0  0
 49 50  1  0  0  0
 49 53  1  0  0  0
 49 64  1  0  0  0
 49118  1  0  0  0
 50 51  1  0  0  0
 50119  1  0  0  0
 50120  1  0  0  0
 51 52  1  0  0  0
 51121  1  0  0  0
 51122  1  0  0  0
 52123  1  0  0  0
 52124  1  0  0  0
 53 54  1  0  0  0
 54 55  2  0  0  0
 54125  1  0  0  0
 55 57  1  0  0  0
 55126  1  0  0  0
 56 69  2  0  0  0
 57 58  2  0  0  0
 57127  1  0  0  0
 58128  1  0  0  0
 59 60  1  0  0  0
 59 61  1  0  0  0
 59 62  1  0  0  0
 60129  1  0  0  0
 60130  1  0  0  0
 60131  1  0  0  0
 61132  1  0  0  0
 61133  1  0  0  0
 61134  1  0  0  0
 62135  1  0  0  0
 62136  1  0  0  0
 62137  1  0  0  0
 63 65  1  0  0  0
 63138  1  0  0  0
 63139  1  0  0  0
 63140  1  0  0  0
 64141  1  0  0  0
 65142  1  0  0  0
 68 81  1  0  0  0
 71 72  2  0  0  0
 71 73  1  0  0  0
 71 76  1  0  0  0
 72 74  1  0  0  0
 72 77  1  0  0  0
 73 75  2  0  0  0
 73 79  1  0  0  0
 74 80  1  0  0  0
 74 82  2  0  0  0
 75 78  1  0  0  0
 75 82  1  0  0  0
 76143  1  0  0  0
 76144  1  0  0  0
 76145  1  0  0  0
 77146  1  0  0  0
 77147  1  0  0  0
 77148  1  0  0  0
 78149  1  0  0  0
 78150  1  0  0  0
 78151  1  0  0  0
 79 81  1  0  0  0
 79152  1  0  0  0
 79153  1  0  0  0
 80 83  1  0  0  0
 80154  1  0  0  0
 80155  1  0  0  0
 81156  1  0  0  0
 81157  1  0  0  0
 83158  1  0  0  0
M  ISO  4   1 100  68 101  81 101  83 100
M  END
> <chiral flag>
0

> <version>
0

> <s_m_source_file>
/data/baiqing/PycharmProjects/Reinvent-master-3.2/result/LINK_invent/BTK/process_docking_weight1_custom_sum_contain_oxygen_bond_distance_aromatic_linkinvent_7_9_3/rearranged_h_0034.sdf

> <i_m_source_file_index>
89

> <r_mmod_Potential_Energy-OPLS-2005>
105.272117614746

> <r_mmod_Stretch_Energy-OPLS-2005>
199.573013305664

> <r_mmod_Bend_Energy-OPLS-2005>
245.360763549805

> <r_mmod_Torsional_Energy-OPLS-2005>
221.699676513672

> <r_mmod_Improper_Torsional_Energy-OPLS-2005>
9.57612800598145

> <r_mmod_Van_der_Waal_Energy-OPLS-2005>
145.677978515625

> <r_mmod_Electrostatic_Energy-OPLS-2005>
-642.393188476562

> <r_mmod_Solvation_Energy-OPLS-2005>
-226.77751159668

> <b_mmod_Minimization_Converged-OPLS-2005>
0

> <r_mmod_RMS_Derivative-OPLS-2005>
1.99462962150574

$$$$
92
                    3D
 Structure written by MMmdl.
149157  0  0  1  0            999 V2000
  -30.5077  -14.9949   20.3984 C   0  0  0  0  0  0
  -30.4400  -12.6092   19.5238 C   0  0  0  0  0  0
  -29.5294  -12.5401   18.2739 C   0  0  0  0  0  0
  -28.0618  -12.3201   18.6840 C   0  0  0  0  0  0
  -27.6308  -13.2527   19.8458 C   0  0  2  0  0  0
  -28.6674  -13.2901   20.9908 C   0  0  0  0  0  0
  -25.2455  -13.8223   20.5718 C   0  0  0  0  0  0
  -24.1773  -13.0440   20.9226 C   0  0  0  0  0  0
  -24.6395  -11.6927   20.8751 C   0  0  0  0  0  0
  -23.9082  -10.4294   21.0405 C   0  0  0  0  0  0
  -24.3629   -9.4208   21.9183 C   0  0  0  0  0  0
  -23.6300   -8.2245   22.0753 C   0  0  0  0  0  0
  -22.4281   -8.0283   21.3544 C   0  0  0  0  0  0
  -21.9920   -9.0257   20.4646 C   0  0  0  0  0  0
  -22.7252  -10.2135   20.3054 C   0  0  0  0  0  0
  -21.6856   -6.0737   22.5279 C   0  0  0  0  0  0
  -21.4016   -6.5641   23.8212 C   0  0  0  0  0  0
  -21.3660   -5.6793   24.9174 C   0  0  0  0  0  0
  -21.6044   -4.3056   24.7225 C   0  0  0  0  0  0
  -21.8819   -3.8147   23.4346 C   0  0  0  0  0  0
  -21.9193   -4.6964   22.3402 C   0  0  0  0  0  0
  -22.7793  -13.5208   21.1880 C   0  0  0  0  0  0
  -22.1662   -4.2150   21.0980 F   0  0  0  0  0  0
  -21.5628   -3.4539   25.7737 F   0  0  0  0  0  0
  -29.9453  -13.7133   20.4038 N   0  0  0  0  0  0
  -26.2886  -12.9464   20.3265 N   0  0  0  0  0  0
  -25.9331  -11.6588   20.5745 N   0  0  0  0  0  0
  -22.0447  -12.8193   22.0437 N   0  0  0  0  0  0
  -25.4118  -15.1953   20.4146 N   0  0  0  0  0  0
  -31.6867  -15.0726   20.0357 O   0  0  0  0  0  0
  -21.6643   -6.8881   21.4241 O   0  0  0  0  0  0
  -22.3474  -14.5511   20.6725 O   0  0  0  0  0  0
  -24.6446  -31.8386   23.1821 C   0  0  0  0  0  0
  -25.9205  -32.4663   23.8229 C   0  0  1  0  0  0
  -27.2272  -27.1046   20.1591 C   0  0  0  0  0  0
  -25.5941  -33.8472   24.2148 N   0  0  0  0  0  0
  -23.4508  -30.4525   21.5267 C   0  0  2  0  0  0
  -24.9031  -28.8663   20.1039 C   0  0  0  0  0  0
  -22.7574  -29.4509   22.4837 C   0  0  0  0  0  0
  -18.0304  -28.1397   22.8476 C   0  0  0  0  0  0
  -24.1491  -36.7244   23.2645 C   0  0  0  0  0  0
  -26.0052  -30.7013   21.3845 C   0  0  0  0  0  0
  -26.0753  -29.3080   20.7281 C   0  0  0  0  0  0
  -27.2312  -28.4404   20.7401 C   0  0  0  0  0  0
  -26.0333  -26.7635   19.4906 C   0  0  0  0  0  0
  -24.8966  -27.6101   19.4696 C   0  0  0  0  0  0
  -23.6788  -29.7716   20.1478 C   0  0  0  0  0  0
  -25.4126  -36.3015   24.0311 C   0  0  1  0  0  0
  -20.5917  -28.3722   23.1233 C   0  0  2  0  0  0
  -20.6784  -26.9421   22.5410 C   0  0  0  0  0  0
  -19.5761  -26.6379   21.5215 C   0  0  0  0  0  0
  -18.1942  -26.7935   22.1623 C   0  0  0  0  0  0
  -19.1561  -28.8878   23.2846 C   0  0  0  0  0  0
  -18.9478  -30.1474   23.8872 C   0  0  0  0  0  0
  -17.6475  -30.6593   24.0559 C   0  0  0  0  0  0
  -25.9077  -34.9392   23.5046 C   0  0  0  0  0  0
  -16.5365  -29.9085   23.6337 C   0  0  0  0  0  0
  -16.7289  -28.6504   23.0357 C   0  0  0  0  0  0
  -26.4524  -31.6555   25.0692 C   0  0  0  0  0  0
  -25.3702  -31.3754   26.1384 C   0  0  0  0  0  0
  -27.0401  -30.2949   24.6301 C   0  0  0  0  0  0
  -27.6043  -32.4336   25.7482 C   0  0  0  0  0  0
  -27.5574  -37.1778   24.8466 C   0  0  0  0  0  0
  -21.4262  -29.3036   22.3595 N   0  0  0  0  0  0
  -26.4285  -37.3733   23.9407 N   0  0  0  0  0  0
  -24.7199  -31.0208   22.0863 N   0  0  0  0  0  0
  -23.4202  -28.8078   23.3016 O   0  0  0  0  0  0
  -28.3005  -26.1452   20.2988 O   0  0  0  0  0  0
  -26.5677  -34.8901   22.4634 O   0  0  0  0  0  0
  -23.5560  -32.1278   23.7026 O   0  0  0  0  0  0
  -28.8559  -20.3541   20.1164 C   0  0  0  0  0  0
  -30.8288  -20.8645   21.8659 C   0  0  0  0  0  0
  -29.6669  -19.1615   20.5308 C   0  0  0  0  0  0
  -30.6701  -19.5158   21.4610 C   0  0  0  0  0  0
  -29.0696  -21.7604   20.5822 C   0  0  0  0  0  0
  -29.6634  -17.6117   19.9117 C   0  0  0  0  0  0
  -28.1239  -23.1369   20.4649 C   0  0  0  0  0  0
  -28.4536  -24.6646   19.7812 C   0  0  0  0  0  0
  -30.0855  -21.9274   21.4559 N   0  0  0  0  0  0
  -29.7109  -16.1671   20.5931 N   0  0  0  0  0  0
  -31.7640  -18.3307   22.0845 Cl  0  0  0  0  0  0
  -31.4761  -12.7624   19.2183 H   0  0  0  0  0  0
  -30.4312  -11.6591   20.0603 H   0  0  0  0  0  0
  -29.8571  -11.7403   17.6085 H   0  0  0  0  0  0
  -29.6165  -13.4675   17.7057 H   0  0  0  0  0  0
  -27.9603  -11.2789   18.9923 H   0  0  0  0  0  0
  -27.4020  -12.4494   17.8253 H   0  0  0  0  0  0
  -27.5925  -14.2538   19.4153 H   0  0  0  0  0  0
  -28.7578  -12.3157   21.4731 H   0  0  0  0  0  0
  -28.3561  -13.9904   21.7673 H   0  0  0  0  0  0
  -25.2772   -9.5685   22.4761 H   0  0  0  0  0  0
  -24.0007   -7.4637   22.7475 H   0  0  0  0  0  0
  -21.0850   -8.8779   19.8952 H   0  0  0  0  0  0
  -22.3710  -10.9675   19.6165 H   0  0  0  0  0  0
  -21.2010   -7.6149   23.9716 H   0  0  0  0  0  0
  -21.1482   -6.0523   25.9077 H   0  0  0  0  0  0
  -22.0597   -2.7610   23.2846 H   0  0  0  0  0  0
  -22.4074  -11.9860   22.4827 H   0  0  0  0  0  0
  -21.1061  -13.1207   22.2643 H   0  0  0  0  0  0
  -24.6406  -15.8450   20.5236 H   0  0  0  0  0  0
  -26.2520  -15.6361   20.0637 H   0  0  0  0  0  0
  -26.7268  -32.5257   23.0950 H   0  0  0  0  0  0
  -25.0050  -33.9577   25.0271 H   0  0  0  0  0  0
  -22.7550  -31.2787   21.3663 H   0  0  0  0  0  0
  -23.3759  -35.9570   23.3291 H   0  0  0  0  0  0
  -24.3572  -36.8899   22.2063 H   0  0  0  0  0  0
  -23.7242  -37.6431   23.6700 H   0  0  0  0  0  0
  -26.1638  -31.4528   20.6099 H   0  0  0  0  0  0
  -26.8742  -30.7539   22.0289 H   0  0  0  0  0  0
  -28.1214  -28.7697   21.2576 H   0  0  0  0  0  0
  -25.9514  -25.7941   19.0206 H   0  0  0  0  0  0
  -23.9996  -27.2668   18.9726 H   0  0  0  0  0  0
  -23.8143  -30.5419   19.3878 H   0  0  0  0  0  0
  -22.7937  -29.2118   19.8407 H   0  0  0  0  0  0
  -25.1318  -36.1833   25.0804 H   0  0  0  0  0  0
  -21.0010  -28.3318   24.1355 H   0  0  0  0  0  0
  -20.5670  -26.2336   23.3633 H   0  0  0  0  0  0
  -21.6651  -26.7418   22.1214 H   0  0  0  0  0  0
  -19.6921  -25.6283   21.1261 H   0  0  0  0  0  0
  -19.6702  -27.3175   20.6734 H   0  0  0  0  0  0
  -17.4212  -26.6681   21.4025 H   0  0  0  0  0  0
  -18.0338  -26.0083   22.9025 H   0  0  0  0  0  0
  -19.7954  -30.7297   24.2230 H   0  0  0  0  0  0
  -17.5028  -31.6270   24.5165 H   0  0  0  0  0  0
  -15.5365  -30.2980   23.7675 H   0  0  0  0  0  0
  -15.8689  -28.0815   22.7086 H   0  0  0  0  0  0
  -24.5889  -30.7093   25.7704 H   0  0  0  0  0  0
  -24.8882  -32.2939   26.4742 H   0  0  0  0  0  0
  -25.7979  -30.8972   27.0204 H   0  0  0  0  0  0
  -26.3027  -29.6655   24.1306 H   0  0  0  0  0  0
  -27.4002  -29.7268   25.4888 H   0  0  0  0  0  0
  -27.8936  -30.4179   23.9630 H   0  0  0  0  0  0
  -27.2625  -33.3659   26.1990 H   0  0  0  0  0  0
  -28.3889  -32.6862   25.0338 H   0  0  0  0  0  0
  -28.0672  -31.8510   26.5457 H   0  0  0  0  0  0
  -28.2582  -38.0083   24.7511 H   0  0  0  0  0  0
  -28.1079  -36.2610   24.6296 H   0  0  0  0  0  0
  -27.2290  -37.1427   25.8868 H   0  0  0  0  0  0
  -20.9482  -29.8730   21.6752 H   0  0  0  0  0  0
  -26.0147  -38.2799   24.1410 H   0  0  0  0  0  0
  -28.0433  -20.1825   19.4236 H   0  0  0  0  0  0
  -31.6147  -21.1100   22.5651 H   0  0  0  0  0  0
  -30.4950  -17.6090   19.2062 H   0  0  0  0  0  0
  -28.7809  -17.5780   19.2732 H   0  0  0  0  0  0
  -27.8474  -23.3492   21.4975 H   0  0  0  0  0  0
  -27.1867  -22.8019   20.0210 H   0  0  0  0  0  0
  -28.0481  -24.6493   18.7695 H   0  0  0  0  0  0
  -29.5288  -24.6197   19.6083 H   0  0  0  0  0  0
  -28.8291  -15.9423   21.0277 H   0  0  0  0  0  0
  1 25  1  0  0  0
  1 30  2  0  0  0
  1 80  1  0  0  0
  2  3  1  0  0  0
  2 25  1  0  0  0
  2 82  1  0  0  0
  2 83  1  0  0  0
  3  4  1  0  0  0
  3 84  1  0  0  0
  3 85  1  0  0  0
  4  5  1  0  0  0
  4 86  1  0  0  0
  4 87  1  0  0  0
  5  6  1  0  0  0
  5 26  1  0  0  0
  5 88  1  0  0  0
  6 25  1  0  0  0
  6 89  1  0  0  0
  6 90  1  0  0  0
  7  8  2  0  0  0
  7 26  1  0  0  0
  7 29  1  0  0  0
  8  9  1  0  0  0
  8 22  1  0  0  0
  9 10  1  0  0  0
  9 27  2  0  0  0
 10 11  2  0  0  0
 10 15  1  0  0  0
 11 12  1  0  0  0
 11 91  1  0  0  0
 12 13  2  0  0  0
 12 92  1  0  0  0
 13 14  1  0  0  0
 13 31  1  0  0  0
 14 15  2  0  0  0
 14 93  1  0  0  0
 15 94  1  0  0  0
 16 17  2  0  0  0
 16 21  1  0  0  0
 16 31  1  0  0  0
 17 18  1  0  0  0
 17 95  1  0  0  0
 18 19  2  0  0  0
 18 96  1  0  0  0
 19 20  1  0  0  0
 19 24  1  0  0  0
 20 21  2  0  0  0
 20 97  1  0  0  0
 21 23  1  0  0  0
 22 28  1  0  0  0
 22 32  2  0  0  0
 26 27  1  0  0  0
 28 98  1  0  0  0
 28 99  1  0  0  0
 29100  1  0  0  0
 29101  1  0  0  0
 33 34  1  0  0  0
 33 66  1  0  0  0
 33 70  2  0  0  0
 34 36  1  0  0  0
 34 59  1  0  0  0
 34102  1  0  0  0
 35 44  2  0  0  0
 35 45  1  0  0  0
 35 68  1  0  0  0
 36 56  1  0  0  0
 36103  1  0  0  0
 37 39  1  0  0  0
 37 47  1  0  0  0
 37 66  1  0  0  0
 37104  1  0  0  0
 38 43  2  0  0  0
 38 46  1  0  0  0
 38 47  1  0  0  0
 39 64  1  0  0  0
 39 67  2  0  0  0
 40 52  1  0  0  0
 40 53  2  0  0  0
 40 58  1  0  0  0
 41105  1  0  0  0
 41106  1  0  0  0
 41107  1  0  0  0
 41 48  1  0  0  0
 42 43  1  0  0  0
 42 66  1  0  0  0
 42108  1  0  0  0
 42109  1  0  0  0
 43 44  1  0  0  0
 44110  1  0  0  0
 45 46  2  0  0  0
 45111  1  0  0  0
 46112  1  0  0  0
 47113  1  0  0  0
 47114  1  0  0  0
 48 56  1  0  0  0
 48 65  1  0  0  0
 48115  1  0  0  0
 49 50  1  0  0  0
 49 53  1  0  0  0
 49 64  1  0  0  0
 49116  1  0  0  0
 50 51  1  0  0  0
 50117  1  0  0  0
 50118  1  0  0  0
 51 52  1  0  0  0
 51119  1  0  0  0
 51120  1  0  0  0
 52121  1  0  0  0
 52122  1  0  0  0
 53 54  1  0  0  0
 54 55  2  0  0  0
 54123  1  0  0  0
 55 57  1  0  0  0
 55124  1  0  0  0
 56 69  2  0  0  0
 57 58  2  0  0  0
 57125  1  0  0  0
 58126  1  0  0  0
 59 60  1  0  0  0
 59 61  1  0  0  0
 59 62  1  0  0  0
 60127  1  0  0  0
 60128  1  0  0  0
 60129  1  0  0  0
 61130  1  0  0  0
 61131  1  0  0  0
 61132  1  0  0  0
 62133  1  0  0  0
 62134  1  0  0  0
 62135  1  0  0  0
 63 65  1  0  0  0
 63136  1  0  0  0
 63137  1  0  0  0
 63138  1  0  0  0
 64139  1  0  0  0
 65140  1  0  0  0
 68 78  1  0  0  0
 71 73  2  0  0  0
 71 75  1  0  0  0
 71141  1  0  0  0
 72 74  2  0  0  0
 72 79  1  0  0  0
 72142  1  0  0  0
 73 74  1  0  0  0
 73 76  1  0  0  0
 74 81  1  0  0  0
 75 77  1  0  0  0
 75 79  2  0  0  0
 76 80  1  0  0  0
 76143  1  0  0  0
 76144  1  0  0  0
 77 78  1  0  0  0
 77145  1  0  0  0
 77146  1  0  0  0
 78147  1  0  0  0
 78148  1  0  0  0
 80149  1  0  0  0
M  ISO  4   1 100  68 101  78 101  80 100
M  END
> <chiral flag>
0

> <version>
0

> <s_m_source_file>
/data/baiqing/PycharmProjects/Reinvent-master-3.2/result/LINK_invent/BTK/process_docking_weight1_custom_sum_contain_oxygen_bond_distance_aromatic_linkinvent_7_9_3/rearranged_h_0034.sdf

> <i_m_source_file_index>
90

> <r_mmod_Potential_Energy-OPLS-2005>
477.233154296875

> <r_mmod_Stretch_Energy-OPLS-2005>
298.069366455078

> <r_mmod_Bend_Energy-OPLS-2005>
332.51123046875

> <r_mmod_Torsional_Energy-OPLS-2005>
220.286270141602

> <r_mmod_Improper_Torsional_Energy-OPLS-2005>
8.1037073135376

> <r_mmod_Van_der_Waal_Energy-OPLS-2005>
125.77214050293

> <r_mmod_Electrostatic_Energy-OPLS-2005>
-492.469635009766

> <r_mmod_Solvation_Energy-OPLS-2005>
-238.383636474609

> <b_mmod_Minimization_Converged-OPLS-2005>
1

> <r_mmod_RMS_Derivative-OPLS-2005>
0.0472378619015217

$$$$
93
                    3D
 Structure written by MMmdl.
155163  0  0  1  0            999 V2000
  -30.7216  -14.5929   20.5195 C   0  0  0  0  0  0
  -30.4148  -12.3741   19.4552 C   0  0  0  0  0  0
  -29.4959  -12.4977   18.2239 C   0  0  0  0  0  0
  -28.0229  -12.3417   18.6424 C   0  0  0  0  0  0
  -27.6484  -13.2294   19.8599 C   0  0  2  0  0  0
  -28.6968  -13.1282   20.9918 C   0  0  0  0  0  0
  -25.2515  -13.8184   20.5676 C   0  0  0  0  0  0
  -24.1802  -13.0432   20.9173 C   0  0  0  0  0  0
  -24.6398  -11.6913   20.8742 C   0  0  0  0  0  0
  -23.9069  -10.4289   21.0400 C   0  0  0  0  0  0
  -24.3623   -9.4211   21.9187 C   0  0  0  0  0  0
  -23.6297   -8.2246   22.0761 C   0  0  0  0  0  0
  -22.4276   -8.0287   21.3552 C   0  0  0  0  0  0
  -21.9906   -9.0256   20.4654 C   0  0  0  0  0  0
  -22.7233  -10.2135   20.3057 C   0  0  0  0  0  0
  -21.6863   -6.0732   22.5274 C   0  0  0  0  0  0
  -21.4015   -6.5632   23.8211 C   0  0  0  0  0  0
  -21.3667   -5.6785   24.9174 C   0  0  0  0  0  0
  -21.6047   -4.3049   24.7220 C   0  0  0  0  0  0
  -21.8818   -3.8140   23.4341 C   0  0  0  0  0  0
  -21.9197   -4.6956   22.3398 C   0  0  0  0  0  0
  -22.7822  -13.5219   21.1841 C   0  0  0  0  0  0
  -22.1664   -4.2138   21.0973 F   0  0  0  0  0  0
  -21.5635   -3.4538   25.7736 F   0  0  0  0  0  0
  -30.0139  -13.4262   20.4123 N   0  0  0  0  0  0
  -26.2981  -12.9412   20.3360 N   0  0  0  0  0  0
  -25.9347  -11.6546   20.5806 N   0  0  0  0  0  0
  -22.0477  -12.8220   22.0415 N   0  0  0  0  0  0
  -25.4148  -15.1896   20.4063 N   0  0  0  0  0  0
  -31.8877  -14.6573   20.1264 O   0  0  0  0  0  0
  -21.6650   -6.8877   21.4238 O   0  0  0  0  0  0
  -22.3487  -14.5510   20.6680 O   0  0  0  0  0  0
  -24.6231  -31.8645   23.2080 C   0  0  0  0  0  0
  -25.9090  -32.4809   23.8385 C   0  0  1  0  0  0
  -27.2121  -27.3372   20.1181 C   0  0  0  0  0  0
  -25.5926  -33.8609   24.2309 N   0  0  0  0  0  0
  -23.4144  -30.4923   21.5508 C   0  0  2  0  0  0
  -24.8584  -28.9593   20.1093 C   0  0  0  0  0  0
  -22.7457  -29.4645   22.4949 C   0  0  0  0  0  0
  -18.0284  -28.1384   22.8480 C   0  0  0  0  0  0
  -24.1488  -36.7305   23.2634 C   0  0  0  0  0  0
  -25.9556  -30.8024   21.3765 C   0  0  0  0  0  0
  -26.0288  -29.4338   20.7155 C   0  0  0  0  0  0
  -27.2097  -28.6345   20.7119 C   0  0  0  0  0  0
  -26.0197  -26.9261   19.4703 C   0  0  0  0  0  0
  -24.8560  -27.7101   19.4772 C   0  0  0  0  0  0
  -23.6271  -29.8380   20.1623 C   0  0  0  0  0  0
  -25.4114  -36.3114   24.0336 C   0  0  1  0  0  0
  -20.5880  -28.3688   23.1291 C   0  0  2  0  0  0
  -20.6782  -26.9417   22.5410 C   0  0  0  0  0  0
  -19.5758  -26.6382   21.5215 C   0  0  0  0  0  0
  -18.1934  -26.7925   22.1621 C   0  0  0  0  0  0
  -19.1533  -28.8848   23.2883 C   0  0  0  0  0  0
  -18.9462  -30.1453   23.8898 C   0  0  0  0  0  0
  -17.6463  -30.6587   24.0561 C   0  0  0  0  0  0
  -25.9048  -34.9474   23.5126 C   0  0  0  0  0  0
  -16.5352  -29.9089   23.6326 C   0  0  0  0  0  0
  -16.7271  -28.6507   23.0340 C   0  0  0  0  0  0
  -26.4481  -31.6597   25.0734 C   0  0  0  0  0  0
  -25.3716  -31.3728   26.1461 C   0  0  0  0  0  0
  -27.0307  -30.3022   24.6165 C   0  0  0  0  0  0
  -27.6057  -32.4310   25.7497 C   0  0  0  0  0  0
  -27.5589  -37.1805   24.8459 C   0  0  0  0  0  0
  -21.4168  -29.3054   22.3689 N   0  0  0  0  0  0
  -26.4294  -37.3807   23.9414 N   0  0  0  0  0  0
  -24.6833  -31.0676   22.1023 N   0  0  0  0  0  0
  -23.4193  -28.8171   23.3005 O   0  0  0  0  0  0
  -28.3119  -26.4687   20.2020 O   0  0  0  0  0  0
  -26.5615  -34.8934   22.4689 O   0  0  0  0  0  0
  -23.5403  -32.1429   23.7428 O   0  0  0  0  0  0
  -30.4616  -20.9032   20.5119 C   0  0  0  0  0  0
  -31.0029  -19.6037   20.7064 C   0  0  0  0  0  0
  -30.1450  -18.4786   20.9246 C   0  0  0  0  0  0
  -29.0710  -21.1017   20.5577 C   0  0  0  0  0  0
  -28.7608  -18.7927   20.9912 C   0  0  0  0  0  0
  -32.5176  -19.4599   20.6659 C   0  0  0  0  0  0
  -30.7733  -17.0481   21.1694 C   0  0  0  0  0  0
  -28.3635  -22.4454   20.1977 C   0  0  0  0  0  0
  -28.9757  -23.8701   20.5196 C   0  0  0  0  0  0
  -28.0132  -25.0319   20.0420 C   0  0  0  0  0  0
  -28.2557  -20.0463   20.8050 N   0  0  0  0  0  0
  -30.0818  -15.7326   20.9240 N   0  0  0  0  0  0
  -27.6053  -17.5620   21.3442 Cl  0  0  0  0  0  0
  -31.4595  -12.4525   19.1505 H   0  0  0  0  0  0
  -30.3147  -11.3895   19.9153 H   0  0  0  0  0  0
  -29.7562  -11.7425   17.4810 H   0  0  0  0  0  0
  -29.6454  -13.4665   17.7450 H   0  0  0  0  0  0
  -27.8643  -11.2913   18.8891 H   0  0  0  0  0  0
  -27.3648  -12.5603   17.7999 H   0  0  0  0  0  0
  -27.6553  -14.2578   19.4987 H   0  0  0  0  0  0
  -28.7010  -12.1293   21.4301 H   0  0  0  0  0  0
  -28.4550  -13.8154   21.8041 H   0  0  0  0  0  0
  -25.2772   -9.5693   22.4755 H   0  0  0  0  0  0
  -24.0013   -7.4637   22.7476 H   0  0  0  0  0  0
  -21.0840   -8.8767   19.8953 H   0  0  0  0  0  0
  -22.3690  -10.9677   19.6162 H   0  0  0  0  0  0
  -21.2006   -7.6143   23.9702 H   0  0  0  0  0  0
  -21.1498   -6.0522   25.9071 H   0  0  0  0  0  0
  -22.0594   -2.7597   23.2844 H   0  0  0  0  0  0
  -22.4109  -11.9891   22.4816 H   0  0  0  0  0  0
  -21.1098  -13.1252   22.2623 H   0  0  0  0  0  0
  -24.6529  -15.8436   20.5448 H   0  0  0  0  0  0
  -26.2826  -15.6485   20.1608 H   0  0  0  0  0  0
  -26.7151  -32.5481   23.1129 H   0  0  0  0  0  0
  -25.0060  -33.9758   25.0448 H   0  0  0  0  0  0
  -22.7070  -31.3129   21.4156 H   0  0  0  0  0  0
  -23.3770  -35.9614   23.3281 H   0  0  0  0  0  0
  -24.3590  -36.8935   22.2051 H   0  0  0  0  0  0
  -23.7209  -37.6495   23.6652 H   0  0  0  0  0  0
  -26.0843  -31.5701   20.6120 H   0  0  0  0  0  0
  -26.8376  -30.8479   22.0037 H   0  0  0  0  0  0
  -28.1035  -28.9926   21.2025 H   0  0  0  0  0  0
  -25.9433  -25.9769   18.9623 H   0  0  0  0  0  0
  -23.9597  -27.3426   18.9961 H   0  0  0  0  0  0
  -23.7475  -30.6218   19.4135 H   0  0  0  0  0  0
  -22.7455  -29.2729   19.8545 H   0  0  0  0  0  0
  -25.1290  -36.1980   25.0829 H   0  0  0  0  0  0
  -20.9974  -28.3268   24.1410 H   0  0  0  0  0  0
  -20.5702  -26.2302   23.3611 H   0  0  0  0  0  0
  -21.6652  -26.7459   22.1196 H   0  0  0  0  0  0
  -19.6929  -25.6295   21.1247 H   0  0  0  0  0  0
  -19.6698  -27.3194   20.6748 H   0  0  0  0  0  0
  -17.4209  -26.6666   21.4019 H   0  0  0  0  0  0
  -18.0332  -26.0068   22.9019 H   0  0  0  0  0  0
  -19.7939  -30.7268   24.2268 H   0  0  0  0  0  0
  -17.5020  -31.6268   24.5167 H   0  0  0  0  0  0
  -15.5358  -30.2995   23.7654 H   0  0  0  0  0  0
  -15.8667  -28.0840   22.7044 H   0  0  0  0  0  0
  -24.5895  -30.7076   25.7780 H   0  0  0  0  0  0
  -24.8902  -32.2893   26.4882 H   0  0  0  0  0  0
  -25.8037  -30.8900   27.0235 H   0  0  0  0  0  0
  -26.2869  -29.6795   24.1182 H   0  0  0  0  0  0
  -27.4001  -29.7256   25.4655 H   0  0  0  0  0  0
  -27.8744  -30.4309   23.9380 H   0  0  0  0  0  0
  -27.2681  -33.3600   26.2102 H   0  0  0  0  0  0
  -28.3855  -32.6881   25.0316 H   0  0  0  0  0  0
  -28.0737  -31.8413   26.5390 H   0  0  0  0  0  0
  -28.2598  -38.0113   24.7555 H   0  0  0  0  0  0
  -28.1100  -36.2657   24.6231 H   0  0  0  0  0  0
  -27.2315  -37.1393   25.8861 H   0  0  0  0  0  0
  -20.9341  -29.8790   21.6918 H   0  0  0  0  0  0
  -26.0188  -38.2880   24.1447 H   0  0  0  0  0  0
  -31.1126  -21.7428   20.3050 H   0  0  0  0  0  0
  -33.0081  -20.4297   20.7531 H   0  0  0  0  0  0
  -32.8295  -19.0127   19.7218 H   0  0  0  0  0  0
  -32.8896  -18.8423   21.4838 H   0  0  0  0  0  0
  -31.1044  -17.0322   22.2090 H   0  0  0  0  0  0
  -31.6932  -17.0289   20.5866 H   0  0  0  0  0  0
  -27.3731  -22.4089   20.6532 H   0  0  0  0  0  0
  -28.1840  -22.3990   19.1236 H   0  0  0  0  0  0
  -29.9453  -23.9693   20.0343 H   0  0  0  0  0  0
  -29.1493  -23.9557   21.5928 H   0  0  0  0  0  0
  -27.0693  -24.8312   20.5535 H   0  0  0  0  0  0
  -27.8338  -24.8680   18.9789 H   0  0  0  0  0  0
  -29.1082  -15.6549   21.1791 H   0  0  0  0  0  0
  1 25  1  0  0  0
  1 30  2  0  0  0
  1 82  1  0  0  0
  2  3  1  0  0  0
  2 25  1  0  0  0
  2 84  1  0  0  0
  2 85  1  0  0  0
  3  4  1  0  0  0
  3 86  1  0  0  0
  3 87  1  0  0  0
  4  5  1  0  0  0
  4 88  1  0  0  0
  4 89  1  0  0  0
  5  6  1  0  0  0
  5 26  1  0  0  0
  5 90  1  0  0  0
  6 25  1  0  0  0
  6 91  1  0  0  0
  6 92  1  0  0  0
  7  8  2  0  0  0
  7 26  1  0  0  0
  7 29  1  0  0  0
  8  9  1  0  0  0
  8 22  1  0  0  0
  9 10  1  0  0  0
  9 27  2  0  0  0
 10 11  2  0  0  0
 10 15  1  0  0  0
 11 12  1  0  0  0
 11 93  1  0  0  0
 12 13  2  0  0  0
 12 94  1  0  0  0
 13 14  1  0  0  0
 13 31  1  0  0  0
 14 15  2  0  0  0
 14 95  1  0  0  0
 15 96  1  0  0  0
 16 17  2  0  0  0
 16 21  1  0  0  0
 16 31  1  0  0  0
 17 18  1  0  0  0
 17 97  1  0  0  0
 18 19  2  0  0  0
 18 98  1  0  0  0
 19 20  1  0  0  0
 19 24  1  0  0  0
 20 21  2  0  0  0
 20 99  1  0  0  0
 21 23  1  0  0  0
 22 28  1  0  0  0
 22 32  2  0  0  0
 26 27  1  0  0  0
 28100  1  0  0  0
 28101  1  0  0  0
 29102  1  0  0  0
 29103  1  0  0  0
 33 34  1  0  0  0
 33 66  1  0  0  0
 33 70  2  0  0  0
 34 36  1  0  0  0
 34 59  1  0  0  0
 34104  1  0  0  0
 35 44  2  0  0  0
 35 45  1  0  0  0
 35 68  1  0  0  0
 36 56  1  0  0  0
 36105  1  0  0  0
 37 39  1  0  0  0
 37 47  1  0  0  0
 37 66  1  0  0  0
 37106  1  0  0  0
 38 43  2  0  0  0
 38 46  1  0  0  0
 38 47  1  0  0  0
 39 64  1  0  0  0
 39 67  2  0  0  0
 40 52  1  0  0  0
 40 53  2  0  0  0
 40 58  1  0  0  0
 41107  1  0  0  0
 41108  1  0  0  0
 41109  1  0  0  0
 41 48  1  0  0  0
 42 43  1  0  0  0
 42 66  1  0  0  0
 42110  1  0  0  0
 42111  1  0  0  0
 43 44  1  0  0  0
 44112  1  0  0  0
 45 46  2  0  0  0
 45113  1  0  0  0
 46114  1  0  0  0
 47115  1  0  0  0
 47116  1  0  0  0
 48 56  1  0  0  0
 48 65  1  0  0  0
 48117  1  0  0  0
 49 50  1  0  0  0
 49 53  1  0  0  0
 49 64  1  0  0  0
 49118  1  0  0  0
 50 51  1  0  0  0
 50119  1  0  0  0
 50120  1  0  0  0
 51 52  1  0  0  0
 51121  1  0  0  0
 51122  1  0  0  0
 52123  1  0  0  0
 52124  1  0  0  0
 53 54  1  0  0  0
 54 55  2  0  0  0
 54125  1  0  0  0
 55 57  1  0  0  0
 55126  1  0  0  0
 56 69  2  0  0  0
 57 58  2  0  0  0
 57127  1  0  0  0
 58128  1  0  0  0
 59 60  1  0  0  0
 59 61  1  0  0  0
 59 62  1  0  0  0
 60129  1  0  0  0
 60130  1  0  0  0
 60131  1  0  0  0
 61132  1  0  0  0
 61133  1  0  0  0
 61134  1  0  0  0
 62135  1  0  0  0
 62136  1  0  0  0
 62137  1  0  0  0
 63 65  1  0  0  0
 63138  1  0  0  0
 63139  1  0  0  0
 63140  1  0  0  0
 64141  1  0  0  0
 65142  1  0  0  0
 68 80  1  0  0  0
 71 72  2  0  0  0
 71 74  1  0  0  0
 71143  1  0  0  0
 72 73  1  0  0  0
 72 76  1  0  0  0
 73 75  2  0  0  0
 73 77  1  0  0  0
 74 78  1  0  0  0
 74 81  2  0  0  0
 75 81  1  0  0  0
 75 83  1  0  0  0
 76144  1  0  0  0
 76145  1  0  0  0
 76146  1  0  0  0
 77 82  1  0  0  0
 77147  1  0  0  0
 77148  1  0  0  0
 78 79  1  0  0  0
 78149  1  0  0  0
 78150  1  0  0  0
 79 80  1  0  0  0
 79151  1  0  0  0
 79152  1  0  0  0
 80153  1  0  0  0
 80154  1  0  0  0
 82155  1  0  0  0
M  ISO  4   1 100  68 101  80 101  82 100
M  END
> <chiral flag>
0

> <version>
0

> <s_m_source_file>
/data/baiqing/PycharmProjects/Reinvent-master-3.2/result/LINK_invent/BTK/process_docking_weight1_custom_sum_contain_oxygen_bond_distance_aromatic_linkinvent_7_9_3/rearranged_h_0034.sdf

> <i_m_source_file_index>
91

> <r_mmod_Potential_Energy-OPLS-2005>
-85.8182525634766

> <r_mmod_Stretch_Energy-OPLS-2005>
71.5414276123047

> <r_mmod_Bend_Energy-OPLS-2005>
153.282653808594

> <r_mmod_Torsional_Energy-OPLS-2005>
195.641510009766

> <r_mmod_Improper_Torsional_Energy-OPLS-2005>
3.70781326293945

> <r_mmod_Van_der_Waal_Energy-OPLS-2005>
159.034133911133

> <r_mmod_Electrostatic_Energy-OPLS-2005>
-508.121978759766

> <r_mmod_Solvation_Energy-OPLS-2005>
-206.249740600586

> <b_mmod_Minimization_Converged-OPLS-2005>
0

> <r_mmod_RMS_Derivative-OPLS-2005>
1.57563519477844

$$$$
94
                    3D
 Structure written by MMmdl.
165174  0  0  1  0            999 V2000
  -30.6730  -14.5447   20.5517 C   0  0  0  0  0  0
  -30.4286  -12.3474   19.4500 C   0  0  0  0  0  0
  -29.5037  -12.4956   18.2249 C   0  0  0  0  0  0
  -28.0249  -12.3474   18.6343 C   0  0  0  0  0  0
  -27.6553  -13.2119   19.8684 C   0  0  2  0  0  0
  -28.6940  -13.0444   21.0001 C   0  0  0  0  0  0
  -25.2565  -13.8176   20.5689 C   0  0  0  0  0  0
  -24.1829  -13.0442   20.9194 C   0  0  0  0  0  0
  -24.6394  -11.6910   20.8741 C   0  0  0  0  0  0
  -23.9064  -10.4296   21.0399 C   0  0  0  0  0  0
  -24.3615   -9.4212   21.9175 C   0  0  0  0  0  0
  -23.6298   -8.2246   22.0753 C   0  0  0  0  0  0
  -22.4281   -8.0282   21.3545 C   0  0  0  0  0  0
  -21.9909   -9.0243   20.4643 C   0  0  0  0  0  0
  -22.7233  -10.2128   20.3051 C   0  0  0  0  0  0
  -21.6842   -6.0736   22.5280 C   0  0  0  0  0  0
  -21.4002   -6.5638   23.8211 C   0  0  0  0  0  0
  -21.3665   -5.6793   24.9175 C   0  0  0  0  0  0
  -21.6048   -4.3057   24.7217 C   0  0  0  0  0  0
  -21.8820   -3.8152   23.4338 C   0  0  0  0  0  0
  -21.9191   -4.6971   22.3402 C   0  0  0  0  0  0
  -22.7853  -13.5235   21.1851 C   0  0  0  0  0  0
  -22.1658   -4.2161   21.0973 F   0  0  0  0  0  0
  -21.5639   -3.4544   25.7729 F   0  0  0  0  0  0
  -30.0194  -13.3547   20.4442 N   0  0  0  0  0  0
  -26.2986  -12.9345   20.3330 N   0  0  0  0  0  0
  -25.9319  -11.6510   20.5769 N   0  0  0  0  0  0
  -22.0490  -12.8236   22.0403 N   0  0  0  0  0  0
  -25.4294  -15.1901   20.4101 N   0  0  0  0  0  0
  -31.8228  -14.7002   20.1297 O   0  0  0  0  0  0
  -21.6642   -6.8877   21.4241 O   0  0  0  0  0  0
  -22.3546  -14.5539   20.6693 O   0  0  0  0  0  0
  -24.6177  -31.8657   23.2055 C   0  0  0  0  0  0
  -25.9052  -32.4809   23.8370 C   0  0  1  0  0  0
  -27.2183  -27.3927   20.1107 C   0  0  0  0  0  0
  -25.5884  -33.8622   24.2300 N   0  0  0  0  0  0
  -23.4046  -30.4874   21.5492 C   0  0  2  0  0  0
  -24.8456  -28.9491   20.1128 C   0  0  0  0  0  0
  -22.7415  -29.4639   22.5003 C   0  0  0  0  0  0
  -18.0264  -28.1390   22.8491 C   0  0  0  0  0  0
  -24.1481  -36.7322   23.2643 C   0  0  0  0  0  0
  -25.9367  -30.8209   21.3615 C   0  0  0  0  0  0
  -26.0083  -29.4518   20.7102 C   0  0  0  0  0  0
  -27.1945  -28.6809   20.7024 C   0  0  0  0  0  0
  -26.0378  -26.9146   19.4994 C   0  0  0  0  0  0
  -24.8573  -27.6846   19.5014 C   0  0  0  0  0  0
  -23.6102  -29.8200   20.1628 C   0  0  0  0  0  0
  -25.4107  -36.3126   24.0332 C   0  0  1  0  0  0
  -20.5846  -28.3659   23.1346 C   0  0  2  0  0  0
  -20.6763  -26.9401   22.5437 C   0  0  0  0  0  0
  -19.5739  -26.6390   21.5226 C   0  0  0  0  0  0
  -18.1907  -26.7936   22.1621 C   0  0  0  0  0  0
  -19.1510  -28.8844   23.2899 C   0  0  0  0  0  0
  -18.9439  -30.1443   23.8907 C   0  0  0  0  0  0
  -17.6445  -30.6591   24.0573 C   0  0  0  0  0  0
  -25.9042  -34.9486   23.5132 C   0  0  0  0  0  0
  -16.5335  -29.9099   23.6334 C   0  0  0  0  0  0
  -16.7248  -28.6520   23.0347 C   0  0  0  0  0  0
  -26.4454  -31.6609   25.0726 C   0  0  0  0  0  0
  -25.3719  -31.3732   26.1473 C   0  0  0  0  0  0
  -27.0275  -30.3047   24.6135 C   0  0  0  0  0  0
  -27.6021  -32.4335   25.7480 C   0  0  0  0  0  0
  -27.5580  -37.1810   24.8460 C   0  0  0  0  0  0
  -21.4133  -29.3028   22.3754 N   0  0  0  0  0  0
  -26.4292  -37.3809   23.9407 N   0  0  0  0  0  0
  -24.6723  -31.0727   22.0969 N   0  0  0  0  0  0
  -23.4182  -28.8176   23.3050 O   0  0  0  0  0  0
  -28.3866  -26.6498   20.1522 O   0  0  0  0  0  0
  -26.5624  -34.8943   22.4705 O   0  0  0  0  0  0
  -23.5359  -32.1409   23.7428 O   0  0  0  0  0  0
  -29.1942  -19.3251   20.7015 C   0  0  0  0  0  0
  -28.5609  -20.4341   21.3215 C   0  0  0  0  0  0
  -29.5257  -18.1646   21.4614 C   0  0  0  0  0  0
  -28.2223  -20.3089   22.6731 C   0  0  0  0  0  0
  -29.2084  -18.1996   22.8455 C   0  0  0  0  0  0
  -28.2512  -21.7710   20.6109 C   0  0  0  0  0  0
  -27.5541  -21.4856   23.3562 C   0  0  0  0  0  0
  -28.3105  -22.7813   23.0190 C   0  0  0  0  0  0
  -28.4866  -23.0567   21.4920 C   0  0  2  0  0  0
  -31.1737  -17.2696   24.1801 C   0  0  0  0  0  0
  -30.3493  -17.0240   20.7951 C   0  0  0  0  0  0
  -29.6824  -17.1355   23.8280 C   0  0  0  0  0  0
  -27.7195  -24.3579   21.0433 C   0  0  0  0  0  0
  -28.3727  -25.2181   19.9153 C   0  0  0  0  0  0
  -28.5556  -19.2379   23.4222 N   0  0  0  0  0  0
  -29.9340  -15.6073   20.9606 N   0  0  0  0  0  0
  -31.4703  -12.4617   19.1464 H   0  0  0  0  0  0
  -30.3529  -11.3465   19.8769 H   0  0  0  0  0  0
  -29.7610  -11.7518   17.4701 H   0  0  0  0  0  0
  -29.6601  -13.4684   17.7577 H   0  0  0  0  0  0
  -27.8504  -11.2938   18.8557 H   0  0  0  0  0  0
  -27.3744  -12.5901   17.7939 H   0  0  0  0  0  0
  -27.6845  -14.2505   19.5397 H   0  0  0  0  0  0
  -28.6842  -12.0231   21.3836 H   0  0  0  0  0  0
  -28.4504  -13.6837   21.8499 H   0  0  0  0  0  0
  -25.2755   -9.5696   22.4754 H   0  0  0  0  0  0
  -24.0007   -7.4638   22.7471 H   0  0  0  0  0  0
  -21.0843   -8.8748   19.8949 H   0  0  0  0  0  0
  -22.3675  -10.9660   19.6170 H   0  0  0  0  0  0
  -21.1978   -7.6141   23.9720 H   0  0  0  0  0  0
  -21.1495   -6.0518   25.9076 H   0  0  0  0  0  0
  -22.0598   -2.7616   23.2836 H   0  0  0  0  0  0
  -22.4084  -11.9888   22.4785 H   0  0  0  0  0  0
  -21.1111  -13.1272   22.2593 H   0  0  0  0  0  0
  -24.6653  -15.8469   20.5236 H   0  0  0  0  0  0
  -26.2802  -15.6277   20.0790 H   0  0  0  0  0  0
  -26.7130  -32.5494   23.1130 H   0  0  0  0  0  0
  -25.0002  -33.9772   25.0425 H   0  0  0  0  0  0
  -22.6967  -31.3064   21.4105 H   0  0  0  0  0  0
  -23.3752  -35.9640   23.3315 H   0  0  0  0  0  0
  -24.3587  -36.8946   22.2058 H   0  0  0  0  0  0
  -23.7204  -37.6522   23.6652 H   0  0  0  0  0  0
  -26.0598  -31.5848   20.5915 H   0  0  0  0  0  0
  -26.8236  -30.8714   21.9837 H   0  0  0  0  0  0
  -28.0910  -29.0634   21.1720 H   0  0  0  0  0  0
  -26.0036  -25.9483   19.0207 H   0  0  0  0  0  0
  -23.9625  -27.2937   19.0361 H   0  0  0  0  0  0
  -23.7200  -30.5952   19.4047 H   0  0  0  0  0  0
  -22.7319  -29.2454   19.8643 H   0  0  0  0  0  0
  -25.1286  -36.1996   25.0820 H   0  0  0  0  0  0
  -20.9903  -28.3205   24.1476 H   0  0  0  0  0  0
  -20.5673  -26.2257   23.3611 H   0  0  0  0  0  0
  -21.6632  -26.7461   22.1213 H   0  0  0  0  0  0
  -19.6902  -25.6304   21.1243 H   0  0  0  0  0  0
  -19.6682  -27.3219   20.6771 H   0  0  0  0  0  0
  -17.4181  -26.6659   21.4024 H   0  0  0  0  0  0
  -18.0297  -26.0081   22.9018 H   0  0  0  0  0  0
  -19.7912  -30.7247   24.2280 H   0  0  0  0  0  0
  -17.5011  -31.6270   24.5173 H   0  0  0  0  0  0
  -15.5337  -30.3020   23.7671 H   0  0  0  0  0  0
  -15.8629  -28.0858   22.7076 H   0  0  0  0  0  0
  -24.5858  -30.7115   25.7818 H   0  0  0  0  0  0
  -24.8945  -32.2902   26.4944 H   0  0  0  0  0  0
  -25.8063  -30.8873   27.0219 H   0  0  0  0  0  0
  -26.2831  -29.6821   24.1158 H   0  0  0  0  0  0
  -27.4008  -29.7265   25.4598 H   0  0  0  0  0  0
  -27.8681  -30.4370   23.9321 H   0  0  0  0  0  0
  -27.2635  -33.3620   26.2081 H   0  0  0  0  0  0
  -28.3805  -32.6922   25.0296 H   0  0  0  0  0  0
  -28.0717  -31.8459   26.5374 H   0  0  0  0  0  0
  -28.2608  -38.0106   24.7541 H   0  0  0  0  0  0
  -28.1072  -36.2643   24.6248 H   0  0  0  0  0  0
  -27.2310  -37.1432   25.8869 H   0  0  0  0  0  0
  -20.9291  -29.8765   21.6995 H   0  0  0  0  0  0
  -26.0194  -38.2892   24.1410 H   0  0  0  0  0  0
  -29.4656  -19.3835   19.6574 H   0  0  0  0  0  0
  -27.2009  -21.7292   20.3172 H   0  0  0  0  0  0
  -28.8191  -21.8436   19.6839 H   0  0  0  0  0  0
  -27.5136  -21.3343   24.4359 H   0  0  0  0  0  0
  -26.5204  -21.5597   23.0148 H   0  0  0  0  0  0
  -29.3037  -22.6932   23.4618 H   0  0  0  0  0  0
  -27.8440  -23.6172   23.5412 H   0  0  0  0  0  0
  -29.5480  -23.2881   21.3995 H   0  0  0  0  0  0
  -31.4636  -16.5360   24.9317 H   0  0  0  0  0  0
  -31.4043  -18.2604   24.5726 H   0  0  0  0  0  0
  -31.8061  -17.1050   23.3103 H   0  0  0  0  0  0
  -31.3818  -17.1317   21.1269 H   0  0  0  0  0  0
  -30.3835  -17.2169   19.7224 H   0  0  0  0  0  0
  -29.4651  -16.1406   23.4480 H   0  0  0  0  0  0
  -29.1055  -17.2165   24.7504 H   0  0  0  0  0  0
  -27.6251  -25.0258   21.8995 H   0  0  0  0  0  0
  -26.6916  -24.1133   20.7720 H   0  0  0  0  0  0
  -27.9504  -24.9732   18.9397 H   0  0  0  0  0  0
  -29.4223  -24.9382   19.8312 H   0  0  0  0  0  0
  -28.9834  -15.4201   21.2367 H   0  0  0  0  0  0
  1 25  1  0  0  0
  1 30  2  0  0  0
  1 86  1  0  0  0
  2  3  1  0  0  0
  2 25  1  0  0  0
  2 87  1  0  0  0
  2 88  1  0  0  0
  3  4  1  0  0  0
  3 89  1  0  0  0
  3 90  1  0  0  0
  4  5  1  0  0  0
  4 91  1  0  0  0
  4 92  1  0  0  0
  5  6  1  0  0  0
  5 26  1  0  0  0
  5 93  1  0  0  0
  6 25  1  0  0  0
  6 94  1  0  0  0
  6 95  1  0  0  0
  7  8  2  0  0  0
  7 26  1  0  0  0
  7 29  1  0  0  0
  8  9  1  0  0  0
  8 22  1  0  0  0
  9 10  1  0  0  0
  9 27  2  0  0  0
 10 11  2  0  0  0
 10 15  1  0  0  0
 11 12  1  0  0  0
 11 96  1  0  0  0
 12 13  2  0  0  0
 12 97  1  0  0  0
 13 14  1  0  0  0
 13 31  1  0  0  0
 14 15  2  0  0  0
 14 98  1  0  0  0
 15 99  1  0  0  0
 16 17  2  0  0  0
 16 21  1  0  0  0
 16 31  1  0  0  0
 17 18  1  0  0  0
 17100  1  0  0  0
 18 19  2  0  0  0
 18101  1  0  0  0
 19 20  1  0  0  0
 19 24  1  0  0  0
 20 21  2  0  0  0
 20102  1  0  0  0
 21 23  1  0  0  0
 22 28  1  0  0  0
 22 32  2  0  0  0
 26 27  1  0  0  0
 28103  1  0  0  0
 28104  1  0  0  0
 29105  1  0  0  0
 29106  1  0  0  0
 33 34  1  0  0  0
 33 66  1  0  0  0
 33 70  2  0  0  0
 34 36  1  0  0  0
 34 59  1  0  0  0
 34107  1  0  0  0
 35 44  2  0  0  0
 35 45  1  0  0  0
 35 68  1  0  0  0
 36 56  1  0  0  0
 36108  1  0  0  0
 37 39  1  0  0  0
 37 47  1  0  0  0
 37 66  1  0  0  0
 37109  1  0  0  0
 38 43  2  0  0  0
 38 46  1  0  0  0
 38 47  1  0  0  0
 39 64  1  0  0  0
 39 67  2  0  0  0
 40 52  1  0  0  0
 40 53  2  0  0  0
 40 58  1  0  0  0
 41110  1  0  0  0
 41111  1  0  0  0
 41112  1  0  0  0
 41 48  1  0  0  0
 42 43  1  0  0  0
 42 66  1  0  0  0
 42113  1  0  0  0
 42114  1  0  0  0
 43 44  1  0  0  0
 44115  1  0  0  0
 45 46  2  0  0  0
 45116  1  0  0  0
 46117  1  0  0  0
 47118  1  0  0  0
 47119  1  0  0  0
 48 56  1  0  0  0
 48 65  1  0  0  0
 48120  1  0  0  0
 49 50  1  0  0  0
 49 53  1  0  0  0
 49 64  1  0  0  0
 49121  1  0  0  0
 50 51  1  0  0  0
 50122  1  0  0  0
 50123  1  0  0  0
 51 52  1  0  0  0
 51124  1  0  0  0
 51125  1  0  0  0
 52126  1  0  0  0
 52127  1  0  0  0
 53 54  1  0  0  0
 54 55  2  0  0  0
 54128  1  0  0  0
 55 57  1  0  0  0
 55129  1  0  0  0
 56 69  2  0  0  0
 57 58  2  0  0  0
 57130  1  0  0  0
 58131  1  0  0  0
 59 60  1  0  0  0
 59 61  1  0  0  0
 59 62  1  0  0  0
 60132  1  0  0  0
 60133  1  0  0  0
 60134  1  0  0  0
 61135  1  0  0  0
 61136  1  0  0  0
 61137  1  0  0  0
 62138  1  0  0  0
 62139  1  0  0  0
 62140  1  0  0  0
 63 65  1  0  0  0
 63141  1  0  0  0
 63142  1  0  0  0
 63143  1  0  0  0
 64144  1  0  0  0
 65145  1  0  0  0
 68 84  1  0  0  0
 71 72  2  0  0  0
 71 73  1  0  0  0
 71146  1  0  0  0
 72 74  1  0  0  0
 72 76  1  0  0  0
 73 75  2  0  0  0
 73 81  1  0  0  0
 74 77  1  0  0  0
 74 85  2  0  0  0
 75 82  1  0  0  0
 75 85  1  0  0  0
 76 79  1  0  0  0
 76147  1  0  0  0
 76148  1  0  0  0
 77 78  1  0  0  0
 77149  1  0  0  0
 77150  1  0  0  0
 78 79  1  0  0  0
 78151  1  0  0  0
 78152  1  0  0  0
 79 83  1  0  0  0
 79153  1  0  0  0
 80 82  1  0  0  0
 80154  1  0  0  0
 80155  1  0  0  0
 80156  1  0  0  0
 81 86  1  0  0  0
 81157  1  0  0  0
 81158  1  0  0  0
 82159  1  0  0  0
 82160  1  0  0  0
 83 84  1  0  0  0
 83161  1  0  0  0
 83162  1  0  0  0
 84163  1  0  0  0
 84164  1  0  0  0
 86165  1  0  0  0
M  ISO  4   1 100  68 101  84 101  86 100
M  END
> <chiral flag>
0

> <version>
0

> <s_m_source_file>
/data/baiqing/PycharmProjects/Reinvent-master-3.2/result/LINK_invent/BTK/process_docking_weight1_custom_sum_contain_oxygen_bond_distance_aromatic_linkinvent_7_9_3/rearranged_h_0034.sdf

> <i_m_source_file_index>
92

> <r_mmod_Potential_Energy-OPLS-2005>
-159.148818969727

> <r_mmod_Stretch_Energy-OPLS-2005>
51.9299507141113

> <r_mmod_Bend_Energy-OPLS-2005>
121.790344238281

> <r_mmod_Torsional_Energy-OPLS-2005>
224.586776733398

> <r_mmod_Improper_Torsional_Energy-OPLS-2005>
5.82593536376953

> <r_mmod_Van_der_Waal_Energy-OPLS-2005>
155.512756347656

> <r_mmod_Electrostatic_Energy-OPLS-2005>
-528.205932617188

> <r_mmod_Solvation_Energy-OPLS-2005>
-213.903427124023

> <b_mmod_Minimization_Converged-OPLS-2005>
0

> <r_mmod_RMS_Derivative-OPLS-2005>
2.77555656433105

$$$$
95
                    3D
 Structure written by MMmdl.
168177  0  0  1  0            999 V2000
  -30.4288  -15.2658   20.3710 C   0  0  0  0  0  0
  -30.4355  -12.8002   19.5230 C   0  0  0  0  0  0
  -29.5393  -12.5775   18.2797 C   0  0  0  0  0  0
  -28.0791  -12.3210   18.7010 C   0  0  0  0  0  0
  -27.6177  -13.2834   19.8342 C   0  0  2  0  0  0
  -28.6651  -13.4368   20.9641 C   0  0  0  0  0  0
  -25.2452  -13.8301   20.5852 C   0  0  0  0  0  0
  -24.1803  -13.0486   20.9332 C   0  0  0  0  0  0
  -24.6439  -11.6981   20.8868 C   0  0  0  0  0  0
  -23.9130  -10.4344   21.0426 C   0  0  0  0  0  0
  -24.3691   -9.4268   21.9153 C   0  0  0  0  0  0
  -23.6414   -8.2311   22.0713 C   0  0  0  0  0  0
  -22.4393   -8.0366   21.3567 C   0  0  0  0  0  0
  -22.0031   -9.0292   20.4635 C   0  0  0  0  0  0
  -22.7325  -10.2175   20.3044 C   0  0  0  0  0  0
  -21.6867   -6.0825   22.5353 C   0  0  0  0  0  0
  -21.3952   -6.5680   23.8292 C   0  0  0  0  0  0
  -21.3658   -5.6823   24.9256 C   0  0  0  0  0  0
  -21.6058   -4.3084   24.7285 C   0  0  0  0  0  0
  -21.8811   -3.8211   23.4391 C   0  0  0  0  0  0
  -21.9172   -4.7037   22.3453 C   0  0  0  0  0  0
  -22.7813  -13.5287   21.1976 C   0  0  0  0  0  0
  -22.1654   -4.2223   21.1028 F   0  0  0  0  0  0
  -21.5601   -3.4523   25.7757 F   0  0  0  0  0  0
  -29.8803  -13.9535   20.3262 N   0  0  0  0  0  0
  -26.2902  -12.9561   20.3376 N   0  0  0  0  0  0
  -25.9381  -11.6653   20.5785 N   0  0  0  0  0  0
  -22.0447  -12.8239   22.0498 N   0  0  0  0  0  0
  -25.4041  -15.2049   20.4235 N   0  0  0  0  0  0
  -31.6488  -15.2847   20.1513 O   0  0  0  0  0  0
  -21.6762   -6.8988   21.4326 O   0  0  0  0  0  0
  -22.3539  -14.5625   20.6872 O   0  0  0  0  0  0
  -24.6632  -31.8209   23.1699 C   0  0  0  0  0  0
  -25.9336  -32.4526   23.8135 C   0  0  1  0  0  0
  -27.2000  -26.9066   20.2048 C   0  0  0  0  0  0
  -25.6031  -33.8342   24.2022 N   0  0  0  0  0  0
  -23.4827  -30.4288   21.5153 C   0  0  2  0  0  0
  -24.9303  -28.8236   20.1003 C   0  0  0  0  0  0
  -22.7750  -29.4408   22.4808 C   0  0  0  0  0  0
  -18.0342  -28.1384   22.8539 C   0  0  0  0  0  0
  -24.1542  -36.7159   23.2674 C   0  0  0  0  0  0
  -26.0541  -30.6221   21.4072 C   0  0  0  0  0  0
  -26.1144  -29.2163   20.7453 C   0  0  0  0  0  0
  -27.2462  -28.2847   20.7484 C   0  0  0  0  0  0
  -25.9880  -26.6706   19.5146 C   0  0  0  0  0  0
  -24.9055  -27.5784   19.4560 C   0  0  0  0  0  0
  -23.7171  -29.7475   20.1367 C   0  0  0  0  0  0
  -25.4209  -36.2953   24.0300 C   0  0  1  0  0  0
  -20.5994  -28.3729   23.1240 C   0  0  2  0  0  0
  -20.6789  -26.9396   22.5485 C   0  0  0  0  0  0
  -19.5771  -26.6341   21.5294 C   0  0  0  0  0  0
  -18.1951  -26.7896   22.1655 C   0  0  0  0  0  0
  -19.1586  -28.8885   23.2825 C   0  0  0  0  0  0
  -18.9479  -30.1520   23.8807 C   0  0  0  0  0  0
  -17.6440  -30.6571   24.0612 C   0  0  0  0  0  0
  -25.9204  -34.9329   23.4977 C   0  0  0  0  0  0
  -16.5347  -29.9080   23.6343 C   0  0  0  0  0  0
  -16.7292  -28.6499   23.0336 C   0  0  0  0  0  0
  -26.4569  -31.6504   25.0697 C   0  0  0  0  0  0
  -25.3743  -31.3732   26.1426 C   0  0  0  0  0  0
  -27.0397  -30.2827   24.6473 C   0  0  0  0  0  0
  -27.6089  -32.4319   25.7415 C   0  0  0  0  0  0
  -27.5633  -37.1716   24.8436 C   0  0  0  0  0  0
  -21.4406  -29.2974   22.3548 N   0  0  0  0  0  0
  -26.4303  -37.3755   23.9417 N   0  0  0  0  0  0
  -24.7537  -30.9953   22.0775 N   0  0  0  0  0  0
  -23.4270  -28.8043   23.3095 O   0  0  0  0  0  0
  -28.1786  -25.7825   20.3334 O   0  0  0  0  0  0
  -26.5838  -34.8887   22.4625 O   0  0  0  0  0  0
  -23.5689  -32.1135   23.6833 O   0  0  0  0  0  0
  -29.6497  -23.4880   21.8979 C   0  0  0  0  0  0
  -30.8178  -22.9843   22.4971 C   0  0  0  0  0  0
  -28.9955  -22.8693   20.8038 C   0  0  0  0  0  0
  -31.4004  -21.8448   21.9205 C   0  0  0  0  0  0
  -29.4684  -21.3506   20.6257 C   0  0  0  0  0  0
  -31.4596  -23.7597   23.6456 C   0  0  0  0  0  0
  -32.8324  -21.3831   22.1933 C   0  0  0  0  0  0
  -31.9624  -25.1613   23.2323 C   0  0  0  0  0  0
  -33.9071  -22.2210   21.4474 C   0  0  0  0  0  0
  -32.7539  -25.2220   21.9010 C   0  0  0  0  0  0
  -34.5776  -23.3322   22.2988 C   0  0  0  0  0  0
  -34.2415  -24.7937   21.9233 C   0  0  0  0  0  0
  -27.9539  -24.1346   20.1811 C   0  0  0  0  0  0
  -28.9295  -19.7077   20.3432 C   0  0  0  0  0  0
  -29.9610  -18.1870   20.4235 C   0  0  0  0  0  0
  -30.7272  -21.0762   21.0458 N   0  0  0  0  0  0
  -29.6537  -16.5310   20.4570 N   0  0  0  0  0  0
  -31.4672  -12.9861   19.2206 H   0  0  0  0  0  0
  -30.4610  -11.8808   20.1103 H   0  0  0  0  0  0
  -29.9003  -11.7366   17.6860 H   0  0  0  0  0  0
  -29.6022  -13.4554   17.6344 H   0  0  0  0  0  0
  -28.0223  -11.2854   19.0425 H   0  0  0  0  0  0
  -27.4161  -12.4007   17.8391 H   0  0  0  0  0  0
  -27.5243  -14.2643   19.3616 H   0  0  0  0  0  0
  -28.8645  -12.4944   21.4772 H   0  0  0  0  0  0
  -28.3389  -14.1446   21.7270 H   0  0  0  0  0  0
  -25.2712   -9.5782   22.4872 H   0  0  0  0  0  0
  -24.0083   -7.4693   22.7403 H   0  0  0  0  0  0
  -21.0945   -8.8810   19.8992 H   0  0  0  0  0  0
  -22.3677  -10.9755   19.6261 H   0  0  0  0  0  0
  -21.1936   -7.6172   23.9812 H   0  0  0  0  0  0
  -21.1442   -6.0552   25.9164 H   0  0  0  0  0  0
  -22.0580   -2.7676   23.2902 H   0  0  0  0  0  0
  -22.3964  -11.9829   22.4830 H   0  0  0  0  0  0
  -21.1045  -13.1247   22.2658 H   0  0  0  0  0  0
  -24.6214  -15.8432   20.5227 H   0  0  0  0  0  0
  -26.2235  -15.6476   20.0374 H   0  0  0  0  0  0
  -26.7453  -32.4970   23.0886 H   0  0  0  0  0  0
  -24.9869  -33.9379   24.9907 H   0  0  0  0  0  0
  -22.7852  -31.2503   21.3469 H   0  0  0  0  0  0
  -23.3855  -35.9421   23.3210 H   0  0  0  0  0  0
  -24.3719  -36.8945   22.2137 H   0  0  0  0  0  0
  -23.7173  -37.6251   23.6800 H   0  0  0  0  0  0
  -26.2670  -31.3630   20.6355 H   0  0  0  0  0  0
  -26.9049  -30.6574   22.0780 H   0  0  0  0  0  0
  -28.1498  -28.5877   21.2575 H   0  0  0  0  0  0
  -25.8455  -25.7130   19.0429 H   0  0  0  0  0  0
  -24.0146  -27.2659   18.9244 H   0  0  0  0  0  0
  -23.8465  -30.5097   19.3669 H   0  0  0  0  0  0
  -22.8207  -29.1980   19.8364 H   0  0  0  0  0  0
  -25.1452  -36.1757   25.0790 H   0  0  0  0  0  0
  -21.0061  -28.3225   24.1354 H   0  0  0  0  0  0
  -20.5737  -26.2285   23.3705 H   0  0  0  0  0  0
  -21.6646  -26.7421   22.1248 H   0  0  0  0  0  0
  -19.6967  -25.6257   21.1294 H   0  0  0  0  0  0
  -19.6653  -27.3182   20.6860 H   0  0  0  0  0  0
  -17.4257  -26.6717   21.4007 H   0  0  0  0  0  0
  -18.0304  -25.9959   22.8960 H   0  0  0  0  0  0
  -19.7915  -30.7484   24.1962 H   0  0  0  0  0  0
  -17.4947  -31.6232   24.5284 H   0  0  0  0  0  0
  -15.5332  -30.2973   23.7735 H   0  0  0  0  0  0
  -15.8676  -28.0940   22.6943 H   0  0  0  0  0  0
  -24.6021  -30.6934   25.7804 H   0  0  0  0  0  0
  -24.8845  -32.2925   26.4665 H   0  0  0  0  0  0
  -25.8130  -30.9114   27.0308 H   0  0  0  0  0  0
  -26.2989  -29.6532   24.1548 H   0  0  0  0  0  0
  -27.3897  -29.7258   25.5168 H   0  0  0  0  0  0
  -27.9029  -30.3922   23.9916 H   0  0  0  0  0  0
  -27.2678  -33.3629   26.1971 H   0  0  0  0  0  0
  -28.3902  -32.6866   25.0242 H   0  0  0  0  0  0
  -28.0760  -31.8458   26.5340 H   0  0  0  0  0  0
  -28.2557  -38.0110   24.7745 H   0  0  0  0  0  0
  -28.1212  -36.2661   24.5976 H   0  0  0  0  0  0
  -27.2380  -37.1078   25.8832 H   0  0  0  0  0  0
  -20.9648  -29.8597   21.6654 H   0  0  0  0  0  0
  -26.0113  -38.2781   24.1472 H   0  0  0  0  0  0
  -29.2727  -24.4387   22.2575 H   0  0  0  0  0  0
  -32.2739  -23.1948   24.0978 H   0  0  0  0  0  0
  -30.7259  -23.8548   24.4518 H   0  0  0  0  0  0
  -32.9019  -20.3504   21.8405 H   0  0  0  0  0  0
  -33.0519  -21.3120   23.2558 H   0  0  0  0  0  0
  -32.5307  -25.6241   24.0408 H   0  0  0  0  0  0
  -31.0749  -25.7909   23.1122 H   0  0  0  0  0  0
  -33.5369  -22.6036   20.4950 H   0  0  0  0  0  0
  -34.6986  -21.5267   21.1597 H   0  0  0  0  0  0
  -32.7220  -26.2567   21.5547 H   0  0  0  0  0  0
  -32.2500  -24.6573   21.1167 H   0  0  0  0  0  0
  -35.6590  -23.2329   22.1820 H   0  0  0  0  0  0
  -34.4002  -23.1667   23.3624 H   0  0  0  0  0  0
  -34.7935  -25.4464   22.5998 H   0  0  0  0  0  0
  -34.6634  -25.0045   20.9391 H   0  0  0  0  0  0
  -26.9652  -23.9159   20.6055 H   0  0  0  0  0  0
  -27.8314  -23.9517   19.1095 H   0  0  0  0  0  0
  -28.3811  -19.7108   19.3908 H   0  0  0  0  0  0
  -28.1547  -19.5648   21.1130 H   0  0  0  0  0  0
  -30.5381  -18.2818   21.3534 H   0  0  0  0  0  0
  -30.7181  -18.2976   19.6379 H   0  0  0  0  0  0
  -28.6779  -16.3285   20.6067 H   0  0  0  0  0  0
  1 25  1  0  0  0
  1 30  2  0  0  0
  1 87  1  0  0  0
  2  3  1  0  0  0
  2 25  1  0  0  0
  2 88  1  0  0  0
  2 89  1  0  0  0
  3  4  1  0  0  0
  3 90  1  0  0  0
  3 91  1  0  0  0
  4  5  1  0  0  0
  4 92  1  0  0  0
  4 93  1  0  0  0
  5  6  1  0  0  0
  5 26  1  0  0  0
  5 94  1  0  0  0
  6 25  1  0  0  0
  6 95  1  0  0  0
  6 96  1  0  0  0
  7  8  2  0  0  0
  7 26  1  0  0  0
  7 29  1  0  0  0
  8  9  1  0  0  0
  8 22  1  0  0  0
  9 10  1  0  0  0
  9 27  2  0  0  0
 10 11  2  0  0  0
 10 15  1  0  0  0
 11 12  1  0  0  0
 11 97  1  0  0  0
 12 13  2  0  0  0
 12 98  1  0  0  0
 13 14  1  0  0  0
 13 31  1  0  0  0
 14 15  2  0  0  0
 14 99  1  0  0  0
 15100  1  0  0  0
 16 17  2  0  0  0
 16 21  1  0  0  0
 16 31  1  0  0  0
 17 18  1  0  0  0
 17101  1  0  0  0
 18 19  2  0  0  0
 18102  1  0  0  0
 19 20  1  0  0  0
 19 24  1  0  0  0
 20 21  2  0  0  0
 20103  1  0  0  0
 21 23  1  0  0  0
 22 28  1  0  0  0
 22 32  2  0  0  0
 26 27  1  0  0  0
 28104  1  0  0  0
 28105  1  0  0  0
 29106  1  0  0  0
 29107  1  0  0  0
 33 34  1  0  0  0
 33 66  1  0  0  0
 33 70  2  0  0  0
 34 36  1  0  0  0
 34 59  1  0  0  0
 34108  1  0  0  0
 35 44  2  0  0  0
 35 45  1  0  0  0
 35 68  1  0  0  0
 36 56  1  0  0  0
 36109  1  0  0  0
 37 39  1  0  0  0
 37 47  1  0  0  0
 37 66  1  0  0  0
 37110  1  0  0  0
 38 43  2  0  0  0
 38 46  1  0  0  0
 38 47  1  0  0  0
 39 64  1  0  0  0
 39 67  2  0  0  0
 40 52  1  0  0  0
 40 53  2  0  0  0
 40 58  1  0  0  0
 41111  1  0  0  0
 41112  1  0  0  0
 41113  1  0  0  0
 41 48  1  0  0  0
 42 43  1  0  0  0
 42 66  1  0  0  0
 42114  1  0  0  0
 42115  1  0  0  0
 43 44  1  0  0  0
 44116  1  0  0  0
 45 46  2  0  0  0
 45117  1  0  0  0
 46118  1  0  0  0
 47119  1  0  0  0
 47120  1  0  0  0
 48 56  1  0  0  0
 48 65  1  0  0  0
 48121  1  0  0  0
 49 50  1  0  0  0
 49 53  1  0  0  0
 49 64  1  0  0  0
 49122  1  0  0  0
 50 51  1  0  0  0
 50123  1  0  0  0
 50124  1  0  0  0
 51 52  1  0  0  0
 51125  1  0  0  0
 51126  1  0  0  0
 52127  1  0  0  0
 52128  1  0  0  0
 53 54  1  0  0  0
 54 55  2  0  0  0
 54129  1  0  0  0
 55 57  1  0  0  0
 55130  1  0  0  0
 56 69  2  0  0  0
 57 58  2  0  0  0
 57131  1  0  0  0
 58132  1  0  0  0
 59 60  1  0  0  0
 59 61  1  0  0  0
 59 62  1  0  0  0
 60133  1  0  0  0
 60134  1  0  0  0
 60135  1  0  0  0
 61136  1  0  0  0
 61137  1  0  0  0
 61138  1  0  0  0
 62139  1  0  0  0
 62140  1  0  0  0
 62141  1  0  0  0
 63 65  1  0  0  0
 63142  1  0  0  0
 63143  1  0  0  0
 63144  1  0  0  0
 64145  1  0  0  0
 65146  1  0  0  0
 68 83  1  0  0  0
 71 72  2  0  0  0
 71 73  1  0  0  0
 71147  1  0  0  0
 72 74  1  0  0  0
 72 76  1  0  0  0
 73 75  2  0  0  0
 73 83  1  0  0  0
 74 77  1  0  0  0
 74 86  2  0  0  0
 75 84  1  0  0  0
 75 86  1  0  0  0
 76 78  1  0  0  0
 76148  1  0  0  0
 76149  1  0  0  0
 77 79  1  0  0  0
 77150  1  0  0  0
 77151  1  0  0  0
 78 80  1  0  0  0
 78152  1  0  0  0
 78153  1  0  0  0
 79 81  1  0  0  0
 79154  1  0  0  0
 79155  1  0  0  0
 80 82  1  0  0  0
 80156  1  0  0  0
 80157  1  0  0  0
 81 82  1  0  0  0
 81158  1  0  0  0
 81159  1  0  0  0
 82160  1  0  0  0
 82161  1  0  0  0
 83162  1  0  0  0
 83163  1  0  0  0
 84 85  1  0  0  0
 84164  1  0  0  0
 84165  1  0  0  0
 85 87  1  0  0  0
 85166  1  0  0  0
 85167  1  0  0  0
 87168  1  0  0  0
M  ISO  4   1 100  68 101  83 101  87 100
M  END
> <chiral flag>
0

> <version>
0

> <s_m_source_file>
/data/baiqing/PycharmProjects/Reinvent-master-3.2/result/LINK_invent/BTK/process_docking_weight1_custom_sum_contain_oxygen_bond_distance_aromatic_linkinvent_7_9_3/rearranged_h_0034.sdf

> <i_m_source_file_index>
93

> <r_mmod_Potential_Energy-OPLS-2005>
1425.48254394531

> <r_mmod_Stretch_Energy-OPLS-2005>
677.658874511719

> <r_mmod_Bend_Energy-OPLS-2005>
523.916625976562

> <r_mmod_Torsional_Energy-OPLS-2005>
319.464324951172

> <r_mmod_Improper_Torsional_Energy-OPLS-2005>
5.76788568496704

> <r_mmod_Van_der_Waal_Energy-OPLS-2005>
126.87801361084

> <r_mmod_Electrostatic_Energy-OPLS-2005>
-477.393920898438

> <r_mmod_Solvation_Energy-OPLS-2005>
-228.034072875977

> <b_mmod_Minimization_Converged-OPLS-2005>
0

> <r_mmod_RMS_Derivative-OPLS-2005>
10.4764766693115

$$$$
96
                    3D
 Structure written by MMmdl.
159167  0  0  1  0            999 V2000
  -30.6960  -14.5840   20.5194 C   0  0  0  0  0  0
  -30.4190  -12.3675   19.4447 C   0  0  0  0  0  0
  -29.4984  -12.5019   18.2155 C   0  0  0  0  0  0
  -28.0215  -12.3554   18.6283 C   0  0  0  0  0  0
  -27.6504  -13.2254   19.8602 C   0  0  2  0  0  0
  -28.6970  -13.0935   20.9891 C   0  0  0  0  0  0
  -25.2530  -13.8180   20.5670 C   0  0  0  0  0  0
  -24.1818  -13.0435   20.9213 C   0  0  0  0  0  0
  -24.6405  -11.6918   20.8761 C   0  0  0  0  0  0
  -23.9080  -10.4294   21.0415 C   0  0  0  0  0  0
  -24.3627   -9.4208   21.9191 C   0  0  0  0  0  0
  -23.6299   -8.2246   22.0756 C   0  0  0  0  0  0
  -22.4283   -8.0286   21.3541 C   0  0  0  0  0  0
  -21.9923   -9.0262   20.4646 C   0  0  0  0  0  0
  -22.7254  -10.2138   20.3060 C   0  0  0  0  0  0
  -21.6850   -6.0743   22.5278 C   0  0  0  0  0  0
  -21.4012   -6.5643   23.8217 C   0  0  0  0  0  0
  -21.3659   -5.6793   24.9176 C   0  0  0  0  0  0
  -21.6045   -4.3058   24.7224 C   0  0  0  0  0  0
  -21.8820   -3.8151   23.4343 C   0  0  0  0  0  0
  -21.9192   -4.6973   22.3404 C   0  0  0  0  0  0
  -22.7839  -13.5228   21.1868 C   0  0  0  0  0  0
  -22.1661   -4.2160   21.0980 F   0  0  0  0  0  0
  -21.5628   -3.4541   25.7734 F   0  0  0  0  0  0
  -30.0132  -13.4035   20.4136 N   0  0  0  0  0  0
  -26.2981  -12.9391   20.3322 N   0  0  0  0  0  0
  -25.9339  -11.6538   20.5776 N   0  0  0  0  0  0
  -22.0471  -12.8215   22.0413 N   0  0  0  0  0  0
  -25.4181  -15.1887   20.3988 N   0  0  0  0  0  0
  -31.8633  -14.6814   20.1353 O   0  0  0  0  0  0
  -21.6639   -6.8890   21.4243 O   0  0  0  0  0  0
  -22.3528  -14.5535   20.6718 O   0  0  0  0  0  0
  -24.6242  -31.8631   23.2082 C   0  0  0  0  0  0
  -25.9105  -32.4788   23.8397 C   0  0  1  0  0  0
  -27.2171  -27.3378   20.0973 C   0  0  0  0  0  0
  -25.5951  -33.8592   24.2325 N   0  0  0  0  0  0
  -23.4169  -30.4908   21.5496 C   0  0  2  0  0  0
  -24.8628  -28.9605   20.1050 C   0  0  0  0  0  0
  -22.7478  -29.4632   22.4927 C   0  0  0  0  0  0
  -18.0290  -28.1356   22.8471 C   0  0  0  0  0  0
  -24.1496  -36.7286   23.2644 C   0  0  0  0  0  0
  -25.9609  -30.7929   21.3864 C   0  0  0  0  0  0
  -26.0300  -29.4259   20.7222 C   0  0  0  0  0  0
  -27.2069  -28.6217   20.7208 C   0  0  0  0  0  0
  -26.0321  -26.9444   19.4258 C   0  0  0  0  0  0
  -24.8654  -27.7240   19.4480 C   0  0  0  0  0  0
  -23.6301  -29.8371   20.1610 C   0  0  0  0  0  0
  -25.4115  -36.3090   24.0352 C   0  0  1  0  0  0
  -20.5897  -28.3663   23.1280 C   0  0  2  0  0  0
  -20.6782  -26.9380   22.5411 C   0  0  0  0  0  0
  -19.5765  -26.6368   21.5203 C   0  0  0  0  0  0
  -18.1929  -26.7900   22.1604 C   0  0  0  0  0  0
  -19.1546  -28.8824   23.2866 C   0  0  0  0  0  0
  -18.9474  -30.1426   23.8879 C   0  0  0  0  0  0
  -17.6473  -30.6565   24.0547 C   0  0  0  0  0  0
  -25.9058  -34.9458   23.5131 C   0  0  0  0  0  0
  -16.5360  -29.9067   23.6323 C   0  0  0  0  0  0
  -16.7279  -28.6481   23.0339 C   0  0  0  0  0  0
  -26.4495  -31.6588   25.0756 C   0  0  0  0  0  0
  -25.3737  -31.3721   26.1484 C   0  0  0  0  0  0
  -27.0336  -30.3013   24.6199 C   0  0  0  0  0  0
  -27.6067  -32.4317   25.7511 C   0  0  0  0  0  0
  -27.5583  -37.1802   24.8470 C   0  0  0  0  0  0
  -21.4198  -29.3023   22.3673 N   0  0  0  0  0  0
  -26.4292  -37.3783   23.9422 N   0  0  0  0  0  0
  -24.6854  -31.0651   22.1040 N   0  0  0  0  0  0
  -23.4212  -28.8156   23.2977 O   0  0  0  0  0  0
  -28.3248  -26.4768   20.1680 O   0  0  0  0  0  0
  -26.5603  -34.8917   22.4681 O   0  0  0  0  0  0
  -23.5410  -32.1446   23.7401 O   0  0  0  0  0  0
  -28.2585  -20.1247   20.7823 C   0  0  0  0  0  0
  -30.8703  -19.3621   20.2262 C   0  0  0  0  0  0
  -28.6886  -18.7978   21.0863 C   0  0  0  0  0  0
  -30.4403  -20.6852   19.9189 C   0  0  0  0  0  0
  -29.1128  -21.1018   20.2013 C   0  0  0  0  0  0
  -30.0190  -18.3850   20.8072 C   0  0  0  0  0  0
  -27.7033  -17.8397   21.7290 C   0  0  0  0  0  0
  -31.4273  -21.6389   19.2706 C   0  0  0  0  0  0
  -28.5232  -22.4808   19.7446 C   0  0  0  0  0  0
  -30.6380  -17.0140   21.2485 C   0  0  0  0  0  0
  -29.0000  -23.8749   20.3324 C   0  0  0  0  0  0
  -28.1041  -25.0646   19.8010 C   0  0  0  0  0  0
  -30.0133  -15.6921   20.9254 N   0  0  0  0  0  0
  -31.4637  -12.4598   19.1424 H   0  0  0  0  0  0
  -30.3249  -11.3753   19.8902 H   0  0  0  0  0  0
  -29.7538  -11.7479   17.4705 H   0  0  0  0  0  0
  -29.6554  -13.4706   17.7381 H   0  0  0  0  0  0
  -27.8470  -11.3021   18.8528 H   0  0  0  0  0  0
  -27.3709  -12.5989   17.7872 H   0  0  0  0  0  0
  -27.6677  -14.2617   19.5217 H   0  0  0  0  0  0
  -28.6977  -12.0824   21.3997 H   0  0  0  0  0  0
  -28.4551  -13.7563   21.8215 H   0  0  0  0  0  0
  -25.2775   -9.5682   22.4767 H   0  0  0  0  0  0
  -24.0006   -7.4639   22.7474 H   0  0  0  0  0  0
  -21.0858   -8.8793   19.8947 H   0  0  0  0  0  0
  -22.3727  -10.9684   19.6169 H   0  0  0  0  0  0
  -21.2001   -7.6148   23.9725 H   0  0  0  0  0  0
  -21.1479   -6.0520   25.9081 H   0  0  0  0  0  0
  -22.0597   -2.7616   23.2840 H   0  0  0  0  0  0
  -22.4080  -11.9877   22.4804 H   0  0  0  0  0  0
  -21.1086  -13.1245   22.2606 H   0  0  0  0  0  0
  -24.6404  -15.8342   20.4869 H   0  0  0  0  0  0
  -26.2454  -15.6163   20.0048 H   0  0  0  0  0  0
  -26.7171  -32.5454   23.1150 H   0  0  0  0  0  0
  -25.0141  -33.9751   25.0499 H   0  0  0  0  0  0
  -22.7097  -31.3117   21.4121 H   0  0  0  0  0  0
  -23.3764  -35.9612   23.3312 H   0  0  0  0  0  0
  -24.3588  -36.8882   22.2054 H   0  0  0  0  0  0
  -23.7237  -37.6496   23.6646 H   0  0  0  0  0  0
  -26.1041  -31.5624   20.6263 H   0  0  0  0  0  0
  -26.8386  -30.8304   22.0203 H   0  0  0  0  0  0
  -28.0961  -28.9652   21.2301 H   0  0  0  0  0  0
  -25.9668  -26.0225   18.8679 H   0  0  0  0  0  0
  -23.9789  -27.3735   18.9384 H   0  0  0  0  0  0
  -23.7475  -30.6205   19.4112 H   0  0  0  0  0  0
  -22.7513  -29.2681   19.8535 H   0  0  0  0  0  0
  -25.1283  -36.1963   25.0846 H   0  0  0  0  0  0
  -20.9978  -28.3231   24.1408 H   0  0  0  0  0  0
  -20.5672  -26.2269   23.3613 H   0  0  0  0  0  0
  -21.6653  -26.7407   22.1198 H   0  0  0  0  0  0
  -19.6942  -25.6288   21.1219 H   0  0  0  0  0  0
  -19.6712  -27.3188   20.6740 H   0  0  0  0  0  0
  -17.4212  -26.6661   21.3987 H   0  0  0  0  0  0
  -18.0303  -26.0030   22.8988 H   0  0  0  0  0  0
  -19.7957  -30.7227   24.2247 H   0  0  0  0  0  0
  -17.5039  -31.6249   24.5146 H   0  0  0  0  0  0
  -15.5358  -30.2955   23.7670 H   0  0  0  0  0  0
  -15.8678  -28.0805   22.7056 H   0  0  0  0  0  0
  -24.5954  -30.7009   25.7840 H   0  0  0  0  0  0
  -24.8868  -32.2875   26.4860 H   0  0  0  0  0  0
  -25.8075  -30.8971   27.0290 H   0  0  0  0  0  0
  -26.2906  -29.6769   24.1227 H   0  0  0  0  0  0
  -27.4051  -29.7261   25.4687 H   0  0  0  0  0  0
  -27.8781  -30.4313   23.9422 H   0  0  0  0  0  0
  -27.2700  -33.3640   26.2060 H   0  0  0  0  0  0
  -28.3886  -32.6833   25.0332 H   0  0  0  0  0  0
  -28.0728  -31.8458   26.5444 H   0  0  0  0  0  0
  -28.2598  -38.0095   24.7493 H   0  0  0  0  0  0
  -28.1072  -36.2626   24.6312 H   0  0  0  0  0  0
  -27.2298  -37.1457   25.8869 H   0  0  0  0  0  0
  -20.9375  -29.8777   21.6911 H   0  0  0  0  0  0
  -26.0182  -38.2865   24.1413 H   0  0  0  0  0  0
  -27.2305  -20.3929   20.9853 H   0  0  0  0  0  0
  -31.8976  -19.0927   20.0188 H   0  0  0  0  0  0
  -26.8129  -18.3564   22.0880 H   0  0  0  0  0  0
  -28.1531  -17.3281   22.5794 H   0  0  0  0  0  0
  -27.3855  -17.0926   21.0037 H   0  0  0  0  0  0
  -32.2935  -21.1081   18.8742 H   0  0  0  0  0  0
  -31.7867  -22.3633   20.0022 H   0  0  0  0  0  0
  -30.9724  -22.1820   18.4425 H   0  0  0  0  0  0
  -27.4456  -22.4229   19.9041 H   0  0  0  0  0  0
  -28.6288  -22.5220   18.6598 H   0  0  0  0  0  0
  -30.7131  -17.0525   22.3363 H   0  0  0  0  0  0
  -31.6753  -17.0095   20.9105 H   0  0  0  0  0  0
  -30.0444  -24.0585   20.0817 H   0  0  0  0  0  0
  -28.9403  -23.8460   21.4207 H   0  0  0  0  0  0
  -27.1059  -24.7728   20.1268 H   0  0  0  0  0  0
  -28.1050  -25.0229   18.7111 H   0  0  0  0  0  0
  -29.0421  -15.5681   21.1627 H   0  0  0  0  0  0
  1 25  1  0  0  0
  1 30  2  0  0  0
  1 83  1  0  0  0
  2  3  1  0  0  0
  2 25  1  0  0  0
  2 84  1  0  0  0
  2 85  1  0  0  0
  3  4  1  0  0  0
  3 86  1  0  0  0
  3 87  1  0  0  0
  4  5  1  0  0  0
  4 88  1  0  0  0
  4 89  1  0  0  0
  5  6  1  0  0  0
  5 26  1  0  0  0
  5 90  1  0  0  0
  6 25  1  0  0  0
  6 91  1  0  0  0
  6 92  1  0  0  0
  7  8  2  0  0  0
  7 26  1  0  0  0
  7 29  1  0  0  0
  8  9  1  0  0  0
  8 22  1  0  0  0
  9 10  1  0  0  0
  9 27  2  0  0  0
 10 11  2  0  0  0
 10 15  1  0  0  0
 11 12  1  0  0  0
 11 93  1  0  0  0
 12 13  2  0  0  0
 12 94  1  0  0  0
 13 14  1  0  0  0
 13 31  1  0  0  0
 14 15  2  0  0  0
 14 95  1  0  0  0
 15 96  1  0  0  0
 16 17  2  0  0  0
 16 21  1  0  0  0
 16 31  1  0  0  0
 17 18  1  0  0  0
 17 97  1  0  0  0
 18 19  2  0  0  0
 18 98  1  0  0  0
 19 20  1  0  0  0
 19 24  1  0  0  0
 20 21  2  0  0  0
 20 99  1  0  0  0
 21 23  1  0  0  0
 22 28  1  0  0  0
 22 32  2  0  0  0
 26 27  1  0  0  0
 28100  1  0  0  0
 28101  1  0  0  0
 29102  1  0  0  0
 29103  1  0  0  0
 33 34  1  0  0  0
 33 66  1  0  0  0
 33 70  2  0  0  0
 34 36  1  0  0  0
 34 59  1  0  0  0
 34104  1  0  0  0
 35 44  2  0  0  0
 35 45  1  0  0  0
 35 68  1  0  0  0
 36 56  1  0  0  0
 36105  1  0  0  0
 37 39  1  0  0  0
 37 47  1  0  0  0
 37 66  1  0  0  0
 37106  1  0  0  0
 38 43  2  0  0  0
 38 46  1  0  0  0
 38 47  1  0  0  0
 39 64  1  0  0  0
 39 67  2  0  0  0
 40 52  1  0  0  0
 40 53  2  0  0  0
 40 58  1  0  0  0
 41107  1  0  0  0
 41108  1  0  0  0
 41109  1  0  0  0
 41 48  1  0  0  0
 42 43  1  0  0  0
 42 66  1  0  0  0
 42110  1  0  0  0
 42111  1  0  0  0
 43 44  1  0  0  0
 44112  1  0  0  0
 45 46  2  0  0  0
 45113  1  0  0  0
 46114  1  0  0  0
 47115  1  0  0  0
 47116  1  0  0  0
 48 56  1  0  0  0
 48 65  1  0  0  0
 48117  1  0  0  0
 49 50  1  0  0  0
 49 53  1  0  0  0
 49 64  1  0  0  0
 49118  1  0  0  0
 50 51  1  0  0  0
 50119  1  0  0  0
 50120  1  0  0  0
 51 52  1  0  0  0
 51121  1  0  0  0
 51122  1  0  0  0
 52123  1  0  0  0
 52124  1  0  0  0
 53 54  1  0  0  0
 54 55  2  0  0  0
 54125  1  0  0  0
 55 57  1  0  0  0
 55126  1  0  0  0
 56 69  2  0  0  0
 57 58  2  0  0  0
 57127  1  0  0  0
 58128  1  0  0  0
 59 60  1  0  0  0
 59 61  1  0  0  0
 59 62  1  0  0  0
 60129  1  0  0  0
 60130  1  0  0  0
 60131  1  0  0  0
 61132  1  0  0  0
 61133  1  0  0  0
 61134  1  0  0  0
 62135  1  0  0  0
 62136  1  0  0  0
 62137  1  0  0  0
 63 65  1  0  0  0
 63138  1  0  0  0
 63139  1  0  0  0
 63140  1  0  0  0
 64141  1  0  0  0
 65142  1  0  0  0
 68 82  1  0  0  0
 71 73  2  0  0  0
 71 75  1  0  0  0
 71143  1  0  0  0
 72 74  1  0  0  0
 72 76  2  0  0  0
 72144  1  0  0  0
 73 76  1  0  0  0
 73 77  1  0  0  0
 74 75  2  0  0  0
 74 78  1  0  0  0
 75 79  1  0  0  0
 76 80  1  0  0  0
 77145  1  0  0  0
 77146  1  0  0  0
 77147  1  0  0  0
 78148  1  0  0  0
 78149  1  0  0  0
 78150  1  0  0  0
 79 81  1  0  0  0
 79151  1  0  0  0
 79152  1  0  0  0
 80 83  1  0  0  0
 80153  1  0  0  0
 80154  1  0  0  0
 81 82  1  0  0  0
 81155  1  0  0  0
 81156  1  0  0  0
 82157  1  0  0  0
 82158  1  0  0  0
 83159  1  0  0  0
M  ISO  4   1 100  68 101  82 101  83 100
M  END
> <chiral flag>
0

> <version>
0

> <s_m_source_file>
/data/baiqing/PycharmProjects/Reinvent-master-3.2/result/LINK_invent/BTK/process_docking_weight1_custom_sum_contain_oxygen_bond_distance_aromatic_linkinvent_7_9_3/rearranged_h_0034.sdf

> <i_m_source_file_index>
94

> <r_mmod_Potential_Energy-OPLS-2005>
-19.866720199585

> <r_mmod_Stretch_Energy-OPLS-2005>
68.5753402709961

> <r_mmod_Bend_Energy-OPLS-2005>
141.191711425781

> <r_mmod_Torsional_Energy-OPLS-2005>
200.321411132812

> <r_mmod_Improper_Torsional_Energy-OPLS-2005>
4.85907554626465

> <r_mmod_Van_der_Waal_Energy-OPLS-2005>
153.650787353516

> <r_mmod_Electrostatic_Energy-OPLS-2005>
-424.625213623047

> <r_mmod_Solvation_Energy-OPLS-2005>
-205.722549438477

> <b_mmod_Minimization_Converged-OPLS-2005>
0

> <r_mmod_RMS_Derivative-OPLS-2005>
1.7969605922699

$$$$
