0
                    3D
 Structure written by MMmdl.
157166  0  0  1  0            999 V2000
  -30.4605  -15.3405   20.3576 C   0  0  0  0  0  0
  -30.4315  -12.8660   19.5322 C   0  0  0  0  0  0
  -29.5351  -12.5775   18.3034 C   0  0  0  0  0  0
  -28.0878  -12.2931   18.7346 C   0  0  0  0  0  0
  -27.6073  -13.2850   19.8204 C   0  0  2  0  0  0
  -28.6433  -13.5192   20.9425 C   0  0  0  0  0  0
  -25.2395  -13.8295   20.5787 C   0  0  0  0  0  0
  -24.1750  -13.0464   20.9291 C   0  0  0  0  0  0
  -24.6421  -11.6968   20.8797 C   0  0  0  0  0  0
  -23.9102  -10.4310   21.0425 C   0  0  0  0  0  0
  -24.3653   -9.4224   21.9192 C   0  0  0  0  0  0
  -23.6345   -8.2256   22.0743 C   0  0  0  0  0  0
  -22.4320   -8.0297   21.3549 C   0  0  0  0  0  0
  -21.9944   -9.0260   20.4645 C   0  0  0  0  0  0
  -22.7269  -10.2152   20.3065 C   0  0  0  0  0  0
  -21.6851   -6.0750   22.5273 C   0  0  0  0  0  0
  -21.4032   -6.5650   23.8213 C   0  0  0  0  0  0
  -21.3664   -5.6793   24.9155 C   0  0  0  0  0  0
  -21.6044   -4.3054   24.7197 C   0  0  0  0  0  0
  -21.8825   -3.8150   23.4316 C   0  0  0  0  0  0
  -21.9208   -4.6978   22.3378 C   0  0  0  0  0  0
  -22.7764  -13.5203   21.1874 C   0  0  0  0  0  0
  -22.1683   -4.2180   21.0952 F   0  0  0  0  0  0
  -21.5624   -3.4527   25.7699 F   0  0  0  0  0  0
  -29.8590  -14.0416   20.2913 N   0  0  0  0  0  0
  -26.2822  -12.9581   20.3290 N   0  0  0  0  0  0
  -25.9359  -11.6673   20.5780 N   0  0  0  0  0  0
  -22.0435  -12.8197   22.0459 N   0  0  0  0  0  0
  -25.4063  -15.2001   20.4148 N   0  0  0  0  0  0
  -31.6954  -15.2638   20.2368 O   0  0  0  0  0  0
  -21.6680   -6.8895   21.4237 O   0  0  0  0  0  0
  -22.3386  -14.5406   20.6591 O   0  0  0  0  0  0
  -24.6651  -31.8223   23.1673 C   0  0  0  0  0  0
  -25.9309  -32.4581   23.8140 C   0  0  1  0  0  0
  -27.2150  -26.8925   20.2153 C   0  0  0  0  0  0
  -25.5972  -33.8397   24.2061 N   0  0  0  0  0  0
  -23.4787  -30.4308   21.5168 C   0  0  2  0  0  0
  -24.9320  -28.8068   20.1146 C   0  0  0  0  0  0
  -22.7657  -29.4425   22.4768 C   0  0  0  0  0  0
  -18.0312  -28.1377   22.8478 C   0  0  0  0  0  0
  -24.1501  -36.7230   23.2647 C   0  0  0  0  0  0
  -26.0465  -30.6208   21.3949 C   0  0  0  0  0  0
  -26.1138  -29.2027   20.7521 C   0  0  0  0  0  0
  -27.2480  -28.2677   20.7752 C   0  0  0  0  0  0
  -26.0060  -26.6538   19.5202 C   0  0  0  0  0  0
  -24.9070  -27.5548   19.4754 C   0  0  0  0  0  0
  -23.7189  -29.7434   20.1427 C   0  0  0  0  0  0
  -25.4139  -36.2980   24.0300 C   0  0  1  0  0  0
  -20.5950  -28.3739   23.1188 C   0  0  2  0  0  0
  -20.6777  -26.9418   22.5400 C   0  0  0  0  0  0
  -19.5755  -26.6359   21.5206 C   0  0  0  0  0  0
  -18.1945  -26.7905   22.1634 C   0  0  0  0  0  0
  -19.1580  -28.8871   23.2813 C   0  0  0  0  0  0
  -18.9494  -30.1455   23.8849 C   0  0  0  0  0  0
  -17.6486  -30.6566   24.0547 C   0  0  0  0  0  0
  -25.9094  -34.9346   23.5007 C   0  0  0  0  0  0
  -16.5378  -29.9059   23.6321 C   0  0  0  0  0  0
  -16.7301  -28.6476   23.0365 C   0  0  0  0  0  0
  -26.4555  -31.6519   25.0661 C   0  0  0  0  0  0
  -25.3676  -31.3776   26.1318 C   0  0  0  0  0  0
  -27.0439  -30.2894   24.6349 C   0  0  0  0  0  0
  -27.6049  -32.4311   25.7463 C   0  0  0  0  0  0
  -27.5565  -37.1782   24.8463 C   0  0  0  0  0  0
  -21.4321  -29.3048   22.3545 N   0  0  0  0  0  0
  -26.4287  -37.3708   23.9397 N   0  0  0  0  0  0
  -24.7510  -30.9847   22.0811 N   0  0  0  0  0  0
  -23.4190  -28.7989   23.3008 O   0  0  0  0  0  0
  -28.2248  -25.7876   20.3236 O   0  0  0  0  0  0
  -26.5712  -34.8892   22.4608 O   0  0  0  0  0  0
  -23.5713  -32.1209   23.6755 O   0  0  0  0  0  0
  -28.0865  -18.5786   19.7906 C   0  0  0  0  0  0
  -28.7453  -22.7698   21.0335 C   0  0  0  0  0  0
  -28.3822  -17.0099   20.0195 C   0  0  0  0  0  0
  -30.2560  -18.2488   20.4859 C   0  0  0  0  0  0
  -28.3237  -23.4130   18.8504 C   0  0  0  0  0  0
  -29.0921  -19.5356   20.5046 C   0  0  1  0  0  0
  -29.1258  -21.3501   20.1366 C   0  0  1  0  0  0
  -28.0537  -24.1253   20.2197 C   0  0  1  0  0  0
  -28.9275  -21.3486   17.6212 C   0  0  0  0  0  0
  -29.7877  -16.6933   20.3805 N   0  0  0  0  0  0
  -28.4127  -21.8680   18.9102 N   0  3  2  0  0  0
  -31.4465  -13.0759   19.1938 H   0  0  0  0  0  0
  -30.5097  -11.9870   20.1718 H   0  0  0  0  0  0
  -29.9285  -11.7323   17.7365 H   0  0  0  0  0  0
  -29.5526  -13.4400   17.6353 H   0  0  0  0  0  0
  -28.0535  -11.2755   19.1300 H   0  0  0  0  0  0
  -27.4182  -12.3131   17.8744 H   0  0  0  0  0  0
  -27.5016  -14.2287   19.2860 H   0  0  0  0  0  0
  -28.8390  -12.6078   21.5093 H   0  0  0  0  0  0
  -28.2741  -14.2611   21.6531 H   0  0  0  0  0  0
  -25.2802   -9.5713   22.4765 H   0  0  0  0  0  0
  -24.0065   -7.4643   22.7455 H   0  0  0  0  0  0
  -21.0867   -8.8750   19.8970 H   0  0  0  0  0  0
  -22.3701  -10.9679   19.6174 H   0  0  0  0  0  0
  -21.2042   -7.6163   23.9714 H   0  0  0  0  0  0
  -21.1488   -6.0521   25.9061 H   0  0  0  0  0  0
  -22.0609   -2.7618   23.2793 H   0  0  0  0  0  0
  -22.4032  -11.9838   22.4835 H   0  0  0  0  0  0
  -21.1053  -13.1202   22.2641 H   0  0  0  0  0  0
  -24.6471  -15.8663   20.5042 H   0  0  0  0  0  0
  -26.2551  -15.6161   20.0559 H   0  0  0  0  0  0
  -26.7360  -32.5111   23.0832 H   0  0  0  0  0  0
  -25.0037  -33.9474   25.0158 H   0  0  0  0  0  0
  -22.7908  -31.2614   21.3445 H   0  0  0  0  0  0
  -23.3754  -35.9569   23.3285 H   0  0  0  0  0  0
  -24.3586  -36.8893   22.2063 H   0  0  0  0  0  0
  -23.7255  -37.6417   23.6714 H   0  0  0  0  0  0
  -26.2116  -31.3523   20.6011 H   0  0  0  0  0  0
  -26.9121  -30.6934   22.0415 H   0  0  0  0  0  0
  -28.1359  -28.5730   21.3118 H   0  0  0  0  0  0
  -25.8743  -25.6975   19.0358 H   0  0  0  0  0  0
  -24.0111  -27.2468   18.9539 H   0  0  0  0  0  0
  -23.8745  -30.5106   19.3834 H   0  0  0  0  0  0
  -22.8263  -29.1997   19.8266 H   0  0  0  0  0  0
  -25.1338  -36.1780   25.0790 H   0  0  0  0  0  0
  -21.0040  -28.3321   24.1316 H   0  0  0  0  0  0
  -20.5622  -26.2361   23.3648 H   0  0  0  0  0  0
  -21.6639  -26.7341   22.1234 H   0  0  0  0  0  0
  -19.6906  -25.6253   21.1266 H   0  0  0  0  0  0
  -19.6680  -27.3130   20.6700 H   0  0  0  0  0  0
  -17.4212  -26.6644   21.4043 H   0  0  0  0  0  0
  -18.0349  -26.0047   22.9028 H   0  0  0  0  0  0
  -19.7969  -30.7275   24.2226 H   0  0  0  0  0  0
  -17.5038  -31.6259   24.5131 H   0  0  0  0  0  0
  -15.5382  -30.2953   23.7646 H   0  0  0  0  0  0
  -15.8705  -28.0757   22.7138 H   0  0  0  0  0  0
  -24.5846  -30.7148   25.7599 H   0  0  0  0  0  0
  -24.8897  -32.2995   26.4650 H   0  0  0  0  0  0
  -25.7918  -30.8970   27.0143 H   0  0  0  0  0  0
  -26.3090  -29.6578   24.1353 H   0  0  0  0  0  0
  -27.3982  -29.7251   25.4976 H   0  0  0  0  0  0
  -27.9013  -30.4088   23.9726 H   0  0  0  0  0  0
  -27.2623  -33.3651   26.1931 H   0  0  0  0  0  0
  -28.3929  -32.6801   25.0337 H   0  0  0  0  0  0
  -28.0629  -31.8488   26.5473 H   0  0  0  0  0  0
  -28.2591  -38.0070   24.7490 H   0  0  0  0  0  0
  -28.1066  -36.2606   24.6328 H   0  0  0  0  0  0
  -27.2290  -37.1440   25.8868 H   0  0  0  0  0  0
  -20.9564  -29.8802   21.6736 H   0  0  0  0  0  0
  -26.0143  -38.2776   24.1376 H   0  0  0  0  0  0
  -27.0645  -18.8229   20.0808 H   0  0  0  0  0  0
  -28.1378  -18.7353   18.7155 H   0  0  0  0  0  0
  -29.6481  -23.0922   21.5508 H   0  0  0  0  0  0
  -28.0535  -22.4962   21.8314 H   0  0  0  0  0  0
  -28.1232  -16.4748   19.1036 H   0  0  0  0  0  0
  -27.7370  -16.6249   20.8070 H   0  0  0  0  0  0
  -30.9340  -18.4301   19.6519 H   0  0  0  0  0  0
  -30.8822  -18.3462   21.3759 H   0  0  0  0  0  0
  -29.2729  -23.7899   18.4742 H   0  0  0  0  0  0
  -27.5626  -23.7124   18.1277 H   0  0  0  0  0  0
  -28.7684  -19.5318   21.5470 H   0  0  0  0  0  0
  -30.1820  -21.5108   19.9224 H   0  0  0  0  0  0
  -26.9852  -23.9989   20.4090 H   0  0  0  0  0  0
  -28.2724  -21.6928   16.8205 H   0  0  0  0  0  0
  -28.9617  -20.2643   17.5596 H   0  0  0  0  0  0
  -29.9347  -21.7175   17.4191 H   0  0  0  0  0  0
  -27.4636  -21.5321   19.0065 H   0  0  0  0  0  0
  1 25  1  0  0  0
  1 30  2  0  0  0
  1 80  1  0  0  0
  2  3  1  0  0  0
  2 25  1  0  0  0
  2 82  1  0  0  0
  2 83  1  0  0  0
  3  4  1  0  0  0
  3 84  1  0  0  0
  3 85  1  0  0  0
  4  5  1  0  0  0
  4 86  1  0  0  0
  4 87  1  0  0  0
  5  6  1  0  0  0
  5 26  1  0  0  0
  5 88  1  0  0  0
  6 25  1  0  0  0
  6 89  1  0  0  0
  6 90  1  0  0  0
  7  8  2  0  0  0
  7 26  1  0  0  0
  7 29  1  0  0  0
  8  9  1  0  0  0
  8 22  1  0  0  0
  9 10  1  0  0  0
  9 27  2  0  0  0
 10 11  2  0  0  0
 10 15  1  0  0  0
 11 12  1  0  0  0
 11 91  1  0  0  0
 12 13  2  0  0  0
 12 92  1  0  0  0
 13 14  1  0  0  0
 13 31  1  0  0  0
 14 15  2  0  0  0
 14 93  1  0  0  0
 15 94  1  0  0  0
 16 17  2  0  0  0
 16 21  1  0  0  0
 16 31  1  0  0  0
 17 18  1  0  0  0
 17 95  1  0  0  0
 18 19  2  0  0  0
 18 96  1  0  0  0
 19 20  1  0  0  0
 19 24  1  0  0  0
 20 21  2  0  0  0
 20 97  1  0  0  0
 21 23  1  0  0  0
 22 28  1  0  0  0
 22 32  2  0  0  0
 26 27  1  0  0  0
 28 98  1  0  0  0
 28 99  1  0  0  0
 29100  1  0  0  0
 29101  1  0  0  0
 33 34  1  0  0  0
 33 66  1  0  0  0
 33 70  2  0  0  0
 34 36  1  0  0  0
 34 59  1  0  0  0
 34102  1  0  0  0
 35 44  2  0  0  0
 35 45  1  0  0  0
 35 68  1  0  0  0
 36 56  1  0  0  0
 36103  1  0  0  0
 37 39  1  0  0  0
 37 47  1  0  0  0
 37 66  1  0  0  0
 37104  1  0  0  0
 38 43  2  0  0  0
 38 46  1  0  0  0
 38 47  1  0  0  0
 39 64  1  0  0  0
 39 67  2  0  0  0
 40 52  1  0  0  0
 40 53  2  0  0  0
 40 58  1  0  0  0
 41105  1  0  0  0
 41106  1  0  0  0
 41107  1  0  0  0
 41 48  1  0  0  0
 42 43  1  0  0  0
 42 66  1  0  0  0
 42108  1  0  0  0
 42109  1  0  0  0
 43 44  1  0  0  0
 44110  1  0  0  0
 45 46  2  0  0  0
 45111  1  0  0  0
 46112  1  0  0  0
 47113  1  0  0  0
 47114  1  0  0  0
 48 56  1  0  0  0
 48 65  1  0  0  0
 48115  1  0  0  0
 49 50  1  0  0  0
 49 53  1  0  0  0
 49 64  1  0  0  0
 49116  1  0  0  0
 50 51  1  0  0  0
 50117  1  0  0  0
 50118  1  0  0  0
 51 52  1  0  0  0
 51119  1  0  0  0
 51120  1  0  0  0
 52121  1  0  0  0
 52122  1  0  0  0
 53 54  1  0  0  0
 54 55  2  0  0  0
 54123  1  0  0  0
 55 57  1  0  0  0
 55124  1  0  0  0
 56 69  2  0  0  0
 57 58  2  0  0  0
 57125  1  0  0  0
 58126  1  0  0  0
 59 60  1  0  0  0
 59 61  1  0  0  0
 59 62  1  0  0  0
 60127  1  0  0  0
 60128  1  0  0  0
 60129  1  0  0  0
 61130  1  0  0  0
 61131  1  0  0  0
 61132  1  0  0  0
 62133  1  0  0  0
 62134  1  0  0  0
 62135  1  0  0  0
 63 65  1  0  0  0
 63136  1  0  0  0
 63137  1  0  0  0
 63138  1  0  0  0
 64139  1  0  0  0
 65140  1  0  0  0
 68 78  1  0  0  0
 71 73  1  0  0  0
 71141  1  0  0  0
 71142  1  0  0  0
 71 76  1  0  0  0
 72 78  1  0  0  0
 72143  1  0  0  0
 72144  1  0  0  0
 72 77  1  0  0  0
 73 80  1  0  0  0
 73145  1  0  0  0
 73146  1  0  0  0
 74 76  1  0  0  0
 74 80  1  0  0  0
 74147  1  0  0  0
 74148  1  0  0  0
 75 78  1  0  0  0
 75 81  1  0  0  0
 75149  1  0  0  0
 75150  1  0  0  0
 76 77  1  0  0  0
 76151  1  0  0  0
 77 81  1  0  0  0
 77152  1  0  0  0
 78153  1  0  0  0
 79154  1  0  0  0
 79155  1  0  0  0
 79156  1  0  0  0
 79 81  1  0  0  0
 81157  1  0  0  0
M  CHG  1  81   1
M  ISO  4   1 100  68 101  78 101  80 100
M  END
> <chiral flag>
0

> <version>
0

> <s_m_source_file>
/data/baiqing/PycharmProjects/Reinvent-master-3.2/result/LINK_invent/BTK/process_docking_weight1_custom_sum_contain_oxygen_bond_distance_aromatic_linkinvent_7_9_3/rearranged_h_0177.sdf

> <i_m_source_file_index>
1

> <r_mmod_Potential_Energy-OPLS-2005>
1598.14196777344

> <r_mmod_Stretch_Energy-OPLS-2005>
598.263732910156

> <r_mmod_Bend_Energy-OPLS-2005>
561.902709960938

> <r_mmod_Torsional_Energy-OPLS-2005>
403.110321044922

> <r_mmod_Improper_Torsional_Energy-OPLS-2005>
3.99082350730896

> <r_mmod_Van_der_Waal_Energy-OPLS-2005>
100.725387573242

> <r_mmod_Electrostatic_Energy-OPLS-2005>
-153.283325195312

> <r_mmod_Solvation_Energy-OPLS-2005>
-442.029296875

> <b_mmod_Minimization_Converged-OPLS-2005>
0

> <r_mmod_RMS_Derivative-OPLS-2005>
4.90399646759033

$$$$
1
                    3D
 Structure written by MMmdl.
167177  0  0  1  0            999 V2000
  -30.6023  -14.6986   20.4869 C   0  0  0  0  0  0
  -30.4417  -12.4343   19.4520 C   0  0  0  0  0  0
  -29.5087  -12.5122   18.2233 C   0  0  0  0  0  0
  -28.0321  -12.3415   18.6352 C   0  0  0  0  0  0
  -27.6463  -13.2214   19.8533 C   0  0  2  0  0  0
  -28.6932  -13.1120   20.9826 C   0  0  0  0  0  0
  -25.2542  -13.8175   20.5699 C   0  0  0  0  0  0
  -24.1814  -13.0436   20.9208 C   0  0  0  0  0  0
  -24.6383  -11.6907   20.8734 C   0  0  0  0  0  0
  -23.9053  -10.4288   21.0390 C   0  0  0  0  0  0
  -24.3604   -9.4209   21.9175 C   0  0  0  0  0  0
  -23.6277   -8.2247   22.0749 C   0  0  0  0  0  0
  -22.4262   -8.0276   21.3539 C   0  0  0  0  0  0
  -21.9895   -9.0249   20.4643 C   0  0  0  0  0  0
  -22.7223  -10.2129   20.3048 C   0  0  0  0  0  0
  -21.6857   -6.0726   22.5268 C   0  0  0  0  0  0
  -21.4020   -6.5624   23.8198 C   0  0  0  0  0  0
  -21.3664   -5.6773   24.9163 C   0  0  0  0  0  0
  -21.6044   -4.3037   24.7211 C   0  0  0  0  0  0
  -21.8824   -3.8135   23.4328 C   0  0  0  0  0  0
  -21.9202   -4.6952   22.3390 C   0  0  0  0  0  0
  -22.7837  -13.5239   21.1856 C   0  0  0  0  0  0
  -22.1663   -4.2141   21.0968 F   0  0  0  0  0  0
  -21.5631   -3.4522   25.7723 F   0  0  0  0  0  0
  -29.9962  -13.4705   20.4052 N   0  0  0  0  0  0
  -26.2954  -12.9361   20.3283 N   0  0  0  0  0  0
  -25.9311  -11.6511   20.5735 N   0  0  0  0  0  0
  -22.0461  -12.8238   22.0396 N   0  0  0  0  0  0
  -25.4234  -15.1905   20.4103 N   0  0  0  0  0  0
  -31.7891  -14.8441   20.1832 O   0  0  0  0  0  0
  -21.6633   -6.8870   21.4229 O   0  0  0  0  0  0
  -22.3534  -14.5548   20.6693 O   0  0  0  0  0  0
  -24.6296  -31.8561   23.2000 C   0  0  0  0  0  0
  -25.9138  -32.4757   23.8335 C   0  0  1  0  0  0
  -27.2229  -27.2910   20.1365 C   0  0  0  0  0  0
  -25.5949  -33.8553   24.2284 N   0  0  0  0  0  0
  -23.4241  -30.4797   21.5417 C   0  0  2  0  0  0
  -24.8726  -28.9270   20.1122 C   0  0  0  0  0  0
  -22.7495  -29.4604   22.4908 C   0  0  0  0  0  0
  -18.0296  -28.1379   22.8475 C   0  0  0  0  0  0
  -24.1490  -36.7262   23.2634 C   0  0  0  0  0  0
  -25.9660  -30.7822   21.3715 C   0  0  0  0  0  0
  -26.0427  -29.4048   20.7187 C   0  0  0  0  0  0
  -27.2240  -28.6011   20.7144 C   0  0  0  0  0  0
  -26.0344  -26.8695   19.5044 C   0  0  0  0  0  0
  -24.8718  -27.6669   19.4931 C   0  0  0  0  0  0
  -23.6418  -29.8111   20.1578 C   0  0  0  0  0  0
  -25.4113  -36.3065   24.0337 C   0  0  1  0  0  0
  -20.5901  -28.3681   23.1262 C   0  0  2  0  0  0
  -20.6776  -26.9397   22.5399 C   0  0  0  0  0  0
  -19.5755  -26.6378   21.5196 C   0  0  0  0  0  0
  -18.1934  -26.7924   22.1610 C   0  0  0  0  0  0
  -19.1549  -28.8848   23.2867 C   0  0  0  0  0  0
  -18.9471  -30.1451   23.8879 C   0  0  0  0  0  0
  -17.6466  -30.6573   24.0556 C   0  0  0  0  0  0
  -25.9051  -34.9438   23.5104 C   0  0  0  0  0  0
  -16.5360  -29.9065   23.6335 C   0  0  0  0  0  0
  -16.7283  -28.6492   23.0340 C   0  0  0  0  0  0
  -26.4523  -31.6551   25.0695 C   0  0  0  0  0  0
  -25.3770  -31.3661   26.1429 C   0  0  0  0  0  0
  -27.0346  -30.2969   24.6136 C   0  0  0  0  0  0
  -27.6097  -32.4262   25.7470 C   0  0  0  0  0  0
  -27.5585  -37.1786   24.8470 C   0  0  0  0  0  0
  -21.4204  -29.3032   22.3658 N   0  0  0  0  0  0
  -26.4285  -37.3770   23.9428 N   0  0  0  0  0  0
  -24.6924  -31.0564   22.0954 N   0  0  0  0  0  0
  -23.4211  -28.8146   23.2996 O   0  0  0  0  0  0
  -28.3265  -26.4188   20.1562 O   0  0  0  0  0  0
  -26.5616  -34.8914   22.4665 O   0  0  0  0  0  0
  -23.5458  -32.1371   23.7324 O   0  0  0  0  0  0
  -28.6155  -17.4507   24.6682 C   0  0  0  0  0  0
  -28.9541  -16.0873   24.1057 C   0  0  0  0  0  0
  -30.1622  -23.3117   20.3812 C   0  0  0  0  0  0
  -29.2907  -19.3838   21.9929 C   0  0  0  0  0  0
  -29.5863  -17.3288   23.5183 C   0  0  0  0  0  0
  -29.2134  -17.8321   22.1350 C   0  0  2  0  0  0
  -29.0430  -22.3320   20.6565 C   0  0  1  0  0  0
  -28.7737  -23.7566   19.9812 C   0  0  1  0  0  0
  -30.0650  -17.2483   20.9918 C   0  0  2  0  0  0
  -29.7340  -18.3527   19.9032 C   0  0  2  0  0  0
  -30.7153  -18.3127   18.7236 C   0  0  0  0  0  0
  -29.0158  -20.9010   19.9475 C   0  0  0  0  0  0
  -28.1198  -25.0314   20.6717 C   0  0  0  0  0  0
  -29.7795  -15.7766   20.7301 N   0  0  0  0  0  0
  -29.7203  -19.7039   20.6086 N   0  3  1  0  0  0
  -31.4794  -12.5792   19.1451 H   0  0  0  0  0  0
  -30.3982  -11.4469   19.9156 H   0  0  0  0  0  0
  -29.7841  -11.7545   17.4886 H   0  0  0  0  0  0
  -29.6380  -13.4770   17.7300 H   0  0  0  0  0  0
  -27.8713  -11.2894   18.8741 H   0  0  0  0  0  0
  -27.3802  -12.5654   17.7899 H   0  0  0  0  0  0
  -27.6508  -14.2501   19.4921 H   0  0  0  0  0  0
  -28.7237  -12.0996   21.3879 H   0  0  0  0  0  0
  -28.4348  -13.7636   21.8180 H   0  0  0  0  0  0
  -25.2746   -9.5694   22.4747 H   0  0  0  0  0  0
  -23.9987   -7.4647   22.7470 H   0  0  0  0  0  0
  -21.0828   -8.8773   19.8949 H   0  0  0  0  0  0
  -22.3679  -10.9665   19.6154 H   0  0  0  0  0  0
  -21.2013   -7.6128   23.9703 H   0  0  0  0  0  0
  -21.1477   -6.0495   25.9066 H   0  0  0  0  0  0
  -22.0606   -2.7595   23.2825 H   0  0  0  0  0  0
  -22.4046  -11.9880   22.4786 H   0  0  0  0  0  0
  -21.1087  -13.1295   22.2597 H   0  0  0  0  0  0
  -24.6491  -15.8377   20.5138 H   0  0  0  0  0  0
  -26.2530  -15.6261   20.0300 H   0  0  0  0  0  0
  -26.7195  -32.5438   23.1074 H   0  0  0  0  0  0
  -25.0176  -33.9689   25.0490 H   0  0  0  0  0  0
  -22.7188  -31.3006   21.3963 H   0  0  0  0  0  0
  -23.3766  -35.9573   23.3269 H   0  0  0  0  0  0
  -24.3600  -36.8900   22.2053 H   0  0  0  0  0  0
  -23.7217  -37.6447   23.6665 H   0  0  0  0  0  0
  -26.0966  -31.5414   20.5988 H   0  0  0  0  0  0
  -26.8473  -30.8368   21.9988 H   0  0  0  0  0  0
  -28.1236  -28.9636   21.1928 H   0  0  0  0  0  0
  -25.9965  -25.9022   19.0230 H   0  0  0  0  0  0
  -23.9772  -27.2967   19.0118 H   0  0  0  0  0  0
  -23.7653  -30.5866   19.4002 H   0  0  0  0  0  0
  -22.7608  -29.2413   19.8555 H   0  0  0  0  0  0
  -25.1283  -36.1912   25.0827 H   0  0  0  0  0  0
  -21.0005  -28.3257   24.1379 H   0  0  0  0  0  0
  -20.5648  -26.2285   23.3600 H   0  0  0  0  0  0
  -21.6648  -26.7400   22.1213 H   0  0  0  0  0  0
  -19.6906  -25.6289   21.1222 H   0  0  0  0  0  0
  -19.6702  -27.3189   20.6728 H   0  0  0  0  0  0
  -17.4209  -26.6670   21.4008 H   0  0  0  0  0  0
  -18.0338  -26.0067   22.9011 H   0  0  0  0  0  0
  -19.7944  -30.7276   24.2228 H   0  0  0  0  0  0
  -17.5020  -31.6257   24.5154 H   0  0  0  0  0  0
  -15.5354  -30.2951   23.7671 H   0  0  0  0  0  0
  -15.8689  -28.0811   22.7034 H   0  0  0  0  0  0
  -24.6018  -30.6917   25.7779 H   0  0  0  0  0  0
  -24.8875  -32.2792   26.4811 H   0  0  0  0  0  0
  -25.8137  -30.8914   27.0223 H   0  0  0  0  0  0
  -26.2893  -29.6720   24.1204 H   0  0  0  0  0  0
  -27.4081  -29.7231   25.4625 H   0  0  0  0  0  0
  -27.8758  -30.4229   23.9321 H   0  0  0  0  0  0
  -27.2753  -33.3596   26.2008 H   0  0  0  0  0  0
  -28.3949  -32.6742   25.0315 H   0  0  0  0  0  0
  -28.0717  -31.8391   26.5420 H   0  0  0  0  0  0
  -28.2575  -38.0113   24.7560 H   0  0  0  0  0  0
  -28.1111  -36.2641   24.6238 H   0  0  0  0  0  0
  -27.2318  -37.1378   25.8879 H   0  0  0  0  0  0
  -20.9382  -29.8753   21.6868 H   0  0  0  0  0  0
  -26.0156  -38.2836   24.1449 H   0  0  0  0  0  0
  -29.0230  -17.7110   25.6436 H   0  0  0  0  0  0
  -27.6240  -17.8487   24.4556 H   0  0  0  0  0  0
  -28.1798  -15.5797   23.5331 H   0  0  0  0  0  0
  -29.5832  -15.4390   24.7126 H   0  0  0  0  0  0
  -30.8558  -23.0843   19.5741 H   0  0  0  0  0  0
  -30.6176  -23.8011   21.2410 H   0  0  0  0  0  0
  -30.0161  -19.8126   22.6860 H   0  0  0  0  0  0
  -28.3216  -19.8274   22.2241 H   0  0  0  0  0  0
  -30.6333  -17.4904   23.7720 H   0  0  0  0  0  0
  -28.1745  -17.5503   21.9487 H   0  0  0  0  0  0
  -28.7081  -22.2746   21.6903 H   0  0  0  0  0  0
  -28.5489  -23.7124   18.9167 H   0  0  0  0  0  0
  -31.1193  -17.3365   21.2621 H   0  0  0  0  0  0
  -28.7266  -18.1717   19.5237 H   0  0  0  0  0  0
  -31.7399  -18.4943   19.0494 H   0  0  0  0  0  0
  -30.4645  -19.0572   17.9687 H   0  0  0  0  0  0
  -30.6941  -17.3375   18.2372 H   0  0  0  0  0  0
  -29.4190  -21.0205   18.9416 H   0  0  0  0  0  0
  -27.9686  -20.6272   19.8130 H   0  0  0  0  0  0
  -28.4670  -25.0427   21.7055 H   0  0  0  0  0  0
  -27.0544  -24.8173   20.7585 H   0  0  0  0  0  0
  -28.8175  -15.5100   20.8684 H   0  0  0  0  0  0
  -30.6898  -19.9704   20.6937 H   0  0  0  0  0  0
  1 25  1  0  0  0
  1 30  2  0  0  0
  1 84  1  0  0  0
  2  3  1  0  0  0
  2 25  1  0  0  0
  2 86  1  0  0  0
  2 87  1  0  0  0
  3  4  1  0  0  0
  3 88  1  0  0  0
  3 89  1  0  0  0
  4  5  1  0  0  0
  4 90  1  0  0  0
  4 91  1  0  0  0
  5  6  1  0  0  0
  5 26  1  0  0  0
  5 92  1  0  0  0
  6 25  1  0  0  0
  6 93  1  0  0  0
  6 94  1  0  0  0
  7  8  2  0  0  0
  7 26  1  0  0  0
  7 29  1  0  0  0
  8  9  1  0  0  0
  8 22  1  0  0  0
  9 10  1  0  0  0
  9 27  2  0  0  0
 10 11  2  0  0  0
 10 15  1  0  0  0
 11 12  1  0  0  0
 11 95  1  0  0  0
 12 13  2  0  0  0
 12 96  1  0  0  0
 13 14  1  0  0  0
 13 31  1  0  0  0
 14 15  2  0  0  0
 14 97  1  0  0  0
 15 98  1  0  0  0
 16 17  2  0  0  0
 16 21  1  0  0  0
 16 31  1  0  0  0
 17 18  1  0  0  0
 17 99  1  0  0  0
 18 19  2  0  0  0
 18100  1  0  0  0
 19 20  1  0  0  0
 19 24  1  0  0  0
 20 21  2  0  0  0
 20101  1  0  0  0
 21 23  1  0  0  0
 22 28  1  0  0  0
 22 32  2  0  0  0
 26 27  1  0  0  0
 28102  1  0  0  0
 28103  1  0  0  0
 29104  1  0  0  0
 29105  1  0  0  0
 33 34  1  0  0  0
 33 66  1  0  0  0
 33 70  2  0  0  0
 34 36  1  0  0  0
 34 59  1  0  0  0
 34106  1  0  0  0
 35 44  2  0  0  0
 35 45  1  0  0  0
 35 68  1  0  0  0
 36 56  1  0  0  0
 36107  1  0  0  0
 37 39  1  0  0  0
 37 47  1  0  0  0
 37 66  1  0  0  0
 37108  1  0  0  0
 38 43  2  0  0  0
 38 46  1  0  0  0
 38 47  1  0  0  0
 39 64  1  0  0  0
 39 67  2  0  0  0
 40 52  1  0  0  0
 40 53  2  0  0  0
 40 58  1  0  0  0
 41109  1  0  0  0
 41110  1  0  0  0
 41111  1  0  0  0
 41 48  1  0  0  0
 42 43  1  0  0  0
 42 66  1  0  0  0
 42112  1  0  0  0
 42113  1  0  0  0
 43 44  1  0  0  0
 44114  1  0  0  0
 45 46  2  0  0  0
 45115  1  0  0  0
 46116  1  0  0  0
 47117  1  0  0  0
 47118  1  0  0  0
 48 56  1  0  0  0
 48 65  1  0  0  0
 48119  1  0  0  0
 49 50  1  0  0  0
 49 53  1  0  0  0
 49 64  1  0  0  0
 49120  1  0  0  0
 50 51  1  0  0  0
 50121  1  0  0  0
 50122  1  0  0  0
 51 52  1  0  0  0
 51123  1  0  0  0
 51124  1  0  0  0
 52125  1  0  0  0
 52126  1  0  0  0
 53 54  1  0  0  0
 54 55  2  0  0  0
 54127  1  0  0  0
 55 57  1  0  0  0
 55128  1  0  0  0
 56 69  2  0  0  0
 57 58  2  0  0  0
 57129  1  0  0  0
 58130  1  0  0  0
 59 60  1  0  0  0
 59 61  1  0  0  0
 59 62  1  0  0  0
 60131  1  0  0  0
 60132  1  0  0  0
 60133  1  0  0  0
 61134  1  0  0  0
 61135  1  0  0  0
 61136  1  0  0  0
 62137  1  0  0  0
 62138  1  0  0  0
 62139  1  0  0  0
 63 65  1  0  0  0
 63140  1  0  0  0
 63141  1  0  0  0
 63142  1  0  0  0
 64143  1  0  0  0
 65144  1  0  0  0
 68 83  1  0  0  0
 71 72  1  0  0  0
 71145  1  0  0  0
 71146  1  0  0  0
 71 75  1  0  0  0
 72 75  1  0  0  0
 72147  1  0  0  0
 72148  1  0  0  0
 73 77  1  0  0  0
 73 78  1  0  0  0
 73149  1  0  0  0
 73150  1  0  0  0
 74 85  1  0  0  0
 74151  1  0  0  0
 74152  1  0  0  0
 74 76  1  0  0  0
 75 76  1  0  0  0
 75153  1  0  0  0
 76 79  1  0  0  0
 76154  1  0  0  0
 77 78  1  0  0  0
 77 82  1  0  0  0
 77155  1  0  0  0
 78 83  1  0  0  0
 78156  1  0  0  0
 79 80  1  0  0  0
 79 84  1  0  0  0
 79157  1  0  0  0
 80 81  1  0  0  0
 80 85  1  0  0  0
 80158  1  0  0  0
 81159  1  0  0  0
 81160  1  0  0  0
 81161  1  0  0  0
 82162  1  0  0  0
 82163  1  0  0  0
 82 85  1  0  0  0
 83164  1  0  0  0
 83165  1  0  0  0
 84166  1  0  0  0
 85167  1  0  0  0
M  CHG  1  85   1
M  ISO  4   1 100  68 101  83 101  84 100
M  END
> <chiral flag>
0

> <version>
0

> <s_m_source_file>
/data/baiqing/PycharmProjects/Reinvent-master-3.2/result/LINK_invent/BTK/process_docking_weight1_custom_sum_contain_oxygen_bond_distance_aromatic_linkinvent_7_9_3/rearranged_h_0177.sdf

> <i_m_source_file_index>
2

> <r_mmod_Potential_Energy-OPLS-2005>
133.365646362305

> <r_mmod_Stretch_Energy-OPLS-2005>
101.295082092285

> <r_mmod_Bend_Energy-OPLS-2005>
178.541854858398

> <r_mmod_Torsional_Energy-OPLS-2005>
386.800323486328

> <r_mmod_Improper_Torsional_Energy-OPLS-2005>
4.43153047561646

> <r_mmod_Van_der_Waal_Energy-OPLS-2005>
101.204071044922

> <r_mmod_Electrostatic_Energy-OPLS-2005>
-264.884857177734

> <r_mmod_Solvation_Energy-OPLS-2005>
-441.36279296875

> <b_mmod_Minimization_Converged-OPLS-2005>
0

> <r_mmod_RMS_Derivative-OPLS-2005>
1.89461970329285

$$$$
2
                    3D
 Structure written by MMmdl.
164173  0  0  1  0            999 V2000
  -30.6509  -14.6788   20.4961 C   0  0  0  0  0  0
  -30.4256  -12.4206   19.4625 C   0  0  0  0  0  0
  -29.5032  -12.5110   18.2280 C   0  0  0  0  0  0
  -28.0270  -12.3482   18.6402 C   0  0  0  0  0  0
  -27.6466  -13.2273   19.8626 C   0  0  2  0  0  0
  -28.6935  -13.1066   20.9912 C   0  0  0  0  0  0
  -25.2522  -13.8193   20.5699 C   0  0  0  0  0  0
  -24.1804  -13.0441   20.9198 C   0  0  0  0  0  0
  -24.6387  -11.6917   20.8746 C   0  0  0  0  0  0
  -23.9062  -10.4294   21.0403 C   0  0  0  0  0  0
  -24.3614   -9.4209   21.9181 C   0  0  0  0  0  0
  -23.6289   -8.2245   22.0754 C   0  0  0  0  0  0
  -22.4274   -8.0278   21.3542 C   0  0  0  0  0  0
  -21.9906   -9.0253   20.4646 C   0  0  0  0  0  0
  -22.7234  -10.2132   20.3054 C   0  0  0  0  0  0
  -21.6853   -6.0730   22.5275 C   0  0  0  0  0  0
  -21.4015   -6.5636   23.8208 C   0  0  0  0  0  0
  -21.3661   -5.6790   24.9171 C   0  0  0  0  0  0
  -21.6047   -4.3053   24.7224 C   0  0  0  0  0  0
  -21.8819   -3.8143   23.4344 C   0  0  0  0  0  0
  -21.9194   -4.6958   22.3399 C   0  0  0  0  0  0
  -22.7825  -13.5224   21.1854 C   0  0  0  0  0  0
  -22.1661   -4.2145   21.0977 F   0  0  0  0  0  0
  -21.5631   -3.4536   25.7737 F   0  0  0  0  0  0
  -29.9934  -13.4713   20.4134 N   0  0  0  0  0  0
  -26.2959  -12.9395   20.3344 N   0  0  0  0  0  0
  -25.9323  -11.6537   20.5779 N   0  0  0  0  0  0
  -22.0477  -12.8213   22.0415 N   0  0  0  0  0  0
  -25.4212  -15.1913   20.4096 N   0  0  0  0  0  0
  -31.8259  -14.7499   20.1196 O   0  0  0  0  0  0
  -21.6640   -6.8874   21.4236 O   0  0  0  0  0  0
  -22.3508  -14.5528   20.6703 O   0  0  0  0  0  0
  -24.6270  -31.8587   23.2017 C   0  0  0  0  0  0
  -25.9113  -32.4774   23.8353 C   0  0  1  0  0  0
  -27.2200  -27.3109   20.1264 C   0  0  0  0  0  0
  -25.5925  -33.8575   24.2280 N   0  0  0  0  0  0
  -23.4228  -30.4812   21.5437 C   0  0  2  0  0  0
  -24.8723  -28.9365   20.1083 C   0  0  0  0  0  0
  -22.7485  -29.4614   22.4925 C   0  0  0  0  0  0
  -18.0288  -28.1388   22.8488 C   0  0  0  0  0  0
  -24.1488  -36.7290   23.2641 C   0  0  0  0  0  0
  -25.9645  -30.7873   21.3751 C   0  0  0  0  0  0
  -26.0413  -29.4141   20.7174 C   0  0  0  0  0  0
  -27.2232  -28.6119   20.7187 C   0  0  0  0  0  0
  -26.0384  -26.8923   19.4819 C   0  0  0  0  0  0
  -24.8731  -27.6812   19.4796 C   0  0  0  0  0  0
  -23.6393  -29.8163   20.1588 C   0  0  0  0  0  0
  -25.4114  -36.3081   24.0330 C   0  0  1  0  0  0
  -20.5891  -28.3694   23.1277 C   0  0  2  0  0  0
  -20.6781  -26.9415   22.5410 C   0  0  0  0  0  0
  -19.5755  -26.6385   21.5215 C   0  0  0  0  0  0
  -18.1933  -26.7931   22.1624 C   0  0  0  0  0  0
  -19.1542  -28.8858   23.2878 C   0  0  0  0  0  0
  -18.9464  -30.1459   23.8895 C   0  0  0  0  0  0
  -17.6464  -30.6590   24.0563 C   0  0  0  0  0  0
  -25.9050  -34.9449   23.5106 C   0  0  0  0  0  0
  -16.5355  -29.9087   23.6332 C   0  0  0  0  0  0
  -16.7276  -28.6504   23.0356 C   0  0  0  0  0  0
  -26.4497  -31.6584   25.0726 C   0  0  0  0  0  0
  -25.3731  -31.3721   26.1453 C   0  0  0  0  0  0
  -27.0345  -30.3006   24.6189 C   0  0  0  0  0  0
  -27.6056  -32.4322   25.7495 C   0  0  0  0  0  0
  -27.5579  -37.1801   24.8466 C   0  0  0  0  0  0
  -21.4196  -29.3041   22.3665 N   0  0  0  0  0  0
  -26.4293  -37.3777   23.9409 N   0  0  0  0  0  0
  -24.6901  -31.0589   22.0971 N   0  0  0  0  0  0
  -23.4200  -28.8158   23.3015 O   0  0  0  0  0  0
  -28.2810  -26.3953   20.1817 O   0  0  0  0  0  0
  -26.5617  -34.8916   22.4671 O   0  0  0  0  0  0
  -23.5430  -32.1386   23.7336 O   0  0  0  0  0  0
  -28.1106  -21.2525   20.9166 C   0  0  0  0  0  0
  -27.6220  -22.5869   21.0691 C   0  0  0  0  0  0
  -29.4091  -20.9982   20.4173 C   0  0  0  0  0  0
  -28.4199  -23.7145   20.6819 C   0  0  0  0  0  0
  -30.1203  -22.1836   20.0437 C   0  0  0  0  0  0
  -29.1741  -17.8225   21.8596 C   0  0  0  0  0  0
  -29.0997  -16.2724   21.7495 C   0  0  0  0  0  0
  -30.2587  -17.1292   19.8862 C   0  0  0  0  0  0
  -29.3916  -18.3257   20.4333 C   0  0  2  0  0  0
  -31.5223  -22.0775   19.4738 C   0  0  0  0  0  0
  -25.1418  -23.0175   20.6864 C   0  0  0  0  0  0
  -26.2489  -22.7493   21.7131 C   0  0  0  0  0  0
  -28.0061  -25.2132   21.0404 C   0  0  0  0  0  0
  -29.6538  -23.4686   20.1670 N   0  0  0  0  0  0
  -29.9134  -15.8535   20.5975 N   0  0  0  0  0  0
  -30.0086  -19.6884   20.3066 N   0  0  0  0  0  0
  -31.4681  -12.5286   19.1586 H   0  0  0  0  0  0
  -30.3556  -11.4345   19.9249 H   0  0  0  0  0  0
  -29.7737  -11.7491   17.4955 H   0  0  0  0  0  0
  -29.6425  -13.4741   17.7342 H   0  0  0  0  0  0
  -27.8673  -11.2960   18.8791 H   0  0  0  0  0  0
  -27.3721  -12.5702   17.7968 H   0  0  0  0  0  0
  -27.6567  -14.2602   19.5136 H   0  0  0  0  0  0
  -28.7228  -12.0869   21.3779 H   0  0  0  0  0  0
  -28.4350  -13.7310   21.8439 H   0  0  0  0  0  0
  -25.2757   -9.5688   22.4755 H   0  0  0  0  0  0
  -23.9998   -7.4638   22.7473 H   0  0  0  0  0  0
  -21.0838   -8.8767   19.8951 H   0  0  0  0  0  0
  -22.3686  -10.9669   19.6166 H   0  0  0  0  0  0
  -21.2005   -7.6144   23.9709 H   0  0  0  0  0  0
  -21.1486   -6.0521   25.9074 H   0  0  0  0  0  0
  -22.0596   -2.7604   23.2847 H   0  0  0  0  0  0
  -22.4100  -11.9877   22.4800 H   0  0  0  0  0  0
  -21.1096  -13.1235   22.2627 H   0  0  0  0  0  0
  -24.6536  -15.8454   20.5166 H   0  0  0  0  0  0
  -26.2733  -15.6291   20.0840 H   0  0  0  0  0  0
  -26.7184  -32.5444   23.1104 H   0  0  0  0  0  0
  -25.0083  -33.9722   25.0431 H   0  0  0  0  0  0
  -22.7174  -31.3021   21.3998 H   0  0  0  0  0  0
  -23.3751  -35.9621   23.3307 H   0  0  0  0  0  0
  -24.3578  -36.8906   22.2055 H   0  0  0  0  0  0
  -23.7239  -37.6492   23.6660 H   0  0  0  0  0  0
  -26.0970  -31.5506   20.6071 H   0  0  0  0  0  0
  -26.8438  -30.8363   22.0056 H   0  0  0  0  0  0
  -28.1173  -28.9670   21.2120 H   0  0  0  0  0  0
  -26.0081  -25.9241   19.0028 H   0  0  0  0  0  0
  -23.9790  -27.3108   18.9970 H   0  0  0  0  0  0
  -23.7574  -30.5932   19.4025 H   0  0  0  0  0  0
  -22.7596  -29.2452   19.8563 H   0  0  0  0  0  0
  -25.1294  -36.1937   25.0824 H   0  0  0  0  0  0
  -20.9983  -28.3275   24.1397 H   0  0  0  0  0  0
  -20.5693  -26.2302   23.3612 H   0  0  0  0  0  0
  -21.6648  -26.7449   22.1200 H   0  0  0  0  0  0
  -19.6919  -25.6296   21.1247 H   0  0  0  0  0  0
  -19.6693  -27.3193   20.6744 H   0  0  0  0  0  0
  -17.4206  -26.6684   21.4023 H   0  0  0  0  0  0
  -18.0327  -26.0073   22.9019 H   0  0  0  0  0  0
  -19.7939  -30.7276   24.2265 H   0  0  0  0  0  0
  -17.5019  -31.6270   24.5166 H   0  0  0  0  0  0
  -15.5355  -30.2991   23.7660 H   0  0  0  0  0  0
  -15.8675  -28.0824   22.7075 H   0  0  0  0  0  0
  -24.5913  -30.7061   25.7783 H   0  0  0  0  0  0
  -24.8914  -32.2885   26.4871 H   0  0  0  0  0  0
  -25.8059  -30.8909   27.0232 H   0  0  0  0  0  0
  -26.2925  -29.6752   24.1213 H   0  0  0  0  0  0
  -27.4038  -29.7268   25.4699 H   0  0  0  0  0  0
  -27.8794  -30.4290   23.9419 H   0  0  0  0  0  0
  -27.2669  -33.3626   26.2064 H   0  0  0  0  0  0
  -28.3868  -32.6876   25.0324 H   0  0  0  0  0  0
  -28.0722  -31.8453   26.5417 H   0  0  0  0  0  0
  -28.2600  -38.0095   24.7511 H   0  0  0  0  0  0
  -28.1071  -36.2625   24.6298 H   0  0  0  0  0  0
  -27.2295  -37.1459   25.8869 H   0  0  0  0  0  0
  -20.9378  -29.8757   21.6868 H   0  0  0  0  0  0
  -26.0173  -38.2852   24.1410 H   0  0  0  0  0  0
  -27.4954  -20.4207   21.2278 H   0  0  0  0  0  0
  -30.0268  -18.0947   22.4837 H   0  0  0  0  0  0
  -28.2830  -18.2474   22.3235 H   0  0  0  0  0  0
  -28.0667  -15.9724   21.5716 H   0  0  0  0  0  0
  -29.4295  -15.7961   22.6744 H   0  0  0  0  0  0
  -31.3180  -17.3338   20.0520 H   0  0  0  0  0  0
  -30.1236  -17.0088   18.8104 H   0  0  0  0  0  0
  -28.4320  -18.3232   19.9123 H   0  0  0  0  0  0
  -31.5132  -21.4820   18.5611 H   0  0  0  0  0  0
  -32.1871  -21.5980   20.1921 H   0  0  0  0  0  0
  -31.9377  -23.0560   19.2319 H   0  0  0  0  0  0
  -24.1771  -23.1317   21.1819 H   0  0  0  0  0  0
  -25.0523  -22.1927   19.9786 H   0  0  0  0  0  0
  -25.3262  -23.9266   20.1157 H   0  0  0  0  0  0
  -26.2722  -23.5294   22.4742 H   0  0  0  0  0  0
  -26.0001  -21.8406   22.2639 H   0  0  0  0  0  0
  -28.5010  -25.4276   21.9878 H   0  0  0  0  0  0
  -26.9498  -25.2185   21.2979 H   0  0  0  0  0  0
  -30.9628  -19.6813   19.9556 H   0  0  0  0  0  0
  1 25  1  0  0  0
  1 30  2  0  0  0
  1 85  1  0  0  0
  2  3  1  0  0  0
  2 25  1  0  0  0
  2 87  1  0  0  0
  2 88  1  0  0  0
  3  4  1  0  0  0
  3 89  1  0  0  0
  3 90  1  0  0  0
  4  5  1  0  0  0
  4 91  1  0  0  0
  4 92  1  0  0  0
  5  6  1  0  0  0
  5 26  1  0  0  0
  5 93  1  0  0  0
  6 25  1  0  0  0
  6 94  1  0  0  0
  6 95  1  0  0  0
  7  8  2  0  0  0
  7 26  1  0  0  0
  7 29  1  0  0  0
  8  9  1  0  0  0
  8 22  1  0  0  0
  9 10  1  0  0  0
  9 27  2  0  0  0
 10 11  2  0  0  0
 10 15  1  0  0  0
 11 12  1  0  0  0
 11 96  1  0  0  0
 12 13  2  0  0  0
 12 97  1  0  0  0
 13 14  1  0  0  0
 13 31  1  0  0  0
 14 15  2  0  0  0
 14 98  1  0  0  0
 15 99  1  0  0  0
 16 17  2  0  0  0
 16 21  1  0  0  0
 16 31  1  0  0  0
 17 18  1  0  0  0
 17100  1  0  0  0
 18 19  2  0  0  0
 18101  1  0  0  0
 19 20  1  0  0  0
 19 24  1  0  0  0
 20 21  2  0  0  0
 20102  1  0  0  0
 21 23  1  0  0  0
 22 28  1  0  0  0
 22 32  2  0  0  0
 26 27  1  0  0  0
 28103  1  0  0  0
 28104  1  0  0  0
 29105  1  0  0  0
 29106  1  0  0  0
 33 34  1  0  0  0
 33 66  1  0  0  0
 33 70  2  0  0  0
 34 36  1  0  0  0
 34 59  1  0  0  0
 34107  1  0  0  0
 35 44  2  0  0  0
 35 45  1  0  0  0
 35 68  1  0  0  0
 36 56  1  0  0  0
 36108  1  0  0  0
 37 39  1  0  0  0
 37 47  1  0  0  0
 37 66  1  0  0  0
 37109  1  0  0  0
 38 43  2  0  0  0
 38 46  1  0  0  0
 38 47  1  0  0  0
 39 64  1  0  0  0
 39 67  2  0  0  0
 40 52  1  0  0  0
 40 53  2  0  0  0
 40 58  1  0  0  0
 41110  1  0  0  0
 41111  1  0  0  0
 41112  1  0  0  0
 41 48  1  0  0  0
 42 43  1  0  0  0
 42 66  1  0  0  0
 42113  1  0  0  0
 42114  1  0  0  0
 43 44  1  0  0  0
 44115  1  0  0  0
 45 46  2  0  0  0
 45116  1  0  0  0
 46117  1  0  0  0
 47118  1  0  0  0
 47119  1  0  0  0
 48 56  1  0  0  0
 48 65  1  0  0  0
 48120  1  0  0  0
 49 50  1  0  0  0
 49 53  1  0  0  0
 49 64  1  0  0  0
 49121  1  0  0  0
 50 51  1  0  0  0
 50122  1  0  0  0
 50123  1  0  0  0
 51 52  1  0  0  0
 51124  1  0  0  0
 51125  1  0  0  0
 52126  1  0  0  0
 52127  1  0  0  0
 53 54  1  0  0  0
 54 55  2  0  0  0
 54128  1  0  0  0
 55 57  1  0  0  0
 55129  1  0  0  0
 56 69  2  0  0  0
 57 58  2  0  0  0
 57130  1  0  0  0
 58131  1  0  0  0
 59 60  1  0  0  0
 59 61  1  0  0  0
 59 62  1  0  0  0
 60132  1  0  0  0
 60133  1  0  0  0
 60134  1  0  0  0
 61135  1  0  0  0
 61136  1  0  0  0
 61137  1  0  0  0
 62138  1  0  0  0
 62139  1  0  0  0
 62140  1  0  0  0
 63 65  1  0  0  0
 63141  1  0  0  0
 63142  1  0  0  0
 63143  1  0  0  0
 64144  1  0  0  0
 65145  1  0  0  0
 68 83  1  0  0  0
 71 72  2  0  0  0
 71 73  1  0  0  0
 71146  1  0  0  0
 72 74  1  0  0  0
 72 82  1  0  0  0
 73 75  2  0  0  0
 73 86  1  0  0  0
 74 83  1  0  0  0
 74 84  2  0  0  0
 75 80  1  0  0  0
 75 84  1  0  0  0
 76 77  1  0  0  0
 76 79  1  0  0  0
 76147  1  0  0  0
 76148  1  0  0  0
 77 85  1  0  0  0
 77149  1  0  0  0
 77150  1  0  0  0
 78 79  1  0  0  0
 78 85  1  0  0  0
 78151  1  0  0  0
 78152  1  0  0  0
 79 86  1  0  0  0
 79153  1  0  0  0
 80154  1  0  0  0
 80155  1  0  0  0
 80156  1  0  0  0
 81 82  1  0  0  0
 81157  1  0  0  0
 81158  1  0  0  0
 81159  1  0  0  0
 82160  1  0  0  0
 82161  1  0  0  0
 83162  1  0  0  0
 83163  1  0  0  0
 86164  1  0  0  0
M  ISO  4   1 100  68 101  83 101  85 100
M  END
> <chiral flag>
0

> <version>
0

> <s_m_source_file>
/data/baiqing/PycharmProjects/Reinvent-master-3.2/result/LINK_invent/BTK/process_docking_weight1_custom_sum_contain_oxygen_bond_distance_aromatic_linkinvent_7_9_3/rearranged_h_0177.sdf

> <i_m_source_file_index>
3

> <r_mmod_Potential_Energy-OPLS-2005>
186.099212646484

> <r_mmod_Stretch_Energy-OPLS-2005>
90.2510833740234

> <r_mmod_Bend_Energy-OPLS-2005>
190.927154541016

> <r_mmod_Torsional_Energy-OPLS-2005>
331.968658447266

> <r_mmod_Improper_Torsional_Energy-OPLS-2005>
14.6532497406006

> <r_mmod_Van_der_Waal_Energy-OPLS-2005>
136.48762512207

> <r_mmod_Electrostatic_Energy-OPLS-2005>
-419.880065917969

> <r_mmod_Solvation_Energy-OPLS-2005>
-219.867324829102

> <b_mmod_Minimization_Converged-OPLS-2005>
0

> <r_mmod_RMS_Derivative-OPLS-2005>
0.402416676282883

$$$$
3
                    3D
 Structure written by MMmdl.
165175  0  0  1  0            999 V2000
  -30.6506  -14.7781   20.3809 C   0  0  0  0  0  0
  -30.4403  -12.4519   19.4730 C   0  0  0  0  0  0
  -29.5088  -12.3590   18.2465 C   0  0  0  0  0  0
  -28.0353  -12.2078   18.6757 C   0  0  0  0  0  0
  -27.6220  -13.1665   19.8189 C   0  0  2  0  0  0
  -28.6847  -13.2440   20.9401 C   0  0  0  0  0  0
  -25.2538  -13.8010   20.5746 C   0  0  0  0  0  0
  -24.1769  -13.0351   20.9247 C   0  0  0  0  0  0
  -24.6287  -11.6812   20.8812 C   0  0  0  0  0  0
  -23.8964  -10.4236   21.0450 C   0  0  0  0  0  0
  -24.3551   -9.4158   21.9208 C   0  0  0  0  0  0
  -23.6248   -8.2190   22.0759 C   0  0  0  0  0  0
  -22.4232   -8.0235   21.3540 C   0  0  0  0  0  0
  -21.9852   -9.0205   20.4649 C   0  0  0  0  0  0
  -22.7158  -10.2091   20.3073 C   0  0  0  0  0  0
  -21.6834   -6.0708   22.5277 C   0  0  0  0  0  0
  -21.3994   -6.5621   23.8206 C   0  0  0  0  0  0
  -21.3649   -5.6780   24.9172 C   0  0  0  0  0  0
  -21.6044   -4.3044   24.7228 C   0  0  0  0  0  0
  -21.8826   -3.8132   23.4353 C   0  0  0  0  0  0
  -21.9191   -4.6941   22.3406 C   0  0  0  0  0  0
  -22.7812  -13.5206   21.1883 C   0  0  0  0  0  0
  -22.1667   -4.2132   21.0982 F   0  0  0  0  0  0
  -21.5631   -3.4530   25.7743 F   0  0  0  0  0  0
  -29.9730  -13.5747   20.3150 N   0  0  0  0  0  0
  -26.2856  -12.9064   20.3282 N   0  0  0  0  0  0
  -25.9189  -11.6299   20.5849 N   0  0  0  0  0  0
  -22.0428  -12.8230   22.0439 N   0  0  0  0  0  0
  -25.4294  -15.1729   20.4209 N   0  0  0  0  0  0
  -31.8811  -14.7677   20.2876 O   0  0  0  0  0  0
  -21.6607   -6.8835   21.4233 O   0  0  0  0  0  0
  -22.3541  -14.5526   20.6718 O   0  0  0  0  0  0
  -24.6257  -31.8602   23.2024 C   0  0  0  0  0  0
  -25.9101  -32.4783   23.8357 C   0  0  1  0  0  0
  -27.2340  -27.3204   20.1258 C   0  0  0  0  0  0
  -25.5918  -33.8583   24.2285 N   0  0  0  0  0  0
  -23.4204  -30.4825   21.5444 C   0  0  2  0  0  0
  -24.8704  -28.9390   20.1105 C   0  0  0  0  0  0
  -22.7476  -29.4620   22.4932 C   0  0  0  0  0  0
  -18.0288  -28.1385   22.8483 C   0  0  0  0  0  0
  -24.1487  -36.7294   23.2639 C   0  0  0  0  0  0
  -25.9608  -30.7923   21.3740 C   0  0  0  0  0  0
  -26.0373  -29.4194   20.7176 C   0  0  0  0  0  0
  -27.2198  -28.6220   20.7161 C   0  0  0  0  0  0
  -26.0444  -26.8978   19.4844 C   0  0  0  0  0  0
  -24.8766  -27.6838   19.4840 C   0  0  0  0  0  0
  -23.6366  -29.8169   20.1596 C   0  0  0  0  0  0
  -25.4112  -36.3086   24.0332 C   0  0  1  0  0  0
  -20.5887  -28.3690   23.1283 C   0  0  2  0  0  0
  -20.6776  -26.9412   22.5413 C   0  0  0  0  0  0
  -19.5754  -26.6386   21.5211 C   0  0  0  0  0  0
  -18.1932  -26.7929   22.1618 C   0  0  0  0  0  0
  -19.1540  -28.8854   23.2879 C   0  0  0  0  0  0
  -18.9462  -30.1454   23.8902 C   0  0  0  0  0  0
  -17.6463  -30.6586   24.0564 C   0  0  0  0  0  0
  -25.9046  -34.9455   23.5109 C   0  0  0  0  0  0
  -16.5353  -29.9085   23.6327 C   0  0  0  0  0  0
  -16.7276  -28.6500   23.0350 C   0  0  0  0  0  0
  -26.4490  -31.6591   25.0723 C   0  0  0  0  0  0
  -25.3725  -31.3731   26.1454 C   0  0  0  0  0  0
  -27.0324  -30.3013   24.6171 C   0  0  0  0  0  0
  -27.6056  -32.4320   25.7491 C   0  0  0  0  0  0
  -27.5580  -37.1801   24.8462 C   0  0  0  0  0  0
  -21.4189  -29.3041   22.3674 N   0  0  0  0  0  0
  -26.4291  -37.3779   23.9408 N   0  0  0  0  0  0
  -24.6874  -31.0614   22.0975 N   0  0  0  0  0  0
  -23.4200  -28.8157   23.3010 O   0  0  0  0  0  0
  -28.3564  -26.4754   20.2024 O   0  0  0  0  0  0
  -26.5614  -34.8921   22.4675 O   0  0  0  0  0  0
  -23.5417  -32.1397   23.7350 O   0  0  0  0  0  0
  -31.1612  -19.3481   20.3853 C   0  0  0  0  0  0
  -29.0583  -19.2179   21.4134 C   0  0  0  0  0  0
  -30.0556  -20.0680   20.8929 C   0  0  0  0  0  0
  -30.1873  -17.2626   20.7737 C   0  0  0  0  0  0
  -29.0403  -17.1578   18.0831 C   0  0  0  0  0  0
  -29.1963  -15.7091   17.7312 C   0  0  0  0  0  0
  -29.2271  -22.5025   19.9098 C   0  0  0  0  0  0
  -30.0275  -21.6494   20.9463 C   0  0  1  0  0  0
  -28.9353  -16.0963   19.1772 C   0  0  0  0  0  0
  -29.2779  -23.9770   20.4753 C   0  0  1  0  0  0
  -29.5246  -22.3118   22.2489 C   0  0  1  0  0  0
  -30.4666  -22.0936   23.4414 C   0  0  0  0  0  0
  -28.1639  -25.0186   19.9993 C   0  0  0  0  0  0
  -31.2156  -17.9872   20.3173 N   0  0  0  0  0  0
  -29.1267  -17.8585   21.3446 N   0  0  0  0  0  0
  -29.9488  -15.9795   20.2052 N   0  0  0  0  0  0
  -29.3147  -23.7598   21.9465 N   0  3  0  0  0  0
  -31.4722  -12.5836   19.1420 H   0  0  0  0  0  0
  -30.4225  -11.5217   20.0436 H   0  0  0  0  0  0
  -29.7950  -11.4995   17.6388 H   0  0  0  0  0  0
  -29.6379  -13.2157   17.5951 H   0  0  0  0  0  0
  -27.9069  -11.1771   19.0071 H   0  0  0  0  0  0
  -27.3749  -12.3302   17.8161 H   0  0  0  0  0  0
  -27.5329  -14.1086   19.3124 H   0  0  0  0  0  0
  -28.7520  -12.2982   21.4795 H   0  0  0  0  0  0
  -28.4090  -14.0050   21.6726 H   0  0  0  0  0  0
  -25.2695   -9.5646   22.4783 H   0  0  0  0  0  0
  -23.9958   -7.4576   22.7470 H   0  0  0  0  0  0
  -21.0785   -8.8711   19.8959 H   0  0  0  0  0  0
  -22.3609  -10.9634   19.6189 H   0  0  0  0  0  0
  -21.1975   -7.6126   23.9698 H   0  0  0  0  0  0
  -21.1464   -6.0514   25.9072 H   0  0  0  0  0  0
  -22.0617   -2.7595   23.2862 H   0  0  0  0  0  0
  -22.4011  -11.9885   22.4843 H   0  0  0  0  0  0
  -21.1055  -13.1290   22.2636 H   0  0  0  0  0  0
  -24.6698  -15.8309   20.5584 H   0  0  0  0  0  0
  -26.2976  -15.6210   20.1644 H   0  0  0  0  0  0
  -26.7172  -32.5463   23.1109 H   0  0  0  0  0  0
  -25.0066  -33.9730   25.0431 H   0  0  0  0  0  0
  -22.7137  -31.3025   21.4004 H   0  0  0  0  0  0
  -23.3752  -35.9623   23.3302 H   0  0  0  0  0  0
  -24.3583  -36.8912   22.2053 H   0  0  0  0  0  0
  -23.7238  -37.6496   23.6659 H   0  0  0  0  0  0
  -26.0909  -31.5554   20.6054 H   0  0  0  0  0  0
  -26.8414  -30.8432   22.0026 H   0  0  0  0  0  0
  -28.1125  -28.9857   21.2055 H   0  0  0  0  0  0
  -25.9846  -25.9430   18.9837 H   0  0  0  0  0  0
  -23.9837  -27.3121   18.9999 H   0  0  0  0  0  0
  -23.7555  -30.5934   19.4031 H   0  0  0  0  0  0
  -22.7580  -29.2444   19.8567 H   0  0  0  0  0  0
  -25.1290  -36.1941   25.0824 H   0  0  0  0  0  0
  -20.9980  -28.3270   24.1403 H   0  0  0  0  0  0
  -20.5673  -26.2298   23.3612 H   0  0  0  0  0  0
  -21.6646  -26.7441   22.1211 H   0  0  0  0  0  0
  -19.6914  -25.6296   21.1240 H   0  0  0  0  0  0
  -19.6692  -27.3197   20.6741 H   0  0  0  0  0  0
  -17.4201  -26.6680   21.4019 H   0  0  0  0  0  0
  -18.0329  -26.0073   22.9016 H   0  0  0  0  0  0
  -19.7939  -30.7264   24.2279 H   0  0  0  0  0  0
  -17.5019  -31.6267   24.5163 H   0  0  0  0  0  0
  -15.5355  -30.2988   23.7651 H   0  0  0  0  0  0
  -15.8675  -28.0820   22.7069 H   0  0  0  0  0  0
  -24.5902  -30.7075   25.7788 H   0  0  0  0  0  0
  -24.8912  -32.2897   26.4873 H   0  0  0  0  0  0
  -25.8052  -30.8918   27.0232 H   0  0  0  0  0  0
  -26.2889  -29.6773   24.1197 H   0  0  0  0  0  0
  -27.4023  -29.7263   25.4670 H   0  0  0  0  0  0
  -27.8763  -30.4298   23.9388 H   0  0  0  0  0  0
  -27.2673  -33.3620   26.2074 H   0  0  0  0  0  0
  -28.3862  -32.6882   25.0313 H   0  0  0  0  0  0
  -28.0730  -31.8441   26.5400 H   0  0  0  0  0  0
  -28.2599  -38.0098   24.7513 H   0  0  0  0  0  0
  -28.1075  -36.2631   24.6281 H   0  0  0  0  0  0
  -27.2301  -37.1446   25.8866 H   0  0  0  0  0  0
  -20.9363  -29.8763   21.6885 H   0  0  0  0  0  0
  -26.0174  -38.2855   24.1412 H   0  0  0  0  0  0
  -32.0188  -19.8733   19.9922 H   0  0  0  0  0  0
  -28.1703  -19.6266   21.8724 H   0  0  0  0  0  0
  -28.1201  -17.6491   17.7704 H   0  0  0  0  0  0
  -29.9371  -17.7660   17.9924 H   0  0  0  0  0  0
  -30.1985  -15.3940   17.4456 H   0  0  0  0  0  0
  -28.3849  -15.2375   17.1795 H   0  0  0  0  0  0
  -28.1927  -22.1583   19.8609 H   0  0  0  0  0  0
  -29.6416  -22.4341   18.9031 H   0  0  0  0  0  0
  -31.0713  -21.9485   20.8294 H   0  0  0  0  0  0
  -27.9215  -16.0925   19.5645 H   0  0  0  0  0  0
  -30.2481  -24.3893   20.1951 H   0  0  0  0  0  0
  -28.5418  -21.9070   22.4968 H   0  0  0  0  0  0
  -31.4612  -22.4962   23.2474 H   0  0  0  0  0  0
  -30.5785  -21.0315   23.6594 H   0  0  0  0  0  0
  -30.0810  -22.5714   24.3423 H   0  0  0  0  0  0
  -27.2212  -24.7085   20.4522 H   0  0  0  0  0  0
  -28.0406  -24.8792   18.9244 H   0  0  0  0  0  0
  -28.4548  -24.0668   22.3760 H   0  0  0  0  0  0
  -30.0619  -24.3110   22.3392 H   0  0  0  0  0  0
  1 25  1  0  0  0
  1 30  2  0  0  0
  1 86  1  0  0  0
  2  3  1  0  0  0
  2 25  1  0  0  0
  2 88  1  0  0  0
  2 89  1  0  0  0
  3  4  1  0  0  0
  3 90  1  0  0  0
  3 91  1  0  0  0
  4  5  1  0  0  0
  4 92  1  0  0  0
  4 93  1  0  0  0
  5  6  1  0  0  0
  5 26  1  0  0  0
  5 94  1  0  0  0
  6 25  1  0  0  0
  6 95  1  0  0  0
  6 96  1  0  0  0
  7  8  2  0  0  0
  7 26  1  0  0  0
  7 29  1  0  0  0
  8  9  1  0  0  0
  8 22  1  0  0  0
  9 10  1  0  0  0
  9 27  2  0  0  0
 10 11  2  0  0  0
 10 15  1  0  0  0
 11 12  1  0  0  0
 11 97  1  0  0  0
 12 13  2  0  0  0
 12 98  1  0  0  0
 13 14  1  0  0  0
 13 31  1  0  0  0
 14 15  2  0  0  0
 14 99  1  0  0  0
 15100  1  0  0  0
 16 17  2  0  0  0
 16 21  1  0  0  0
 16 31  1  0  0  0
 17 18  1  0  0  0
 17101  1  0  0  0
 18 19  2  0  0  0
 18102  1  0  0  0
 19 20  1  0  0  0
 19 24  1  0  0  0
 20 21  2  0  0  0
 20103  1  0  0  0
 21 23  1  0  0  0
 22 28  1  0  0  0
 22 32  2  0  0  0
 26 27  1  0  0  0
 28104  1  0  0  0
 28105  1  0  0  0
 29106  1  0  0  0
 29107  1  0  0  0
 33 34  1  0  0  0
 33 66  1  0  0  0
 33 70  2  0  0  0
 34 36  1  0  0  0
 34 59  1  0  0  0
 34108  1  0  0  0
 35 44  2  0  0  0
 35 45  1  0  0  0
 35 68  1  0  0  0
 36 56  1  0  0  0
 36109  1  0  0  0
 37 39  1  0  0  0
 37 47  1  0  0  0
 37 66  1  0  0  0
 37110  1  0  0  0
 38 43  2  0  0  0
 38 46  1  0  0  0
 38 47  1  0  0  0
 39 64  1  0  0  0
 39 67  2  0  0  0
 40 52  1  0  0  0
 40 53  2  0  0  0
 40 58  1  0  0  0
 41111  1  0  0  0
 41112  1  0  0  0
 41113  1  0  0  0
 41 48  1  0  0  0
 42 43  1  0  0  0
 42 66  1  0  0  0
 42114  1  0  0  0
 42115  1  0  0  0
 43 44  1  0  0  0
 44116  1  0  0  0
 45 46  2  0  0  0
 45117  1  0  0  0
 46118  1  0  0  0
 47119  1  0  0  0
 47120  1  0  0  0
 48 56  1  0  0  0
 48 65  1  0  0  0
 48121  1  0  0  0
 49 50  1  0  0  0
 49 53  1  0  0  0
 49 64  1  0  0  0
 49122  1  0  0  0
 50 51  1  0  0  0
 50123  1  0  0  0
 50124  1  0  0  0
 51 52  1  0  0  0
 51125  1  0  0  0
 51126  1  0  0  0
 52127  1  0  0  0
 52128  1  0  0  0
 53 54  1  0  0  0
 54 55  2  0  0  0
 54129  1  0  0  0
 55 57  1  0  0  0
 55130  1  0  0  0
 56 69  2  0  0  0
 57 58  2  0  0  0
 57131  1  0  0  0
 58132  1  0  0  0
 59 60  1  0  0  0
 59 61  1  0  0  0
 59 62  1  0  0  0
 60133  1  0  0  0
 60134  1  0  0  0
 60135  1  0  0  0
 61136  1  0  0  0
 61137  1  0  0  0
 61138  1  0  0  0
 62139  1  0  0  0
 62140  1  0  0  0
 62141  1  0  0  0
 63 65  1  0  0  0
 63142  1  0  0  0
 63143  1  0  0  0
 63144  1  0  0  0
 64145  1  0  0  0
 65146  1  0  0  0
 68 83  1  0  0  0
 71 73  2  0  0  0
 71 84  1  0  0  0
 71147  1  0  0  0
 72 73  1  0  0  0
 72 85  2  0  0  0
 72148  1  0  0  0
 73 78  1  0  0  0
 74 84  2  0  0  0
 74 85  1  0  0  0
 74 86  1  0  0  0
 75 76  1  0  0  0
 75 79  1  0  0  0
 75149  1  0  0  0
 75150  1  0  0  0
 76 79  1  0  0  0
 76151  1  0  0  0
 76152  1  0  0  0
 77 78  1  0  0  0
 77 80  1  0  0  0
 77153  1  0  0  0
 77154  1  0  0  0
 78 81  1  0  0  0
 78155  1  0  0  0
 79 86  1  0  0  0
 79156  1  0  0  0
 80 83  1  0  0  0
 80 87  1  0  0  0
 80157  1  0  0  0
 81 82  1  0  0  0
 81 87  1  0  0  0
 81158  1  0  0  0
 82159  1  0  0  0
 82160  1  0  0  0
 82161  1  0  0  0
 83162  1  0  0  0
 83163  1  0  0  0
 87164  1  0  0  0
 87165  1  0  0  0
M  CHG  1  87   1
M  ISO  4   1 100  68 101  83 101  86 100
M  END
> <chiral flag>
0

> <version>
0

> <s_m_source_file>
/data/baiqing/PycharmProjects/Reinvent-master-3.2/result/LINK_invent/BTK/process_docking_weight1_custom_sum_contain_oxygen_bond_distance_aromatic_linkinvent_7_9_3/rearranged_h_0177.sdf

> <i_m_source_file_index>
4

> <r_mmod_Potential_Energy-OPLS-2005>
-22.4252529144287

> <r_mmod_Stretch_Energy-OPLS-2005>
86.5876388549805

> <r_mmod_Bend_Energy-OPLS-2005>
195.388153076172

> <r_mmod_Torsional_Energy-OPLS-2005>
442.427764892578

> <r_mmod_Improper_Torsional_Energy-OPLS-2005>
14.3101091384888

> <r_mmod_Van_der_Waal_Energy-OPLS-2005>
151.160690307617

> <r_mmod_Electrostatic_Energy-OPLS-2005>
-553.373291015625

> <r_mmod_Solvation_Energy-OPLS-2005>
-457.164642333984

> <b_mmod_Minimization_Converged-OPLS-2005>
0

> <r_mmod_RMS_Derivative-OPLS-2005>
0.649613916873932

$$$$
4
                    3D
 Structure written by MMmdl.
168178  0  0  1  0            999 V2000
  -30.6584  -14.8682   20.4535 C   0  0  0  0  0  0
  -30.4140  -12.5526   19.4833 C   0  0  0  0  0  0
  -29.4991  -12.5104   18.2432 C   0  0  0  0  0  0
  -28.0352  -12.3136   18.6719 C   0  0  0  0  0  0
  -27.6253  -13.2503   19.8397 C   0  0  2  0  0  0
  -28.6770  -13.2793   20.9707 C   0  0  0  0  0  0
  -25.2424  -13.8231   20.5716 C   0  0  0  0  0  0
  -24.1756  -13.0448   20.9246 C   0  0  0  0  0  0
  -24.6388  -11.6940   20.8788 C   0  0  0  0  0  0
  -23.9087  -10.4303   21.0426 C   0  0  0  0  0  0
  -24.3633   -9.4209   21.9196 C   0  0  0  0  0  0
  -23.6303   -8.2245   22.0756 C   0  0  0  0  0  0
  -22.4287   -8.0285   21.3543 C   0  0  0  0  0  0
  -21.9934   -9.0264   20.4645 C   0  0  0  0  0  0
  -22.7267  -10.2143   20.3064 C   0  0  0  0  0  0
  -21.6853   -6.0744   22.5281 C   0  0  0  0  0  0
  -21.4016   -6.5645   23.8217 C   0  0  0  0  0  0
  -21.3661   -5.6793   24.9175 C   0  0  0  0  0  0
  -21.6042   -4.3056   24.7224 C   0  0  0  0  0  0
  -21.8818   -3.8153   23.4344 C   0  0  0  0  0  0
  -21.9193   -4.6972   22.3401 C   0  0  0  0  0  0
  -22.7776  -13.5206   21.1892 C   0  0  0  0  0  0
  -22.1659   -4.2159   21.0980 F   0  0  0  0  0  0
  -21.5630   -3.4541   25.7738 F   0  0  0  0  0  0
  -29.9449  -13.6769   20.3478 N   0  0  0  0  0  0
  -26.2868  -12.9477   20.3307 N   0  0  0  0  0  0
  -25.9325  -11.6603   20.5813 N   0  0  0  0  0  0
  -22.0433  -12.8183   22.0442 N   0  0  0  0  0  0
  -25.4045  -15.1951   20.4061 N   0  0  0  0  0  0
  -31.8681  -14.7795   20.2169 O   0  0  0  0  0  0
  -21.6642   -6.8888   21.4245 O   0  0  0  0  0  0
  -22.3457  -14.5509   20.6734 O   0  0  0  0  0  0
  -24.6365  -31.8477   23.1955 C   0  0  0  0  0  0
  -25.9178  -32.4694   23.8303 C   0  0  1  0  0  0
  -27.1997  -27.1749   20.1617 C   0  0  0  0  0  0
  -25.5957  -33.8497   24.2220 N   0  0  0  0  0  0
  -23.4356  -30.4698   21.5390 C   0  0  2  0  0  0
  -24.8800  -28.8994   20.1196 C   0  0  0  0  0  0
  -22.7529  -29.4558   22.4892 C   0  0  0  0  0  0
  -18.0297  -28.1383   22.8460 C   0  0  0  0  0  0
  -24.1504  -36.7262   23.2643 C   0  0  0  0  0  0
  -25.9859  -30.7315   21.3906 C   0  0  0  0  0  0
  -26.0503  -29.3400   20.7514 C   0  0  0  0  0  0
  -27.2085  -28.4865   20.7704 C   0  0  0  0  0  0
  -26.0317  -26.8540   19.4478 C   0  0  0  0  0  0
  -24.8778  -27.6635   19.4582 C   0  0  0  0  0  0
  -23.6588  -29.8017   20.1570 C   0  0  0  0  0  0
  -25.4128  -36.3029   24.0320 C   0  0  1  0  0  0
  -20.5904  -28.3684   23.1260 C   0  0  2  0  0  0
  -20.6784  -26.9391   22.5408 C   0  0  0  0  0  0
  -19.5764  -26.6371   21.5208 C   0  0  0  0  0  0
  -18.1936  -26.7923   22.1605 C   0  0  0  0  0  0
  -19.1553  -28.8853   23.2845 C   0  0  0  0  0  0
  -18.9482  -30.1453   23.8863 C   0  0  0  0  0  0
  -17.6479  -30.6581   24.0552 C   0  0  0  0  0  0
  -25.9064  -34.9393   23.5070 C   0  0  0  0  0  0
  -16.5365  -29.9079   23.6328 C   0  0  0  0  0  0
  -16.7283  -28.6501   23.0340 C   0  0  0  0  0  0
  -26.4522  -31.6555   25.0722 C   0  0  0  0  0  0
  -25.3737  -31.3743   26.1449 C   0  0  0  0  0  0
  -27.0381  -30.2964   24.6244 C   0  0  0  0  0  0
  -27.6055  -32.4324   25.7506 C   0  0  0  0  0  0
  -27.5575  -37.1779   24.8465 C   0  0  0  0  0  0
  -21.4236  -29.3020   22.3644 N   0  0  0  0  0  0
  -26.4285  -37.3743   23.9416 N   0  0  0  0  0  0
  -24.7054  -31.0374   22.0970 N   0  0  0  0  0  0
  -23.4202  -28.8101   23.3013 O   0  0  0  0  0  0
  -28.3165  -26.2953   20.0661 O   0  0  0  0  0  0
  -26.5648  -34.8884   22.4642 O   0  0  0  0  0  0
  -23.5506  -32.1357   23.7195 O   0  0  0  0  0  0
  -28.0245  -23.6063   20.1803 C   0  0  0  0  0  0
  -28.8023  -22.3849   20.4989 C   0  0  0  0  0  0
  -28.5598  -24.9345   20.5365 C   0  0  0  0  0  0
  -30.3311  -23.7804   21.5074 C   0  0  0  0  0  0
  -25.6698  -22.4422   19.8013 C   0  0  0  0  0  0
  -25.4010  -23.8758   20.1323 C   0  0  0  0  0  0
  -30.4617  -18.7930   19.8824 C   0  0  0  0  0  0
  -28.2757  -18.1595   20.5895 C   0  0  0  0  0  0
  -31.0113  -17.3937   20.4258 C   0  0  0  0  0  0
  -28.8207  -16.7174   21.0797 C   0  0  0  0  0  0
  -26.7083  -23.4962   19.4549 C   0  0  0  0  0  0
  -29.2186  -19.4413   20.5933 C   0  0  0  0  0  0
  -31.6130  -23.8976   22.3013 C   0  0  0  0  0  0
  -28.7435  -20.8677   18.4271 C   0  0  0  0  0  0
  -28.5727  -20.8585   19.9555 C   0  0  2  0  0  0
  -29.9661  -22.5551   21.1475 N   0  0  0  0  0  0
  -29.7178  -24.9250   21.2206 N   0  0  0  0  0  0
  -30.0994  -16.1884   20.5020 N   0  0  0  0  0  0
  -31.4508  -12.6619   19.1613 H   0  0  0  0  0  0
  -30.3774  -11.6054   20.0242 H   0  0  0  0  0  0
  -29.8048  -11.7070   17.5712 H   0  0  0  0  0  0
  -29.5982  -13.4398   17.6794 H   0  0  0  0  0  0
  -27.9252  -11.2739   18.9793 H   0  0  0  0  0  0
  -27.3674  -12.4488   17.8204 H   0  0  0  0  0  0
  -27.5884  -14.2501   19.4061 H   0  0  0  0  0  0
  -28.7634  -12.3030   21.4500 H   0  0  0  0  0  0
  -28.3954  -13.9766   21.7590 H   0  0  0  0  0  0
  -25.2777   -9.5683   22.4777 H   0  0  0  0  0  0
  -24.0011   -7.4635   22.7471 H   0  0  0  0  0  0
  -21.0870   -8.8790   19.8940 H   0  0  0  0  0  0
  -22.3733  -10.9687   19.6172 H   0  0  0  0  0  0
  -21.2007   -7.6155   23.9724 H   0  0  0  0  0  0
  -21.1481   -6.0523   25.9078 H   0  0  0  0  0  0
  -22.0595   -2.7619   23.2842 H   0  0  0  0  0  0
  -22.4062  -11.9844   22.4820 H   0  0  0  0  0  0
  -21.1047  -13.1187   22.2648 H   0  0  0  0  0  0
  -24.6320  -15.8439   20.5075 H   0  0  0  0  0  0
  -26.2460  -15.6349   20.0586 H   0  0  0  0  0  0
  -26.7213  -32.5315   23.1010 H   0  0  0  0  0  0
  -25.0118  -33.9626   25.0378 H   0  0  0  0  0  0
  -22.7353  -31.2944   21.3871 H   0  0  0  0  0  0
  -23.3749  -35.9609   23.3303 H   0  0  0  0  0  0
  -24.3599  -36.8905   22.2058 H   0  0  0  0  0  0
  -23.7269  -37.6461   23.6685 H   0  0  0  0  0  0
  -26.1304  -31.4798   20.6096 H   0  0  0  0  0  0
  -26.8629  -30.7893   22.0238 H   0  0  0  0  0  0
  -28.1090  -28.8215   21.2638 H   0  0  0  0  0  0
  -26.0129  -25.9642   18.8426 H   0  0  0  0  0  0
  -23.9994  -27.3379   18.9193 H   0  0  0  0  0  0
  -23.7955  -30.5773   19.4027 H   0  0  0  0  0  0
  -22.7742  -29.2454   19.8434 H   0  0  0  0  0  0
  -25.1305  -36.1865   25.0808 H   0  0  0  0  0  0
  -20.9966  -28.3257   24.1401 H   0  0  0  0  0  0
  -20.5691  -26.2275   23.3608 H   0  0  0  0  0  0
  -21.6649  -26.7421   22.1198 H   0  0  0  0  0  0
  -19.6937  -25.6288   21.1233 H   0  0  0  0  0  0
  -19.6728  -27.3176   20.6739 H   0  0  0  0  0  0
  -17.4210  -26.6658   21.3999 H   0  0  0  0  0  0
  -18.0332  -26.0082   22.9020 H   0  0  0  0  0  0
  -19.7968  -30.7261   24.2216 H   0  0  0  0  0  0
  -17.5050  -31.6263   24.5151 H   0  0  0  0  0  0
  -15.5360  -30.2972   23.7692 H   0  0  0  0  0  0
  -15.8682  -28.0823   22.7056 H   0  0  0  0  0  0
  -24.5949  -30.7019   25.7838 H   0  0  0  0  0  0
  -24.8872  -32.2916   26.4774 H   0  0  0  0  0  0
  -25.8068  -30.9043   27.0287 H   0  0  0  0  0  0
  -26.2981  -29.6691   24.1253 H   0  0  0  0  0  0
  -27.4054  -29.7244   25.4773 H   0  0  0  0  0  0
  -27.8868  -30.4238   23.9516 H   0  0  0  0  0  0
  -27.2649  -33.3664   26.1992 H   0  0  0  0  0  0
  -28.3918  -32.6815   25.0367 H   0  0  0  0  0  0
  -28.0654  -31.8498   26.5505 H   0  0  0  0  0  0
  -28.2559  -38.0097   24.7507 H   0  0  0  0  0  0
  -28.1093  -36.2618   24.6293 H   0  0  0  0  0  0
  -27.2290  -37.1439   25.8865 H   0  0  0  0  0  0
  -20.9434  -29.8776   21.6871 H   0  0  0  0  0  0
  -26.0150  -38.2801   24.1442 H   0  0  0  0  0  0
  -25.1004  -22.0089   18.9796 H   0  0  0  0  0  0
  -25.7773  -21.8090   20.6777 H   0  0  0  0  0  0
  -25.4275  -24.1577   21.1836 H   0  0  0  0  0  0
  -24.6102  -24.3417   19.5476 H   0  0  0  0  0  0
  -30.2397  -18.6539   18.8245 H   0  0  0  0  0  0
  -31.2773  -19.5167   19.9055 H   0  0  0  0  0  0
  -27.3898  -18.3948   21.1807 H   0  0  0  0  0  0
  -27.9015  -18.0293   19.5736 H   0  0  0  0  0  0
  -31.4168  -17.5487   21.4272 H   0  0  0  0  0  0
  -31.8780  -17.1588   19.8060 H   0  0  0  0  0  0
  -28.0304  -15.9927   20.9113 H   0  0  0  0  0  0
  -28.9579  -16.7528   22.1618 H   0  0  0  0  0  0
  -26.8261  -23.7553   18.4033 H   0  0  0  0  0  0
  -29.4786  -19.6479   21.6322 H   0  0  0  0  0  0
  -32.4732  -23.9327   21.6330 H   0  0  0  0  0  0
  -31.7344  -23.0523   22.9777 H   0  0  0  0  0  0
  -31.6121  -24.8069   22.9019 H   0  0  0  0  0  0
  -28.1036  -21.6154   17.9617 H   0  0  0  0  0  0
  -28.4770  -19.9095   17.9842 H   0  0  0  0  0  0
  -29.7712  -21.1033   18.1519 H   0  0  0  0  0  0
  -27.5162  -20.6979   20.1333 H   0  0  0  0  0  0
  1 25  1  0  0  0
  1 30  2  0  0  0
  1 88  1  0  0  0
  2  3  1  0  0  0
  2 25  1  0  0  0
  2 89  1  0  0  0
  2 90  1  0  0  0
  3  4  1  0  0  0
  3 91  1  0  0  0
  3 92  1  0  0  0
  4  5  1  0  0  0
  4 93  1  0  0  0
  4 94  1  0  0  0
  5  6  1  0  0  0
  5 26  1  0  0  0
  5 95  1  0  0  0
  6 25  1  0  0  0
  6 96  1  0  0  0
  6 97  1  0  0  0
  7  8  2  0  0  0
  7 26  1  0  0  0
  7 29  1  0  0  0
  8  9  1  0  0  0
  8 22  1  0  0  0
  9 10  1  0  0  0
  9 27  2  0  0  0
 10 11  2  0  0  0
 10 15  1  0  0  0
 11 12  1  0  0  0
 11 98  1  0  0  0
 12 13  2  0  0  0
 12 99  1  0  0  0
 13 14  1  0  0  0
 13 31  1  0  0  0
 14 15  2  0  0  0
 14100  1  0  0  0
 15101  1  0  0  0
 16 17  2  0  0  0
 16 21  1  0  0  0
 16 31  1  0  0  0
 17 18  1  0  0  0
 17102  1  0  0  0
 18 19  2  0  0  0
 18103  1  0  0  0
 19 20  1  0  0  0
 19 24  1  0  0  0
 20 21  2  0  0  0
 20104  1  0  0  0
 21 23  1  0  0  0
 22 28  1  0  0  0
 22 32  2  0  0  0
 26 27  1  0  0  0
 28105  1  0  0  0
 28106  1  0  0  0
 29107  1  0  0  0
 29108  1  0  0  0
 33 34  1  0  0  0
 33 66  1  0  0  0
 33 70  2  0  0  0
 34 36  1  0  0  0
 34 59  1  0  0  0
 34109  1  0  0  0
 35 44  2  0  0  0
 35 45  1  0  0  0
 35 68  1  0  0  0
 36 56  1  0  0  0
 36110  1  0  0  0
 37 39  1  0  0  0
 37 47  1  0  0  0
 37 66  1  0  0  0
 37111  1  0  0  0
 38 43  2  0  0  0
 38 46  1  0  0  0
 38 47  1  0  0  0
 39 64  1  0  0  0
 39 67  2  0  0  0
 40 52  1  0  0  0
 40 53  2  0  0  0
 40 58  1  0  0  0
 41112  1  0  0  0
 41113  1  0  0  0
 41114  1  0  0  0
 41 48  1  0  0  0
 42 43  1  0  0  0
 42 66  1  0  0  0
 42115  1  0  0  0
 42116  1  0  0  0
 43 44  1  0  0  0
 44117  1  0  0  0
 45 46  2  0  0  0
 45118  1  0  0  0
 46119  1  0  0  0
 47120  1  0  0  0
 47121  1  0  0  0
 48 56  1  0  0  0
 48 65  1  0  0  0
 48122  1  0  0  0
 49 50  1  0  0  0
 49 53  1  0  0  0
 49 64  1  0  0  0
 49123  1  0  0  0
 50 51  1  0  0  0
 50124  1  0  0  0
 50125  1  0  0  0
 51 52  1  0  0  0
 51126  1  0  0  0
 51127  1  0  0  0
 52128  1  0  0  0
 52129  1  0  0  0
 53 54  1  0  0  0
 54 55  2  0  0  0
 54130  1  0  0  0
 55 57  1  0  0  0
 55131  1  0  0  0
 56 69  2  0  0  0
 57 58  2  0  0  0
 57132  1  0  0  0
 58133  1  0  0  0
 59 60  1  0  0  0
 59 61  1  0  0  0
 59 62  1  0  0  0
 60134  1  0  0  0
 60135  1  0  0  0
 60136  1  0  0  0
 61137  1  0  0  0
 61138  1  0  0  0
 61139  1  0  0  0
 62140  1  0  0  0
 62141  1  0  0  0
 62142  1  0  0  0
 63 65  1  0  0  0
 63143  1  0  0  0
 63144  1  0  0  0
 63145  1  0  0  0
 64146  1  0  0  0
 65147  1  0  0  0
 68 73  1  0  0  0
 71 72  2  0  0  0
 71 73  1  0  0  0
 71 81  1  0  0  0
 72 85  1  0  0  0
 72 86  1  0  0  0
 73 87  2  0  0  0
 74 83  1  0  0  0
 74 86  2  0  0  0
 74 87  1  0  0  0
 75 76  1  0  0  0
 75 81  1  0  0  0
 75148  1  0  0  0
 75149  1  0  0  0
 76 81  1  0  0  0
 76150  1  0  0  0
 76151  1  0  0  0
 77 79  1  0  0  0
 77152  1  0  0  0
 77153  1  0  0  0
 77 82  1  0  0  0
 78 80  1  0  0  0
 78 82  1  0  0  0
 78154  1  0  0  0
 78155  1  0  0  0
 79 88  1  0  0  0
 79156  1  0  0  0
 79157  1  0  0  0
 80 88  1  0  0  0
 80158  1  0  0  0
 80159  1  0  0  0
 81160  1  0  0  0
 82 85  1  0  0  0
 82161  1  0  0  0
 83162  1  0  0  0
 83163  1  0  0  0
 83164  1  0  0  0
 84165  1  0  0  0
 84166  1  0  0  0
 84167  1  0  0  0
 84 85  1  0  0  0
 85168  1  0  0  0
M  ISO  4   1 100  68 101  73 101  88 100
M  END
> <chiral flag>
0

> <version>
0

> <s_m_source_file>
/data/baiqing/PycharmProjects/Reinvent-master-3.2/result/LINK_invent/BTK/process_docking_weight1_custom_sum_contain_oxygen_bond_distance_aromatic_linkinvent_7_9_3/rearranged_h_0177.sdf

> <i_m_source_file_index>
5

> <r_mmod_Potential_Energy-OPLS-2005>
300.551879882812

> <r_mmod_Stretch_Energy-OPLS-2005>
193.467636108398

> <r_mmod_Bend_Energy-OPLS-2005>
307.574951171875

> <r_mmod_Torsional_Energy-OPLS-2005>
361.432281494141

> <r_mmod_Improper_Torsional_Energy-OPLS-2005>
12.7183046340942

> <r_mmod_Van_der_Waal_Energy-OPLS-2005>
144.419235229492

> <r_mmod_Electrostatic_Energy-OPLS-2005>
-642.439208984375

> <r_mmod_Solvation_Energy-OPLS-2005>
-216.289001464844

> <b_mmod_Minimization_Converged-OPLS-2005>
0

> <r_mmod_RMS_Derivative-OPLS-2005>
1.77498364448547

$$$$
5
                    3D
 Structure written by MMmdl.
171181  0  0  1  0            999 V2000
  -30.6172  -14.8957   20.4299 C   0  0  0  0  0  0
  -30.4197  -12.5588   19.4922 C   0  0  0  0  0  0
  -29.5078  -12.5156   18.2482 C   0  0  0  0  0  0
  -28.0409  -12.3187   18.6693 C   0  0  0  0  0  0
  -27.6253  -13.2541   19.8363 C   0  0  2  0  0  0
  -28.6709  -13.2935   20.9707 C   0  0  0  0  0  0
  -25.2447  -13.8240   20.5735 C   0  0  0  0  0  0
  -24.1769  -13.0452   20.9236 C   0  0  0  0  0  0
  -24.6392  -11.6939   20.8765 C   0  0  0  0  0  0
  -23.9080  -10.4301   21.0408 C   0  0  0  0  0  0
  -24.3627   -9.4213   21.9185 C   0  0  0  0  0  0
  -23.6302   -8.2246   22.0753 C   0  0  0  0  0  0
  -22.4285   -8.0283   21.3543 C   0  0  0  0  0  0
  -21.9922   -9.0257   20.4645 C   0  0  0  0  0  0
  -22.7250  -10.2139   20.3055 C   0  0  0  0  0  0
  -21.6855   -6.0739   22.5277 C   0  0  0  0  0  0
  -21.4016   -6.5643   23.8211 C   0  0  0  0  0  0
  -21.3663   -5.6795   24.9174 C   0  0  0  0  0  0
  -21.6045   -4.3057   24.7223 C   0  0  0  0  0  0
  -21.8819   -3.8149   23.4344 C   0  0  0  0  0  0
  -21.9195   -4.6967   22.3401 C   0  0  0  0  0  0
  -22.7789  -13.5212   21.1886 C   0  0  0  0  0  0
  -22.1660   -4.2152   21.0978 F   0  0  0  0  0  0
  -21.5631   -3.4539   25.7735 F   0  0  0  0  0  0
  -29.9444  -13.6798   20.3545 N   0  0  0  0  0  0
  -26.2872  -12.9483   20.3273 N   0  0  0  0  0  0
  -25.9328  -11.6605   20.5766 N   0  0  0  0  0  0
  -22.0444  -12.8194   22.0439 N   0  0  0  0  0  0
  -25.4122  -15.1964   20.4157 N   0  0  0  0  0  0
  -31.8265  -14.8602   20.1753 O   0  0  0  0  0  0
  -21.6646   -6.8884   21.4239 O   0  0  0  0  0  0
  -22.3466  -14.5512   20.6728 O   0  0  0  0  0  0
  -24.6418  -31.8461   23.1905 C   0  0  0  0  0  0
  -25.9199  -32.4704   23.8287 C   0  0  1  0  0  0
  -27.2096  -27.1561   20.1412 C   0  0  0  0  0  0
  -25.5957  -33.8511   24.2206 N   0  0  0  0  0  0
  -23.4437  -30.4675   21.5364 C   0  0  2  0  0  0
  -24.8908  -28.9008   20.1085 C   0  0  0  0  0  0
  -22.7559  -29.4557   22.4872 C   0  0  0  0  0  0
  -18.0304  -28.1391   22.8479 C   0  0  0  0  0  0
  -24.1493  -36.7258   23.2641 C   0  0  0  0  0  0
  -25.9990  -30.7258   21.3866 C   0  0  0  0  0  0
  -26.0689  -29.3401   20.7258 C   0  0  0  0  0  0
  -27.2306  -28.4833   20.7259 C   0  0  0  0  0  0
  -26.0058  -26.8165   19.4839 C   0  0  0  0  0  0
  -24.8711  -27.6520   19.4728 C   0  0  0  0  0  0
  -23.6676  -29.8006   20.1543 C   0  0  0  0  0  0
  -25.4124  -36.3038   24.0319 C   0  0  1  0  0  0
  -20.5915  -28.3714   23.1241 C   0  0  2  0  0  0
  -20.6788  -26.9421   22.5402 C   0  0  0  0  0  0
  -19.5762  -26.6379   21.5211 C   0  0  0  0  0  0
  -18.1944  -26.7929   22.1623 C   0  0  0  0  0  0
  -19.1558  -28.8871   23.2852 C   0  0  0  0  0  0
  -18.9476  -30.1468   23.8877 C   0  0  0  0  0  0
  -17.6471  -30.6589   24.0558 C   0  0  0  0  0  0
  -25.9073  -34.9413   23.5068 C   0  0  0  0  0  0
  -16.5363  -29.9080   23.6336 C   0  0  0  0  0  0
  -16.7288  -28.6498   23.0359 C   0  0  0  0  0  0
  -26.4528  -31.6563   25.0719 C   0  0  0  0  0  0
  -25.3717  -31.3744   26.1416 C   0  0  0  0  0  0
  -27.0389  -30.2961   24.6284 C   0  0  0  0  0  0
  -27.6064  -32.4322   25.7501 C   0  0  0  0  0  0
  -27.5580  -37.1784   24.8465 C   0  0  0  0  0  0
  -21.4254  -29.3046   22.3617 N   0  0  0  0  0  0
  -26.4289  -37.3750   23.9410 N   0  0  0  0  0  0
  -24.7148  -31.0337   22.0930 N   0  0  0  0  0  0
  -23.4214  -28.8100   23.3010 O   0  0  0  0  0  0
  -28.2577  -26.1743   20.2168 O   0  0  0  0  0  0
  -26.5655  -34.8906   22.4645 O   0  0  0  0  0  0
  -23.5542  -32.1332   23.7136 O   0  0  0  0  0  0
  -28.5381  -21.9610   20.2223 C   0  0  0  0  0  0
  -30.3355  -23.5387   20.5958 C   0  0  0  0  0  0
  -28.9488  -23.3826   20.3014 C   0  0  0  0  0  0
  -31.1386  -22.3795   20.8262 C   0  0  0  0  0  0
  -29.4291  -20.8121   20.4444 C   0  0  0  0  0  0
  -32.6066  -22.4723   21.2270 C   0  0  0  0  0  0
  -33.2458  -23.8408   20.9850 C   0  0  0  0  0  0
  -32.3040  -24.9623   21.4213 C   0  0  0  0  0  0
  -29.7104  -18.5994   19.2101 C   0  0  0  0  0  0
  -30.5725  -17.2727   19.5098 C   0  0  0  0  0  0
  -29.0576  -16.8569   21.3013 C   0  0  0  0  0  0
  -30.9783  -24.9321   20.6404 C   0  0  1  0  0  0
  -29.2649  -18.4549   21.5523 C   0  0  2  0  0  0
  -31.1721  -25.4976   19.2187 C   0  0  0  0  0  0
  -28.3274  -18.9276   22.6734 C   0  0  0  0  0  0
  -27.9494  -24.6648   20.0306 C   0  0  0  0  0  0
  -30.7033  -21.0982   20.7546 N   0  0  0  0  0  0
  -29.1447  -19.3591   20.3605 N   0  0  0  0  0  0
  -29.9628  -16.1615   20.3238 N   0  0  0  0  0  0
  -31.4581  -12.6771   19.1793 H   0  0  0  0  0  0
  -30.3826  -11.6123   20.0342 H   0  0  0  0  0  0
  -29.8160  -11.7118   17.5782 H   0  0  0  0  0  0
  -29.6088  -13.4439   17.6838 H   0  0  0  0  0  0
  -27.9265  -11.2777   18.9739 H   0  0  0  0  0  0
  -27.3772  -12.4591   17.8152 H   0  0  0  0  0  0
  -27.5863  -14.2560   19.4067 H   0  0  0  0  0  0
  -28.7507  -12.3275   21.4717 H   0  0  0  0  0  0
  -28.3813  -14.0182   21.7324 H   0  0  0  0  0  0
  -25.2767   -9.5690   22.4769 H   0  0  0  0  0  0
  -24.0013   -7.4638   22.7472 H   0  0  0  0  0  0
  -21.0856   -8.8776   19.8949 H   0  0  0  0  0  0
  -22.3705  -10.9681   19.6170 H   0  0  0  0  0  0
  -21.2005   -7.6151   23.9716 H   0  0  0  0  0  0
  -21.1485   -6.0524   25.9079 H   0  0  0  0  0  0
  -22.0596   -2.7611   23.2840 H   0  0  0  0  0  0
  -22.4069  -11.9854   22.4817 H   0  0  0  0  0  0
  -21.1061  -13.1211   22.2649 H   0  0  0  0  0  0
  -24.6469  -15.8518   20.5310 H   0  0  0  0  0  0
  -26.2634  -15.6337   20.0879 H   0  0  0  0  0  0
  -26.7262  -32.5315   23.1014 H   0  0  0  0  0  0
  -25.0091  -33.9633   25.0344 H   0  0  0  0  0  0
  -22.7452  -31.2931   21.3850 H   0  0  0  0  0  0
  -23.3764  -35.9581   23.3283 H   0  0  0  0  0  0
  -24.3583  -36.8908   22.2060 H   0  0  0  0  0  0
  -23.7236  -37.6445   23.6687 H   0  0  0  0  0  0
  -26.1536  -31.4823   20.6160 H   0  0  0  0  0  0
  -26.8703  -30.7733   22.0282 H   0  0  0  0  0  0
  -28.1281  -28.8121   21.2309 H   0  0  0  0  0  0
  -25.8990  -25.8648   18.9869 H   0  0  0  0  0  0
  -23.9715  -27.3119   18.9781 H   0  0  0  0  0  0
  -23.8024  -30.5766   19.3999 H   0  0  0  0  0  0
  -22.7824  -29.2422   19.8440 H   0  0  0  0  0  0
  -25.1309  -36.1869   25.0811 H   0  0  0  0  0  0
  -21.0009  -28.3298   24.1361 H   0  0  0  0  0  0
  -20.5682  -26.2328   23.3618 H   0  0  0  0  0  0
  -21.6654  -26.7429   22.1197 H   0  0  0  0  0  0
  -19.6923  -25.6285   21.1253 H   0  0  0  0  0  0
  -19.6697  -27.3180   20.6733 H   0  0  0  0  0  0
  -17.4212  -26.6676   21.4028 H   0  0  0  0  0  0
  -18.0343  -26.0075   22.9023 H   0  0  0  0  0  0
  -19.7951  -30.7291   24.2236 H   0  0  0  0  0  0
  -17.5024  -31.6268   24.5159 H   0  0  0  0  0  0
  -15.5362  -30.2975   23.7671 H   0  0  0  0  0  0
  -15.8690  -28.0809   22.7087 H   0  0  0  0  0  0
  -24.5900  -30.7091   25.7732 H   0  0  0  0  0  0
  -24.8904  -32.2924   26.4800 H   0  0  0  0  0  0
  -25.8003  -30.8940   27.0221 H   0  0  0  0  0  0
  -26.3001  -29.6685   24.1287 H   0  0  0  0  0  0
  -27.4005  -29.7258   25.4850 H   0  0  0  0  0  0
  -27.8910  -30.4202   23.9596 H   0  0  0  0  0  0
  -27.2665  -33.3642   26.2031 H   0  0  0  0  0  0
  -28.3902  -32.6849   25.0346 H   0  0  0  0  0  0
  -28.0703  -31.8476   26.5456 H   0  0  0  0  0  0
  -28.2580  -38.0098   24.7523 H   0  0  0  0  0  0
  -28.1092  -36.2626   24.6274 H   0  0  0  0  0  0
  -27.2300  -37.1408   25.8868 H   0  0  0  0  0  0
  -20.9459  -29.8766   21.6805 H   0  0  0  0  0  0
  -26.0156  -38.2818   24.1415 H   0  0  0  0  0  0
  -27.5061  -21.7514   19.9763 H   0  0  0  0  0  0
  -33.1846  -21.7053   20.7092 H   0  0  0  0  0  0
  -32.6680  -22.2352   22.2898 H   0  0  0  0  0  0
  -33.4768  -23.9492   19.9255 H   0  0  0  0  0  0
  -34.1976  -23.9062   21.5123 H   0  0  0  0  0  0
  -32.7899  -25.9334   21.3133 H   0  0  0  0  0  0
  -32.0972  -24.8506   22.4871 H   0  0  0  0  0  0
  -28.8717  -18.3281   18.5686 H   0  0  0  0  0  0
  -30.3211  -19.2789   18.6132 H   0  0  0  0  0  0
  -31.5045  -17.5687   19.9953 H   0  0  0  0  0  0
  -30.8731  -16.8518   18.5486 H   0  0  0  0  0  0
  -28.0321  -16.6774   20.9779 H   0  0  0  0  0  0
  -29.1567  -16.3415   22.2582 H   0  0  0  0  0  0
  -30.3164  -25.5952   21.1934 H   0  0  0  0  0  0
  -30.2815  -18.5872   21.9268 H   0  0  0  0  0  0
  -31.8234  -24.8654   18.6158 H   0  0  0  0  0  0
  -31.6160  -26.4932   19.2487 H   0  0  0  0  0  0
  -30.2305  -25.5855   18.6791 H   0  0  0  0  0  0
  -27.2830  -18.8727   22.3651 H   0  0  0  0  0  0
  -28.5374  -19.9567   22.9667 H   0  0  0  0  0  0
  -28.4418  -18.3115   23.5656 H   0  0  0  0  0  0
  -27.0543  -24.4559   20.6176 H   0  0  0  0  0  0
  -27.6524  -24.5458   18.9887 H   0  0  0  0  0  0
  1 25  1  0  0  0
  1 30  2  0  0  0
  1 89  1  0  0  0
  2  3  1  0  0  0
  2 25  1  0  0  0
  2 90  1  0  0  0
  2 91  1  0  0  0
  3  4  1  0  0  0
  3 92  1  0  0  0
  3 93  1  0  0  0
  4  5  1  0  0  0
  4 94  1  0  0  0
  4 95  1  0  0  0
  5  6  1  0  0  0
  5 26  1  0  0  0
  5 96  1  0  0  0
  6 25  1  0  0  0
  6 97  1  0  0  0
  6 98  1  0  0  0
  7  8  2  0  0  0
  7 26  1  0  0  0
  7 29  1  0  0  0
  8  9  1  0  0  0
  8 22  1  0  0  0
  9 10  1  0  0  0
  9 27  2  0  0  0
 10 11  2  0  0  0
 10 15  1  0  0  0
 11 12  1  0  0  0
 11 99  1  0  0  0
 12 13  2  0  0  0
 12100  1  0  0  0
 13 14  1  0  0  0
 13 31  1  0  0  0
 14 15  2  0  0  0
 14101  1  0  0  0
 15102  1  0  0  0
 16 17  2  0  0  0
 16 21  1  0  0  0
 16 31  1  0  0  0
 17 18  1  0  0  0
 17103  1  0  0  0
 18 19  2  0  0  0
 18104  1  0  0  0
 19 20  1  0  0  0
 19 24  1  0  0  0
 20 21  2  0  0  0
 20105  1  0  0  0
 21 23  1  0  0  0
 22 28  1  0  0  0
 22 32  2  0  0  0
 26 27  1  0  0  0
 28106  1  0  0  0
 28107  1  0  0  0
 29108  1  0  0  0
 29109  1  0  0  0
 33 34  1  0  0  0
 33 66  1  0  0  0
 33 70  2  0  0  0
 34 36  1  0  0  0
 34 59  1  0  0  0
 34110  1  0  0  0
 35 44  2  0  0  0
 35 45  1  0  0  0
 35 68  1  0  0  0
 36 56  1  0  0  0
 36111  1  0  0  0
 37 39  1  0  0  0
 37 47  1  0  0  0
 37 66  1  0  0  0
 37112  1  0  0  0
 38 43  2  0  0  0
 38 46  1  0  0  0
 38 47  1  0  0  0
 39 64  1  0  0  0
 39 67  2  0  0  0
 40 52  1  0  0  0
 40 53  2  0  0  0
 40 58  1  0  0  0
 41113  1  0  0  0
 41114  1  0  0  0
 41115  1  0  0  0
 41 48  1  0  0  0
 42 43  1  0  0  0
 42 66  1  0  0  0
 42116  1  0  0  0
 42117  1  0  0  0
 43 44  1  0  0  0
 44118  1  0  0  0
 45 46  2  0  0  0
 45119  1  0  0  0
 46120  1  0  0  0
 47121  1  0  0  0
 47122  1  0  0  0
 48 56  1  0  0  0
 48 65  1  0  0  0
 48123  1  0  0  0
 49 50  1  0  0  0
 49 53  1  0  0  0
 49 64  1  0  0  0
 49124  1  0  0  0
 50 51  1  0  0  0
 50125  1  0  0  0
 50126  1  0  0  0
 51 52  1  0  0  0
 51127  1  0  0  0
 51128  1  0  0  0
 52129  1  0  0  0
 52130  1  0  0  0
 53 54  1  0  0  0
 54 55  2  0  0  0
 54131  1  0  0  0
 55 57  1  0  0  0
 55132  1  0  0  0
 56 69  2  0  0  0
 57 58  2  0  0  0
 57133  1  0  0  0
 58134  1  0  0  0
 59 60  1  0  0  0
 59 61  1  0  0  0
 59 62  1  0  0  0
 60135  1  0  0  0
 60136  1  0  0  0
 60137  1  0  0  0
 61138  1  0  0  0
 61139  1  0  0  0
 61140  1  0  0  0
 62141  1  0  0  0
 62142  1  0  0  0
 62143  1  0  0  0
 63 65  1  0  0  0
 63144  1  0  0  0
 63145  1  0  0  0
 63146  1  0  0  0
 64147  1  0  0  0
 65148  1  0  0  0
 68 86  1  0  0  0
 71 73  2  0  0  0
 71 75  1  0  0  0
 71149  1  0  0  0
 72 73  1  0  0  0
 72 74  2  0  0  0
 72 82  1  0  0  0
 73 86  1  0  0  0
 74 76  1  0  0  0
 74 87  1  0  0  0
 75 87  2  0  0  0
 75 88  1  0  0  0
 76 77  1  0  0  0
 76150  1  0  0  0
 76151  1  0  0  0
 77 78  1  0  0  0
 77152  1  0  0  0
 77153  1  0  0  0
 78 82  1  0  0  0
 78154  1  0  0  0
 78155  1  0  0  0
 79 80  1  0  0  0
 79 88  1  0  0  0
 79156  1  0  0  0
 79157  1  0  0  0
 80 89  1  0  0  0
 80158  1  0  0  0
 80159  1  0  0  0
 81 83  1  0  0  0
 81 89  1  0  0  0
 81160  1  0  0  0
 81161  1  0  0  0
 82 84  1  0  0  0
 82162  1  0  0  0
 83 85  1  0  0  0
 83 88  1  0  0  0
 83163  1  0  0  0
 84164  1  0  0  0
 84165  1  0  0  0
 84166  1  0  0  0
 85167  1  0  0  0
 85168  1  0  0  0
 85169  1  0  0  0
 86170  1  0  0  0
 86171  1  0  0  0
M  ISO  4   1 100  68 101  86 101  89 100
M  END
> <chiral flag>
0

> <version>
0

> <s_m_source_file>
/data/baiqing/PycharmProjects/Reinvent-master-3.2/result/LINK_invent/BTK/process_docking_weight1_custom_sum_contain_oxygen_bond_distance_aromatic_linkinvent_7_9_3/rearranged_h_0177.sdf

> <i_m_source_file_index>
6

> <r_mmod_Potential_Energy-OPLS-2005>
425.331604003906

> <r_mmod_Stretch_Energy-OPLS-2005>
207.609100341797

> <r_mmod_Bend_Energy-OPLS-2005>
247.668853759766

> <r_mmod_Torsional_Energy-OPLS-2005>
378.084381103516

> <r_mmod_Improper_Torsional_Energy-OPLS-2005>
20.3534832000732

> <r_mmod_Van_der_Waal_Energy-OPLS-2005>
153.145477294922

> <r_mmod_Electrostatic_Energy-OPLS-2005>
-529.791748046875

> <r_mmod_Solvation_Energy-OPLS-2005>
-219.593948364258

> <b_mmod_Minimization_Converged-OPLS-2005>
0

> <r_mmod_RMS_Derivative-OPLS-2005>
0.504295170307159

$$$$
6
                    3D
 Structure written by MMmdl.
163172  0  0  1  0            999 V2000
  -30.6391  -14.7140   20.4560 C   0  0  0  0  0  0
  -30.4300  -12.4400   19.4732 C   0  0  0  0  0  0
  -29.5105  -12.5031   18.2339 C   0  0  0  0  0  0
  -28.0379  -12.3305   18.6506 C   0  0  0  0  0  0
  -27.6430  -13.2311   19.8530 C   0  0  2  0  0  0
  -28.6890  -13.1709   20.9889 C   0  0  0  0  0  0
  -25.2534  -13.8193   20.5715 C   0  0  0  0  0  0
  -24.1816  -13.0445   20.9211 C   0  0  0  0  0  0
  -24.6405  -11.6923   20.8751 C   0  0  0  0  0  0
  -23.9073  -10.4305   21.0414 C   0  0  0  0  0  0
  -24.3626   -9.4208   21.9189 C   0  0  0  0  0  0
  -23.6307   -8.2238   22.0750 C   0  0  0  0  0  0
  -22.4283   -8.0292   21.3544 C   0  0  0  0  0  0
  -21.9923   -9.0256   20.4650 C   0  0  0  0  0  0
  -22.7244  -10.2146   20.3074 C   0  0  0  0  0  0
  -21.6854   -6.0756   22.5284 C   0  0  0  0  0  0
  -21.4007   -6.5649   23.8220 C   0  0  0  0  0  0
  -21.3660   -5.6800   24.9185 C   0  0  0  0  0  0
  -21.6045   -4.3059   24.7230 C   0  0  0  0  0  0
  -21.8820   -3.8162   23.4348 C   0  0  0  0  0  0
  -21.9188   -4.6983   22.3410 C   0  0  0  0  0  0
  -22.7840  -13.5239   21.1865 C   0  0  0  0  0  0
  -22.1662   -4.2173   21.0985 F   0  0  0  0  0  0
  -21.5628   -3.4546   25.7741 F   0  0  0  0  0  0
  -29.9930  -13.5039   20.4040 N   0  0  0  0  0  0
  -26.2958  -12.9391   20.3297 N   0  0  0  0  0  0
  -25.9334  -11.6540   20.5757 N   0  0  0  0  0  0
  -22.0487  -12.8243   22.0420 N   0  0  0  0  0  0
  -25.4236  -15.1920   20.4206 N   0  0  0  0  0  0
  -31.8230  -14.8024   20.1162 O   0  0  0  0  0  0
  -21.6645   -6.8894   21.4247 O   0  0  0  0  0  0
  -22.3551  -14.5555   20.6721 O   0  0  0  0  0  0
  -24.6297  -31.8542   23.2015 C   0  0  0  0  0  0
  -25.9127  -32.4744   23.8337 C   0  0  1  0  0  0
  -27.2310  -27.2986   20.0874 C   0  0  0  0  0  0
  -25.5937  -33.8558   24.2240 N   0  0  0  0  0  0
  -23.4246  -30.4761   21.5466 C   0  0  2  0  0  0
  -24.8698  -28.9289   20.1107 C   0  0  0  0  0  0
  -22.7474  -29.4584   22.4950 C   0  0  0  0  0  0
  -18.0277  -28.1376   22.8468 C   0  0  0  0  0  0
  -24.1491  -36.7290   23.2646 C   0  0  0  0  0  0
  -25.9704  -30.7717   21.3821 C   0  0  0  0  0  0
  -26.0404  -29.4001   20.7164 C   0  0  0  0  0  0
  -27.2194  -28.5933   20.7022 C   0  0  0  0  0  0
  -26.0235  -26.8730   19.4881 C   0  0  0  0  0  0
  -24.8626  -27.6679   19.4943 C   0  0  0  0  0  0
  -23.6381  -29.8112   20.1616 C   0  0  0  0  0  0
  -25.4124  -36.3073   24.0311 C   0  0  1  0  0  0
  -20.5872  -28.3676   23.1295 C   0  0  2  0  0  0
  -20.6756  -26.9377   22.5477 C   0  0  0  0  0  0
  -19.5774  -26.6364   21.5226 C   0  0  0  0  0  0
  -18.1914  -26.7944   22.1555 C   0  0  0  0  0  0
  -19.1526  -28.8842   23.2878 C   0  0  0  0  0  0
  -18.9449  -30.1450   23.8896 C   0  0  0  0  0  0
  -17.6445  -30.6572   24.0583 C   0  0  0  0  0  0
  -25.9057  -34.9440   23.5069 C   0  0  0  0  0  0
  -16.5342  -29.9072   23.6360 C   0  0  0  0  0  0
  -16.7268  -28.6501   23.0355 C   0  0  0  0  0  0
  -26.4469  -31.6593   25.0746 C   0  0  0  0  0  0
  -25.3682  -31.3838   26.1479 C   0  0  0  0  0  0
  -27.0268  -30.2972   24.6309 C   0  0  0  0  0  0
  -27.6055  -32.4334   25.7487 C   0  0  0  0  0  0
  -27.5593  -37.1785   24.8439 C   0  0  0  0  0  0
  -21.4183  -29.3011   22.3682 N   0  0  0  0  0  0
  -26.4293  -37.3769   23.9395 N   0  0  0  0  0  0
  -24.6940  -31.0510   22.0988 N   0  0  0  0  0  0
  -23.4165  -28.8133   23.3064 O   0  0  0  0  0  0
  -28.3451  -26.4362   20.1444 O   0  0  0  0  0  0
  -26.5633  -34.8906   22.4644 O   0  0  0  0  0  0
  -23.5457  -32.1360   23.7327 O   0  0  0  0  0  0
  -28.8464  -23.8356   19.4494 C   0  0  0  0  0  0
  -28.5809  -23.0925   20.6367 C   0  0  0  0  0  0
  -29.3781  -23.0123   18.4202 C   0  0  0  0  0  0
  -29.3676  -21.0778   19.7261 C   0  0  0  0  0  0
  -29.3728  -18.5570   20.7041 C   0  0  0  0  0  0
  -30.7890  -19.1880   18.9054 C   0  0  0  0  0  0
  -30.3684  -17.3225   20.4564 C   0  0  2  0  0  0
  -30.8433  -17.6523   19.0293 C   0  0  2  0  0  0
  -27.9875  -23.7668   21.8554 C   0  0  0  0  0  0
  -29.7046  -23.5490   17.0343 C   0  0  0  0  0  0
  -28.5509  -25.3748   19.1322 C   0  0  0  0  0  0
  -28.8359  -21.7386   20.7602 N   0  0  0  0  0  0
  -29.6388  -21.6893   18.5785 N   0  0  0  0  0  0
  -29.7433  -19.6901   19.7961 N   0  0  0  0  0  0
  -29.9035  -15.8730   20.6260 N   0  0  0  0  0  0
  -32.1809  -17.1188   18.7336 N   0  3  0  0  0  0
  -31.4729  -12.5526   19.1730 H   0  0  0  0  0  0
  -30.3610  -11.4636   19.9567 H   0  0  0  0  0  0
  -29.7907  -11.7327   17.5144 H   0  0  0  0  0  0
  -29.6375  -13.4588   17.7230 H   0  0  0  0  0  0
  -27.8955  -11.2801   18.9105 H   0  0  0  0  0  0
  -27.3801  -12.5210   17.8014 H   0  0  0  0  0  0
  -27.6365  -14.2534   19.4736 H   0  0  0  0  0  0
  -28.7185  -12.1772   21.4387 H   0  0  0  0  0  0
  -28.4317  -13.8660   21.7905 H   0  0  0  0  0  0
  -25.2776   -9.5688   22.4762 H   0  0  0  0  0  0
  -24.0025   -7.4636   22.7466 H   0  0  0  0  0  0
  -21.0844   -8.8776   19.8964 H   0  0  0  0  0  0
  -22.3684  -10.9692   19.6201 H   0  0  0  0  0  0
  -21.1992   -7.6153   23.9735 H   0  0  0  0  0  0
  -21.1481   -6.0530   25.9088 H   0  0  0  0  0  0
  -22.0592   -2.7625   23.2846 H   0  0  0  0  0  0
  -22.4105  -11.9916   22.4818 H   0  0  0  0  0  0
  -21.1112  -13.1294   22.2636 H   0  0  0  0  0  0
  -24.6549  -15.8440   20.5423 H   0  0  0  0  0  0
  -26.2759  -15.6385   20.1074 H   0  0  0  0  0  0
  -26.7206  -32.5364   23.1094 H   0  0  0  0  0  0
  -25.0110  -33.9709   25.0402 H   0  0  0  0  0  0
  -22.7229  -31.2993   21.4013 H   0  0  0  0  0  0
  -23.3763  -35.9610   23.3283 H   0  0  0  0  0  0
  -24.3587  -36.8957   22.2068 H   0  0  0  0  0  0
  -23.7220  -37.6461   23.6710 H   0  0  0  0  0  0
  -26.1163  -31.5372   20.6186 H   0  0  0  0  0  0
  -26.8449  -30.8077   22.0209 H   0  0  0  0  0  0
  -28.1178  -28.9521   21.1848 H   0  0  0  0  0  0
  -25.9315  -25.8929   19.0487 H   0  0  0  0  0  0
  -23.9586  -27.2887   19.0396 H   0  0  0  0  0  0
  -23.7573  -30.5887   19.4056 H   0  0  0  0  0  0
  -22.7577  -29.2387   19.8629 H   0  0  0  0  0  0
  -25.1319  -36.1920   25.0803 H   0  0  0  0  0  0
  -20.9940  -28.3269   24.1425 H   0  0  0  0  0  0
  -20.5572  -26.2296   23.3694 H   0  0  0  0  0  0
  -21.6643  -26.7347   22.1335 H   0  0  0  0  0  0
  -19.6939  -25.6260   21.1289 H   0  0  0  0  0  0
  -19.6785  -27.3166   20.6752 H   0  0  0  0  0  0
  -17.4234  -26.6788   21.3888 H   0  0  0  0  0  0
  -18.0209  -26.0044   22.8882 H   0  0  0  0  0  0
  -19.7918  -30.7292   24.2247 H   0  0  0  0  0  0
  -17.4985  -31.6244   24.5195 H   0  0  0  0  0  0
  -15.5338  -30.2965   23.7691 H   0  0  0  0  0  0
  -15.8667  -28.0836   22.7051 H   0  0  0  0  0  0
  -24.5984  -30.6983   25.7920 H   0  0  0  0  0  0
  -24.8700  -32.3014   26.4620 H   0  0  0  0  0  0
  -25.8002  -30.9330   27.0418 H   0  0  0  0  0  0
  -26.2843  -29.6763   24.1289 H   0  0  0  0  0  0
  -27.3801  -29.7242   25.4883 H   0  0  0  0  0  0
  -27.8804  -30.4174   23.9647 H   0  0  0  0  0  0
  -27.2673  -33.3639   26.2074 H   0  0  0  0  0  0
  -28.3834  -32.6879   25.0274 H   0  0  0  0  0  0
  -28.0757  -31.8450   26.5377 H   0  0  0  0  0  0
  -28.2627  -38.0066   24.7446 H   0  0  0  0  0  0
  -28.1059  -36.2584   24.6282 H   0  0  0  0  0  0
  -27.2330  -37.1501   25.8852 H   0  0  0  0  0  0
  -20.9368  -29.8740   21.6894 H   0  0  0  0  0  0
  -26.0174  -38.2840   24.1412 H   0  0  0  0  0  0
  -29.4121  -18.8850   21.7441 H   0  0  0  0  0  0
  -28.3409  -18.2734   20.4932 H   0  0  0  0  0  0
  -30.6099  -19.4753   17.8674 H   0  0  0  0  0  0
  -31.7305  -19.6487   19.2088 H   0  0  0  0  0  0
  -31.2126  -17.4662   21.1350 H   0  0  0  0  0  0
  -30.1321  -17.2287   18.3169 H   0  0  0  0  0  0
  -26.9373  -24.0012   21.6878 H   0  0  0  0  0  0
  -28.5131  -24.6957   22.0682 H   0  0  0  0  0  0
  -28.0648  -23.1333   22.7388 H   0  0  0  0  0  0
  -30.6227  -24.1376   17.0570 H   0  0  0  0  0  0
  -28.9002  -24.1736   16.6466 H   0  0  0  0  0  0
  -29.8474  -22.7390   16.3159 H   0  0  0  0  0  0
  -27.8101  -25.4084   18.3359 H   0  0  0  0  0  0
  -29.4526  -25.7246   18.6266 H   0  0  0  0  0  0
  -28.9304  -15.7457   20.8558 H   0  0  0  0  0  0
  -32.8801  -17.5830   19.2848 H   0  0  0  0  0  0
  -32.4089  -17.2203   17.7612 H   0  0  0  0  0  0
  -32.1961  -16.1377   18.9928 H   0  0  0  0  0  0
  1 25  1  0  0  0
  1 30  2  0  0  0
  1 85  1  0  0  0
  2  3  1  0  0  0
  2 25  1  0  0  0
  2 87  1  0  0  0
  2 88  1  0  0  0
  3  4  1  0  0  0
  3 89  1  0  0  0
  3 90  1  0  0  0
  4  5  1  0  0  0
  4 91  1  0  0  0
  4 92  1  0  0  0
  5  6  1  0  0  0
  5 26  1  0  0  0
  5 93  1  0  0  0
  6 25  1  0  0  0
  6 94  1  0  0  0
  6 95  1  0  0  0
  7  8  2  0  0  0
  7 26  1  0  0  0
  7 29  1  0  0  0
  8  9  1  0  0  0
  8 22  1  0  0  0
  9 10  1  0  0  0
  9 27  2  0  0  0
 10 11  2  0  0  0
 10 15  1  0  0  0
 11 12  1  0  0  0
 11 96  1  0  0  0
 12 13  2  0  0  0
 12 97  1  0  0  0
 13 14  1  0  0  0
 13 31  1  0  0  0
 14 15  2  0  0  0
 14 98  1  0  0  0
 15 99  1  0  0  0
 16 17  2  0  0  0
 16 21  1  0  0  0
 16 31  1  0  0  0
 17 18  1  0  0  0
 17100  1  0  0  0
 18 19  2  0  0  0
 18101  1  0  0  0
 19 20  1  0  0  0
 19 24  1  0  0  0
 20 21  2  0  0  0
 20102  1  0  0  0
 21 23  1  0  0  0
 22 28  1  0  0  0
 22 32  2  0  0  0
 26 27  1  0  0  0
 28103  1  0  0  0
 28104  1  0  0  0
 29105  1  0  0  0
 29106  1  0  0  0
 33 34  1  0  0  0
 33 66  1  0  0  0
 33 70  2  0  0  0
 34 36  1  0  0  0
 34 59  1  0  0  0
 34107  1  0  0  0
 35 44  2  0  0  0
 35 45  1  0  0  0
 35 68  1  0  0  0
 36 56  1  0  0  0
 36108  1  0  0  0
 37 39  1  0  0  0
 37 47  1  0  0  0
 37 66  1  0  0  0
 37109  1  0  0  0
 38 43  2  0  0  0
 38 46  1  0  0  0
 38 47  1  0  0  0
 39 64  1  0  0  0
 39 67  2  0  0  0
 40 52  1  0  0  0
 40 53  2  0  0  0
 40 58  1  0  0  0
 41110  1  0  0  0
 41111  1  0  0  0
 41112  1  0  0  0
 41 48  1  0  0  0
 42 43  1  0  0  0
 42 66  1  0  0  0
 42113  1  0  0  0
 42114  1  0  0  0
 43 44  1  0  0  0
 44115  1  0  0  0
 45 46  2  0  0  0
 45116  1  0  0  0
 46117  1  0  0  0
 47118  1  0  0  0
 47119  1  0  0  0
 48 56  1  0  0  0
 48 65  1  0  0  0
 48120  1  0  0  0
 49 50  1  0  0  0
 49 53  1  0  0  0
 49 64  1  0  0  0
 49121  1  0  0  0
 50 51  1  0  0  0
 50122  1  0  0  0
 50123  1  0  0  0
 51 52  1  0  0  0
 51124  1  0  0  0
 51125  1  0  0  0
 52126  1  0  0  0
 52127  1  0  0  0
 53 54  1  0  0  0
 54 55  2  0  0  0
 54128  1  0  0  0
 55 57  1  0  0  0
 55129  1  0  0  0
 56 69  2  0  0  0
 57 58  2  0  0  0
 57130  1  0  0  0
 58131  1  0  0  0
 59 60  1  0  0  0
 59 61  1  0  0  0
 59 62  1  0  0  0
 60132  1  0  0  0
 60133  1  0  0  0
 60134  1  0  0  0
 61135  1  0  0  0
 61136  1  0  0  0
 61137  1  0  0  0
 62138  1  0  0  0
 62139  1  0  0  0
 62140  1  0  0  0
 63 65  1  0  0  0
 63141  1  0  0  0
 63142  1  0  0  0
 63143  1  0  0  0
 64144  1  0  0  0
 65145  1  0  0  0
 68 81  1  0  0  0
 71 72  2  0  0  0
 71 73  1  0  0  0
 71 81  1  0  0  0
 72 79  1  0  0  0
 72 82  1  0  0  0
 73 80  1  0  0  0
 73 83  2  0  0  0
 74 82  2  0  0  0
 74 83  1  0  0  0
 74 84  1  0  0  0
 75 77  1  0  0  0
 75 84  1  0  0  0
 75146  1  0  0  0
 75147  1  0  0  0
 76 78  1  0  0  0
 76 84  1  0  0  0
 76148  1  0  0  0
 76149  1  0  0  0
 77 78  1  0  0  0
 77 85  1  0  0  0
 77150  1  0  0  0
 78 86  1  0  0  0
 78151  1  0  0  0
 79152  1  0  0  0
 79153  1  0  0  0
 79154  1  0  0  0
 80155  1  0  0  0
 80156  1  0  0  0
 80157  1  0  0  0
 81158  1  0  0  0
 81159  1  0  0  0
 85160  1  0  0  0
 86161  1  0  0  0
 86162  1  0  0  0
 86163  1  0  0  0
M  CHG  1  86   1
M  ISO  4   1 100  68 101  81 101  85 100
M  END
> <chiral flag>
0

> <version>
0

> <s_m_source_file>
/data/baiqing/PycharmProjects/Reinvent-master-3.2/result/LINK_invent/BTK/process_docking_weight1_custom_sum_contain_oxygen_bond_distance_aromatic_linkinvent_7_9_3/rearranged_h_0177.sdf

> <i_m_source_file_index>
7

> <r_mmod_Potential_Energy-OPLS-2005>
-689.527526855469

> <r_mmod_Stretch_Energy-OPLS-2005>
97.2998657226562

> <r_mmod_Bend_Energy-OPLS-2005>
213.055923461914

> <r_mmod_Torsional_Energy-OPLS-2005>
295.612152099609

> <r_mmod_Improper_Torsional_Energy-OPLS-2005>
6.61242580413818

> <r_mmod_Van_der_Waal_Energy-OPLS-2005>
159.565872192383

> <r_mmod_Electrostatic_Energy-OPLS-2005>
-1054.59643554688

> <r_mmod_Solvation_Energy-OPLS-2005>
-477.627349853516

> <b_mmod_Minimization_Converged-OPLS-2005>
0

> <r_mmod_RMS_Derivative-OPLS-2005>
3.03740000724792

$$$$
7
                    3D
 Structure written by MMmdl.
160169  0  0  1  0            999 V2000
  -30.6018  -14.7887   20.4348 C   0  0  0  0  0  0
  -30.4361  -12.4766   19.4889 C   0  0  0  0  0  0
  -29.5166  -12.5055   18.2465 C   0  0  0  0  0  0
  -28.0426  -12.3274   18.6588 C   0  0  0  0  0  0
  -27.6409  -13.2363   19.8504 C   0  0  2  0  0  0
  -28.6861  -13.1961   20.9884 C   0  0  0  0  0  0
  -25.2501  -13.8201   20.5709 C   0  0  0  0  0  0
  -24.1797  -13.0437   20.9212 C   0  0  0  0  0  0
  -24.6399  -11.6917   20.8750 C   0  0  0  0  0  0
  -23.9076  -10.4288   21.0410 C   0  0  0  0  0  0
  -24.3627   -9.4206   21.9185 C   0  0  0  0  0  0
  -23.6294   -8.2245   22.0749 C   0  0  0  0  0  0
  -22.4272   -8.0282   21.3552 C   0  0  0  0  0  0
  -21.9919   -9.0258   20.4651 C   0  0  0  0  0  0
  -22.7251  -10.2134   20.3059 C   0  0  0  0  0  0
  -21.6853   -6.0736   22.5274 C   0  0  0  0  0  0
  -21.4022   -6.5638   23.8213 C   0  0  0  0  0  0
  -21.3658   -5.6790   24.9171 C   0  0  0  0  0  0
  -21.6040   -4.3048   24.7222 C   0  0  0  0  0  0
  -21.8820   -3.8147   23.4338 C   0  0  0  0  0  0
  -21.9193   -4.6966   22.3400 C   0  0  0  0  0  0
  -22.7815  -13.5220   21.1860 C   0  0  0  0  0  0
  -22.1657   -4.2155   21.0973 F   0  0  0  0  0  0
  -21.5633   -3.4530   25.7735 F   0  0  0  0  0  0
  -29.9855  -13.5532   20.4051 N   0  0  0  0  0  0
  -26.2936  -12.9417   20.3290 N   0  0  0  0  0  0
  -25.9332  -11.6563   20.5756 N   0  0  0  0  0  0
  -22.0454  -12.8219   22.0417 N   0  0  0  0  0  0
  -25.4188  -15.1930   20.4149 N   0  0  0  0  0  0
  -31.7839  -14.8829   20.0961 O   0  0  0  0  0  0
  -21.6637   -6.8875   21.4239 O   0  0  0  0  0  0
  -22.3503  -14.5520   20.6687 O   0  0  0  0  0  0
  -24.6364  -31.8527   23.1952 C   0  0  0  0  0  0
  -25.9168  -32.4741   23.8323 C   0  0  1  0  0  0
  -27.2177  -27.2221   20.1304 C   0  0  0  0  0  0
  -25.5938  -33.8542   24.2244 N   0  0  0  0  0  0
  -23.4344  -30.4752   21.5401 C   0  0  2  0  0  0
  -24.8812  -28.9193   20.1083 C   0  0  0  0  0  0
  -22.7536  -29.4588   22.4894 C   0  0  0  0  0  0
  -18.0298  -28.1391   22.8477 C   0  0  0  0  0  0
  -24.1480  -36.7275   23.2641 C   0  0  0  0  0  0
  -25.9842  -30.7534   21.3808 C   0  0  0  0  0  0
  -26.0560  -29.3729   20.7220 C   0  0  0  0  0  0
  -27.2248  -28.5377   20.7220 C   0  0  0  0  0  0
  -26.0197  -26.8556   19.4738 C   0  0  0  0  0  0
  -24.8714  -27.6703   19.4732 C   0  0  0  0  0  0
  -23.6546  -29.8116   20.1557 C   0  0  0  0  0  0
  -25.4108  -36.3062   24.0323 C   0  0  1  0  0  0
  -20.5907  -28.3709   23.1247 C   0  0  2  0  0  0
  -20.6777  -26.9416   22.5402 C   0  0  0  0  0  0
  -19.5749  -26.6384   21.5207 C   0  0  0  0  0  0
  -18.1931  -26.7932   22.1621 C   0  0  0  0  0  0
  -19.1553  -28.8867   23.2859 C   0  0  0  0  0  0
  -18.9475  -30.1462   23.8883 C   0  0  0  0  0  0
  -17.6474  -30.6588   24.0559 C   0  0  0  0  0  0
  -25.9056  -34.9432   23.5094 C   0  0  0  0  0  0
  -16.5366  -29.9089   23.6330 C   0  0  0  0  0  0
  -16.7284  -28.6504   23.0348 C   0  0  0  0  0  0
  -26.4506  -31.6581   25.0736 C   0  0  0  0  0  0
  -25.3708  -31.3761   26.1448 C   0  0  0  0  0  0
  -27.0357  -30.2987   24.6261 C   0  0  0  0  0  0
  -27.6050  -32.4333   25.7519 C   0  0  0  0  0  0
  -27.5570  -37.1794   24.8464 C   0  0  0  0  0  0
  -21.4235  -29.3051   22.3637 N   0  0  0  0  0  0
  -26.4283  -37.3762   23.9408 N   0  0  0  0  0  0
  -24.7045  -31.0463   22.0946 N   0  0  0  0  0  0
  -23.4219  -28.8126   23.3006 O   0  0  0  0  0  0
  -28.2879  -26.2852   20.2153 O   0  0  0  0  0  0
  -26.5635  -34.8919   22.4671 O   0  0  0  0  0  0
  -23.5505  -32.1367   23.7221 O   0  0  0  0  0  0
  -30.4795  -21.6254   21.5870 C   0  0  0  0  0  0
  -30.6641  -22.9886   21.8747 C   0  0  0  0  0  0
  -29.4844  -21.2607   20.6767 C   0  0  0  0  0  0
  -28.9509  -23.6089   20.4710 C   0  0  0  0  0  0
  -29.6991  -18.6380   21.1527 C   0  0  0  0  0  0
  -29.4118  -19.4442   18.9498 C   0  0  0  0  0  0
  -30.1185  -17.4076   20.2042 C   0  0  2  0  0  0
  -29.3880  -17.8830   18.9232 C   0  0  2  0  0  0
  -31.7398  -23.4492   22.8356 C   0  0  0  0  0  0
  -28.0106  -24.8073   19.9550 C   0  0  0  0  0  0
  -29.9061  -23.9588   21.3276 N   0  0  0  0  0  0
  -28.7348  -22.2878   20.1197 N   0  0  0  0  0  0
  -29.2892  -19.8526   20.3437 N   0  0  0  0  0  0
  -29.8240  -15.9367   20.5894 N   0  0  0  0  0  0
  -29.9385  -17.3189   17.6789 N   0  3  0  0  0  0
  -31.4785  -12.5960   19.1886 H   0  0  0  0  0  0
  -30.3813  -11.5070   19.9868 H   0  0  0  0  0  0
  -29.8062  -11.7237   17.5428 H   0  0  0  0  0  0
  -29.6384  -13.4520   17.7179 H   0  0  0  0  0  0
  -27.9033  -11.2805   18.9314 H   0  0  0  0  0  0
  -27.3854  -12.5074   17.8074 H   0  0  0  0  0  0
  -27.6271  -14.2521   19.4557 H   0  0  0  0  0  0
  -28.7284  -12.2057   21.4457 H   0  0  0  0  0  0
  -28.4162  -13.8888   21.7866 H   0  0  0  0  0  0
  -25.2769   -9.5687   22.4766 H   0  0  0  0  0  0
  -23.9999   -7.4646   22.7475 H   0  0  0  0  0  0
  -21.0848   -8.8794   19.8958 H   0  0  0  0  0  0
  -22.3715  -10.9680   19.6171 H   0  0  0  0  0  0
  -21.2018   -7.6150   23.9715 H   0  0  0  0  0  0
  -21.1477   -6.0518   25.9075 H   0  0  0  0  0  0
  -22.0598   -2.7612   23.2834 H   0  0  0  0  0  0
  -22.4056  -11.9881   22.4817 H   0  0  0  0  0  0
  -21.1076  -13.1257   22.2612 H   0  0  0  0  0  0
  -24.6512  -15.8436   20.5414 H   0  0  0  0  0  0
  -26.2642  -15.6381   20.0846 H   0  0  0  0  0  0
  -26.7243  -32.5374   23.1072 H   0  0  0  0  0  0
  -25.0059  -33.9670   25.0373 H   0  0  0  0  0  0
  -22.7326  -31.2986   21.3929 H   0  0  0  0  0  0
  -23.3743  -35.9608   23.3311 H   0  0  0  0  0  0
  -24.3566  -36.8898   22.2057 H   0  0  0  0  0  0
  -23.7245  -37.6481   23.6664 H   0  0  0  0  0  0
  -26.1285  -31.5108   20.6088 H   0  0  0  0  0  0
  -26.8602  -30.8030   22.0162 H   0  0  0  0  0  0
  -28.1196  -28.8772   21.2246 H   0  0  0  0  0  0
  -25.9287  -25.9068   18.9666 H   0  0  0  0  0  0
  -23.9746  -27.3183   18.9829 H   0  0  0  0  0  0
  -23.7859  -30.5893   19.4022 H   0  0  0  0  0  0
  -22.7707  -29.2507   19.8462 H   0  0  0  0  0  0
  -25.1295  -36.1905   25.0813 H   0  0  0  0  0  0
  -21.0000  -28.3295   24.1366 H   0  0  0  0  0  0
  -20.5659  -26.2326   23.3622 H   0  0  0  0  0  0
  -21.6646  -26.7418   22.1211 H   0  0  0  0  0  0
  -19.6905  -25.6290   21.1242 H   0  0  0  0  0  0
  -19.6683  -27.3189   20.6728 H   0  0  0  0  0  0
  -17.4200  -26.6681   21.4023 H   0  0  0  0  0  0
  -18.0327  -26.0080   22.9027 H   0  0  0  0  0  0
  -19.7952  -30.7273   24.2256 H   0  0  0  0  0  0
  -17.5030  -31.6262   24.5177 H   0  0  0  0  0  0
  -15.5366  -30.2984   23.7652 H   0  0  0  0  0  0
  -15.8687  -28.0814   22.7077 H   0  0  0  0  0  0
  -24.5874  -30.7117   25.7783 H   0  0  0  0  0  0
  -24.8904  -32.2941   26.4845 H   0  0  0  0  0  0
  -25.8004  -30.8960   27.0249 H   0  0  0  0  0  0
  -26.2954  -29.6736   24.1253 H   0  0  0  0  0  0
  -27.3981  -29.7263   25.4810 H   0  0  0  0  0  0
  -27.8857  -30.4251   23.9553 H   0  0  0  0  0  0
  -27.2641  -33.3637   26.2079 H   0  0  0  0  0  0
  -28.3867  -32.6894   25.0356 H   0  0  0  0  0  0
  -28.0704  -31.8473   26.5458 H   0  0  0  0  0  0
  -28.2595  -38.0081   24.7494 H   0  0  0  0  0  0
  -28.1058  -36.2613   24.6306 H   0  0  0  0  0  0
  -27.2290  -37.1476   25.8869 H   0  0  0  0  0  0
  -20.9433  -29.8795   21.6849 H   0  0  0  0  0  0
  -26.0159  -38.2838   24.1401 H   0  0  0  0  0  0
  -31.1209  -20.8923   22.0521 H   0  0  0  0  0  0
  -30.5091  -18.8667   21.8445 H   0  0  0  0  0  0
  -28.8435  -18.3517   21.7656 H   0  0  0  0  0  0
  -28.6121  -19.8728   18.3441 H   0  0  0  0  0  0
  -30.3585  -19.8262   18.5636 H   0  0  0  0  0  0
  -31.1939  -17.4973   20.0383 H   0  0  0  0  0  0
  -28.3442  -17.5684   18.9924 H   0  0  0  0  0  0
  -32.2520  -22.6039   23.2942 H   0  0  0  0  0  0
  -31.3067  -24.0528   23.6330 H   0  0  0  0  0  0
  -32.4835  -24.0512   22.3138 H   0  0  0  0  0  0
  -27.0374  -24.5703   20.3857 H   0  0  0  0  0  0
  -27.9079  -24.6785   18.8772 H   0  0  0  0  0  0
  -28.8756  -15.7568   20.8836 H   0  0  0  0  0  0
  -30.8981  -17.5881   17.5520 H   0  0  0  0  0  0
  -29.4112  -17.6472   16.8890 H   0  0  0  0  0  0
  -29.8869  -16.3176   17.6898 H   0  0  0  0  0  0
  1 25  1  0  0  0
  1 30  2  0  0  0
  1 84  1  0  0  0
  2  3  1  0  0  0
  2 25  1  0  0  0
  2 86  1  0  0  0
  2 87  1  0  0  0
  3  4  1  0  0  0
  3 88  1  0  0  0
  3 89  1  0  0  0
  4  5  1  0  0  0
  4 90  1  0  0  0
  4 91  1  0  0  0
  5  6  1  0  0  0
  5 26  1  0  0  0
  5 92  1  0  0  0
  6 25  1  0  0  0
  6 93  1  0  0  0
  6 94  1  0  0  0
  7  8  2  0  0  0
  7 26  1  0  0  0
  7 29  1  0  0  0
  8  9  1  0  0  0
  8 22  1  0  0  0
  9 10  1  0  0  0
  9 27  2  0  0  0
 10 11  2  0  0  0
 10 15  1  0  0  0
 11 12  1  0  0  0
 11 95  1  0  0  0
 12 13  2  0  0  0
 12 96  1  0  0  0
 13 14  1  0  0  0
 13 31  1  0  0  0
 14 15  2  0  0  0
 14 97  1  0  0  0
 15 98  1  0  0  0
 16 17  2  0  0  0
 16 21  1  0  0  0
 16 31  1  0  0  0
 17 18  1  0  0  0
 17 99  1  0  0  0
 18 19  2  0  0  0
 18100  1  0  0  0
 19 20  1  0  0  0
 19 24  1  0  0  0
 20 21  2  0  0  0
 20101  1  0  0  0
 21 23  1  0  0  0
 22 28  1  0  0  0
 22 32  2  0  0  0
 26 27  1  0  0  0
 28102  1  0  0  0
 28103  1  0  0  0
 29104  1  0  0  0
 29105  1  0  0  0
 33 34  1  0  0  0
 33 66  1  0  0  0
 33 70  2  0  0  0
 34 36  1  0  0  0
 34 59  1  0  0  0
 34106  1  0  0  0
 35 44  2  0  0  0
 35 45  1  0  0  0
 35 68  1  0  0  0
 36 56  1  0  0  0
 36107  1  0  0  0
 37 39  1  0  0  0
 37 47  1  0  0  0
 37 66  1  0  0  0
 37108  1  0  0  0
 38 43  2  0  0  0
 38 46  1  0  0  0
 38 47  1  0  0  0
 39 64  1  0  0  0
 39 67  2  0  0  0
 40 52  1  0  0  0
 40 53  2  0  0  0
 40 58  1  0  0  0
 41109  1  0  0  0
 41110  1  0  0  0
 41111  1  0  0  0
 41 48  1  0  0  0
 42 43  1  0  0  0
 42 66  1  0  0  0
 42112  1  0  0  0
 42113  1  0  0  0
 43 44  1  0  0  0
 44114  1  0  0  0
 45 46  2  0  0  0
 45115  1  0  0  0
 46116  1  0  0  0
 47117  1  0  0  0
 47118  1  0  0  0
 48 56  1  0  0  0
 48 65  1  0  0  0
 48119  1  0  0  0
 49 50  1  0  0  0
 49 53  1  0  0  0
 49 64  1  0  0  0
 49120  1  0  0  0
 50 51  1  0  0  0
 50121  1  0  0  0
 50122  1  0  0  0
 51 52  1  0  0  0
 51123  1  0  0  0
 51124  1  0  0  0
 52125  1  0  0  0
 52126  1  0  0  0
 53 54  1  0  0  0
 54 55  2  0  0  0
 54127  1  0  0  0
 55 57  1  0  0  0
 55128  1  0  0  0
 56 69  2  0  0  0
 57 58  2  0  0  0
 57129  1  0  0  0
 58130  1  0  0  0
 59 60  1  0  0  0
 59 61  1  0  0  0
 59 62  1  0  0  0
 60131  1  0  0  0
 60132  1  0  0  0
 60133  1  0  0  0
 61134  1  0  0  0
 61135  1  0  0  0
 61136  1  0  0  0
 62137  1  0  0  0
 62138  1  0  0  0
 62139  1  0  0  0
 63 65  1  0  0  0
 63140  1  0  0  0
 63141  1  0  0  0
 63142  1  0  0  0
 64143  1  0  0  0
 65144  1  0  0  0
 68 80  1  0  0  0
 71 72  2  0  0  0
 71 73  1  0  0  0
 71145  1  0  0  0
 72 79  1  0  0  0
 72 81  1  0  0  0
 73 82  2  0  0  0
 73 83  1  0  0  0
 74 80  1  0  0  0
 74 81  2  0  0  0
 74 82  1  0  0  0
 75 77  1  0  0  0
 75 83  1  0  0  0
 75146  1  0  0  0
 75147  1  0  0  0
 76 78  1  0  0  0
 76 83  1  0  0  0
 76148  1  0  0  0
 76149  1  0  0  0
 77 78  1  0  0  0
 77 84  1  0  0  0
 77150  1  0  0  0
 78 85  1  0  0  0
 78151  1  0  0  0
 79152  1  0  0  0
 79153  1  0  0  0
 79154  1  0  0  0
 80155  1  0  0  0
 80156  1  0  0  0
 84157  1  0  0  0
 85158  1  0  0  0
 85159  1  0  0  0
 85160  1  0  0  0
M  CHG  1  85   1
M  ISO  4   1 100  68 101  80 101  84 100
M  END
> <chiral flag>
0

> <version>
0

> <s_m_source_file>
/data/baiqing/PycharmProjects/Reinvent-master-3.2/result/LINK_invent/BTK/process_docking_weight1_custom_sum_contain_oxygen_bond_distance_aromatic_linkinvent_7_9_3/rearranged_h_0177.sdf

> <i_m_source_file_index>
8

> <r_mmod_Potential_Energy-OPLS-2005>
-581.659790039062

> <r_mmod_Stretch_Energy-OPLS-2005>
138.65299987793

> <r_mmod_Bend_Energy-OPLS-2005>
212.734954833984

> <r_mmod_Torsional_Energy-OPLS-2005>
294.564910888672

> <r_mmod_Improper_Torsional_Energy-OPLS-2005>
9.38728332519531

> <r_mmod_Van_der_Waal_Energy-OPLS-2005>
140.182052612305

> <r_mmod_Electrostatic_Energy-OPLS-2005>
-932.659240722656

> <r_mmod_Solvation_Energy-OPLS-2005>
-555.229064941406

> <b_mmod_Minimization_Converged-OPLS-2005>
0

> <r_mmod_RMS_Derivative-OPLS-2005>
1.55038166046143

$$$$
8
                    3D
 Structure written by MMmdl.
167176  0  0  1  0            999 V2000
  -30.5946  -14.8839   20.4213 C   0  0  0  0  0  0
  -30.4257  -12.5425   19.4926 C   0  0  0  0  0  0
  -29.5101  -12.5188   18.2490 C   0  0  0  0  0  0
  -28.0411  -12.3230   18.6664 C   0  0  0  0  0  0
  -27.6282  -13.2495   19.8402 C   0  0  2  0  0  0
  -28.6741  -13.2660   20.9753 C   0  0  0  0  0  0
  -25.2445  -13.8233   20.5741 C   0  0  0  0  0  0
  -24.1756  -13.0441   20.9240 C   0  0  0  0  0  0
  -24.6374  -11.6936   20.8773 C   0  0  0  0  0  0
  -23.9076  -10.4291   21.0423 C   0  0  0  0  0  0
  -24.3626   -9.4203   21.9192 C   0  0  0  0  0  0
  -23.6297   -8.2241   22.0768 C   0  0  0  0  0  0
  -22.4272   -8.0282   21.3564 C   0  0  0  0  0  0
  -21.9921   -9.0253   20.4655 C   0  0  0  0  0  0
  -22.7254  -10.2129   20.3071 C   0  0  0  0  0  0
  -21.6850   -6.0734   22.5283 C   0  0  0  0  0  0
  -21.4011   -6.5650   23.8208 C   0  0  0  0  0  0
  -21.3658   -5.6816   24.9181 C   0  0  0  0  0  0
  -21.6050   -4.3078   24.7238 C   0  0  0  0  0  0
  -21.8816   -3.8152   23.4362 C   0  0  0  0  0  0
  -21.9185   -4.6963   22.3410 C   0  0  0  0  0  0
  -22.7765  -13.5193   21.1871 C   0  0  0  0  0  0
  -22.1658   -4.2132   21.0996 F   0  0  0  0  0  0
  -21.5629   -3.4568   25.7755 F   0  0  0  0  0  0
  -29.9521  -13.6515   20.3669 N   0  0  0  0  0  0
  -26.2873  -12.9469   20.3281 N   0  0  0  0  0  0
  -25.9306  -11.6592   20.5769 N   0  0  0  0  0  0
  -22.0440  -12.8163   22.0447 N   0  0  0  0  0  0
  -25.4109  -15.1954   20.4170 N   0  0  0  0  0  0
  -31.7995  -14.8934   20.1456 O   0  0  0  0  0  0
  -21.6642   -6.8875   21.4243 O   0  0  0  0  0  0
  -22.3422  -14.5486   20.6726 O   0  0  0  0  0  0
  -24.6425  -31.8471   23.1915 C   0  0  0  0  0  0
  -25.9206  -32.4709   23.8287 C   0  0  1  0  0  0
  -27.2081  -27.1563   20.1332 C   0  0  0  0  0  0
  -25.5967  -33.8513   24.2209 N   0  0  0  0  0  0
  -23.4444  -30.4690   21.5385 C   0  0  2  0  0  0
  -24.8898  -28.9041   20.1105 C   0  0  0  0  0  0
  -22.7563  -29.4562   22.4874 C   0  0  0  0  0  0
  -18.0304  -28.1396   22.8481 C   0  0  0  0  0  0
  -24.1492  -36.7250   23.2642 C   0  0  0  0  0  0
  -26.0007  -30.7254   21.3890 C   0  0  0  0  0  0
  -26.0699  -29.3411   20.7248 C   0  0  0  0  0  0
  -27.2315  -28.4830   20.7205 C   0  0  0  0  0  0
  -25.9993  -26.8219   19.4795 C   0  0  0  0  0  0
  -24.8659  -27.6576   19.4732 C   0  0  0  0  0  0
  -23.6680  -29.8051   20.1558 C   0  0  0  0  0  0
  -25.4127  -36.3035   24.0315 C   0  0  1  0  0  0
  -20.5914  -28.3724   23.1239 C   0  0  2  0  0  0
  -20.6795  -26.9427   22.5403 C   0  0  0  0  0  0
  -19.5765  -26.6387   21.5217 C   0  0  0  0  0  0
  -18.1947  -26.7941   22.1622 C   0  0  0  0  0  0
  -19.1558  -28.8877   23.2856 C   0  0  0  0  0  0
  -18.9477  -30.1478   23.8881 C   0  0  0  0  0  0
  -17.6473  -30.6603   24.0557 C   0  0  0  0  0  0
  -25.9078  -34.9411   23.5068 C   0  0  0  0  0  0
  -16.5367  -29.9088   23.6338 C   0  0  0  0  0  0
  -16.7290  -28.6501   23.0368 C   0  0  0  0  0  0
  -26.4537  -31.6569   25.0721 C   0  0  0  0  0  0
  -25.3723  -31.3749   26.1417 C   0  0  0  0  0  0
  -27.0407  -30.2965   24.6301 C   0  0  0  0  0  0
  -27.6061  -32.4339   25.7509 C   0  0  0  0  0  0
  -27.5581  -37.1779   24.8461 C   0  0  0  0  0  0
  -21.4257  -29.3056   22.3613 N   0  0  0  0  0  0
  -26.4286  -37.3756   23.9410 N   0  0  0  0  0  0
  -24.7162  -31.0336   22.0951 N   0  0  0  0  0  0
  -23.4209  -28.8109   23.3020 O   0  0  0  0  0  0
  -28.2503  -26.1642   20.2005 O   0  0  0  0  0  0
  -26.5650  -34.8912   22.4641 O   0  0  0  0  0  0
  -23.5541  -32.1335   23.7138 O   0  0  0  0  0  0
  -31.0297  -22.4181   20.9481 C   0  0  0  0  0  0
  -30.1937  -23.5295   20.7093 C   0  0  0  0  0  0
  -28.8534  -23.3426   20.2847 C   0  0  0  0  0  0
  -28.4947  -21.8962   20.1150 C   0  0  0  0  0  0
  -29.4434  -20.7886   20.3920 C   0  0  0  0  0  0
  -30.2327  -18.6082   19.3831 C   0  0  0  0  0  0
  -29.2902  -18.4783   21.4919 C   0  0  0  0  0  0
  -30.0137  -17.0399   19.1416 C   0  0  0  0  0  0
  -29.1300  -16.8657   21.3719 C   0  0  0  0  0  0
  -30.7852  -24.9154   20.9125 C   0  0  0  0  0  0
  -26.8236  -21.8576   18.1527 C   0  0  0  0  0  0
  -25.9469  -21.8576   20.5542 C   0  0  0  0  0  0
  -27.8943  -24.6630   20.0345 C   0  0  0  0  0  0
  -27.0998  -21.4715   19.6153 C   0  0  0  0  0  0
  -30.6766  -21.1241   20.8081 N   0  0  0  0  0  0
  -29.2607  -19.3186   20.2562 N   0  0  0  0  0  0
  -29.8719  -16.1057   20.3094 N   0  0  0  0  0  0
  -31.4647  -12.6654   19.1852 H   0  0  0  0  0  0
  -30.3845  -11.5906   20.0245 H   0  0  0  0  0  0
  -29.8140  -11.7217   17.5686 H   0  0  0  0  0  0
  -29.6129  -13.4543   17.6969 H   0  0  0  0  0  0
  -27.9197  -11.2796   18.9591 H   0  0  0  0  0  0
  -27.3829  -12.4796   17.8117 H   0  0  0  0  0  0
  -27.5961  -14.2541   19.4173 H   0  0  0  0  0  0
  -28.7463  -12.2913   21.4607 H   0  0  0  0  0  0
  -28.3903  -13.9788   21.7500 H   0  0  0  0  0  0
  -25.2772   -9.5686   22.4755 H   0  0  0  0  0  0
  -24.0009   -7.4642   22.7496 H   0  0  0  0  0  0
  -21.0856   -8.8777   19.8948 H   0  0  0  0  0  0
  -22.3716  -10.9674   19.6186 H   0  0  0  0  0  0
  -21.2007   -7.6158   23.9699 H   0  0  0  0  0  0
  -21.1483   -6.0560   25.9081 H   0  0  0  0  0  0
  -22.0586   -2.7607   23.2881 H   0  0  0  0  0  0
  -22.4108  -11.9842   22.4830 H   0  0  0  0  0  0
  -21.1040  -13.1139   22.2654 H   0  0  0  0  0  0
  -24.6424  -15.8485   20.5256 H   0  0  0  0  0  0
  -26.2601  -15.6378   20.0896 H   0  0  0  0  0  0
  -26.7278  -32.5325   23.1017 H   0  0  0  0  0  0
  -25.0111  -33.9641   25.0355 H   0  0  0  0  0  0
  -22.7468  -31.2954   21.3891 H   0  0  0  0  0  0
  -23.3775  -35.9558   23.3272 H   0  0  0  0  0  0
  -24.3577  -36.8919   22.2060 H   0  0  0  0  0  0
  -23.7221  -37.6426   23.6703 H   0  0  0  0  0  0
  -26.1598  -31.4855   20.6231 H   0  0  0  0  0  0
  -26.8701  -30.7676   22.0338 H   0  0  0  0  0  0
  -28.1311  -28.8089   21.2228 H   0  0  0  0  0  0
  -25.8801  -25.8749   18.9765 H   0  0  0  0  0  0
  -23.9645  -27.3194   18.9802 H   0  0  0  0  0  0
  -23.8041  -30.5833   19.4041 H   0  0  0  0  0  0
  -22.7819  -29.2487   19.8432 H   0  0  0  0  0  0
  -25.1312  -36.1864   25.0806 H   0  0  0  0  0  0
  -21.0002  -28.3320   24.1358 H   0  0  0  0  0  0
  -20.5706  -26.2335   23.3617 H   0  0  0  0  0  0
  -21.6661  -26.7450   22.1198 H   0  0  0  0  0  0
  -19.6926  -25.6295   21.1262 H   0  0  0  0  0  0
  -19.6698  -27.3180   20.6736 H   0  0  0  0  0  0
  -17.4213  -26.6693   21.4023 H   0  0  0  0  0  0
  -18.0330  -26.0089   22.9018 H   0  0  0  0  0  0
  -19.7951  -30.7300   24.2241 H   0  0  0  0  0  0
  -17.5027  -31.6276   24.5172 H   0  0  0  0  0  0
  -15.5366  -30.2989   23.7676 H   0  0  0  0  0  0
  -15.8688  -28.0816   22.7101 H   0  0  0  0  0  0
  -24.5907  -30.7102   25.7729 H   0  0  0  0  0  0
  -24.8907  -32.2922   26.4800 H   0  0  0  0  0  0
  -25.8004  -30.8941   27.0223 H   0  0  0  0  0  0
  -26.3026  -29.6687   24.1305 H   0  0  0  0  0  0
  -27.4015  -29.7271   25.4881 H   0  0  0  0  0  0
  -27.8936  -30.4205   23.9627 H   0  0  0  0  0  0
  -27.2657  -33.3668   26.2022 H   0  0  0  0  0  0
  -28.3906  -32.6867   25.0359 H   0  0  0  0  0  0
  -28.0701  -31.8511   26.5481 H   0  0  0  0  0  0
  -28.2574  -38.0105   24.7551 H   0  0  0  0  0  0
  -28.1108  -36.2631   24.6243 H   0  0  0  0  0  0
  -27.2298  -37.1376   25.8865 H   0  0  0  0  0  0
  -20.9457  -29.8750   21.6781 H   0  0  0  0  0  0
  -26.0149  -38.2817   24.1453 H   0  0  0  0  0  0
  -32.0503  -22.5701   21.2710 H   0  0  0  0  0  0
  -30.2342  -19.1122   18.4157 H   0  0  0  0  0  0
  -31.2364  -18.7540   19.7879 H   0  0  0  0  0  0
  -30.2332  -18.6845   22.0025 H   0  0  0  0  0  0
  -28.5184  -18.8566   22.1636 H   0  0  0  0  0  0
  -30.8187  -16.6849   18.4969 H   0  0  0  0  0  0
  -29.1089  -16.9153   18.5460 H   0  0  0  0  0  0
  -28.0728  -16.6480   21.2160 H   0  0  0  0  0  0
  -29.3680  -16.4238   22.3409 H   0  0  0  0  0  0
  -31.8277  -24.8646   21.2298 H   0  0  0  0  0  0
  -30.2379  -25.4633   21.6788 H   0  0  0  0  0  0
  -30.7582  -25.4861   19.9844 H   0  0  0  0  0  0
  -27.6258  -21.5181   17.4964 H   0  0  0  0  0  0
  -26.6921  -22.9248   17.9987 H   0  0  0  0  0  0
  -25.9053  -21.3838   17.8024 H   0  0  0  0  0  0
  -26.1684  -21.5916   21.5882 H   0  0  0  0  0  0
  -25.0388  -21.3230   20.2724 H   0  0  0  0  0  0
  -25.6942  -22.9136   20.5201 H   0  0  0  0  0  0
  -27.0328  -24.5220   20.6813 H   0  0  0  0  0  0
  -27.5549  -24.5658   19.0093 H   0  0  0  0  0  0
  -27.0786  -20.3816   19.6118 H   0  0  0  0  0  0
  1 25  1  0  0  0
  1 30  2  0  0  0
  1 87  1  0  0  0
  2  3  1  0  0  0
  2 25  1  0  0  0
  2 88  1  0  0  0
  2 89  1  0  0  0
  3  4  1  0  0  0
  3 90  1  0  0  0
  3 91  1  0  0  0
  4  5  1  0  0  0
  4 92  1  0  0  0
  4 93  1  0  0  0
  5  6  1  0  0  0
  5 26  1  0  0  0
  5 94  1  0  0  0
  6 25  1  0  0  0
  6 95  1  0  0  0
  6 96  1  0  0  0
  7  8  2  0  0  0
  7 26  1  0  0  0
  7 29  1  0  0  0
  8  9  1  0  0  0
  8 22  1  0  0  0
  9 10  1  0  0  0
  9 27  2  0  0  0
 10 11  2  0  0  0
 10 15  1  0  0  0
 11 12  1  0  0  0
 11 97  1  0  0  0
 12 13  2  0  0  0
 12 98  1  0  0  0
 13 14  1  0  0  0
 13 31  1  0  0  0
 14 15  2  0  0  0
 14 99  1  0  0  0
 15100  1  0  0  0
 16 17  2  0  0  0
 16 21  1  0  0  0
 16 31  1  0  0  0
 17 18  1  0  0  0
 17101  1  0  0  0
 18 19  2  0  0  0
 18102  1  0  0  0
 19 20  1  0  0  0
 19 24  1  0  0  0
 20 21  2  0  0  0
 20103  1  0  0  0
 21 23  1  0  0  0
 22 28  1  0  0  0
 22 32  2  0  0  0
 26 27  1  0  0  0
 28104  1  0  0  0
 28105  1  0  0  0
 29106  1  0  0  0
 29107  1  0  0  0
 33 34  1  0  0  0
 33 66  1  0  0  0
 33 70  2  0  0  0
 34 36  1  0  0  0
 34 59  1  0  0  0
 34108  1  0  0  0
 35 44  2  0  0  0
 35 45  1  0  0  0
 35 68  1  0  0  0
 36 56  1  0  0  0
 36109  1  0  0  0
 37 39  1  0  0  0
 37 47  1  0  0  0
 37 66  1  0  0  0
 37110  1  0  0  0
 38 43  2  0  0  0
 38 46  1  0  0  0
 38 47  1  0  0  0
 39 64  1  0  0  0
 39 67  2  0  0  0
 40 52  1  0  0  0
 40 53  2  0  0  0
 40 58  1  0  0  0
 41111  1  0  0  0
 41112  1  0  0  0
 41113  1  0  0  0
 41 48  1  0  0  0
 42 43  1  0  0  0
 42 66  1  0  0  0
 42114  1  0  0  0
 42115  1  0  0  0
 43 44  1  0  0  0
 44116  1  0  0  0
 45 46  2  0  0  0
 45117  1  0  0  0
 46118  1  0  0  0
 47119  1  0  0  0
 47120  1  0  0  0
 48 56  1  0  0  0
 48 65  1  0  0  0
 48121  1  0  0  0
 49 50  1  0  0  0
 49 53  1  0  0  0
 49 64  1  0  0  0
 49122  1  0  0  0
 50 51  1  0  0  0
 50123  1  0  0  0
 50124  1  0  0  0
 51 52  1  0  0  0
 51125  1  0  0  0
 51126  1  0  0  0
 52127  1  0  0  0
 52128  1  0  0  0
 53 54  1  0  0  0
 54 55  2  0  0  0
 54129  1  0  0  0
 55 57  1  0  0  0
 55130  1  0  0  0
 56 69  2  0  0  0
 57 58  2  0  0  0
 57131  1  0  0  0
 58132  1  0  0  0
 59 60  1  0  0  0
 59 61  1  0  0  0
 59 62  1  0  0  0
 60133  1  0  0  0
 60134  1  0  0  0
 60135  1  0  0  0
 61136  1  0  0  0
 61137  1  0  0  0
 61138  1  0  0  0
 62139  1  0  0  0
 62140  1  0  0  0
 62141  1  0  0  0
 63 65  1  0  0  0
 63142  1  0  0  0
 63143  1  0  0  0
 63144  1  0  0  0
 64145  1  0  0  0
 65146  1  0  0  0
 68 83  1  0  0  0
 71 72  2  0  0  0
 71 85  1  0  0  0
 71147  1  0  0  0
 72 73  1  0  0  0
 72 80  1  0  0  0
 73 74  2  0  0  0
 73 83  1  0  0  0
 74 75  1  0  0  0
 74 84  1  0  0  0
 75 85  2  0  0  0
 75 86  1  0  0  0
 76 78  1  0  0  0
 76 86  1  0  0  0
 76148  1  0  0  0
 76149  1  0  0  0
 77 79  1  0  0  0
 77 86  1  0  0  0
 77150  1  0  0  0
 77151  1  0  0  0
 78 87  1  0  0  0
 78152  1  0  0  0
 78153  1  0  0  0
 79 87  1  0  0  0
 79154  1  0  0  0
 79155  1  0  0  0
 80156  1  0  0  0
 80157  1  0  0  0
 80158  1  0  0  0
 81159  1  0  0  0
 81160  1  0  0  0
 81161  1  0  0  0
 81 84  1  0  0  0
 82 84  1  0  0  0
 82162  1  0  0  0
 82163  1  0  0  0
 82164  1  0  0  0
 83165  1  0  0  0
 83166  1  0  0  0
 84167  1  0  0  0
M  ISO  4   1 100  68 101  83 101  87 100
M  END
> <chiral flag>
0

> <version>
0

> <s_m_source_file>
/data/baiqing/PycharmProjects/Reinvent-master-3.2/result/LINK_invent/BTK/process_docking_weight1_custom_sum_contain_oxygen_bond_distance_aromatic_linkinvent_7_9_3/rearranged_h_0177.sdf

> <i_m_source_file_index>
9

> <r_mmod_Potential_Energy-OPLS-2005>
435.43359375

> <r_mmod_Stretch_Energy-OPLS-2005>
212.438537597656

> <r_mmod_Bend_Energy-OPLS-2005>
248.032379150391

> <r_mmod_Torsional_Energy-OPLS-2005>
374.294708251953

> <r_mmod_Improper_Torsional_Energy-OPLS-2005>
21.200798034668

> <r_mmod_Van_der_Waal_Energy-OPLS-2005>
146.757583618164

> <r_mmod_Electrostatic_Energy-OPLS-2005>
-513.921020507812

> <r_mmod_Solvation_Energy-OPLS-2005>
-216.45686340332

> <b_mmod_Minimization_Converged-OPLS-2005>
0

> <r_mmod_RMS_Derivative-OPLS-2005>
2.07181334495544

$$$$
9
                    3D
 Structure written by MMmdl.
171181  0  0  1  0            999 V2000
  -30.6914  -14.5215   20.5447 C   0  0  0  0  0  0
  -30.4250  -12.3305   19.4312 C   0  0  0  0  0  0
  -29.4957  -12.4971   18.2109 C   0  0  0  0  0  0
  -28.0196  -12.3501   18.6289 C   0  0  0  0  0  0
  -27.6581  -13.2087   19.8699 C   0  0  2  0  0  0
  -28.7017  -13.0295   20.9948 C   0  0  0  0  0  0
  -25.2594  -13.8189   20.5682 C   0  0  0  0  0  0
  -24.1839  -13.0459   20.9178 C   0  0  0  0  0  0
  -24.6390  -11.6935   20.8730 C   0  0  0  0  0  0
  -23.9056  -10.4313   21.0403 C   0  0  0  0  0  0
  -24.3614   -9.4239   21.9187 C   0  0  0  0  0  0
  -23.6301   -8.2268   22.0759 C   0  0  0  0  0  0
  -22.4280   -8.0299   21.3555 C   0  0  0  0  0  0
  -21.9914   -9.0267   20.4649 C   0  0  0  0  0  0
  -22.7233  -10.2150   20.3057 C   0  0  0  0  0  0
  -21.6867   -6.0744   22.5276 C   0  0  0  0  0  0
  -21.4025   -6.5643   23.8214 C   0  0  0  0  0  0
  -21.3661   -5.6784   24.9168 C   0  0  0  0  0  0
  -21.6037   -4.3047   24.7208 C   0  0  0  0  0  0
  -21.8826   -3.8151   23.4329 C   0  0  0  0  0  0
  -21.9201   -4.6971   22.3390 C   0  0  0  0  0  0
  -22.7868  -13.5271   21.1822 C   0  0  0  0  0  0
  -22.1674   -4.2164   21.0969 F   0  0  0  0  0  0
  -21.5620   -3.4532   25.7721 F   0  0  0  0  0  0
  -30.0266  -13.3359   20.4309 N   0  0  0  0  0  0
  -26.3019  -12.9349   20.3375 N   0  0  0  0  0  0
  -25.9317  -11.6507   20.5783 N   0  0  0  0  0  0
  -22.0498  -12.8269   22.0381 N   0  0  0  0  0  0
  -25.4335  -15.1900   20.4112 N   0  0  0  0  0  0
  -31.8315  -14.6831   20.0941 O   0  0  0  0  0  0
  -21.6657   -6.8887   21.4241 O   0  0  0  0  0  0
  -22.3556  -14.5567   20.6655 O   0  0  0  0  0  0
  -24.6197  -31.8659   23.2080 C   0  0  0  0  0  0
  -25.9065  -32.4832   23.8400 C   0  0  1  0  0  0
  -27.2208  -27.3898   20.1107 C   0  0  0  0  0  0
  -25.5895  -33.8632   24.2328 N   0  0  0  0  0  0
  -23.4095  -30.4899   21.5510 C   0  0  2  0  0  0
  -24.8527  -28.9533   20.1156 C   0  0  0  0  0  0
  -22.7454  -29.4642   22.4983 C   0  0  0  0  0  0
  -18.0275  -28.1394   22.8497 C   0  0  0  0  0  0
  -24.1479  -36.7325   23.2637 C   0  0  0  0  0  0
  -25.9422  -30.8229   21.3620 C   0  0  0  0  0  0
  -26.0188  -29.4531   20.7108 C   0  0  0  0  0  0
  -27.2111  -28.6831   20.6932 C   0  0  0  0  0  0
  -26.0307  -26.9131   19.5185 C   0  0  0  0  0  0
  -24.8567  -27.6864   19.5109 C   0  0  0  0  0  0
  -23.6188  -29.8268   20.1654 C   0  0  0  0  0  0
  -25.4098  -36.3125   24.0339 C   0  0  1  0  0  0
  -20.5875  -28.3680   23.1324 C   0  0  2  0  0  0
  -20.6771  -26.9414   22.5422 C   0  0  0  0  0  0
  -19.5744  -26.6393   21.5230 C   0  0  0  0  0  0
  -18.1922  -26.7939   22.1638 C   0  0  0  0  0  0
  -19.1527  -28.8857   23.2905 C   0  0  0  0  0  0
  -18.9445  -30.1458   23.8927 C   0  0  0  0  0  0
  -17.6444  -30.6600   24.0572 C   0  0  0  0  0  0
  -25.9024  -34.9484   23.5132 C   0  0  0  0  0  0
  -16.5337  -29.9106   23.6320 C   0  0  0  0  0  0
  -16.7260  -28.6522   23.0347 C   0  0  0  0  0  0
  -26.4465  -31.6623   25.0748 C   0  0  0  0  0  0
  -25.3719  -31.3740   26.1500 C   0  0  0  0  0  0
  -27.0292  -30.3067   24.6112 C   0  0  0  0  0  0
  -27.6048  -32.4337   25.7509 C   0  0  0  0  0  0
  -27.5574  -37.1817   24.8462 C   0  0  0  0  0  0
  -21.4173  -29.3044   22.3743 N   0  0  0  0  0  0
  -26.4287  -37.3809   23.9411 N   0  0  0  0  0  0
  -24.6765  -31.0733   22.0996 N   0  0  0  0  0  0
  -23.4203  -28.8166   23.3025 O   0  0  0  0  0  0
  -28.3645  -26.6047   20.1038 O   0  0  0  0  0  0
  -26.5589  -34.8946   22.4692 O   0  0  0  0  0  0
  -23.5368  -32.1409   23.7448 O   0  0  0  0  0  0
  -29.3099  -21.6457   18.5150 C   0  0  0  0  0  0
  -29.0944  -22.7977   17.7397 C   0  0  0  0  0  0
  -28.7820  -24.0246   18.3800 C   0  0  0  0  0  0
  -28.6851  -24.0345   19.7999 C   0  0  0  0  0  0
  -29.2039  -21.7185   19.9109 C   0  0  0  0  0  0
  -28.5134  -25.2612   17.5134 C   0  0  0  0  0  0
  -29.2072  -22.6890   16.2246 C   0  0  0  0  0  0
  -29.8211  -17.6676   22.2275 C   0  0  0  0  0  0
  -30.2669  -16.1944   22.2826 C   0  0  0  0  0  0
  -29.5793  -16.6921   20.0732 C   0  0  0  0  0  0
  -28.9280  -25.0938   16.0420 C   0  0  0  0  0  0
  -29.9034  -18.0476   20.7509 C   0  0  1  0  0  0
  -28.5431  -23.6567   14.0667 C   0  0  0  0  0  0
  -28.2242  -25.2595   20.6445 C   0  0  0  0  0  0
  -28.9926  -19.2407   20.2974 C   0  0  0  0  0  0
  -28.9044  -22.8909   20.5235 N   0  0  0  0  0  0
  -29.9641  -15.5867   20.9819 N   0  0  0  0  0  0
  -29.4300  -20.5889   20.7285 N   0  0  0  0  0  0
  -28.4817  -23.7781   15.5383 N   0  3  1  0  0  0
  -31.4689  -12.4345   19.1263 H   0  0  0  0  0  0
  -30.3374  -11.3267   19.8518 H   0  0  0  0  0  0
  -29.7410  -11.7578   17.4468 H   0  0  0  0  0  0
  -29.6551  -13.4745   17.7525 H   0  0  0  0  0  0
  -27.8427  -11.2955   18.8467 H   0  0  0  0  0  0
  -27.3645  -12.5994   17.7929 H   0  0  0  0  0  0
  -27.6907  -14.2497   19.5505 H   0  0  0  0  0  0
  -28.6876  -12.0060   21.3715 H   0  0  0  0  0  0
  -28.4628  -13.6674   21.8470 H   0  0  0  0  0  0
  -25.2764   -9.5732   22.4756 H   0  0  0  0  0  0
  -24.0023   -7.4668   22.7477 H   0  0  0  0  0  0
  -21.0849   -8.8780   19.8951 H   0  0  0  0  0  0
  -22.3697  -10.9687   19.6162 H   0  0  0  0  0  0
  -21.2032   -7.6157   23.9720 H   0  0  0  0  0  0
  -21.1471   -6.0514   25.9070 H   0  0  0  0  0  0
  -22.0600   -2.7616   23.2822 H   0  0  0  0  0  0
  -22.4102  -11.9942   22.4800 H   0  0  0  0  0  0
  -21.1115  -13.1313   22.2563 H   0  0  0  0  0  0
  -24.6725  -15.8509   20.5266 H   0  0  0  0  0  0
  -26.2984  -15.6276   20.1217 H   0  0  0  0  0  0
  -26.7143  -32.5538   23.1169 H   0  0  0  0  0  0
  -25.0086  -33.9811   25.0499 H   0  0  0  0  0  0
  -22.6996  -31.3077   21.4138 H   0  0  0  0  0  0
  -23.3745  -35.9656   23.3307 H   0  0  0  0  0  0
  -24.3567  -36.8935   22.2050 H   0  0  0  0  0  0
  -23.7232  -37.6530   23.6646 H   0  0  0  0  0  0
  -26.0499  -31.5838   20.5880 H   0  0  0  0  0  0
  -26.8340  -30.8862   21.9742 H   0  0  0  0  0  0
  -28.1149  -29.0629   21.1472 H   0  0  0  0  0  0
  -25.9912  -25.9331   19.0677 H   0  0  0  0  0  0
  -23.9596  -27.2993   19.0480 H   0  0  0  0  0  0
  -23.7335  -30.6056   19.4109 H   0  0  0  0  0  0
  -22.7407  -29.2515   19.8648 H   0  0  0  0  0  0
  -25.1270  -36.1992   25.0832 H   0  0  0  0  0  0
  -20.9948  -28.3238   24.1452 H   0  0  0  0  0  0
  -20.5703  -26.2279   23.3606 H   0  0  0  0  0  0
  -21.6636  -26.7477   22.1191 H   0  0  0  0  0  0
  -19.6902  -25.6306   21.1259 H   0  0  0  0  0  0
  -19.6686  -27.3213   20.6768 H   0  0  0  0  0  0
  -17.4186  -26.6689   21.4040 H   0  0  0  0  0  0
  -18.0309  -26.0089   22.9039 H   0  0  0  0  0  0
  -19.7917  -30.7266   24.2318 H   0  0  0  0  0  0
  -17.4999  -31.6284   24.5168 H   0  0  0  0  0  0
  -15.5341  -30.3016   23.7642 H   0  0  0  0  0  0
  -15.8655  -28.0857   22.7045 H   0  0  0  0  0  0
  -24.5874  -30.7110   25.7825 H   0  0  0  0  0  0
  -24.8936  -32.2909   26.4957 H   0  0  0  0  0  0
  -25.8063  -30.8890   27.0256 H   0  0  0  0  0  0
  -26.2841  -29.6860   24.1124 H   0  0  0  0  0  0
  -27.4029  -29.7274   25.4565 H   0  0  0  0  0  0
  -27.8687  -30.4408   23.9291 H   0  0  0  0  0  0
  -27.2675  -33.3624   26.2127 H   0  0  0  0  0  0
  -28.3835  -32.6923   25.0320 H   0  0  0  0  0  0
  -28.0748  -31.8442   26.5392 H   0  0  0  0  0  0
  -28.2598  -38.0108   24.7506 H   0  0  0  0  0  0
  -28.1068  -36.2641   24.6288 H   0  0  0  0  0  0
  -27.2301  -37.1470   25.8870 H   0  0  0  0  0  0
  -20.9330  -29.8793   21.6994 H   0  0  0  0  0  0
  -26.0178  -38.2889   24.1421 H   0  0  0  0  0  0
  -29.5811  -20.7262   18.0151 H   0  0  0  0  0  0
  -29.0514  -26.1239   17.8998 H   0  0  0  0  0  0
  -27.4517  -25.4951   17.5521 H   0  0  0  0  0  0
  -28.8129  -21.7263   15.8980 H   0  0  0  0  0  0
  -30.2640  -22.7160   15.9523 H   0  0  0  0  0  0
  -30.4383  -18.3098   22.8565 H   0  0  0  0  0  0
  -28.7930  -17.7466   22.5835 H   0  0  0  0  0  0
  -29.7584  -15.6542   23.0823 H   0  0  0  0  0  0
  -31.3388  -16.1396   22.4856 H   0  0  0  0  0  0
  -30.0657  -16.6198   19.0986 H   0  0  0  0  0  0
  -28.5071  -16.6146   19.8950 H   0  0  0  0  0  0
  -30.0117  -25.1750   15.9432 H   0  0  0  0  0  0
  -28.5021  -25.9051   15.4485 H   0  0  0  0  0  0
  -30.9429  -18.2809   20.5137 H   0  0  0  0  0  0
  -28.1626  -22.6867   13.7446 H   0  0  0  0  0  0
  -29.5678  -23.7561   13.7074 H   0  0  0  0  0  0
  -27.9341  -24.4228   13.5856 H   0  0  0  0  0  0
  -28.8085  -25.2545   21.5656 H   0  0  0  0  0  0
  -27.2028  -25.0551   20.9679 H   0  0  0  0  0  0
  -27.9871  -19.0813   20.6873 H   0  0  0  0  0  0
  -28.8778  -19.1921   19.2159 H   0  0  0  0  0  0
  -29.3439  -20.7657   21.7239 H   0  0  0  0  0  0
  -27.5136  -23.6812   15.8025 H   0  0  0  0  0  0
  1 25  1  0  0  0
  1 30  2  0  0  0
  1 87  1  0  0  0
  2  3  1  0  0  0
  2 25  1  0  0  0
  2 90  1  0  0  0
  2 91  1  0  0  0
  3  4  1  0  0  0
  3 92  1  0  0  0
  3 93  1  0  0  0
  4  5  1  0  0  0
  4 94  1  0  0  0
  4 95  1  0  0  0
  5  6  1  0  0  0
  5 26  1  0  0  0
  5 96  1  0  0  0
  6 25  1  0  0  0
  6 97  1  0  0  0
  6 98  1  0  0  0
  7  8  2  0  0  0
  7 26  1  0  0  0
  7 29  1  0  0  0
  8  9  1  0  0  0
  8 22  1  0  0  0
  9 10  1  0  0  0
  9 27  2  0  0  0
 10 11  2  0  0  0
 10 15  1  0  0  0
 11 12  1  0  0  0
 11 99  1  0  0  0
 12 13  2  0  0  0
 12100  1  0  0  0
 13 14  1  0  0  0
 13 31  1  0  0  0
 14 15  2  0  0  0
 14101  1  0  0  0
 15102  1  0  0  0
 16 17  2  0  0  0
 16 21  1  0  0  0
 16 31  1  0  0  0
 17 18  1  0  0  0
 17103  1  0  0  0
 18 19  2  0  0  0
 18104  1  0  0  0
 19 20  1  0  0  0
 19 24  1  0  0  0
 20 21  2  0  0  0
 20105  1  0  0  0
 21 23  1  0  0  0
 22 28  1  0  0  0
 22 32  2  0  0  0
 26 27  1  0  0  0
 28106  1  0  0  0
 28107  1  0  0  0
 29108  1  0  0  0
 29109  1  0  0  0
 33 34  1  0  0  0
 33 66  1  0  0  0
 33 70  2  0  0  0
 34 36  1  0  0  0
 34 59  1  0  0  0
 34110  1  0  0  0
 35 44  2  0  0  0
 35 45  1  0  0  0
 35 68  1  0  0  0
 36 56  1  0  0  0
 36111  1  0  0  0
 37 39  1  0  0  0
 37 47  1  0  0  0
 37 66  1  0  0  0
 37112  1  0  0  0
 38 43  2  0  0  0
 38 46  1  0  0  0
 38 47  1  0  0  0
 39 64  1  0  0  0
 39 67  2  0  0  0
 40 52  1  0  0  0
 40 53  2  0  0  0
 40 58  1  0  0  0
 41113  1  0  0  0
 41114  1  0  0  0
 41115  1  0  0  0
 41 48  1  0  0  0
 42 43  1  0  0  0
 42 66  1  0  0  0
 42116  1  0  0  0
 42117  1  0  0  0
 43 44  1  0  0  0
 44118  1  0  0  0
 45 46  2  0  0  0
 45119  1  0  0  0
 46120  1  0  0  0
 47121  1  0  0  0
 47122  1  0  0  0
 48 56  1  0  0  0
 48 65  1  0  0  0
 48123  1  0  0  0
 49 50  1  0  0  0
 49 53  1  0  0  0
 49 64  1  0  0  0
 49124  1  0  0  0
 50 51  1  0  0  0
 50125  1  0  0  0
 50126  1  0  0  0
 51 52  1  0  0  0
 51127  1  0  0  0
 51128  1  0  0  0
 52129  1  0  0  0
 52130  1  0  0  0
 53 54  1  0  0  0
 54 55  2  0  0  0
 54131  1  0  0  0
 55 57  1  0  0  0
 55132  1  0  0  0
 56 69  2  0  0  0
 57 58  2  0  0  0
 57133  1  0  0  0
 58134  1  0  0  0
 59 60  1  0  0  0
 59 61  1  0  0  0
 59 62  1  0  0  0
 60135  1  0  0  0
 60136  1  0  0  0
 60137  1  0  0  0
 61138  1  0  0  0
 61139  1  0  0  0
 61140  1  0  0  0
 62141  1  0  0  0
 62142  1  0  0  0
 62143  1  0  0  0
 63 65  1  0  0  0
 63144  1  0  0  0
 63145  1  0  0  0
 63146  1  0  0  0
 64147  1  0  0  0
 65148  1  0  0  0
 68 84  1  0  0  0
 71 72  2  0  0  0
 71 75  1  0  0  0
 71149  1  0  0  0
 72 73  1  0  0  0
 72 77  1  0  0  0
 73 74  2  0  0  0
 73 76  1  0  0  0
 74 84  1  0  0  0
 74 86  1  0  0  0
 75 86  2  0  0  0
 75 88  1  0  0  0
 76 81  1  0  0  0
 76150  1  0  0  0
 76151  1  0  0  0
 77 89  1  0  0  0
 77152  1  0  0  0
 77153  1  0  0  0
 78 79  1  0  0  0
 78 82  1  0  0  0
 78154  1  0  0  0
 78155  1  0  0  0
 79 87  1  0  0  0
 79156  1  0  0  0
 79157  1  0  0  0
 80 82  1  0  0  0
 80 87  1  0  0  0
 80158  1  0  0  0
 80159  1  0  0  0
 81 89  1  0  0  0
 81160  1  0  0  0
 81161  1  0  0  0
 82 85  1  0  0  0
 82162  1  0  0  0
 83163  1  0  0  0
 83164  1  0  0  0
 83165  1  0  0  0
 83 89  1  0  0  0
 84166  1  0  0  0
 84167  1  0  0  0
 85 88  1  0  0  0
 85168  1  0  0  0
 85169  1  0  0  0
 88170  1  0  0  0
 89171  1  0  0  0
M  CHG  1  89   1
M  ISO  4   1 100  68 101  84 101  87 100
M  END
> <chiral flag>
0

> <version>
0

> <s_m_source_file>
/data/baiqing/PycharmProjects/Reinvent-master-3.2/result/LINK_invent/BTK/process_docking_weight1_custom_sum_contain_oxygen_bond_distance_aromatic_linkinvent_7_9_3/rearranged_h_0177.sdf

> <i_m_source_file_index>
10

> <r_mmod_Potential_Energy-OPLS-2005>
-144.510528564453

> <r_mmod_Stretch_Energy-OPLS-2005>
51.7828178405762

> <r_mmod_Bend_Energy-OPLS-2005>
138.724029541016

> <r_mmod_Torsional_Energy-OPLS-2005>
381.963104248047

> <r_mmod_Improper_Torsional_Energy-OPLS-2005>
11.4274702072144

> <r_mmod_Van_der_Waal_Energy-OPLS-2005>
154.610992431641

> <r_mmod_Electrostatic_Energy-OPLS-2005>
-444.07470703125

> <r_mmod_Solvation_Energy-OPLS-2005>
-459.695709228516

> <b_mmod_Minimization_Converged-OPLS-2005>
0

> <r_mmod_RMS_Derivative-OPLS-2005>
2.2587296962738

$$$$
10
                    3D
 Structure written by MMmdl.
159168  0  0  1  0            999 V2000
  -30.6423  -14.9183   20.4309 C   0  0  0  0  0  0
  -30.4102  -12.5823   19.4935 C   0  0  0  0  0  0
  -29.5060  -12.5202   18.2476 C   0  0  0  0  0  0
  -28.0461  -12.2951   18.6747 C   0  0  0  0  0  0
  -27.6169  -13.2431   19.8256 C   0  0  2  0  0  0
  -28.6610  -13.3349   20.9603 C   0  0  0  0  0  0
  -25.2425  -13.8209   20.5727 C   0  0  0  0  0  0
  -24.1745  -13.0433   20.9248 C   0  0  0  0  0  0
  -24.6361  -11.6921   20.8771 C   0  0  0  0  0  0
  -23.9057  -10.4292   21.0416 C   0  0  0  0  0  0
  -24.3610   -9.4210   21.9196 C   0  0  0  0  0  0
  -23.6293   -8.2240   22.0759 C   0  0  0  0  0  0
  -22.4277   -8.0275   21.3551 C   0  0  0  0  0  0
  -21.9919   -9.0250   20.4654 C   0  0  0  0  0  0
  -22.7238  -10.2130   20.3065 C   0  0  0  0  0  0
  -21.6853   -6.0733   22.5283 C   0  0  0  0  0  0
  -21.4013   -6.5633   23.8219 C   0  0  0  0  0  0
  -21.3655   -5.6784   24.9178 C   0  0  0  0  0  0
  -21.6049   -4.3052   24.7225 C   0  0  0  0  0  0
  -21.8812   -3.8146   23.4346 C   0  0  0  0  0  0
  -21.9191   -4.6962   22.3407 C   0  0  0  0  0  0
  -22.7765  -13.5211   21.1883 C   0  0  0  0  0  0
  -22.1660   -4.2157   21.0982 F   0  0  0  0  0  0
  -21.5636   -3.4527   25.7732 F   0  0  0  0  0  0
  -29.9330  -13.7201   20.3389 N   0  0  0  0  0  0
  -26.2821  -12.9422   20.3238 N   0  0  0  0  0  0
  -25.9289  -11.6561   20.5755 N   0  0  0  0  0  0
  -22.0384  -12.8232   22.0436 N   0  0  0  0  0  0
  -25.4075  -15.1944   20.4148 N   0  0  0  0  0  0
  -31.8545  -14.8208   20.2145 O   0  0  0  0  0  0
  -21.6645   -6.8872   21.4241 O   0  0  0  0  0  0
  -22.3470  -14.5509   20.6705 O   0  0  0  0  0  0
  -24.6400  -31.8455   23.1918 C   0  0  0  0  0  0
  -25.9186  -32.4700   23.8285 C   0  0  1  0  0  0
  -27.2072  -27.1600   20.1335 C   0  0  0  0  0  0
  -25.5948  -33.8506   24.2203 N   0  0  0  0  0  0
  -23.4411  -30.4691   21.5380 C   0  0  2  0  0  0
  -24.8866  -28.9049   20.1027 C   0  0  0  0  0  0
  -22.7538  -29.4553   22.4869 C   0  0  0  0  0  0
  -18.0297  -28.1377   22.8508 C   0  0  0  0  0  0
  -24.1488  -36.7264   23.2645 C   0  0  0  0  0  0
  -25.9947  -30.7243   21.3881 C   0  0  0  0  0  0
  -26.0621  -29.3400   20.7262 C   0  0  0  0  0  0
  -27.2188  -28.4798   20.7345 C   0  0  0  0  0  0
  -26.0113  -26.8311   19.4557 C   0  0  0  0  0  0
  -24.8735  -27.6636   19.4529 C   0  0  0  0  0  0
  -23.6626  -29.8045   20.1537 C   0  0  0  0  0  0
  -25.4122  -36.3040   24.0319 C   0  0  1  0  0  0
  -20.5906  -28.3692   23.1249 C   0  0  2  0  0  0
  -20.6773  -26.9391   22.5407 C   0  0  0  0  0  0
  -19.5740  -26.6372   21.5213 C   0  0  0  0  0  0
  -18.1930  -26.7930   22.1634 C   0  0  0  0  0  0
  -19.1552  -28.8864   23.2877 C   0  0  0  0  0  0
  -18.9467  -30.1471   23.8873 C   0  0  0  0  0  0
  -17.6466  -30.6586   24.0565 C   0  0  0  0  0  0
  -25.9072  -34.9411   23.5072 C   0  0  0  0  0  0
  -16.5362  -29.9067   23.6349 C   0  0  0  0  0  0
  -16.7279  -28.6482   23.0375 C   0  0  0  0  0  0
  -26.4505  -31.6561   25.0716 C   0  0  0  0  0  0
  -25.3690  -31.3764   26.1414 C   0  0  0  0  0  0
  -27.0341  -30.2948   24.6288 C   0  0  0  0  0  0
  -27.6046  -32.4315   25.7489 C   0  0  0  0  0  0
  -27.5580  -37.1798   24.8465 C   0  0  0  0  0  0
  -21.4227  -29.3027   22.3623 N   0  0  0  0  0  0
  -26.4290  -37.3747   23.9409 N   0  0  0  0  0  0
  -24.7123  -31.0340   22.0934 N   0  0  0  0  0  0
  -23.4195  -28.8084   23.2986 O   0  0  0  0  0  0
  -28.2771  -26.2038   20.2290 O   0  0  0  0  0  0
  -26.5650  -34.8901   22.4647 O   0  0  0  0  0  0
  -23.5540  -32.1307   23.7173 O   0  0  0  0  0  0
  -28.5893  -22.5929   23.1228 C   0  0  0  0  0  0
  -28.8407  -21.2996   22.6482 C   0  0  0  0  0  0
  -28.4188  -23.6637   22.2337 C   0  0  0  0  0  0
  -28.9373  -21.0037   21.2725 C   0  0  0  0  0  0
  -28.5080  -23.4409   20.8378 C   0  0  0  0  0  0
  -28.3809  -18.3593   20.2421 C   0  0  0  0  0  0
  -30.7045  -18.9113   20.6126 C   0  0  0  0  0  0
  -28.6873  -16.7731   20.4831 C   0  0  0  0  0  0
  -31.0319  -17.3832   20.9810 C   0  0  0  0  0  0
  -29.2831  -19.4032   20.9904 C   0  0  0  0  0  0
  -28.1194  -25.0321   22.8302 C   0  0  0  0  0  0
  -28.1813  -24.7002   19.8418 C   0  0  0  0  0  0
  -28.7714  -22.1042   20.3880 N   0  0  0  0  0  0
  -30.1003  -16.2405   20.6107 N   0  0  0  0  0  0
  -31.4504  -12.6868   19.1800 H   0  0  0  0  0  0
  -30.3672  -11.6438   20.0492 H   0  0  0  0  0  0
  -29.8316  -11.7233   17.5779 H   0  0  0  0  0  0
  -29.5902  -13.4523   17.6853 H   0  0  0  0  0  0
  -27.9584  -11.2572   18.9995 H   0  0  0  0  0  0
  -27.3788  -12.4002   17.8182 H   0  0  0  0  0  0
  -27.5559  -14.2223   19.3583 H   0  0  0  0  0  0
  -28.7526  -12.3887   21.4949 H   0  0  0  0  0  0
  -28.3569  -14.0785   21.6993 H   0  0  0  0  0  0
  -25.2735   -9.5697   22.4795 H   0  0  0  0  0  0
  -24.0001   -7.4628   22.7480 H   0  0  0  0  0  0
  -21.0857   -8.8762   19.8961 H   0  0  0  0  0  0
  -22.3690  -10.9669   19.6181 H   0  0  0  0  0  0
  -21.1997   -7.6138   23.9727 H   0  0  0  0  0  0
  -21.1490   -6.0512   25.9086 H   0  0  0  0  0  0
  -22.0598   -2.7611   23.2842 H   0  0  0  0  0  0
  -22.3967  -11.9904   22.4868 H   0  0  0  0  0  0
  -21.0991  -13.1286   22.2585 H   0  0  0  0  0  0
  -24.6364  -15.8411   20.5355 H   0  0  0  0  0  0
  -26.2566  -15.6441   20.1002 H   0  0  0  0  0  0
  -26.7264  -32.5296   23.1024 H   0  0  0  0  0  0
  -25.0070  -33.9629   25.0342 H   0  0  0  0  0  0
  -22.7424  -31.2962   21.3929 H   0  0  0  0  0  0
  -23.3750  -35.9594   23.3274 H   0  0  0  0  0  0
  -24.3592  -36.8918   22.2068 H   0  0  0  0  0  0
  -23.7237  -37.6455   23.6687 H   0  0  0  0  0  0
  -26.1489  -31.4803   20.6180 H   0  0  0  0  0  0
  -26.8656  -30.7710   22.0289 H   0  0  0  0  0  0
  -28.1088  -28.8037   21.2551 H   0  0  0  0  0  0
  -25.9024  -25.9044   18.9178 H   0  0  0  0  0  0
  -23.9794  -27.3344   18.9399 H   0  0  0  0  0  0
  -23.7850  -30.5803   19.3962 H   0  0  0  0  0  0
  -22.7775  -29.2416   19.8513 H   0  0  0  0  0  0
  -25.1310  -36.1870   25.0812 H   0  0  0  0  0  0
  -21.0028  -28.3258   24.1356 H   0  0  0  0  0  0
  -20.5664  -26.2274   23.3610 H   0  0  0  0  0  0
  -21.6638  -26.7389   22.1198 H   0  0  0  0  0  0
  -19.6868  -25.6273   21.1247 H   0  0  0  0  0  0
  -19.6687  -27.3180   20.6740 H   0  0  0  0  0  0
  -17.4204  -26.6705   21.4033 H   0  0  0  0  0  0
  -18.0318  -26.0066   22.9016 H   0  0  0  0  0  0
  -19.7941  -30.7314   24.2203 H   0  0  0  0  0  0
  -17.5006  -31.6261   24.5164 H   0  0  0  0  0  0
  -15.5356  -30.2951   23.7687 H   0  0  0  0  0  0
  -15.8681  -28.0793   22.7087 H   0  0  0  0  0  0
  -24.5862  -30.7114   25.7743 H   0  0  0  0  0  0
  -24.8884  -32.2945   26.4787 H   0  0  0  0  0  0
  -25.7967  -30.8977   27.0228 H   0  0  0  0  0  0
  -26.2930  -29.6678   24.1310 H   0  0  0  0  0  0
  -27.3957  -29.7245   25.4855 H   0  0  0  0  0  0
  -27.8838  -30.4171   23.9568 H   0  0  0  0  0  0
  -27.2649  -33.3646   26.1992 H   0  0  0  0  0  0
  -28.3874  -32.6821   25.0316 H   0  0  0  0  0  0
  -28.0661  -31.8474   26.5462 H   0  0  0  0  0  0
  -28.2588  -38.0108   24.7528 H   0  0  0  0  0  0
  -28.1096  -36.2645   24.6268 H   0  0  0  0  0  0
  -27.2311  -37.1407   25.8872 H   0  0  0  0  0  0
  -20.9403  -29.8745   21.6832 H   0  0  0  0  0  0
  -26.0151  -38.2810   24.1410 H   0  0  0  0  0  0
  -28.5191  -22.7566   24.1898 H   0  0  0  0  0  0
  -28.9671  -20.5273   23.3941 H   0  0  0  0  0  0
  -27.3391  -18.5433   20.5112 H   0  0  0  0  0  0
  -28.4368  -18.5757   19.1741 H   0  0  0  0  0  0
  -30.8746  -19.0870   19.5488 H   0  0  0  0  0  0
  -31.4331  -19.5383   21.1289 H   0  0  0  0  0  0
  -28.2106  -16.2427   19.6635 H   0  0  0  0  0  0
  -28.1601  -16.4638   21.3862 H   0  0  0  0  0  0
  -31.1439  -17.3249   22.0654 H   0  0  0  0  0  0
  -32.0346  -17.1953   20.5932 H   0  0  0  0  0  0
  -29.1877  -19.0050   22.0004 H   0  0  0  0  0  0
  -28.0174  -24.9858   23.9146 H   0  0  0  0  0  0
  -27.1837  -25.4332   22.4406 H   0  0  0  0  0  0
  -28.9260  -25.7340   22.6145 H   0  0  0  0  0  0
  -27.1952  -24.4582   19.4589 H   0  0  0  0  0  0
  -28.8409  -24.5797   18.9818 H   0  0  0  0  0  0
  1 25  1  0  0  0
  1 30  2  0  0  0
  1 84  1  0  0  0
  2  3  1  0  0  0
  2 25  1  0  0  0
  2 85  1  0  0  0
  2 86  1  0  0  0
  3  4  1  0  0  0
  3 87  1  0  0  0
  3 88  1  0  0  0
  4  5  1  0  0  0
  4 89  1  0  0  0
  4 90  1  0  0  0
  5  6  1  0  0  0
  5 26  1  0  0  0
  5 91  1  0  0  0
  6 25  1  0  0  0
  6 92  1  0  0  0
  6 93  1  0  0  0
  7  8  2  0  0  0
  7 26  1  0  0  0
  7 29  1  0  0  0
  8  9  1  0  0  0
  8 22  1  0  0  0
  9 10  1  0  0  0
  9 27  2  0  0  0
 10 11  2  0  0  0
 10 15  1  0  0  0
 11 12  1  0  0  0
 11 94  1  0  0  0
 12 13  2  0  0  0
 12 95  1  0  0  0
 13 14  1  0  0  0
 13 31  1  0  0  0
 14 15  2  0  0  0
 14 96  1  0  0  0
 15 97  1  0  0  0
 16 17  2  0  0  0
 16 21  1  0  0  0
 16 31  1  0  0  0
 17 18  1  0  0  0
 17 98  1  0  0  0
 18 19  2  0  0  0
 18 99  1  0  0  0
 19 20  1  0  0  0
 19 24  1  0  0  0
 20 21  2  0  0  0
 20100  1  0  0  0
 21 23  1  0  0  0
 22 28  1  0  0  0
 22 32  2  0  0  0
 26 27  1  0  0  0
 28101  1  0  0  0
 28102  1  0  0  0
 29103  1  0  0  0
 29104  1  0  0  0
 33 34  1  0  0  0
 33 66  1  0  0  0
 33 70  2  0  0  0
 34 36  1  0  0  0
 34 59  1  0  0  0
 34105  1  0  0  0
 35 44  2  0  0  0
 35 45  1  0  0  0
 35 68  1  0  0  0
 36 56  1  0  0  0
 36106  1  0  0  0
 37 39  1  0  0  0
 37 47  1  0  0  0
 37 66  1  0  0  0
 37107  1  0  0  0
 38 43  2  0  0  0
 38 46  1  0  0  0
 38 47  1  0  0  0
 39 64  1  0  0  0
 39 67  2  0  0  0
 40 52  1  0  0  0
 40 53  2  0  0  0
 40 58  1  0  0  0
 41108  1  0  0  0
 41109  1  0  0  0
 41110  1  0  0  0
 41 48  1  0  0  0
 42 43  1  0  0  0
 42 66  1  0  0  0
 42111  1  0  0  0
 42112  1  0  0  0
 43 44  1  0  0  0
 44113  1  0  0  0
 45 46  2  0  0  0
 45114  1  0  0  0
 46115  1  0  0  0
 47116  1  0  0  0
 47117  1  0  0  0
 48 56  1  0  0  0
 48 65  1  0  0  0
 48118  1  0  0  0
 49 50  1  0  0  0
 49 53  1  0  0  0
 49 64  1  0  0  0
 49119  1  0  0  0
 50 51  1  0  0  0
 50120  1  0  0  0
 50121  1  0  0  0
 51 52  1  0  0  0
 51122  1  0  0  0
 51123  1  0  0  0
 52124  1  0  0  0
 52125  1  0  0  0
 53 54  1  0  0  0
 54 55  2  0  0  0
 54126  1  0  0  0
 55 57  1  0  0  0
 55127  1  0  0  0
 56 69  2  0  0  0
 57 58  2  0  0  0
 57128  1  0  0  0
 58129  1  0  0  0
 59 60  1  0  0  0
 59 61  1  0  0  0
 59 62  1  0  0  0
 60130  1  0  0  0
 60131  1  0  0  0
 60132  1  0  0  0
 61133  1  0  0  0
 61134  1  0  0  0
 61135  1  0  0  0
 62136  1  0  0  0
 62137  1  0  0  0
 62138  1  0  0  0
 63 65  1  0  0  0
 63139  1  0  0  0
 63140  1  0  0  0
 63141  1  0  0  0
 64142  1  0  0  0
 65143  1  0  0  0
 68 82  1  0  0  0
 71 72  2  0  0  0
 71 73  1  0  0  0
 71144  1  0  0  0
 72 74  1  0  0  0
 72145  1  0  0  0
 73 75  2  0  0  0
 73 81  1  0  0  0
 74 83  2  0  0  0
 74 80  1  0  0  0
 75 82  1  0  0  0
 75 83  1  0  0  0
 76 78  1  0  0  0
 76 80  1  0  0  0
 76146  1  0  0  0
 76147  1  0  0  0
 77 79  1  0  0  0
 77 80  1  0  0  0
 77148  1  0  0  0
 77149  1  0  0  0
 78 84  1  0  0  0
 78150  1  0  0  0
 78151  1  0  0  0
 79 84  1  0  0  0
 79152  1  0  0  0
 79153  1  0  0  0
 80154  1  0  0  0
 81155  1  0  0  0
 81156  1  0  0  0
 81157  1  0  0  0
 82158  1  0  0  0
 82159  1  0  0  0
M  ISO  4   1 100  68 101  82 101  84 100
M  END
> <chiral flag>
0

> <version>
0

> <s_m_source_file>
/data/baiqing/PycharmProjects/Reinvent-master-3.2/result/LINK_invent/BTK/process_docking_weight1_custom_sum_contain_oxygen_bond_distance_aromatic_linkinvent_7_9_3/rearranged_h_0177.sdf

> <i_m_source_file_index>
11

> <r_mmod_Potential_Energy-OPLS-2005>
562.5439453125

> <r_mmod_Stretch_Energy-OPLS-2005>
229.495620727539

> <r_mmod_Bend_Energy-OPLS-2005>
322.303741455078

> <r_mmod_Torsional_Energy-OPLS-2005>
298.905090332031

> <r_mmod_Improper_Torsional_Energy-OPLS-2005>
2.95789170265198

> <r_mmod_Van_der_Waal_Energy-OPLS-2005>
148.724670410156

> <r_mmod_Electrostatic_Energy-OPLS-2005>
-397.388000488281

> <r_mmod_Solvation_Energy-OPLS-2005>
-218.243881225586

> <b_mmod_Minimization_Converged-OPLS-2005>
0

> <r_mmod_RMS_Derivative-OPLS-2005>
2.27807974815369

$$$$
11
                    3D
 Structure written by MMmdl.
158167  0  0  1  0            999 V2000
  -30.5526  -14.9553   20.4596 C   0  0  0  0  0  0
  -30.4431  -12.6001   19.5122 C   0  0  0  0  0  0
  -29.5275  -12.5409   18.2668 C   0  0  0  0  0  0
  -28.0602  -12.3181   18.6793 C   0  0  0  0  0  0
  -27.6298  -13.2498   19.8420 C   0  0  2  0  0  0
  -28.6685  -13.2785   20.9850 C   0  0  0  0  0  0
  -25.2403  -13.8166   20.5645 C   0  0  0  0  0  0
  -24.1765  -13.0407   20.9242 C   0  0  0  0  0  0
  -24.6403  -11.6894   20.8783 C   0  0  0  0  0  0
  -23.9098  -10.4272   21.0433 C   0  0  0  0  0  0
  -24.3640   -9.4180   21.9198 C   0  0  0  0  0  0
  -23.6305   -8.2221   22.0751 C   0  0  0  0  0  0
  -22.4283   -8.0281   21.3546 C   0  0  0  0  0  0
  -21.9939   -9.0258   20.4649 C   0  0  0  0  0  0
  -22.7278  -10.2129   20.3070 C   0  0  0  0  0  0
  -21.6849   -6.0744   22.5278 C   0  0  0  0  0  0
  -21.4011   -6.5644   23.8214 C   0  0  0  0  0  0
  -21.3651   -5.6796   24.9176 C   0  0  0  0  0  0
  -21.6041   -4.3060   24.7224 C   0  0  0  0  0  0
  -21.8817   -3.8157   23.4341 C   0  0  0  0  0  0
  -21.9188   -4.6972   22.3402 C   0  0  0  0  0  0
  -22.7779  -13.5169   21.1891 C   0  0  0  0  0  0
  -22.1662   -4.2164   21.0979 F   0  0  0  0  0  0
  -21.5624   -3.4539   25.7733 F   0  0  0  0  0  0
  -29.9498  -13.6965   20.3987 N   0  0  0  0  0  0
  -26.2875  -12.9439   20.3235 N   0  0  0  0  0  0
  -25.9333  -11.6566   20.5766 N   0  0  0  0  0  0
  -22.0446  -12.8169   22.0462 N   0  0  0  0  0  0
  -25.3916  -15.1872   20.3869 N   0  0  0  0  0  0
  -31.7452  -15.0200   20.1451 O   0  0  0  0  0  0
  -21.6630   -6.8891   21.4243 O   0  0  0  0  0  0
  -22.3464  -14.5464   20.6714 O   0  0  0  0  0  0
  -24.6487  -31.8438   23.1952 C   0  0  0  0  0  0
  -25.9257  -32.4687   23.8318 C   0  0  1  0  0  0
  -27.1890  -27.0914   20.1475 C   0  0  0  0  0  0
  -25.5984  -33.8494   24.2199 N   0  0  0  0  0  0
  -23.4498  -30.4751   21.5405 C   0  0  2  0  0  0
  -24.8941  -28.9136   20.1147 C   0  0  0  0  0  0
  -22.7570  -29.4585   22.4833 C   0  0  0  0  0  0
  -18.0331  -28.1418   22.8461 C   0  0  0  0  0  0
  -24.1500  -36.7258   23.2637 C   0  0  0  0  0  0
  -26.0132  -30.7007   21.4097 C   0  0  0  0  0  0
  -26.0744  -29.3105   20.7535 C   0  0  0  0  0  0
  -27.2165  -28.4127   20.7686 C   0  0  0  0  0  0
  -25.9996  -26.8658   19.4155 C   0  0  0  0  0  0
  -24.8717  -27.7003   19.4320 C   0  0  0  0  0  0
  -23.6770  -29.8193   20.1573 C   0  0  0  0  0  0
  -25.4123  -36.3019   24.0312 C   0  0  1  0  0  0
  -20.5943  -28.3755   23.1244 C   0  0  2  0  0  0
  -20.6790  -26.9466   22.5404 C   0  0  0  0  0  0
  -19.5794  -26.6483   21.5163 C   0  0  0  0  0  0
  -18.1967  -26.7991   22.1550 C   0  0  0  0  0  0
  -19.1591  -28.8897   23.2842 C   0  0  0  0  0  0
  -18.9496  -30.1482   23.8886 C   0  0  0  0  0  0
  -17.6493  -30.6598   24.0575 C   0  0  0  0  0  0
  -25.9071  -34.9395   23.5053 C   0  0  0  0  0  0
  -16.5395  -29.9092   23.6333 C   0  0  0  0  0  0
  -16.7318  -28.6519   23.0349 C   0  0  0  0  0  0
  -26.4554  -31.6557   25.0762 C   0  0  0  0  0  0
  -25.3737  -31.3771   26.1457 C   0  0  0  0  0  0
  -27.0418  -30.2940   24.6373 C   0  0  0  0  0  0
  -27.6062  -32.4336   25.7556 C   0  0  0  0  0  0
  -27.5567  -37.1785   24.8455 C   0  0  0  0  0  0
  -21.4253  -29.3120   22.3619 N   0  0  0  0  0  0
  -26.4276  -37.3738   23.9400 N   0  0  0  0  0  0
  -24.7241  -31.0278   22.1022 N   0  0  0  0  0  0
  -23.4211  -28.8048   23.2914 O   0  0  0  0  0  0
  -28.2280  -26.0632   20.1839 O   0  0  0  0  0  0
  -26.5643  -34.8891   22.4622 O   0  0  0  0  0  0
  -23.5596  -32.1328   23.7142 O   0  0  0  0  0  0
  -28.5537  -21.4805   20.8298 C   0  0  0  0  0  0
  -27.3154  -21.0705   21.4324 C   0  0  0  0  0  0
  -27.9229  -18.7976   21.5367 C   0  0  0  0  0  0
  -29.1484  -19.0011   20.8596 C   0  0  0  0  0  0
  -28.5799  -24.1313   21.6116 C   0  0  0  0  0  0
  -28.9311  -23.1039   20.5840 C   0  0  1  0  0  0
  -28.0008  -24.4820   20.2347 C   0  0  2  0  0  0
  -26.0981  -21.9339   21.7434 C   0  0  0  0  0  0
  -27.4709  -17.4537   22.0675 C   0  0  0  0  0  0
  -26.8056  -23.9683   19.4436 C   0  0  0  0  0  0
  -30.1290  -17.6942   20.5294 C   0  0  0  0  0  0
  -29.4414  -20.3780   20.5490 N   0  0  0  0  0  0
  -27.0468  -19.7920   21.7819 N   0  0  0  0  0  0
  -29.7950  -16.1416   20.6755 N   0  0  0  0  0  0
  -31.4763  -12.7594   19.2010 H   0  0  0  0  0  0
  -30.4404  -11.6474   20.0439 H   0  0  0  0  0  0
  -29.8537  -11.7498   17.5897 H   0  0  0  0  0  0
  -29.6106  -13.4762   17.7110 H   0  0  0  0  0  0
  -27.9586  -11.2754   18.9834 H   0  0  0  0  0  0
  -27.4010  -12.4518   17.8206 H   0  0  0  0  0  0
  -27.5933  -14.2532   19.4153 H   0  0  0  0  0  0
  -28.7555  -12.2980   21.4583 H   0  0  0  0  0  0
  -28.3586  -13.9728   21.7679 H   0  0  0  0  0  0
  -25.2795   -9.5631   22.4770 H   0  0  0  0  0  0
  -23.9999   -7.4600   22.7459 H   0  0  0  0  0  0
  -21.0874   -8.8802   19.8952 H   0  0  0  0  0  0
  -22.3766  -10.9672   19.6171 H   0  0  0  0  0  0
  -21.2021   -7.6155   23.9724 H   0  0  0  0  0  0
  -21.1466   -6.0526   25.9079 H   0  0  0  0  0  0
  -22.0608   -2.7618   23.2835 H   0  0  0  0  0  0
  -22.4093  -11.9851   22.4869 H   0  0  0  0  0  0
  -21.1054  -13.1150   22.2648 H   0  0  0  0  0  0
  -24.5990  -15.8156   20.4664 H   0  0  0  0  0  0
  -26.1906  -15.6163   19.9396 H   0  0  0  0  0  0
  -26.7313  -32.5291   23.1036 H   0  0  0  0  0  0
  -25.0142  -33.9608   25.0349 H   0  0  0  0  0  0
  -22.7552  -31.3046   21.3914 H   0  0  0  0  0  0
  -23.3753  -35.9598   23.3280 H   0  0  0  0  0  0
  -24.3592  -36.8913   22.2054 H   0  0  0  0  0  0
  -23.7268  -37.6453   23.6693 H   0  0  0  0  0  0
  -26.1769  -31.4495   20.6343 H   0  0  0  0  0  0
  -26.8820  -30.7517   22.0527 H   0  0  0  0  0  0
  -28.1036  -28.7042   21.3126 H   0  0  0  0  0  0
  -25.8708  -26.0329   18.7620 H   0  0  0  0  0  0
  -23.9896  -27.4118   18.8763 H   0  0  0  0  0  0
  -23.8146  -30.5966   19.4046 H   0  0  0  0  0  0
  -22.7917  -29.2636   19.8449 H   0  0  0  0  0  0
  -25.1315  -36.1842   25.0806 H   0  0  0  0  0  0
  -21.0036  -28.3335   24.1363 H   0  0  0  0  0  0
  -20.5648  -26.2350   23.3603 H   0  0  0  0  0  0
  -21.6665  -26.7458   22.1248 H   0  0  0  0  0  0
  -19.6968  -25.6437   21.1092 H   0  0  0  0  0  0
  -19.6739  -27.3374   20.6751 H   0  0  0  0  0  0
  -17.4260  -26.6803   21.3919 H   0  0  0  0  0  0
  -18.0345  -26.0096   22.8909 H   0  0  0  0  0  0
  -19.7972  -30.7296   24.2265 H   0  0  0  0  0  0
  -17.5030  -31.6270   24.5215 H   0  0  0  0  0  0
  -15.5390  -30.2967   23.7669 H   0  0  0  0  0  0
  -15.8724  -28.0826   22.7066 H   0  0  0  0  0  0
  -24.5925  -30.7093   25.7805 H   0  0  0  0  0  0
  -24.8928  -32.2972   26.4794 H   0  0  0  0  0  0
  -25.8039  -30.9022   27.0288 H   0  0  0  0  0  0
  -26.3051  -29.6659   24.1351 H   0  0  0  0  0  0
  -27.3972  -29.7243   25.4967 H   0  0  0  0  0  0
  -27.8994  -30.4144   23.9752 H   0  0  0  0  0  0
  -27.2624  -33.3654   26.2062 H   0  0  0  0  0  0
  -28.3928  -32.6865   25.0435 H   0  0  0  0  0  0
  -28.0671  -31.8514   26.5545 H   0  0  0  0  0  0
  -28.2561  -38.0100   24.7499 H   0  0  0  0  0  0
  -28.1089  -36.2625   24.6292 H   0  0  0  0  0  0
  -27.2284  -37.1442   25.8858 H   0  0  0  0  0  0
  -20.9415  -29.8998   21.6971 H   0  0  0  0  0  0
  -26.0138  -38.2801   24.1417 H   0  0  0  0  0  0
  -29.4117  -24.7458   21.9489 H   0  0  0  0  0  0
  -27.9237  -23.8746   22.4335 H   0  0  0  0  0  0
  -29.9363  -23.1378   20.1696 H   0  0  0  0  0  0
  -25.6775  -21.6522   22.7093 H   0  0  0  0  0  0
  -26.2308  -23.0033   21.7806 H   0  0  0  0  0  0
  -25.3319  -21.7465   20.9914 H   0  0  0  0  0  0
  -27.2517  -16.7882   21.2390 H   0  0  0  0  0  0
  -26.5657  -17.5408   22.6701 H   0  0  0  0  0  0
  -28.2371  -17.0046   22.6975 H   0  0  0  0  0  0
  -26.8052  -22.8843   19.3526 H   0  0  0  0  0  0
  -26.8774  -24.3107   18.4132 H   0  0  0  0  0  0
  -25.8598  -24.2598   19.8992 H   0  0  0  0  0  0
  -31.0445  -17.8628   21.0989 H   0  0  0  0  0  0
  -30.4305  -17.8227   19.4903 H   0  0  0  0  0  0
  -28.8329  -15.9543   20.9112 H   0  0  0  0  0  0
  1 25  1  0  0  0
  1 30  2  0  0  0
  1 84  1  0  0  0
  2  3  1  0  0  0
  2 25  1  0  0  0
  2 85  1  0  0  0
  2 86  1  0  0  0
  3  4  1  0  0  0
  3 87  1  0  0  0
  3 88  1  0  0  0
  4  5  1  0  0  0
  4 89  1  0  0  0
  4 90  1  0  0  0
  5  6  1  0  0  0
  5 26  1  0  0  0
  5 91  1  0  0  0
  6 25  1  0  0  0
  6 92  1  0  0  0
  6 93  1  0  0  0
  7  8  2  0  0  0
  7 26  1  0  0  0
  7 29  1  0  0  0
  8  9  1  0  0  0
  8 22  1  0  0  0
  9 10  1  0  0  0
  9 27  2  0  0  0
 10 11  2  0  0  0
 10 15  1  0  0  0
 11 12  1  0  0  0
 11 94  1  0  0  0
 12 13  2  0  0  0
 12 95  1  0  0  0
 13 14  1  0  0  0
 13 31  1  0  0  0
 14 15  2  0  0  0
 14 96  1  0  0  0
 15 97  1  0  0  0
 16 17  2  0  0  0
 16 21  1  0  0  0
 16 31  1  0  0  0
 17 18  1  0  0  0
 17 98  1  0  0  0
 18 19  2  0  0  0
 18 99  1  0  0  0
 19 20  1  0  0  0
 19 24  1  0  0  0
 20 21  2  0  0  0
 20100  1  0  0  0
 21 23  1  0  0  0
 22 28  1  0  0  0
 22 32  2  0  0  0
 26 27  1  0  0  0
 28101  1  0  0  0
 28102  1  0  0  0
 29103  1  0  0  0
 29104  1  0  0  0
 33 34  1  0  0  0
 33 66  1  0  0  0
 33 70  2  0  0  0
 34 36  1  0  0  0
 34 59  1  0  0  0
 34105  1  0  0  0
 35 44  2  0  0  0
 35 45  1  0  0  0
 35 68  1  0  0  0
 36 56  1  0  0  0
 36106  1  0  0  0
 37 39  1  0  0  0
 37 47  1  0  0  0
 37 66  1  0  0  0
 37107  1  0  0  0
 38 43  2  0  0  0
 38 46  1  0  0  0
 38 47  1  0  0  0
 39 64  1  0  0  0
 39 67  2  0  0  0
 40 52  1  0  0  0
 40 53  2  0  0  0
 40 58  1  0  0  0
 41108  1  0  0  0
 41109  1  0  0  0
 41110  1  0  0  0
 41 48  1  0  0  0
 42 43  1  0  0  0
 42 66  1  0  0  0
 42111  1  0  0  0
 42112  1  0  0  0
 43 44  1  0  0  0
 44113  1  0  0  0
 45 46  2  0  0  0
 45114  1  0  0  0
 46115  1  0  0  0
 47116  1  0  0  0
 47117  1  0  0  0
 48 56  1  0  0  0
 48 65  1  0  0  0
 48118  1  0  0  0
 49 50  1  0  0  0
 49 53  1  0  0  0
 49 64  1  0  0  0
 49119  1  0  0  0
 50 51  1  0  0  0
 50120  1  0  0  0
 50121  1  0  0  0
 51 52  1  0  0  0
 51122  1  0  0  0
 51123  1  0  0  0
 52124  1  0  0  0
 52125  1  0  0  0
 53 54  1  0  0  0
 54 55  2  0  0  0
 54126  1  0  0  0
 55 57  1  0  0  0
 55127  1  0  0  0
 56 69  2  0  0  0
 57 58  2  0  0  0
 57128  1  0  0  0
 58129  1  0  0  0
 59 60  1  0  0  0
 59 61  1  0  0  0
 59 62  1  0  0  0
 60130  1  0  0  0
 60131  1  0  0  0
 60132  1  0  0  0
 61133  1  0  0  0
 61134  1  0  0  0
 61135  1  0  0  0
 62136  1  0  0  0
 62137  1  0  0  0
 62138  1  0  0  0
 63 65  1  0  0  0
 63139  1  0  0  0
 63140  1  0  0  0
 63141  1  0  0  0
 64142  1  0  0  0
 65143  1  0  0  0
 68 77  1  0  0  0
 71 72  2  0  0  0
 71 82  1  0  0  0
 71 76  1  0  0  0
 72 78  1  0  0  0
 72 83  1  0  0  0
 73 74  1  0  0  0
 73 79  1  0  0  0
 73 83  2  0  0  0
 74 81  1  0  0  0
 74 82  2  0  0  0
 75 76  1  0  0  0
 75 77  1  0  0  0
 75144  1  0  0  0
 75145  1  0  0  0
 76 77  1  0  0  0
 76146  1  0  0  0
 77 80  1  0  0  0
 78147  1  0  0  0
 78148  1  0  0  0
 78149  1  0  0  0
 79150  1  0  0  0
 79151  1  0  0  0
 79152  1  0  0  0
 80153  1  0  0  0
 80154  1  0  0  0
 80155  1  0  0  0
 81 84  1  0  0  0
 81156  1  0  0  0
 81157  1  0  0  0
 84158  1  0  0  0
M  ISO  4   1 100  68 101  77 101  84 100
M  END
> <chiral flag>
0

> <version>
0

> <s_m_source_file>
/data/baiqing/PycharmProjects/Reinvent-master-3.2/result/LINK_invent/BTK/process_docking_weight1_custom_sum_contain_oxygen_bond_distance_aromatic_linkinvent_7_9_3/rearranged_h_0177.sdf

> <i_m_source_file_index>
12

> <r_mmod_Potential_Energy-OPLS-2005>
669.591552734375

> <r_mmod_Stretch_Energy-OPLS-2005>
330.19482421875

> <r_mmod_Bend_Energy-OPLS-2005>
341.075378417969

> <r_mmod_Torsional_Energy-OPLS-2005>
236.20133972168

> <r_mmod_Improper_Torsional_Energy-OPLS-2005>
4.95768070220947

> <r_mmod_Van_der_Waal_Energy-OPLS-2005>
161.623962402344

> <r_mmod_Electrostatic_Energy-OPLS-2005>
-390.165191650391

> <r_mmod_Solvation_Energy-OPLS-2005>
-227.783218383789

> <b_mmod_Minimization_Converged-OPLS-2005>
0

> <r_mmod_RMS_Derivative-OPLS-2005>
2.75401210784912

$$$$
12
                    3D
 Structure written by MMmdl.
163172  0  0  1  0            999 V2000
  -30.5830  -14.8730   20.4001 C   0  0  0  0  0  0
  -30.4245  -12.5408   19.4794 C   0  0  0  0  0  0
  -29.5029  -12.4903   18.2431 C   0  0  0  0  0  0
  -28.0389  -12.2983   18.6755 C   0  0  0  0  0  0
  -27.6269  -13.2366   19.8419 C   0  0  2  0  0  0
  -28.6758  -13.2430   20.9712 C   0  0  0  0  0  0
  -25.2497  -13.8163   20.5799 C   0  0  0  0  0  0
  -24.1814  -13.0407   20.9297 C   0  0  0  0  0  0
  -24.6423  -11.6887   20.8869 C   0  0  0  0  0  0
  -23.9119  -10.4258   21.0508 C   0  0  0  0  0  0
  -24.3645   -9.4136   21.9259 C   0  0  0  0  0  0
  -23.6286   -8.2185   22.0771 C   0  0  0  0  0  0
  -22.4275   -8.0272   21.3558 C   0  0  0  0  0  0
  -21.9966   -9.0275   20.4665 C   0  0  0  0  0  0
  -22.7308  -10.2132   20.3130 C   0  0  0  0  0  0
  -21.6838   -6.0752   22.5286 C   0  0  0  0  0  0
  -21.3999   -6.5658   23.8230 C   0  0  0  0  0  0
  -21.3668   -5.6818   24.9194 C   0  0  0  0  0  0
  -21.6032   -4.3079   24.7253 C   0  0  0  0  0  0
  -21.8814   -3.8173   23.4385 C   0  0  0  0  0  0
  -21.9171   -4.6977   22.3423 C   0  0  0  0  0  0
  -22.7836  -13.5178   21.1905 C   0  0  0  0  0  0
  -22.1635   -4.2158   21.1013 F   0  0  0  0  0  0
  -21.5641   -3.4570   25.7783 F   0  0  0  0  0  0
  -29.9377  -13.6458   20.3458 N   0  0  0  0  0  0
  -26.2901  -12.9379   20.3346 N   0  0  0  0  0  0
  -25.9355  -11.6527   20.5885 N   0  0  0  0  0  0
  -22.0482  -12.8187   22.0456 N   0  0  0  0  0  0
  -25.4215  -15.1880   20.4225 N   0  0  0  0  0  0
  -31.7984  -14.8609   20.1762 O   0  0  0  0  0  0
  -21.6607   -6.8899   21.4257 O   0  0  0  0  0  0
  -22.3528  -14.5482   20.6721 O   0  0  0  0  0  0
  -24.6369  -31.8505   23.1910 C   0  0  0  0  0  0
  -25.9180  -32.4725   23.8278 C   0  0  1  0  0  0
  -27.2036  -27.1899   20.1273 C   0  0  0  0  0  0
  -25.5937  -33.8531   24.2185 N   0  0  0  0  0  0
  -23.4332  -30.4729   21.5393 C   0  0  2  0  0  0
  -24.8768  -28.9095   20.1037 C   0  0  0  0  0  0
  -22.7496  -29.4598   22.4894 C   0  0  0  0  0  0
  -18.0309  -28.1391   22.8538 C   0  0  0  0  0  0
  -24.1466  -36.7240   23.2636 C   0  0  0  0  0  0
  -25.9852  -30.7393   21.3816 C   0  0  0  0  0  0
  -26.0523  -29.3577   20.7187 C   0  0  0  0  0  0
  -27.2148  -28.5111   20.7178 C   0  0  0  0  0  0
  -26.0011  -26.8232   19.4877 C   0  0  0  0  0  0
  -24.8623  -27.6532   19.4766 C   0  0  0  0  0  0
  -23.6508  -29.8051   20.1556 C   0  0  0  0  0  0
  -25.4101  -36.3027   24.0307 C   0  0  1  0  0  0
  -20.5901  -28.3747   23.1288 C   0  0  2  0  0  0
  -20.6773  -26.9461   22.5437 C   0  0  0  0  0  0
  -19.5734  -26.6400   21.5250 C   0  0  0  0  0  0
  -18.1913  -26.7947   22.1655 C   0  0  0  0  0  0
  -19.1559  -28.8885   23.2906 C   0  0  0  0  0  0
  -18.9461  -30.1477   23.8933 C   0  0  0  0  0  0
  -17.6462  -30.6609   24.0579 C   0  0  0  0  0  0
  -25.9081  -34.9429   23.5055 C   0  0  0  0  0  0
  -16.5361  -29.9098   23.6348 C   0  0  0  0  0  0
  -16.7299  -28.6493   23.0416 C   0  0  0  0  0  0
  -26.4519  -31.6597   25.0726 C   0  0  0  0  0  0
  -25.3698  -31.3771   26.1410 C   0  0  0  0  0  0
  -27.0405  -30.3011   24.6272 C   0  0  0  0  0  0
  -27.6036  -32.4383   25.7522 C   0  0  0  0  0  0
  -27.5585  -37.1725   24.8425 C   0  0  0  0  0  0
  -21.4204  -29.3064   22.3639 N   0  0  0  0  0  0
  -26.4230  -37.3772   23.9483 N   0  0  0  0  0  0
  -24.7054  -31.0394   22.0927 N   0  0  0  0  0  0
  -23.4170  -28.8163   23.3038 O   0  0  0  0  0  0
  -28.2830  -26.2619   20.2212 O   0  0  0  0  0  0
  -26.5675  -34.8942   22.4636 O   0  0  0  0  0  0
  -23.5515  -32.1392   23.7156 O   0  0  0  0  0  0
  -29.7077  -18.5890   19.1479 C   0  0  0  0  0  0
  -28.3327  -18.1717   21.0063 C   0  0  0  0  0  0
  -27.0510  -22.7113   20.7735 C   0  0  0  0  0  0
  -30.4956  -17.2168   19.4249 C   0  0  0  0  0  0
  -29.0574  -16.7718   21.3121 C   0  0  0  0  0  0
  -29.1480  -22.0665   19.8277 C   0  0  0  0  0  0
  -28.3935  -23.3832   20.4336 C   0  0  1  0  0  0
  -29.1524  -19.3779   20.3883 C   0  0  0  0  0  0
  -27.3216  -21.1891   21.0422 C   0  0  1  0  0  0
  -26.0069  -20.3879   20.9071 C   0  0  0  0  0  0
  -28.3186  -24.8410   19.6329 C   0  0  0  0  0  0
  -29.8805  -16.1062   20.2489 N   0  0  0  0  0  0
  -28.3952  -20.7428   20.0966 N   0  3  1  0  0  0
  -31.4567  -12.6848   19.1593 H   0  0  0  0  0  0
  -30.4153  -11.5977   20.0261 H   0  0  0  0  0  0
  -29.8046  -11.6810   17.5766 H   0  0  0  0  0  0
  -29.6015  -13.4116   17.6665 H   0  0  0  0  0  0
  -27.9300  -11.2592   18.9840 H   0  0  0  0  0  0
  -27.3727  -12.4271   17.8217 H   0  0  0  0  0  0
  -27.5954  -14.2413   19.4201 H   0  0  0  0  0  0
  -28.7659  -12.2590   21.4319 H   0  0  0  0  0  0
  -28.3962  -13.9257   21.7724 H   0  0  0  0  0  0
  -25.2790   -9.5527   22.4856 H   0  0  0  0  0  0
  -23.9956   -7.4563   22.7487 H   0  0  0  0  0  0
  -21.0909   -8.8834   19.8973 H   0  0  0  0  0  0
  -22.3817  -10.9708   19.6256 H   0  0  0  0  0  0
  -21.1974   -7.6165   23.9721 H   0  0  0  0  0  0
  -21.1504   -6.0573   25.9094 H   0  0  0  0  0  0
  -22.0581   -2.7634   23.2910 H   0  0  0  0  0  0
  -22.4071  -11.9842   22.4878 H   0  0  0  0  0  0
  -21.1081  -13.1206   22.2630 H   0  0  0  0  0  0
  -24.6630  -15.8485   20.5483 H   0  0  0  0  0  0
  -26.2753  -15.6218   20.0989 H   0  0  0  0  0  0
  -26.7243  -32.5320   23.1008 H   0  0  0  0  0  0
  -25.0072  -33.9683   25.0315 H   0  0  0  0  0  0
  -22.7311  -31.2960   21.3887 H   0  0  0  0  0  0
  -23.3804  -35.9485   23.3145 H   0  0  0  0  0  0
  -24.3588  -36.9033   22.2090 H   0  0  0  0  0  0
  -23.7133  -37.6335   23.6801 H   0  0  0  0  0  0
  -26.1359  -31.4988   20.6130 H   0  0  0  0  0  0
  -26.8560  -30.7809   22.0237 H   0  0  0  0  0  0
  -28.1088  -28.8524   21.2201 H   0  0  0  0  0  0
  -25.8853  -25.8585   19.0190 H   0  0  0  0  0  0
  -23.9640  -27.3002   18.9900 H   0  0  0  0  0  0
  -23.7703  -30.5811   19.3975 H   0  0  0  0  0  0
  -22.7662  -29.2392   19.8581 H   0  0  0  0  0  0
  -25.1261  -36.1819   25.0782 H   0  0  0  0  0  0
  -21.0029  -28.3354   24.1395 H   0  0  0  0  0  0
  -20.5712  -26.2357   23.3664 H   0  0  0  0  0  0
  -21.6629  -26.7449   22.1220 H   0  0  0  0  0  0
  -19.6896  -25.6310   21.1286 H   0  0  0  0  0  0
  -19.6665  -27.3210   20.6779 H   0  0  0  0  0  0
  -17.4192  -26.6807   21.4025 H   0  0  0  0  0  0
  -18.0239  -26.0065   22.9014 H   0  0  0  0  0  0
  -19.7925  -30.7294   24.2333 H   0  0  0  0  0  0
  -17.5004  -31.6301   24.5151 H   0  0  0  0  0  0
  -15.5353  -30.2999   23.7648 H   0  0  0  0  0  0
  -15.8698  -28.0796   22.7149 H   0  0  0  0  0  0
  -24.5893  -30.7102   25.7727 H   0  0  0  0  0  0
  -24.8879  -32.2948   26.4792 H   0  0  0  0  0  0
  -25.7976  -30.8984   27.0219 H   0  0  0  0  0  0
  -26.3030  -29.6739   24.1255 H   0  0  0  0  0  0
  -27.4027  -29.7310   25.4833 H   0  0  0  0  0  0
  -27.8906  -30.4294   23.9574 H   0  0  0  0  0  0
  -27.2624  -33.3727   26.1999 H   0  0  0  0  0  0
  -28.3901  -32.6875   25.0385 H   0  0  0  0  0  0
  -28.0642  -31.8580   26.5526 H   0  0  0  0  0  0
  -28.2410  -38.0206   24.7732 H   0  0  0  0  0  0
  -28.1259  -36.2758   24.5878 H   0  0  0  0  0  0
  -27.2358  -37.0899   25.8818 H   0  0  0  0  0  0
  -20.9414  -29.8764   21.6806 H   0  0  0  0  0  0
  -26.0064  -38.2777   24.1670 H   0  0  0  0  0  0
  -28.8773  -18.3537   18.4774 H   0  0  0  0  0  0
  -30.3537  -19.2536   18.5702 H   0  0  0  0  0  0
  -27.8887  -18.4919   21.9462 H   0  0  0  0  0  0
  -27.4974  -17.9521   20.3379 H   0  0  0  0  0  0
  -26.3723  -22.8209   19.9273 H   0  0  0  0  0  0
  -26.5640  -23.1949   21.6224 H   0  0  0  0  0  0
  -31.4486  -17.4817   19.8873 H   0  0  0  0  0  0
  -30.7584  -16.7878   18.4569 H   0  0  0  0  0  0
  -28.2781  -16.0827   21.6348 H   0  0  0  0  0  0
  -29.7060  -16.9111   22.1788 H   0  0  0  0  0  0
  -30.1494  -22.0068   20.2569 H   0  0  0  0  0  0
  -29.2896  -22.1705   18.7514 H   0  0  0  0  0  0
  -28.8909  -23.5946   21.3824 H   0  0  0  0  0  0
  -29.9748  -19.6153   21.0638 H   0  0  0  0  0  0
  -27.7048  -21.0952   22.0590 H   0  0  0  0  0  0
  -25.7683  -20.1712   19.8647 H   0  0  0  0  0  0
  -25.1710  -20.9500   21.3241 H   0  0  0  0  0  0
  -26.0214  -19.4479   21.4541 H   0  0  0  0  0  0
  -27.6107  -24.7428   18.8129 H   0  0  0  0  0  0
  -29.2672  -24.8706   19.0979 H   0  0  0  0  0  0
  -27.8958  -20.5754   19.2351 H   0  0  0  0  0  0
  1 25  1  0  0  0
  1 30  2  0  0  0
  1 82  1  0  0  0
  2  3  1  0  0  0
  2 25  1  0  0  0
  2 84  1  0  0  0
  2 85  1  0  0  0
  3  4  1  0  0  0
  3 86  1  0  0  0
  3 87  1  0  0  0
  4  5  1  0  0  0
  4 88  1  0  0  0
  4 89  1  0  0  0
  5  6  1  0  0  0
  5 26  1  0  0  0
  5 90  1  0  0  0
  6 25  1  0  0  0
  6 91  1  0  0  0
  6 92  1  0  0  0
  7  8  2  0  0  0
  7 26  1  0  0  0
  7 29  1  0  0  0
  8  9  1  0  0  0
  8 22  1  0  0  0
  9 10  1  0  0  0
  9 27  2  0  0  0
 10 11  2  0  0  0
 10 15  1  0  0  0
 11 12  1  0  0  0
 11 93  1  0  0  0
 12 13  2  0  0  0
 12 94  1  0  0  0
 13 14  1  0  0  0
 13 31  1  0  0  0
 14 15  2  0  0  0
 14 95  1  0  0  0
 15 96  1  0  0  0
 16 17  2  0  0  0
 16 21  1  0  0  0
 16 31  1  0  0  0
 17 18  1  0  0  0
 17 97  1  0  0  0
 18 19  2  0  0  0
 18 98  1  0  0  0
 19 20  1  0  0  0
 19 24  1  0  0  0
 20 21  2  0  0  0
 20 99  1  0  0  0
 21 23  1  0  0  0
 22 28  1  0  0  0
 22 32  2  0  0  0
 26 27  1  0  0  0
 28100  1  0  0  0
 28101  1  0  0  0
 29102  1  0  0  0
 29103  1  0  0  0
 33 34  1  0  0  0
 33 66  1  0  0  0
 33 70  2  0  0  0
 34 36  1  0  0  0
 34 59  1  0  0  0
 34104  1  0  0  0
 35 44  2  0  0  0
 35 45  1  0  0  0
 35 68  1  0  0  0
 36 56  1  0  0  0
 36105  1  0  0  0
 37 39  1  0  0  0
 37 47  1  0  0  0
 37 66  1  0  0  0
 37106  1  0  0  0
 38 43  2  0  0  0
 38 46  1  0  0  0
 38 47  1  0  0  0
 39 64  1  0  0  0
 39 67  2  0  0  0
 40 52  1  0  0  0
 40 53  2  0  0  0
 40 58  1  0  0  0
 41107  1  0  0  0
 41108  1  0  0  0
 41109  1  0  0  0
 41 48  1  0  0  0
 42 43  1  0  0  0
 42 66  1  0  0  0
 42110  1  0  0  0
 42111  1  0  0  0
 43 44  1  0  0  0
 44112  1  0  0  0
 45 46  2  0  0  0
 45113  1  0  0  0
 46114  1  0  0  0
 47115  1  0  0  0
 47116  1  0  0  0
 48 56  1  0  0  0
 48 65  1  0  0  0
 48117  1  0  0  0
 49 50  1  0  0  0
 49 53  1  0  0  0
 49 64  1  0  0  0
 49118  1  0  0  0
 50 51  1  0  0  0
 50119  1  0  0  0
 50120  1  0  0  0
 51 52  1  0  0  0
 51121  1  0  0  0
 51122  1  0  0  0
 52123  1  0  0  0
 52124  1  0  0  0
 53 54  1  0  0  0
 54 55  2  0  0  0
 54125  1  0  0  0
 55 57  1  0  0  0
 55126  1  0  0  0
 56 69  2  0  0  0
 57 58  2  0  0  0
 57127  1  0  0  0
 58128  1  0  0  0
 59 60  1  0  0  0
 59 61  1  0  0  0
 59 62  1  0  0  0
 60129  1  0  0  0
 60130  1  0  0  0
 60131  1  0  0  0
 61132  1  0  0  0
 61133  1  0  0  0
 61134  1  0  0  0
 62135  1  0  0  0
 62136  1  0  0  0
 62137  1  0  0  0
 63 65  1  0  0  0
 63138  1  0  0  0
 63139  1  0  0  0
 63140  1  0  0  0
 64141  1  0  0  0
 65142  1  0  0  0
 68 81  1  0  0  0
 71 74  1  0  0  0
 71143  1  0  0  0
 71144  1  0  0  0
 71 78  1  0  0  0
 72 75  1  0  0  0
 72 78  1  0  0  0
 72145  1  0  0  0
 72146  1  0  0  0
 73 77  1  0  0  0
 73 79  1  0  0  0
 73147  1  0  0  0
 73148  1  0  0  0
 74 82  1  0  0  0
 74149  1  0  0  0
 74150  1  0  0  0
 75 82  1  0  0  0
 75151  1  0  0  0
 75152  1  0  0  0
 76 77  1  0  0  0
 76153  1  0  0  0
 76154  1  0  0  0
 76 83  1  0  0  0
 77 81  1  0  0  0
 77155  1  0  0  0
 78 83  1  0  0  0
 78156  1  0  0  0
 79 80  1  0  0  0
 79 83  1  0  0  0
 79157  1  0  0  0
 80158  1  0  0  0
 80159  1  0  0  0
 80160  1  0  0  0
 81161  1  0  0  0
 81162  1  0  0  0
 83163  1  0  0  0
M  CHG  1  83   1
M  ISO  4   1 100  68 101  81 101  82 100
M  END
> <chiral flag>
0

> <version>
0

> <s_m_source_file>
/data/baiqing/PycharmProjects/Reinvent-master-3.2/result/LINK_invent/BTK/process_docking_weight1_custom_sum_contain_oxygen_bond_distance_aromatic_linkinvent_7_9_3/rearranged_h_0177.sdf

> <i_m_source_file_index>
13

> <r_mmod_Potential_Energy-OPLS-2005>
574.892822265625

> <r_mmod_Stretch_Energy-OPLS-2005>
184.40705871582

> <r_mmod_Bend_Energy-OPLS-2005>
295.344940185547

> <r_mmod_Torsional_Energy-OPLS-2005>
382.957641601562

> <r_mmod_Improper_Torsional_Energy-OPLS-2005>
16.6219596862793

> <r_mmod_Van_der_Waal_Energy-OPLS-2005>
120.686225891113

> <r_mmod_Electrostatic_Energy-OPLS-2005>
-137.167572021484

> <r_mmod_Solvation_Energy-OPLS-2005>
-433.268798828125

> <b_mmod_Minimization_Converged-OPLS-2005>
0

> <r_mmod_RMS_Derivative-OPLS-2005>
4.39162683486938

$$$$
13
                    3D
 Structure written by MMmdl.
159168  0  0  1  0            999 V2000
  -30.4050  -15.3988   20.3527 C   0  0  0  0  0  0
  -30.4382  -12.9128   19.5066 C   0  0  0  0  0  0
  -29.5315  -12.5874   18.2915 C   0  0  0  0  0  0
  -28.1002  -12.2705   18.7496 C   0  0  0  0  0  0
  -27.6053  -13.2796   19.8115 C   0  0  2  0  0  0
  -28.6399  -13.5333   20.9304 C   0  0  0  0  0  0
  -25.2362  -13.8249   20.5758 C   0  0  0  0  0  0
  -24.1721  -13.0427   20.9270 C   0  0  0  0  0  0
  -24.6395  -11.6938   20.8801 C   0  0  0  0  0  0
  -23.9097  -10.4285   21.0438 C   0  0  0  0  0  0
  -24.3637   -9.4191   21.9210 C   0  0  0  0  0  0
  -23.6288   -8.2244   22.0772 C   0  0  0  0  0  0
  -22.4290   -8.0283   21.3538 C   0  0  0  0  0  0
  -21.9931   -9.0273   20.4657 C   0  0  0  0  0  0
  -22.7282  -10.2134   20.3062 C   0  0  0  0  0  0
  -21.6858   -6.0727   22.5263 C   0  0  0  0  0  0
  -21.4006   -6.5634   23.8191 C   0  0  0  0  0  0
  -21.3662   -5.6797   24.9158 C   0  0  0  0  0  0
  -21.6037   -4.3054   24.7217 C   0  0  0  0  0  0
  -21.8832   -3.8143   23.4340 C   0  0  0  0  0  0
  -21.9186   -4.6952   22.3382 C   0  0  0  0  0  0
  -22.7735  -13.5169   21.1905 C   0  0  0  0  0  0
  -22.1661   -4.2144   21.0962 F   0  0  0  0  0  0
  -21.5639   -3.4529   25.7730 F   0  0  0  0  0  0
  -29.8457  -14.0751   20.2768 N   0  0  0  0  0  0
  -26.2807  -12.9534   20.3249 N   0  0  0  0  0  0
  -25.9326  -11.6646   20.5777 N   0  0  0  0  0  0
  -22.0392  -12.8158   22.0449 N   0  0  0  0  0  0
  -25.3977  -15.1977   20.4144 N   0  0  0  0  0  0
  -31.6427  -15.3550   20.2266 O   0  0  0  0  0  0
  -21.6645   -6.8889   21.4231 O   0  0  0  0  0  0
  -22.3438  -14.5483   20.6765 O   0  0  0  0  0  0
  -24.6698  -31.8147   23.1584 C   0  0  0  0  0  0
  -25.9334  -32.4530   23.8085 C   0  0  1  0  0  0
  -27.2275  -26.8498   20.2100 C   0  0  0  0  0  0
  -25.6010  -33.8343   24.2023 N   0  0  0  0  0  0
  -23.4857  -30.4214   21.5095 C   0  0  2  0  0  0
  -24.9356  -28.7805   20.1268 C   0  0  0  0  0  0
  -22.7678  -29.4410   22.4734 C   0  0  0  0  0  0
  -18.0317  -28.1419   22.8520 C   0  0  0  0  0  0
  -24.1432  -36.7142   23.2652 C   0  0  0  0  0  0
  -26.0571  -30.6002   21.3902 C   0  0  0  0  0  0
  -26.1224  -29.1729   20.7570 C   0  0  0  0  0  0
  -27.2589  -28.2352   20.7642 C   0  0  0  0  0  0
  -26.0014  -26.6161   19.5460 C   0  0  0  0  0  0
  -24.9016  -27.5194   19.5055 C   0  0  0  0  0  0
  -23.7313  -29.7242   20.1407 C   0  0  0  0  0  0
  -25.4076  -36.2893   24.0297 C   0  0  1  0  0  0
  -20.5971  -28.3734   23.1203 C   0  0  2  0  0  0
  -20.6799  -26.9422   22.5375 C   0  0  0  0  0  0
  -19.5736  -26.6404   21.5212 C   0  0  0  0  0  0
  -18.1925  -26.7989   22.1633 C   0  0  0  0  0  0
  -19.1608  -28.8891   23.2863 C   0  0  0  0  0  0
  -18.9538  -30.1514   23.8858 C   0  0  0  0  0  0
  -17.6544  -30.6644   24.0587 C   0  0  0  0  0  0
  -25.9095  -34.9315   23.4975 C   0  0  0  0  0  0
  -16.5411  -29.9147   23.6388 C   0  0  0  0  0  0
  -16.7313  -28.6554   23.0410 C   0  0  0  0  0  0
  -26.4603  -31.6493   25.0607 C   0  0  0  0  0  0
  -25.3757  -31.3773   26.1293 C   0  0  0  0  0  0
  -27.0521  -30.2893   24.6268 C   0  0  0  0  0  0
  -27.6071  -32.4318   25.7436 C   0  0  0  0  0  0
  -27.5511  -37.1718   24.8492 C   0  0  0  0  0  0
  -21.4339  -29.3050   22.3547 N   0  0  0  0  0  0
  -26.4176  -37.3679   23.9473 N   0  0  0  0  0  0
  -24.7601  -30.9778   22.0713 N   0  0  0  0  0  0
  -23.4222  -28.7970   23.2983 O   0  0  0  0  0  0
  -28.2860  -25.7739   20.1483 O   0  0  0  0  0  0
  -26.5675  -34.8907   22.4542 O   0  0  0  0  0  0
  -23.5779  -32.1109   23.6692 O   0  0  0  0  0  0
  -28.9056  -19.5236   20.0331 C   0  0  0  0  0  0
  -29.0683  -21.0386   20.3340 C   0  0  0  0  0  0
  -30.1826  -21.2546   21.1669 C   0  0  0  0  0  0
  -31.0187  -20.1374   21.5311 C   0  0  0  0  0  0
  -29.7830  -18.3257   20.4757 C   0  0  0  0  0  0
  -30.4153  -22.6861   21.7430 C   0  0  0  0  0  0
  -29.9261  -23.9850   20.9816 C   0  0  0  0  0  0
  -28.4307  -24.1340   20.5581 C   0  0  2  0  0  0
  -28.2397  -22.4942   19.8432 C   0  0  0  0  0  0
  -32.2666  -20.3583   22.3789 C   0  0  0  0  0  0
  -28.6068  -22.6561   18.3528 C   0  0  0  0  0  0
  -26.7384  -22.1817   19.9145 C   0  0  0  0  0  0
  -30.8286  -18.8093   21.1995 N   0  0  0  0  0  0
  -29.6256  -16.6924   20.2894 N   0  0  0  0  0  0
  -31.4360  -13.1580   19.1431 H   0  0  0  0  0  0
  -30.5683  -12.0421   20.1485 H   0  0  0  0  0  0
  -29.9405  -11.7547   17.7191 H   0  0  0  0  0  0
  -29.5144  -13.4441   17.6170 H   0  0  0  0  0  0
  -28.1123  -11.2714   19.1865 H   0  0  0  0  0  0
  -27.4182  -12.2299   17.8991 H   0  0  0  0  0  0
  -27.4947  -14.2191   19.2683 H   0  0  0  0  0  0
  -28.8482  -12.6307   21.5068 H   0  0  0  0  0  0
  -28.2517  -14.2736   21.6325 H   0  0  0  0  0  0
  -25.2774   -9.5668   22.4803 H   0  0  0  0  0  0
  -23.9976   -7.4636   22.7499 H   0  0  0  0  0  0
  -21.0867   -8.8816   19.8951 H   0  0  0  0  0  0
  -22.3761  -10.9689   19.6171 H   0  0  0  0  0  0
  -21.1995   -7.6151   23.9692 H   0  0  0  0  0  0
  -21.1472   -6.0529   25.9072 H   0  0  0  0  0  0
  -22.0602   -2.7604   23.2837 H   0  0  0  0  0  0
  -22.3996  -11.9782   22.4785 H   0  0  0  0  0  0
  -21.1003  -13.1206   22.2670 H   0  0  0  0  0  0
  -24.6209  -15.8449   20.5016 H   0  0  0  0  0  0
  -26.2391  -15.6385   20.0687 H   0  0  0  0  0  0
  -26.7391  -32.5062   23.0814 H   0  0  0  0  0  0
  -25.0229  -33.9381   25.0230 H   0  0  0  0  0  0
  -22.8070  -31.2562   21.3296 H   0  0  0  0  0  0
  -23.3705  -35.9470   23.3262 H   0  0  0  0  0  0
  -24.3562  -36.8828   22.2095 H   0  0  0  0  0  0
  -23.7169  -37.6296   23.6741 H   0  0  0  0  0  0
  -26.2244  -31.3128   20.5820 H   0  0  0  0  0  0
  -26.9280  -30.6872   22.0277 H   0  0  0  0  0  0
  -28.1658  -28.5580   21.2581 H   0  0  0  0  0  0
  -25.8766  -25.6599   19.0585 H   0  0  0  0  0  0
  -24.0007  -27.2088   18.9980 H   0  0  0  0  0  0
  -23.9058  -30.4824   19.3759 H   0  0  0  0  0  0
  -22.8377  -29.1865   19.8184 H   0  0  0  0  0  0
  -25.1282  -36.1609   25.0781 H   0  0  0  0  0  0
  -21.0115  -28.3285   24.1305 H   0  0  0  0  0  0
  -20.5628  -26.2366   23.3607 H   0  0  0  0  0  0
  -21.6664  -26.7373   22.1176 H   0  0  0  0  0  0
  -19.6832  -25.6295   21.1227 H   0  0  0  0  0  0
  -19.6643  -27.3264   20.6771 H   0  0  0  0  0  0
  -17.4185  -26.6812   21.4009 H   0  0  0  0  0  0
  -18.0281  -26.0132   22.9016 H   0  0  0  0  0  0
  -19.8012  -30.7369   24.2171 H   0  0  0  0  0  0
  -17.5096  -31.6302   24.5199 H   0  0  0  0  0  0
  -15.5415  -30.3050   23.7718 H   0  0  0  0  0  0
  -15.8725  -28.0867   22.7151 H   0  0  0  0  0  0
  -24.5991  -30.7011   25.7714 H   0  0  0  0  0  0
  -24.8887  -32.2985   26.4494 H   0  0  0  0  0  0
  -25.8079  -30.9171   27.0185 H   0  0  0  0  0  0
  -26.3197  -29.6576   24.1246 H   0  0  0  0  0  0
  -27.4127  -29.7209   25.4840 H   0  0  0  0  0  0
  -27.9092  -30.4170   23.9667 H   0  0  0  0  0  0
  -27.2628  -33.3737   26.1744 H   0  0  0  0  0  0
  -28.4079  -32.6672   25.0397 H   0  0  0  0  0  0
  -28.0493  -31.8559   26.5582 H   0  0  0  0  0  0
  -28.2501  -38.0042   24.7593 H   0  0  0  0  0  0
  -28.1016  -36.2580   24.6223 H   0  0  0  0  0  0
  -27.2280  -37.1285   25.8907 H   0  0  0  0  0  0
  -20.9545  -29.8816   21.6779 H   0  0  0  0  0  0
  -25.9956  -38.2666   24.1612 H   0  0  0  0  0  0
  -28.0521  -19.2690   19.4174 H   0  0  0  0  0  0
  -31.4809  -22.8281   21.9142 H   0  0  0  0  0  0
  -29.9660  -22.6873   22.7372 H   0  0  0  0  0  0
  -30.5398  -24.1073   20.0899 H   0  0  0  0  0  0
  -30.1822  -24.8423   21.6077 H   0  0  0  0  0  0
  -27.8648  -24.0882   21.4903 H   0  0  0  0  0  0
  -32.0101  -20.6783   23.3900 H   0  0  0  0  0  0
  -32.9169  -21.1109   21.9324 H   0  0  0  0  0  0
  -32.8722  -19.4556   22.4764 H   0  0  0  0  0  0
  -29.6822  -22.7775   18.2252 H   0  0  0  0  0  0
  -28.1165  -23.5262   17.9134 H   0  0  0  0  0  0
  -28.3138  -21.7822   17.7656 H   0  0  0  0  0  0
  -26.4363  -21.9887   20.9429 H   0  0  0  0  0  0
  -26.4716  -21.3050   19.3216 H   0  0  0  0  0  0
  -26.1441  -23.0200   19.5482 H   0  0  0  0  0  0
  -28.6652  -16.4641   20.0892 H   0  0  0  0  0  0
  1 25  1  0  0  0
  1 30  2  0  0  0
  1 84  1  0  0  0
  2  3  1  0  0  0
  2 25  1  0  0  0
  2 85  1  0  0  0
  2 86  1  0  0  0
  3  4  1  0  0  0
  3 87  1  0  0  0
  3 88  1  0  0  0
  4  5  1  0  0  0
  4 89  1  0  0  0
  4 90  1  0  0  0
  5  6  1  0  0  0
  5 26  1  0  0  0
  5 91  1  0  0  0
  6 25  1  0  0  0
  6 92  1  0  0  0
  6 93  1  0  0  0
  7  8  2  0  0  0
  7 26  1  0  0  0
  7 29  1  0  0  0
  8  9  1  0  0  0
  8 22  1  0  0  0
  9 10  1  0  0  0
  9 27  2  0  0  0
 10 11  2  0  0  0
 10 15  1  0  0  0
 11 12  1  0  0  0
 11 94  1  0  0  0
 12 13  2  0  0  0
 12 95  1  0  0  0
 13 14  1  0  0  0
 13 31  1  0  0  0
 14 15  2  0  0  0
 14 96  1  0  0  0
 15 97  1  0  0  0
 16 17  2  0  0  0
 16 21  1  0  0  0
 16 31  1  0  0  0
 17 18  1  0  0  0
 17 98  1  0  0  0
 18 19  2  0  0  0
 18 99  1  0  0  0
 19 20  1  0  0  0
 19 24  1  0  0  0
 20 21  2  0  0  0
 20100  1  0  0  0
 21 23  1  0  0  0
 22 28  1  0  0  0
 22 32  2  0  0  0
 26 27  1  0  0  0
 28101  1  0  0  0
 28102  1  0  0  0
 29103  1  0  0  0
 29104  1  0  0  0
 33 34  1  0  0  0
 33 66  1  0  0  0
 33 70  2  0  0  0
 34 36  1  0  0  0
 34 59  1  0  0  0
 34105  1  0  0  0
 35 44  2  0  0  0
 35 45  1  0  0  0
 35 68  1  0  0  0
 36 56  1  0  0  0
 36106  1  0  0  0
 37 39  1  0  0  0
 37 47  1  0  0  0
 37 66  1  0  0  0
 37107  1  0  0  0
 38 43  2  0  0  0
 38 46  1  0  0  0
 38 47  1  0  0  0
 39 64  1  0  0  0
 39 67  2  0  0  0
 40 52  1  0  0  0
 40 53  2  0  0  0
 40 58  1  0  0  0
 41108  1  0  0  0
 41109  1  0  0  0
 41110  1  0  0  0
 41 48  1  0  0  0
 42 43  1  0  0  0
 42 66  1  0  0  0
 42111  1  0  0  0
 42112  1  0  0  0
 43 44  1  0  0  0
 44113  1  0  0  0
 45 46  2  0  0  0
 45114  1  0  0  0
 46115  1  0  0  0
 47116  1  0  0  0
 47117  1  0  0  0
 48 56  1  0  0  0
 48 65  1  0  0  0
 48118  1  0  0  0
 49 50  1  0  0  0
 49 53  1  0  0  0
 49 64  1  0  0  0
 49119  1  0  0  0
 50 51  1  0  0  0
 50120  1  0  0  0
 50121  1  0  0  0
 51 52  1  0  0  0
 51122  1  0  0  0
 51123  1  0  0  0
 52124  1  0  0  0
 52125  1  0  0  0
 53 54  1  0  0  0
 54 55  2  0  0  0
 54126  1  0  0  0
 55 57  1  0  0  0
 55127  1  0  0  0
 56 69  2  0  0  0
 57 58  2  0  0  0
 57128  1  0  0  0
 58129  1  0  0  0
 59 60  1  0  0  0
 59 61  1  0  0  0
 59 62  1  0  0  0
 60130  1  0  0  0
 60131  1  0  0  0
 60132  1  0  0  0
 61133  1  0  0  0
 61134  1  0  0  0
 61135  1  0  0  0
 62136  1  0  0  0
 62137  1  0  0  0
 62138  1  0  0  0
 63 65  1  0  0  0
 63139  1  0  0  0
 63140  1  0  0  0
 63141  1  0  0  0
 64142  1  0  0  0
 65143  1  0  0  0
 68 78  1  0  0  0
 71 72  2  0  0  0
 71 75  1  0  0  0
 71144  1  0  0  0
 72 73  1  0  0  0
 72 79  1  0  0  0
 73 74  2  0  0  0
 73 76  1  0  0  0
 74 80  1  0  0  0
 74 83  1  0  0  0
 75 83  2  0  0  0
 75 84  1  0  0  0
 76 77  1  0  0  0
 76145  1  0  0  0
 76146  1  0  0  0
 77 78  1  0  0  0
 77147  1  0  0  0
 77148  1  0  0  0
 78 79  1  0  0  0
 78149  1  0  0  0
 79 81  1  0  0  0
 79 82  1  0  0  0
 80150  1  0  0  0
 80151  1  0  0  0
 80152  1  0  0  0
 81153  1  0  0  0
 81154  1  0  0  0
 81155  1  0  0  0
 82156  1  0  0  0
 82157  1  0  0  0
 82158  1  0  0  0
 84159  1  0  0  0
M  ISO  4   1 100  68 101  78 101  84 100
M  END
> <chiral flag>
0

> <version>
0

> <s_m_source_file>
/data/baiqing/PycharmProjects/Reinvent-master-3.2/result/LINK_invent/BTK/process_docking_weight1_custom_sum_contain_oxygen_bond_distance_aromatic_linkinvent_7_9_3/rearranged_h_0177.sdf

> <i_m_source_file_index>
14

> <r_mmod_Potential_Energy-OPLS-2005>
1357.68591308594

> <r_mmod_Stretch_Energy-OPLS-2005>
663.536010742188

> <r_mmod_Bend_Energy-OPLS-2005>
507.152191162109

> <r_mmod_Torsional_Energy-OPLS-2005>
246.342926025391

> <r_mmod_Improper_Torsional_Energy-OPLS-2005>
7.30357360839844

> <r_mmod_Van_der_Waal_Energy-OPLS-2005>
123.765342712402

> <r_mmod_Electrostatic_Energy-OPLS-2005>
-537.406433105469

> <r_mmod_Solvation_Energy-OPLS-2005>
-233.554382324219

> <b_mmod_Minimization_Converged-OPLS-2005>
0

> <r_mmod_RMS_Derivative-OPLS-2005>
5.43305110931396

$$$$
14
                    3D
 Structure written by MMmdl.
156165  0  0  1  0            999 V2000
  -30.5545  -15.1483   20.3806 C   0  0  0  0  0  0
  -30.4224  -12.7382   19.4988 C   0  0  0  0  0  0
  -29.5148  -12.5384   18.2656 C   0  0  0  0  0  0
  -28.0653  -12.2860   18.7081 C   0  0  0  0  0  0
  -27.6085  -13.2712   19.8150 C   0  0  2  0  0  0
  -28.6543  -13.4486   20.9375 C   0  0  0  0  0  0
  -25.2376  -13.8255   20.5725 C   0  0  0  0  0  0
  -24.1737  -13.0452   20.9269 C   0  0  0  0  0  0
  -24.6385  -11.6939   20.8786 C   0  0  0  0  0  0
  -23.9112  -10.4285   21.0436 C   0  0  0  0  0  0
  -24.3661   -9.4208   21.9214 C   0  0  0  0  0  0
  -23.6318   -8.2242   22.0778 C   0  0  0  0  0  0
  -22.4309   -8.0284   21.3556 C   0  0  0  0  0  0
  -21.9935   -9.0284   20.4674 C   0  0  0  0  0  0
  -22.7284  -10.2141   20.3075 C   0  0  0  0  0  0
  -21.6864   -6.0732   22.5275 C   0  0  0  0  0  0
  -21.4014   -6.5628   23.8211 C   0  0  0  0  0  0
  -21.3653   -5.6785   24.9165 C   0  0  0  0  0  0
  -21.6023   -4.3049   24.7212 C   0  0  0  0  0  0
  -21.8816   -3.8145   23.4344 C   0  0  0  0  0  0
  -21.9227   -4.6960   22.3397 C   0  0  0  0  0  0
  -22.7743  -13.5186   21.1930 C   0  0  0  0  0  0
  -22.1738   -4.2159   21.0978 F   0  0  0  0  0  0
  -21.5619   -3.4524   25.7724 F   0  0  0  0  0  0
  -29.8882  -13.9063   20.2856 N   0  0  0  0  0  0
  -26.2815  -12.9541   20.3225 N   0  0  0  0  0  0
  -25.9326  -11.6662   20.5751 N   0  0  0  0  0  0
  -22.0398  -12.8153   22.0470 N   0  0  0  0  0  0
  -25.4006  -15.1964   20.4112 N   0  0  0  0  0  0
  -31.7777  -15.0559   20.2179 O   0  0  0  0  0  0
  -21.6681   -6.8871   21.4231 O   0  0  0  0  0  0
  -22.3401  -14.5490   20.6772 O   0  0  0  0  0  0
  -24.6560  -31.8306   23.1785 C   0  0  0  0  0  0
  -25.9262  -32.4625   23.8217 C   0  0  1  0  0  0
  -27.2133  -27.0026   20.1573 C   0  0  0  0  0  0
  -25.5940  -33.8427   24.2119 N   0  0  0  0  0  0
  -23.4678  -30.4457   21.5298 C   0  0  2  0  0  0
  -24.9169  -28.8528   20.1037 C   0  0  0  0  0  0
  -22.7613  -29.4477   22.4860 C   0  0  0  0  0  0
  -18.0283  -28.1439   22.8429 C   0  0  0  0  0  0
  -24.1504  -36.7221   23.2649 C   0  0  0  0  0  0
  -26.0321  -30.6591   21.3996 C   0  0  0  0  0  0
  -26.0968  -29.2597   20.7370 C   0  0  0  0  0  0
  -27.2376  -28.3500   20.7454 C   0  0  0  0  0  0
  -26.0083  -26.7378   19.4638 C   0  0  0  0  0  0
  -24.8942  -27.6136   19.4454 C   0  0  0  0  0  0
  -23.7002  -29.7738   20.1487 C   0  0  0  0  0  0
  -25.4136  -36.3008   24.0329 C   0  0  1  0  0  0
  -20.5902  -28.3767   23.1211 C   0  0  2  0  0  0
  -20.6795  -26.9469   22.5410 C   0  0  0  0  0  0
  -19.5785  -26.6403   21.5206 C   0  0  0  0  0  0
  -18.1948  -26.7959   22.1590 C   0  0  0  0  0  0
  -19.1541  -28.8918   23.2800 C   0  0  0  0  0  0
  -18.9466  -30.1505   23.8861 C   0  0  0  0  0  0
  -17.6468  -30.6625   24.0551 C   0  0  0  0  0  0
  -25.9088  -34.9386   23.5056 C   0  0  0  0  0  0
  -16.5357  -29.9140   23.6329 C   0  0  0  0  0  0
  -16.7271  -28.6558   23.0339 C   0  0  0  0  0  0
  -26.4536  -31.6533   25.0701 C   0  0  0  0  0  0
  -25.3677  -31.3761   26.1370 C   0  0  0  0  0  0
  -27.0418  -30.2915   24.6369 C   0  0  0  0  0  0
  -27.6083  -32.4310   25.7453 C   0  0  0  0  0  0
  -27.5584  -37.1768   24.8463 C   0  0  0  0  0  0
  -21.4295  -29.3040   22.3558 N   0  0  0  0  0  0
  -26.4292  -37.3729   23.9412 N   0  0  0  0  0  0
  -24.7407  -31.0039   22.0905 N   0  0  0  0  0  0
  -23.4173  -28.8049   23.3078 O   0  0  0  0  0  0
  -28.2267  -25.9377   20.2913 O   0  0  0  0  0  0
  -26.5727  -34.8902   22.4659 O   0  0  0  0  0  0
  -23.5649  -32.1245   23.6909 O   0  0  0  0  0  0
  -28.4345  -21.6435   22.6935 C   0  0  0  0  0  0
  -28.7956  -20.4304   22.0642 C   0  0  0  0  0  0
  -28.2695  -22.8572   21.9802 C   0  0  0  0  0  0
  -29.0153  -20.3465   20.6813 C   0  0  0  0  0  0
  -28.5134  -22.9210   20.5865 C   0  0  0  0  0  0
  -28.7558  -17.3446   20.6740 C   0  0  0  0  0  0
  -30.6832  -17.8761   20.3767 C   0  0  0  0  0  0
  -29.3600  -18.7613   20.0926 C   0  0  0  0  0  0
  -27.7678  -24.0733   22.7440 C   0  0  0  0  0  0
  -29.0971  -18.9039   18.5939 C   0  0  0  0  0  0
  -28.1704  -24.3994   19.7796 C   0  0  0  0  0  0
  -28.8803  -21.6301   19.9915 N   0  0  0  0  0  0
  -29.9865  -16.5072   20.3354 N   0  0  0  0  0  0
  -31.4482  -12.8971   19.1646 H   0  0  0  0  0  0
  -30.4493  -11.8323   20.1075 H   0  0  0  0  0  0
  -29.8719  -11.7052   17.6594 H   0  0  0  0  0  0
  -29.5652  -13.4253   17.6292 H   0  0  0  0  0  0
  -28.0209  -11.2638   19.0885 H   0  0  0  0  0  0
  -27.3838  -12.3213   17.8599 H   0  0  0  0  0  0
  -27.5243  -14.2363   19.3149 H   0  0  0  0  0  0
  -28.8063  -12.5288   21.5040 H   0  0  0  0  0  0
  -28.3148  -14.1985   21.6521 H   0  0  0  0  0  0
  -25.2773   -9.5701   22.4834 H   0  0  0  0  0  0
  -24.0038   -7.4607   22.7495 H   0  0  0  0  0  0
  -21.0864   -8.8833   19.8966 H   0  0  0  0  0  0
  -22.3734  -10.9703   19.6229 H   0  0  0  0  0  0
  -21.2015   -7.6138   23.9717 H   0  0  0  0  0  0
  -21.1482   -6.0515   25.9066 H   0  0  0  0  0  0
  -22.0604   -2.7612   23.2845 H   0  0  0  0  0  0
  -22.4030  -11.9879   22.4928 H   0  0  0  0  0  0
  -21.0990  -13.1161   22.2610 H   0  0  0  0  0  0
  -24.6447  -15.8565   20.5564 H   0  0  0  0  0  0
  -26.2559  -15.6367   20.0952 H   0  0  0  0  0  0
  -26.7317  -32.5180   23.0923 H   0  0  0  0  0  0
  -24.9968  -33.9510   25.0195 H   0  0  0  0  0  0
  -22.7793  -31.2771   21.3701 H   0  0  0  0  0  0
  -23.3794  -35.9524   23.3300 H   0  0  0  0  0  0
  -24.3559  -36.8850   22.2053 H   0  0  0  0  0  0
  -23.7227  -37.6399   23.6695 H   0  0  0  0  0  0
  -26.2092  -31.4127   20.6291 H   0  0  0  0  0  0
  -26.8954  -30.7055   22.0525 H   0  0  0  0  0  0
  -28.1288  -28.6518   21.2778 H   0  0  0  0  0  0
  -25.8727  -25.7989   18.9517 H   0  0  0  0  0  0
  -23.9976  -27.3042   18.9250 H   0  0  0  0  0  0
  -23.8513  -30.5531   19.4004 H   0  0  0  0  0  0
  -22.8107  -29.2286   19.8326 H   0  0  0  0  0  0
  -25.1330  -36.1849   25.0824 H   0  0  0  0  0  0
  -20.9942  -28.3412   24.1353 H   0  0  0  0  0  0
  -20.5679  -26.2406   23.3643 H   0  0  0  0  0  0
  -21.6672  -26.7491   22.1215 H   0  0  0  0  0  0
  -19.6985  -25.6305   21.1273 H   0  0  0  0  0  0
  -19.6758  -27.3188   20.6720 H   0  0  0  0  0  0
  -17.4214  -26.6632   21.4011 H   0  0  0  0  0  0
  -18.0384  -26.0160   22.9048 H   0  0  0  0  0  0
  -19.7956  -30.7281   24.2269 H   0  0  0  0  0  0
  -17.5049  -31.6292   24.5170 H   0  0  0  0  0  0
  -15.5372  -30.3037   23.7693 H   0  0  0  0  0  0
  -15.8653  -28.0863   22.7116 H   0  0  0  0  0  0
  -24.5897  -30.7065   25.7667 H   0  0  0  0  0  0
  -24.8808  -32.2949   26.4661 H   0  0  0  0  0  0
  -25.7917  -30.9005   27.0225 H   0  0  0  0  0  0
  -26.3080  -29.6613   24.1333 H   0  0  0  0  0  0
  -27.3949  -29.7239   25.4982 H   0  0  0  0  0  0
  -27.9023  -30.4116   23.9787 H   0  0  0  0  0  0
  -27.2713  -33.3663   26.1932 H   0  0  0  0  0  0
  -28.3927  -32.6760   25.0282 H   0  0  0  0  0  0
  -28.0729  -31.8477   26.5407 H   0  0  0  0  0  0
  -28.2610  -38.0062   24.7508 H   0  0  0  0  0  0
  -28.1089  -36.2588   24.6330 H   0  0  0  0  0  0
  -27.2292  -37.1453   25.8864 H   0  0  0  0  0  0
  -20.9602  -29.8672   21.6609 H   0  0  0  0  0  0
  -26.0179  -38.2809   24.1395 H   0  0  0  0  0  0
  -28.2447  -21.6292   23.7586 H   0  0  0  0  0  0
  -28.8788  -19.5359   22.6678 H   0  0  0  0  0  0
  -27.8440  -17.0371   20.1600 H   0  0  0  0  0  0
  -28.5597  -17.3787   21.7468 H   0  0  0  0  0  0
  -31.1168  -18.0986   21.3531 H   0  0  0  0  0  0
  -31.4496  -18.0174   19.6124 H   0  0  0  0  0  0
  -27.3604  -23.7992   23.7207 H   0  0  0  0  0  0
  -26.9638  -24.5692   22.1981 H   0  0  0  0  0  0
  -28.5766  -24.7868   22.9074 H   0  0  0  0  0  0
  -28.0933  -19.2820   18.3936 H   0  0  0  0  0  0
  -29.2059  -17.9503   18.0743 H   0  0  0  0  0  0
  -29.8031  -19.5989   18.1361 H   0  0  0  0  0  0
  -28.8346  -24.3929   18.9140 H   0  0  0  0  0  0
  -27.1896  -24.2269   19.3459 H   0  0  0  0  0  0
  1 25  1  0  0  0
  1 30  2  0  0  0
  1 83  1  0  0  0
  2  3  1  0  0  0
  2 25  1  0  0  0
  2 84  1  0  0  0
  2 85  1  0  0  0
  3  4  1  0  0  0
  3 86  1  0  0  0
  3 87  1  0  0  0
  4  5  1  0  0  0
  4 88  1  0  0  0
  4 89  1  0  0  0
  5  6  1  0  0  0
  5 26  1  0  0  0
  5 90  1  0  0  0
  6 25  1  0  0  0
  6 91  1  0  0  0
  6 92  1  0  0  0
  7  8  2  0  0  0
  7 26  1  0  0  0
  7 29  1  0  0  0
  8  9  1  0  0  0
  8 22  1  0  0  0
  9 10  1  0  0  0
  9 27  2  0  0  0
 10 11  2  0  0  0
 10 15  1  0  0  0
 11 12  1  0  0  0
 11 93  1  0  0  0
 12 13  2  0  0  0
 12 94  1  0  0  0
 13 14  1  0  0  0
 13 31  1  0  0  0
 14 15  2  0  0  0
 14 95  1  0  0  0
 15 96  1  0  0  0
 16 17  2  0  0  0
 16 21  1  0  0  0
 16 31  1  0  0  0
 17 18  1  0  0  0
 17 97  1  0  0  0
 18 19  2  0  0  0
 18 98  1  0  0  0
 19 20  1  0  0  0
 19 24  1  0  0  0
 20 21  2  0  0  0
 20 99  1  0  0  0
 21 23  1  0  0  0
 22 28  1  0  0  0
 22 32  2  0  0  0
 26 27  1  0  0  0
 28100  1  0  0  0
 28101  1  0  0  0
 29102  1  0  0  0
 29103  1  0  0  0
 33 34  1  0  0  0
 33 66  1  0  0  0
 33 70  2  0  0  0
 34 36  1  0  0  0
 34 59  1  0  0  0
 34104  1  0  0  0
 35 44  2  0  0  0
 35 45  1  0  0  0
 35 68  1  0  0  0
 36 56  1  0  0  0
 36105  1  0  0  0
 37 39  1  0  0  0
 37 47  1  0  0  0
 37 66  1  0  0  0
 37106  1  0  0  0
 38 43  2  0  0  0
 38 46  1  0  0  0
 38 47  1  0  0  0
 39 64  1  0  0  0
 39 67  2  0  0  0
 40 52  1  0  0  0
 40 53  2  0  0  0
 40 58  1  0  0  0
 41107  1  0  0  0
 41108  1  0  0  0
 41109  1  0  0  0
 41 48  1  0  0  0
 42 43  1  0  0  0
 42 66  1  0  0  0
 42110  1  0  0  0
 42111  1  0  0  0
 43 44  1  0  0  0
 44112  1  0  0  0
 45 46  2  0  0  0
 45113  1  0  0  0
 46114  1  0  0  0
 47115  1  0  0  0
 47116  1  0  0  0
 48 56  1  0  0  0
 48 65  1  0  0  0
 48117  1  0  0  0
 49 50  1  0  0  0
 49 53  1  0  0  0
 49 64  1  0  0  0
 49118  1  0  0  0
 50 51  1  0  0  0
 50119  1  0  0  0
 50120  1  0  0  0
 51 52  1  0  0  0
 51121  1  0  0  0
 51122  1  0  0  0
 52123  1  0  0  0
 52124  1  0  0  0
 53 54  1  0  0  0
 54 55  2  0  0  0
 54125  1  0  0  0
 55 57  1  0  0  0
 55126  1  0  0  0
 56 69  2  0  0  0
 57 58  2  0  0  0
 57127  1  0  0  0
 58128  1  0  0  0
 59 60  1  0  0  0
 59 61  1  0  0  0
 59 62  1  0  0  0
 60129  1  0  0  0
 60130  1  0  0  0
 60131  1  0  0  0
 61132  1  0  0  0
 61133  1  0  0  0
 61134  1  0  0  0
 62135  1  0  0  0
 62136  1  0  0  0
 62137  1  0  0  0
 63 65  1  0  0  0
 63138  1  0  0  0
 63139  1  0  0  0
 63140  1  0  0  0
 64141  1  0  0  0
 65142  1  0  0  0
 68 81  1  0  0  0
 71 72  2  0  0  0
 71 73  1  0  0  0
 71143  1  0  0  0
 72 74  1  0  0  0
 72144  1  0  0  0
 73 75  2  0  0  0
 73 79  1  0  0  0
 74 78  1  0  0  0
 74 82  2  0  0  0
 75 81  1  0  0  0
 75 82  1  0  0  0
 76 78  1  0  0  0
 76 83  1  0  0  0
 76145  1  0  0  0
 76146  1  0  0  0
 77 78  1  0  0  0
 77 83  1  0  0  0
 77147  1  0  0  0
 77148  1  0  0  0
 78 80  1  0  0  0
 79149  1  0  0  0
 79150  1  0  0  0
 79151  1  0  0  0
 80152  1  0  0  0
 80153  1  0  0  0
 80154  1  0  0  0
 81155  1  0  0  0
 81156  1  0  0  0
M  ISO  4   1 100  68 101  81 101  83 100
M  END
> <chiral flag>
0

> <version>
0

> <s_m_source_file>
/data/baiqing/PycharmProjects/Reinvent-master-3.2/result/LINK_invent/BTK/process_docking_weight1_custom_sum_contain_oxygen_bond_distance_aromatic_linkinvent_7_9_3/rearranged_h_0177.sdf

> <i_m_source_file_index>
15

> <r_mmod_Potential_Energy-OPLS-2005>
923.434387207031

> <r_mmod_Stretch_Energy-OPLS-2005>
419.921264648438

> <r_mmod_Bend_Energy-OPLS-2005>
409.244049072266

> <r_mmod_Torsional_Energy-OPLS-2005>
284.163421630859

> <r_mmod_Improper_Torsional_Energy-OPLS-2005>
10.5830183029175

> <r_mmod_Van_der_Waal_Energy-OPLS-2005>
125.516677856445

> <r_mmod_Electrostatic_Energy-OPLS-2005>
-459.683074951172

> <r_mmod_Solvation_Energy-OPLS-2005>
-219.806091308594

> <b_mmod_Minimization_Converged-OPLS-2005>
0

> <r_mmod_RMS_Derivative-OPLS-2005>
4.27654361724854

$$$$
15
                    3D
 Structure written by MMmdl.
164173  0  0  1  0            999 V2000
  -30.6119  -14.7391   20.4304 C   0  0  0  0  0  0
  -30.4347  -12.4414   19.4691 C   0  0  0  0  0  0
  -29.5111  -12.5022   18.2323 C   0  0  0  0  0  0
  -28.0388  -12.3311   18.6540 C   0  0  0  0  0  0
  -27.6499  -13.2303   19.8591 C   0  0  2  0  0  0
  -28.7001  -13.1589   20.9927 C   0  0  0  0  0  0
  -25.2572  -13.8242   20.5751 C   0  0  0  0  0  0
  -24.1835  -13.0508   20.9224 C   0  0  0  0  0  0
  -24.6393  -11.6984   20.8765 C   0  0  0  0  0  0
  -23.9048  -10.4364   21.0375 C   0  0  0  0  0  0
  -24.3638   -9.4292   21.9146 C   0  0  0  0  0  0
  -23.6339   -8.2302   22.0726 C   0  0  0  0  0  0
  -22.4319   -8.0304   21.3518 C   0  0  0  0  0  0
  -21.9908   -9.0295   20.4660 C   0  0  0  0  0  0
  -22.7216  -10.2192   20.3058 C   0  0  0  0  0  0
  -21.6890   -6.0754   22.5235 C   0  0  0  0  0  0
  -21.4022   -6.5630   23.8196 C   0  0  0  0  0  0
  -21.3659   -5.6763   24.9124 C   0  0  0  0  0  0
  -21.6045   -4.3024   24.7172 C   0  0  0  0  0  0
  -21.8831   -3.8144   23.4283 C   0  0  0  0  0  0
  -21.9218   -4.6981   22.3354 C   0  0  0  0  0  0
  -22.7854  -13.5310   21.1830 C   0  0  0  0  0  0
  -22.1698   -4.2173   21.0933 F   0  0  0  0  0  0
  -21.5633   -3.4503   25.7674 F   0  0  0  0  0  0
  -29.9976  -13.5054   20.4039 N   0  0  0  0  0  0
  -26.2990  -12.9424   20.3328 N   0  0  0  0  0  0
  -25.9326  -11.6577   20.5797 N   0  0  0  0  0  0
  -22.0455  -12.8369   22.0422 N   0  0  0  0  0  0
  -25.4329  -15.1971   20.4261 N   0  0  0  0  0  0
  -31.7940  -14.8397   20.0937 O   0  0  0  0  0  0
  -21.6691   -6.8886   21.4198 O   0  0  0  0  0  0
  -22.3549  -14.5563   20.6600 O   0  0  0  0  0  0
  -24.6298  -31.8533   23.1936 C   0  0  0  0  0  0
  -25.9112  -32.4745   23.8306 C   0  0  1  0  0  0
  -27.2316  -27.2477   20.1415 C   0  0  0  0  0  0
  -25.5909  -33.8548   24.2241 N   0  0  0  0  0  0
  -23.4291  -30.4679   21.5374 C   0  0  2  0  0  0
  -24.8811  -28.9069   20.1024 C   0  0  0  0  0  0
  -22.7491  -29.4579   22.4920 C   0  0  0  0  0  0
  -18.0278  -28.1393   22.8466 C   0  0  0  0  0  0
  -24.1481  -36.7270   23.2647 C   0  0  0  0  0  0
  -25.9708  -30.7575   21.3741 C   0  0  0  0  0  0
  -26.0445  -29.3771   20.7225 C   0  0  0  0  0  0
  -27.2156  -28.5545   20.7356 C   0  0  0  0  0  0
  -26.0579  -26.8518   19.4703 C   0  0  0  0  0  0
  -24.8949  -27.6548   19.4614 C   0  0  0  0  0  0
  -23.6477  -29.7916   20.1545 C   0  0  0  0  0  0
  -25.4115  -36.3073   24.0330 C   0  0  1  0  0  0
  -20.5880  -28.3703   23.1271 C   0  0  2  0  0  0
  -20.6779  -26.9423   22.5410 C   0  0  0  0  0  0
  -19.5768  -26.6382   21.5206 C   0  0  0  0  0  0
  -18.1941  -26.7929   22.1605 C   0  0  0  0  0  0
  -19.1529  -28.8868   23.2863 C   0  0  0  0  0  0
  -18.9451  -30.1468   23.8885 C   0  0  0  0  0  0
  -17.6457  -30.6595   24.0560 C   0  0  0  0  0  0
  -25.9051  -34.9435   23.5104 C   0  0  0  0  0  0
  -16.5351  -29.9094   23.6333 C   0  0  0  0  0  0
  -16.7268  -28.6516   23.0348 C   0  0  0  0  0  0
  -26.4490  -31.6585   25.0696 C   0  0  0  0  0  0
  -25.3716  -31.3718   26.1423 C   0  0  0  0  0  0
  -27.0358  -30.3017   24.6167 C   0  0  0  0  0  0
  -27.6045  -32.4324   25.7470 C   0  0  0  0  0  0
  -27.5582  -37.1798   24.8469 C   0  0  0  0  0  0
  -21.4202  -29.3041   22.3664 N   0  0  0  0  0  0
  -26.4301  -37.3765   23.9403 N   0  0  0  0  0  0
  -24.6962  -31.0445   22.0918 N   0  0  0  0  0  0
  -23.4181  -28.8150   23.3041 O   0  0  0  0  0  0
  -28.3428  -26.3814   20.2802 O   0  0  0  0  0  0
  -26.5630  -34.8928   22.4668 O   0  0  0  0  0  0
  -23.5453  -32.1375   23.7221 O   0  0  0  0  0  0
  -29.0215  -18.6739   22.0247 C   0  0  0  0  0  0
  -28.4707  -19.9692   22.2595 C   0  0  0  0  0  0
  -28.4894  -20.7163   21.0920 C   0  0  0  0  0  0
  -29.4172  -18.5481   20.7312 C   0  0  0  0  0  0
  -26.2960  -21.9079   20.2791 C   0  0  0  0  0  0
  -26.4016  -23.3022   19.6792 C   0  0  0  0  0  0
  -27.6646  -22.0847   20.9213 C   0  0  1  0  0  0
  -27.5103  -23.7385   20.6662 C   0  0  1  0  0  0
  -27.8671  -20.3493   23.5938 C   0  0  0  0  0  0
  -26.9911  -24.4371   21.9447 C   0  0  0  0  0  0
  -29.3472  -20.1787   18.7585 C   0  0  0  0  0  0
  -30.0982  -17.2847   20.0705 C   0  0  0  0  0  0
  -28.4336  -24.8888   19.9932 C   0  0  0  0  0  0
  -29.1032  -19.8297   20.1465 N   0  0  0  0  0  0
  -29.8254  -15.8697   20.5867 N   0  0  0  0  0  0
  -31.4773  -12.5536   19.1691 H   0  0  0  0  0  0
  -30.3638  -11.4623   19.9429 H   0  0  0  0  0  0
  -29.7826  -11.7324   17.5076 H   0  0  0  0  0  0
  -29.6453  -13.4573   17.7211 H   0  0  0  0  0  0
  -27.8979  -11.2825   18.9184 H   0  0  0  0  0  0
  -27.3785  -12.5173   17.8056 H   0  0  0  0  0  0
  -27.6486  -14.2526   19.4806 H   0  0  0  0  0  0
  -28.7405  -12.1585   21.4254 H   0  0  0  0  0  0
  -28.4563  -13.8421   21.8089 H   0  0  0  0  0  0
  -25.2783   -9.5806   22.4691 H   0  0  0  0  0  0
  -24.0066   -7.4700   22.7460 H   0  0  0  0  0  0
  -21.0803   -8.8830   19.9029 H   0  0  0  0  0  0
  -22.3636  -10.9760   19.6214 H   0  0  0  0  0  0
  -21.2012   -7.6138   23.9699 H   0  0  0  0  0  0
  -21.1469   -6.0467   25.9044 H   0  0  0  0  0  0
  -22.0630   -2.7628   23.2730 H   0  0  0  0  0  0
  -22.4132  -12.0149   22.4955 H   0  0  0  0  0  0
  -21.1045  -13.1396   22.2566 H   0  0  0  0  0  0
  -24.6863  -15.8594   20.5985 H   0  0  0  0  0  0
  -26.2945  -15.6391   20.1295 H   0  0  0  0  0  0
  -26.7182  -32.5406   23.1057 H   0  0  0  0  0  0
  -25.0100  -33.9673   25.0422 H   0  0  0  0  0  0
  -22.7270  -31.2918   21.3867 H   0  0  0  0  0  0
  -23.3766  -35.9588   23.3310 H   0  0  0  0  0  0
  -24.3574  -36.8888   22.2065 H   0  0  0  0  0  0
  -23.7217  -37.6459   23.6681 H   0  0  0  0  0  0
  -26.1096  -31.5087   20.5964 H   0  0  0  0  0  0
  -26.8478  -30.8173   22.0065 H   0  0  0  0  0  0
  -28.0969  -28.8970   21.2585 H   0  0  0  0  0  0
  -26.0302  -25.8969   18.9690 H   0  0  0  0  0  0
  -24.0102  -27.2909   18.9580 H   0  0  0  0  0  0
  -23.7686  -30.5621   19.3954 H   0  0  0  0  0  0
  -22.7682  -29.2214   19.8509 H   0  0  0  0  0  0
  -25.1312  -36.1939   25.0834 H   0  0  0  0  0  0
  -20.9957  -28.3284   24.1400 H   0  0  0  0  0  0
  -20.5683  -26.2310   23.3607 H   0  0  0  0  0  0
  -21.6652  -26.7474   22.1210 H   0  0  0  0  0  0
  -19.6947  -25.6290   21.1252 H   0  0  0  0  0  0
  -19.6710  -27.3171   20.6716 H   0  0  0  0  0  0
  -17.4212  -26.6640   21.4011 H   0  0  0  0  0  0
  -18.0372  -26.0082   22.9012 H   0  0  0  0  0  0
  -19.7935  -30.7272   24.2250 H   0  0  0  0  0  0
  -17.5021  -31.6269   24.5168 H   0  0  0  0  0  0
  -15.5359  -30.2999   23.7670 H   0  0  0  0  0  0
  -15.8655  -28.0834   22.7080 H   0  0  0  0  0  0
  -24.5882  -30.7086   25.7738 H   0  0  0  0  0  0
  -24.8924  -32.2885   26.4873 H   0  0  0  0  0  0
  -25.8032  -30.8872   27.0191 H   0  0  0  0  0  0
  -26.2948  -29.6752   24.1194 H   0  0  0  0  0  0
  -27.4087  -29.7289   25.4666 H   0  0  0  0  0  0
  -27.8801  -30.4315   23.9391 H   0  0  0  0  0  0
  -27.2657  -33.3614   26.2074 H   0  0  0  0  0  0
  -28.3849  -32.6899   25.0293 H   0  0  0  0  0  0
  -28.0744  -31.8443   26.5372 H   0  0  0  0  0  0
  -28.2618  -38.0075   24.7529 H   0  0  0  0  0  0
  -28.1062  -36.2618   24.6306 H   0  0  0  0  0  0
  -27.2293  -37.1446   25.8866 H   0  0  0  0  0  0
  -20.9408  -29.8748   21.6841 H   0  0  0  0  0  0
  -26.0185  -38.2854   24.1387 H   0  0  0  0  0  0
  -29.0962  -17.8788   22.7559 H   0  0  0  0  0  0
  -26.2448  -21.1115   19.5357 H   0  0  0  0  0  0
  -25.4985  -21.8053   21.0174 H   0  0  0  0  0  0
  -25.4751  -23.8703   19.7496 H   0  0  0  0  0  0
  -26.7471  -23.2576   18.6449 H   0  0  0  0  0  0
  -27.4528  -22.1667   21.9751 H   0  0  0  0  0  0
  -28.2524  -21.3090   23.9419 H   0  0  0  0  0  0
  -28.0952  -19.5991   24.3517 H   0  0  0  0  0  0
  -26.7806  -20.4076   23.5121 H   0  0  0  0  0  0
  -26.4270  -25.3422   21.7306 H   0  0  0  0  0  0
  -27.8120  -24.7034   22.6121 H   0  0  0  0  0  0
  -26.2988  -23.8215   22.5208 H   0  0  0  0  0  0
  -28.6772  -20.9790   18.4420 H   0  0  0  0  0  0
  -29.1877  -19.3204   18.1088 H   0  0  0  0  0  0
  -30.3773  -20.5161   18.6483 H   0  0  0  0  0  0
  -29.8566  -17.2660   19.0076 H   0  0  0  0  0  0
  -31.1771  -17.4348   20.1038 H   0  0  0  0  0  0
  -29.4695  -24.6443   20.2302 H   0  0  0  0  0  0
  -28.3976  -24.7910   18.9079 H   0  0  0  0  0  0
  -28.8760  -15.6947   20.8731 H   0  0  0  0  0  0
  1 25  1  0  0  0
  1 30  2  0  0  0
  1 85  1  0  0  0
  2  3  1  0  0  0
  2 25  1  0  0  0
  2 86  1  0  0  0
  2 87  1  0  0  0
  3  4  1  0  0  0
  3 88  1  0  0  0
  3 89  1  0  0  0
  4  5  1  0  0  0
  4 90  1  0  0  0
  4 91  1  0  0  0
  5  6  1  0  0  0
  5 26  1  0  0  0
  5 92  1  0  0  0
  6 25  1  0  0  0
  6 93  1  0  0  0
  6 94  1  0  0  0
  7  8  2  0  0  0
  7 26  1  0  0  0
  7 29  1  0  0  0
  8  9  1  0  0  0
  8 22  1  0  0  0
  9 10  1  0  0  0
  9 27  2  0  0  0
 10 11  2  0  0  0
 10 15  1  0  0  0
 11 12  1  0  0  0
 11 95  1  0  0  0
 12 13  2  0  0  0
 12 96  1  0  0  0
 13 14  1  0  0  0
 13 31  1  0  0  0
 14 15  2  0  0  0
 14 97  1  0  0  0
 15 98  1  0  0  0
 16 17  2  0  0  0
 16 21  1  0  0  0
 16 31  1  0  0  0
 17 18  1  0  0  0
 17 99  1  0  0  0
 18 19  2  0  0  0
 18100  1  0  0  0
 19 20  1  0  0  0
 19 24  1  0  0  0
 20 21  2  0  0  0
 20101  1  0  0  0
 21 23  1  0  0  0
 22 28  1  0  0  0
 22 32  2  0  0  0
 26 27  1  0  0  0
 28102  1  0  0  0
 28103  1  0  0  0
 29104  1  0  0  0
 29105  1  0  0  0
 33 34  1  0  0  0
 33 66  1  0  0  0
 33 70  2  0  0  0
 34 36  1  0  0  0
 34 59  1  0  0  0
 34106  1  0  0  0
 35 44  2  0  0  0
 35 45  1  0  0  0
 35 68  1  0  0  0
 36 56  1  0  0  0
 36107  1  0  0  0
 37 39  1  0  0  0
 37 47  1  0  0  0
 37 66  1  0  0  0
 37108  1  0  0  0
 38 43  2  0  0  0
 38 46  1  0  0  0
 38 47  1  0  0  0
 39 64  1  0  0  0
 39 67  2  0  0  0
 40 52  1  0  0  0
 40 53  2  0  0  0
 40 58  1  0  0  0
 41109  1  0  0  0
 41110  1  0  0  0
 41111  1  0  0  0
 41 48  1  0  0  0
 42 43  1  0  0  0
 42 66  1  0  0  0
 42112  1  0  0  0
 42113  1  0  0  0
 43 44  1  0  0  0
 44114  1  0  0  0
 45 46  2  0  0  0
 45115  1  0  0  0
 46116  1  0  0  0
 47117  1  0  0  0
 47118  1  0  0  0
 48 56  1  0  0  0
 48 65  1  0  0  0
 48119  1  0  0  0
 49 50  1  0  0  0
 49 53  1  0  0  0
 49 64  1  0  0  0
 49120  1  0  0  0
 50 51  1  0  0  0
 50121  1  0  0  0
 50122  1  0  0  0
 51 52  1  0  0  0
 51123  1  0  0  0
 51124  1  0  0  0
 52125  1  0  0  0
 52126  1  0  0  0
 53 54  1  0  0  0
 54 55  2  0  0  0
 54127  1  0  0  0
 55 57  1  0  0  0
 55128  1  0  0  0
 56 69  2  0  0  0
 57 58  2  0  0  0
 57129  1  0  0  0
 58130  1  0  0  0
 59 60  1  0  0  0
 59 61  1  0  0  0
 59 62  1  0  0  0
 60131  1  0  0  0
 60132  1  0  0  0
 60133  1  0  0  0
 61134  1  0  0  0
 61135  1  0  0  0
 61136  1  0  0  0
 62137  1  0  0  0
 62138  1  0  0  0
 62139  1  0  0  0
 63 65  1  0  0  0
 63140  1  0  0  0
 63141  1  0  0  0
 63142  1  0  0  0
 64143  1  0  0  0
 65144  1  0  0  0
 68 83  1  0  0  0
 71 72  1  0  0  0
 71 74  2  0  0  0
 71145  1  0  0  0
 72 73  2  0  0  0
 72 79  1  0  0  0
 73 84  1  0  0  0
 73 77  1  0  0  0
 74 82  1  0  0  0
 74 84  1  0  0  0
 75 76  1  0  0  0
 75 77  1  0  0  0
 75146  1  0  0  0
 75147  1  0  0  0
 76 78  1  0  0  0
 76148  1  0  0  0
 76149  1  0  0  0
 77 78  1  0  0  0
 77150  1  0  0  0
 78 80  1  0  0  0
 78 83  1  0  0  0
 79151  1  0  0  0
 79152  1  0  0  0
 79153  1  0  0  0
 80154  1  0  0  0
 80155  1  0  0  0
 80156  1  0  0  0
 81 84  1  0  0  0
 81157  1  0  0  0
 81158  1  0  0  0
 81159  1  0  0  0
 82 85  1  0  0  0
 82160  1  0  0  0
 82161  1  0  0  0
 83162  1  0  0  0
 83163  1  0  0  0
 85164  1  0  0  0
M  ISO  4   1 100  68 101  83 101  85 100
M  END
> <chiral flag>
0

> <version>
0

> <s_m_source_file>
/data/baiqing/PycharmProjects/Reinvent-master-3.2/result/LINK_invent/BTK/process_docking_weight1_custom_sum_contain_oxygen_bond_distance_aromatic_linkinvent_7_9_3/rearranged_h_0177.sdf

> <i_m_source_file_index>
16

> <r_mmod_Potential_Energy-OPLS-2005>
326.865295410156

> <r_mmod_Stretch_Energy-OPLS-2005>
154.616287231445

> <r_mmod_Bend_Energy-OPLS-2005>
361.727630615234

> <r_mmod_Torsional_Energy-OPLS-2005>
236.141967773438

> <r_mmod_Improper_Torsional_Energy-OPLS-2005>
9.51745700836182

> <r_mmod_Van_der_Waal_Energy-OPLS-2005>
120.338912963867

> <r_mmod_Electrostatic_Energy-OPLS-2005>
-439.027893066406

> <r_mmod_Solvation_Energy-OPLS-2005>
-205.643615722656

> <b_mmod_Minimization_Converged-OPLS-2005>
0

> <r_mmod_RMS_Derivative-OPLS-2005>
3.87634229660034

$$$$
16
                    3D
 Structure written by MMmdl.
160169  0  0  1  0            999 V2000
  -30.4802  -15.1165   20.3919 C   0  0  0  0  0  0
  -30.4417  -12.7041   19.5085 C   0  0  0  0  0  0
  -29.5270  -12.5507   18.2689 C   0  0  0  0  0  0
  -28.0683  -12.3033   18.6953 C   0  0  0  0  0  0
  -27.6198  -13.2604   19.8286 C   0  0  2  0  0  0
  -28.6595  -13.3650   20.9638 C   0  0  0  0  0  0
  -25.2430  -13.8226   20.5731 C   0  0  0  0  0  0
  -24.1765  -13.0436   20.9250 C   0  0  0  0  0  0
  -24.6397  -11.6928   20.8768 C   0  0  0  0  0  0
  -23.9085  -10.4293   21.0416 C   0  0  0  0  0  0
  -24.3632   -9.4206   21.9192 C   0  0  0  0  0  0
  -23.6303   -8.2243   22.0760 C   0  0  0  0  0  0
  -22.4285   -8.0284   21.3547 C   0  0  0  0  0  0
  -21.9927   -9.0258   20.4647 C   0  0  0  0  0  0
  -22.7261  -10.2133   20.3059 C   0  0  0  0  0  0
  -21.6854   -6.0739   22.5280 C   0  0  0  0  0  0
  -21.4015   -6.5645   23.8214 C   0  0  0  0  0  0
  -21.3659   -5.6797   24.9176 C   0  0  0  0  0  0
  -21.6043   -4.3058   24.7225 C   0  0  0  0  0  0
  -21.8819   -3.8152   23.4348 C   0  0  0  0  0  0
  -21.9193   -4.6967   22.3404 C   0  0  0  0  0  0
  -22.7787  -13.5202   21.1897 C   0  0  0  0  0  0
  -22.1663   -4.2156   21.0979 F   0  0  0  0  0  0
  -21.5628   -3.4540   25.7736 F   0  0  0  0  0  0
  -29.9099  -13.8287   20.3470 N   0  0  0  0  0  0
  -26.2853  -12.9477   20.3231 N   0  0  0  0  0  0
  -25.9328  -11.6597   20.5736 N   0  0  0  0  0  0
  -22.0432  -12.8180   22.0435 N   0  0  0  0  0  0
  -25.4074  -15.1957   20.4139 N   0  0  0  0  0  0
  -31.6965  -15.1536   20.1689 O   0  0  0  0  0  0
  -21.6645   -6.8883   21.4242 O   0  0  0  0  0  0
  -22.3473  -14.5507   20.6742 O   0  0  0  0  0  0
  -24.6545  -31.8321   23.1770 C   0  0  0  0  0  0
  -25.9265  -32.4632   23.8204 C   0  0  1  0  0  0
  -27.2176  -27.0181   20.1746 C   0  0  0  0  0  0
  -25.5971  -33.8441   24.2124 N   0  0  0  0  0  0
  -23.4644  -30.4465   21.5241 C   0  0  2  0  0  0
  -24.9155  -28.8480   20.1121 C   0  0  0  0  0  0
  -22.7625  -29.4492   22.4814 C   0  0  0  0  0  0
  -18.0313  -28.1406   22.8475 C   0  0  0  0  0  0
  -24.1491  -36.7223   23.2646 C   0  0  0  0  0  0
  -26.0274  -30.6690   21.3904 C   0  0  0  0  0  0
  -26.0966  -29.2665   20.7379 C   0  0  0  0  0  0
  -27.2459  -28.3705   20.7458 C   0  0  0  0  0  0
  -26.0111  -26.7296   19.5010 C   0  0  0  0  0  0
  -24.8924  -27.5972   19.4750 C   0  0  0  0  0  0
  -23.6979  -29.7653   20.1480 C   0  0  0  0  0  0
  -25.4130  -36.2994   24.0308 C   0  0  1  0  0  0
  -20.5934  -28.3740   23.1211 C   0  0  2  0  0  0
  -20.6800  -26.9430   22.5402 C   0  0  0  0  0  0
  -19.5773  -26.6388   21.5212 C   0  0  0  0  0  0
  -18.1952  -26.7946   22.1616 C   0  0  0  0  0  0
  -19.1573  -28.8890   23.2834 C   0  0  0  0  0  0
  -18.9488  -30.1485   23.8867 C   0  0  0  0  0  0
  -17.6484  -30.6599   24.0558 C   0  0  0  0  0  0
  -25.9091  -34.9373   23.5035 C   0  0  0  0  0  0
  -16.5372  -29.9093   23.6340 C   0  0  0  0  0  0
  -16.7297  -28.6509   23.0362 C   0  0  0  0  0  0
  -26.4547  -31.6537   25.0686 C   0  0  0  0  0  0
  -25.3702  -31.3749   26.1356 C   0  0  0  0  0  0
  -27.0435  -30.2929   24.6327 C   0  0  0  0  0  0
  -27.6061  -32.4319   25.7483 C   0  0  0  0  0  0
  -27.5569  -37.1776   24.8467 C   0  0  0  0  0  0
  -21.4300  -29.3048   22.3571 N   0  0  0  0  0  0
  -26.4279  -37.3721   23.9409 N   0  0  0  0  0  0
  -24.7362  -31.0075   22.0851 N   0  0  0  0  0  0
  -23.4212  -28.8052   23.3014 O   0  0  0  0  0  0
  -28.2508  -25.9737   20.2362 O   0  0  0  0  0  0
  -26.5683  -34.8892   22.4620 O   0  0  0  0  0  0
  -23.5638  -32.1244   23.6927 O   0  0  0  0  0  0
  -28.6159  -23.2325   19.2742 C   0  0  0  0  0  0
  -28.6616  -23.3015   21.2768 C   0  0  0  0  0  0
  -29.9312  -20.2437   21.7045 C   0  0  0  0  0  0
  -30.0501  -18.6528   21.8645 C   0  0  1  0  0  0
  -29.9497  -17.9535   20.4800 C   0  0  2  0  0  0
  -28.4502  -21.9987   20.3255 C   0  0  2  0  0  0
  -27.9991  -24.3798   20.2541 C   0  0  1  0  0  0
  -28.9709  -19.1831   19.8678 C   0  0  2  0  0  0
  -31.2774  -18.2087   22.6746 C   0  0  0  0  0  0
  -28.9042  -19.1192   18.3366 C   0  0  0  0  0  0
  -29.6912  -16.3362   20.4858 N   0  0  0  0  0  0
  -29.3710  -20.6350   20.3732 N   0  3  2  0  0  0
  -31.4668  -12.8919   19.1859 H   0  0  0  0  0  0
  -30.4773  -11.7768   20.0822 H   0  0  0  0  0  0
  -29.8773  -11.7345   17.6362 H   0  0  0  0  0  0
  -29.5818  -13.4556   17.6616 H   0  0  0  0  0  0
  -27.9987  -11.2707   19.0401 H   0  0  0  0  0  0
  -27.3998  -12.3848   17.8378 H   0  0  0  0  0  0
  -27.5571  -14.2444   19.3624 H   0  0  0  0  0  0
  -28.7918  -12.4092   21.4729 H   0  0  0  0  0  0
  -28.3289  -14.0779   21.7208 H   0  0  0  0  0  0
  -25.2772   -9.5683   22.4774 H   0  0  0  0  0  0
  -24.0009   -7.4634   22.7481 H   0  0  0  0  0  0
  -21.0861   -8.8779   19.8949 H   0  0  0  0  0  0
  -22.3723  -10.9674   19.6170 H   0  0  0  0  0  0
  -21.2005   -7.6153   23.9718 H   0  0  0  0  0  0
  -21.1481   -6.0527   25.9078 H   0  0  0  0  0  0
  -22.0596   -2.7614   23.2844 H   0  0  0  0  0  0
  -22.4051  -11.9833   22.4805 H   0  0  0  0  0  0
  -21.1045  -13.1191   22.2639 H   0  0  0  0  0  0
  -24.6307  -15.8403   20.5135 H   0  0  0  0  0  0
  -26.2360  -15.6319   20.0334 H   0  0  0  0  0  0
  -26.7328  -32.5195   23.0920 H   0  0  0  0  0  0
  -25.0098  -33.9531   25.0261 H   0  0  0  0  0  0
  -22.7739  -31.2758   21.3597 H   0  0  0  0  0  0
  -23.3763  -35.9543   23.3281 H   0  0  0  0  0  0
  -24.3585  -36.8884   22.2068 H   0  0  0  0  0  0
  -23.7229  -37.6403   23.6705 H   0  0  0  0  0  0
  -26.1931  -31.4130   20.6101 H   0  0  0  0  0  0
  -26.8944  -30.7281   22.0364 H   0  0  0  0  0  0
  -28.1434  -28.6895   21.2565 H   0  0  0  0  0  0
  -25.9052  -25.7766   19.0033 H   0  0  0  0  0  0
  -23.9935  -27.2742   18.9680 H   0  0  0  0  0  0
  -23.8452  -30.5344   19.3888 H   0  0  0  0  0  0
  -22.8093  -29.2138   19.8356 H   0  0  0  0  0  0
  -25.1326  -36.1804   25.0798 H   0  0  0  0  0  0
  -21.0025  -28.3329   24.1331 H   0  0  0  0  0  0
  -20.5687  -26.2351   23.3632 H   0  0  0  0  0  0
  -21.6665  -26.7428   22.1202 H   0  0  0  0  0  0
  -19.6934  -25.6295   21.1254 H   0  0  0  0  0  0
  -19.6712  -27.3191   20.6735 H   0  0  0  0  0  0
  -17.4226  -26.6694   21.4011 H   0  0  0  0  0  0
  -18.0342  -26.0096   22.9017 H   0  0  0  0  0  0
  -19.7961  -30.7312   24.2218 H   0  0  0  0  0  0
  -17.5033  -31.6271   24.5177 H   0  0  0  0  0  0
  -15.5373  -30.2985   23.7687 H   0  0  0  0  0  0
  -15.8694  -28.0823   22.7091 H   0  0  0  0  0  0
  -24.5923  -30.7046   25.7675 H   0  0  0  0  0  0
  -24.8834  -32.2930   26.4657 H   0  0  0  0  0  0
  -25.7966  -30.9018   27.0210 H   0  0  0  0  0  0
  -26.3079  -29.6626   24.1319 H   0  0  0  0  0  0
  -27.4018  -29.7255   25.4925 H   0  0  0  0  0  0
  -27.8990  -30.4159   23.9686 H   0  0  0  0  0  0
  -27.2665  -33.3681   26.1925 H   0  0  0  0  0  0
  -28.3949  -32.6771   25.0358 H   0  0  0  0  0  0
  -28.0635  -31.8517   26.5508 H   0  0  0  0  0  0
  -28.2572  -38.0086   24.7520 H   0  0  0  0  0  0
  -28.1078  -36.2614   24.6288 H   0  0  0  0  0  0
  -27.2287  -37.1408   25.8869 H   0  0  0  0  0  0
  -20.9535  -29.8743   21.6721 H   0  0  0  0  0  0
  -26.0130  -38.2780   24.1419 H   0  0  0  0  0  0
  -28.0432  -23.0968   18.3564 H   0  0  0  0  0  0
  -29.6597  -23.4301   19.0167 H   0  0  0  0  0  0
  -29.7155  -23.5139   21.4701 H   0  0  0  0  0  0
  -28.1331  -23.2294   22.2282 H   0  0  0  0  0  0
  -30.9053  -20.7215   21.8092 H   0  0  0  0  0  0
  -29.3032  -20.6437   22.5012 H   0  0  0  0  0  0
  -29.1690  -18.3397   22.4279 H   0  0  0  0  0  0
  -30.9160  -18.0668   19.9861 H   0  0  0  0  0  0
  -27.4045  -21.6931   20.3782 H   0  0  0  0  0  0
  -26.9194  -24.2358   20.3056 H   0  0  0  0  0  0
  -27.9621  -19.0095   20.2460 H   0  0  0  0  0  0
  -32.2064  -18.4801   22.1724 H   0  0  0  0  0  0
  -31.2837  -17.1283   22.8208 H   0  0  0  0  0  0
  -31.2848  -18.6728   23.6616 H   0  0  0  0  0  0
  -29.8822  -19.2943   17.8880 H   0  0  0  0  0  0
  -28.2123  -19.8613   17.9380 H   0  0  0  0  0  0
  -28.5614  -18.1388   18.0058 H   0  0  0  0  0  0
  -28.7134  -16.1144   20.5999 H   0  0  0  0  0  0
  -30.1952  -20.8650   19.8388 H   0  0  0  0  0  0
  1 25  1  0  0  0
  1 30  2  0  0  0
  1 81  1  0  0  0
  2  3  1  0  0  0
  2 25  1  0  0  0
  2 83  1  0  0  0
  2 84  1  0  0  0
  3  4  1  0  0  0
  3 85  1  0  0  0
  3 86  1  0  0  0
  4  5  1  0  0  0
  4 87  1  0  0  0
  4 88  1  0  0  0
  5  6  1  0  0  0
  5 26  1  0  0  0
  5 89  1  0  0  0
  6 25  1  0  0  0
  6 90  1  0  0  0
  6 91  1  0  0  0
  7  8  2  0  0  0
  7 26  1  0  0  0
  7 29  1  0  0  0
  8  9  1  0  0  0
  8 22  1  0  0  0
  9 10  1  0  0  0
  9 27  2  0  0  0
 10 11  2  0  0  0
 10 15  1  0  0  0
 11 12  1  0  0  0
 11 92  1  0  0  0
 12 13  2  0  0  0
 12 93  1  0  0  0
 13 14  1  0  0  0
 13 31  1  0  0  0
 14 15  2  0  0  0
 14 94  1  0  0  0
 15 95  1  0  0  0
 16 17  2  0  0  0
 16 21  1  0  0  0
 16 31  1  0  0  0
 17 18  1  0  0  0
 17 96  1  0  0  0
 18 19  2  0  0  0
 18 97  1  0  0  0
 19 20  1  0  0  0
 19 24  1  0  0  0
 20 21  2  0  0  0
 20 98  1  0  0  0
 21 23  1  0  0  0
 22 28  1  0  0  0
 22 32  2  0  0  0
 26 27  1  0  0  0
 28 99  1  0  0  0
 28100  1  0  0  0
 29101  1  0  0  0
 29102  1  0  0  0
 33 34  1  0  0  0
 33 66  1  0  0  0
 33 70  2  0  0  0
 34 36  1  0  0  0
 34 59  1  0  0  0
 34103  1  0  0  0
 35 44  2  0  0  0
 35 45  1  0  0  0
 35 68  1  0  0  0
 36 56  1  0  0  0
 36104  1  0  0  0
 37 39  1  0  0  0
 37 47  1  0  0  0
 37 66  1  0  0  0
 37105  1  0  0  0
 38 43  2  0  0  0
 38 46  1  0  0  0
 38 47  1  0  0  0
 39 64  1  0  0  0
 39 67  2  0  0  0
 40 52  1  0  0  0
 40 53  2  0  0  0
 40 58  1  0  0  0
 41106  1  0  0  0
 41107  1  0  0  0
 41108  1  0  0  0
 41 48  1  0  0  0
 42 43  1  0  0  0
 42 66  1  0  0  0
 42109  1  0  0  0
 42110  1  0  0  0
 43 44  1  0  0  0
 44111  1  0  0  0
 45 46  2  0  0  0
 45112  1  0  0  0
 46113  1  0  0  0
 47114  1  0  0  0
 47115  1  0  0  0
 48 56  1  0  0  0
 48 65  1  0  0  0
 48116  1  0  0  0
 49 50  1  0  0  0
 49 53  1  0  0  0
 49 64  1  0  0  0
 49117  1  0  0  0
 50 51  1  0  0  0
 50118  1  0  0  0
 50119  1  0  0  0
 51 52  1  0  0  0
 51120  1  0  0  0
 51121  1  0  0  0
 52122  1  0  0  0
 52123  1  0  0  0
 53 54  1  0  0  0
 54 55  2  0  0  0
 54124  1  0  0  0
 55 57  1  0  0  0
 55125  1  0  0  0
 56 69  2  0  0  0
 57 58  2  0  0  0
 57126  1  0  0  0
 58127  1  0  0  0
 59 60  1  0  0  0
 59 61  1  0  0  0
 59 62  1  0  0  0
 60128  1  0  0  0
 60129  1  0  0  0
 60130  1  0  0  0
 61131  1  0  0  0
 61132  1  0  0  0
 61133  1  0  0  0
 62134  1  0  0  0
 62135  1  0  0  0
 62136  1  0  0  0
 63 65  1  0  0  0
 63137  1  0  0  0
 63138  1  0  0  0
 63139  1  0  0  0
 64140  1  0  0  0
 65141  1  0  0  0
 68 77  1  0  0  0
 71 77  1  0  0  0
 71142  1  0  0  0
 71143  1  0  0  0
 71 76  1  0  0  0
 72 76  1  0  0  0
 72 77  1  0  0  0
 72144  1  0  0  0
 72145  1  0  0  0
 73 74  1  0  0  0
 73146  1  0  0  0
 73147  1  0  0  0
 73 82  1  0  0  0
 74 75  1  0  0  0
 74 79  1  0  0  0
 74148  1  0  0  0
 75 78  1  0  0  0
 75 81  1  0  0  0
 75149  1  0  0  0
 76 82  1  0  0  0
 76150  1  0  0  0
 77151  1  0  0  0
 78 80  1  0  0  0
 78 82  1  0  0  0
 78152  1  0  0  0
 79153  1  0  0  0
 79154  1  0  0  0
 79155  1  0  0  0
 80156  1  0  0  0
 80157  1  0  0  0
 80158  1  0  0  0
 81159  1  0  0  0
 82160  1  0  0  0
M  CHG  1  82   1
M  ISO  4   1 100  68 101  77 101  81 100
M  END
> <chiral flag>
0

> <version>
0

> <s_m_source_file>
/data/baiqing/PycharmProjects/Reinvent-master-3.2/result/LINK_invent/BTK/process_docking_weight1_custom_sum_contain_oxygen_bond_distance_aromatic_linkinvent_7_9_3/rearranged_h_0177.sdf

> <i_m_source_file_index>
17

> <r_mmod_Potential_Energy-OPLS-2005>
788.412292480469

> <r_mmod_Stretch_Energy-OPLS-2005>
369.447784423828

> <r_mmod_Bend_Energy-OPLS-2005>
420.804870605469

> <r_mmod_Torsional_Energy-OPLS-2005>
299.237396240234

> <r_mmod_Improper_Torsional_Energy-OPLS-2005>
4.1031289100647

> <r_mmod_Van_der_Waal_Energy-OPLS-2005>
102.588584899902

> <r_mmod_Electrostatic_Energy-OPLS-2005>
-261.765380859375

> <r_mmod_Solvation_Energy-OPLS-2005>
-467.564849853516

> <b_mmod_Minimization_Converged-OPLS-2005>
0

> <r_mmod_RMS_Derivative-OPLS-2005>
0.842574536800385

$$$$
17
                    3D
 Structure written by MMmdl.
158167  0  0  1  0            999 V2000
  -30.4470  -15.3129   20.3649 C   0  0  0  0  0  0
  -30.4292  -12.8448   19.5293 C   0  0  0  0  0  0
  -29.5335  -12.5868   18.2920 C   0  0  0  0  0  0
  -28.0862  -12.3004   18.7230 C   0  0  0  0  0  0
  -27.6060  -13.2822   19.8205 C   0  0  2  0  0  0
  -28.6367  -13.4876   20.9513 C   0  0  0  0  0  0
  -25.2341  -13.8249   20.5745 C   0  0  0  0  0  0
  -24.1706  -13.0431   20.9256 C   0  0  0  0  0  0
  -24.6383  -11.6938   20.8763 C   0  0  0  0  0  0
  -23.9085  -10.4294   21.0396 C   0  0  0  0  0  0
  -24.3632   -9.4207   21.9177 C   0  0  0  0  0  0
  -23.6296   -8.2244   22.0753 C   0  0  0  0  0  0
  -22.4276   -8.0281   21.3546 C   0  0  0  0  0  0
  -21.9914   -9.0255   20.4643 C   0  0  0  0  0  0
  -22.7253  -10.2130   20.3051 C   0  0  0  0  0  0
  -21.6855   -6.0727   22.5276 C   0  0  0  0  0  0
  -21.4018   -6.5628   23.8207 C   0  0  0  0  0  0
  -21.3660   -5.6785   24.9173 C   0  0  0  0  0  0
  -21.6045   -4.3044   24.7220 C   0  0  0  0  0  0
  -21.8817   -3.8137   23.4341 C   0  0  0  0  0  0
  -21.9194   -4.6953   22.3398 C   0  0  0  0  0  0
  -22.7721  -13.5179   21.1897 C   0  0  0  0  0  0
  -22.1661   -4.2143   21.0976 F   0  0  0  0  0  0
  -21.5633   -3.4527   25.7730 F   0  0  0  0  0  0
  -29.8599  -14.0090   20.3154 N   0  0  0  0  0  0
  -26.2784  -12.9549   20.3219 N   0  0  0  0  0  0
  -25.9326  -11.6649   20.5717 N   0  0  0  0  0  0
  -22.0384  -12.8165   22.0461 N   0  0  0  0  0  0
  -25.3946  -15.1977   20.4169 N   0  0  0  0  0  0
  -31.6631  -15.2616   20.1153 O   0  0  0  0  0  0
  -21.6644   -6.8870   21.4236 O   0  0  0  0  0  0
  -22.3397  -14.5481   20.6739 O   0  0  0  0  0  0
  -24.6653  -31.8196   23.1669 C   0  0  0  0  0  0
  -25.9320  -32.4567   23.8153 C   0  0  1  0  0  0
  -27.2234  -26.8991   20.1911 C   0  0  0  0  0  0
  -25.5972  -33.8385   24.2057 N   0  0  0  0  0  0
  -23.4820  -30.4282   21.5158 C   0  0  2  0  0  0
  -24.9359  -28.8052   20.1138 C   0  0  0  0  0  0
  -22.7675  -29.4418   22.4769 C   0  0  0  0  0  0
  -18.0327  -28.1410   22.8464 C   0  0  0  0  0  0
  -24.1494  -36.7202   23.2652 C   0  0  0  0  0  0
  -26.0512  -30.6175   21.3997 C   0  0  0  0  0  0
  -26.1198  -29.2030   20.7471 C   0  0  0  0  0  0
  -27.2563  -28.2718   20.7572 C   0  0  0  0  0  0
  -26.0090  -26.6556   19.5113 C   0  0  0  0  0  0
  -24.9072  -27.5528   19.4764 C   0  0  0  0  0  0
  -23.7239  -29.7374   20.1442 C   0  0  0  0  0  0
  -25.4136  -36.2958   24.0298 C   0  0  1  0  0  0
  -20.5949  -28.3757   23.1186 C   0  0  2  0  0  0
  -20.6795  -26.9436   22.5405 C   0  0  0  0  0  0
  -19.5772  -26.6376   21.5214 C   0  0  0  0  0  0
  -18.1956  -26.7940   22.1621 C   0  0  0  0  0  0
  -19.1586  -28.8905   23.2808 C   0  0  0  0  0  0
  -18.9496  -30.1488   23.8855 C   0  0  0  0  0  0
  -17.6489  -30.6595   24.0556 C   0  0  0  0  0  0
  -25.9097  -34.9340   23.5003 C   0  0  0  0  0  0
  -16.5380  -29.9083   23.6342 C   0  0  0  0  0  0
  -16.7307  -28.6501   23.0366 C   0  0  0  0  0  0
  -26.4560  -31.6527   25.0696 C   0  0  0  0  0  0
  -25.3676  -31.3791   26.1349 C   0  0  0  0  0  0
  -27.0460  -30.2892   24.6446 C   0  0  0  0  0  0
  -27.6048  -32.4341   25.7496 C   0  0  0  0  0  0
  -27.5567  -37.1763   24.8468 C   0  0  0  0  0  0
  -21.4342  -29.3041   22.3528 N   0  0  0  0  0  0
  -26.4281  -37.3694   23.9403 N   0  0  0  0  0  0
  -24.7545  -30.9830   22.0814 N   0  0  0  0  0  0
  -23.4208  -28.8001   23.3029 O   0  0  0  0  0  0
  -28.2388  -25.8005   20.2732 O   0  0  0  0  0  0
  -26.5715  -34.8884   22.4602 O   0  0  0  0  0  0
  -23.5715  -32.1182   23.6741 O   0  0  0  0  0  0
  -29.3684  -22.9428   20.3083 C   0  0  0  0  0  0
  -30.5733  -23.5493   20.0456 C   0  0  0  0  0  0
  -29.6719  -21.2006   20.5031 C   0  0  0  0  0  0
  -31.9190  -22.8949   20.2774 C   0  0  0  0  0  0
  -28.5211  -18.6908   21.4223 C   0  0  0  0  0  0
  -31.7852  -21.8775   21.3895 C   0  0  0  0  0  0
  -28.5708  -17.0928   21.1698 C   0  0  0  0  0  0
  -30.1418  -18.1516   19.9224 C   0  0  0  0  0  0
  -29.1093  -19.5218   20.2348 C   0  0  2  0  0  0
  -30.7770  -24.9655   19.5148 C   0  0  0  0  0  0
  -28.0975  -24.1360   20.1181 C   0  0  0  0  0  0
  -30.8084  -20.8971   21.0108 N   0  0  0  0  0  0
  -29.7549  -16.6522   20.3855 N   0  0  0  0  0  0
  -31.4481  -13.0395   19.1912 H   0  0  0  0  0  0
  -30.5010  -11.9517   20.1514 H   0  0  0  0  0  0
  -29.9239  -11.7557   17.7028 H   0  0  0  0  0  0
  -29.5530  -13.4614   17.6403 H   0  0  0  0  0  0
  -28.0529  -11.2801   19.1079 H   0  0  0  0  0  0
  -27.4165  -12.3241   17.8627 H   0  0  0  0  0  0
  -27.5121  -14.2411   19.3088 H   0  0  0  0  0  0
  -28.8177  -12.5636   21.5017 H   0  0  0  0  0  0
  -28.2629  -14.2092   21.6782 H   0  0  0  0  0  0
  -25.2774   -9.5677   22.4759 H   0  0  0  0  0  0
  -23.9998   -7.4629   22.7476 H   0  0  0  0  0  0
  -21.0841   -8.8770   19.8951 H   0  0  0  0  0  0
  -22.3702  -10.9667   19.6159 H   0  0  0  0  0  0
  -21.2019   -7.6140   23.9700 H   0  0  0  0  0  0
  -21.1483   -6.0521   25.9073 H   0  0  0  0  0  0
  -22.0600   -2.7599   23.2839 H   0  0  0  0  0  0
  -22.4021  -11.9856   22.4891 H   0  0  0  0  0  0
  -21.0995  -13.1182   22.2657 H   0  0  0  0  0  0
  -24.6227  -15.8463   20.5264 H   0  0  0  0  0  0
  -26.2373  -15.6372   20.0723 H   0  0  0  0  0  0
  -26.7389  -32.5098   23.0866 H   0  0  0  0  0  0
  -25.0046  -33.9452   25.0160 H   0  0  0  0  0  0
  -22.7972  -31.2602   21.3406 H   0  0  0  0  0  0
  -23.3761  -35.9528   23.3294 H   0  0  0  0  0  0
  -24.3570  -36.8869   22.2070 H   0  0  0  0  0  0
  -23.7253  -37.6387   23.6720 H   0  0  0  0  0  0
  -26.2310  -31.3566   20.6180 H   0  0  0  0  0  0
  -26.9107  -30.6784   22.0551 H   0  0  0  0  0  0
  -28.1534  -28.5751   21.2793 H   0  0  0  0  0  0
  -25.8811  -25.6979   19.0265 H   0  0  0  0  0  0
  -24.0069  -27.2416   18.9652 H   0  0  0  0  0  0
  -23.8845  -30.5029   19.3843 H   0  0  0  0  0  0
  -22.8323  -29.1934   19.8266 H   0  0  0  0  0  0
  -25.1337  -36.1751   25.0789 H   0  0  0  0  0  0
  -21.0032  -28.3363   24.1309 H   0  0  0  0  0  0
  -20.5673  -26.2371   23.3644 H   0  0  0  0  0  0
  -21.6661  -26.7402   22.1221 H   0  0  0  0  0  0
  -19.6931  -25.6273   21.1280 H   0  0  0  0  0  0
  -19.6710  -27.3154   20.6718 H   0  0  0  0  0  0
  -17.4220  -26.6681   21.4030 H   0  0  0  0  0  0
  -18.0350  -26.0094   22.9030 H   0  0  0  0  0  0
  -19.7969  -30.7317   24.2207 H   0  0  0  0  0  0
  -17.5041  -31.6275   24.5157 H   0  0  0  0  0  0
  -15.5379  -30.2974   23.7690 H   0  0  0  0  0  0
  -15.8705  -28.0807   22.7111 H   0  0  0  0  0  0
  -24.5862  -30.7135   25.7661 H   0  0  0  0  0  0
  -24.8859  -32.2995   26.4657 H   0  0  0  0  0  0
  -25.7901  -30.9036   27.0209 H   0  0  0  0  0  0
  -26.3134  -29.6557   24.1435 H   0  0  0  0  0  0
  -27.3962  -29.7273   25.5116 H   0  0  0  0  0  0
  -27.9084  -30.4072   23.9882 H   0  0  0  0  0  0
  -27.2615  -33.3682   26.1955 H   0  0  0  0  0  0
  -28.3920  -32.6840   25.0368 H   0  0  0  0  0  0
  -28.0648  -31.8548   26.5512 H   0  0  0  0  0  0
  -28.2580  -38.0062   24.7492 H   0  0  0  0  0  0
  -28.1067  -36.2588   24.6321 H   0  0  0  0  0  0
  -27.2281  -37.1435   25.8872 H   0  0  0  0  0  0
  -20.9598  -29.8720   21.6648 H   0  0  0  0  0  0
  -26.0128  -38.2755   24.1394 H   0  0  0  0  0  0
  -32.6565  -23.6395   20.5838 H   0  0  0  0  0  0
  -32.2842  -22.4469   19.3511 H   0  0  0  0  0  0
  -29.1155  -18.9101   22.3111 H   0  0  0  0  0  0
  -27.5068  -19.0163   21.6558 H   0  0  0  0  0  0
  -31.5112  -22.3541   22.3331 H   0  0  0  0  0  0
  -32.7483  -21.3916   21.5533 H   0  0  0  0  0  0
  -27.6877  -16.7932   20.6072 H   0  0  0  0  0  0
  -28.5283  -16.5595   22.1203 H   0  0  0  0  0  0
  -31.1118  -18.3431   20.3823 H   0  0  0  0  0  0
  -30.3501  -18.1193   18.8526 H   0  0  0  0  0  0
  -28.3594  -19.5622   19.4445 H   0  0  0  0  0  0
  -30.8014  -25.6876   20.3320 H   0  0  0  0  0  0
  -30.0230  -25.2534   18.7840 H   0  0  0  0  0  0
  -31.7244  -25.0443   18.9795 H   0  0  0  0  0  0
  -27.3164  -23.8394   20.8182 H   0  0  0  0  0  0
  -27.6718  -23.9587   19.1310 H   0  0  0  0  0  0
  1 25  1  0  0  0
  1 30  2  0  0  0
  1 83  1  0  0  0
  2  3  1  0  0  0
  2 25  1  0  0  0
  2 84  1  0  0  0
  2 85  1  0  0  0
  3  4  1  0  0  0
  3 86  1  0  0  0
  3 87  1  0  0  0
  4  5  1  0  0  0
  4 88  1  0  0  0
  4 89  1  0  0  0
  5  6  1  0  0  0
  5 26  1  0  0  0
  5 90  1  0  0  0
  6 25  1  0  0  0
  6 91  1  0  0  0
  6 92  1  0  0  0
  7  8  2  0  0  0
  7 26  1  0  0  0
  7 29  1  0  0  0
  8  9  1  0  0  0
  8 22  1  0  0  0
  9 10  1  0  0  0
  9 27  2  0  0  0
 10 11  2  0  0  0
 10 15  1  0  0  0
 11 12  1  0  0  0
 11 93  1  0  0  0
 12 13  2  0  0  0
 12 94  1  0  0  0
 13 14  1  0  0  0
 13 31  1  0  0  0
 14 15  2  0  0  0
 14 95  1  0  0  0
 15 96  1  0  0  0
 16 17  2  0  0  0
 16 21  1  0  0  0
 16 31  1  0  0  0
 17 18  1  0  0  0
 17 97  1  0  0  0
 18 19  2  0  0  0
 18 98  1  0  0  0
 19 20  1  0  0  0
 19 24  1  0  0  0
 20 21  2  0  0  0
 20 99  1  0  0  0
 21 23  1  0  0  0
 22 28  1  0  0  0
 22 32  2  0  0  0
 26 27  1  0  0  0
 28100  1  0  0  0
 28101  1  0  0  0
 29102  1  0  0  0
 29103  1  0  0  0
 33 34  1  0  0  0
 33 66  1  0  0  0
 33 70  2  0  0  0
 34 36  1  0  0  0
 34 59  1  0  0  0
 34104  1  0  0  0
 35 44  2  0  0  0
 35 45  1  0  0  0
 35 68  1  0  0  0
 36 56  1  0  0  0
 36105  1  0  0  0
 37 39  1  0  0  0
 37 47  1  0  0  0
 37 66  1  0  0  0
 37106  1  0  0  0
 38 43  2  0  0  0
 38 46  1  0  0  0
 38 47  1  0  0  0
 39 64  1  0  0  0
 39 67  2  0  0  0
 40 52  1  0  0  0
 40 53  2  0  0  0
 40 58  1  0  0  0
 41107  1  0  0  0
 41108  1  0  0  0
 41109  1  0  0  0
 41 48  1  0  0  0
 42 43  1  0  0  0
 42 66  1  0  0  0
 42110  1  0  0  0
 42111  1  0  0  0
 43 44  1  0  0  0
 44112  1  0  0  0
 45 46  2  0  0  0
 45113  1  0  0  0
 46114  1  0  0  0
 47115  1  0  0  0
 47116  1  0  0  0
 48 56  1  0  0  0
 48 65  1  0  0  0
 48117  1  0  0  0
 49 50  1  0  0  0
 49 53  1  0  0  0
 49 64  1  0  0  0
 49118  1  0  0  0
 50 51  1  0  0  0
 50119  1  0  0  0
 50120  1  0  0  0
 51 52  1  0  0  0
 51121  1  0  0  0
 51122  1  0  0  0
 52123  1  0  0  0
 52124  1  0  0  0
 53 54  1  0  0  0
 54 55  2  0  0  0
 54125  1  0  0  0
 55 57  1  0  0  0
 55126  1  0  0  0
 56 69  2  0  0  0
 57 58  2  0  0  0
 57127  1  0  0  0
 58128  1  0  0  0
 59 60  1  0  0  0
 59 61  1  0  0  0
 59 62  1  0  0  0
 60129  1  0  0  0
 60130  1  0  0  0
 60131  1  0  0  0
 61132  1  0  0  0
 61133  1  0  0  0
 61134  1  0  0  0
 62135  1  0  0  0
 62136  1  0  0  0
 62137  1  0  0  0
 63 65  1  0  0  0
 63138  1  0  0  0
 63139  1  0  0  0
 63140  1  0  0  0
 64141  1  0  0  0
 65142  1  0  0  0
 68 81  1  0  0  0
 71 72  2  0  0  0
 71 73  1  0  0  0
 71 81  1  0  0  0
 72 74  1  0  0  0
 72 80  1  0  0  0
 73 82  2  0  0  0
 73 79  1  0  0  0
 74 76  1  0  0  0
 74143  1  0  0  0
 74144  1  0  0  0
 75 77  1  0  0  0
 75 79  1  0  0  0
 75145  1  0  0  0
 75146  1  0  0  0
 76 82  1  0  0  0
 76147  1  0  0  0
 76148  1  0  0  0
 77 83  1  0  0  0
 77149  1  0  0  0
 77150  1  0  0  0
 78 79  1  0  0  0
 78 83  1  0  0  0
 78151  1  0  0  0
 78152  1  0  0  0
 79153  1  0  0  0
 80154  1  0  0  0
 80155  1  0  0  0
 80156  1  0  0  0
 81157  1  0  0  0
 81158  1  0  0  0
M  ISO  4   1 100  68 101  81 101  83 100
M  END
> <chiral flag>
0

> <version>
0

> <s_m_source_file>
/data/baiqing/PycharmProjects/Reinvent-master-3.2/result/LINK_invent/BTK/process_docking_weight1_custom_sum_contain_oxygen_bond_distance_aromatic_linkinvent_7_9_3/rearranged_h_0177.sdf

> <i_m_source_file_index>
18

> <r_mmod_Potential_Energy-OPLS-2005>
1840.15344238281

> <r_mmod_Stretch_Energy-OPLS-2005>
687.268798828125

> <r_mmod_Bend_Energy-OPLS-2005>
621.947387695312

> <r_mmod_Torsional_Energy-OPLS-2005>
348.367370605469

> <r_mmod_Improper_Torsional_Energy-OPLS-2005>
8.73520469665527

> <r_mmod_Van_der_Waal_Energy-OPLS-2005>
135.585723876953

> <r_mmod_Electrostatic_Energy-OPLS-2005>
-248.357696533203

> <r_mmod_Solvation_Energy-OPLS-2005>
-212.239852905273

> <b_mmod_Minimization_Converged-OPLS-2005>
0

> <r_mmod_RMS_Derivative-OPLS-2005>
1.32485735416412

$$$$
18
                    3D
 Structure written by MMmdl.
152161  0  0  1  0            999 V2000
  -30.5638  -15.0051   20.4025 C   0  0  0  0  0  0
  -30.4337  -12.6258   19.5114 C   0  0  0  0  0  0
  -29.5205  -12.5248   18.2679 C   0  0  0  0  0  0
  -28.0620  -12.2922   18.6977 C   0  0  0  0  0  0
  -27.6235  -13.2569   19.8299 C   0  0  2  0  0  0
  -28.6639  -13.3464   20.9680 C   0  0  0  0  0  0
  -25.2463  -13.8240   20.5766 C   0  0  0  0  0  0
  -24.1762  -13.0459   20.9232 C   0  0  0  0  0  0
  -24.6386  -11.6941   20.8754 C   0  0  0  0  0  0
  -23.9073  -10.4299   21.0398 C   0  0  0  0  0  0
  -24.3621   -9.4214   21.9178 C   0  0  0  0  0  0
  -23.6294   -8.2243   22.0745 C   0  0  0  0  0  0
  -22.4280   -8.0277   21.3535 C   0  0  0  0  0  0
  -21.9916   -9.0248   20.4639 C   0  0  0  0  0  0
  -22.7241  -10.2131   20.3046 C   0  0  0  0  0  0
  -21.6851   -6.0741   22.5274 C   0  0  0  0  0  0
  -21.4015   -6.5636   23.8209 C   0  0  0  0  0  0
  -21.3656   -5.6783   24.9166 C   0  0  0  0  0  0
  -21.6042   -4.3051   24.7219 C   0  0  0  0  0  0
  -21.8814   -3.8152   23.4339 C   0  0  0  0  0  0
  -21.9192   -4.6971   22.3400 C   0  0  0  0  0  0
  -22.7772  -13.5217   21.1887 C   0  0  0  0  0  0
  -22.1657   -4.2155   21.0984 F   0  0  0  0  0  0
  -21.5631   -3.4544   25.7735 F   0  0  0  0  0  0
  -29.9371  -13.7532   20.3596 N   0  0  0  0  0  0
  -26.2870  -12.9480   20.3248 N   0  0  0  0  0  0
  -25.9329  -11.6605   20.5741 N   0  0  0  0  0  0
  -22.0435  -12.8189   22.0435 N   0  0  0  0  0  0
  -25.4216  -15.1971   20.4299 N   0  0  0  0  0  0
  -31.7708  -15.0104   20.1372 O   0  0  0  0  0  0
  -21.6646   -6.8884   21.4235 O   0  0  0  0  0  0
  -22.3456  -14.5521   20.6735 O   0  0  0  0  0  0
  -24.6472  -31.8403   23.1872 C   0  0  0  0  0  0
  -25.9222  -32.4685   23.8278 C   0  0  1  0  0  0
  -27.2172  -27.0935   20.1603 C   0  0  0  0  0  0
  -25.5947  -33.8495   24.2187 N   0  0  0  0  0  0
  -23.4545  -30.4601   21.5313 C   0  0  2  0  0  0
  -24.9086  -28.8871   20.1105 C   0  0  0  0  0  0
  -22.7597  -29.4523   22.4832 C   0  0  0  0  0  0
  -18.0297  -28.1418   22.8465 C   0  0  0  0  0  0
  -24.1482  -36.7234   23.2637 C   0  0  0  0  0  0
  -26.0157  -30.7030   21.3934 C   0  0  0  0  0  0
  -26.0878  -29.3096   20.7373 C   0  0  0  0  0  0
  -27.2420  -28.4305   20.7463 C   0  0  0  0  0  0
  -26.0119  -26.7951   19.4809 C   0  0  0  0  0  0
  -24.8869  -27.6449   19.4659 C   0  0  0  0  0  0
  -23.6862  -29.7920   20.1511 C   0  0  0  0  0  0
  -25.4116  -36.3020   24.0320 C   0  0  1  0  0  0
  -20.5919  -28.3745   23.1236 C   0  0  2  0  0  0
  -20.6787  -26.9442   22.5411 C   0  0  0  0  0  0
  -19.5763  -26.6392   21.5218 C   0  0  0  0  0  0
  -18.1930  -26.7957   22.1607 C   0  0  0  0  0  0
  -19.1557  -28.8904   23.2844 C   0  0  0  0  0  0
  -18.9474  -30.1490   23.8891 C   0  0  0  0  0  0
  -17.6478  -30.6610   24.0570 C   0  0  0  0  0  0
  -25.9073  -34.9402   23.5068 C   0  0  0  0  0  0
  -16.5364  -29.9105   23.6349 C   0  0  0  0  0  0
  -16.7284  -28.6525   23.0362 C   0  0  0  0  0  0
  -26.4541  -31.6568   25.0731 C   0  0  0  0  0  0
  -25.3705  -31.3765   26.1416 C   0  0  0  0  0  0
  -27.0384  -30.2954   24.6323 C   0  0  0  0  0  0
  -27.6083  -32.4339   25.7476 C   0  0  0  0  0  0
  -27.5589  -37.1744   24.8448 C   0  0  0  0  0  0
  -21.4283  -29.3065   22.3604 N   0  0  0  0  0  0
  -26.4257  -37.3759   23.9452 N   0  0  0  0  0  0
  -24.7259  -31.0227   22.0921 N   0  0  0  0  0  0
  -23.4221  -28.8047   23.2979 O   0  0  0  0  0  0
  -28.2314  -26.0516   20.2569 O   0  0  0  0  0  0
  -26.5667  -34.8908   22.4648 O   0  0  0  0  0  0
  -23.5579  -32.1293   23.7059 O   0  0  0  0  0  0
  -29.1734  -20.1358   20.4996 C   0  0  0  0  0  0
  -29.1664  -22.2266   19.2339 C   0  0  0  0  0  0
  -28.6090  -23.0786   20.2702 C   0  0  0  0  0  0
  -28.6592  -20.9944   21.5502 C   0  0  0  0  0  0
  -29.2971  -17.2440   19.6146 C   0  0  0  0  0  0
  -30.5168  -17.5243   21.1762 C   0  0  0  0  0  0
  -29.3581  -18.4636   20.6384 C   0  0  0  0  0  0
  -29.3846  -22.8066   17.8518 C   0  0  0  0  0  0
  -27.8363  -24.5480   20.0099 C   0  0  0  0  0  0
  -29.4591  -20.8513   19.3481 N   0  0  0  0  0  0
  -28.3864  -22.3678   21.4329 N   0  0  0  0  0  0
  -29.8738  -16.2496   20.6262 N   0  0  0  0  0  0
  -28.3194  -20.2983   23.0935 Cl  0  0  0  0  0  0
  -31.4667  -12.7720   19.1939 H   0  0  0  0  0  0
  -30.4298  -11.6923   20.0767 H   0  0  0  0  0  0
  -29.8532  -11.7134   17.6186 H   0  0  0  0  0  0
  -29.5900  -13.4416   17.6815 H   0  0  0  0  0  0
  -27.9881  -11.2627   19.0527 H   0  0  0  0  0  0
  -27.3882  -12.3654   17.8423 H   0  0  0  0  0  0
  -27.5698  -14.2419   19.3644 H   0  0  0  0  0  0
  -28.7618  -12.3962   21.4945 H   0  0  0  0  0  0
  -28.3516  -14.0868   21.7067 H   0  0  0  0  0  0
  -25.2764   -9.5694   22.4746 H   0  0  0  0  0  0
  -24.0006   -7.4643   22.7469 H   0  0  0  0  0  0
  -21.0843   -8.8765   19.8949 H   0  0  0  0  0  0
  -22.3694  -10.9669   19.6147 H   0  0  0  0  0  0
  -21.1998   -7.6142   23.9711 H   0  0  0  0  0  0
  -21.1482   -6.0521   25.9065 H   0  0  0  0  0  0
  -22.0596   -2.7615   23.2843 H   0  0  0  0  0  0
  -22.4060  -11.9844   22.4801 H   0  0  0  0  0  0
  -21.1042  -13.1185   22.2648 H   0  0  0  0  0  0
  -24.6747  -15.8649   20.5830 H   0  0  0  0  0  0
  -26.2989  -15.6318   20.1760 H   0  0  0  0  0  0
  -26.7274  -32.5293   23.0993 H   0  0  0  0  0  0
  -25.0109  -33.9616   25.0343 H   0  0  0  0  0  0
  -22.7591  -31.2877   21.3740 H   0  0  0  0  0  0
  -23.3790  -35.9507   23.3202 H   0  0  0  0  0  0
  -24.3585  -36.8967   22.2069 H   0  0  0  0  0  0
  -23.7166  -37.6371   23.6738 H   0  0  0  0  0  0
  -26.1766  -31.4534   20.6174 H   0  0  0  0  0  0
  -26.8842  -30.7563   22.0385 H   0  0  0  0  0  0
  -28.1338  -28.7463   21.2702 H   0  0  0  0  0  0
  -25.8833  -25.8524   18.9722 H   0  0  0  0  0  0
  -23.9895  -27.3178   18.9601 H   0  0  0  0  0  0
  -23.8284  -30.5676   19.3975 H   0  0  0  0  0  0
  -22.8019  -29.2357   19.8350 H   0  0  0  0  0  0
  -25.1285  -36.1823   25.0805 H   0  0  0  0  0  0
  -21.0016  -28.3333   24.1360 H   0  0  0  0  0  0
  -20.5688  -26.2358   23.3632 H   0  0  0  0  0  0
  -21.6653  -26.7445   22.1207 H   0  0  0  0  0  0
  -19.6938  -25.6299   21.1258 H   0  0  0  0  0  0
  -19.6718  -27.3203   20.6747 H   0  0  0  0  0  0
  -17.4216  -26.6736   21.3980 H   0  0  0  0  0  0
  -18.0303  -26.0090   22.8995 H   0  0  0  0  0  0
  -19.7946  -30.7298   24.2269 H   0  0  0  0  0  0
  -17.5021  -31.6279   24.5178 H   0  0  0  0  0  0
  -15.5369  -30.3008   23.7683 H   0  0  0  0  0  0
  -15.8672  -28.0842   22.7109 H   0  0  0  0  0  0
  -24.5949  -30.7032   25.7757 H   0  0  0  0  0  0
  -24.8813  -32.2931   26.4726 H   0  0  0  0  0  0
  -25.7981  -30.9050   27.0274 H   0  0  0  0  0  0
  -26.3003  -29.6685   24.1316 H   0  0  0  0  0  0
  -27.3973  -29.7259   25.4906 H   0  0  0  0  0  0
  -27.8925  -30.4187   23.9660 H   0  0  0  0  0  0
  -27.2733  -33.3724   26.1914 H   0  0  0  0  0  0
  -28.3945  -32.6765   25.0305 H   0  0  0  0  0  0
  -28.0688  -31.8543   26.5489 H   0  0  0  0  0  0
  -28.2513  -38.0131   24.7628 H   0  0  0  0  0  0
  -28.1174  -36.2676   24.6079 H   0  0  0  0  0  0
  -27.2336  -37.1160   25.8847 H   0  0  0  0  0  0
  -20.9514  -29.8797   21.6788 H   0  0  0  0  0  0
  -26.0108  -38.2791   24.1569 H   0  0  0  0  0  0
  -29.9397  -17.3983   18.7439 H   0  0  0  0  0  0
  -28.2820  -17.0209   19.2842 H   0  0  0  0  0  0
  -30.6067  -17.5444   22.2622 H   0  0  0  0  0  0
  -31.4872  -17.7522   20.7271 H   0  0  0  0  0  0
  -28.5176  -18.2600   21.3025 H   0  0  0  0  0  0
  -29.8796  -23.7758   17.9225 H   0  0  0  0  0  0
  -28.4270  -22.9466   17.3484 H   0  0  0  0  0  0
  -30.0041  -22.1568   17.2337 H   0  0  0  0  0  0
  -26.8887  -24.4197   20.5352 H   0  0  0  0  0  0
  -27.5774  -24.5126   18.9530 H   0  0  0  0  0  0
  1 25  1  0  0  0
  1 30  2  0  0  0
  1 82  1  0  0  0
  2  3  1  0  0  0
  2 25  1  0  0  0
  2 84  1  0  0  0
  2 85  1  0  0  0
  3  4  1  0  0  0
  3 86  1  0  0  0
  3 87  1  0  0  0
  4  5  1  0  0  0
  4 88  1  0  0  0
  4 89  1  0  0  0
  5  6  1  0  0  0
  5 26  1  0  0  0
  5 90  1  0  0  0
  6 25  1  0  0  0
  6 91  1  0  0  0
  6 92  1  0  0  0
  7  8  2  0  0  0
  7 26  1  0  0  0
  7 29  1  0  0  0
  8  9  1  0  0  0
  8 22  1  0  0  0
  9 10  1  0  0  0
  9 27  2  0  0  0
 10 11  2  0  0  0
 10 15  1  0  0  0
 11 12  1  0  0  0
 11 93  1  0  0  0
 12 13  2  0  0  0
 12 94  1  0  0  0
 13 14  1  0  0  0
 13 31  1  0  0  0
 14 15  2  0  0  0
 14 95  1  0  0  0
 15 96  1  0  0  0
 16 17  2  0  0  0
 16 21  1  0  0  0
 16 31  1  0  0  0
 17 18  1  0  0  0
 17 97  1  0  0  0
 18 19  2  0  0  0
 18 98  1  0  0  0
 19 20  1  0  0  0
 19 24  1  0  0  0
 20 21  2  0  0  0
 20 99  1  0  0  0
 21 23  1  0  0  0
 22 28  1  0  0  0
 22 32  2  0  0  0
 26 27  1  0  0  0
 28100  1  0  0  0
 28101  1  0  0  0
 29102  1  0  0  0
 29103  1  0  0  0
 33 34  1  0  0  0
 33 66  1  0  0  0
 33 70  2  0  0  0
 34 36  1  0  0  0
 34 59  1  0  0  0
 34104  1  0  0  0
 35 44  2  0  0  0
 35 45  1  0  0  0
 35 68  1  0  0  0
 36 56  1  0  0  0
 36105  1  0  0  0
 37 39  1  0  0  0
 37 47  1  0  0  0
 37 66  1  0  0  0
 37106  1  0  0  0
 38 43  2  0  0  0
 38 46  1  0  0  0
 38 47  1  0  0  0
 39 64  1  0  0  0
 39 67  2  0  0  0
 40 52  1  0  0  0
 40 53  2  0  0  0
 40 58  1  0  0  0
 41107  1  0  0  0
 41108  1  0  0  0
 41109  1  0  0  0
 41 48  1  0  0  0
 42 43  1  0  0  0
 42 66  1  0  0  0
 42110  1  0  0  0
 42111  1  0  0  0
 43 44  1  0  0  0
 44112  1  0  0  0
 45 46  2  0  0  0
 45113  1  0  0  0
 46114  1  0  0  0
 47115  1  0  0  0
 47116  1  0  0  0
 48 56  1  0  0  0
 48 65  1  0  0  0
 48117  1  0  0  0
 49 50  1  0  0  0
 49 53  1  0  0  0
 49 64  1  0  0  0
 49118  1  0  0  0
 50 51  1  0  0  0
 50119  1  0  0  0
 50120  1  0  0  0
 51 52  1  0  0  0
 51121  1  0  0  0
 51122  1  0  0  0
 52123  1  0  0  0
 52124  1  0  0  0
 53 54  1  0  0  0
 54 55  2  0  0  0
 54125  1  0  0  0
 55 57  1  0  0  0
 55126  1  0  0  0
 56 69  2  0  0  0
 57 58  2  0  0  0
 57127  1  0  0  0
 58128  1  0  0  0
 59 60  1  0  0  0
 59 61  1  0  0  0
 59 62  1  0  0  0
 60129  1  0  0  0
 60130  1  0  0  0
 60131  1  0  0  0
 61132  1  0  0  0
 61133  1  0  0  0
 61134  1  0  0  0
 62135  1  0  0  0
 62136  1  0  0  0
 62137  1  0  0  0
 63 65  1  0  0  0
 63138  1  0  0  0
 63139  1  0  0  0
 63140  1  0  0  0
 64141  1  0  0  0
 65142  1  0  0  0
 68 79  1  0  0  0
 71 74  1  0  0  0
 71 80  2  0  0  0
 71 77  1  0  0  0
 72 73  2  0  0  0
 72 78  1  0  0  0
 72 80  1  0  0  0
 73 79  1  0  0  0
 73 81  1  0  0  0
 74 81  2  0  0  0
 74 83  1  0  0  0
 75 77  1  0  0  0
 75 82  1  0  0  0
 75143  1  0  0  0
 75144  1  0  0  0
 76 77  1  0  0  0
 76 82  1  0  0  0
 76145  1  0  0  0
 76146  1  0  0  0
 77147  1  0  0  0
 78148  1  0  0  0
 78149  1  0  0  0
 78150  1  0  0  0
 79151  1  0  0  0
 79152  1  0  0  0
M  ISO  4   1 100  68 101  79 101  82 100
M  END
> <chiral flag>
0

> <version>
0

> <s_m_source_file>
/data/baiqing/PycharmProjects/Reinvent-master-3.2/result/LINK_invent/BTK/process_docking_weight1_custom_sum_contain_oxygen_bond_distance_aromatic_linkinvent_7_9_3/rearranged_h_0177.sdf

> <i_m_source_file_index>
19

> <r_mmod_Potential_Energy-OPLS-2005>
779.701293945312

> <r_mmod_Stretch_Energy-OPLS-2005>
276.259674072266

> <r_mmod_Bend_Energy-OPLS-2005>
313.546997070312

> <r_mmod_Torsional_Energy-OPLS-2005>
269.844421386719

> <r_mmod_Improper_Torsional_Energy-OPLS-2005>
13.1604471206665

> <r_mmod_Van_der_Waal_Energy-OPLS-2005>
137.682342529297

> <r_mmod_Electrostatic_Energy-OPLS-2005>
-253.624130249023

> <r_mmod_Solvation_Energy-OPLS-2005>
-217.382873535156

> <b_mmod_Minimization_Converged-OPLS-2005>
0

> <r_mmod_RMS_Derivative-OPLS-2005>
2.30816984176636

$$$$
19
                    3D
 Structure written by MMmdl.
155164  0  0  1  0            999 V2000
  -30.4288  -15.2184   20.3738 C   0  0  0  0  0  0
  -30.4480  -12.7728   19.5146 C   0  0  0  0  0  0
  -29.5370  -12.5714   18.2775 C   0  0  0  0  0  0
  -28.0815  -12.3023   18.7035 C   0  0  0  0  0  0
  -27.6156  -13.2667   19.8231 C   0  0  2  0  0  0
  -28.6542  -13.4070   20.9560 C   0  0  0  0  0  0
  -25.2394  -13.8203   20.5739 C   0  0  0  0  0  0
  -24.1746  -13.0408   20.9269 C   0  0  0  0  0  0
  -24.6398  -11.6909   20.8767 C   0  0  0  0  0  0
  -23.9090  -10.4277   21.0408 C   0  0  0  0  0  0
  -24.3634   -9.4194   21.9187 C   0  0  0  0  0  0
  -23.6302   -8.2234   22.0757 C   0  0  0  0  0  0
  -22.4284   -8.0277   21.3547 C   0  0  0  0  0  0
  -21.9923   -9.0251   20.4647 C   0  0  0  0  0  0
  -22.7261  -10.2124   20.3057 C   0  0  0  0  0  0
  -21.6851   -6.0736   22.5281 C   0  0  0  0  0  0
  -21.4012   -6.5640   23.8214 C   0  0  0  0  0  0
  -21.3659   -5.6792   24.9175 C   0  0  0  0  0  0
  -21.6047   -4.3055   24.7225 C   0  0  0  0  0  0
  -21.8817   -3.8147   23.4344 C   0  0  0  0  0  0
  -21.9190   -4.6965   22.3401 C   0  0  0  0  0  0
  -22.7765  -13.5177   21.1907 C   0  0  0  0  0  0
  -22.1660   -4.2150   21.0979 F   0  0  0  0  0  0
  -21.5628   -3.4539   25.7737 F   0  0  0  0  0  0
  -29.8923  -13.9049   20.3343 N   0  0  0  0  0  0
  -26.2830  -12.9478   20.3202 N   0  0  0  0  0  0
  -25.9334  -11.6592   20.5712 N   0  0  0  0  0  0
  -22.0410  -12.8171   22.0459 N   0  0  0  0  0  0
  -25.3973  -15.1931   20.4158 N   0  0  0  0  0  0
  -31.6534  -15.2600   20.1831 O   0  0  0  0  0  0
  -21.6639   -6.8881   21.4245 O   0  0  0  0  0  0
  -22.3455  -14.5479   20.6735 O   0  0  0  0  0  0
  -24.6598  -31.8266   23.1729 C   0  0  0  0  0  0
  -25.9294  -32.4605   23.8185 C   0  0  1  0  0  0
  -27.2227  -26.9596   20.1841 C   0  0  0  0  0  0
  -25.5972  -33.8418   24.2090 N   0  0  0  0  0  0
  -23.4729  -30.4382   21.5221 C   0  0  2  0  0  0
  -24.9261  -28.8282   20.1169 C   0  0  0  0  0  0
  -22.7650  -29.4455   22.4803 C   0  0  0  0  0  0
  -18.0317  -28.1407   22.8465 C   0  0  0  0  0  0
  -24.1492  -36.7215   23.2646 C   0  0  0  0  0  0
  -26.0401  -30.6444   21.3971 C   0  0  0  0  0  0
  -26.1099  -29.2359   20.7441 C   0  0  0  0  0  0
  -27.2551  -28.3242   20.7489 C   0  0  0  0  0  0
  -26.0076  -26.6934   19.5143 C   0  0  0  0  0  0
  -24.8980  -27.5760   19.4822 C   0  0  0  0  0  0
  -23.7112  -29.7530   20.1489 C   0  0  0  0  0  0
  -25.4134  -36.2979   24.0300 C   0  0  1  0  0  0
  -20.5938  -28.3748   23.1196 C   0  0  2  0  0  0
  -20.6795  -26.9434   22.5402 C   0  0  0  0  0  0
  -19.5773  -26.6379   21.5210 C   0  0  0  0  0  0
  -18.1954  -26.7941   22.1618 C   0  0  0  0  0  0
  -19.1577  -28.8899   23.2817 C   0  0  0  0  0  0
  -18.9488  -30.1489   23.8852 C   0  0  0  0  0  0
  -17.6482  -30.6597   24.0554 C   0  0  0  0  0  0
  -25.9096  -34.9360   23.5016 C   0  0  0  0  0  0
  -16.5372  -29.9084   23.6344 C   0  0  0  0  0  0
  -16.7298  -28.6504   23.0360 C   0  0  0  0  0  0
  -26.4556  -31.6538   25.0702 C   0  0  0  0  0  0
  -25.3687  -31.3776   26.1360 C   0  0  0  0  0  0
  -27.0451  -30.2911   24.6410 C   0  0  0  0  0  0
  -27.6053  -32.4341   25.7503 C   0  0  0  0  0  0
  -27.5572  -37.1764   24.8465 C   0  0  0  0  0  0
  -21.4323  -29.3041   22.3550 N   0  0  0  0  0  0
  -26.4283  -37.3710   23.9406 N   0  0  0  0  0  0
  -24.7455  -30.9959   22.0847 N   0  0  0  0  0  0
  -23.4212  -28.8026   23.3035 O   0  0  0  0  0  0
  -28.2537  -25.8910   20.2169 O   0  0  0  0  0  0
  -26.5704  -34.8889   22.4611 O   0  0  0  0  0  0
  -23.5676  -32.1221   23.6843 O   0  0  0  0  0  0
  -30.2130  -20.3767   20.9322 C   0  0  0  0  0  0
  -29.1235  -21.1425   20.3090 C   0  0  0  0  0  0
  -28.4631  -18.8015   19.7253 C   0  0  0  0  0  0
  -29.5511  -18.0262   20.3446 C   0  0  0  0  0  0
  -31.7575  -20.7323   23.0220 C   0  0  0  0  0  0
  -31.0681  -22.0456   22.7648 C   0  0  0  0  0  0
  -31.3369  -21.0993   21.6132 C   0  0  0  0  0  0
  -27.3651  -18.0655   18.9826 C   0  0  0  0  0  0
  -29.0989  -22.8717   20.0360 C   0  0  0  0  0  0
  -28.0318  -24.2676   20.3416 C   0  0  0  0  0  0
  -30.4018  -18.9588   20.9378 N   0  0  0  0  0  0
  -28.2858  -20.2190   19.6867 N   0  0  0  0  0  0
  -29.5709  -16.4154   20.3837 N   0  0  0  0  0  0
  -31.4673  -12.9822   19.1869 H   0  0  0  0  0  0
  -30.5102  -11.8576   20.1056 H   0  0  0  0  0  0
  -29.9082  -11.7520   17.6604 H   0  0  0  0  0  0
  -29.5736  -13.4657   17.6530 H   0  0  0  0  0  0
  -28.0284  -11.2737   19.0625 H   0  0  0  0  0  0
  -27.4138  -12.3602   17.8431 H   0  0  0  0  0  0
  -27.5381  -14.2409   19.3393 H   0  0  0  0  0  0
  -28.8104  -12.4598   21.4741 H   0  0  0  0  0  0
  -28.3047  -14.1170   21.7071 H   0  0  0  0  0  0
  -25.2778   -9.5667   22.4765 H   0  0  0  0  0  0
  -24.0004   -7.4625   22.7480 H   0  0  0  0  0  0
  -21.0853   -8.8779   19.8956 H   0  0  0  0  0  0
  -22.3727  -10.9665   19.6167 H   0  0  0  0  0  0
  -21.2009   -7.6149   23.9719 H   0  0  0  0  0  0
  -21.1483   -6.0522   25.9079 H   0  0  0  0  0  0
  -22.0597   -2.7610   23.2844 H   0  0  0  0  0  0
  -22.4032  -11.9848   22.4869 H   0  0  0  0  0  0
  -21.1020  -13.1191   22.2645 H   0  0  0  0  0  0
  -24.6131  -15.8288   20.5159 H   0  0  0  0  0  0
  -26.2107  -15.6285   20.0094 H   0  0  0  0  0  0
  -26.7363  -32.5155   23.0903 H   0  0  0  0  0  0
  -25.0071  -33.9500   25.0208 H   0  0  0  0  0  0
  -22.7844  -31.2686   21.3524 H   0  0  0  0  0  0
  -23.3766  -35.9534   23.3282 H   0  0  0  0  0  0
  -24.3568  -36.8887   22.2066 H   0  0  0  0  0  0
  -23.7240  -37.6392   23.6717 H   0  0  0  0  0  0
  -26.2148  -31.3866   20.6171 H   0  0  0  0  0  0
  -26.9021  -30.7022   22.0498 H   0  0  0  0  0  0
  -28.1568  -28.6396   21.2547 H   0  0  0  0  0  0
  -25.8885  -25.7417   19.0179 H   0  0  0  0  0  0
  -23.9987  -27.2581   18.9728 H   0  0  0  0  0  0
  -23.8649  -30.5203   19.3894 H   0  0  0  0  0  0
  -22.8216  -29.2053   19.8331 H   0  0  0  0  0  0
  -25.1332  -36.1779   25.0790 H   0  0  0  0  0  0
  -21.0021  -28.3350   24.1321 H   0  0  0  0  0  0
  -20.5674  -26.2365   23.3637 H   0  0  0  0  0  0
  -21.6661  -26.7415   22.1211 H   0  0  0  0  0  0
  -19.6934  -25.6276   21.1273 H   0  0  0  0  0  0
  -19.6715  -27.3160   20.6716 H   0  0  0  0  0  0
  -17.4222  -26.6677   21.4022 H   0  0  0  0  0  0
  -18.0353  -26.0094   22.9027 H   0  0  0  0  0  0
  -19.7962  -30.7315   24.2204 H   0  0  0  0  0  0
  -17.5032  -31.6272   24.5165 H   0  0  0  0  0  0
  -15.5370  -30.2971   23.7693 H   0  0  0  0  0  0
  -15.8698  -28.0808   22.7103 H   0  0  0  0  0  0
  -24.5884  -30.7113   25.7663 H   0  0  0  0  0  0
  -24.8859  -32.2973   26.4673 H   0  0  0  0  0  0
  -25.7920  -30.9014   27.0212 H   0  0  0  0  0  0
  -26.3112  -29.6589   24.1400 H   0  0  0  0  0  0
  -27.3979  -29.7269   25.5054 H   0  0  0  0  0  0
  -27.9053  -30.4104   23.9821 H   0  0  0  0  0  0
  -27.2628  -33.3682   26.1967 H   0  0  0  0  0  0
  -28.3924  -32.6835   25.0375 H   0  0  0  0  0  0
  -28.0657  -31.8543   26.5513 H   0  0  0  0  0  0
  -28.2572  -38.0076   24.7513 H   0  0  0  0  0  0
  -28.1086  -36.2602   24.6295 H   0  0  0  0  0  0
  -27.2287  -37.1412   25.8867 H   0  0  0  0  0  0
  -20.9573  -29.8728   21.6680 H   0  0  0  0  0  0
  -26.0134  -38.2770   24.1410 H   0  0  0  0  0  0
  -31.1891  -19.9602   23.5377 H   0  0  0  0  0  0
  -32.8190  -20.7687   23.2582 H   0  0  0  0  0  0
  -31.6779  -22.9444   22.8351 H   0  0  0  0  0  0
  -30.0414  -22.1477   23.1110 H   0  0  0  0  0  0
  -32.1163  -21.3709   20.9037 H   0  0  0  0  0  0
  -27.2722  -17.0319   19.3065 H   0  0  0  0  0  0
  -27.5731  -18.0661   17.9129 H   0  0  0  0  0  0
  -26.3996  -18.5462   19.1427 H   0  0  0  0  0  0
  -29.2953  -22.9322   18.9659 H   0  0  0  0  0  0
  -30.0416  -23.1956   20.4719 H   0  0  0  0  0  0
  -27.7255  -24.1506   21.3812 H   0  0  0  0  0  0
  -27.1266  -24.0519   19.7762 H   0  0  0  0  0  0
  -28.6238  -16.0764   20.3723 H   0  0  0  0  0  0
  1 25  1  0  0  0
  1 30  2  0  0  0
  1 83  1  0  0  0
  2  3  1  0  0  0
  2 25  1  0  0  0
  2 84  1  0  0  0
  2 85  1  0  0  0
  3  4  1  0  0  0
  3 86  1  0  0  0
  3 87  1  0  0  0
  4  5  1  0  0  0
  4 88  1  0  0  0
  4 89  1  0  0  0
  5  6  1  0  0  0
  5 26  1  0  0  0
  5 90  1  0  0  0
  6 25  1  0  0  0
  6 91  1  0  0  0
  6 92  1  0  0  0
  7  8  2  0  0  0
  7 26  1  0  0  0
  7 29  1  0  0  0
  8  9  1  0  0  0
  8 22  1  0  0  0
  9 10  1  0  0  0
  9 27  2  0  0  0
 10 11  2  0  0  0
 10 15  1  0  0  0
 11 12  1  0  0  0
 11 93  1  0  0  0
 12 13  2  0  0  0
 12 94  1  0  0  0
 13 14  1  0  0  0
 13 31  1  0  0  0
 14 15  2  0  0  0
 14 95  1  0  0  0
 15 96  1  0  0  0
 16 17  2  0  0  0
 16 21  1  0  0  0
 16 31  1  0  0  0
 17 18  1  0  0  0
 17 97  1  0  0  0
 18 19  2  0  0  0
 18 98  1  0  0  0
 19 20  1  0  0  0
 19 24  1  0  0  0
 20 21  2  0  0  0
 20 99  1  0  0  0
 21 23  1  0  0  0
 22 28  1  0  0  0
 22 32  2  0  0  0
 26 27  1  0  0  0
 28100  1  0  0  0
 28101  1  0  0  0
 29102  1  0  0  0
 29103  1  0  0  0
 33 34  1  0  0  0
 33 66  1  0  0  0
 33 70  2  0  0  0
 34 36  1  0  0  0
 34 59  1  0  0  0
 34104  1  0  0  0
 35 44  2  0  0  0
 35 45  1  0  0  0
 35 68  1  0  0  0
 36 56  1  0  0  0
 36105  1  0  0  0
 37 39  1  0  0  0
 37 47  1  0  0  0
 37 66  1  0  0  0
 37106  1  0  0  0
 38 43  2  0  0  0
 38 46  1  0  0  0
 38 47  1  0  0  0
 39 64  1  0  0  0
 39 67  2  0  0  0
 40 52  1  0  0  0
 40 53  2  0  0  0
 40 58  1  0  0  0
 41107  1  0  0  0
 41108  1  0  0  0
 41109  1  0  0  0
 41 48  1  0  0  0
 42 43  1  0  0  0
 42 66  1  0  0  0
 42110  1  0  0  0
 42111  1  0  0  0
 43 44  1  0  0  0
 44112  1  0  0  0
 45 46  2  0  0  0
 45113  1  0  0  0
 46114  1  0  0  0
 47115  1  0  0  0
 47116  1  0  0  0
 48 56  1  0  0  0
 48 65  1  0  0  0
 48117  1  0  0  0
 49 50  1  0  0  0
 49 53  1  0  0  0
 49 64  1  0  0  0
 49118  1  0  0  0
 50 51  1  0  0  0
 50119  1  0  0  0
 50120  1  0  0  0
 51 52  1  0  0  0
 51121  1  0  0  0
 51122  1  0  0  0
 52123  1  0  0  0
 52124  1  0  0  0
 53 54  1  0  0  0
 54 55  2  0  0  0
 54125  1  0  0  0
 55 57  1  0  0  0
 55126  1  0  0  0
 56 69  2  0  0  0
 57 58  2  0  0  0
 57127  1  0  0  0
 58128  1  0  0  0
 59 60  1  0  0  0
 59 61  1  0  0  0
 59 62  1  0  0  0
 60129  1  0  0  0
 60130  1  0  0  0
 60131  1  0  0  0
 61132  1  0  0  0
 61133  1  0  0  0
 61134  1  0  0  0
 62135  1  0  0  0
 62136  1  0  0  0
 62137  1  0  0  0
 63 65  1  0  0  0
 63138  1  0  0  0
 63139  1  0  0  0
 63140  1  0  0  0
 64141  1  0  0  0
 65142  1  0  0  0
 68 80  1  0  0  0
 71 72  1  0  0  0
 71 81  2  0  0  0
 71 77  1  0  0  0
 72 79  1  0  0  0
 72 82  2  0  0  0
 73 74  2  0  0  0
 73 78  1  0  0  0
 73 82  1  0  0  0
 74 81  1  0  0  0
 74 83  1  0  0  0
 75 76  1  0  0  0
 75 77  1  0  0  0
 75143  1  0  0  0
 75144  1  0  0  0
 76 77  1  0  0  0
 76145  1  0  0  0
 76146  1  0  0  0
 77147  1  0  0  0
 78148  1  0  0  0
 78149  1  0  0  0
 78150  1  0  0  0
 79 80  1  0  0  0
 79151  1  0  0  0
 79152  1  0  0  0
 80153  1  0  0  0
 80154  1  0  0  0
 83155  1  0  0  0
M  ISO  4   1 100  68 101  80 101  83 100
M  END
> <chiral flag>
0

> <version>
0

> <s_m_source_file>
/data/baiqing/PycharmProjects/Reinvent-master-3.2/result/LINK_invent/BTK/process_docking_weight1_custom_sum_contain_oxygen_bond_distance_aromatic_linkinvent_7_9_3/rearranged_h_0177.sdf

> <i_m_source_file_index>
20

> <r_mmod_Potential_Energy-OPLS-2005>
1104.26647949219

> <r_mmod_Stretch_Energy-OPLS-2005>
493.517272949219

> <r_mmod_Bend_Energy-OPLS-2005>
423.764038085938

> <r_mmod_Torsional_Energy-OPLS-2005>
243.157745361328

> <r_mmod_Improper_Torsional_Energy-OPLS-2005>
8.14537525177002

> <r_mmod_Van_der_Waal_Energy-OPLS-2005>
125.405044555664

> <r_mmod_Electrostatic_Energy-OPLS-2005>
-361.584716796875

> <r_mmod_Solvation_Energy-OPLS-2005>
-235.953811645508

> <b_mmod_Minimization_Converged-OPLS-2005>
0

> <r_mmod_RMS_Derivative-OPLS-2005>
0.561716675758362

$$$$
20
                    3D
 Structure written by MMmdl.
152161  0  0  1  0            999 V2000
  -30.5371  -14.9875   20.4051 C   0  0  0  0  0  0
  -30.4359  -12.6124   19.4980 C   0  0  0  0  0  0
  -29.5175  -12.5288   18.2569 C   0  0  0  0  0  0
  -28.0526  -12.3110   18.6781 C   0  0  0  0  0  0
  -27.6243  -13.2515   19.8345 C   0  0  2  0  0  0
  -28.6683  -13.3041   20.9703 C   0  0  0  0  0  0
  -25.2435  -13.8220   20.5727 C   0  0  0  0  0  0
  -24.1759  -13.0443   20.9253 C   0  0  0  0  0  0
  -24.6380  -11.6928   20.8771 C   0  0  0  0  0  0
  -23.9067  -10.4297   21.0417 C   0  0  0  0  0  0
  -24.3616   -9.4210   21.9192 C   0  0  0  0  0  0
  -23.6298   -8.2242   22.0754 C   0  0  0  0  0  0
  -22.4285   -8.0275   21.3541 C   0  0  0  0  0  0
  -21.9917   -9.0249   20.4646 C   0  0  0  0  0  0
  -22.7241  -10.2135   20.3062 C   0  0  0  0  0  0
  -21.6856   -6.0734   22.5280 C   0  0  0  0  0  0
  -21.4011   -6.5641   23.8211 C   0  0  0  0  0  0
  -21.3662   -5.6794   24.9173 C   0  0  0  0  0  0
  -21.6046   -4.3055   24.7222 C   0  0  0  0  0  0
  -21.8821   -3.8146   23.4346 C   0  0  0  0  0  0
  -21.9191   -4.6962   22.3400 C   0  0  0  0  0  0
  -22.7779  -13.5211   21.1900 C   0  0  0  0  0  0
  -22.1664   -4.2148   21.0980 F   0  0  0  0  0  0
  -21.5628   -3.4539   25.7738 F   0  0  0  0  0  0
  -29.9380  -13.7237   20.3627 N   0  0  0  0  0  0
  -26.2857  -12.9458   20.3243 N   0  0  0  0  0  0
  -25.9311  -11.6586   20.5750 N   0  0  0  0  0  0
  -22.0426  -12.8196   22.0452 N   0  0  0  0  0  0
  -25.4079  -15.1949   20.4137 N   0  0  0  0  0  0
  -31.7514  -15.0081   20.1642 O   0  0  0  0  0  0
  -21.6644   -6.8876   21.4242 O   0  0  0  0  0  0
  -22.3465  -14.5515   20.6737 O   0  0  0  0  0  0
  -24.6465  -31.8414   23.1848 C   0  0  0  0  0  0
  -25.9224  -32.4682   23.8252 C   0  0  1  0  0  0
  -27.2168  -27.1053   20.1537 C   0  0  0  0  0  0
  -25.5956  -33.8487   24.2172 N   0  0  0  0  0  0
  -23.4527  -30.4588   21.5309 C   0  0  2  0  0  0
  -24.9022  -28.8804   20.1087 C   0  0  0  0  0  0
  -22.7580  -29.4536   22.4847 C   0  0  0  0  0  0
  -18.0302  -28.1399   22.8475 C   0  0  0  0  0  0
  -24.1485  -36.7251   23.2644 C   0  0  0  0  0  0
  -26.0109  -30.7048   21.3893 C   0  0  0  0  0  0
  -26.0807  -29.3127   20.7303 C   0  0  0  0  0  0
  -27.2378  -28.4413   20.7355 C   0  0  0  0  0  0
  -26.0130  -26.7846   19.4880 C   0  0  0  0  0  0
  -24.8825  -27.6304   19.4716 C   0  0  0  0  0  0
  -23.6805  -29.7862   20.1511 C   0  0  0  0  0  0
  -25.4120  -36.3025   24.0316 C   0  0  1  0  0  0
  -20.5919  -28.3732   23.1220 C   0  0  2  0  0  0
  -20.6787  -26.9432   22.5399 C   0  0  0  0  0  0
  -19.5763  -26.6383   21.5208 C   0  0  0  0  0  0
  -18.1942  -26.7939   22.1620 C   0  0  0  0  0  0
  -19.1560  -28.8885   23.2838 C   0  0  0  0  0  0
  -18.9481  -30.1480   23.8864 C   0  0  0  0  0  0
  -17.6478  -30.6597   24.0558 C   0  0  0  0  0  0
  -25.9076  -34.9403   23.5056 C   0  0  0  0  0  0
  -16.5365  -29.9091   23.6339 C   0  0  0  0  0  0
  -16.7287  -28.6508   23.0360 C   0  0  0  0  0  0
  -26.4532  -31.6564   25.0717 C   0  0  0  0  0  0
  -25.3706  -31.3769   26.1404 C   0  0  0  0  0  0
  -27.0411  -30.2955   24.6339 C   0  0  0  0  0  0
  -27.6052  -32.4341   25.7505 C   0  0  0  0  0  0
  -27.5569  -37.1783   24.8465 C   0  0  0  0  0  0
  -21.4270  -29.3053   22.3593 N   0  0  0  0  0  0
  -26.4278  -37.3745   23.9408 N   0  0  0  0  0  0
  -24.7232  -31.0238   22.0898 N   0  0  0  0  0  0
  -23.4205  -28.8086   23.3019 O   0  0  0  0  0  0
  -28.2556  -26.0963   20.2367 O   0  0  0  0  0  0
  -26.5659  -34.8905   22.4633 O   0  0  0  0  0  0
  -23.5574  -32.1298   23.7044 O   0  0  0  0  0  0
  -29.0567  -18.8143   20.3552 C   0  0  0  0  0  0
  -31.5843  -19.4628   20.4058 C   0  0  0  0  0  0
  -29.4163  -20.2583   20.2967 C   0  0  0  0  0  0
  -30.0390  -17.7035   20.4403 C   0  0  0  0  0  0
  -26.9985  -21.3383   19.8581 C   0  0  0  0  0  0
  -27.8180  -21.4908   18.6059 C   0  0  0  0  0  0
  -28.4897  -21.6015   19.9605 C   0  0  0  0  0  0
  -28.9020  -23.1778   20.3906 C   0  0  0  0  0  0
  -27.9743  -24.5653   20.0134 C   0  0  0  0  0  0
  -30.7395  -20.4923   20.2972 N   0  0  0  0  0  0
  -31.3104  -18.1539   20.4727 N   0  0  0  0  0  0
  -29.7501  -16.1861   20.4938 N   0  0  0  0  0  0
  -31.4676  -12.7701   19.1805 H   0  0  0  0  0  0
  -30.4365  -11.6686   20.0457 H   0  0  0  0  0  0
  -29.8422  -11.7208   17.5999 H   0  0  0  0  0  0
  -29.5993  -13.4490   17.6759 H   0  0  0  0  0  0
  -27.9543  -11.2719   18.9947 H   0  0  0  0  0  0
  -27.3870  -12.4314   17.8225 H   0  0  0  0  0  0
  -27.5791  -14.2479   19.3946 H   0  0  0  0  0  0
  -28.7660  -12.3369   21.4649 H   0  0  0  0  0  0
  -28.3619  -14.0156   21.7387 H   0  0  0  0  0  0
  -25.2754   -9.5694   22.4772 H   0  0  0  0  0  0
  -24.0009   -7.4634   22.7469 H   0  0  0  0  0  0
  -21.0848   -8.8764   19.8953 H   0  0  0  0  0  0
  -22.3686  -10.9674   19.6176 H   0  0  0  0  0  0
  -21.2005   -7.6150   23.9714 H   0  0  0  0  0  0
  -21.1484   -6.0524   25.9078 H   0  0  0  0  0  0
  -22.0597   -2.7607   23.2843 H   0  0  0  0  0  0
  -22.4047  -11.9874   22.4861 H   0  0  0  0  0  0
  -21.1031  -13.1200   22.2639 H   0  0  0  0  0  0
  -24.6313  -15.8386   20.5215 H   0  0  0  0  0  0
  -26.2326  -15.6359   20.0300 H   0  0  0  0  0  0
  -26.7301  -32.5272   23.0988 H   0  0  0  0  0  0
  -25.0095  -33.9597   25.0313 H   0  0  0  0  0  0
  -22.7577  -31.2860   21.3730 H   0  0  0  0  0  0
  -23.3755  -35.9576   23.3292 H   0  0  0  0  0  0
  -24.3568  -36.8893   22.2061 H   0  0  0  0  0  0
  -23.7231  -37.6439   23.6688 H   0  0  0  0  0  0
  -26.1686  -31.4578   20.6159 H   0  0  0  0  0  0
  -26.8806  -30.7556   22.0337 H   0  0  0  0  0  0
  -28.1329  -28.7649   21.2479 H   0  0  0  0  0  0
  -25.9089  -25.8303   18.9939 H   0  0  0  0  0  0
  -23.9839  -27.2934   18.9735 H   0  0  0  0  0  0
  -23.8197  -30.5592   19.3943 H   0  0  0  0  0  0
  -22.7949  -29.2286   19.8402 H   0  0  0  0  0  0
  -25.1311  -36.1853   25.0811 H   0  0  0  0  0  0
  -21.0007  -28.3325   24.1338 H   0  0  0  0  0  0
  -20.5675  -26.2353   23.3628 H   0  0  0  0  0  0
  -21.6658  -26.7432   22.1202 H   0  0  0  0  0  0
  -19.6925  -25.6281   21.1262 H   0  0  0  0  0  0
  -19.6696  -27.3172   20.6719 H   0  0  0  0  0  0
  -17.4213  -26.6674   21.4021 H   0  0  0  0  0  0
  -18.0341  -26.0087   22.9023 H   0  0  0  0  0  0
  -19.7958  -30.7304   24.2219 H   0  0  0  0  0  0
  -17.5032  -31.6270   24.5166 H   0  0  0  0  0  0
  -15.5365  -30.2985   23.7685 H   0  0  0  0  0  0
  -15.8683  -28.0817   22.7098 H   0  0  0  0  0  0
  -24.5888  -30.7116   25.7726 H   0  0  0  0  0  0
  -24.8894  -32.2959   26.4760 H   0  0  0  0  0  0
  -25.7978  -30.8984   27.0227 H   0  0  0  0  0  0
  -26.3049  -29.6663   24.1325 H   0  0  0  0  0  0
  -27.3983  -29.7275   25.4937 H   0  0  0  0  0  0
  -27.8969  -30.4179   23.9697 H   0  0  0  0  0  0
  -27.2636  -33.3664   26.2014 H   0  0  0  0  0  0
  -28.3898  -32.6865   25.0361 H   0  0  0  0  0  0
  -28.0687  -31.8515   26.5476 H   0  0  0  0  0  0
  -28.2589  -38.0079   24.7513 H   0  0  0  0  0  0
  -28.1064  -36.2609   24.6295 H   0  0  0  0  0  0
  -27.2287  -37.1435   25.8869 H   0  0  0  0  0  0
  -20.9486  -29.8765   21.6764 H   0  0  0  0  0  0
  -26.0143  -38.2817   24.1406 H   0  0  0  0  0  0
  -28.0087  -18.5540   20.2918 H   0  0  0  0  0  0
  -32.6327  -19.7199   20.4212 H   0  0  0  0  0  0
  -26.6351  -20.3449   20.1088 H   0  0  0  0  0  0
  -26.3099  -22.1465   20.0910 H   0  0  0  0  0  0
  -27.6684  -22.3960   18.0238 H   0  0  0  0  0  0
  -28.0170  -20.5956   18.0191 H   0  0  0  0  0  0
  -29.8964  -23.3470   19.9780 H   0  0  0  0  0  0
  -29.0473  -23.1710   21.4706 H   0  0  0  0  0  0
  -27.0116  -24.3903   20.4938 H   0  0  0  0  0  0
  -27.7719  -24.4936   18.9455 H   0  0  0  0  0  0
  -28.7707  -15.9784   20.5903 H   0  0  0  0  0  0
  1 25  1  0  0  0
  1 30  2  0  0  0
  1 82  1  0  0  0
  2  3  1  0  0  0
  2 25  1  0  0  0
  2 83  1  0  0  0
  2 84  1  0  0  0
  3  4  1  0  0  0
  3 85  1  0  0  0
  3 86  1  0  0  0
  4  5  1  0  0  0
  4 87  1  0  0  0
  4 88  1  0  0  0
  5  6  1  0  0  0
  5 26  1  0  0  0
  5 89  1  0  0  0
  6 25  1  0  0  0
  6 90  1  0  0  0
  6 91  1  0  0  0
  7  8  2  0  0  0
  7 26  1  0  0  0
  7 29  1  0  0  0
  8  9  1  0  0  0
  8 22  1  0  0  0
  9 10  1  0  0  0
  9 27  2  0  0  0
 10 11  2  0  0  0
 10 15  1  0  0  0
 11 12  1  0  0  0
 11 92  1  0  0  0
 12 13  2  0  0  0
 12 93  1  0  0  0
 13 14  1  0  0  0
 13 31  1  0  0  0
 14 15  2  0  0  0
 14 94  1  0  0  0
 15 95  1  0  0  0
 16 17  2  0  0  0
 16 21  1  0  0  0
 16 31  1  0  0  0
 17 18  1  0  0  0
 17 96  1  0  0  0
 18 19  2  0  0  0
 18 97  1  0  0  0
 19 20  1  0  0  0
 19 24  1  0  0  0
 20 21  2  0  0  0
 20 98  1  0  0  0
 21 23  1  0  0  0
 22 28  1  0  0  0
 22 32  2  0  0  0
 26 27  1  0  0  0
 28 99  1  0  0  0
 28100  1  0  0  0
 29101  1  0  0  0
 29102  1  0  0  0
 33 34  1  0  0  0
 33 66  1  0  0  0
 33 70  2  0  0  0
 34 36  1  0  0  0
 34 59  1  0  0  0
 34103  1  0  0  0
 35 44  2  0  0  0
 35 45  1  0  0  0
 35 68  1  0  0  0
 36 56  1  0  0  0
 36104  1  0  0  0
 37 39  1  0  0  0
 37 47  1  0  0  0
 37 66  1  0  0  0
 37105  1  0  0  0
 38 43  2  0  0  0
 38 46  1  0  0  0
 38 47  1  0  0  0
 39 64  1  0  0  0
 39 67  2  0  0  0
 40 52  1  0  0  0
 40 53  2  0  0  0
 40 58  1  0  0  0
 41106  1  0  0  0
 41107  1  0  0  0
 41108  1  0  0  0
 41 48  1  0  0  0
 42 43  1  0  0  0
 42 66  1  0  0  0
 42109  1  0  0  0
 42110  1  0  0  0
 43 44  1  0  0  0
 44111  1  0  0  0
 45 46  2  0  0  0
 45112  1  0  0  0
 46113  1  0  0  0
 47114  1  0  0  0
 47115  1  0  0  0
 48 56  1  0  0  0
 48 65  1  0  0  0
 48116  1  0  0  0
 49 50  1  0  0  0
 49 53  1  0  0  0
 49 64  1  0  0  0
 49117  1  0  0  0
 50 51  1  0  0  0
 50118  1  0  0  0
 50119  1  0  0  0
 51 52  1  0  0  0
 51120  1  0  0  0
 51121  1  0  0  0
 52122  1  0  0  0
 52123  1  0  0  0
 53 54  1  0  0  0
 54 55  2  0  0  0
 54124  1  0  0  0
 55 57  1  0  0  0
 55125  1  0  0  0
 56 69  2  0  0  0
 57 58  2  0  0  0
 57126  1  0  0  0
 58127  1  0  0  0
 59 60  1  0  0  0
 59 61  1  0  0  0
 59 62  1  0  0  0
 60128  1  0  0  0
 60129  1  0  0  0
 60130  1  0  0  0
 61131  1  0  0  0
 61132  1  0  0  0
 61133  1  0  0  0
 62134  1  0  0  0
 62135  1  0  0  0
 62136  1  0  0  0
 63 65  1  0  0  0
 63137  1  0  0  0
 63138  1  0  0  0
 63139  1  0  0  0
 64140  1  0  0  0
 65141  1  0  0  0
 68 79  1  0  0  0
 71 73  2  0  0  0
 71 74  1  0  0  0
 71142  1  0  0  0
 72 80  2  0  0  0
 72 81  1  0  0  0
 72143  1  0  0  0
 73 77  1  0  0  0
 73 80  1  0  0  0
 74 81  2  0  0  0
 74 82  1  0  0  0
 75 76  1  0  0  0
 75 77  1  0  0  0
 75144  1  0  0  0
 75145  1  0  0  0
 76 77  1  0  0  0
 76146  1  0  0  0
 76147  1  0  0  0
 77 78  1  0  0  0
 78 79  1  0  0  0
 78148  1  0  0  0
 78149  1  0  0  0
 79150  1  0  0  0
 79151  1  0  0  0
 82152  1  0  0  0
M  ISO  4   1 100  68 101  79 101  82 100
M  END
> <chiral flag>
0

> <version>
0

> <s_m_source_file>
/data/baiqing/PycharmProjects/Reinvent-master-3.2/result/LINK_invent/BTK/process_docking_weight1_custom_sum_contain_oxygen_bond_distance_aromatic_linkinvent_7_9_3/rearranged_h_0177.sdf

> <i_m_source_file_index>
21

> <r_mmod_Potential_Energy-OPLS-2005>
149.567260742188

> <r_mmod_Stretch_Energy-OPLS-2005>
294.632110595703

> <r_mmod_Bend_Energy-OPLS-2005>
261.780242919922

> <r_mmod_Torsional_Energy-OPLS-2005>
246.748870849609

> <r_mmod_Improper_Torsional_Energy-OPLS-2005>
6.01786375045776

> <r_mmod_Van_der_Waal_Energy-OPLS-2005>
138.909057617188

> <r_mmod_Electrostatic_Energy-OPLS-2005>
-768.137756347656

> <r_mmod_Solvation_Energy-OPLS-2005>
-251.403427124023

> <b_mmod_Minimization_Converged-OPLS-2005>
0

> <r_mmod_RMS_Derivative-OPLS-2005>
0.957207262516022

$$$$
21
                    3D
 Structure written by MMmdl.
186196  0  0  1  0            999 V2000
  -30.3486  -14.7489   20.0544 C   0  0  0  0  0  0
  -30.5050  -12.3975   19.3500 C   0  0  0  0  0  0
  -29.4852  -12.3213   18.1822 C   0  0  0  0  0  0
  -28.0421  -12.1029   18.7068 C   0  0  0  0  0  0
  -27.8295  -13.0716   19.8681 C   0  0  2  0  0  0
  -28.8580  -13.0227   20.9756 C   0  0  0  0  0  0
  -26.1044  -14.4958   20.8379 C   0  0  0  0  0  0
  -24.8382  -14.4791   20.9798 C   0  0  0  0  0  0
  -24.7876  -12.6932   21.0591 C   0  0  0  0  0  0
  -23.9461  -11.1749   21.1987 C   0  0  0  0  0  0
  -24.2058  -10.1063   22.1854 C   0  0  0  0  0  0
  -23.5760   -8.7914   22.2997 C   0  0  0  0  0  0
  -22.6158   -8.2964   21.3756 C   0  0  0  0  0  0
  -22.4403   -9.2189   20.3121 C   0  0  0  0  0  0
  -23.0362  -10.5452   20.2446 C   0  0  0  0  0  0
  -21.8041   -6.1938   22.4702 C   0  0  0  0  0  0
  -21.4686   -6.6550   23.7595 C   0  0  0  0  0  0
  -21.3751   -5.7519   24.8415 C   0  0  0  0  0  0
  -21.6066   -4.3769   24.6521 C   0  0  0  0  0  0
  -21.8807   -3.8951   23.3647 C   0  0  0  0  0  0
  -21.9732   -4.7992   22.2778 C   0  0  0  0  0  0
  -22.5595  -16.2770   20.9684 C   0  0  0  0  0  0
  -22.2098   -4.2908   21.0441 F   0  0  0  0  0  0
  -21.5433   -3.5182   25.6996 F   0  0  0  0  0  0
  -30.0414  -13.4411   20.2749 N   0  0  0  0  0  0
  -26.5853  -13.2610   20.4294 N   0  0  0  0  0  0
  -25.9085  -12.1765   20.6877 N   0  0  0  0  0  0
  -21.4492  -15.9537   21.7902 N   0  0  0  0  0  0
  -26.7877  -15.6140   21.0123 N   0  0  0  0  0  0
  -31.5473  -15.0489   19.9975 O   0  0  0  0  0  0
  -21.9197   -7.0682   21.3833 O   0  0  0  0  0  0
  -21.8406  -16.5374   20.0289 O   0  0  0  0  0  0
  -24.7785  -31.6170   23.0566 C   0  0  0  0  0  0
  -25.9850  -32.3515   23.7441 C   0  0  1  0  0  0
  -26.0722  -24.9743   20.5714 C   0  0  0  0  0  0
  -25.6010  -33.7494   24.1137 N   0  0  0  0  0  0
  -23.5987  -30.2140   21.4437 C   0  0  2  0  0  0
  -24.8377  -28.1983   20.1379 C   0  0  0  0  0  0
  -22.7786  -29.3488   22.4366 C   0  0  0  0  0  0
  -18.0288  -28.1414   22.8429 C   0  0  0  0  0  0
  -24.1495  -36.6751   23.2689 C   0  0  0  0  0  0
  -26.1074  -29.6898   21.6105 C   0  0  0  0  0  0
  -25.9124  -28.0997   21.0041 C   0  0  0  0  0  0
  -26.4945  -26.5665   21.1565 C   0  0  0  0  0  0
  -25.3312  -25.6984   19.5064 C   0  0  0  0  0  0
  -24.7221  -27.0339   19.3335 C   0  0  0  0  0  0
  -23.8697  -29.4355   20.0932 C   0  0  0  0  0  0
  -25.4192  -36.2349   24.0163 C   0  0  1  0  0  0
  -20.5904  -28.3765   23.0975 C   0  0  2  0  0  0
  -20.6663  -26.9354   22.5409 C   0  0  0  0  0  0
  -19.5684  -26.6298   21.5187 C   0  0  0  0  0  0
  -18.1869  -26.7930   22.1604 C   0  0  0  0  0  0
  -19.1569  -28.8926   23.2685 C   0  0  0  0  0  0
  -18.9529  -30.1484   23.8772 C   0  0  0  0  0  0
  -17.6542  -30.6607   24.0522 C   0  0  0  0  0  0
  -25.9250  -34.8782   23.4590 C   0  0  0  0  0  0
  -16.5405  -29.9103   23.6352 C   0  0  0  0  0  0
  -16.7283  -28.6502   23.0392 C   0  0  0  0  0  0
  -26.4783  -31.6299   25.0614 C   0  0  0  0  0  0
  -25.3663  -31.3944   26.1096 C   0  0  0  0  0  0
  -27.0962  -30.2616   24.7413 C   0  0  0  0  0  0
  -27.5961  -32.4524   25.7454 C   0  0  0  0  0  0
  -27.5488  -37.1516   24.8481 C   0  0  0  0  0  0
  -21.4398  -29.2841   22.3137 N   0  0  0  0  0  0
  -26.4192  -37.3269   23.9402 N   0  0  0  0  0  0
  -24.8951  -30.5965   22.0773 N   0  0  0  0  0  0
  -23.3757  -28.7251   23.3171 O   0  0  0  0  0  0
  -26.1594  -22.9740   20.7134 O   0  0  0  0  0  0
  -26.6091  -34.8647   22.4352 O   0  0  0  0  0  0
  -23.6687  -32.0206   23.4667 O   0  0  0  0  0  0
  -24.8026  -17.8157   20.9687 C   0  0  0  0  0  0
  -24.4352  -16.4813   22.3745 C   0  0  0  0  0  0
  -24.5498  -16.5379   19.5733 C   0  0  0  0  0  0
  -22.7066  -14.0128   20.7858 C   0  0  0  0  0  0
  -23.2115  -17.0451   25.4988 C   0  0  0  0  0  0
  -23.6046  -17.7596   24.2078 C   0  0  0  0  0  0
  -20.4578  -12.5554   21.2105 C   0  0  0  0  0  0
  -25.2269  -16.0707   24.6590 C   0  0  0  0  0  0
  -20.5933  -13.9155   19.3873 C   0  0  0  0  0  0
  -19.9270  -11.6863   19.9809 C   0  0  2  0  0  0
  -24.5606  -16.5166   25.9710 C   0  0  2  0  0  0
  -20.0322  -12.6281   18.7422 C   0  0  2  0  0  0
  -18.7250  -10.7089   19.9054 C   0  0  0  0  0  0
  -28.6829  -17.6648   18.3702 C   0  0  0  0  0  0
  -25.2155  -20.5290   20.8395 C   0  0  0  0  0  0
  -26.7970  -15.8948   18.2628 C   0  0  0  0  0  0
  -28.4328  -16.1727   18.6113 C   0  0  2  0  0  0
  -23.3580  -14.7982   22.5295 N   0  0  0  0  0  0
  -23.4974  -14.9544   19.2943 N   0  0  0  0  0  0
  -24.7217  -16.9996   23.6431 N   0  0  0  0  0  0
  -21.4176  -13.4344   20.5101 N   0  0  0  0  0  0
  -25.6254  -16.8207   18.6195 N   0  0  0  0  0  0
  -29.2995  -15.6802   19.8396 N   0  0  0  0  0  0
  -24.4680  -15.4754   27.0049 N   0  3  0  0  0  0
  -21.0140  -12.1217   17.7623 N   0  3  0  0  0  0
  -31.5006  -12.6333   18.9803 H   0  0  0  0  0  0
  -30.5827  -11.4440   19.8762 H   0  0  0  0  0  0
  -29.7644  -11.5189   17.4949 H   0  0  0  0  0  0
  -29.5231  -13.2437   17.5960 H   0  0  0  0  0  0
  -27.9039  -11.0736   19.0317 H   0  0  0  0  0  0
  -27.3159  -12.2705   17.9065 H   0  0  0  0  0  0
  -27.9292  -13.9329   19.2656 H   0  0  0  0  0  0
  -28.9675  -12.0290   21.4074 H   0  0  0  0  0  0
  -28.6367  -13.7135   21.7944 H   0  0  0  0  0  0
  -24.8486  -10.3920   23.0238 H   0  0  0  0  0  0
  -23.7940   -8.2374   23.1982 H   0  0  0  0  0  0
  -21.8978   -8.8542   19.4485 H   0  0  0  0  0  0
  -22.8495  -11.1537   19.3788 H   0  0  0  0  0  0
  -21.2855   -7.7105   23.8979 H   0  0  0  0  0  0
  -21.1290   -6.1413   25.8119 H   0  0  0  0  0  0
  -22.0365   -2.8438   23.1803 H   0  0  0  0  0  0
  -21.7851  -15.3889   22.5879 H   0  0  0  0  0  0
  -20.6289  -16.5272   21.8191 H   0  0  0  0  0  0
  -26.4282  -16.5608   21.0867 H   0  0  0  0  0  0
  -27.7689  -15.6432   20.7377 H   0  0  0  0  0  0
  -26.8023  -32.3725   23.0221 H   0  0  0  0  0  0
  -24.9861  -33.8332   24.9094 H   0  0  0  0  0  0
  -23.0168  -31.1031   21.1923 H   0  0  0  0  0  0
  -23.3787  -35.9047   23.3191 H   0  0  0  0  0  0
  -24.3525  -36.8663   22.2147 H   0  0  0  0  0  0
  -23.7269  -37.5828   23.7000 H   0  0  0  0  0  0
  -26.5733  -30.2488   20.8000 H   0  0  0  0  0  0
  -26.9010  -29.6337   22.3316 H   0  0  0  0  0  0
  -27.2217  -26.5200   21.9583 H   0  0  0  0  0  0
  -24.9592  -25.0038   18.7642 H   0  0  0  0  0  0
  -24.0067  -27.0980   18.5228 H   0  0  0  0  0  0
  -24.2730  -30.1398   19.3623 H   0  0  0  0  0  0
  -22.9147  -29.1057   19.6809 H   0  0  0  0  0  0
  -25.1489  -36.0874   25.0641 H   0  0  0  0  0  0
  -21.0008  -28.3466   24.1092 H   0  0  0  0  0  0
  -20.5360  -26.2435   23.3733 H   0  0  0  0  0  0
  -21.6512  -26.7092   22.1324 H   0  0  0  0  0  0
  -19.6820  -25.6170   21.1266 H   0  0  0  0  0  0
  -19.6633  -27.3046   20.6657 H   0  0  0  0  0  0
  -17.4120  -26.6644   21.4014 H   0  0  0  0  0  0
  -18.0278  -26.0085   22.9024 H   0  0  0  0  0  0
  -19.8024  -30.7280   24.2080 H   0  0  0  0  0  0
  -17.5119  -31.6281   24.5141 H   0  0  0  0  0  0
  -15.5406  -30.3025   23.7719 H   0  0  0  0  0  0
  -15.8649  -28.0787   22.7242 H   0  0  0  0  0  0
  -24.5721  -30.7483   25.7345 H   0  0  0  0  0  0
  -24.9065  -32.3313   26.4249 H   0  0  0  0  0  0
  -25.7627  -30.9173   27.0076 H   0  0  0  0  0  0
  -26.3542  -29.5546   24.3701 H   0  0  0  0  0  0
  -27.5113  -29.7966   25.6364 H   0  0  0  0  0  0
  -27.9284  -30.3520   24.0422 H   0  0  0  0  0  0
  -27.2275  -33.3990   26.1435 H   0  0  0  0  0  0
  -28.4066  -32.6823   25.0524 H   0  0  0  0  0  0
  -28.0335  -31.9137   26.5883 H   0  0  0  0  0  0
  -28.2374  -37.9917   24.7480 H   0  0  0  0  0  0
  -28.1089  -36.2394   24.6360 H   0  0  0  0  0  0
  -27.2166  -37.1185   25.8874 H   0  0  0  0  0  0
  -20.9849  -29.8396   21.6018 H   0  0  0  0  0  0
  -25.9857  -38.2233   24.1439 H   0  0  0  0  0  0
  -22.5308  -16.2215   25.2701 H   0  0  0  0  0  0
  -22.7247  -17.7139   26.2139 H   0  0  0  0  0  0
  -23.9474  -18.7703   24.4265 H   0  0  0  0  0  0
  -22.7444  -17.8471   23.5439 H   0  0  0  0  0  0
  -20.9102  -11.9940   22.0273 H   0  0  0  0  0  0
  -19.6735  -13.1790   21.6791 H   0  0  0  0  0  0
  -24.9777  -15.0368   24.4065 H   0  0  0  0  0  0
  -26.3159  -16.1365   24.7341 H   0  0  0  0  0  0
  -19.7506  -14.5130   19.7907 H   0  0  0  0  0  0
  -21.0825  -14.5776   18.6722 H   0  0  0  0  0  0
  -20.6671  -10.9074   19.9349 H   0  0  0  0  0  0
  -25.1295  -17.3471   26.3950 H   0  0  0  0  0  0
  -19.0769  -12.8226   18.2383 H   0  0  0  0  0  0
  -18.4183  -10.5314   18.8617 H   0  0  0  0  0  0
  -17.8444  -11.0011   20.4735 H   0  0  0  0  0  0
  -19.0069   -9.7001   20.2141 H   0  0  0  0  0  0
  -28.2328  -17.9758   17.4270 H   0  0  0  0  0  0
  -29.7439  -17.8845   18.3166 H   0  0  0  0  0  0
  -28.2371  -18.2693   19.1521 H   0  0  0  0  0  0
  -24.6503  -20.7237   21.7440 H   0  0  0  0  0  0
  -24.5086  -20.6863   20.0328 H   0  0  0  0  0  0
  -26.4441  -14.8758   18.3537 H   0  0  0  0  0  0
  -26.7626  -15.9966   17.1784 H   0  0  0  0  0  0
  -28.9333  -15.6701   17.7813 H   0  0  0  0  0  0
  -25.9045  -17.7928   18.6148 H   0  0  0  0  0  0
  -29.5668  -16.5240   20.3316 H   0  0  0  0  0  0
  -24.0193  -14.6472   26.6655 H   0  0  0  0  0  0
  -23.9443  -15.8087   27.7935 H   0  0  0  0  0  0
  -25.3801  -15.2252   27.3406 H   0  0  0  0  0  0
  -21.8000  -12.7574   17.7214 H   0  0  0  0  0  0
  -20.6246  -11.9572   16.8421 H   0  0  0  0  0  0
  -21.3349  -11.2074   18.0274 H   0  0  0  0  0  0
  1 25  1  0  0  0
  1 30  2  0  0  0
  1 93  1  0  0  0
  2  3  1  0  0  0
  2 25  1  0  0  0
  2 96  1  0  0  0
  2 97  1  0  0  0
  3  4  1  0  0  0
  3 98  1  0  0  0
  3 99  1  0  0  0
  4  5  1  0  0  0
  4100  1  0  0  0
  4101  1  0  0  0
  5  6  1  0  0  0
  5 26  1  0  0  0
  5102  1  0  0  0
  6 25  1  0  0  0
  6103  1  0  0  0
  6104  1  0  0  0
  7  8  2  0  0  0
  7 26  1  0  0  0
  7 29  1  0  0  0
  8  9  1  0  0  0
  8 22  1  0  0  0
  9 10  1  0  0  0
  9 27  2  0  0  0
 10 11  2  0  0  0
 10 15  1  0  0  0
 11 12  1  0  0  0
 11105  1  0  0  0
 12 13  2  0  0  0
 12106  1  0  0  0
 13 14  1  0  0  0
 13 31  1  0  0  0
 14 15  2  0  0  0
 14107  1  0  0  0
 15108  1  0  0  0
 16 17  2  0  0  0
 16 21  1  0  0  0
 16 31  1  0  0  0
 17 18  1  0  0  0
 17109  1  0  0  0
 18 19  2  0  0  0
 18110  1  0  0  0
 19 20  1  0  0  0
 19 24  1  0  0  0
 20 21  2  0  0  0
 20111  1  0  0  0
 21 23  1  0  0  0
 22 28  1  0  0  0
 22 32  2  0  0  0
 26 27  1  0  0  0
 28112  1  0  0  0
 28113  1  0  0  0
 29114  1  0  0  0
 29115  1  0  0  0
 33 34  1  0  0  0
 33 66  1  0  0  0
 33 70  2  0  0  0
 34 36  1  0  0  0
 34 59  1  0  0  0
 34116  1  0  0  0
 35 44  2  0  0  0
 35 45  1  0  0  0
 35 68  1  0  0  0
 36 56  1  0  0  0
 36117  1  0  0  0
 37 39  1  0  0  0
 37 47  1  0  0  0
 37 66  1  0  0  0
 37118  1  0  0  0
 38 43  2  0  0  0
 38 46  1  0  0  0
 38 47  1  0  0  0
 39 64  1  0  0  0
 39 67  2  0  0  0
 40 52  1  0  0  0
 40 53  2  0  0  0
 40 58  1  0  0  0
 41119  1  0  0  0
 41120  1  0  0  0
 41121  1  0  0  0
 41 48  1  0  0  0
 42 43  1  0  0  0
 42 66  1  0  0  0
 42122  1  0  0  0
 42123  1  0  0  0
 43 44  1  0  0  0
 44124  1  0  0  0
 45 46  2  0  0  0
 45125  1  0  0  0
 46126  1  0  0  0
 47127  1  0  0  0
 47128  1  0  0  0
 48 56  1  0  0  0
 48 65  1  0  0  0
 48129  1  0  0  0
 49 50  1  0  0  0
 49 53  1  0  0  0
 49 64  1  0  0  0
 49130  1  0  0  0
 50 51  1  0  0  0
 50131  1  0  0  0
 50132  1  0  0  0
 51 52  1  0  0  0
 51133  1  0  0  0
 51134  1  0  0  0
 52135  1  0  0  0
 52136  1  0  0  0
 53 54  1  0  0  0
 54 55  2  0  0  0
 54137  1  0  0  0
 55 57  1  0  0  0
 55138  1  0  0  0
 56 69  2  0  0  0
 57 58  2  0  0  0
 57139  1  0  0  0
 58140  1  0  0  0
 59 60  1  0  0  0
 59 61  1  0  0  0
 59 62  1  0  0  0
 60141  1  0  0  0
 60142  1  0  0  0
 60143  1  0  0  0
 61144  1  0  0  0
 61145  1  0  0  0
 61146  1  0  0  0
 62147  1  0  0  0
 62148  1  0  0  0
 62149  1  0  0  0
 63 65  1  0  0  0
 63150  1  0  0  0
 63151  1  0  0  0
 63152  1  0  0  0
 64153  1  0  0  0
 65154  1  0  0  0
 68 85  1  0  0  0
 71 72  1  0  0  0
 71 73  2  0  0  0
 71 85  1  0  0  0
 72 88  2  0  0  0
 72 90  1  0  0  0
 73 89  1  0  0  0
 73 92  1  0  0  0
 74 88  1  0  0  0
 74 89  2  0  0  0
 74 91  1  0  0  0
 75 76  1  0  0  0
 75 81  1  0  0  0
 75155  1  0  0  0
 75156  1  0  0  0
 76 90  1  0  0  0
 76157  1  0  0  0
 76158  1  0  0  0
 77 80  1  0  0  0
 77 91  1  0  0  0
 77159  1  0  0  0
 77160  1  0  0  0
 78 81  1  0  0  0
 78 90  1  0  0  0
 78161  1  0  0  0
 78162  1  0  0  0
 79 82  1  0  0  0
 79 91  1  0  0  0
 79163  1  0  0  0
 79164  1  0  0  0
 80 82  1  0  0  0
 80 83  1  0  0  0
 80165  1  0  0  0
 81 94  1  0  0  0
 81166  1  0  0  0
 82 95  1  0  0  0
 82167  1  0  0  0
 83168  1  0  0  0
 83169  1  0  0  0
 83170  1  0  0  0
 84171  1  0  0  0
 84172  1  0  0  0
 84173  1  0  0  0
 84 87  1  0  0  0
 85174  1  0  0  0
 85175  1  0  0  0
 86 87  1  0  0  0
 86 92  1  0  0  0
 86176  1  0  0  0
 86177  1  0  0  0
 87 93  1  0  0  0
 87178  1  0  0  0
 92179  1  0  0  0
 93180  1  0  0  0
 94181  1  0  0  0
 94182  1  0  0  0
 94183  1  0  0  0
 95184  1  0  0  0
 95185  1  0  0  0
 95186  1  0  0  0
M  CHG  2  94   1  95   1
M  ISO  4   1 100  68 101  85 101  93 100
M  END
> <chiral flag>
0

> <version>
0

> <s_m_source_file>
/data/baiqing/PycharmProjects/Reinvent-master-3.2/result/LINK_invent/BTK/process_docking_weight1_custom_sum_contain_oxygen_bond_distance_aromatic_linkinvent_7_9_3/rearranged_h_0177.sdf

> <i_m_source_file_index>
22

> <r_mmod_Potential_Energy-OPLS-2005>
25411.697265625

> <r_mmod_Stretch_Energy-OPLS-2005>
13757.564453125

> <r_mmod_Bend_Energy-OPLS-2005>
1911.0615234375

> <r_mmod_Torsional_Energy-OPLS-2005>
735.496704101562

> <r_mmod_Improper_Torsional_Energy-OPLS-2005>
81.0968551635742

> <r_mmod_Van_der_Waal_Energy-OPLS-2005>
3177.78735351562

> <r_mmod_Electrostatic_Energy-OPLS-2005>
-818.304504394531

> <r_mmod_Solvation_Energy-OPLS-2005>
-945.650146484375

> <b_mmod_Minimization_Converged-OPLS-2005>
0

> <r_mmod_RMS_Derivative-OPLS-2005>
40.8679351806641

$$$$
22
                    3D
 Structure written by MMmdl.
162172  0  0  1  0            999 V2000
  -30.6347  -14.7343   20.4707 C   0  0  0  0  0  0
  -30.4321  -12.4522   19.4732 C   0  0  0  0  0  0
  -29.5105  -12.5059   18.2359 C   0  0  0  0  0  0
  -28.0376  -12.3308   18.6524 C   0  0  0  0  0  0
  -27.6434  -13.2353   19.8512 C   0  0  2  0  0  0
  -28.6885  -13.1775   20.9863 C   0  0  0  0  0  0
  -25.2521  -13.8212   20.5711 C   0  0  0  0  0  0
  -24.1805  -13.0451   20.9196 C   0  0  0  0  0  0
  -24.6401  -11.6928   20.8742 C   0  0  0  0  0  0
  -23.9080  -10.4297   21.0399 C   0  0  0  0  0  0
  -24.3626   -9.4212   21.9179 C   0  0  0  0  0  0
  -23.6297   -8.2249   22.0754 C   0  0  0  0  0  0
  -22.4279   -8.0287   21.3544 C   0  0  0  0  0  0
  -21.9915   -9.0264   20.4647 C   0  0  0  0  0  0
  -22.7250  -10.2139   20.3052 C   0  0  0  0  0  0
  -21.6855   -6.0739   22.5277 C   0  0  0  0  0  0
  -21.4018   -6.5640   23.8212 C   0  0  0  0  0  0
  -21.3659   -5.6792   24.9175 C   0  0  0  0  0  0
  -21.6044   -4.3055   24.7224 C   0  0  0  0  0  0
  -21.8819   -3.8147   23.4345 C   0  0  0  0  0  0
  -21.9192   -4.6966   22.3402 C   0  0  0  0  0  0
  -22.7821  -13.5226   21.1852 C   0  0  0  0  0  0
  -22.1658   -4.2152   21.0979 F   0  0  0  0  0  0
  -21.5628   -3.4538   25.7735 F   0  0  0  0  0  0
  -29.9901  -13.5193   20.4004 N   0  0  0  0  0  0
  -26.2955  -12.9427   20.3303 N   0  0  0  0  0  0
  -25.9337  -11.6562   20.5755 N   0  0  0  0  0  0
  -22.0465  -12.8223   22.0413 N   0  0  0  0  0  0
  -25.4230  -15.1938   20.4162 N   0  0  0  0  0  0
  -31.8262  -14.8120   20.1565 O   0  0  0  0  0  0
  -21.6643   -6.8884   21.4241 O   0  0  0  0  0  0
  -22.3500  -14.5528   20.6697 O   0  0  0  0  0  0
  -24.6348  -31.8563   23.2030 C   0  0  0  0  0  0
  -25.9171  -32.4760   23.8361 C   0  0  1  0  0  0
  -27.2047  -27.2353   20.1115 C   0  0  0  0  0  0
  -25.5960  -33.8563   24.2276 N   0  0  0  0  0  0
  -23.4306  -30.4858   21.5480 C   0  0  2  0  0  0
  -24.8741  -28.9449   20.1092 C   0  0  0  0  0  0
  -22.7519  -29.4617   22.4910 C   0  0  0  0  0  0
  -18.0299  -28.1389   22.8481 C   0  0  0  0  0  0
  -24.1493  -36.7279   23.2637 C   0  0  0  0  0  0
  -25.9843  -30.7570   21.3943 C   0  0  0  0  0  0
  -26.0511  -29.3814   20.7300 C   0  0  0  0  0  0
  -27.2146  -28.5371   20.7309 C   0  0  0  0  0  0
  -26.0016  -26.9054   19.4338 C   0  0  0  0  0  0
  -24.8570  -27.7138   19.4520 C   0  0  0  0  0  0
  -23.6494  -29.8349   20.1606 C   0  0  0  0  0  0
  -25.4120  -36.3067   24.0326 C   0  0  1  0  0  0
  -20.5907  -28.3707   23.1256 C   0  0  2  0  0  0
  -20.6788  -26.9423   22.5399 C   0  0  0  0  0  0
  -19.5758  -26.6385   21.5209 C   0  0  0  0  0  0
  -18.1941  -26.7929   22.1626 C   0  0  0  0  0  0
  -19.1553  -28.8864   23.2864 C   0  0  0  0  0  0
  -18.9472  -30.1463   23.8886 C   0  0  0  0  0  0
  -17.6470  -30.6587   24.0562 C   0  0  0  0  0  0
  -25.9064  -34.9439   23.5095 C   0  0  0  0  0  0
  -16.5361  -29.9084   23.6333 C   0  0  0  0  0  0
  -16.7284  -28.6502   23.0353 C   0  0  0  0  0  0
  -26.4521  -31.6583   25.0756 C   0  0  0  0  0  0
  -25.3728  -31.3744   26.1464 C   0  0  0  0  0  0
  -27.0373  -30.2988   24.6278 C   0  0  0  0  0  0
  -27.6071  -32.4326   25.7527 C   0  0  0  0  0  0
  -27.5578  -37.1802   24.8467 C   0  0  0  0  0  0
  -21.4225  -29.3058   22.3647 N   0  0  0  0  0  0
  -26.4291  -37.3768   23.9405 N   0  0  0  0  0  0
  -24.7025  -31.0507   22.1034 N   0  0  0  0  0  0
  -23.4213  -28.8135   23.2996 O   0  0  0  0  0  0
  -28.2680  -26.2812   20.1977 O   0  0  0  0  0  0
  -26.5627  -34.8909   22.4661 O   0  0  0  0  0  0
  -23.5491  -32.1403   23.7307 O   0  0  0  0  0  0
  -27.7770  -22.4139   20.4477 C   0  0  0  0  0  0
  -28.2176  -21.0599   20.5966 C   0  0  0  0  0  0
  -28.6668  -23.4999   20.1709 C   0  0  0  0  0  0
  -30.0307  -23.0826   20.1304 C   0  0  0  0  0  0
  -29.5844  -20.7356   20.4745 C   0  0  0  0  0  0
  -32.3019  -24.2092   20.8026 C   0  0  0  0  0  0
  -31.2958  -25.3194   20.6488 C   0  0  0  0  0  0
  -29.8135  -16.9697   19.6036 C   0  0  0  0  0  0
  -30.2681  -17.0055   21.5747 C   0  0  0  0  0  0
  -31.1429  -24.0476   19.8422 C   0  0  0  0  0  0
  -29.5145  -18.0423   20.6886 C   0  0  0  0  0  0
  -28.3174  -24.9854   18.1136 C   0  0  0  0  0  0
  -28.0616  -24.8908   19.6294 C   0  0  2  0  0  0
  -30.4483  -21.7714   20.2746 N   0  0  0  0  0  0
  -29.8833  -15.8937   20.6474 N   0  0  0  0  0  0
  -30.1542  -19.4069   20.5269 N   0  0  0  0  0  0
  -31.4739  -12.5691   19.1699 H   0  0  0  0  0  0
  -30.3711  -11.4780   19.9607 H   0  0  0  0  0  0
  -29.7929  -11.7320   17.5209 H   0  0  0  0  0  0
  -29.6365  -13.4601   17.7217 H   0  0  0  0  0  0
  -27.8971  -11.2830   18.9210 H   0  0  0  0  0  0
  -27.3784  -12.5173   17.8036 H   0  0  0  0  0  0
  -27.6379  -14.2567   19.4693 H   0  0  0  0  0  0
  -28.7196  -12.1862   21.4404 H   0  0  0  0  0  0
  -28.4271  -13.8769   21.7825 H   0  0  0  0  0  0
  -25.2769   -9.5688   22.4756 H   0  0  0  0  0  0
  -24.0005   -7.4640   22.7475 H   0  0  0  0  0  0
  -21.0844   -8.8788   19.8950 H   0  0  0  0  0  0
  -22.3709  -10.9681   19.6160 H   0  0  0  0  0  0
  -21.2016   -7.6149   23.9720 H   0  0  0  0  0  0
  -21.1479   -6.0520   25.9079 H   0  0  0  0  0  0
  -22.0597   -2.7608   23.2842 H   0  0  0  0  0  0
  -22.4085  -11.9897   22.4822 H   0  0  0  0  0  0
  -21.1080  -13.1242   22.2609 H   0  0  0  0  0  0
  -24.6637  -15.8546   20.5408 H   0  0  0  0  0  0
  -26.2913  -15.6326   20.1351 H   0  0  0  0  0  0
  -26.7233  -32.5390   23.1093 H   0  0  0  0  0  0
  -25.0107  -33.9701   25.0420 H   0  0  0  0  0  0
  -22.7279  -31.3101   21.4085 H   0  0  0  0  0  0
  -23.3754  -35.9612   23.3302 H   0  0  0  0  0  0
  -24.3582  -36.8899   22.2050 H   0  0  0  0  0  0
  -23.7250  -37.6484   23.6660 H   0  0  0  0  0  0
  -26.1354  -31.5195   20.6290 H   0  0  0  0  0  0
  -26.8578  -30.7975   22.0330 H   0  0  0  0  0  0
  -28.1059  -28.8618   21.2494 H   0  0  0  0  0  0
  -25.8699  -25.9981   18.8693 H   0  0  0  0  0  0
  -23.9633  -27.3796   18.9428 H   0  0  0  0  0  0
  -23.7799  -30.6182   19.4131 H   0  0  0  0  0  0
  -22.7655  -29.2761   19.8476 H   0  0  0  0  0  0
  -25.1302  -36.1916   25.0819 H   0  0  0  0  0  0
  -20.9999  -28.3285   24.1378 H   0  0  0  0  0  0
  -20.5694  -26.2318   23.3607 H   0  0  0  0  0  0
  -21.6654  -26.7449   22.1190 H   0  0  0  0  0  0
  -19.6920  -25.6294   21.1245 H   0  0  0  0  0  0
  -19.6687  -27.3190   20.6733 H   0  0  0  0  0  0
  -17.4208  -26.6669   21.4033 H   0  0  0  0  0  0
  -18.0347  -26.0075   22.9027 H   0  0  0  0  0  0
  -19.7947  -30.7282   24.2250 H   0  0  0  0  0  0
  -17.5024  -31.6266   24.5165 H   0  0  0  0  0  0
  -15.5361  -30.2983   23.7663 H   0  0  0  0  0  0
  -15.8684  -28.0819   22.7075 H   0  0  0  0  0  0
  -24.5919  -30.7075   25.7793 H   0  0  0  0  0  0
  -24.8899  -32.2913   26.4851 H   0  0  0  0  0  0
  -25.8035  -30.8952   27.0264 H   0  0  0  0  0  0
  -26.2974  -29.6731   24.1275 H   0  0  0  0  0  0
  -27.4000  -29.7264   25.4825 H   0  0  0  0  0  0
  -27.8878  -30.4242   23.9575 H   0  0  0  0  0  0
  -27.2685  -33.3643   26.2067 H   0  0  0  0  0  0
  -28.3898  -32.6857   25.0365 H   0  0  0  0  0  0
  -28.0713  -31.8470   26.5471 H   0  0  0  0  0  0
  -28.2604  -38.0092   24.7505 H   0  0  0  0  0  0
  -28.1068  -36.2626   24.6307 H   0  0  0  0  0  0
  -27.2293  -37.1462   25.8870 H   0  0  0  0  0  0
  -20.9411  -29.8793   21.6863 H   0  0  0  0  0  0
  -26.0170  -38.2842   24.1399 H   0  0  0  0  0  0
  -26.7125  -22.5958   20.4757 H   0  0  0  0  0  0
  -27.4873  -20.2804   20.7627 H   0  0  0  0  0  0
  -32.2779  -23.6323   21.7251 H   0  0  0  0  0  0
  -33.2903  -24.3744   20.3789 H   0  0  0  0  0  0
  -31.6189  -26.2155   20.1232 H   0  0  0  0  0  0
  -30.6066  -25.4840   21.4748 H   0  0  0  0  0  0
  -30.7561  -17.1311   19.0742 H   0  0  0  0  0  0
  -28.9988  -16.8484   18.8886 H   0  0  0  0  0  0
  -29.8486  -16.9181   22.5778 H   0  0  0  0  0  0
  -31.3465  -17.1747   21.6323 H   0  0  0  0  0  0
  -31.3651  -24.0870   18.7773 H   0  0  0  0  0  0
  -28.4528  -18.0931   20.9342 H   0  0  0  0  0  0
  -27.8057  -25.8305   17.6558 H   0  0  0  0  0  0
  -27.9726  -24.0857   17.6027 H   0  0  0  0  0  0
  -29.3774  -25.1045   17.8948 H   0  0  0  0  0  0
  -27.0140  -24.6614   19.7882 H   0  0  0  0  0  0
  -31.1612  -19.3881   20.4165 H   0  0  0  0  0  0
  1 25  1  0  0  0
  1 30  2  0  0  0
  1 85  1  0  0  0
  2  3  1  0  0  0
  2 25  1  0  0  0
  2 87  1  0  0  0
  2 88  1  0  0  0
  3  4  1  0  0  0
  3 89  1  0  0  0
  3 90  1  0  0  0
  4  5  1  0  0  0
  4 91  1  0  0  0
  4 92  1  0  0  0
  5  6  1  0  0  0
  5 26  1  0  0  0
  5 93  1  0  0  0
  6 25  1  0  0  0
  6 94  1  0  0  0
  6 95  1  0  0  0
  7  8  2  0  0  0
  7 26  1  0  0  0
  7 29  1  0  0  0
  8  9  1  0  0  0
  8 22  1  0  0  0
  9 10  1  0  0  0
  9 27  2  0  0  0
 10 11  2  0  0  0
 10 15  1  0  0  0
 11 12  1  0  0  0
 11 96  1  0  0  0
 12 13  2  0  0  0
 12 97  1  0  0  0
 13 14  1  0  0  0
 13 31  1  0  0  0
 14 15  2  0  0  0
 14 98  1  0  0  0
 15 99  1  0  0  0
 16 17  2  0  0  0
 16 21  1  0  0  0
 16 31  1  0  0  0
 17 18  1  0  0  0
 17100  1  0  0  0
 18 19  2  0  0  0
 18101  1  0  0  0
 19 20  1  0  0  0
 19 24  1  0  0  0
 20 21  2  0  0  0
 20102  1  0  0  0
 21 23  1  0  0  0
 22 28  1  0  0  0
 22 32  2  0  0  0
 26 27  1  0  0  0
 28103  1  0  0  0
 28104  1  0  0  0
 29105  1  0  0  0
 29106  1  0  0  0
 33 34  1  0  0  0
 33 66  1  0  0  0
 33 70  2  0  0  0
 34 36  1  0  0  0
 34 59  1  0  0  0
 34107  1  0  0  0
 35 44  2  0  0  0
 35 45  1  0  0  0
 35 68  1  0  0  0
 36 56  1  0  0  0
 36108  1  0  0  0
 37 39  1  0  0  0
 37 47  1  0  0  0
 37 66  1  0  0  0
 37109  1  0  0  0
 38 43  2  0  0  0
 38 46  1  0  0  0
 38 47  1  0  0  0
 39 64  1  0  0  0
 39 67  2  0  0  0
 40 52  1  0  0  0
 40 53  2  0  0  0
 40 58  1  0  0  0
 41110  1  0  0  0
 41111  1  0  0  0
 41112  1  0  0  0
 41 48  1  0  0  0
 42 43  1  0  0  0
 42 66  1  0  0  0
 42113  1  0  0  0
 42114  1  0  0  0
 43 44  1  0  0  0
 44115  1  0  0  0
 45 46  2  0  0  0
 45116  1  0  0  0
 46117  1  0  0  0
 47118  1  0  0  0
 47119  1  0  0  0
 48 56  1  0  0  0
 48 65  1  0  0  0
 48120  1  0  0  0
 49 50  1  0  0  0
 49 53  1  0  0  0
 49 64  1  0  0  0
 49121  1  0  0  0
 50 51  1  0  0  0
 50122  1  0  0  0
 50123  1  0  0  0
 51 52  1  0  0  0
 51124  1  0  0  0
 51125  1  0  0  0
 52126  1  0  0  0
 52127  1  0  0  0
 53 54  1  0  0  0
 54 55  2  0  0  0
 54128  1  0  0  0
 55 57  1  0  0  0
 55129  1  0  0  0
 56 69  2  0  0  0
 57 58  2  0  0  0
 57130  1  0  0  0
 58131  1  0  0  0
 59 60  1  0  0  0
 59 61  1  0  0  0
 59 62  1  0  0  0
 60132  1  0  0  0
 60133  1  0  0  0
 60134  1  0  0  0
 61135  1  0  0  0
 61136  1  0  0  0
 61137  1  0  0  0
 62138  1  0  0  0
 62139  1  0  0  0
 62140  1  0  0  0
 63 65  1  0  0  0
 63141  1  0  0  0
 63142  1  0  0  0
 63143  1  0  0  0
 64144  1  0  0  0
 65145  1  0  0  0
 68 83  1  0  0  0
 71 72  2  0  0  0
 71 73  1  0  0  0
 71146  1  0  0  0
 72 75  1  0  0  0
 72147  1  0  0  0
 73 74  2  0  0  0
 73 83  1  0  0  0
 74 84  1  0  0  0
 74 80  1  0  0  0
 75 84  2  0  0  0
 75 86  1  0  0  0
 76 77  1  0  0  0
 76 80  1  0  0  0
 76148  1  0  0  0
 76149  1  0  0  0
 77 80  1  0  0  0
 77150  1  0  0  0
 77151  1  0  0  0
 78 81  1  0  0  0
 78 85  1  0  0  0
 78152  1  0  0  0
 78153  1  0  0  0
 79 81  1  0  0  0
 79 85  1  0  0  0
 79154  1  0  0  0
 79155  1  0  0  0
 80156  1  0  0  0
 81 86  1  0  0  0
 81157  1  0  0  0
 82158  1  0  0  0
 82159  1  0  0  0
 82160  1  0  0  0
 82 83  1  0  0  0
 83161  1  0  0  0
 86162  1  0  0  0
M  ISO  4   1 100  68 101  83 101  85 100
M  END
> <chiral flag>
0

> <version>
0

> <s_m_source_file>
/data/baiqing/PycharmProjects/Reinvent-master-3.2/result/LINK_invent/BTK/process_docking_weight1_custom_sum_contain_oxygen_bond_distance_aromatic_linkinvent_7_9_3/rearranged_h_0177.sdf

> <i_m_source_file_index>
23

> <r_mmod_Potential_Energy-OPLS-2005>
95.0701217651367

> <r_mmod_Stretch_Energy-OPLS-2005>
116.621055603027

> <r_mmod_Bend_Energy-OPLS-2005>
214.320648193359

> <r_mmod_Torsional_Energy-OPLS-2005>
289.440979003906

> <r_mmod_Improper_Torsional_Energy-OPLS-2005>
15.7866811752319

> <r_mmod_Van_der_Waal_Energy-OPLS-2005>
145.644790649414

> <r_mmod_Electrostatic_Energy-OPLS-2005>
-567.602966308594

> <r_mmod_Solvation_Energy-OPLS-2005>
-215.691101074219

> <b_mmod_Minimization_Converged-OPLS-2005>
0

> <r_mmod_RMS_Derivative-OPLS-2005>
0.675996124744415

$$$$
23
                    3D
 Structure written by MMmdl.
166176  0  0  1  0            999 V2000
  -30.6534  -14.8526   20.4333 C   0  0  0  0  0  0
  -30.4110  -12.5371   19.4778 C   0  0  0  0  0  0
  -29.4983  -12.5092   18.2363 C   0  0  0  0  0  0
  -28.0325  -12.3193   18.6636 C   0  0  0  0  0  0
  -27.6241  -13.2534   19.8347 C   0  0  2  0  0  0
  -28.6744  -13.2855   20.9645 C   0  0  0  0  0  0
  -25.2439  -13.8244   20.5739 C   0  0  0  0  0  0
  -24.1761  -13.0453   20.9241 C   0  0  0  0  0  0
  -24.6385  -11.6941   20.8771 C   0  0  0  0  0  0
  -23.9077  -10.4303   21.0413 C   0  0  0  0  0  0
  -24.3626   -9.4213   21.9188 C   0  0  0  0  0  0
  -23.6299   -8.2249   22.0756 C   0  0  0  0  0  0
  -22.4280   -8.0287   21.3548 C   0  0  0  0  0  0
  -21.9917   -9.0261   20.4650 C   0  0  0  0  0  0
  -22.7249  -10.2140   20.3060 C   0  0  0  0  0  0
  -21.6856   -6.0737   22.5278 C   0  0  0  0  0  0
  -21.4020   -6.5641   23.8211 C   0  0  0  0  0  0
  -21.3661   -5.6794   24.9174 C   0  0  0  0  0  0
  -21.6042   -4.3056   24.7224 C   0  0  0  0  0  0
  -21.8817   -3.8147   23.4345 C   0  0  0  0  0  0
  -21.9193   -4.6964   22.3401 C   0  0  0  0  0  0
  -22.7778  -13.5213   21.1887 C   0  0  0  0  0  0
  -22.1661   -4.2151   21.0978 F   0  0  0  0  0  0
  -21.5626   -3.4539   25.7736 F   0  0  0  0  0  0
  -29.9451  -13.6623   20.3374 N   0  0  0  0  0  0
  -26.2867  -12.9489   20.3284 N   0  0  0  0  0  0
  -25.9321  -11.6609   20.5775 N   0  0  0  0  0  0
  -22.0433  -12.8197   22.0444 N   0  0  0  0  0  0
  -25.4104  -15.1971   20.4160 N   0  0  0  0  0  0
  -31.8695  -14.7644   20.2279 O   0  0  0  0  0  0
  -21.6644   -6.8883   21.4241 O   0  0  0  0  0  0
  -22.3455  -14.5513   20.6729 O   0  0  0  0  0  0
  -24.6391  -31.8489   23.1926 C   0  0  0  0  0  0
  -25.9185  -32.4719   23.8294 C   0  0  1  0  0  0
  -27.2064  -27.1834   20.1380 C   0  0  0  0  0  0
  -25.5951  -33.8525   24.2211 N   0  0  0  0  0  0
  -23.4388  -30.4717   21.5380 C   0  0  2  0  0  0
  -24.8842  -28.9087   20.1088 C   0  0  0  0  0  0
  -22.7540  -29.4576   22.4876 C   0  0  0  0  0  0
  -18.0301  -28.1395   22.8477 C   0  0  0  0  0  0
  -24.1492  -36.7267   23.2640 C   0  0  0  0  0  0
  -25.9920  -30.7375   21.3843 C   0  0  0  0  0  0
  -26.0615  -29.3547   20.7227 C   0  0  0  0  0  0
  -27.2263  -28.5075   20.7205 C   0  0  0  0  0  0
  -26.0032  -26.8273   19.4894 C   0  0  0  0  0  0
  -24.8651  -27.6570   19.4784 C   0  0  0  0  0  0
  -23.6608  -29.8067   20.1548 C   0  0  0  0  0  0
  -25.4123  -36.3047   24.0316 C   0  0  1  0  0  0
  -20.5911  -28.3715   23.1246 C   0  0  2  0  0  0
  -20.6789  -26.9424   22.5403 C   0  0  0  0  0  0
  -19.5763  -26.6383   21.5210 C   0  0  0  0  0  0
  -18.1944  -26.7933   22.1622 C   0  0  0  0  0  0
  -19.1556  -28.8872   23.2855 C   0  0  0  0  0  0
  -18.9474  -30.1469   23.8880 C   0  0  0  0  0  0
  -17.6472  -30.6590   24.0563 C   0  0  0  0  0  0
  -25.9071  -34.9421   23.5070 C   0  0  0  0  0  0
  -16.5364  -29.9085   23.6336 C   0  0  0  0  0  0
  -16.7287  -28.6505   23.0353 C   0  0  0  0  0  0
  -26.4519  -31.6574   25.0719 C   0  0  0  0  0  0
  -25.3713  -31.3756   26.1420 C   0  0  0  0  0  0
  -27.0378  -30.2974   24.6275 C   0  0  0  0  0  0
  -27.6050  -32.4337   25.7505 C   0  0  0  0  0  0
  -27.5578  -37.1791   24.8464 C   0  0  0  0  0  0
  -21.4239  -29.3048   22.3622 N   0  0  0  0  0  0
  -26.4289  -37.3755   23.9407 N   0  0  0  0  0  0
  -24.7096  -31.0391   22.0937 N   0  0  0  0  0  0
  -23.4208  -28.8117   23.3004 O   0  0  0  0  0  0
  -28.2661  -26.2244   20.2075 O   0  0  0  0  0  0
  -26.5651  -34.8910   22.4644 O   0  0  0  0  0  0
  -23.5523  -32.1347   23.7179 O   0  0  0  0  0  0
  -28.7968  -22.0673   20.3134 C   0  0  0  0  0  0
  -29.8344  -21.0389   20.5309 C   0  0  0  0  0  0
  -29.0593  -23.5284   20.3263 C   0  0  0  0  0  0
  -31.1165  -21.6148   20.7698 C   0  0  0  0  0  0
  -30.4116  -23.8575   20.5454 C   0  0  0  0  0  0
  -32.6034  -20.1191   22.3605 C   0  0  0  0  0  0
  -33.4414  -21.3098   21.9989 C   0  0  0  0  0  0
  -28.6484  -18.4124   20.9491 C   0  0  0  0  0  0
  -30.3646  -18.6433   19.3009 C   0  0  0  0  0  0
  -29.0586  -16.8464   21.1782 C   0  0  0  0  0  0
  -30.9131  -17.1849   19.5886 C   0  0  0  0  0  0
  -29.8073  -19.3884   20.5405 C   0  0  0  0  0  0
  -32.3757  -20.8180   21.0314 C   0  0  0  0  0  0
  -30.9259  -25.2851   20.5636 C   0  0  0  0  0  0
  -27.9754  -24.7183   20.0728 C   0  0  0  0  0  0
  -31.3717  -22.9392   20.7496 N   0  0  0  0  0  0
  -30.0661  -16.1487   20.2856 N   0  0  0  0  0  0
  -31.4498  -12.6415   19.1614 H   0  0  0  0  0  0
  -30.3629  -11.5903   20.0182 H   0  0  0  0  0  0
  -29.7987  -11.7083   17.5592 H   0  0  0  0  0  0
  -29.6043  -13.4409   17.6782 H   0  0  0  0  0  0
  -27.9152  -11.2780   18.9654 H   0  0  0  0  0  0
  -27.3665  -12.4653   17.8124 H   0  0  0  0  0  0
  -27.5872  -14.2562   19.4077 H   0  0  0  0  0  0
  -28.7508  -12.3172   21.4610 H   0  0  0  0  0  0
  -28.3968  -14.0069   21.7336 H   0  0  0  0  0  0
  -25.2769   -9.5688   22.4765 H   0  0  0  0  0  0
  -24.0008   -7.4637   22.7473 H   0  0  0  0  0  0
  -21.0851   -8.8779   19.8952 H   0  0  0  0  0  0
  -22.3707  -10.9679   19.6170 H   0  0  0  0  0  0
  -21.2019   -7.6150   23.9717 H   0  0  0  0  0  0
  -21.1484   -6.0524   25.9078 H   0  0  0  0  0  0
  -22.0595   -2.7609   23.2843 H   0  0  0  0  0  0
  -22.4061  -11.9870   22.4843 H   0  0  0  0  0  0
  -21.1046  -13.1209   22.2647 H   0  0  0  0  0  0
  -24.6433  -15.8503   20.5322 H   0  0  0  0  0  0
  -26.2610  -15.6385   20.0911 H   0  0  0  0  0  0
  -26.7246  -32.5337   23.1022 H   0  0  0  0  0  0
  -25.0084  -33.9648   25.0349 H   0  0  0  0  0  0
  -22.7390  -31.2966   21.3892 H   0  0  0  0  0  0
  -23.3759  -35.9593   23.3294 H   0  0  0  0  0  0
  -24.3576  -36.8907   22.2056 H   0  0  0  0  0  0
  -23.7243  -37.6459   23.6682 H   0  0  0  0  0  0
  -26.1448  -31.4963   20.6158 H   0  0  0  0  0  0
  -26.8641  -30.7826   22.0252 H   0  0  0  0  0  0
  -28.1254  -28.8422   21.2186 H   0  0  0  0  0  0
  -25.9027  -25.8719   18.9984 H   0  0  0  0  0  0
  -23.9647  -27.3111   18.9895 H   0  0  0  0  0  0
  -23.7960  -30.5840   19.4018 H   0  0  0  0  0  0
  -22.7754  -29.2492   19.8436 H   0  0  0  0  0  0
  -25.1311  -36.1880   25.0809 H   0  0  0  0  0  0
  -21.0004  -28.3304   24.1366 H   0  0  0  0  0  0
  -20.5687  -26.2328   23.3617 H   0  0  0  0  0  0
  -21.6656  -26.7439   22.1200 H   0  0  0  0  0  0
  -19.6927  -25.6288   21.1253 H   0  0  0  0  0  0
  -19.6701  -27.3183   20.6730 H   0  0  0  0  0  0
  -17.4212  -26.6674   21.4027 H   0  0  0  0  0  0
  -18.0348  -26.0081   22.9024 H   0  0  0  0  0  0
  -19.7950  -30.7289   24.2243 H   0  0  0  0  0  0
  -17.5026  -31.6268   24.5170 H   0  0  0  0  0  0
  -15.5364  -30.2982   23.7670 H   0  0  0  0  0  0
  -15.8686  -28.0820   22.7077 H   0  0  0  0  0  0
  -24.5889  -30.7109   25.7742 H   0  0  0  0  0  0
  -24.8908  -32.2939   26.4804 H   0  0  0  0  0  0
  -25.8000  -30.8954   27.0224 H   0  0  0  0  0  0
  -26.2983  -29.6703   24.1281 H   0  0  0  0  0  0
  -27.3999  -29.7265   25.4836 H   0  0  0  0  0  0
  -27.8889  -30.4217   23.9577 H   0  0  0  0  0  0
  -27.2637  -33.3647   26.2044 H   0  0  0  0  0  0
  -28.3881  -32.6886   25.0352 H   0  0  0  0  0  0
  -28.0696  -31.8493   26.5457 H   0  0  0  0  0  0
  -28.2589  -38.0094   24.7512 H   0  0  0  0  0  0
  -28.1082  -36.2624   24.6290 H   0  0  0  0  0  0
  -27.2295  -37.1436   25.8866 H   0  0  0  0  0  0
  -20.9439  -29.8765   21.6812 H   0  0  0  0  0  0
  -26.0160  -38.2825   24.1412 H   0  0  0  0  0  0
  -27.7861  -21.7345   20.1266 H   0  0  0  0  0  0
  -31.8529  -20.2543   23.1370 H   0  0  0  0  0  0
  -33.0883  -19.1453   22.3414 H   0  0  0  0  0  0
  -34.4813  -21.1206   21.7418 H   0  0  0  0  0  0
  -33.2580  -22.2293   22.5517 H   0  0  0  0  0  0
  -28.1869  -18.7779   21.8670 H   0  0  0  0  0  0
  -27.8626  -18.4663   20.1941 H   0  0  0  0  0  0
  -29.6041  -18.6089   18.5192 H   0  0  0  0  0  0
  -31.1810  -19.2200   18.8681 H   0  0  0  0  0  0
  -28.1435  -16.2557   21.1787 H   0  0  0  0  0  0
  -29.4534  -16.7585   22.1915 H   0  0  0  0  0  0
  -31.8239  -17.3079   20.1780 H   0  0  0  0  0  0
  -31.2390  -16.7659   18.6345 H   0  0  0  0  0  0
  -30.5011  -19.1608   21.3425 H   0  0  0  0  0  0
  -32.7312  -20.3313   20.1261 H   0  0  0  0  0  0
  -30.7074  -25.7853   19.6203 H   0  0  0  0  0  0
  -32.0066  -25.3223   20.7067 H   0  0  0  0  0  0
  -30.4718  -25.8470   21.3794 H   0  0  0  0  0  0
  -27.1256  -24.4938   20.7188 H   0  0  0  0  0  0
  -27.6286  -24.5519   19.0530 H   0  0  0  0  0  0
  1 25  1  0  0  0
  1 30  2  0  0  0
  1 87  1  0  0  0
  2  3  1  0  0  0
  2 25  1  0  0  0
  2 88  1  0  0  0
  2 89  1  0  0  0
  3  4  1  0  0  0
  3 90  1  0  0  0
  3 91  1  0  0  0
  4  5  1  0  0  0
  4 92  1  0  0  0
  4 93  1  0  0  0
  5  6  1  0  0  0
  5 26  1  0  0  0
  5 94  1  0  0  0
  6 25  1  0  0  0
  6 95  1  0  0  0
  6 96  1  0  0  0
  7  8  2  0  0  0
  7 26  1  0  0  0
  7 29  1  0  0  0
  8  9  1  0  0  0
  8 22  1  0  0  0
  9 10  1  0  0  0
  9 27  2  0  0  0
 10 11  2  0  0  0
 10 15  1  0  0  0
 11 12  1  0  0  0
 11 97  1  0  0  0
 12 13  2  0  0  0
 12 98  1  0  0  0
 13 14  1  0  0  0
 13 31  1  0  0  0
 14 15  2  0  0  0
 14 99  1  0  0  0
 15100  1  0  0  0
 16 17  2  0  0  0
 16 21  1  0  0  0
 16 31  1  0  0  0
 17 18  1  0  0  0
 17101  1  0  0  0
 18 19  2  0  0  0
 18102  1  0  0  0
 19 20  1  0  0  0
 19 24  1  0  0  0
 20 21  2  0  0  0
 20103  1  0  0  0
 21 23  1  0  0  0
 22 28  1  0  0  0
 22 32  2  0  0  0
 26 27  1  0  0  0
 28104  1  0  0  0
 28105  1  0  0  0
 29106  1  0  0  0
 29107  1  0  0  0
 33 34  1  0  0  0
 33 66  1  0  0  0
 33 70  2  0  0  0
 34 36  1  0  0  0
 34 59  1  0  0  0
 34108  1  0  0  0
 35 44  2  0  0  0
 35 45  1  0  0  0
 35 68  1  0  0  0
 36 56  1  0  0  0
 36109  1  0  0  0
 37 39  1  0  0  0
 37 47  1  0  0  0
 37 66  1  0  0  0
 37110  1  0  0  0
 38 43  2  0  0  0
 38 46  1  0  0  0
 38 47  1  0  0  0
 39 64  1  0  0  0
 39 67  2  0  0  0
 40 52  1  0  0  0
 40 53  2  0  0  0
 40 58  1  0  0  0
 41111  1  0  0  0
 41112  1  0  0  0
 41113  1  0  0  0
 41 48  1  0  0  0
 42 43  1  0  0  0
 42 66  1  0  0  0
 42114  1  0  0  0
 42115  1  0  0  0
 43 44  1  0  0  0
 44116  1  0  0  0
 45 46  2  0  0  0
 45117  1  0  0  0
 46118  1  0  0  0
 47119  1  0  0  0
 47120  1  0  0  0
 48 56  1  0  0  0
 48 65  1  0  0  0
 48121  1  0  0  0
 49 50  1  0  0  0
 49 53  1  0  0  0
 49 64  1  0  0  0
 49122  1  0  0  0
 50 51  1  0  0  0
 50123  1  0  0  0
 50124  1  0  0  0
 51 52  1  0  0  0
 51125  1  0  0  0
 51126  1  0  0  0
 52127  1  0  0  0
 52128  1  0  0  0
 53 54  1  0  0  0
 54 55  2  0  0  0
 54129  1  0  0  0
 55 57  1  0  0  0
 55130  1  0  0  0
 56 69  2  0  0  0
 57 58  2  0  0  0
 57131  1  0  0  0
 58132  1  0  0  0
 59 60  1  0  0  0
 59 61  1  0  0  0
 59 62  1  0  0  0
 60133  1  0  0  0
 60134  1  0  0  0
 60135  1  0  0  0
 61136  1  0  0  0
 61137  1  0  0  0
 61138  1  0  0  0
 62139  1  0  0  0
 62140  1  0  0  0
 62141  1  0  0  0
 63 65  1  0  0  0
 63142  1  0  0  0
 63143  1  0  0  0
 63144  1  0  0  0
 64145  1  0  0  0
 65146  1  0  0  0
 68 85  1  0  0  0
 71 72  2  0  0  0
 71 73  1  0  0  0
 71147  1  0  0  0
 72 74  1  0  0  0
 72 82  1  0  0  0
 73 75  2  0  0  0
 73 85  1  0  0  0
 74 86  2  0  0  0
 74 83  1  0  0  0
 75 84  1  0  0  0
 75 86  1  0  0  0
 76 77  1  0  0  0
 76 83  1  0  0  0
 76148  1  0  0  0
 76149  1  0  0  0
 77 83  1  0  0  0
 77150  1  0  0  0
 77151  1  0  0  0
 78 80  1  0  0  0
 78 82  1  0  0  0
 78152  1  0  0  0
 78153  1  0  0  0
 79 81  1  0  0  0
 79 82  1  0  0  0
 79154  1  0  0  0
 79155  1  0  0  0
 80 87  1  0  0  0
 80156  1  0  0  0
 80157  1  0  0  0
 81 87  1  0  0  0
 81158  1  0  0  0
 81159  1  0  0  0
 82160  1  0  0  0
 83161  1  0  0  0
 84162  1  0  0  0
 84163  1  0  0  0
 84164  1  0  0  0
 85165  1  0  0  0
 85166  1  0  0  0
M  ISO  4   1 100  68 101  85 101  87 100
M  END
> <chiral flag>
0

> <version>
0

> <s_m_source_file>
/data/baiqing/PycharmProjects/Reinvent-master-3.2/result/LINK_invent/BTK/process_docking_weight1_custom_sum_contain_oxygen_bond_distance_aromatic_linkinvent_7_9_3/rearranged_h_0177.sdf

> <i_m_source_file_index>
24

> <r_mmod_Potential_Energy-OPLS-2005>
496.921081542969

> <r_mmod_Stretch_Energy-OPLS-2005>
197.772705078125

> <r_mmod_Bend_Energy-OPLS-2005>
277.954254150391

> <r_mmod_Torsional_Energy-OPLS-2005>
341.469299316406

> <r_mmod_Improper_Torsional_Energy-OPLS-2005>
16.5955619812012

> <r_mmod_Van_der_Waal_Energy-OPLS-2005>
151.314682006836

> <r_mmod_Electrostatic_Energy-OPLS-2005>
-429.254699707031

> <r_mmod_Solvation_Energy-OPLS-2005>
-206.0380859375

> <b_mmod_Minimization_Converged-OPLS-2005>
0

> <r_mmod_RMS_Derivative-OPLS-2005>
0.427116245031357

$$$$
24
                    3D
 Structure written by MMmdl.
158168  0  0  1  0            999 V2000
  -30.4360  -15.2733   20.3491 C   0  0  0  0  0  0
  -30.4378  -12.8131   19.5186 C   0  0  0  0  0  0
  -29.5337  -12.5765   18.2825 C   0  0  0  0  0  0
  -28.0813  -12.3022   18.7114 C   0  0  0  0  0  0
  -27.6107  -13.2764   19.8208 C   0  0  2  0  0  0
  -28.6462  -13.4575   20.9506 C   0  0  0  0  0  0
  -25.2402  -13.8251   20.5751 C   0  0  0  0  0  0
  -24.1751  -13.0437   20.9257 C   0  0  0  0  0  0
  -24.6414  -11.6940   20.8760 C   0  0  0  0  0  0
  -23.9105  -10.4300   21.0398 C   0  0  0  0  0  0
  -24.3645   -9.4214   21.9178 C   0  0  0  0  0  0
  -23.6311   -8.2251   22.0754 C   0  0  0  0  0  0
  -22.4296   -8.0287   21.3542 C   0  0  0  0  0  0
  -21.9932   -9.0264   20.4648 C   0  0  0  0  0  0
  -22.7270  -10.2141   20.3053 C   0  0  0  0  0  0
  -21.6858   -6.0742   22.5281 C   0  0  0  0  0  0
  -21.4020   -6.5644   23.8217 C   0  0  0  0  0  0
  -21.3663   -5.6791   24.9172 C   0  0  0  0  0  0
  -21.6043   -4.3056   24.7218 C   0  0  0  0  0  0
  -21.8822   -3.8153   23.4340 C   0  0  0  0  0  0
  -21.9199   -4.6970   22.3399 C   0  0  0  0  0  0
  -22.7771  -13.5196   21.1899 C   0  0  0  0  0  0
  -22.1666   -4.2157   21.0975 F   0  0  0  0  0  0
  -21.5626   -3.4541   25.7731 F   0  0  0  0  0  0
  -29.8745  -13.9639   20.3178 N   0  0  0  0  0  0
  -26.2822  -12.9529   20.3224 N   0  0  0  0  0  0
  -25.9347  -11.6634   20.5720 N   0  0  0  0  0  0
  -22.0438  -12.8171   22.0457 N   0  0  0  0  0  0
  -25.4030  -15.1981   20.4185 N   0  0  0  0  0  0
  -31.6573  -15.2704   20.1435 O   0  0  0  0  0  0
  -21.6653   -6.8887   21.4242 O   0  0  0  0  0  0
  -22.3448  -14.5493   20.6743 O   0  0  0  0  0  0
  -24.6635  -31.8221   23.1688 C   0  0  0  0  0  0
  -25.9318  -32.4578   23.8160 C   0  0  1  0  0  0
  -27.2255  -26.9238   20.1700 C   0  0  0  0  0  0
  -25.5971  -33.8387   24.2069 N   0  0  0  0  0  0
  -23.4793  -30.4350   21.5151 C   0  0  2  0  0  0
  -24.9353  -28.8209   20.1025 C   0  0  0  0  0  0
  -22.7658  -29.4468   22.4744 C   0  0  0  0  0  0
  -18.0368  -28.1414   22.8411 C   0  0  0  0  0  0
  -24.1485  -36.7199   23.2651 C   0  0  0  0  0  0
  -26.0481  -30.6245   21.4042 C   0  0  0  0  0  0
  -26.1143  -29.2150   20.7451 C   0  0  0  0  0  0
  -27.2464  -28.2820   20.7627 C   0  0  0  0  0  0
  -26.0208  -26.6877   19.4694 C   0  0  0  0  0  0
  -24.9153  -27.5793   19.4444 C   0  0  0  0  0  0
  -23.7166  -29.7439   20.1416 C   0  0  0  0  0  0
  -25.4124  -36.2958   24.0302 C   0  0  1  0  0  0
  -20.5962  -28.3809   23.1169 C   0  0  2  0  0  0
  -20.6877  -26.9516   22.5354 C   0  0  0  0  0  0
  -19.5873  -26.6418   21.5151 C   0  0  0  0  0  0
  -18.2016  -26.8012   22.1462 C   0  0  0  0  0  0
  -19.1607  -28.8905   23.2806 C   0  0  0  0  0  0
  -18.9489  -30.1472   23.8877 C   0  0  0  0  0  0
  -17.6472  -30.6544   24.0586 C   0  0  0  0  0  0
  -25.9093  -34.9344   23.5015 C   0  0  0  0  0  0
  -16.5387  -29.9025   23.6332 C   0  0  0  0  0  0
  -16.7354  -28.6479   23.0307 C   0  0  0  0  0  0
  -26.4567  -31.6533   25.0696 C   0  0  0  0  0  0
  -25.3704  -31.3770   26.1360 C   0  0  0  0  0  0
  -27.0495  -30.2908   24.6454 C   0  0  0  0  0  0
  -27.6060  -32.4339   25.7505 C   0  0  0  0  0  0
  -27.5564  -37.1759   24.8468 C   0  0  0  0  0  0
  -21.4310  -29.3156   22.3547 N   0  0  0  0  0  0
  -26.4267  -37.3699   23.9416 N   0  0  0  0  0  0
  -24.7510  -30.9888   22.0819 N   0  0  0  0  0  0
  -23.4199  -28.7962   23.2936 O   0  0  0  0  0  0
  -28.2290  -25.8242   20.3102 O   0  0  0  0  0  0
  -26.5710  -34.8895   22.4614 O   0  0  0  0  0  0
  -23.5711  -32.1197   23.6775 O   0  0  0  0  0  0
  -26.6212  -19.9725   19.8936 C   0  0  0  0  0  0
  -27.2276  -22.1301   21.1544 C   0  0  0  0  0  0
  -28.1516  -19.7020   21.6246 C   0  0  0  0  0  0
  -28.0580  -21.6548   18.8520 C   0  0  0  0  0  0
  -29.5672  -21.3601   20.4446 C   0  0  0  0  0  0
  -26.9303  -20.5757   21.2626 C   0  0  2  0  0  0
  -27.9944  -20.0988   19.2253 C   0  0  1  0  0  0
  -28.3512  -22.5121   20.1358 C   0  0  2  0  0  0
  -29.0399  -19.7319   20.3624 C   0  0  2  0  0  0
  -30.0018  -18.1908   20.2698 C   0  0  0  0  0  0
  -28.3037  -24.2881   19.7058 C   0  0  0  0  0  0
  -29.6765  -16.5525   20.4085 N   0  0  0  0  0  0
  -31.4536  -13.0200   19.1801 H   0  0  0  0  0  0
  -30.5095  -11.9106   20.1287 H   0  0  0  0  0  0
  -29.9125  -11.7454   17.6867 H   0  0  0  0  0  0
  -29.5644  -13.4558   17.6385 H   0  0  0  0  0  0
  -28.0345  -11.2773   19.0807 H   0  0  0  0  0  0
  -27.4142  -12.3504   17.8508 H   0  0  0  0  0  0
  -27.5252  -14.2421   19.3230 H   0  0  0  0  0  0
  -28.8167  -12.5276   21.4945 H   0  0  0  0  0  0
  -28.2867  -14.1834   21.6813 H   0  0  0  0  0  0
  -25.2786   -9.5692   22.4758 H   0  0  0  0  0  0
  -24.0022   -7.4643   22.7474 H   0  0  0  0  0  0
  -21.0863   -8.8790   19.8947 H   0  0  0  0  0  0
  -22.3727  -10.9682   19.6171 H   0  0  0  0  0  0
  -21.2016   -7.6155   23.9719 H   0  0  0  0  0  0
  -21.1477   -6.0522   25.9074 H   0  0  0  0  0  0
  -22.0598   -2.7618   23.2838 H   0  0  0  0  0  0
  -22.4082  -11.9839   22.4838 H   0  0  0  0  0  0
  -21.1056  -13.1173   22.2673 H   0  0  0  0  0  0
  -24.6307  -15.8457   20.5302 H   0  0  0  0  0  0
  -26.2404  -15.6399   20.0650 H   0  0  0  0  0  0
  -26.7401  -32.5112   23.0890 H   0  0  0  0  0  0
  -25.0029  -33.9428   25.0163 H   0  0  0  0  0  0
  -22.7954  -31.2692   21.3407 H   0  0  0  0  0  0
  -23.3763  -35.9514   23.3277 H   0  0  0  0  0  0
  -24.3562  -36.8878   22.2073 H   0  0  0  0  0  0
  -23.7235  -37.6374   23.6730 H   0  0  0  0  0  0
  -26.2334  -31.3681   20.6281 H   0  0  0  0  0  0
  -26.9061  -30.6774   22.0624 H   0  0  0  0  0  0
  -28.1325  -28.5730   21.3106 H   0  0  0  0  0  0
  -25.8839  -25.7404   18.9716 H   0  0  0  0  0  0
  -24.0213  -27.2749   18.9163 H   0  0  0  0  0  0
  -23.8561  -30.5060   19.3737 H   0  0  0  0  0  0
  -22.8299  -29.1848   19.8372 H   0  0  0  0  0  0
  -25.1336  -36.1745   25.0794 H   0  0  0  0  0  0
  -20.9984  -28.3413   24.1316 H   0  0  0  0  0  0
  -21.6745  -26.7596   22.1109 H   0  0  0  0  0  0
  -20.5837  -26.2405   23.3557 H   0  0  0  0  0  0
  -19.6877  -27.3161   20.6628 H   0  0  0  0  0  0
  -19.7040  -25.6308   21.1236 H   0  0  0  0  0  0
  -17.4388  -26.6950   21.3745 H   0  0  0  0  0  0
  -18.0257  -26.0096   22.8761 H   0  0  0  0  0  0
  -19.7950  -30.7302   24.2248 H   0  0  0  0  0  0
  -17.4996  -31.6190   24.5239 H   0  0  0  0  0  0
  -15.5368  -30.2877   23.7665 H   0  0  0  0  0  0
  -15.8794  -28.0769   22.6980 H   0  0  0  0  0  0
  -24.5906  -30.7097   25.7675 H   0  0  0  0  0  0
  -24.8876  -32.2966   26.4683 H   0  0  0  0  0  0
  -25.7961  -30.9019   27.0212 H   0  0  0  0  0  0
  -26.3191  -29.6561   24.1435 H   0  0  0  0  0  0
  -27.4006  -29.7293   25.5123 H   0  0  0  0  0  0
  -27.9131  -30.4098   23.9907 H   0  0  0  0  0  0
  -27.2629  -33.3680   26.1969 H   0  0  0  0  0  0
  -28.3946  -32.6825   25.0385 H   0  0  0  0  0  0
  -28.0661  -31.8538   26.5522 H   0  0  0  0  0  0
  -28.2567  -38.0071   24.7522 H   0  0  0  0  0  0
  -28.1079  -36.2600   24.6294 H   0  0  0  0  0  0
  -27.2279  -37.1403   25.8870 H   0  0  0  0  0  0
  -20.9552  -29.8964   21.6792 H   0  0  0  0  0  0
  -26.0116  -38.2751   24.1454 H   0  0  0  0  0  0
  -25.8200  -20.4924   19.3654 H   0  0  0  0  0  0
  -26.3209  -18.9270   19.9756 H   0  0  0  0  0  0
  -27.4869  -22.5235   22.1378 H   0  0  0  0  0  0
  -26.3073  -22.6406   20.8653 H   0  0  0  0  0  0
  -27.8313  -18.6785   21.8280 H   0  0  0  0  0  0
  -28.6673  -20.0492   22.5202 H   0  0  0  0  0  0
  -27.1423  -21.9865   18.3598 H   0  0  0  0  0  0
  -28.8362  -21.8202   18.1044 H   0  0  0  0  0  0
  -30.0196  -21.5639   21.4153 H   0  0  0  0  0  0
  -30.3904  -21.4975   19.7400 H   0  0  0  0  0  0
  -26.1126  -20.4047   21.9639 H   0  0  0  0  0  0
  -28.0826  -19.4678   18.3390 H   0  0  0  0  0  0
  -30.7749  -18.3299   21.0266 H   0  0  0  0  0  0
  -30.5528  -18.2579   19.3318 H   0  0  0  0  0  0
  -27.4909  -24.3109   18.9848 H   0  0  0  0  0  0
  -29.1840  -24.3809   19.0704 H   0  0  0  0  0  0
  -28.6907  -16.3763   20.5410 H   0  0  0  0  0  0
  1 25  1  0  0  0
  1 30  2  0  0  0
  1 82  1  0  0  0
  2  3  1  0  0  0
  2 25  1  0  0  0
  2 83  1  0  0  0
  2 84  1  0  0  0
  3  4  1  0  0  0
  3 85  1  0  0  0
  3 86  1  0  0  0
  4  5  1  0  0  0
  4 87  1  0  0  0
  4 88  1  0  0  0
  5  6  1  0  0  0
  5 26  1  0  0  0
  5 89  1  0  0  0
  6 25  1  0  0  0
  6 90  1  0  0  0
  6 91  1  0  0  0
  7  8  2  0  0  0
  7 26  1  0  0  0
  7 29  1  0  0  0
  8  9  1  0  0  0
  8 22  1  0  0  0
  9 10  1  0  0  0
  9 27  2  0  0  0
 10 11  2  0  0  0
 10 15  1  0  0  0
 11 12  1  0  0  0
 11 92  1  0  0  0
 12 13  2  0  0  0
 12 93  1  0  0  0
 13 14  1  0  0  0
 13 31  1  0  0  0
 14 15  2  0  0  0
 14 94  1  0  0  0
 15 95  1  0  0  0
 16 17  2  0  0  0
 16 21  1  0  0  0
 16 31  1  0  0  0
 17 18  1  0  0  0
 17 96  1  0  0  0
 18 19  2  0  0  0
 18 97  1  0  0  0
 19 20  1  0  0  0
 19 24  1  0  0  0
 20 21  2  0  0  0
 20 98  1  0  0  0
 21 23  1  0  0  0
 22 28  1  0  0  0
 22 32  2  0  0  0
 26 27  1  0  0  0
 28 99  1  0  0  0
 28100  1  0  0  0
 29101  1  0  0  0
 29102  1  0  0  0
 33 34  1  0  0  0
 33 66  1  0  0  0
 33 70  2  0  0  0
 34 36  1  0  0  0
 34 59  1  0  0  0
 34103  1  0  0  0
 35 44  2  0  0  0
 35 45  1  0  0  0
 35 68  1  0  0  0
 36 56  1  0  0  0
 36104  1  0  0  0
 37 39  1  0  0  0
 37 47  1  0  0  0
 37 66  1  0  0  0
 37105  1  0  0  0
 38 43  2  0  0  0
 38 46  1  0  0  0
 38 47  1  0  0  0
 39 64  1  0  0  0
 39 67  2  0  0  0
 40 52  1  0  0  0
 40 53  2  0  0  0
 40 58  1  0  0  0
 41106  1  0  0  0
 41107  1  0  0  0
 41108  1  0  0  0
 41 48  1  0  0  0
 42 43  1  0  0  0
 42 66  1  0  0  0
 42109  1  0  0  0
 42110  1  0  0  0
 43 44  1  0  0  0
 44111  1  0  0  0
 45 46  2  0  0  0
 45112  1  0  0  0
 46113  1  0  0  0
 47114  1  0  0  0
 47115  1  0  0  0
 48 56  1  0  0  0
 48 65  1  0  0  0
 48116  1  0  0  0
 49 50  1  0  0  0
 49 53  1  0  0  0
 49 64  1  0  0  0
 49117  1  0  0  0
 50 51  1  0  0  0
 50118  1  0  0  0
 50119  1  0  0  0
 51 52  1  0  0  0
 51120  1  0  0  0
 51121  1  0  0  0
 52122  1  0  0  0
 52123  1  0  0  0
 53 54  1  0  0  0
 54 55  2  0  0  0
 54124  1  0  0  0
 55 57  1  0  0  0
 55125  1  0  0  0
 56 69  2  0  0  0
 57 58  2  0  0  0
 57126  1  0  0  0
 58127  1  0  0  0
 59 60  1  0  0  0
 59 61  1  0  0  0
 59 62  1  0  0  0
 60128  1  0  0  0
 60129  1  0  0  0
 60130  1  0  0  0
 61131  1  0  0  0
 61132  1  0  0  0
 61133  1  0  0  0
 62134  1  0  0  0
 62135  1  0  0  0
 62136  1  0  0  0
 63 65  1  0  0  0
 63137  1  0  0  0
 63138  1  0  0  0
 63139  1  0  0  0
 64140  1  0  0  0
 65141  1  0  0  0
 68 81  1  0  0  0
 71142  1  0  0  0
 71143  1  0  0  0
 71 76  1  0  0  0
 71 77  1  0  0  0
 72 76  1  0  0  0
 72 78  1  0  0  0
 72144  1  0  0  0
 72145  1  0  0  0
 73 76  1  0  0  0
 73 79  1  0  0  0
 73146  1  0  0  0
 73147  1  0  0  0
 74 77  1  0  0  0
 74 78  1  0  0  0
 74148  1  0  0  0
 74149  1  0  0  0
 75 78  1  0  0  0
 75 79  1  0  0  0
 75150  1  0  0  0
 75151  1  0  0  0
 76152  1  0  0  0
 77 79  1  0  0  0
 77153  1  0  0  0
 78 81  1  0  0  0
 79 80  1  0  0  0
 80 82  1  0  0  0
 80154  1  0  0  0
 80155  1  0  0  0
 81156  1  0  0  0
 81157  1  0  0  0
 82158  1  0  0  0
M  ISO  4   1 100  68 101  81 101  82 100
M  END
> <chiral flag>
0

> <version>
0

> <s_m_source_file>
/data/baiqing/PycharmProjects/Reinvent-master-3.2/result/LINK_invent/BTK/process_docking_weight1_custom_sum_contain_oxygen_bond_distance_aromatic_linkinvent_7_9_3/rearranged_h_0177.sdf

> <i_m_source_file_index>
25

> <r_mmod_Potential_Energy-OPLS-2005>
1552.31811523438

> <r_mmod_Stretch_Energy-OPLS-2005>
596.497375488281

> <r_mmod_Bend_Energy-OPLS-2005>
619.299194335938

> <r_mmod_Torsional_Energy-OPLS-2005>
328.993499755859

> <r_mmod_Improper_Torsional_Energy-OPLS-2005>
4.21612882614136

> <r_mmod_Van_der_Waal_Energy-OPLS-2005>
123.855155944824

> <r_mmod_Electrostatic_Energy-OPLS-2005>
-383.294189453125

> <r_mmod_Solvation_Energy-OPLS-2005>
-205.487655639648

> <b_mmod_Minimization_Converged-OPLS-2005>
0

> <r_mmod_RMS_Derivative-OPLS-2005>
2.44941926002502

$$$$
25
                    3D
 Structure written by MMmdl.
165173  0  0  1  0            999 V2000
  -30.5485  -15.1306   20.3873 C   0  0  0  0  0  0
  -30.4267  -12.7257   19.5037 C   0  0  0  0  0  0
  -29.5212  -12.5492   18.2646 C   0  0  0  0  0  0
  -28.0666  -12.3006   18.6976 C   0  0  0  0  0  0
  -27.6117  -13.2677   19.8201 C   0  0  2  0  0  0
  -28.6536  -13.4318   20.9483 C   0  0  0  0  0  0
  -25.2410  -13.8242   20.5739 C   0  0  0  0  0  0
  -24.1754  -13.0446   20.9251 C   0  0  0  0  0  0
  -24.6402  -11.6938   20.8770 C   0  0  0  0  0  0
  -23.9113  -10.4299   21.0398 C   0  0  0  0  0  0
  -24.3658   -9.4220   21.9180 C   0  0  0  0  0  0
  -23.6320   -8.2260   22.0755 C   0  0  0  0  0  0
  -22.4299   -8.0291   21.3544 C   0  0  0  0  0  0
  -21.9945   -9.0268   20.4644 C   0  0  0  0  0  0
  -22.7287  -10.2144   20.3047 C   0  0  0  0  0  0
  -21.6859   -6.0748   22.5282 C   0  0  0  0  0  0
  -21.4023   -6.5656   23.8222 C   0  0  0  0  0  0
  -21.3654   -5.6801   24.9178 C   0  0  0  0  0  0
  -21.6036   -4.3065   24.7224 C   0  0  0  0  0  0
  -21.8816   -3.8156   23.4349 C   0  0  0  0  0  0
  -21.9198   -4.6974   22.3406 C   0  0  0  0  0  0
  -22.7779  -13.5205   21.1888 C   0  0  0  0  0  0
  -22.1662   -4.2162   21.0979 F   0  0  0  0  0  0
  -21.5625   -3.4550   25.7729 F   0  0  0  0  0  0
  -29.8954  -13.8825   20.3051 N   0  0  0  0  0  0
  -26.2830  -12.9504   20.3236 N   0  0  0  0  0  0
  -25.9341  -11.6619   20.5744 N   0  0  0  0  0  0
  -22.0442  -12.8171   22.0429 N   0  0  0  0  0  0
  -25.4065  -15.1970   20.4144 N   0  0  0  0  0  0
  -31.7727  -15.0432   20.2236 O   0  0  0  0  0  0
  -21.6660   -6.8893   21.4240 O   0  0  0  0  0  0
  -22.3461  -14.5516   20.6740 O   0  0  0  0  0  0
  -24.6524  -31.8314   23.1791 C   0  0  0  0  0  0
  -25.9252  -32.4634   23.8216 C   0  0  1  0  0  0
  -27.2096  -27.0171   20.1698 C   0  0  0  0  0  0
  -25.5955  -33.8445   24.2109 N   0  0  0  0  0  0
  -23.4633  -30.4517   21.5232 C   0  0  2  0  0  0
  -24.9138  -28.8583   20.1029 C   0  0  0  0  0  0
  -22.7624  -29.4491   22.4770 C   0  0  0  0  0  0
  -18.0304  -28.1418   22.8482 C   0  0  0  0  0  0
  -24.1486  -36.7240   23.2653 C   0  0  0  0  0  0
  -26.0254  -30.6682   21.3941 C   0  0  0  0  0  0
  -26.0916  -29.2663   20.7401 C   0  0  0  0  0  0
  -27.2317  -28.3624   20.7595 C   0  0  0  0  0  0
  -26.0129  -26.7479   19.4665 C   0  0  0  0  0  0
  -24.8959  -27.6160   19.4475 C   0  0  0  0  0  0
  -23.6993  -29.7802   20.1421 C   0  0  0  0  0  0
  -25.4115  -36.2990   24.0319 C   0  0  1  0  0  0
  -20.5933  -28.3753   23.1203 C   0  0  2  0  0  0
  -20.6790  -26.9438   22.5398 C   0  0  0  0  0  0
  -19.5763  -26.6365   21.5220 C   0  0  0  0  0  0
  -18.1935  -26.7953   22.1617 C   0  0  0  0  0  0
  -19.1574  -28.8894   23.2840 C   0  0  0  0  0  0
  -18.9501  -30.1486   23.8865 C   0  0  0  0  0  0
  -17.6507  -30.6614   24.0575 C   0  0  0  0  0  0
  -25.9070  -34.9380   23.5023 C   0  0  0  0  0  0
  -16.5384  -29.9130   23.6343 C   0  0  0  0  0  0
  -16.7288  -28.6554   23.0352 C   0  0  0  0  0  0
  -26.4522  -31.6551   25.0709 C   0  0  0  0  0  0
  -25.3678  -31.3792   26.1400 C   0  0  0  0  0  0
  -27.0405  -30.2930   24.6363 C   0  0  0  0  0  0
  -27.6025  -32.4352   25.7502 C   0  0  0  0  0  0
  -27.5565  -37.1760   24.8467 C   0  0  0  0  0  0
  -21.4292  -29.3084   22.3573 N   0  0  0  0  0  0
  -26.4251  -37.3727   23.9443 N   0  0  0  0  0  0
  -24.7348  -31.0083   22.0862 N   0  0  0  0  0  0
  -23.4231  -28.8001   23.2920 O   0  0  0  0  0  0
  -28.2261  -25.9621   20.2940 O   0  0  0  0  0  0
  -26.5683  -34.8913   22.4611 O   0  0  0  0  0  0
  -23.5623  -32.1233   23.6943 O   0  0  0  0  0  0
  -28.5796  -17.0470   20.2445 C   0  0  0  0  0  0
  -30.4488  -19.2222   20.4750 C   0  0  0  0  0  0
  -30.6989  -17.7023   21.0704 C   0  0  1  0  0  0
  -28.2654  -18.6435   19.8617 C   0  0  1  0  0  0
  -26.7438  -18.8468   20.0197 C   0  0  0  0  0  0
  -31.0045  -16.4710   23.3642 C   0  0  0  0  0  0
  -30.0386  -23.2229   21.2655 C   0  0  0  0  0  0
  -30.5919  -17.7509   22.6202 C   0  0  0  0  0  0
  -28.8262  -21.3351   19.8375 C   0  0  0  0  0  0
  -28.1074  -24.4069   19.8835 C   0  0  0  0  0  0
  -28.6909  -22.9105   20.5991 C   0  0  2  0  0  0
  -29.9538  -16.4712   20.5406 N   0  0  0  0  0  0
  -29.0501  -19.8294   20.4744 N   0  3  2  0  0  0
  -31.4536  -12.8882   19.1709 H   0  0  0  0  0  0
  -30.4542  -11.8140   20.1030 H   0  0  0  0  0  0
  -29.8789  -11.7267   17.6444 H   0  0  0  0  0  0
  -29.5729  -13.4456   17.6449 H   0  0  0  0  0  0
  -28.0013  -11.2707   19.0523 H   0  0  0  0  0  0
  -27.3967  -12.3701   17.8392 H   0  0  0  0  0  0
  -27.5293  -14.2359   19.3287 H   0  0  0  0  0  0
  -28.7982  -12.5068   21.5060 H   0  0  0  0  0  0
  -28.3218  -14.1828   21.6672 H   0  0  0  0  0  0
  -25.2798   -9.5712   22.4760 H   0  0  0  0  0  0
  -24.0029   -7.4659   22.7487 H   0  0  0  0  0  0
  -21.0869   -8.8791   19.8954 H   0  0  0  0  0  0
  -22.3740  -10.9685   19.6161 H   0  0  0  0  0  0
  -21.2021   -7.6163   23.9725 H   0  0  0  0  0  0
  -21.1471   -6.0532   25.9079 H   0  0  0  0  0  0
  -22.0596   -2.7616   23.2836 H   0  0  0  0  0  0
  -22.4057  -11.9828   22.4792 H   0  0  0  0  0  0
  -21.1053  -13.1174   22.2624 H   0  0  0  0  0  0
  -24.6363  -15.8484   20.5213 H   0  0  0  0  0  0
  -26.2475  -15.6308   20.0627 H   0  0  0  0  0  0
  -26.7313  -32.5179   23.0932 H   0  0  0  0  0  0
  -25.0080  -33.9527   25.0250 H   0  0  0  0  0  0
  -22.7726  -31.2799   21.3597 H   0  0  0  0  0  0
  -23.3750  -35.9563   23.3245 H   0  0  0  0  0  0
  -24.3578  -36.8943   22.2080 H   0  0  0  0  0  0
  -23.7212  -37.6400   23.6743 H   0  0  0  0  0  0
  -26.1845  -31.4084   20.6093 H   0  0  0  0  0  0
  -26.8967  -30.7277   22.0349 H   0  0  0  0  0  0
  -28.1175  -28.6642   21.3019 H   0  0  0  0  0  0
  -25.8984  -25.8099   18.9458 H   0  0  0  0  0  0
  -24.0041  -27.2993   18.9251 H   0  0  0  0  0  0
  -23.8589  -30.5593   19.3950 H   0  0  0  0  0  0
  -22.8084  -29.2428   19.8124 H   0  0  0  0  0  0
  -25.1275  -36.1790   25.0803 H   0  0  0  0  0  0
  -21.0022  -28.3348   24.1325 H   0  0  0  0  0  0
  -20.5667  -26.2369   23.3633 H   0  0  0  0  0  0
  -21.6656  -26.7414   22.1196 H   0  0  0  0  0  0
  -19.6941  -25.6264   21.1262 H   0  0  0  0  0  0
  -19.6716  -27.3175   20.6755 H   0  0  0  0  0  0
  -17.4207  -26.6714   21.4017 H   0  0  0  0  0  0
  -18.0323  -26.0098   22.9008 H   0  0  0  0  0  0
  -19.7986  -30.7308   24.2212 H   0  0  0  0  0  0
  -17.5073  -31.6293   24.5176 H   0  0  0  0  0  0
  -15.5393  -30.3047   23.7684 H   0  0  0  0  0  0
  -15.8679  -28.0878   22.7069 H   0  0  0  0  0  0
  -24.5901  -30.7078   25.7749 H   0  0  0  0  0  0
  -24.8825  -32.2994   26.4673 H   0  0  0  0  0  0
  -25.7942  -30.9092   27.0273 H   0  0  0  0  0  0
  -26.3060  -29.6625   24.1342 H   0  0  0  0  0  0
  -27.3970  -29.7258   25.4963 H   0  0  0  0  0  0
  -27.8973  -30.4142   23.9733 H   0  0  0  0  0  0
  -27.2602  -33.3732   26.1891 H   0  0  0  0  0  0
  -28.3935  -32.6773   25.0391 H   0  0  0  0  0  0
  -28.0579  -31.8589   26.5564 H   0  0  0  0  0  0
  -28.2500  -38.0133   24.7527 H   0  0  0  0  0  0
  -28.1097  -36.2628   24.6198 H   0  0  0  0  0  0
  -27.2288  -37.1316   25.8871 H   0  0  0  0  0  0
  -20.9497  -29.8889   21.6833 H   0  0  0  0  0  0
  -26.0077  -38.2760   24.1504 H   0  0  0  0  0  0
  -28.1550  -16.4408   19.4445 H   0  0  0  0  0  0
  -27.9891  -16.7952   21.1256 H   0  0  0  0  0  0
  -30.8107  -19.2417   19.4455 H   0  0  0  0  0  0
  -31.0988  -19.9201   21.0030 H   0  0  0  0  0  0
  -31.7507  -17.5105   20.8512 H   0  0  0  0  0  0
  -28.4753  -18.7252   18.7934 H   0  0  0  0  0  0
  -26.4341  -18.7369   21.0600 H   0  0  0  0  0  0
  -26.1995  -18.0982   19.4428 H   0  0  0  0  0  0
  -26.3898  -19.8150   19.6720 H   0  0  0  0  0  0
  -31.0162  -16.6385   24.4416 H   0  0  0  0  0  0
  -32.0055  -16.1496   23.0725 H   0  0  0  0  0  0
  -30.3129  -15.6469   23.1857 H   0  0  0  0  0  0
  -30.3612  -22.4007   21.9031 H   0  0  0  0  0  0
  -29.9651  -24.1130   21.8940 H   0  0  0  0  0  0
  -30.8194  -23.4002   20.5257 H   0  0  0  0  0  0
  -29.5738  -18.0105   22.9152 H   0  0  0  0  0  0
  -31.2203  -18.5629   22.9906 H   0  0  0  0  0  0
  -29.5833  -21.4299   19.0587 H   0  0  0  0  0  0
  -27.9098  -21.2663   19.2579 H   0  0  0  0  0  0
  -27.0455  -24.2141   19.7517 H   0  0  0  0  0  0
  -28.5035  -24.4018   18.8667 H   0  0  0  0  0  0
  -27.9938  -22.7404   21.4213 H   0  0  0  0  0  0
  -28.7663  -19.8927   21.4391 H   0  0  0  0  0  0
  1 25  1  0  0  0
  1 30  2  0  0  0
  1 82  1  0  0  0
  2  3  1  0  0  0
  2 25  1  0  0  0
  2 84  1  0  0  0
  2 85  1  0  0  0
  3  4  1  0  0  0
  3 86  1  0  0  0
  3 87  1  0  0  0
  4  5  1  0  0  0
  4 88  1  0  0  0
  4 89  1  0  0  0
  5  6  1  0  0  0
  5 26  1  0  0  0
  5 90  1  0  0  0
  6 25  1  0  0  0
  6 91  1  0  0  0
  6 92  1  0  0  0
  7  8  2  0  0  0
  7 26  1  0  0  0
  7 29  1  0  0  0
  8  9  1  0  0  0
  8 22  1  0  0  0
  9 10  1  0  0  0
  9 27  2  0  0  0
 10 11  2  0  0  0
 10 15  1  0  0  0
 11 12  1  0  0  0
 11 93  1  0  0  0
 12 13  2  0  0  0
 12 94  1  0  0  0
 13 14  1  0  0  0
 13 31  1  0  0  0
 14 15  2  0  0  0
 14 95  1  0  0  0
 15 96  1  0  0  0
 16 17  2  0  0  0
 16 21  1  0  0  0
 16 31  1  0  0  0
 17 18  1  0  0  0
 17 97  1  0  0  0
 18 19  2  0  0  0
 18 98  1  0  0  0
 19 20  1  0  0  0
 19 24  1  0  0  0
 20 21  2  0  0  0
 20 99  1  0  0  0
 21 23  1  0  0  0
 22 28  1  0  0  0
 22 32  2  0  0  0
 26 27  1  0  0  0
 28100  1  0  0  0
 28101  1  0  0  0
 29102  1  0  0  0
 29103  1  0  0  0
 33 34  1  0  0  0
 33 66  1  0  0  0
 33 70  2  0  0  0
 34 36  1  0  0  0
 34 59  1  0  0  0
 34104  1  0  0  0
 35 44  2  0  0  0
 35 45  1  0  0  0
 35 68  1  0  0  0
 36 56  1  0  0  0
 36105  1  0  0  0
 37 39  1  0  0  0
 37 47  1  0  0  0
 37 66  1  0  0  0
 37106  1  0  0  0
 38 43  2  0  0  0
 38 46  1  0  0  0
 38 47  1  0  0  0
 39 64  1  0  0  0
 39 67  2  0  0  0
 40 52  1  0  0  0
 40 53  2  0  0  0
 40 58  1  0  0  0
 41107  1  0  0  0
 41108  1  0  0  0
 41109  1  0  0  0
 41 48  1  0  0  0
 42 43  1  0  0  0
 42 66  1  0  0  0
 42110  1  0  0  0
 42111  1  0  0  0
 43 44  1  0  0  0
 44112  1  0  0  0
 45 46  2  0  0  0
 45113  1  0  0  0
 46114  1  0  0  0
 47115  1  0  0  0
 47116  1  0  0  0
 48 56  1  0  0  0
 48 65  1  0  0  0
 48117  1  0  0  0
 49 50  1  0  0  0
 49 53  1  0  0  0
 49 64  1  0  0  0
 49118  1  0  0  0
 50 51  1  0  0  0
 50119  1  0  0  0
 50120  1  0  0  0
 51 52  1  0  0  0
 51121  1  0  0  0
 51122  1  0  0  0
 52123  1  0  0  0
 52124  1  0  0  0
 53 54  1  0  0  0
 54 55  2  0  0  0
 54125  1  0  0  0
 55 57  1  0  0  0
 55126  1  0  0  0
 56 69  2  0  0  0
 57 58  2  0  0  0
 57127  1  0  0  0
 58128  1  0  0  0
 59 60  1  0  0  0
 59 61  1  0  0  0
 59 62  1  0  0  0
 60129  1  0  0  0
 60130  1  0  0  0
 60131  1  0  0  0
 61132  1  0  0  0
 61133  1  0  0  0
 61134  1  0  0  0
 62135  1  0  0  0
 62136  1  0  0  0
 62137  1  0  0  0
 63 65  1  0  0  0
 63138  1  0  0  0
 63139  1  0  0  0
 63140  1  0  0  0
 64141  1  0  0  0
 65142  1  0  0  0
 68 80  1  0  0  0
 71 74  1  0  0  0
 71 82  1  0  0  0
 71143  1  0  0  0
 71144  1  0  0  0
 72 73  1  0  0  0
 72 83  1  0  0  0
 72145  1  0  0  0
 72146  1  0  0  0
 73 78  1  0  0  0
 73 82  1  0  0  0
 73147  1  0  0  0
 74 75  1  0  0  0
 74 83  1  0  0  0
 74148  1  0  0  0
 75149  1  0  0  0
 75150  1  0  0  0
 75151  1  0  0  0
 76 78  1  0  0  0
 76152  1  0  0  0
 76153  1  0  0  0
 76154  1  0  0  0
 77155  1  0  0  0
 77156  1  0  0  0
 77157  1  0  0  0
 77 81  1  0  0  0
 78158  1  0  0  0
 78159  1  0  0  0
 79 81  1  0  0  0
 79160  1  0  0  0
 79161  1  0  0  0
 79 83  1  0  0  0
 80 81  1  0  0  0
 80162  1  0  0  0
 80163  1  0  0  0
 81164  1  0  0  0
 83165  1  0  0  0
M  CHG  1  83   1
M  ISO  4   1 100  68 101  80 101  82 100
M  END
> <chiral flag>
0

> <version>
0

> <s_m_source_file>
/data/baiqing/PycharmProjects/Reinvent-master-3.2/result/LINK_invent/BTK/process_docking_weight1_custom_sum_contain_oxygen_bond_distance_aromatic_linkinvent_7_9_3/rearranged_h_0177.sdf

> <i_m_source_file_index>
26

> <r_mmod_Potential_Energy-OPLS-2005>
1073.35119628906

> <r_mmod_Stretch_Energy-OPLS-2005>
417.73974609375

> <r_mmod_Bend_Energy-OPLS-2005>
423.862884521484

> <r_mmod_Torsional_Energy-OPLS-2005>
408.265106201172

> <r_mmod_Improper_Torsional_Energy-OPLS-2005>
2.18458795547485

> <r_mmod_Van_der_Waal_Energy-OPLS-2005>
108.543731689453

> <r_mmod_Electrostatic_Energy-OPLS-2005>
-190.403625488281

> <r_mmod_Solvation_Energy-OPLS-2005>
-430.753143310547

> <b_mmod_Minimization_Converged-OPLS-2005>
0

> <r_mmod_RMS_Derivative-OPLS-2005>
2.97312378883362

$$$$
26
                    3D
 Structure written by MMmdl.
169179  0  0  1  0            999 V2000
  -30.6583  -14.5789   20.5074 C   0  0  0  0  0  0
  -30.4288  -12.3587   19.4414 C   0  0  0  0  0  0
  -29.4965  -12.4987   18.2178 C   0  0  0  0  0  0
  -28.0206  -12.3453   18.6339 C   0  0  0  0  0  0
  -27.6520  -13.2117   19.8678 C   0  0  2  0  0  0
  -28.6997  -13.0617   20.9948 C   0  0  0  0  0  0
  -25.2552  -13.8161   20.5713 C   0  0  0  0  0  0
  -24.1813  -13.0433   20.9200 C   0  0  0  0  0  0
  -24.6380  -11.6902   20.8759 C   0  0  0  0  0  0
  -23.9044  -10.4293   21.0420 C   0  0  0  0  0  0
  -24.3599   -9.4209   21.9194 C   0  0  0  0  0  0
  -23.6283   -8.2240   22.0755 C   0  0  0  0  0  0
  -22.4269   -8.0274   21.3542 C   0  0  0  0  0  0
  -21.9907   -9.0244   20.4639 C   0  0  0  0  0  0
  -22.7226  -10.2129   20.3058 C   0  0  0  0  0  0
  -21.6853   -6.0731   22.5283 C   0  0  0  0  0  0
  -21.4013   -6.5638   23.8214 C   0  0  0  0  0  0
  -21.3660   -5.6792   24.9178 C   0  0  0  0  0  0
  -21.6045   -4.3056   24.7232 C   0  0  0  0  0  0
  -21.8817   -3.8145   23.4355 C   0  0  0  0  0  0
  -21.9195   -4.6958   22.3410 C   0  0  0  0  0  0
  -22.7835  -13.5222   21.1865 C   0  0  0  0  0  0
  -22.1659   -4.2143   21.0986 F   0  0  0  0  0  0
  -21.5633   -3.4542   25.7747 F   0  0  0  0  0  0
  -30.0158  -13.3767   20.4227 N   0  0  0  0  0  0
  -26.2981  -12.9335   20.3374 N   0  0  0  0  0  0
  -25.9311  -11.6496   20.5805 N   0  0  0  0  0  0
  -22.0477  -12.8199   22.0410 N   0  0  0  0  0  0
  -25.4288  -15.1883   20.4137 N   0  0  0  0  0  0
  -31.8277  -14.7215   20.1382 O   0  0  0  0  0  0
  -21.6634   -6.8872   21.4243 O   0  0  0  0  0  0
  -22.3525  -14.5542   20.6732 O   0  0  0  0  0  0
  -24.6218  -31.8641   23.2055 C   0  0  0  0  0  0
  -25.9082  -32.4800   23.8371 C   0  0  1  0  0  0
  -27.2236  -27.3711   20.1131 C   0  0  0  0  0  0
  -25.5919  -33.8597   24.2310 N   0  0  0  0  0  0
  -23.4139  -30.4883   21.5467 C   0  0  2  0  0  0
  -24.8624  -28.9535   20.1066 C   0  0  0  0  0  0
  -22.7452  -29.4649   22.4945 C   0  0  0  0  0  0
  -18.0288  -28.1389   22.8494 C   0  0  0  0  0  0
  -24.1490  -36.7298   23.2638 C   0  0  0  0  0  0
  -25.9498  -30.8119   21.3688 C   0  0  0  0  0  0
  -26.0283  -29.4434   20.7125 C   0  0  0  0  0  0
  -27.2162  -28.6612   20.7117 C   0  0  0  0  0  0
  -26.0475  -26.9284   19.4719 C   0  0  0  0  0  0
  -24.8712  -27.6988   19.4774 C   0  0  0  0  0  0
  -23.6264  -29.8256   20.1603 C   0  0  0  0  0  0
  -25.4111  -36.3092   24.0337 C   0  0  1  0  0  0
  -20.5886  -28.3696   23.1296 C   0  0  2  0  0  0
  -20.6788  -26.9427   22.5407 C   0  0  0  0  0  0
  -19.5759  -26.6396   21.5214 C   0  0  0  0  0  0
  -18.1935  -26.7940   22.1620 C   0  0  0  0  0  0
  -19.1538  -28.8858   23.2895 C   0  0  0  0  0  0
  -18.9460  -30.1460   23.8911 C   0  0  0  0  0  0
  -17.6462  -30.6596   24.0566 C   0  0  0  0  0  0
  -25.9046  -34.9461   23.5120 C   0  0  0  0  0  0
  -16.5356  -29.9092   23.6328 C   0  0  0  0  0  0
  -16.7277  -28.6506   23.0359 C   0  0  0  0  0  0
  -26.4486  -31.6582   25.0711 C   0  0  0  0  0  0
  -25.3725  -31.3684   26.1432 C   0  0  0  0  0  0
  -27.0329  -30.3024   24.6103 C   0  0  0  0  0  0
  -27.6061  -32.4294   25.7484 C   0  0  0  0  0  0
  -27.5585  -37.1800   24.8461 C   0  0  0  0  0  0
  -21.4172  -29.3049   22.3681 N   0  0  0  0  0  0
  -26.4289  -37.3787   23.9416 N   0  0  0  0  0  0
  -24.6804  -31.0688   22.0989 N   0  0  0  0  0  0
  -23.4190  -28.8192   23.3016 O   0  0  0  0  0  0
  -28.3048  -26.4963   20.1759 O   0  0  0  0  0  0
  -26.5604  -34.8919   22.4682 O   0  0  0  0  0  0
  -23.5391  -32.1420   23.7405 O   0  0  0  0  0  0
  -29.9901  -22.2383   19.5824 C   0  0  0  0  0  0
  -29.4194  -23.5431   19.6287 C   0  0  0  0  0  0
  -28.7173  -23.9404   20.7986 C   0  0  0  0  0  0
  -29.8547  -21.3405   20.6675 C   0  0  0  0  0  0
  -28.5895  -22.9467   21.8145 C   0  0  0  0  0  0
  -28.4225  -24.7848   17.5497 C   0  0  0  0  0  0
  -29.5741  -23.9585   17.0318 C   0  0  0  0  0  0
  -29.5816  -16.4061   21.8511 C   0  0  0  0  0  0
  -29.5617  -16.5235   19.4227 C   0  0  0  0  0  0
  -30.2324  -17.8283   21.9063 C   0  0  0  0  0  0
  -30.2216  -17.9335   19.4675 C   0  0  0  0  0  0
  -29.5876  -24.4668   18.4582 C   0  0  0  0  0  0
  -27.8118  -23.2099   23.0932 C   0  0  0  0  0  0
  -28.0154  -25.3258   21.0078 C   0  0  0  0  0  0
  -30.6749  -20.0218   20.7665 C   0  0  0  0  0  0
  -29.1351  -21.7017   21.7512 N   0  0  0  0  0  0
  -29.8469  -15.6774   20.5989 N   0  0  0  0  0  0
  -29.9496  -18.6977   20.7202 N   0  3  0  0  0  0
  -31.4707  -12.4722   19.1358 H   0  0  0  0  0  0
  -30.3488  -11.3615   19.8768 H   0  0  0  0  0  0
  -29.7493  -11.7532   17.4625 H   0  0  0  0  0  0
  -29.6442  -13.4725   17.7487 H   0  0  0  0  0  0
  -27.8503  -11.2921   18.8585 H   0  0  0  0  0  0
  -27.3642  -12.5838   17.7964 H   0  0  0  0  0  0
  -27.6694  -14.2466   19.5300 H   0  0  0  0  0  0
  -28.6982  -12.0454   21.3912 H   0  0  0  0  0  0
  -28.4615  -13.7151   21.8351 H   0  0  0  0  0  0
  -25.2744   -9.5684   22.4765 H   0  0  0  0  0  0
  -23.9997   -7.4629   22.7471 H   0  0  0  0  0  0
  -21.0847   -8.8753   19.8931 H   0  0  0  0  0  0
  -22.3689  -10.9662   19.6160 H   0  0  0  0  0  0
  -21.1993   -7.6144   23.9712 H   0  0  0  0  0  0
  -21.1487   -6.0529   25.9079 H   0  0  0  0  0  0
  -22.0594   -2.7606   23.2866 H   0  0  0  0  0  0
  -22.4087  -11.9840   22.4762 H   0  0  0  0  0  0
  -21.1090  -13.1210   22.2619 H   0  0  0  0  0  0
  -24.6643  -15.8459   20.5218 H   0  0  0  0  0  0
  -26.2864  -15.6249   20.1030 H   0  0  0  0  0  0
  -26.7156  -32.5503   23.1136 H   0  0  0  0  0  0
  -25.0072  -33.9750   25.0455 H   0  0  0  0  0  0
  -22.7059  -31.3072   21.4056 H   0  0  0  0  0  0
  -23.3755  -35.9624   23.3280 H   0  0  0  0  0  0
  -24.3592  -36.8932   22.2055 H   0  0  0  0  0  0
  -23.7228  -37.6491   23.6667 H   0  0  0  0  0  0
  -26.0663  -31.5758   20.5987 H   0  0  0  0  0  0
  -26.8367  -30.8682   21.9886 H   0  0  0  0  0  0
  -28.1083  -29.0237   21.2028 H   0  0  0  0  0  0
  -26.0304  -25.9598   18.9921 H   0  0  0  0  0  0
  -23.9790  -27.3187   18.9984 H   0  0  0  0  0  0
  -23.7382  -30.6037   19.4040 H   0  0  0  0  0  0
  -22.7482  -29.2499   19.8613 H   0  0  0  0  0  0
  -25.1282  -36.1956   25.0829 H   0  0  0  0  0  0
  -20.9990  -28.3279   24.1414 H   0  0  0  0  0  0
  -20.5717  -26.2305   23.3600 H   0  0  0  0  0  0
  -21.6656  -26.7473   22.1187 H   0  0  0  0  0  0
  -19.6925  -25.6308   21.1243 H   0  0  0  0  0  0
  -19.6699  -27.3209   20.6745 H   0  0  0  0  0  0
  -17.4210  -26.6704   21.4014 H   0  0  0  0  0  0
  -18.0323  -26.0074   22.9006 H   0  0  0  0  0  0
  -19.7936  -30.7274   24.2287 H   0  0  0  0  0  0
  -17.5015  -31.6278   24.5162 H   0  0  0  0  0  0
  -15.5358  -30.3002   23.7636 H   0  0  0  0  0  0
  -15.8680  -28.0823   22.7074 H   0  0  0  0  0  0
  -24.5939  -30.6992   25.7754 H   0  0  0  0  0  0
  -24.8857  -32.2826   26.4841 H   0  0  0  0  0  0
  -25.8057  -30.8884   27.0216 H   0  0  0  0  0  0
  -26.2888  -29.6778   24.1150 H   0  0  0  0  0  0
  -27.4094  -29.7269   25.4568 H   0  0  0  0  0  0
  -27.8724  -30.4343   23.9273 H   0  0  0  0  0  0
  -27.2704  -33.3608   26.2060 H   0  0  0  0  0  0
  -28.3889  -32.6823   25.0319 H   0  0  0  0  0  0
  -28.0713  -31.8401   26.5399 H   0  0  0  0  0  0
  -28.2573  -38.0124   24.7546 H   0  0  0  0  0  0
  -28.1108  -36.2655   24.6244 H   0  0  0  0  0  0
  -27.2303  -37.1404   25.8861 H   0  0  0  0  0  0
  -20.9340  -29.8761   21.6890 H   0  0  0  0  0  0
  -26.0169  -38.2858   24.1432 H   0  0  0  0  0  0
  -30.5791  -21.9422   18.7248 H   0  0  0  0  0  0
  -27.4806  -24.2725   17.7353 H   0  0  0  0  0  0
  -28.3366  -25.8056   17.1833 H   0  0  0  0  0  0
  -30.2372  -24.4383   16.3146 H   0  0  0  0  0  0
  -29.3816  -22.9020   16.8569 H   0  0  0  0  0  0
  -28.5000  -16.4950   21.9598 H   0  0  0  0  0  0
  -29.9168  -15.8192   22.7081 H   0  0  0  0  0  0
  -29.8704  -16.0134   18.5076 H   0  0  0  0  0  0
  -28.4799  -16.6332   19.3392 H   0  0  0  0  0  0
  -31.3129  -17.7052   21.9976 H   0  0  0  0  0  0
  -29.9072  -18.3407   22.8132 H   0  0  0  0  0  0
  -29.8923  -18.5197   18.6082 H   0  0  0  0  0  0
  -31.3004  -17.8101   19.3553 H   0  0  0  0  0  0
  -30.2840  -25.2693   18.6949 H   0  0  0  0  0  0
  -26.8107  -23.5792   22.8733 H   0  0  0  0  0  0
  -28.3291  -23.9440   23.7110 H   0  0  0  0  0  0
  -27.6953  -22.3026   23.6873 H   0  0  0  0  0  0
  -28.2382  -25.6501   22.0248 H   0  0  0  0  0  0
  -26.9486  -25.0996   21.0097 H   0  0  0  0  0  0
  -31.2322  -20.0878   21.7014 H   0  0  0  0  0  0
  -31.4481  -20.0459   19.9982 H   0  0  0  0  0  0
  -28.9706  -18.9398   20.7475 H   0  0  0  0  0  0
  1 25  1  0  0  0
  1 30  2  0  0  0
  1 87  1  0  0  0
  2  3  1  0  0  0
  2 25  1  0  0  0
  2 89  1  0  0  0
  2 90  1  0  0  0
  3  4  1  0  0  0
  3 91  1  0  0  0
  3 92  1  0  0  0
  4  5  1  0  0  0
  4 93  1  0  0  0
  4 94  1  0  0  0
  5  6  1  0  0  0
  5 26  1  0  0  0
  5 95  1  0  0  0
  6 25  1  0  0  0
  6 96  1  0  0  0
  6 97  1  0  0  0
  7  8  2  0  0  0
  7 26  1  0  0  0
  7 29  1  0  0  0
  8  9  1  0  0  0
  8 22  1  0  0  0
  9 10  1  0  0  0
  9 27  2  0  0  0
 10 11  2  0  0  0
 10 15  1  0  0  0
 11 12  1  0  0  0
 11 98  1  0  0  0
 12 13  2  0  0  0
 12 99  1  0  0  0
 13 14  1  0  0  0
 13 31  1  0  0  0
 14 15  2  0  0  0
 14100  1  0  0  0
 15101  1  0  0  0
 16 17  2  0  0  0
 16 21  1  0  0  0
 16 31  1  0  0  0
 17 18  1  0  0  0
 17102  1  0  0  0
 18 19  2  0  0  0
 18103  1  0  0  0
 19 20  1  0  0  0
 19 24  1  0  0  0
 20 21  2  0  0  0
 20104  1  0  0  0
 21 23  1  0  0  0
 22 28  1  0  0  0
 22 32  2  0  0  0
 26 27  1  0  0  0
 28105  1  0  0  0
 28106  1  0  0  0
 29107  1  0  0  0
 29108  1  0  0  0
 33 34  1  0  0  0
 33 66  1  0  0  0
 33 70  2  0  0  0
 34 36  1  0  0  0
 34 59  1  0  0  0
 34109  1  0  0  0
 35 44  2  0  0  0
 35 45  1  0  0  0
 35 68  1  0  0  0
 36 56  1  0  0  0
 36110  1  0  0  0
 37 39  1  0  0  0
 37 47  1  0  0  0
 37 66  1  0  0  0
 37111  1  0  0  0
 38 43  2  0  0  0
 38 46  1  0  0  0
 38 47  1  0  0  0
 39 64  1  0  0  0
 39 67  2  0  0  0
 40 52  1  0  0  0
 40 53  2  0  0  0
 40 58  1  0  0  0
 41112  1  0  0  0
 41113  1  0  0  0
 41114  1  0  0  0
 41 48  1  0  0  0
 42 43  1  0  0  0
 42 66  1  0  0  0
 42115  1  0  0  0
 42116  1  0  0  0
 43 44  1  0  0  0
 44117  1  0  0  0
 45 46  2  0  0  0
 45118  1  0  0  0
 46119  1  0  0  0
 47120  1  0  0  0
 47121  1  0  0  0
 48 56  1  0  0  0
 48 65  1  0  0  0
 48122  1  0  0  0
 49 50  1  0  0  0
 49 53  1  0  0  0
 49 64  1  0  0  0
 49123  1  0  0  0
 50 51  1  0  0  0
 50124  1  0  0  0
 50125  1  0  0  0
 51 52  1  0  0  0
 51126  1  0  0  0
 51127  1  0  0  0
 52128  1  0  0  0
 52129  1  0  0  0
 53 54  1  0  0  0
 54 55  2  0  0  0
 54130  1  0  0  0
 55 57  1  0  0  0
 55131  1  0  0  0
 56 69  2  0  0  0
 57 58  2  0  0  0
 57132  1  0  0  0
 58133  1  0  0  0
 59 60  1  0  0  0
 59 61  1  0  0  0
 59 62  1  0  0  0
 60134  1  0  0  0
 60135  1  0  0  0
 60136  1  0  0  0
 61137  1  0  0  0
 61138  1  0  0  0
 61139  1  0  0  0
 62140  1  0  0  0
 62141  1  0  0  0
 62142  1  0  0  0
 63 65  1  0  0  0
 63143  1  0  0  0
 63144  1  0  0  0
 63145  1  0  0  0
 64146  1  0  0  0
 65147  1  0  0  0
 68 84  1  0  0  0
 71 72  2  0  0  0
 71 74  1  0  0  0
 71148  1  0  0  0
 72 73  1  0  0  0
 72 82  1  0  0  0
 73 75  2  0  0  0
 73 84  1  0  0  0
 74 85  1  0  0  0
 74 86  2  0  0  0
 75 83  1  0  0  0
 75 86  1  0  0  0
 76 77  1  0  0  0
 76 82  1  0  0  0
 76149  1  0  0  0
 76150  1  0  0  0
 77 82  1  0  0  0
 77151  1  0  0  0
 77152  1  0  0  0
 78 80  1  0  0  0
 78 87  1  0  0  0
 78153  1  0  0  0
 78154  1  0  0  0
 79 81  1  0  0  0
 79 87  1  0  0  0
 79155  1  0  0  0
 79156  1  0  0  0
 80 88  1  0  0  0
 80157  1  0  0  0
 80158  1  0  0  0
 81 88  1  0  0  0
 81159  1  0  0  0
 81160  1  0  0  0
 82161  1  0  0  0
 83162  1  0  0  0
 83163  1  0  0  0
 83164  1  0  0  0
 84165  1  0  0  0
 84166  1  0  0  0
 85167  1  0  0  0
 85168  1  0  0  0
 85 88  1  0  0  0
 88169  1  0  0  0
M  CHG  1  88   1
M  ISO  4   1 100  68 101  84 101  87 100
M  END
> <chiral flag>
0

> <version>
0

> <s_m_source_file>
/data/baiqing/PycharmProjects/Reinvent-master-3.2/result/LINK_invent/BTK/process_docking_weight1_custom_sum_contain_oxygen_bond_distance_aromatic_linkinvent_7_9_3/rearranged_h_0177.sdf

> <i_m_source_file_index>
27

> <r_mmod_Potential_Energy-OPLS-2005>
-43.5283737182617

> <r_mmod_Stretch_Energy-OPLS-2005>
60.0035285949707

> <r_mmod_Bend_Energy-OPLS-2005>
124.870643615723

> <r_mmod_Torsional_Energy-OPLS-2005>
455.142822265625

> <r_mmod_Improper_Torsional_Energy-OPLS-2005>
14.3942413330078

> <r_mmod_Van_der_Waal_Energy-OPLS-2005>
144.162750244141

> <r_mmod_Electrostatic_Energy-OPLS-2005>
-451.302886962891

> <r_mmod_Solvation_Energy-OPLS-2005>
-426.638610839844

> <b_mmod_Minimization_Converged-OPLS-2005>
0

> <r_mmod_RMS_Derivative-OPLS-2005>
1.08743095397949

$$$$
27
                    3D
 Structure written by MMmdl.
161171  0  0  1  0            999 V2000
  -30.6729  -14.5309   20.5975 C   0  0  0  0  0  0
  -30.4379  -12.3500   19.4370 C   0  0  0  0  0  0
  -29.5038  -12.5113   18.2163 C   0  0  0  0  0  0
  -28.0257  -12.3569   18.6270 C   0  0  0  0  0  0
  -27.6635  -13.2052   19.8733 C   0  0  2  0  0  0
  -28.7009  -12.9890   20.9946 C   0  0  0  0  0  0
  -25.2626  -13.8151   20.5658 C   0  0  0  0  0  0
  -24.1872  -13.0443   20.9147 C   0  0  0  0  0  0
  -24.6417  -11.6906   20.8728 C   0  0  0  0  0  0
  -23.9085  -10.4302   21.0405 C   0  0  0  0  0  0
  -24.3630   -9.4220   21.9179 C   0  0  0  0  0  0
  -23.6304   -8.2264   22.0762 C   0  0  0  0  0  0
  -22.4290   -8.0293   21.3546 C   0  0  0  0  0  0
  -21.9935   -9.0270   20.4647 C   0  0  0  0  0  0
  -22.7270  -10.2138   20.3053 C   0  0  0  0  0  0
  -21.6854   -6.0741   22.5277 C   0  0  0  0  0  0
  -21.4004   -6.5640   23.8207 C   0  0  0  0  0  0
  -21.3656   -5.6798   24.9173 C   0  0  0  0  0  0
  -21.6052   -4.3062   24.7226 C   0  0  0  0  0  0
  -21.8817   -3.8154   23.4347 C   0  0  0  0  0  0
  -21.9190   -4.6972   22.3397 C   0  0  0  0  0  0
  -22.7895  -13.5239   21.1795 C   0  0  0  0  0  0
  -22.1669   -4.2163   21.0971 F   0  0  0  0  0  0
  -21.5634   -3.4536   25.7738 F   0  0  0  0  0  0
  -30.0254  -13.3350   20.4548 N   0  0  0  0  0  0
  -26.3055  -12.9319   20.3340 N   0  0  0  0  0  0
  -25.9348  -11.6486   20.5771 N   0  0  0  0  0  0
  -22.0530  -12.8254   22.0353 N   0  0  0  0  0  0
  -25.4367  -15.1871   20.4057 N   0  0  0  0  0  0
  -31.7808  -14.7322   20.0868 O   0  0  0  0  0  0
  -21.6655   -6.8887   21.4233 O   0  0  0  0  0  0
  -22.3598  -14.5569   20.6660 O   0  0  0  0  0  0
  -24.6184  -31.8637   23.2092 C   0  0  0  0  0  0
  -25.9081  -32.4788   23.8396 C   0  0  1  0  0  0
  -27.2234  -27.4049   20.0973 C   0  0  0  0  0  0
  -25.5946  -33.8600   24.2321 N   0  0  0  0  0  0
  -23.4036  -30.4945   21.5461 C   0  0  2  0  0  0
  -24.8448  -28.9513   20.1149 C   0  0  0  0  0  0
  -22.7384  -29.4687   22.4914 C   0  0  0  0  0  0
  -18.0274  -28.1395   22.8465 C   0  0  0  0  0  0
  -24.1493  -36.7296   23.2647 C   0  0  0  0  0  0
  -25.9350  -30.8237   21.3618 C   0  0  0  0  0  0
  -26.0076  -29.4550   20.7100 C   0  0  0  0  0  0
  -27.1963  -28.6874   20.7010 C   0  0  0  0  0  0
  -26.0350  -26.9121   19.5135 C   0  0  0  0  0  0
  -24.8523  -27.6766   19.5222 C   0  0  0  0  0  0
  -23.6142  -29.8307   20.1597 C   0  0  0  0  0  0
  -25.4118  -36.3078   24.0326 C   0  0  1  0  0  0
  -20.5864  -28.3711   23.1260 C   0  0  2  0  0  0
  -20.6767  -26.9443   22.5382 C   0  0  0  0  0  0
  -19.5746  -26.6401   21.5180 C   0  0  0  0  0  0
  -18.1922  -26.7943   22.1591 C   0  0  0  0  0  0
  -19.1524  -28.8860   23.2861 C   0  0  0  0  0  0
  -18.9468  -30.1456   23.8888 C   0  0  0  0  0  0
  -17.6478  -30.6583   24.0579 C   0  0  0  0  0  0
  -25.9042  -34.9453   23.5096 C   0  0  0  0  0  0
  -16.5365  -29.9089   23.6358 C   0  0  0  0  0  0
  -16.7269  -28.6518   23.0355 C   0  0  0  0  0  0
  -26.4531  -31.6573   25.0734 C   0  0  0  0  0  0
  -25.3825  -31.3580   26.1480 C   0  0  0  0  0  0
  -27.0441  -30.3049   24.6107 C   0  0  0  0  0  0
  -27.6090  -32.4310   25.7523 C   0  0  0  0  0  0
  -27.5559  -37.1820   24.8485 C   0  0  0  0  0  0
  -21.4109  -29.3072   22.3644 N   0  0  0  0  0  0
  -26.4284  -37.3771   23.9403 N   0  0  0  0  0  0
  -24.6710  -31.0752   22.0980 N   0  0  0  0  0  0
  -23.4135  -28.8236   23.2976 O   0  0  0  0  0  0
  -28.3941  -26.6686   20.1265 O   0  0  0  0  0  0
  -26.5575  -34.8906   22.4637 O   0  0  0  0  0  0
  -23.5383  -32.1409   23.7485 O   0  0  0  0  0  0
  -28.4486  -19.9360   20.0585 C   0  0  0  0  0  0
  -29.4696  -20.2415   22.2041 C   0  0  0  0  0  0
  -28.3735  -21.3533   19.9499 C   0  0  0  0  0  0
  -29.0266  -19.3432   21.2074 C   0  0  0  0  0  0
  -28.8478  -23.5741   20.8408 C   0  0  0  0  0  0
  -28.8722  -22.1590   20.9913 C   0  0  0  0  0  0
  -28.3569  -24.1290   19.6346 C   0  0  0  0  0  0
  -27.8181  -22.0057   18.8313 C   0  0  0  0  0  0
  -29.6410  -17.3098   22.7429 C   0  0  0  0  0  0
  -29.8066  -15.7988   22.5410 C   0  0  0  0  0  0
  -29.8078  -16.8906   20.4273 C   0  0  0  0  0  0
  -29.0486  -17.8030   21.4247 C   0  0  2  0  0  0
  -29.3817  -24.5047   21.9304 C   0  0  0  0  0  0
  -28.6069  -25.5924   19.1868 C   0  0  0  0  0  0
  -29.3943  -21.5876   22.1038 N   0  0  0  0  0  0
  -27.8201  -23.3448   18.6816 N   0  0  0  0  0  0
  -29.9335  -15.5684   21.0928 N   0  0  0  0  0  0
  -27.1331  -21.0976   17.5290 Cl  0  0  0  0  0  0
  -31.4774  -12.4792   19.1294 H   0  0  0  0  0  0
  -30.3722  -11.3410   19.8464 H   0  0  0  0  0  0
  -29.7545  -11.7750   17.4517 H   0  0  0  0  0  0
  -29.6605  -13.4903   17.7599 H   0  0  0  0  0  0
  -27.8480  -11.3013   18.8387 H   0  0  0  0  0  0
  -27.3718  -12.6177   17.7932 H   0  0  0  0  0  0
  -27.7078  -14.2531   19.5728 H   0  0  0  0  0  0
  -28.6990  -11.9519   21.3294 H   0  0  0  0  0  0
  -28.4301  -13.5643   21.8738 H   0  0  0  0  0  0
  -25.2754   -9.5702   22.4775 H   0  0  0  0  0  0
  -23.9993   -7.4667   22.7513 H   0  0  0  0  0  0
  -21.0855   -8.8812   19.8966 H   0  0  0  0  0  0
  -22.3734  -10.9688   19.6178 H   0  0  0  0  0  0
  -21.1995   -7.6146   23.9716 H   0  0  0  0  0  0
  -21.1465   -6.0520   25.9075 H   0  0  0  0  0  0
  -22.0590   -2.7619   23.2843 H   0  0  0  0  0  0
  -22.4129  -11.9887   22.4694 H   0  0  0  0  0  0
  -21.1165  -13.1321   22.2587 H   0  0  0  0  0  0
  -24.6733  -15.8437   20.5195 H   0  0  0  0  0  0
  -26.2958  -15.6222   20.0953 H   0  0  0  0  0  0
  -26.7150  -32.5481   23.1158 H   0  0  0  0  0  0
  -25.0245  -33.9783   25.0568 H   0  0  0  0  0  0
  -22.6960  -31.3147   21.4076 H   0  0  0  0  0  0
  -23.3746  -35.9632   23.3300 H   0  0  0  0  0  0
  -24.3598  -36.8939   22.2063 H   0  0  0  0  0  0
  -23.7261  -37.6493   23.6705 H   0  0  0  0  0  0
  -26.0559  -31.5875   20.5918 H   0  0  0  0  0  0
  -26.8201  -30.8748   21.9839 H   0  0  0  0  0  0
  -28.0944  -29.0767   21.1599 H   0  0  0  0  0  0
  -25.9954  -25.9280   19.0699 H   0  0  0  0  0  0
  -23.9518  -27.2668   19.0855 H   0  0  0  0  0  0
  -23.7396  -30.6117   19.4078 H   0  0  0  0  0  0
  -22.7319  -29.2675   19.8513 H   0  0  0  0  0  0
  -25.1295  -36.1924   25.0817 H   0  0  0  0  0  0
  -20.9976  -28.3321   24.1370 H   0  0  0  0  0  0
  -20.5685  -26.2326   23.3578 H   0  0  0  0  0  0
  -21.6645  -26.7477   22.1186 H   0  0  0  0  0  0
  -19.6915  -25.6307   21.1223 H   0  0  0  0  0  0
  -19.6687  -27.3196   20.6695 H   0  0  0  0  0  0
  -17.4186  -26.6686   21.3995 H   0  0  0  0  0  0
  -18.0330  -26.0075   22.8979 H   0  0  0  0  0  0
  -19.7952  -30.7270   24.2251 H   0  0  0  0  0  0
  -17.5044  -31.6266   24.5181 H   0  0  0  0  0  0
  -15.5379  -30.2992   23.7696 H   0  0  0  0  0  0
  -15.8666  -28.0855   22.7074 H   0  0  0  0  0  0
  -24.6112  -30.6785   25.7830 H   0  0  0  0  0  0
  -24.8897  -32.2676   26.4916 H   0  0  0  0  0  0
  -25.8259  -30.8821   27.0240 H   0  0  0  0  0  0
  -26.3004  -29.6678   24.1307 H   0  0  0  0  0  0
  -27.4424  -29.7395   25.4544 H   0  0  0  0  0  0
  -27.8713  -30.4424   23.9137 H   0  0  0  0  0  0
  -27.2759  -33.3689   26.1978 H   0  0  0  0  0  0
  -28.3995  -32.6705   25.0399 H   0  0  0  0  0  0
  -28.0634  -31.8482   26.5550 H   0  0  0  0  0  0
  -28.2576  -38.0113   24.7505 H   0  0  0  0  0  0
  -28.1049  -36.2633   24.6361 H   0  0  0  0  0  0
  -27.2257  -37.1519   25.8885 H   0  0  0  0  0  0
  -20.9245  -29.8828   21.6914 H   0  0  0  0  0  0
  -26.0142  -38.2833   24.1414 H   0  0  0  0  0  0
  -28.0550  -19.3007   19.2767 H   0  0  0  0  0  0
  -29.8764  -19.8849   23.1385 H   0  0  0  0  0  0
  -30.6301  -17.7432   22.9023 H   0  0  0  0  0  0
  -29.0226  -17.5545   23.6081 H   0  0  0  0  0  0
  -28.9210  -15.3034   22.9330 H   0  0  0  0  0  0
  -30.6662  -15.4193   23.0984 H   0  0  0  0  0  0
  -30.8059  -17.2847   20.2265 H   0  0  0  0  0  0
  -29.2865  -16.8011   19.4734 H   0  0  0  0  0  0
  -28.0022  -17.4903   21.4055 H   0  0  0  0  0  0
  -29.7812  -23.9743   22.7940 H   0  0  0  0  0  0
  -28.5788  -25.1467   22.2973 H   0  0  0  0  0  0
  -30.1755  -25.1452   21.5431 H   0  0  0  0  0  0
  -28.0944  -25.7961   18.2458 H   0  0  0  0  0  0
  -29.6666  -25.6333   18.9309 H   0  0  0  0  0  0
  1 25  1  0  0  0
  1 30  2  0  0  0
  1 87  1  0  0  0
  2  3  1  0  0  0
  2 25  1  0  0  0
  2 89  1  0  0  0
  2 90  1  0  0  0
  3  4  1  0  0  0
  3 91  1  0  0  0
  3 92  1  0  0  0
  4  5  1  0  0  0
  4 93  1  0  0  0
  4 94  1  0  0  0
  5  6  1  0  0  0
  5 26  1  0  0  0
  5 95  1  0  0  0
  6 25  1  0  0  0
  6 96  1  0  0  0
  6 97  1  0  0  0
  7  8  2  0  0  0
  7 26  1  0  0  0
  7 29  1  0  0  0
  8  9  1  0  0  0
  8 22  1  0  0  0
  9 10  1  0  0  0
  9 27  2  0  0  0
 10 11  2  0  0  0
 10 15  1  0  0  0
 11 12  1  0  0  0
 11 98  1  0  0  0
 12 13  2  0  0  0
 12 99  1  0  0  0
 13 14  1  0  0  0
 13 31  1  0  0  0
 14 15  2  0  0  0
 14100  1  0  0  0
 15101  1  0  0  0
 16 17  2  0  0  0
 16 21  1  0  0  0
 16 31  1  0  0  0
 17 18  1  0  0  0
 17102  1  0  0  0
 18 19  2  0  0  0
 18103  1  0  0  0
 19 20  1  0  0  0
 19 24  1  0  0  0
 20 21  2  0  0  0
 20104  1  0  0  0
 21 23  1  0  0  0
 22 28  1  0  0  0
 22 32  2  0  0  0
 26 27  1  0  0  0
 28105  1  0  0  0
 28106  1  0  0  0
 29107  1  0  0  0
 29108  1  0  0  0
 33 34  1  0  0  0
 33 66  1  0  0  0
 33 70  2  0  0  0
 34 36  1  0  0  0
 34 59  1  0  0  0
 34109  1  0  0  0
 35 44  2  0  0  0
 35 45  1  0  0  0
 35 68  1  0  0  0
 36 56  1  0  0  0
 36110  1  0  0  0
 37 39  1  0  0  0
 37 47  1  0  0  0
 37 66  1  0  0  0
 37111  1  0  0  0
 38 43  2  0  0  0
 38 46  1  0  0  0
 38 47  1  0  0  0
 39 64  1  0  0  0
 39 67  2  0  0  0
 40 52  1  0  0  0
 40 53  2  0  0  0
 40 58  1  0  0  0
 41112  1  0  0  0
 41113  1  0  0  0
 41114  1  0  0  0
 41 48  1  0  0  0
 42 43  1  0  0  0
 42 66  1  0  0  0
 42115  1  0  0  0
 42116  1  0  0  0
 43 44  1  0  0  0
 44117  1  0  0  0
 45 46  2  0  0  0
 45118  1  0  0  0
 46119  1  0  0  0
 47120  1  0  0  0
 47121  1  0  0  0
 48 56  1  0  0  0
 48 65  1  0  0  0
 48122  1  0  0  0
 49 50  1  0  0  0
 49 53  1  0  0  0
 49 64  1  0  0  0
 49123  1  0  0  0
 50 51  1  0  0  0
 50124  1  0  0  0
 50125  1  0  0  0
 51 52  1  0  0  0
 51126  1  0  0  0
 51127  1  0  0  0
 52128  1  0  0  0
 52129  1  0  0  0
 53 54  1  0  0  0
 54 55  2  0  0  0
 54130  1  0  0  0
 55 57  1  0  0  0
 55131  1  0  0  0
 56 69  2  0  0  0
 57 58  2  0  0  0
 57132  1  0  0  0
 58133  1  0  0  0
 59 60  1  0  0  0
 59 61  1  0  0  0
 59 62  1  0  0  0
 60134  1  0  0  0
 60135  1  0  0  0
 60136  1  0  0  0
 61137  1  0  0  0
 61138  1  0  0  0
 61139  1  0  0  0
 62140  1  0  0  0
 62141  1  0  0  0
 62142  1  0  0  0
 63 65  1  0  0  0
 63143  1  0  0  0
 63144  1  0  0  0
 63145  1  0  0  0
 64146  1  0  0  0
 65147  1  0  0  0
 68 84  1  0  0  0
 71 73  2  0  0  0
 71 74  1  0  0  0
 71148  1  0  0  0
 72 74  2  0  0  0
 72 85  1  0  0  0
 72149  1  0  0  0
 73 76  1  0  0  0
 73 78  1  0  0  0
 74 82  1  0  0  0
 75 76  1  0  0  0
 75 77  2  0  0  0
 75 83  1  0  0  0
 76 85  2  0  0  0
 77 84  1  0  0  0
 77 86  1  0  0  0
 78 86  2  0  0  0
 78 88  1  0  0  0
 79 80  1  0  0  0
 79 82  1  0  0  0
 79150  1  0  0  0
 79151  1  0  0  0
 80 87  1  0  0  0
 80152  1  0  0  0
 80153  1  0  0  0
 81 82  1  0  0  0
 81 87  1  0  0  0
 81154  1  0  0  0
 81155  1  0  0  0
 82156  1  0  0  0
 83157  1  0  0  0
 83158  1  0  0  0
 83159  1  0  0  0
 84160  1  0  0  0
 84161  1  0  0  0
M  ISO  4   1 100  68 101  84 101  87 100
M  END
> <chiral flag>
0

> <version>
0

> <s_m_source_file>
/data/baiqing/PycharmProjects/Reinvent-master-3.2/result/LINK_invent/BTK/process_docking_weight1_custom_sum_contain_oxygen_bond_distance_aromatic_linkinvent_7_9_3/rearranged_h_0177.sdf

> <i_m_source_file_index>
28

> <r_mmod_Potential_Energy-OPLS-2005>
-251.67008972168

> <r_mmod_Stretch_Energy-OPLS-2005>
48.4962387084961

> <r_mmod_Bend_Energy-OPLS-2005>
148.431015014648

> <r_mmod_Torsional_Energy-OPLS-2005>
328.967926025391

> <r_mmod_Improper_Torsional_Energy-OPLS-2005>
10.2003908157349

> <r_mmod_Van_der_Waal_Energy-OPLS-2005>
173.479904174805

> <r_mmod_Electrostatic_Energy-OPLS-2005>
-771.219299316406

> <r_mmod_Solvation_Energy-OPLS-2005>
-208.612091064453

> <b_mmod_Minimization_Converged-OPLS-2005>
0

> <r_mmod_RMS_Derivative-OPLS-2005>
2.78509879112244

$$$$
28
                    3D
 Structure written by MMmdl.
150158  0  0  1  0            999 V2000
  -30.4443  -15.4187   20.3527 C   0  0  0  0  0  0
  -30.4119  -12.9276   19.5282 C   0  0  0  0  0  0
  -29.5273  -12.6016   18.2994 C   0  0  0  0  0  0
  -28.0896  -12.2961   18.7412 C   0  0  0  0  0  0
  -27.5954  -13.2967   19.8137 C   0  0  2  0  0  0
  -28.6223  -13.5724   20.9357 C   0  0  0  0  0  0
  -25.2325  -13.8291   20.5806 C   0  0  0  0  0  0
  -24.1700  -13.0449   20.9287 C   0  0  0  0  0  0
  -24.6384  -11.6953   20.8776 C   0  0  0  0  0  0
  -23.9094  -10.4299   21.0405 C   0  0  0  0  0  0
  -24.3639   -9.4212   21.9182 C   0  0  0  0  0  0
  -23.6307   -8.2250   22.0752 C   0  0  0  0  0  0
  -22.4289   -8.0287   21.3544 C   0  0  0  0  0  0
  -21.9930   -9.0261   20.4645 C   0  0  0  0  0  0
  -22.7264  -10.2137   20.3053 C   0  0  0  0  0  0
  -21.6858   -6.0740   22.5277 C   0  0  0  0  0  0
  -21.4018   -6.5642   23.8211 C   0  0  0  0  0  0
  -21.3659   -5.6794   24.9172 C   0  0  0  0  0  0
  -21.6044   -4.3057   24.7222 C   0  0  0  0  0  0
  -21.8819   -3.8149   23.4343 C   0  0  0  0  0  0
  -21.9194   -4.6967   22.3400 C   0  0  0  0  0  0
  -22.7714  -13.5184   21.1922 C   0  0  0  0  0  0
  -22.1662   -4.2152   21.0978 F   0  0  0  0  0  0
  -21.5627   -3.4539   25.7734 F   0  0  0  0  0  0
  -29.8241  -14.1186   20.2770 N   0  0  0  0  0  0
  -26.2754  -12.9601   20.3249 N   0  0  0  0  0  0
  -25.9326  -11.6684   20.5734 N   0  0  0  0  0  0
  -22.0382  -12.8156   22.0475 N   0  0  0  0  0  0
  -25.3960  -15.2029   20.4273 N   0  0  0  0  0  0
  -31.6694  -15.2857   20.1796 O   0  0  0  0  0  0
  -21.6648   -6.8886   21.4242 O   0  0  0  0  0  0
  -22.3390  -14.5484   20.6762 O   0  0  0  0  0  0
  -24.6716  -31.8132   23.1616 C   0  0  0  0  0  0
  -25.9355  -32.4532   23.8116 C   0  0  1  0  0  0
  -27.2165  -26.8294   20.1989 C   0  0  0  0  0  0
  -25.5983  -33.8351   24.2015 N   0  0  0  0  0  0
  -23.4911  -30.4205   21.5123 C   0  0  2  0  0  0
  -24.9458  -28.7871   20.1120 C   0  0  0  0  0  0
  -22.7709  -29.4385   22.4741 C   0  0  0  0  0  0
  -18.0329  -28.1414   22.8466 C   0  0  0  0  0  0
  -24.1488  -36.7180   23.2650 C   0  0  0  0  0  0
  -26.0647  -30.5874   21.4068 C   0  0  0  0  0  0
  -26.1308  -29.1666   20.7535 C   0  0  0  0  0  0
  -27.2567  -28.2108   20.7693 C   0  0  0  0  0  0
  -26.0034  -26.6264   19.5014 C   0  0  0  0  0  0
  -24.9132  -27.5406   19.4636 C   0  0  0  0  0  0
  -23.7369  -29.7276   20.1421 C   0  0  0  0  0  0
  -25.4135  -36.2933   24.0290 C   0  0  1  0  0  0
  -20.5958  -28.3767   23.1167 C   0  0  2  0  0  0
  -20.6799  -26.9435   22.5405 C   0  0  0  0  0  0
  -19.5774  -26.6374   21.5217 C   0  0  0  0  0  0
  -18.1958  -26.7947   22.1621 C   0  0  0  0  0  0
  -19.1594  -28.8912   23.2800 C   0  0  0  0  0  0
  -18.9502  -30.1499   23.8840 C   0  0  0  0  0  0
  -17.6496  -30.6603   24.0554 C   0  0  0  0  0  0
  -25.9109  -34.9320   23.4982 C   0  0  0  0  0  0
  -16.5385  -29.9089   23.6348 C   0  0  0  0  0  0
  -16.7310  -28.6508   23.0369 C   0  0  0  0  0  0
  -26.4575  -31.6520   25.0689 C   0  0  0  0  0  0
  -25.3672  -31.3805   26.1327 C   0  0  0  0  0  0
  -27.0494  -30.2874   24.6502 C   0  0  0  0  0  0
  -27.6043  -32.4361   25.7499 C   0  0  0  0  0  0
  -27.5562  -37.1744   24.8468 C   0  0  0  0  0  0
  -21.4367  -29.3039   22.3499 N   0  0  0  0  0  0
  -26.4272  -37.3680   23.9409 N   0  0  0  0  0  0
  -24.7645  -30.9703   22.0799 N   0  0  0  0  0  0
  -23.4212  -28.7968   23.3027 O   0  0  0  0  0  0
  -28.1980  -25.6754   20.2964 O   0  0  0  0  0  0
  -26.5736  -34.8878   22.4590 O   0  0  0  0  0  0
  -23.5764  -32.1148   23.6651 O   0  0  0  0  0  0
  -28.3382  -19.2858   20.9349 C   0  0  0  0  0  0
  -30.3696  -19.7324   20.0912 C   0  0  0  0  0  0
  -28.5391  -17.5979   20.6212 C   0  0  0  0  0  0
  -30.6047  -18.0889   19.7266 C   0  0  0  0  0  0
  -28.9615  -20.5874   20.0971 C   0  0  0  0  0  0
  -28.9102  -22.4237   20.4950 C   0  0  0  0  0  0
  -28.0051  -24.0012   20.0684 C   0  0  0  0  0  0
  -29.8709  -16.8421   20.3101 N   0  0  0  0  0  0
  -31.4247  -13.1252   19.1757 H   0  0  0  0  0  0
  -30.5044  -12.0584   20.1814 H   0  0  0  0  0  0
  -29.9381  -11.7574   17.7439 H   0  0  0  0  0  0
  -29.5278  -13.4516   17.6156 H   0  0  0  0  0  0
  -28.0796  -11.2865   19.1531 H   0  0  0  0  0  0
  -27.4165  -12.2841   17.8825 H   0  0  0  0  0  0
  -27.4772  -14.2360   19.2715 H   0  0  0  0  0  0
  -28.8341  -12.6768   21.5217 H   0  0  0  0  0  0
  -28.2288  -14.3152   21.6316 H   0  0  0  0  0  0
  -25.2777   -9.5692   22.4767 H   0  0  0  0  0  0
  -24.0010   -7.4644   22.7477 H   0  0  0  0  0  0
  -21.0859   -8.8788   19.8952 H   0  0  0  0  0  0
  -22.3718  -10.9681   19.6169 H   0  0  0  0  0  0
  -21.2012   -7.6149   23.9715 H   0  0  0  0  0  0
  -21.1479   -6.0522   25.9075 H   0  0  0  0  0  0
  -22.0598   -2.7610   23.2842 H   0  0  0  0  0  0
  -22.4022  -11.9827   22.4861 H   0  0  0  0  0  0
  -21.0994  -13.1155   22.2688 H   0  0  0  0  0  0
  -24.6298  -15.8558   20.5520 H   0  0  0  0  0  0
  -26.2492  -15.6469   20.1144 H   0  0  0  0  0  0
  -26.7428  -32.5041   23.0827 H   0  0  0  0  0  0
  -25.0062  -33.9406   25.0120 H   0  0  0  0  0  0
  -22.8094  -31.2545   21.3330 H   0  0  0  0  0  0
  -23.3765  -35.9494   23.3282 H   0  0  0  0  0  0
  -24.3554  -36.8869   22.2071 H   0  0  0  0  0  0
  -23.7236  -37.6349   23.6740 H   0  0  0  0  0  0
  -26.2560  -31.3214   20.6232 H   0  0  0  0  0  0
  -26.9202  -30.6476   22.0673 H   0  0  0  0  0  0
  -28.1497  -28.4998   21.3058 H   0  0  0  0  0  0
  -25.8608  -25.6753   19.0083 H   0  0  0  0  0  0
  -24.0146  -27.2441   18.9400 H   0  0  0  0  0  0
  -23.9007  -30.4922   19.3821 H   0  0  0  0  0  0
  -22.8440  -29.1876   19.8222 H   0  0  0  0  0  0
  -25.1337  -36.1712   25.0781 H   0  0  0  0  0  0
  -21.0045  -28.3389   24.1290 H   0  0  0  0  0  0
  -20.5677  -26.2385   23.3655 H   0  0  0  0  0  0
  -21.6661  -26.7399   22.1212 H   0  0  0  0  0  0
  -19.6931  -25.6269   21.1285 H   0  0  0  0  0  0
  -19.6719  -27.3151   20.6722 H   0  0  0  0  0  0
  -17.4227  -26.6694   21.4024 H   0  0  0  0  0  0
  -18.0343  -26.0100   22.9027 H   0  0  0  0  0  0
  -19.7979  -30.7327   24.2185 H   0  0  0  0  0  0
  -17.5050  -31.6278   24.5164 H   0  0  0  0  0  0
  -15.5383  -30.2974   23.7707 H   0  0  0  0  0  0
  -15.8709  -28.0807   22.7120 H   0  0  0  0  0  0
  -24.5869  -30.7142   25.7632 H   0  0  0  0  0  0
  -24.8846  -32.3017   26.4597 H   0  0  0  0  0  0
  -25.7875  -30.9070   27.0210 H   0  0  0  0  0  0
  -26.3187  -29.6513   24.1495 H   0  0  0  0  0  0
  -27.3972  -29.7285   25.5199 H   0  0  0  0  0  0
  -27.9146  -30.4030   23.9973 H   0  0  0  0  0  0
  -27.2593  -33.3720   26.1906 H   0  0  0  0  0  0
  -28.3937  -32.6833   25.0389 H   0  0  0  0  0  0
  -28.0618  -31.8607   26.5556 H   0  0  0  0  0  0
  -28.2559  -38.0058   24.7507 H   0  0  0  0  0  0
  -28.1078  -36.2581   24.6306 H   0  0  0  0  0  0
  -27.2274  -37.1398   25.8870 H   0  0  0  0  0  0
  -20.9640  -29.8714   21.6601 H   0  0  0  0  0  0
  -26.0110  -38.2732   24.1429 H   0  0  0  0  0  0
  -28.6548  -19.4221   21.9709 H   0  0  0  0  0  0
  -27.2615  -19.4523   20.9830 H   0  0  0  0  0  0
  -31.0366  -20.2766   19.4215 H   0  0  0  0  0  0
  -30.8246  -19.8855   21.0716 H   0  0  0  0  0  0
  -27.8940  -17.3676   19.7727 H   0  0  0  0  0  0
  -28.0855  -17.0614   21.4558 H   0  0  0  0  0  0
  -31.6694  -17.9009   19.8712 H   0  0  0  0  0  0
  -30.4673  -17.9980   18.6481 H   0  0  0  0  0  0
  -28.5658  -20.5210   19.0829 H   0  0  0  0  0  0
  -29.9226  -22.7086   20.2088 H   0  0  0  0  0  0
  -28.9529  -22.4447   21.5839 H   0  0  0  0  0  0
  -26.9971  -23.8278   20.4462 H   0  0  0  0  0  0
  -27.8845  -23.9386   18.9869 H   0  0  0  0  0  0
  1 25  1  0  0  0
  1 30  2  0  0  0
  1 78  1  0  0  0
  2  3  1  0  0  0
  2 25  1  0  0  0
  2 79  1  0  0  0
  2 80  1  0  0  0
  3  4  1  0  0  0
  3 81  1  0  0  0
  3 82  1  0  0  0
  4  5  1  0  0  0
  4 83  1  0  0  0
  4 84  1  0  0  0
  5  6  1  0  0  0
  5 26  1  0  0  0
  5 85  1  0  0  0
  6 25  1  0  0  0
  6 86  1  0  0  0
  6 87  1  0  0  0
  7  8  2  0  0  0
  7 26  1  0  0  0
  7 29  1  0  0  0
  8  9  1  0  0  0
  8 22  1  0  0  0
  9 10  1  0  0  0
  9 27  2  0  0  0
 10 11  2  0  0  0
 10 15  1  0  0  0
 11 12  1  0  0  0
 11 88  1  0  0  0
 12 13  2  0  0  0
 12 89  1  0  0  0
 13 14  1  0  0  0
 13 31  1  0  0  0
 14 15  2  0  0  0
 14 90  1  0  0  0
 15 91  1  0  0  0
 16 17  2  0  0  0
 16 21  1  0  0  0
 16 31  1  0  0  0
 17 18  1  0  0  0
 17 92  1  0  0  0
 18 19  2  0  0  0
 18 93  1  0  0  0
 19 20  1  0  0  0
 19 24  1  0  0  0
 20 21  2  0  0  0
 20 94  1  0  0  0
 21 23  1  0  0  0
 22 28  1  0  0  0
 22 32  2  0  0  0
 26 27  1  0  0  0
 28 95  1  0  0  0
 28 96  1  0  0  0
 29 97  1  0  0  0
 29 98  1  0  0  0
 33 34  1  0  0  0
 33 66  1  0  0  0
 33 70  2  0  0  0
 34 36  1  0  0  0
 34 59  1  0  0  0
 34 99  1  0  0  0
 35 44  2  0  0  0
 35 45  1  0  0  0
 35 68  1  0  0  0
 36 56  1  0  0  0
 36100  1  0  0  0
 37 39  1  0  0  0
 37 47  1  0  0  0
 37 66  1  0  0  0
 37101  1  0  0  0
 38 43  2  0  0  0
 38 46  1  0  0  0
 38 47  1  0  0  0
 39 64  1  0  0  0
 39 67  2  0  0  0
 40 52  1  0  0  0
 40 53  2  0  0  0
 40 58  1  0  0  0
 41102  1  0  0  0
 41103  1  0  0  0
 41104  1  0  0  0
 41 48  1  0  0  0
 42 43  1  0  0  0
 42 66  1  0  0  0
 42105  1  0  0  0
 42106  1  0  0  0
 43 44  1  0  0  0
 44107  1  0  0  0
 45 46  2  0  0  0
 45108  1  0  0  0
 46109  1  0  0  0
 47110  1  0  0  0
 47111  1  0  0  0
 48 56  1  0  0  0
 48 65  1  0  0  0
 48112  1  0  0  0
 49 50  1  0  0  0
 49 53  1  0  0  0
 49 64  1  0  0  0
 49113  1  0  0  0
 50 51  1  0  0  0
 50114  1  0  0  0
 50115  1  0  0  0
 51 52  1  0  0  0
 51116  1  0  0  0
 51117  1  0  0  0
 52118  1  0  0  0
 52119  1  0  0  0
 53 54  1  0  0  0
 54 55  2  0  0  0
 54120  1  0  0  0
 55 57  1  0  0  0
 55121  1  0  0  0
 56 69  2  0  0  0
 57 58  2  0  0  0
 57122  1  0  0  0
 58123  1  0  0  0
 59 60  1  0  0  0
 59 61  1  0  0  0
 59 62  1  0  0  0
 60124  1  0  0  0
 60125  1  0  0  0
 60126  1  0  0  0
 61127  1  0  0  0
 61128  1  0  0  0
 61129  1  0  0  0
 62130  1  0  0  0
 62131  1  0  0  0
 62132  1  0  0  0
 63 65  1  0  0  0
 63133  1  0  0  0
 63134  1  0  0  0
 63135  1  0  0  0
 64136  1  0  0  0
 65137  1  0  0  0
 68 77  1  0  0  0
 71 73  1  0  0  0
 71 75  1  0  0  0
 71138  1  0  0  0
 71139  1  0  0  0
 72 74  1  0  0  0
 72 75  1  0  0  0
 72140  1  0  0  0
 72141  1  0  0  0
 73 78  1  0  0  0
 73142  1  0  0  0
 73143  1  0  0  0
 74 78  1  0  0  0
 74144  1  0  0  0
 74145  1  0  0  0
 75 76  1  0  0  0
 75146  1  0  0  0
 76 77  1  0  0  0
 76147  1  0  0  0
 76148  1  0  0  0
 77149  1  0  0  0
 77150  1  0  0  0
M  ISO  4   1 100  68 101  77 101  78 100
M  END
> <chiral flag>
0

> <version>
0

> <s_m_source_file>
/data/baiqing/PycharmProjects/Reinvent-master-3.2/result/LINK_invent/BTK/process_docking_weight1_custom_sum_contain_oxygen_bond_distance_aromatic_linkinvent_7_9_3/rearranged_h_0177.sdf

> <i_m_source_file_index>
29

> <r_mmod_Potential_Energy-OPLS-2005>
1987.31433105469

> <r_mmod_Stretch_Energy-OPLS-2005>
758.320434570312

> <r_mmod_Bend_Energy-OPLS-2005>
641.05517578125

> <r_mmod_Torsional_Energy-OPLS-2005>
311.031341552734

> <r_mmod_Improper_Torsional_Energy-OPLS-2005>
7.76603746414185

> <r_mmod_Van_der_Waal_Energy-OPLS-2005>
115.90389251709

> <r_mmod_Electrostatic_Energy-OPLS-2005>
-266.089538574219

> <r_mmod_Solvation_Energy-OPLS-2005>
-202.874450683594

> <b_mmod_Minimization_Converged-OPLS-2005>
0

> <r_mmod_RMS_Derivative-OPLS-2005>
0.539686918258667

$$$$
29
                    3D
 Structure written by MMmdl.
153162  0  0  1  0            999 V2000
  -30.5561  -14.9846   20.4854 C   0  0  0  0  0  0
  -30.4392  -12.6306   19.5177 C   0  0  0  0  0  0
  -29.5249  -12.5521   18.2714 C   0  0  0  0  0  0
  -28.0587  -12.3290   18.6845 C   0  0  0  0  0  0
  -27.6303  -13.2620   19.8499 C   0  0  2  0  0  0
  -28.6661  -13.3061   20.9926 C   0  0  0  0  0  0
  -25.2450  -13.8256   20.5751 C   0  0  0  0  0  0
  -24.1760  -13.0464   20.9206 C   0  0  0  0  0  0
  -24.6402  -11.6945   20.8745 C   0  0  0  0  0  0
  -23.9108  -10.4308   21.0399 C   0  0  0  0  0  0
  -24.3640   -9.4222   21.9186 C   0  0  0  0  0  0
  -23.6308   -8.2267   22.0760 C   0  0  0  0  0  0
  -22.4291   -8.0301   21.3551 C   0  0  0  0  0  0
  -21.9927   -9.0271   20.4646 C   0  0  0  0  0  0
  -22.7271  -10.2154   20.3048 C   0  0  0  0  0  0
  -21.6854   -6.0755   22.5289 C   0  0  0  0  0  0
  -21.4017   -6.5655   23.8225 C   0  0  0  0  0  0
  -21.3646   -5.6795   24.9179 C   0  0  0  0  0  0
  -21.6035   -4.3058   24.7219 C   0  0  0  0  0  0
  -21.8809   -3.8161   23.4336 C   0  0  0  0  0  0
  -21.9196   -4.6986   22.3404 C   0  0  0  0  0  0
  -22.7779  -13.5218   21.1865 C   0  0  0  0  0  0
  -22.1658   -4.2166   21.0983 F   0  0  0  0  0  0
  -21.5620   -3.4549   25.7738 F   0  0  0  0  0  0
  -29.9415  -13.7303   20.4024 N   0  0  0  0  0  0
  -26.2893  -12.9515   20.3308 N   0  0  0  0  0  0
  -25.9351  -11.6630   20.5760 N   0  0  0  0  0  0
  -22.0431  -12.8187   22.0412 N   0  0  0  0  0  0
  -25.4149  -15.1985   20.4235 N   0  0  0  0  0  0
  -31.7529  -15.0253   20.1739 O   0  0  0  0  0  0
  -21.6650   -6.8899   21.4253 O   0  0  0  0  0  0
  -22.3461  -14.5539   20.6748 O   0  0  0  0  0  0
  -24.6477  -31.8429   23.1866 C   0  0  0  0  0  0
  -25.9245  -32.4701   23.8261 C   0  0  1  0  0  0
  -27.2116  -27.0918   20.1862 C   0  0  0  0  0  0
  -25.5982  -33.8501   24.2175 N   0  0  0  0  0  0
  -23.4519  -30.4633   21.5323 C   0  0  2  0  0  0
  -24.9026  -28.8888   20.1084 C   0  0  0  0  0  0
  -22.7609  -29.4552   22.4837 C   0  0  0  0  0  0
  -18.0314  -28.1425   22.8464 C   0  0  0  0  0  0
  -24.1480  -36.7223   23.2627 C   0  0  0  0  0  0
  -26.0121  -30.7057   21.3897 C   0  0  0  0  0  0
  -26.0821  -29.3133   20.7325 C   0  0  0  0  0  0
  -27.2355  -28.4355   20.7536 C   0  0  0  0  0  0
  -26.0105  -26.7911   19.4977 C   0  0  0  0  0  0
  -24.8875  -27.6445   19.4663 C   0  0  0  0  0  0
  -23.6797  -29.7927   20.1522 C   0  0  0  0  0  0
  -25.4105  -36.3026   24.0330 C   0  0  1  0  0  0
  -20.5928  -28.3751   23.1247 C   0  0  2  0  0  0
  -20.6798  -26.9448   22.5409 C   0  0  0  0  0  0
  -19.5766  -26.6390   21.5230 C   0  0  0  0  0  0
  -18.1934  -26.7960   22.1613 C   0  0  0  0  0  0
  -19.1567  -28.8906   23.2850 C   0  0  0  0  0  0
  -18.9480  -30.1495   23.8890 C   0  0  0  0  0  0
  -17.6477  -30.6617   24.0570 C   0  0  0  0  0  0
  -25.9085  -34.9409   23.5059 C   0  0  0  0  0  0
  -16.5370  -29.9098   23.6365 C   0  0  0  0  0  0
  -16.7295  -28.6522   23.0368 C   0  0  0  0  0  0
  -26.4542  -31.6575   25.0715 C   0  0  0  0  0  0
  -25.3703  -31.3795   26.1402 C   0  0  0  0  0  0
  -27.0394  -30.2960   24.6298 C   0  0  0  0  0  0
  -27.6106  -32.4309   25.7441 C   0  0  0  0  0  0
  -27.5590  -37.1732   24.8433 C   0  0  0  0  0  0
  -21.4292  -29.3078   22.3612 N   0  0  0  0  0  0
  -26.4239  -37.3768   23.9475 N   0  0  0  0  0  0
  -24.7249  -31.0254   22.0926 N   0  0  0  0  0  0
  -23.4244  -28.8112   23.3000 O   0  0  0  0  0  0
  -28.2204  -26.0520   20.3115 O   0  0  0  0  0  0
  -26.5649  -34.8928   22.4629 O   0  0  0  0  0  0
  -23.5594  -32.1280   23.7091 O   0  0  0  0  0  0
  -29.3780  -20.8376   19.5639 C   0  0  0  0  0  0
  -29.0892  -22.2577   19.4292 C   0  0  0  0  0  0
  -29.1991  -20.0861   20.7738 C   0  0  0  0  0  0
  -28.5928  -23.0899   20.4859 C   0  0  0  0  0  0
  -28.7644  -21.0080   21.8128 C   0  0  0  0  0  0
  -29.4280  -17.2770   19.7798 C   0  0  0  0  0  0
  -30.3880  -17.4176   21.5287 C   0  0  0  0  0  0
  -29.3196  -18.4100   20.8920 C   0  0  0  0  0  0
  -28.5552  -20.5140   23.2375 C   0  0  0  0  0  0
  -27.7885  -24.5414   20.2325 C   0  0  0  0  0  0
  -28.4751  -22.3770   21.6651 N   0  0  0  0  0  0
  -29.8414  -16.1989   20.7781 N   0  0  0  0  0  0
  -31.4715  -12.7930   19.2010 H   0  0  0  0  0  0
  -30.4418  -11.6803   20.0562 H   0  0  0  0  0  0
  -29.8543  -11.7503   17.6091 H   0  0  0  0  0  0
  -29.6096  -13.4786   17.7004 H   0  0  0  0  0  0
  -27.9549  -11.2859   18.9871 H   0  0  0  0  0  0
  -27.3972  -12.4638   17.8275 H   0  0  0  0  0  0
  -27.5893  -14.2651   19.4223 H   0  0  0  0  0  0
  -28.7592  -12.3331   21.4780 H   0  0  0  0  0  0
  -28.3495  -14.0118   21.7631 H   0  0  0  0  0  0
  -25.2793   -9.5696   22.4757 H   0  0  0  0  0  0
  -24.0014   -7.4659   22.7491 H   0  0  0  0  0  0
  -21.0863   -8.8803   19.8949 H   0  0  0  0  0  0
  -22.3750  -10.9688   19.6147 H   0  0  0  0  0  0
  -21.2009   -7.6162   23.9732 H   0  0  0  0  0  0
  -21.1465   -6.0527   25.9078 H   0  0  0  0  0  0
  -22.0592   -2.7621   23.2844 H   0  0  0  0  0  0
  -22.4073  -11.9832   22.4744 H   0  0  0  0  0  0
  -21.1058  -13.1217   22.2660 H   0  0  0  0  0  0
  -24.6532  -15.8557   20.5446 H   0  0  0  0  0  0
  -26.2835  -15.6432   20.1551 H   0  0  0  0  0  0
  -26.7287  -32.5292   23.0956 H   0  0  0  0  0  0
  -25.0206  -33.9598   25.0384 H   0  0  0  0  0  0
  -22.7561  -31.2909   21.3760 H   0  0  0  0  0  0
  -23.3803  -35.9491   23.3212 H   0  0  0  0  0  0
  -24.3576  -36.8924   22.2057 H   0  0  0  0  0  0
  -23.7165  -37.6375   23.6698 H   0  0  0  0  0  0
  -26.1727  -31.4593   20.6186 H   0  0  0  0  0  0
  -26.8832  -30.7568   22.0315 H   0  0  0  0  0  0
  -28.1228  -28.7564   21.2770 H   0  0  0  0  0  0
  -25.8869  -25.8454   18.9950 H   0  0  0  0  0  0
  -23.9929  -27.3150   18.9535 H   0  0  0  0  0  0
  -23.8143  -30.5667   19.3975 H   0  0  0  0  0  0
  -22.7946  -29.2360   19.8408 H   0  0  0  0  0  0
  -25.1275  -36.1818   25.0816 H   0  0  0  0  0  0
  -21.0008  -28.3332   24.1376 H   0  0  0  0  0  0
  -20.5752  -26.2349   23.3633 H   0  0  0  0  0  0
  -21.6655  -26.7488   22.1164 H   0  0  0  0  0  0
  -19.6951  -25.6306   21.1251 H   0  0  0  0  0  0
  -19.6714  -27.3212   20.6777 H   0  0  0  0  0  0
  -17.4219  -26.6757   21.3998 H   0  0  0  0  0  0
  -18.0302  -26.0113   22.9007 H   0  0  0  0  0  0
  -19.7954  -30.7318   24.2252 H   0  0  0  0  0  0
  -17.5016  -31.6300   24.5161 H   0  0  0  0  0  0
  -15.5357  -30.2987   23.7720 H   0  0  0  0  0  0
  -15.8683  -28.0839   22.7111 H   0  0  0  0  0  0
  -24.5887  -30.7139   25.7692 H   0  0  0  0  0  0
  -24.8892  -32.3004   26.4732 H   0  0  0  0  0  0
  -25.7949  -30.9006   27.0229 H   0  0  0  0  0  0
  -26.3009  -29.6690   24.1287 H   0  0  0  0  0  0
  -27.3997  -29.7270   25.4866 H   0  0  0  0  0  0
  -27.8911  -30.4205   23.9609 H   0  0  0  0  0  0
  -27.2821  -33.3723   26.1837 H   0  0  0  0  0  0
  -28.3998  -32.6662   25.0290 H   0  0  0  0  0  0
  -28.0663  -31.8528   26.5486 H   0  0  0  0  0  0
  -28.2475  -38.0156   24.7691 H   0  0  0  0  0  0
  -28.1229  -36.2723   24.5972 H   0  0  0  0  0  0
  -27.2354  -37.0999   25.8828 H   0  0  0  0  0  0
  -20.9532  -29.8760   21.6746 H   0  0  0  0  0  0
  -26.0106  -38.2806   24.1624 H   0  0  0  0  0  0
  -29.6956  -20.3001   18.6823 H   0  0  0  0  0  0
  -29.1786  -22.6985   18.4448 H   0  0  0  0  0  0
  -30.1963  -17.4904   19.0312 H   0  0  0  0  0  0
  -28.4760  -17.0890   19.2800 H   0  0  0  0  0  0
  -30.3123  -17.3428   22.6158 H   0  0  0  0  0  0
  -31.4189  -17.6651   21.2551 H   0  0  0  0  0  0
  -28.3877  -18.1865   21.4142 H   0  0  0  0  0  0
  -29.4988  -20.4892   23.7810 H   0  0  0  0  0  0
  -28.1176  -19.5189   23.2629 H   0  0  0  0  0  0
  -27.8842  -21.1686   23.7965 H   0  0  0  0  0  0
  -26.8978  -24.4642   20.8608 H   0  0  0  0  0  0
  -27.4326  -24.4126   19.2110 H   0  0  0  0  0  0
  1 25  1  0  0  0
  1 30  2  0  0  0
  1 82  1  0  0  0
  2  3  1  0  0  0
  2 25  1  0  0  0
  2 83  1  0  0  0
  2 84  1  0  0  0
  3  4  1  0  0  0
  3 85  1  0  0  0
  3 86  1  0  0  0
  4  5  1  0  0  0
  4 87  1  0  0  0
  4 88  1  0  0  0
  5  6  1  0  0  0
  5 26  1  0  0  0
  5 89  1  0  0  0
  6 25  1  0  0  0
  6 90  1  0  0  0
  6 91  1  0  0  0
  7  8  2  0  0  0
  7 26  1  0  0  0
  7 29  1  0  0  0
  8  9  1  0  0  0
  8 22  1  0  0  0
  9 10  1  0  0  0
  9 27  2  0  0  0
 10 11  2  0  0  0
 10 15  1  0  0  0
 11 12  1  0  0  0
 11 92  1  0  0  0
 12 13  2  0  0  0
 12 93  1  0  0  0
 13 14  1  0  0  0
 13 31  1  0  0  0
 14 15  2  0  0  0
 14 94  1  0  0  0
 15 95  1  0  0  0
 16 17  2  0  0  0
 16 21  1  0  0  0
 16 31  1  0  0  0
 17 18  1  0  0  0
 17 96  1  0  0  0
 18 19  2  0  0  0
 18 97  1  0  0  0
 19 20  1  0  0  0
 19 24  1  0  0  0
 20 21  2  0  0  0
 20 98  1  0  0  0
 21 23  1  0  0  0
 22 28  1  0  0  0
 22 32  2  0  0  0
 26 27  1  0  0  0
 28 99  1  0  0  0
 28100  1  0  0  0
 29101  1  0  0  0
 29102  1  0  0  0
 33 34  1  0  0  0
 33 66  1  0  0  0
 33 70  2  0  0  0
 34 36  1  0  0  0
 34 59  1  0  0  0
 34103  1  0  0  0
 35 44  2  0  0  0
 35 45  1  0  0  0
 35 68  1  0  0  0
 36 56  1  0  0  0
 36104  1  0  0  0
 37 39  1  0  0  0
 37 47  1  0  0  0
 37 66  1  0  0  0
 37105  1  0  0  0
 38 43  2  0  0  0
 38 46  1  0  0  0
 38 47  1  0  0  0
 39 64  1  0  0  0
 39 67  2  0  0  0
 40 52  1  0  0  0
 40 53  2  0  0  0
 40 58  1  0  0  0
 41106  1  0  0  0
 41107  1  0  0  0
 41108  1  0  0  0
 41 48  1  0  0  0
 42 43  1  0  0  0
 42 66  1  0  0  0
 42109  1  0  0  0
 42110  1  0  0  0
 43 44  1  0  0  0
 44111  1  0  0  0
 45 46  2  0  0  0
 45112  1  0  0  0
 46113  1  0  0  0
 47114  1  0  0  0
 47115  1  0  0  0
 48 56  1  0  0  0
 48 65  1  0  0  0
 48116  1  0  0  0
 49 50  1  0  0  0
 49 53  1  0  0  0
 49 64  1  0  0  0
 49117  1  0  0  0
 50 51  1  0  0  0
 50118  1  0  0  0
 50119  1  0  0  0
 51 52  1  0  0  0
 51120  1  0  0  0
 51121  1  0  0  0
 52122  1  0  0  0
 52123  1  0  0  0
 53 54  1  0  0  0
 54 55  2  0  0  0
 54124  1  0  0  0
 55 57  1  0  0  0
 55125  1  0  0  0
 56 69  2  0  0  0
 57 58  2  0  0  0
 57126  1  0  0  0
 58127  1  0  0  0
 59 60  1  0  0  0
 59 61  1  0  0  0
 59 62  1  0  0  0
 60128  1  0  0  0
 60129  1  0  0  0
 60130  1  0  0  0
 61131  1  0  0  0
 61132  1  0  0  0
 61133  1  0  0  0
 62134  1  0  0  0
 62135  1  0  0  0
 62136  1  0  0  0
 63 65  1  0  0  0
 63137  1  0  0  0
 63138  1  0  0  0
 63139  1  0  0  0
 64140  1  0  0  0
 65141  1  0  0  0
 68 80  1  0  0  0
 71 72  2  0  0  0
 71 73  1  0  0  0
 71142  1  0  0  0
 72 74  1  0  0  0
 72143  1  0  0  0
 73 75  2  0  0  0
 73 78  1  0  0  0
 74 80  1  0  0  0
 74 81  2  0  0  0
 75 79  1  0  0  0
 75 81  1  0  0  0
 76 78  1  0  0  0
 76 82  1  0  0  0
 76144  1  0  0  0
 76145  1  0  0  0
 77 78  1  0  0  0
 77 82  1  0  0  0
 77146  1  0  0  0
 77147  1  0  0  0
 78148  1  0  0  0
 79149  1  0  0  0
 79150  1  0  0  0
 79151  1  0  0  0
 80152  1  0  0  0
 80153  1  0  0  0
M  ISO  4   1 100  68 101  80 101  82 100
M  END
> <chiral flag>
0

> <version>
0

> <s_m_source_file>
/data/baiqing/PycharmProjects/Reinvent-master-3.2/result/LINK_invent/BTK/process_docking_weight1_custom_sum_contain_oxygen_bond_distance_aromatic_linkinvent_7_9_3/rearranged_h_0177.sdf

> <i_m_source_file_index>
30

> <r_mmod_Potential_Energy-OPLS-2005>
543.873718261719

> <r_mmod_Stretch_Energy-OPLS-2005>
263.384368896484

> <r_mmod_Bend_Energy-OPLS-2005>
299.611206054688

> <r_mmod_Torsional_Energy-OPLS-2005>
278.049499511719

> <r_mmod_Improper_Torsional_Energy-OPLS-2005>
14.058313369751

> <r_mmod_Van_der_Waal_Energy-OPLS-2005>
135.115661621094

> <r_mmod_Electrostatic_Energy-OPLS-2005>
-459.386932373047

> <r_mmod_Solvation_Energy-OPLS-2005>
-218.966079711914

> <b_mmod_Minimization_Converged-OPLS-2005>
0

> <r_mmod_RMS_Derivative-OPLS-2005>
4.34438800811768

$$$$
30
                    3D
 Structure written by MMmdl.
166176  0  0  1  0            999 V2000
  -30.7178  -14.7286   20.4693 C   0  0  0  0  0  0
  -30.4008  -12.4605   19.4680 C   0  0  0  0  0  0
  -29.4917  -12.5035   18.2250 C   0  0  0  0  0  0
  -28.0206  -12.3330   18.6449 C   0  0  0  0  0  0
  -27.6300  -13.2412   19.8440 C   0  0  2  0  0  0
  -28.6853  -13.2139   20.9743 C   0  0  0  0  0  0
  -25.2432  -13.8201   20.5705 C   0  0  0  0  0  0
  -24.1759  -13.0425   20.9236 C   0  0  0  0  0  0
  -24.6381  -11.6914   20.8767 C   0  0  0  0  0  0
  -23.9070  -10.4281   21.0414 C   0  0  0  0  0  0
  -24.3620   -9.4196   21.9193 C   0  0  0  0  0  0
  -23.6294   -8.2234   22.0754 C   0  0  0  0  0  0
  -22.4272   -8.0280   21.3548 C   0  0  0  0  0  0
  -21.9919   -9.0256   20.4647 C   0  0  0  0  0  0
  -22.7252  -10.2128   20.3066 C   0  0  0  0  0  0
  -21.6830   -6.0743   22.5285 C   0  0  0  0  0  0
  -21.4003   -6.5641   23.8222 C   0  0  0  0  0  0
  -21.3664   -5.6795   24.9184 C   0  0  0  0  0  0
  -21.6043   -4.3057   24.7225 C   0  0  0  0  0  0
  -21.8810   -3.8156   23.4341 C   0  0  0  0  0  0
  -21.9173   -4.6974   22.3403 C   0  0  0  0  0  0
  -22.7782  -13.5213   21.1881 C   0  0  0  0  0  0
  -22.1627   -4.2165   21.0977 F   0  0  0  0  0  0
  -21.5643   -3.4538   25.7729 F   0  0  0  0  0  0
  -29.9687  -13.5704   20.3574 N   0  0  0  0  0  0
  -26.2876  -12.9442   20.3302 N   0  0  0  0  0  0
  -25.9316  -11.6569   20.5784 N   0  0  0  0  0  0
  -22.0417  -12.8209   22.0432 N   0  0  0  0  0  0
  -25.4053  -15.1930   20.4055 N   0  0  0  0  0  0
  -31.9260  -14.6279   20.2383 O   0  0  0  0  0  0
  -21.6623   -6.8892   21.4245 O   0  0  0  0  0  0
  -22.3484  -14.5520   20.6728 O   0  0  0  0  0  0
  -24.6325  -31.8563   23.2058 C   0  0  0  0  0  0
  -25.9166  -32.4763   23.8381 C   0  0  1  0  0  0
  -27.1950  -27.2580   20.1061 C   0  0  0  0  0  0
  -25.5977  -33.8571   24.2308 N   0  0  0  0  0  0
  -23.4286  -30.4857   21.5498 C   0  0  2  0  0  0
  -24.8722  -28.9487   20.1055 C   0  0  0  0  0  0
  -22.7511  -29.4611   22.4924 C   0  0  0  0  0  0
  -18.0290  -28.1384   22.8474 C   0  0  0  0  0  0
  -24.1485  -36.7265   23.2642 C   0  0  0  0  0  0
  -25.9786  -30.7632   21.3922 C   0  0  0  0  0  0
  -26.0471  -29.3901   20.7282 C   0  0  0  0  0  0
  -27.2140  -28.5537   20.7289 C   0  0  0  0  0  0
  -26.0116  -26.9247   19.4071 C   0  0  0  0  0  0
  -24.8593  -27.7223   19.4361 C   0  0  0  0  0  0
  -23.6461  -29.8362   20.1612 C   0  0  0  0  0  0
  -25.4119  -36.3075   24.0331 C   0  0  1  0  0  0
  -20.5893  -28.3696   23.1250 C   0  0  2  0  0  0
  -20.6785  -26.9411   22.5398 C   0  0  0  0  0  0
  -19.5763  -26.6382   21.5200 C   0  0  0  0  0  0
  -18.1943  -26.7929   22.1611 C   0  0  0  0  0  0
  -19.1543  -28.8856   23.2866 C   0  0  0  0  0  0
  -18.9471  -30.1455   23.8889 C   0  0  0  0  0  0
  -17.6468  -30.6590   24.0553 C   0  0  0  0  0  0
  -25.9059  -34.9442   23.5114 C   0  0  0  0  0  0
  -16.5357  -29.9084   23.6330 C   0  0  0  0  0  0
  -16.7276  -28.6498   23.0355 C   0  0  0  0  0  0
  -26.4530  -31.6570   25.0754 C   0  0  0  0  0  0
  -25.3752  -31.3685   26.1460 C   0  0  0  0  0  0
  -27.0385  -30.2989   24.6236 C   0  0  0  0  0  0
  -27.6088  -32.4298   25.7536 C   0  0  0  0  0  0
  -27.5576  -37.1805   24.8473 C   0  0  0  0  0  0
  -21.4214  -29.3047   22.3653 N   0  0  0  0  0  0
  -26.4290  -37.3774   23.9407 N   0  0  0  0  0  0
  -24.6998  -31.0514   22.1052 N   0  0  0  0  0  0
  -23.4201  -28.8126   23.3015 O   0  0  0  0  0  0
  -28.2263  -26.2842   20.1715 O   0  0  0  0  0  0
  -26.5609  -34.8899   22.4668 O   0  0  0  0  0  0
  -23.5479  -32.1409   23.7335 O   0  0  0  0  0  0
  -29.0401  -22.9908   21.6966 C   0  0  0  0  0  0
  -29.3889  -21.6104   21.8419 C   0  0  0  0  0  0
  -28.5482  -23.5253   20.4811 C   0  0  0  0  0  0
  -29.2932  -20.7172   20.7313 C   0  0  0  0  0  0
  -28.5135  -22.5654   19.4193 C   0  0  0  0  0  0
  -28.9518  -20.1547   23.9709 C   0  0  0  0  0  0
  -29.1026  -21.5735   24.4603 C   0  0  0  0  0  0
  -28.5273  -18.0829   20.8660 C   0  0  0  0  0  0
  -30.6160  -18.5937   19.7699 C   0  0  0  0  0  0
  -28.9756  -16.5739   21.1455 C   0  0  0  0  0  0
  -31.1326  -17.1344   20.0546 C   0  0  0  0  0  0
  -29.8128  -21.1289   23.1995 C   0  0  0  0  0  0
  -29.6599  -19.1544   20.8352 C   0  0  0  0  0  0
  -28.0107  -22.9465   18.0371 C   0  0  0  0  0  0
  -27.7286  -24.8944   20.4863 C   0  0  0  0  0  0
  -28.8708  -21.2387   19.5434 N   0  0  0  0  0  0
  -30.1751  -16.0324   20.4335 N   0  0  0  0  0  0
  -31.4451  -12.5270   19.1596 H   0  0  0  0  0  0
  -30.3099  -11.4984   19.9767 H   0  0  0  0  0  0
  -29.7764  -11.7231   17.5180 H   0  0  0  0  0  0
  -29.6231  -13.4526   17.7017 H   0  0  0  0  0  0
  -27.8775  -11.2848   18.9101 H   0  0  0  0  0  0
  -27.3599  -12.5191   17.7967 H   0  0  0  0  0  0
  -27.6064  -14.2552   19.4446 H   0  0  0  0  0  0
  -28.7364  -12.2257   21.4355 H   0  0  0  0  0  0
  -28.4282  -13.9017   21.7805 H   0  0  0  0  0  0
  -25.2747   -9.5686   22.4779 H   0  0  0  0  0  0
  -24.0016   -7.4622   22.7465 H   0  0  0  0  0  0
  -21.0860   -8.8783   19.8932 H   0  0  0  0  0  0
  -22.3720  -10.9683   19.6189 H   0  0  0  0  0  0
  -21.1990   -7.6142   23.9746 H   0  0  0  0  0  0
  -21.1502   -6.0518   25.9097 H   0  0  0  0  0  0
  -22.0589   -2.7617   23.2844 H   0  0  0  0  0  0
  -22.4039  -11.9881   22.4826 H   0  0  0  0  0  0
  -21.1034  -13.1250   22.2631 H   0  0  0  0  0  0
  -24.6339  -15.8415   20.5202 H   0  0  0  0  0  0
  -26.2431  -15.6307   20.0464 H   0  0  0  0  0  0
  -26.7227  -32.5393   23.1114 H   0  0  0  0  0  0
  -25.0170  -33.9722   25.0486 H   0  0  0  0  0  0
  -22.7265  -31.3107   21.4122 H   0  0  0  0  0  0
  -23.3756  -35.9593   23.3321 H   0  0  0  0  0  0
  -24.3574  -36.8864   22.2056 H   0  0  0  0  0  0
  -23.7222  -37.6466   23.6645 H   0  0  0  0  0  0
  -26.1225  -31.5250   20.6250 H   0  0  0  0  0  0
  -26.8558  -30.8070   22.0258 H   0  0  0  0  0  0
  -28.1046  -28.8749   21.2502 H   0  0  0  0  0  0
  -25.9354  -26.0264   18.8154 H   0  0  0  0  0  0
  -23.9693  -27.3957   18.9161 H   0  0  0  0  0  0
  -23.7766  -30.6221   19.4165 H   0  0  0  0  0  0
  -22.7618  -29.2782   19.8471 H   0  0  0  0  0  0
  -25.1303  -36.1931   25.0824 H   0  0  0  0  0  0
  -20.9985  -28.3270   24.1366 H   0  0  0  0  0  0
  -20.5682  -26.2304   23.3607 H   0  0  0  0  0  0
  -21.6649  -26.7440   22.1179 H   0  0  0  0  0  0
  -19.6923  -25.6292   21.1237 H   0  0  0  0  0  0
  -19.6707  -27.3186   20.6729 H   0  0  0  0  0  0
  -17.4213  -26.6673   21.4016 H   0  0  0  0  0  0
  -18.0345  -26.0073   22.9006 H   0  0  0  0  0  0
  -19.7950  -30.7272   24.2260 H   0  0  0  0  0  0
  -17.5025  -31.6269   24.5161 H   0  0  0  0  0  0
  -15.5361  -30.2984   23.7673 H   0  0  0  0  0  0
  -15.8667  -28.0816   22.7080 H   0  0  0  0  0  0
  -24.5991  -30.6963   25.7778 H   0  0  0  0  0  0
  -24.8864  -32.2824   26.4847 H   0  0  0  0  0  0
  -25.8081  -30.8909   27.0262 H   0  0  0  0  0  0
  -26.2970  -29.6729   24.1254 H   0  0  0  0  0  0
  -27.4066  -29.7253   25.4755 H   0  0  0  0  0  0
  -27.8855  -30.4274   23.9492 H   0  0  0  0  0  0
  -27.2729  -33.3635   26.2061 H   0  0  0  0  0  0
  -28.3940  -32.6788   25.0383 H   0  0  0  0  0  0
  -28.0702  -31.8438   26.5497 H   0  0  0  0  0  0
  -28.2595  -38.0099   24.7504 H   0  0  0  0  0  0
  -28.1071  -36.2625   24.6328 H   0  0  0  0  0  0
  -27.2281  -37.1472   25.8873 H   0  0  0  0  0  0
  -20.9409  -29.8784   21.6860 H   0  0  0  0  0  0
  -26.0166  -38.2848   24.1409 H   0  0  0  0  0  0
  -29.0624  -23.6320   22.5661 H   0  0  0  0  0  0
  -27.9881  -19.8764   23.5486 H   0  0  0  0  0  0
  -29.4533  -19.3749   24.5410 H   0  0  0  0  0  0
  -29.7028  -21.7190   25.3561 H   0  0  0  0  0  0
  -28.2286  -22.2174   24.3745 H   0  0  0  0  0  0
  -27.7967  -18.3719   21.6213 H   0  0  0  0  0  0
  -27.9913  -18.1240   19.9156 H   0  0  0  0  0  0
  -30.1286  -18.6308   18.7944 H   0  0  0  0  0  0
  -31.4812  -19.2534   19.6914 H   0  0  0  0  0  0
  -28.1208  -15.9363   20.9375 H   0  0  0  0  0  0
  -29.1686  -16.4683   22.2145 H   0  0  0  0  0  0
  -31.8793  -17.1977   20.8495 H   0  0  0  0  0  0
  -31.6807  -16.8297   19.1606 H   0  0  0  0  0  0
  -30.8930  -21.0007   23.2506 H   0  0  0  0  0  0
  -30.1990  -19.0426   21.7735 H   0  0  0  0  0  0
  -28.6322  -23.7367   17.6160 H   0  0  0  0  0  0
  -26.9800  -23.2977   18.0673 H   0  0  0  0  0  0
  -28.0433  -22.0987   17.3515 H   0  0  0  0  0  0
  -27.3124  -24.9769   21.4916 H   0  0  0  0  0  0
  -26.8656  -24.6281   19.8894 H   0  0  0  0  0  0
  1 25  1  0  0  0
  1 30  2  0  0  0
  1 87  1  0  0  0
  2  3  1  0  0  0
  2 25  1  0  0  0
  2 88  1  0  0  0
  2 89  1  0  0  0
  3  4  1  0  0  0
  3 90  1  0  0  0
  3 91  1  0  0  0
  4  5  1  0  0  0
  4 92  1  0  0  0
  4 93  1  0  0  0
  5  6  1  0  0  0
  5 26  1  0  0  0
  5 94  1  0  0  0
  6 25  1  0  0  0
  6 95  1  0  0  0
  6 96  1  0  0  0
  7  8  2  0  0  0
  7 26  1  0  0  0
  7 29  1  0  0  0
  8  9  1  0  0  0
  8 22  1  0  0  0
  9 10  1  0  0  0
  9 27  2  0  0  0
 10 11  2  0  0  0
 10 15  1  0  0  0
 11 12  1  0  0  0
 11 97  1  0  0  0
 12 13  2  0  0  0
 12 98  1  0  0  0
 13 14  1  0  0  0
 13 31  1  0  0  0
 14 15  2  0  0  0
 14 99  1  0  0  0
 15100  1  0  0  0
 16 17  2  0  0  0
 16 21  1  0  0  0
 16 31  1  0  0  0
 17 18  1  0  0  0
 17101  1  0  0  0
 18 19  2  0  0  0
 18102  1  0  0  0
 19 20  1  0  0  0
 19 24  1  0  0  0
 20 21  2  0  0  0
 20103  1  0  0  0
 21 23  1  0  0  0
 22 28  1  0  0  0
 22 32  2  0  0  0
 26 27  1  0  0  0
 28104  1  0  0  0
 28105  1  0  0  0
 29106  1  0  0  0
 29107  1  0  0  0
 33 34  1  0  0  0
 33 66  1  0  0  0
 33 70  2  0  0  0
 34 36  1  0  0  0
 34 59  1  0  0  0
 34108  1  0  0  0
 35 44  2  0  0  0
 35 45  1  0  0  0
 35 68  1  0  0  0
 36 56  1  0  0  0
 36109  1  0  0  0
 37 39  1  0  0  0
 37 47  1  0  0  0
 37 66  1  0  0  0
 37110  1  0  0  0
 38 43  2  0  0  0
 38 46  1  0  0  0
 38 47  1  0  0  0
 39 64  1  0  0  0
 39 67  2  0  0  0
 40 52  1  0  0  0
 40 53  2  0  0  0
 40 58  1  0  0  0
 41111  1  0  0  0
 41112  1  0  0  0
 41113  1  0  0  0
 41 48  1  0  0  0
 42 43  1  0  0  0
 42 66  1  0  0  0
 42114  1  0  0  0
 42115  1  0  0  0
 43 44  1  0  0  0
 44116  1  0  0  0
 45 46  2  0  0  0
 45117  1  0  0  0
 46118  1  0  0  0
 47119  1  0  0  0
 47120  1  0  0  0
 48 56  1  0  0  0
 48 65  1  0  0  0
 48121  1  0  0  0
 49 50  1  0  0  0
 49 53  1  0  0  0
 49 64  1  0  0  0
 49122  1  0  0  0
 50 51  1  0  0  0
 50123  1  0  0  0
 50124  1  0  0  0
 51 52  1  0  0  0
 51125  1  0  0  0
 51126  1  0  0  0
 52127  1  0  0  0
 52128  1  0  0  0
 53 54  1  0  0  0
 54 55  2  0  0  0
 54129  1  0  0  0
 55 57  1  0  0  0
 55130  1  0  0  0
 56 69  2  0  0  0
 57 58  2  0  0  0
 57131  1  0  0  0
 58132  1  0  0  0
 59 60  1  0  0  0
 59 61  1  0  0  0
 59 62  1  0  0  0
 60133  1  0  0  0
 60134  1  0  0  0
 60135  1  0  0  0
 61136  1  0  0  0
 61137  1  0  0  0
 61138  1  0  0  0
 62139  1  0  0  0
 62140  1  0  0  0
 62141  1  0  0  0
 63 65  1  0  0  0
 63142  1  0  0  0
 63143  1  0  0  0
 63144  1  0  0  0
 64145  1  0  0  0
 65146  1  0  0  0
 68 85  1  0  0  0
 71 72  2  0  0  0
 71 73  1  0  0  0
 71147  1  0  0  0
 72 74  1  0  0  0
 72 82  1  0  0  0
 73 75  2  0  0  0
 73 85  1  0  0  0
 74 86  2  0  0  0
 74 83  1  0  0  0
 75 84  1  0  0  0
 75 86  1  0  0  0
 76 77  1  0  0  0
 76 82  1  0  0  0
 76148  1  0  0  0
 76149  1  0  0  0
 77 82  1  0  0  0
 77150  1  0  0  0
 77151  1  0  0  0
 78 80  1  0  0  0
 78 83  1  0  0  0
 78152  1  0  0  0
 78153  1  0  0  0
 79 81  1  0  0  0
 79 83  1  0  0  0
 79154  1  0  0  0
 79155  1  0  0  0
 80 87  1  0  0  0
 80156  1  0  0  0
 80157  1  0  0  0
 81 87  1  0  0  0
 81158  1  0  0  0
 81159  1  0  0  0
 82160  1  0  0  0
 83161  1  0  0  0
 84162  1  0  0  0
 84163  1  0  0  0
 84164  1  0  0  0
 85165  1  0  0  0
 85166  1  0  0  0
M  ISO  4   1 100  68 101  85 101  87 100
M  END
> <chiral flag>
0

> <version>
0

> <s_m_source_file>
/data/baiqing/PycharmProjects/Reinvent-master-3.2/result/LINK_invent/BTK/process_docking_weight1_custom_sum_contain_oxygen_bond_distance_aromatic_linkinvent_7_9_3/rearranged_h_0177.sdf

> <i_m_source_file_index>
31

> <r_mmod_Potential_Energy-OPLS-2005>
353.900543212891

> <r_mmod_Stretch_Energy-OPLS-2005>
121.790252685547

> <r_mmod_Bend_Energy-OPLS-2005>
218.202514648438

> <r_mmod_Torsional_Energy-OPLS-2005>
353.351623535156

> <r_mmod_Improper_Torsional_Energy-OPLS-2005>
16.3644924163818

> <r_mmod_Van_der_Waal_Energy-OPLS-2005>
158.446060180664

> <r_mmod_Electrostatic_Energy-OPLS-2005>
-405.598236083984

> <r_mmod_Solvation_Energy-OPLS-2005>
-210.145538330078

> <b_mmod_Minimization_Converged-OPLS-2005>
0

> <r_mmod_RMS_Derivative-OPLS-2005>
2.15458130836487

$$$$
31
                    3D
 Structure written by MMmdl.
167176  0  0  1  0            999 V2000
  -30.7052  -14.5652   20.5229 C   0  0  0  0  0  0
  -30.4137  -12.3566   19.4373 C   0  0  0  0  0  0
  -29.4900  -12.4982   18.2109 C   0  0  0  0  0  0
  -28.0130  -12.3319   18.6217 C   0  0  0  0  0  0
  -27.6365  -13.1959   19.8527 C   0  0  2  0  0  0
  -28.6898  -13.0848   20.9809 C   0  0  0  0  0  0
  -25.2484  -13.8091   20.5679 C   0  0  0  0  0  0
  -24.1763  -13.0384   20.9227 C   0  0  0  0  0  0
  -24.6321  -11.6852   20.8773 C   0  0  0  0  0  0
  -23.9001  -10.4255   21.0426 C   0  0  0  0  0  0
  -24.3571   -9.4176   21.9195 C   0  0  0  0  0  0
  -23.6260   -8.2207   22.0753 C   0  0  0  0  0  0
  -22.4248   -8.0247   21.3539 C   0  0  0  0  0  0
  -21.9878   -9.0210   20.4633 C   0  0  0  0  0  0
  -22.7192  -10.2095   20.3051 C   0  0  0  0  0  0
  -21.6832   -6.0714   22.5281 C   0  0  0  0  0  0
  -21.3994   -6.5627   23.8214 C   0  0  0  0  0  0
  -21.3661   -5.6784   24.9183 C   0  0  0  0  0  0
  -21.6050   -4.3044   24.7233 C   0  0  0  0  0  0
  -21.8814   -3.8131   23.4352 C   0  0  0  0  0  0
  -21.9183   -4.6945   22.3406 C   0  0  0  0  0  0
  -22.7794  -13.5198   21.1896 C   0  0  0  0  0  0
  -22.1652   -4.2131   21.0980 F   0  0  0  0  0  0
  -21.5645   -3.4528   25.7749 F   0  0  0  0  0  0
  -30.0098  -13.3911   20.4064 N   0  0  0  0  0  0
  -26.2885  -12.9222   20.3305 N   0  0  0  0  0  0
  -25.9238  -11.6409   20.5783 N   0  0  0  0  0  0
  -22.0423  -12.8182   22.0430 N   0  0  0  0  0  0
  -25.4147  -15.1809   20.4028 N   0  0  0  0  0  0
  -31.8808  -14.6579   20.1595 O   0  0  0  0  0  0
  -21.6612   -6.8848   21.4239 O   0  0  0  0  0  0
  -22.3497  -14.5518   20.6757 O   0  0  0  0  0  0
  -24.6185  -31.8663   23.2073 C   0  0  0  0  0  0
  -25.9047  -32.4820   23.8392 C   0  0  1  0  0  0
  -27.2323  -27.3801   20.1116 C   0  0  0  0  0  0
  -25.5879  -33.8619   24.2306 N   0  0  0  0  0  0
  -23.4101  -30.4896   21.5493 C   0  0  2  0  0  0
  -24.8565  -28.9541   20.1112 C   0  0  0  0  0  0
  -22.7445  -29.4652   22.4976 C   0  0  0  0  0  0
  -18.0277  -28.1390   22.8509 C   0  0  0  0  0  0
  -24.1477  -36.7306   23.2645 C   0  0  0  0  0  0
  -25.9445  -30.8140   21.3715 C   0  0  0  0  0  0
  -26.0191  -29.4456   20.7171 C   0  0  0  0  0  0
  -27.2051  -28.6671   20.7152 C   0  0  0  0  0  0
  -26.0521  -26.9355   19.4677 C   0  0  0  0  0  0
  -24.8717  -27.7008   19.4810 C   0  0  0  0  0  0
  -23.6199  -29.8246   20.1626 C   0  0  0  0  0  0
  -25.4101  -36.3117   24.0346 C   0  0  1  0  0  0
  -20.5879  -28.3670   23.1318 C   0  0  2  0  0  0
  -20.6766  -26.9403   22.5422 C   0  0  0  0  0  0
  -19.5733  -26.6395   21.5229 C   0  0  0  0  0  0
  -18.1914  -26.7944   22.1640 C   0  0  0  0  0  0
  -19.1534  -28.8851   23.2909 C   0  0  0  0  0  0
  -18.9465  -30.1458   23.8903 C   0  0  0  0  0  0
  -17.6460  -30.6595   24.0576 C   0  0  0  0  0  0
  -25.9036  -34.9485   23.5133 C   0  0  0  0  0  0
  -16.5353  -29.9103   23.6333 C   0  0  0  0  0  0
  -16.7266  -28.6525   23.0343 C   0  0  0  0  0  0
  -26.4440  -31.6620   25.0749 C   0  0  0  0  0  0
  -25.3673  -31.3762   26.1479 C   0  0  0  0  0  0
  -27.0284  -30.3062   24.6157 C   0  0  0  0  0  0
  -27.6019  -32.4347   25.7496 C   0  0  0  0  0  0
  -27.5575  -37.1808   24.8461 C   0  0  0  0  0  0
  -21.4171  -29.3036   22.3722 N   0  0  0  0  0  0
  -26.4289  -37.3800   23.9415 N   0  0  0  0  0  0
  -24.6759  -31.0723   22.1000 N   0  0  0  0  0  0
  -23.4200  -28.8197   23.3040 O   0  0  0  0  0  0
  -28.3947  -26.6121   20.1687 O   0  0  0  0  0  0
  -26.5614  -34.8945   22.4703 O   0  0  0  0  0  0
  -23.5355  -32.1449   23.7426 O   0  0  0  0  0  0
  -29.5709  -23.0918   20.9495 C   0  0  0  0  0  0
  -28.9766  -24.3185   21.0305 C   0  0  0  0  0  0
  -29.9895  -22.3296   22.1999 C   0  0  0  0  0  0
  -30.7803  -18.0508   21.6831 C   0  0  0  0  0  0
  -29.1409  -17.8389   19.8826 C   0  0  0  0  0  0
  -30.6282  -16.5380   22.0353 C   0  0  0  0  0  0
  -28.9824  -16.3202   20.1615 C   0  0  0  0  0  0
  -29.3487  -20.9127   22.2744 C   0  0  0  0  0  0
  -30.2379  -20.7858   19.9560 C   0  0  0  0  0  0
  -29.8311  -22.2785   19.6719 C   0  0  2  0  0  0
  -29.4549  -18.6418   21.1562 C   0  0  0  0  0  0
  -30.9123  -22.9381   18.7973 C   0  0  0  0  0  0
  -28.3396  -25.1751   19.9237 C   0  0  0  0  0  0
  -30.0460  -15.6779   20.9744 N   0  0  0  0  0  0
  -29.3814  -20.1448   20.9911 N   0  3  1  0  0  0
  -31.4590  -12.4471   19.1354 H   0  0  0  0  0  0
  -30.3169  -11.3635   19.8812 H   0  0  0  0  0  0
  -29.7531  -11.7597   17.4529 H   0  0  0  0  0  0
  -29.6362  -13.4775   17.7503 H   0  0  0  0  0  0
  -27.8421  -11.2770   18.8407 H   0  0  0  0  0  0
  -27.3612  -12.5743   17.7807 H   0  0  0  0  0  0
  -27.6175  -14.2111   19.4808 H   0  0  0  0  0  0
  -28.6916  -12.0779   21.4018 H   0  0  0  0  0  0
  -28.4426  -13.7554   21.8053 H   0  0  0  0  0  0
  -25.2711   -9.5659   22.4776 H   0  0  0  0  0  0
  -23.9963   -7.4592   22.7468 H   0  0  0  0  0  0
  -21.0816   -8.8701   19.8934 H   0  0  0  0  0  0
  -22.3640  -10.9623   19.6150 H   0  0  0  0  0  0
  -21.1962   -7.6133   23.9716 H   0  0  0  0  0  0
  -21.1501   -6.0514   25.9091 H   0  0  0  0  0  0
  -22.0590   -2.7592   23.2854 H   0  0  0  0  0  0
  -22.4007  -11.9813   22.4783 H   0  0  0  0  0  0
  -21.1041  -13.1207   22.2646 H   0  0  0  0  0  0
  -24.6397  -15.8278   20.5004 H   0  0  0  0  0  0
  -26.2521  -15.6162   20.0403 H   0  0  0  0  0  0
  -26.7125  -32.5499   23.1159 H   0  0  0  0  0  0
  -24.9997  -33.9780   25.0426 H   0  0  0  0  0  0
  -22.7021  -31.3084   21.4086 H   0  0  0  0  0  0
  -23.3766  -35.9610   23.3310 H   0  0  0  0  0  0
  -24.3579  -36.8914   22.2058 H   0  0  0  0  0  0
  -23.7192  -37.6501   23.6655 H   0  0  0  0  0  0
  -26.0664  -31.5802   20.6047 H   0  0  0  0  0  0
  -26.8290  -30.8635   21.9953 H   0  0  0  0  0  0
  -28.0971  -29.0420   21.1992 H   0  0  0  0  0  0
  -26.0038  -25.9996   18.9337 H   0  0  0  0  0  0
  -23.9848  -27.3226   18.9920 H   0  0  0  0  0  0
  -23.7277  -30.6021   19.4049 H   0  0  0  0  0  0
  -22.7429  -29.2455   19.8677 H   0  0  0  0  0  0
  -25.1283  -36.1980   25.0840 H   0  0  0  0  0  0
  -20.9969  -28.3216   24.1439 H   0  0  0  0  0  0
  -20.5675  -26.2278   23.3611 H   0  0  0  0  0  0
  -21.6625  -26.7440   22.1186 H   0  0  0  0  0  0
  -19.6896  -25.6317   21.1232 H   0  0  0  0  0  0
  -19.6676  -27.3235   20.6785 H   0  0  0  0  0  0
  -17.4192  -26.6722   21.4030 H   0  0  0  0  0  0
  -18.0286  -26.0085   22.9024 H   0  0  0  0  0  0
  -19.7939  -30.7282   24.2264 H   0  0  0  0  0  0
  -17.5020  -31.6274   24.5186 H   0  0  0  0  0  0
  -15.5353  -30.3002   23.7677 H   0  0  0  0  0  0
  -15.8668  -28.0860   22.7018 H   0  0  0  0  0  0
  -24.5806  -30.7168   25.7789 H   0  0  0  0  0  0
  -24.8909  -32.2944   26.4938 H   0  0  0  0  0  0
  -25.7981  -30.8889   27.0235 H   0  0  0  0  0  0
  -26.2863  -29.6839   24.1150 H   0  0  0  0  0  0
  -27.3987  -29.7279   25.4630 H   0  0  0  0  0  0
  -27.8722  -30.4400   23.9385 H   0  0  0  0  0  0
  -27.2654  -33.3665   26.2057 H   0  0  0  0  0  0
  -28.3829  -32.6878   25.0313 H   0  0  0  0  0  0
  -28.0691  -31.8479   26.5414 H   0  0  0  0  0  0
  -28.2593  -38.0104   24.7521 H   0  0  0  0  0  0
  -28.1073  -36.2643   24.6279 H   0  0  0  0  0  0
  -27.2307  -37.1431   25.8866 H   0  0  0  0  0  0
  -20.9338  -29.8769   21.6944 H   0  0  0  0  0  0
  -26.0188  -38.2886   24.1410 H   0  0  0  0  0  0
  -28.8302  -24.7359   22.0172 H   0  0  0  0  0  0
  -29.7444  -22.8944   23.1002 H   0  0  0  0  0  0
  -31.0766  -22.2389   22.1963 H   0  0  0  0  0  0
  -31.5662  -18.1730   20.9357 H   0  0  0  0  0  0
  -31.1246  -18.5858   22.5669 H   0  0  0  0  0  0
  -28.2329  -18.2167   19.4106 H   0  0  0  0  0  0
  -29.9393  -17.9713   19.1512 H   0  0  0  0  0  0
  -29.9730  -16.4471   22.9031 H   0  0  0  0  0  0
  -31.5927  -16.1450   22.3628 H   0  0  0  0  0  0
  -28.9147  -15.8388   19.1850 H   0  0  0  0  0  0
  -28.0360  -16.1569   20.6760 H   0  0  0  0  0  0
  -28.3022  -21.0028   22.5687 H   0  0  0  0  0  0
  -29.8332  -20.3541   23.0738 H   0  0  0  0  0  0
  -31.2764  -20.7232   20.2843 H   0  0  0  0  0  0
  -30.1862  -20.2263   19.0229 H   0  0  0  0  0  0
  -28.8941  -22.2733   19.1126 H   0  0  0  0  0  0
  -28.6754  -18.4014   21.8823 H   0  0  0  0  0  0
  -31.8752  -22.9554   19.3084 H   0  0  0  0  0  0
  -30.6687  -23.9649   18.5302 H   0  0  0  0  0  0
  -31.0448  -22.3882   17.8640 H   0  0  0  0  0  0
  -27.3272  -24.7832   19.8912 H   0  0  0  0  0  0
  -28.7823  -24.9657   18.9530 H   0  0  0  0  0  0
  -28.4509  -20.2863   20.6258 H   0  0  0  0  0  0
  1 25  1  0  0  0
  1 30  2  0  0  0
  1 84  1  0  0  0
  2  3  1  0  0  0
  2 25  1  0  0  0
  2 86  1  0  0  0
  2 87  1  0  0  0
  3  4  1  0  0  0
  3 88  1  0  0  0
  3 89  1  0  0  0
  4  5  1  0  0  0
  4 90  1  0  0  0
  4 91  1  0  0  0
  5  6  1  0  0  0
  5 26  1  0  0  0
  5 92  1  0  0  0
  6 25  1  0  0  0
  6 93  1  0  0  0
  6 94  1  0  0  0
  7  8  2  0  0  0
  7 26  1  0  0  0
  7 29  1  0  0  0
  8  9  1  0  0  0
  8 22  1  0  0  0
  9 10  1  0  0  0
  9 27  2  0  0  0
 10 11  2  0  0  0
 10 15  1  0  0  0
 11 12  1  0  0  0
 11 95  1  0  0  0
 12 13  2  0  0  0
 12 96  1  0  0  0
 13 14  1  0  0  0
 13 31  1  0  0  0
 14 15  2  0  0  0
 14 97  1  0  0  0
 15 98  1  0  0  0
 16 17  2  0  0  0
 16 21  1  0  0  0
 16 31  1  0  0  0
 17 18  1  0  0  0
 17 99  1  0  0  0
 18 19  2  0  0  0
 18100  1  0  0  0
 19 20  1  0  0  0
 19 24  1  0  0  0
 20 21  2  0  0  0
 20101  1  0  0  0
 21 23  1  0  0  0
 22 28  1  0  0  0
 22 32  2  0  0  0
 26 27  1  0  0  0
 28102  1  0  0  0
 28103  1  0  0  0
 29104  1  0  0  0
 29105  1  0  0  0
 33 34  1  0  0  0
 33 66  1  0  0  0
 33 70  2  0  0  0
 34 36  1  0  0  0
 34 59  1  0  0  0
 34106  1  0  0  0
 35 44  2  0  0  0
 35 45  1  0  0  0
 35 68  1  0  0  0
 36 56  1  0  0  0
 36107  1  0  0  0
 37 39  1  0  0  0
 37 47  1  0  0  0
 37 66  1  0  0  0
 37108  1  0  0  0
 38 43  2  0  0  0
 38 46  1  0  0  0
 38 47  1  0  0  0
 39 64  1  0  0  0
 39 67  2  0  0  0
 40 52  1  0  0  0
 40 53  2  0  0  0
 40 58  1  0  0  0
 41109  1  0  0  0
 41110  1  0  0  0
 41111  1  0  0  0
 41 48  1  0  0  0
 42 43  1  0  0  0
 42 66  1  0  0  0
 42112  1  0  0  0
 42113  1  0  0  0
 43 44  1  0  0  0
 44114  1  0  0  0
 45 46  2  0  0  0
 45115  1  0  0  0
 46116  1  0  0  0
 47117  1  0  0  0
 47118  1  0  0  0
 48 56  1  0  0  0
 48 65  1  0  0  0
 48119  1  0  0  0
 49 50  1  0  0  0
 49 53  1  0  0  0
 49 64  1  0  0  0
 49120  1  0  0  0
 50 51  1  0  0  0
 50121  1  0  0  0
 50122  1  0  0  0
 51 52  1  0  0  0
 51123  1  0  0  0
 51124  1  0  0  0
 52125  1  0  0  0
 52126  1  0  0  0
 53 54  1  0  0  0
 54 55  2  0  0  0
 54127  1  0  0  0
 55 57  1  0  0  0
 55128  1  0  0  0
 56 69  2  0  0  0
 57 58  2  0  0  0
 57129  1  0  0  0
 58130  1  0  0  0
 59 60  1  0  0  0
 59 61  1  0  0  0
 59 62  1  0  0  0
 60131  1  0  0  0
 60132  1  0  0  0
 60133  1  0  0  0
 61134  1  0  0  0
 61135  1  0  0  0
 61136  1  0  0  0
 62137  1  0  0  0
 62138  1  0  0  0
 62139  1  0  0  0
 63 65  1  0  0  0
 63140  1  0  0  0
 63141  1  0  0  0
 63142  1  0  0  0
 64143  1  0  0  0
 65144  1  0  0  0
 68 83  1  0  0  0
 71 72  2  0  0  0
 71 73  1  0  0  0
 71 80  1  0  0  0
 72 83  1  0  0  0
 72145  1  0  0  0
 73 78  1  0  0  0
 73146  1  0  0  0
 73147  1  0  0  0
 74 76  1  0  0  0
 74148  1  0  0  0
 74149  1  0  0  0
 74 81  1  0  0  0
 75 77  1  0  0  0
 75 81  1  0  0  0
 75150  1  0  0  0
 75151  1  0  0  0
 76 84  1  0  0  0
 76152  1  0  0  0
 76153  1  0  0  0
 77 84  1  0  0  0
 77154  1  0  0  0
 77155  1  0  0  0
 78156  1  0  0  0
 78157  1  0  0  0
 78 85  1  0  0  0
 79 80  1  0  0  0
 79 85  1  0  0  0
 79158  1  0  0  0
 79159  1  0  0  0
 80 82  1  0  0  0
 80160  1  0  0  0
 81 85  1  0  0  0
 81161  1  0  0  0
 82162  1  0  0  0
 82163  1  0  0  0
 82164  1  0  0  0
 83165  1  0  0  0
 83166  1  0  0  0
 85167  1  0  0  0
M  CHG  1  85   1
M  ISO  4   1 100  68 101  83 101  84 100
M  END
> <chiral flag>
0

> <version>
0

> <s_m_source_file>
/data/baiqing/PycharmProjects/Reinvent-master-3.2/result/LINK_invent/BTK/process_docking_weight1_custom_sum_contain_oxygen_bond_distance_aromatic_linkinvent_7_9_3/rearranged_h_0177.sdf

> <i_m_source_file_index>
32

> <r_mmod_Potential_Energy-OPLS-2005>
177.5751953125

> <r_mmod_Stretch_Energy-OPLS-2005>
55.5733985900879

> <r_mmod_Bend_Energy-OPLS-2005>
141.966979980469

> <r_mmod_Torsional_Energy-OPLS-2005>
357.205474853516

> <r_mmod_Improper_Torsional_Energy-OPLS-2005>
3.32878589630127

> <r_mmod_Van_der_Waal_Energy-OPLS-2005>
147.646606445312

> <r_mmod_Electrostatic_Energy-OPLS-2005>
-135.991989135742

> <r_mmod_Solvation_Energy-OPLS-2005>
-422.758636474609

> <b_mmod_Minimization_Converged-OPLS-2005>
0

> <r_mmod_RMS_Derivative-OPLS-2005>
1.97334134578705

$$$$
32
                    3D
 Structure written by MMmdl.
159168  0  0  1  0            999 V2000
  -30.5514  -15.0104   20.3678 C   0  0  0  0  0  0
  -30.4376  -12.6308   19.4834 C   0  0  0  0  0  0
  -29.5141  -12.5146   18.2504 C   0  0  0  0  0  0
  -28.0511  -12.2960   18.6824 C   0  0  0  0  0  0
  -27.6169  -13.2430   19.8315 C   0  0  2  0  0  0
  -28.6713  -13.3380   20.9531 C   0  0  0  0  0  0
  -25.2433  -13.8155   20.5791 C   0  0  0  0  0  0
  -24.1743  -13.0390   20.9262 C   0  0  0  0  0  0
  -24.6362  -11.6882   20.8775 C   0  0  0  0  0  0
  -23.9049  -10.4264   21.0416 C   0  0  0  0  0  0
  -24.3606   -9.4183   21.9188 C   0  0  0  0  0  0
  -23.6284   -8.2220   22.0756 C   0  0  0  0  0  0
  -22.4269   -8.0262   21.3545 C   0  0  0  0  0  0
  -21.9901   -9.0233   20.4645 C   0  0  0  0  0  0
  -22.7225  -10.2111   20.3056 C   0  0  0  0  0  0
  -21.6848   -6.0725   22.5279 C   0  0  0  0  0  0
  -21.4004   -6.5633   23.8210 C   0  0  0  0  0  0
  -21.3664   -5.6789   24.9179 C   0  0  0  0  0  0
  -21.6045   -4.3052   24.7227 C   0  0  0  0  0  0
  -21.8820   -3.8141   23.4349 C   0  0  0  0  0  0
  -21.9191   -4.6953   22.3406 C   0  0  0  0  0  0
  -22.7772  -13.5179   21.1903 C   0  0  0  0  0  0
  -22.1663   -4.2139   21.0981 F   0  0  0  0  0  0
  -21.5634   -3.4537   25.7743 F   0  0  0  0  0  0
  -29.9298  -13.7567   20.3194 N   0  0  0  0  0  0
  -26.2842  -12.9380   20.3310 N   0  0  0  0  0  0
  -25.9296  -11.6514   20.5783 N   0  0  0  0  0  0
  -22.0414  -12.8180   22.0461 N   0  0  0  0  0  0
  -25.4112  -15.1876   20.4296 N   0  0  0  0  0  0
  -31.7833  -15.0072   20.2616 O   0  0  0  0  0  0
  -21.6634   -6.8862   21.4239 O   0  0  0  0  0  0
  -22.3474  -14.5489   20.6741 O   0  0  0  0  0  0
  -24.6456  -31.8410   23.1853 C   0  0  0  0  0  0
  -25.9214  -32.4683   23.8249 C   0  0  1  0  0  0
  -27.2236  -27.1134   20.1550 C   0  0  0  0  0  0
  -25.5967  -33.8492   24.2168 N   0  0  0  0  0  0
  -23.4511  -30.4592   21.5298 C   0  0  2  0  0  0
  -24.9025  -28.8794   20.1088 C   0  0  0  0  0  0
  -22.7578  -29.4532   22.4833 C   0  0  0  0  0  0
  -18.0308  -28.1395   22.8474 C   0  0  0  0  0  0
  -24.1494  -36.7238   23.2640 C   0  0  0  0  0  0
  -26.0077  -30.7087   21.3852 C   0  0  0  0  0  0
  -26.0803  -29.3170   20.7279 C   0  0  0  0  0  0
  -27.2397  -28.4507   20.7317 C   0  0  0  0  0  0
  -26.0185  -26.7816   19.4970 C   0  0  0  0  0  0
  -24.8857  -27.6261   19.4772 C   0  0  0  0  0  0
  -23.6803  -29.7853   20.1501 C   0  0  0  0  0  0
  -25.4130  -36.3024   24.0313 C   0  0  1  0  0  0
  -20.5922  -28.3727   23.1221 C   0  0  2  0  0  0
  -20.6797  -26.9428   22.5401 C   0  0  0  0  0  0
  -19.5773  -26.6382   21.5207 C   0  0  0  0  0  0
  -18.1950  -26.7935   22.1614 C   0  0  0  0  0  0
  -19.1565  -28.8877   23.2842 C   0  0  0  0  0  0
  -18.9484  -30.1470   23.8871 C   0  0  0  0  0  0
  -17.6483  -30.6595   24.0556 C   0  0  0  0  0  0
  -25.9086  -34.9404   23.5050 C   0  0  0  0  0  0
  -16.5370  -29.9095   23.6330 C   0  0  0  0  0  0
  -16.7292  -28.6507   23.0359 C   0  0  0  0  0  0
  -26.4540  -31.6555   25.0689 C   0  0  0  0  0  0
  -25.3727  -31.3745   26.1380 C   0  0  0  0  0  0
  -27.0392  -30.2946   24.6267 C   0  0  0  0  0  0
  -27.6062  -32.4325   25.7480 C   0  0  0  0  0  0
  -27.5573  -37.1781   24.8466 C   0  0  0  0  0  0
  -21.4264  -29.3047   22.3585 N   0  0  0  0  0  0
  -26.4280  -37.3750   23.9415 N   0  0  0  0  0  0
  -24.7211  -31.0246   22.0892 N   0  0  0  0  0  0
  -23.4206  -28.8082   23.2998 O   0  0  0  0  0  0
  -28.2753  -26.1204   20.2344 O   0  0  0  0  0  0
  -26.5656  -34.8910   22.4621 O   0  0  0  0  0  0
  -23.5571  -32.1283   23.7064 O   0  0  0  0  0  0
  -29.6334  -20.5045   20.6744 C   0  0  0  0  0  0
  -27.8221  -21.2224   19.2884 C   0  0  0  0  0  0
  -29.4002  -19.0775   20.3225 C   0  0  0  0  0  0
  -28.8414  -21.6534   20.1616 C   0  0  0  0  0  0
  -28.3366  -18.9029   19.4309 C   0  0  0  0  0  0
  -27.9917  -17.4872   18.9736 C   0  0  0  0  0  0
  -29.2019  -16.5064   18.9507 C   0  0  0  0  0  0
  -30.1847  -17.7022   20.8088 C   0  0  1  0  0  0
  -28.8396  -17.4094   22.9756 C   0  0  0  0  0  0
  -29.0557  -23.2826   20.4528 C   0  0  0  0  0  0
  -30.2210  -17.6564   22.3480 C   0  0  0  0  0  0
  -28.0319  -24.5801   20.0407 C   0  0  0  0  0  0
  -27.5844  -19.9254   18.9432 N   0  0  0  0  0  0
  -29.8175  -16.2543   20.2717 N   0  0  0  0  0  0
  -31.4659  -12.7969   19.1578 H   0  0  0  0  0  0
  -30.4526  -11.7001   20.0517 H   0  0  0  0  0  0
  -29.8415  -11.6945   17.6095 H   0  0  0  0  0  0
  -29.5893  -13.4202   17.6471 H   0  0  0  0  0  0
  -27.9630  -11.2603   19.0124 H   0  0  0  0  0  0
  -27.3815  -12.4003   17.8282 H   0  0  0  0  0  0
  -27.5367  -14.2256   19.3769 H   0  0  0  0  0  0
  -28.7841  -12.3870   21.4757 H   0  0  0  0  0  0
  -28.3663  -14.0723   21.7001 H   0  0  0  0  0  0
  -25.2745   -9.5667   22.4774 H   0  0  0  0  0  0
  -23.9998   -7.4611   22.7472 H   0  0  0  0  0  0
  -21.0837   -8.8736   19.8952 H   0  0  0  0  0  0
  -22.3674  -10.9650   19.6170 H   0  0  0  0  0  0
  -21.1984   -7.6139   23.9709 H   0  0  0  0  0  0
  -21.1493   -6.0521   25.9081 H   0  0  0  0  0  0
  -22.0594   -2.7602   23.2847 H   0  0  0  0  0  0
  -22.4029  -11.9828   22.4830 H   0  0  0  0  0  0
  -21.1025  -13.1201   22.2655 H   0  0  0  0  0  0
  -24.6503  -15.8451   20.5595 H   0  0  0  0  0  0
  -26.2808  -15.6279   20.1661 H   0  0  0  0  0  0
  -26.7270  -32.5283   23.0970 H   0  0  0  0  0  0
  -25.0157  -33.9613   25.0345 H   0  0  0  0  0  0
  -22.7547  -31.2858   21.3723 H   0  0  0  0  0  0
  -23.3775  -35.9549   23.3286 H   0  0  0  0  0  0
  -24.3584  -36.8885   22.2057 H   0  0  0  0  0  0
  -23.7227  -37.6422   23.6686 H   0  0  0  0  0  0
  -26.1639  -31.4620   20.6117 H   0  0  0  0  0  0
  -26.8772  -30.7618   22.0286 H   0  0  0  0  0  0
  -28.1360  -28.7822   21.2368 H   0  0  0  0  0  0
  -25.9200  -25.8215   19.0131 H   0  0  0  0  0  0
  -23.9874  -27.2848   18.9813 H   0  0  0  0  0  0
  -23.8218  -30.5590   19.3944 H   0  0  0  0  0  0
  -22.7948  -29.2301   19.8366 H   0  0  0  0  0  0
  -25.1328  -36.1845   25.0804 H   0  0  0  0  0  0
  -21.0016  -28.3322   24.1342 H   0  0  0  0  0  0
  -20.5690  -26.2345   23.3628 H   0  0  0  0  0  0
  -21.6667  -26.7441   22.1200 H   0  0  0  0  0  0
  -19.6949  -25.6287   21.1253 H   0  0  0  0  0  0
  -19.6716  -27.3174   20.6722 H   0  0  0  0  0  0
  -17.4231  -26.6671   21.4008 H   0  0  0  0  0  0
  -18.0352  -26.0074   22.9007 H   0  0  0  0  0  0
  -19.7971  -30.7281   24.2229 H   0  0  0  0  0  0
  -17.5048  -31.6271   24.5175 H   0  0  0  0  0  0
  -15.5369  -30.2997   23.7669 H   0  0  0  0  0  0
  -15.8692  -28.0819   22.7096 H   0  0  0  0  0  0
  -24.5930  -30.7068   25.7702 H   0  0  0  0  0  0
  -24.8892  -32.2923   26.4729 H   0  0  0  0  0  0
  -25.8014  -30.8976   27.0202 H   0  0  0  0  0  0
  -26.2992  -29.6671   24.1280 H   0  0  0  0  0  0
  -27.4009  -29.7250   25.4837 H   0  0  0  0  0  0
  -27.8914  -30.4174   23.9578 H   0  0  0  0  0  0
  -27.2653  -33.3662   26.1965 H   0  0  0  0  0  0
  -28.3921  -32.6816   25.0338 H   0  0  0  0  0  0
  -28.0669  -31.8503   26.5469 H   0  0  0  0  0  0
  -28.2581  -38.0086   24.7524 H   0  0  0  0  0  0
  -28.1078  -36.2618   24.6286 H   0  0  0  0  0  0
  -27.2291  -37.1416   25.8867 H   0  0  0  0  0  0
  -20.9472  -29.8760   21.6763 H   0  0  0  0  0  0
  -26.0142  -38.2812   24.1438 H   0  0  0  0  0  0
  -30.4469  -20.7238   21.3510 H   0  0  0  0  0  0
  -27.1680  -21.9484   18.8287 H   0  0  0  0  0  0
  -27.5531  -17.5375   17.9761 H   0  0  0  0  0  0
  -27.2159  -17.1032   19.6332 H   0  0  0  0  0  0
  -29.9707  -16.9149   18.2922 H   0  0  0  0  0  0
  -28.8963  -15.5799   18.4715 H   0  0  0  0  0  0
  -31.2150  -17.8569   20.4827 H   0  0  0  0  0  0
  -28.9098  -17.3676   24.0627 H   0  0  0  0  0  0
  -28.4033  -16.4691   22.6386 H   0  0  0  0  0  0
  -28.1392  -18.2053   22.7201 H   0  0  0  0  0  0
  -30.0217  -23.5129   20.0025 H   0  0  0  0  0  0
  -29.2327  -23.3621   21.5258 H   0  0  0  0  0  0
  -30.6345  -18.5887   22.7354 H   0  0  0  0  0  0
  -30.9066  -16.8746   22.6787 H   0  0  0  0  0  0
  -27.0844  -24.3706   20.5373 H   0  0  0  0  0  0
  -27.8235  -24.4654   18.9767 H   0  0  0  0  0  0
  1 25  1  0  0  0
  1 30  2  0  0  0
  1 84  1  0  0  0
  2  3  1  0  0  0
  2 25  1  0  0  0
  2 85  1  0  0  0
  2 86  1  0  0  0
  3  4  1  0  0  0
  3 87  1  0  0  0
  3 88  1  0  0  0
  4  5  1  0  0  0
  4 89  1  0  0  0
  4 90  1  0  0  0
  5  6  1  0  0  0
  5 26  1  0  0  0
  5 91  1  0  0  0
  6 25  1  0  0  0
  6 92  1  0  0  0
  6 93  1  0  0  0
  7  8  2  0  0  0
  7 26  1  0  0  0
  7 29  1  0  0  0
  8  9  1  0  0  0
  8 22  1  0  0  0
  9 10  1  0  0  0
  9 27  2  0  0  0
 10 11  2  0  0  0
 10 15  1  0  0  0
 11 12  1  0  0  0
 11 94  1  0  0  0
 12 13  2  0  0  0
 12 95  1  0  0  0
 13 14  1  0  0  0
 13 31  1  0  0  0
 14 15  2  0  0  0
 14 96  1  0  0  0
 15 97  1  0  0  0
 16 17  2  0  0  0
 16 21  1  0  0  0
 16 31  1  0  0  0
 17 18  1  0  0  0
 17 98  1  0  0  0
 18 19  2  0  0  0
 18 99  1  0  0  0
 19 20  1  0  0  0
 19 24  1  0  0  0
 20 21  2  0  0  0
 20100  1  0  0  0
 21 23  1  0  0  0
 22 28  1  0  0  0
 22 32  2  0  0  0
 26 27  1  0  0  0
 28101  1  0  0  0
 28102  1  0  0  0
 29103  1  0  0  0
 29104  1  0  0  0
 33 34  1  0  0  0
 33 66  1  0  0  0
 33 70  2  0  0  0
 34 36  1  0  0  0
 34 59  1  0  0  0
 34105  1  0  0  0
 35 44  2  0  0  0
 35 45  1  0  0  0
 35 68  1  0  0  0
 36 56  1  0  0  0
 36106  1  0  0  0
 37 39  1  0  0  0
 37 47  1  0  0  0
 37 66  1  0  0  0
 37107  1  0  0  0
 38 43  2  0  0  0
 38 46  1  0  0  0
 38 47  1  0  0  0
 39 64  1  0  0  0
 39 67  2  0  0  0
 40 52  1  0  0  0
 40 53  2  0  0  0
 40 58  1  0  0  0
 41108  1  0  0  0
 41109  1  0  0  0
 41110  1  0  0  0
 41 48  1  0  0  0
 42 43  1  0  0  0
 42 66  1  0  0  0
 42111  1  0  0  0
 42112  1  0  0  0
 43 44  1  0  0  0
 44113  1  0  0  0
 45 46  2  0  0  0
 45114  1  0  0  0
 46115  1  0  0  0
 47116  1  0  0  0
 47117  1  0  0  0
 48 56  1  0  0  0
 48 65  1  0  0  0
 48118  1  0  0  0
 49 50  1  0  0  0
 49 53  1  0  0  0
 49 64  1  0  0  0
 49119  1  0  0  0
 50 51  1  0  0  0
 50120  1  0  0  0
 50121  1  0  0  0
 51 52  1  0  0  0
 51122  1  0  0  0
 51123  1  0  0  0
 52124  1  0  0  0
 52125  1  0  0  0
 53 54  1  0  0  0
 54 55  2  0  0  0
 54126  1  0  0  0
 55 57  1  0  0  0
 55127  1  0  0  0
 56 69  2  0  0  0
 57 58  2  0  0  0
 57128  1  0  0  0
 58129  1  0  0  0
 59 60  1  0  0  0
 59 61  1  0  0  0
 59 62  1  0  0  0
 60130  1  0  0  0
 60131  1  0  0  0
 60132  1  0  0  0
 61133  1  0  0  0
 61134  1  0  0  0
 61135  1  0  0  0
 62136  1  0  0  0
 62137  1  0  0  0
 62138  1  0  0  0
 63 65  1  0  0  0
 63139  1  0  0  0
 63140  1  0  0  0
 63141  1  0  0  0
 64142  1  0  0  0
 65143  1  0  0  0
 68 82  1  0  0  0
 71 73  2  0  0  0
 71 74  1  0  0  0
 71144  1  0  0  0
 72 74  2  0  0  0
 72 83  1  0  0  0
 72145  1  0  0  0
 73 75  1  0  0  0
 73 78  1  0  0  0
 74 80  1  0  0  0
 75 76  1  0  0  0
 75 83  2  0  0  0
 76 77  1  0  0  0
 76146  1  0  0  0
 76147  1  0  0  0
 77 84  1  0  0  0
 77148  1  0  0  0
 77149  1  0  0  0
 78 81  1  0  0  0
 78 84  1  0  0  0
 78150  1  0  0  0
 79 81  1  0  0  0
 79151  1  0  0  0
 79152  1  0  0  0
 79153  1  0  0  0
 80 82  1  0  0  0
 80154  1  0  0  0
 80155  1  0  0  0
 81156  1  0  0  0
 81157  1  0  0  0
 82158  1  0  0  0
 82159  1  0  0  0
M  ISO  4   1 100  68 101  82 101  84 100
M  END
> <chiral flag>
0

> <version>
0

> <s_m_source_file>
/data/baiqing/PycharmProjects/Reinvent-master-3.2/result/LINK_invent/BTK/process_docking_weight1_custom_sum_contain_oxygen_bond_distance_aromatic_linkinvent_7_9_3/rearranged_h_0177.sdf

> <i_m_source_file_index>
33

> <r_mmod_Potential_Energy-OPLS-2005>
577.683044433594

> <r_mmod_Stretch_Energy-OPLS-2005>
284.932739257812

> <r_mmod_Bend_Energy-OPLS-2005>
257.930236816406

> <r_mmod_Torsional_Energy-OPLS-2005>
302.593597412109

> <r_mmod_Improper_Torsional_Energy-OPLS-2005>
9.45229816436768

> <r_mmod_Van_der_Waal_Energy-OPLS-2005>
124.698875427246

> <r_mmod_Electrostatic_Energy-OPLS-2005>
-425.773101806641

> <r_mmod_Solvation_Energy-OPLS-2005>
-207.736831665039

> <b_mmod_Minimization_Converged-OPLS-2005>
0

> <r_mmod_RMS_Derivative-OPLS-2005>
1.41058158874512

$$$$
33
                    3D
 Structure written by MMmdl.
162171  0  0  1  0            999 V2000
  -30.6354  -14.6264   20.5584 C   0  0  0  0  0  0
  -30.4266  -12.4030   19.4482 C   0  0  0  0  0  0
  -29.4960  -12.5118   18.2223 C   0  0  0  0  0  0
  -28.0237  -12.3332   18.6346 C   0  0  0  0  0  0
  -27.6425  -13.2107   19.8558 C   0  0  2  0  0  0
  -28.6815  -13.0498   20.9816 C   0  0  0  0  0  0
  -25.2505  -13.8172   20.5639 C   0  0  0  0  0  0
  -24.1776  -13.0415   20.9199 C   0  0  0  0  0  0
  -24.6329  -11.6901   20.8735 C   0  0  0  0  0  0
  -23.8987  -10.4290   21.0399 C   0  0  0  0  0  0
  -24.3556   -9.4217   21.9194 C   0  0  0  0  0  0
  -23.6255   -8.2238   22.0753 C   0  0  0  0  0  0
  -22.4255   -8.0280   21.3520 C   0  0  0  0  0  0
  -21.9830   -9.0251   20.4638 C   0  0  0  0  0  0
  -22.7145  -10.2144   20.3041 C   0  0  0  0  0  0
  -21.6839   -6.0737   22.5306 C   0  0  0  0  0  0
  -21.4025   -6.5640   23.8240 C   0  0  0  0  0  0
  -21.3643   -5.6791   24.9179 C   0  0  0  0  0  0
  -21.6037   -4.3062   24.7229 C   0  0  0  0  0  0
  -21.8817   -3.8123   23.4358 C   0  0  0  0  0  0
  -21.9197   -4.6953   22.3405 C   0  0  0  0  0  0
  -22.7827  -13.5235   21.1870 C   0  0  0  0  0  0
  -22.1646   -4.2146   21.0973 F   0  0  0  0  0  0
  -21.5627   -3.4544   25.7729 F   0  0  0  0  0  0
  -29.9930  -13.4193   20.4286 N   0  0  0  0  0  0
  -26.2912  -12.9311   20.3266 N   0  0  0  0  0  0
  -25.9255  -11.6473   20.5735 N   0  0  0  0  0  0
  -22.0431  -12.8310   22.0481 N   0  0  0  0  0  0
  -25.4195  -15.1889   20.4044 N   0  0  0  0  0  0
  -31.7777  -14.7770   20.1138 O   0  0  0  0  0  0
  -21.6615   -6.8885   21.4265 O   0  0  0  0  0  0
  -22.3518  -14.5503   20.6697 O   0  0  0  0  0  0
  -24.6207  -31.8620   23.2040 C   0  0  0  0  0  0
  -25.9067  -32.4788   23.8367 C   0  0  1  0  0  0
  -27.2260  -27.3321   20.1053 C   0  0  0  0  0  0
  -25.5888  -33.8598   24.2279 N   0  0  0  0  0  0
  -23.4137  -30.4853   21.5458 C   0  0  2  0  0  0
  -24.8581  -28.9428   20.1146 C   0  0  0  0  0  0
  -22.7436  -29.4639   22.4942 C   0  0  0  0  0  0
  -18.0272  -28.1394   22.8479 C   0  0  0  0  0  0
  -24.1500  -36.7294   23.2641 C   0  0  0  0  0  0
  -25.9538  -30.7957   21.3749 C   0  0  0  0  0  0
  -26.0249  -29.4225   20.7205 C   0  0  0  0  0  0
  -27.2071  -28.6295   20.7085 C   0  0  0  0  0  0
  -26.0306  -26.9069   19.4805 C   0  0  0  0  0  0
  -24.8614  -27.6875   19.4891 C   0  0  0  0  0  0
  -23.6245  -29.8210   20.1608 C   0  0  0  0  0  0
  -25.4119  -36.3088   24.0329 C   0  0  1  0  0  0
  -20.5878  -28.3698   23.1276 C   0  0  2  0  0  0
  -20.6786  -26.9435   22.5402 C   0  0  0  0  0  0
  -19.5768  -26.6406   21.5194 C   0  0  0  0  0  0
  -18.1923  -26.7952   22.1585 C   0  0  0  0  0  0
  -19.1534  -28.8857   23.2877 C   0  0  0  0  0  0
  -18.9462  -30.1452   23.8931 C   0  0  0  0  0  0
  -17.6455  -30.6596   24.0571 C   0  0  0  0  0  0
  -25.9043  -34.9460   23.5101 C   0  0  0  0  0  0
  -16.5335  -29.9100   23.6339 C   0  0  0  0  0  0
  -16.7250  -28.6501   23.0379 C   0  0  0  0  0  0
  -26.4493  -31.6587   25.0704 C   0  0  0  0  0  0
  -25.3760  -31.3695   26.1448 C   0  0  0  0  0  0
  -27.0350  -30.3035   24.6129 C   0  0  0  0  0  0
  -27.6096  -32.4312   25.7402 C   0  0  0  0  0  0
  -27.5615  -37.1785   24.8443 C   0  0  0  0  0  0
  -21.4157  -29.3040   22.3675 N   0  0  0  0  0  0
  -26.4309  -37.3777   23.9413 N   0  0  0  0  0  0
  -24.6828  -31.0666   22.0978 N   0  0  0  0  0  0
  -23.4162  -28.8201   23.3034 O   0  0  0  0  0  0
  -28.3885  -26.5442   20.0926 O   0  0  0  0  0  0
  -26.5649  -34.8930   22.4694 O   0  0  0  0  0  0
  -23.5364  -32.1417   23.7341 O   0  0  0  0  0  0
  -29.2795  -24.4304   21.0328 C   0  0  0  0  0  0
  -27.8406  -23.0522   19.1905 C   0  0  0  0  0  0
  -29.3758  -23.0030   21.0199 C   0  0  0  0  0  0
  -28.6161  -22.2545   20.0736 C   0  0  0  0  0  0
  -28.4366  -25.1280   20.1326 C   0  0  0  0  0  0
  -30.3856  -17.0793   22.4466 C   0  0  0  0  0  0
  -29.4444  -15.8854   22.3557 C   0  0  0  0  0  0
  -30.2632  -17.1941   20.9233 C   0  0  2  0  0  0
  -30.2958  -22.3299   22.0199 C   0  0  0  0  0  0
  -28.7480  -17.7537   18.8989 C   0  0  0  0  0  0
  -28.4544  -20.6796   19.9812 C   0  0  0  0  0  0
  -29.1772  -18.1976   20.3172 C   0  0  2  0  0  0
  -27.7608  -24.4126   19.2019 N   0  0  0  0  0  0
  -29.8909  -15.7189   20.9624 N   0  0  0  0  0  0
  -29.5525  -19.6845   20.3545 N   0  3  0  0  0  0
  -31.4680  -12.5290   19.1440 H   0  0  0  0  0  0
  -30.3607  -11.4075   19.8862 H   0  0  0  0  0  0
  -29.7648  -11.7663   17.4755 H   0  0  0  0  0  0
  -29.6197  -13.4826   17.7424 H   0  0  0  0  0  0
  -27.8811  -11.2810   18.8815 H   0  0  0  0  0  0
  -27.3653  -12.5427   17.7897 H   0  0  0  0  0  0
  -27.6611  -14.2492   19.5217 H   0  0  0  0  0  0
  -28.7007  -12.0193   21.3365 H   0  0  0  0  0  0
  -28.3935  -13.6450   21.8452 H   0  0  0  0  0  0
  -25.2713   -9.5741   22.4756 H   0  0  0  0  0  0
  -23.9978   -7.4623   22.7471 H   0  0  0  0  0  0
  -21.0725   -8.8758   19.8971 H   0  0  0  0  0  0
  -22.3572  -10.9676   19.6155 H   0  0  0  0  0  0
  -21.2057   -7.6149   23.9765 H   0  0  0  0  0  0
  -21.1439   -6.0500   25.9098 H   0  0  0  0  0  0
  -22.0602   -2.7592   23.2842 H   0  0  0  0  0  0
  -22.3917  -11.9948   22.4923 H   0  0  0  0  0  0
  -21.1080  -13.1467   22.2633 H   0  0  0  0  0  0
  -24.6565  -15.8485   20.5210 H   0  0  0  0  0  0
  -26.2804  -15.6317   20.1110 H   0  0  0  0  0  0
  -26.7114  -32.5471   23.1104 H   0  0  0  0  0  0
  -25.0035  -33.9756   25.0417 H   0  0  0  0  0  0
  -22.7030  -31.3031   21.4081 H   0  0  0  0  0  0
  -23.3791  -35.9593   23.3212 H   0  0  0  0  0  0
  -24.3614  -36.8998   22.2079 H   0  0  0  0  0  0
  -23.7231  -37.6457   23.6719 H   0  0  0  0  0  0
  -26.0883  -31.5579   20.6077 H   0  0  0  0  0  0
  -26.8308  -30.8348   22.0071 H   0  0  0  0  0  0
  -28.1050  -29.0075   21.1770 H   0  0  0  0  0  0
  -25.9643  -25.9668   18.9617 H   0  0  0  0  0  0
  -23.9691  -27.3185   19.0015 H   0  0  0  0  0  0
  -23.7382  -30.5981   19.4031 H   0  0  0  0  0  0
  -22.7444  -29.2493   19.8631 H   0  0  0  0  0  0
  -25.1314  -36.1920   25.0825 H   0  0  0  0  0  0
  -20.9966  -28.3270   24.1396 H   0  0  0  0  0  0
  -20.5650  -26.2326   23.3590 H   0  0  0  0  0  0
  -21.6656  -26.7434   22.1226 H   0  0  0  0  0  0
  -19.6923  -25.6311   21.1250 H   0  0  0  0  0  0
  -19.6742  -27.3193   20.6699 H   0  0  0  0  0  0
  -17.4223  -26.6698   21.3952 H   0  0  0  0  0  0
  -18.0305  -26.0075   22.8963 H   0  0  0  0  0  0
  -19.7940  -30.7249   24.2312 H   0  0  0  0  0  0
  -17.5019  -31.6279   24.5171 H   0  0  0  0  0  0
  -15.5356  -30.3017   23.7642 H   0  0  0  0  0  0
  -15.8654  -28.0802   22.7133 H   0  0  0  0  0  0
  -24.5902  -30.7081   25.7765 H   0  0  0  0  0  0
  -24.9017  -32.2859   26.4973 H   0  0  0  0  0  0
  -25.8110  -30.8800   27.0159 H   0  0  0  0  0  0
  -26.2891  -29.6733   24.1285 H   0  0  0  0  0  0
  -27.4209  -29.7346   25.4588 H   0  0  0  0  0  0
  -27.8680  -30.4346   23.9221 H   0  0  0  0  0  0
  -27.2747  -33.3597   26.2018 H   0  0  0  0  0  0
  -28.3845  -32.6878   25.0167 H   0  0  0  0  0  0
  -28.0840  -31.8434   26.5264 H   0  0  0  0  0  0
  -28.2573  -38.0147   24.7618 H   0  0  0  0  0  0
  -28.1185  -36.2708   24.6100 H   0  0  0  0  0  0
  -27.2362  -37.1207   25.8846 H   0  0  0  0  0  0
  -20.9298  -29.8728   21.6889 H   0  0  0  0  0  0
  -26.0175  -38.2819   24.1515 H   0  0  0  0  0  0
  -29.8612  -25.0107   21.7349 H   0  0  0  0  0  0
  -27.2116  -22.5792   18.4508 H   0  0  0  0  0  0
  -31.3824  -16.7916   22.7949 H   0  0  0  0  0  0
  -29.9903  -17.9135   23.0247 H   0  0  0  0  0  0
  -28.3845  -16.1390   22.4496 H   0  0  0  0  0  0
  -29.7125  -15.0844   23.0485 H   0  0  0  0  0  0
  -31.2495  -17.3584   20.4921 H   0  0  0  0  0  0
  -30.8256  -23.0640   22.6265 H   0  0  0  0  0  0
  -31.0535  -21.7444   21.5022 H   0  0  0  0  0  0
  -29.7385  -21.6803   22.6928 H   0  0  0  0  0  0
  -28.3488  -16.7399   18.9128 H   0  0  0  0  0  0
  -29.5748  -17.7731   18.1888 H   0  0  0  0  0  0
  -27.9487  -18.3659   18.4867 H   0  0  0  0  0  0
  -28.2183  -20.4982   18.9274 H   0  0  0  0  0  0
  -27.5397  -20.4167   20.5279 H   0  0  0  0  0  0
  -28.2839  -18.1262   20.9449 H   0  0  0  0  0  0
  -29.8399  -19.8868   21.2998 H   0  0  0  0  0  0
  -30.3601  -19.8372   19.7652 H   0  0  0  0  0  0
  1 25  1  0  0  0
  1 30  2  0  0  0
  1 84  1  0  0  0
  2  3  1  0  0  0
  2 25  1  0  0  0
  2 86  1  0  0  0
  2 87  1  0  0  0
  3  4  1  0  0  0
  3 88  1  0  0  0
  3 89  1  0  0  0
  4  5  1  0  0  0
  4 90  1  0  0  0
  4 91  1  0  0  0
  5  6  1  0  0  0
  5 26  1  0  0  0
  5 92  1  0  0  0
  6 25  1  0  0  0
  6 93  1  0  0  0
  6 94  1  0  0  0
  7  8  2  0  0  0
  7 26  1  0  0  0
  7 29  1  0  0  0
  8  9  1  0  0  0
  8 22  1  0  0  0
  9 10  1  0  0  0
  9 27  2  0  0  0
 10 11  2  0  0  0
 10 15  1  0  0  0
 11 12  1  0  0  0
 11 95  1  0  0  0
 12 13  2  0  0  0
 12 96  1  0  0  0
 13 14  1  0  0  0
 13 31  1  0  0  0
 14 15  2  0  0  0
 14 97  1  0  0  0
 15 98  1  0  0  0
 16 17  2  0  0  0
 16 21  1  0  0  0
 16 31  1  0  0  0
 17 18  1  0  0  0
 17 99  1  0  0  0
 18 19  2  0  0  0
 18100  1  0  0  0
 19 20  1  0  0  0
 19 24  1  0  0  0
 20 21  2  0  0  0
 20101  1  0  0  0
 21 23  1  0  0  0
 22 28  1  0  0  0
 22 32  2  0  0  0
 26 27  1  0  0  0
 28102  1  0  0  0
 28103  1  0  0  0
 29104  1  0  0  0
 29105  1  0  0  0
 33 34  1  0  0  0
 33 66  1  0  0  0
 33 70  2  0  0  0
 34 36  1  0  0  0
 34 59  1  0  0  0
 34106  1  0  0  0
 35 44  2  0  0  0
 35 45  1  0  0  0
 35 68  1  0  0  0
 36 56  1  0  0  0
 36107  1  0  0  0
 37 39  1  0  0  0
 37 47  1  0  0  0
 37 66  1  0  0  0
 37108  1  0  0  0
 38 43  2  0  0  0
 38 46  1  0  0  0
 38 47  1  0  0  0
 39 64  1  0  0  0
 39 67  2  0  0  0
 40 52  1  0  0  0
 40 53  2  0  0  0
 40 58  1  0  0  0
 41109  1  0  0  0
 41110  1  0  0  0
 41111  1  0  0  0
 41 48  1  0  0  0
 42 43  1  0  0  0
 42 66  1  0  0  0
 42112  1  0  0  0
 42113  1  0  0  0
 43 44  1  0  0  0
 44114  1  0  0  0
 45 46  2  0  0  0
 45115  1  0  0  0
 46116  1  0  0  0
 47117  1  0  0  0
 47118  1  0  0  0
 48 56  1  0  0  0
 48 65  1  0  0  0
 48119  1  0  0  0
 49 50  1  0  0  0
 49 53  1  0  0  0
 49 64  1  0  0  0
 49120  1  0  0  0
 50 51  1  0  0  0
 50121  1  0  0  0
 50122  1  0  0  0
 51 52  1  0  0  0
 51123  1  0  0  0
 51124  1  0  0  0
 52125  1  0  0  0
 52126  1  0  0  0
 53 54  1  0  0  0
 54 55  2  0  0  0
 54127  1  0  0  0
 55 57  1  0  0  0
 55128  1  0  0  0
 56 69  2  0  0  0
 57 58  2  0  0  0
 57129  1  0  0  0
 58130  1  0  0  0
 59 60  1  0  0  0
 59 61  1  0  0  0
 59 62  1  0  0  0
 60131  1  0  0  0
 60132  1  0  0  0
 60133  1  0  0  0
 61134  1  0  0  0
 61135  1  0  0  0
 61136  1  0  0  0
 62137  1  0  0  0
 62138  1  0  0  0
 62139  1  0  0  0
 63 65  1  0  0  0
 63140  1  0  0  0
 63141  1  0  0  0
 63142  1  0  0  0
 64143  1  0  0  0
 65144  1  0  0  0
 68 75  1  0  0  0
 71 73  2  0  0  0
 71 75  1  0  0  0
 71145  1  0  0  0
 72 74  2  0  0  0
 72 83  1  0  0  0
 72146  1  0  0  0
 73 74  1  0  0  0
 73 79  1  0  0  0
 74 81  1  0  0  0
 75 83  2  0  0  0
 76 77  1  0  0  0
 76147  1  0  0  0
 76148  1  0  0  0
 76 78  1  0  0  0
 77 84  1  0  0  0
 77149  1  0  0  0
 77150  1  0  0  0
 78 82  1  0  0  0
 78 84  1  0  0  0
 78151  1  0  0  0
 79152  1  0  0  0
 79153  1  0  0  0
 79154  1  0  0  0
 80155  1  0  0  0
 80156  1  0  0  0
 80157  1  0  0  0
 80 82  1  0  0  0
 81 85  1  0  0  0
 81158  1  0  0  0
 81159  1  0  0  0
 82 85  1  0  0  0
 82160  1  0  0  0
 85161  1  0  0  0
 85162  1  0  0  0
M  CHG  1  85   1
M  ISO  4   1 100  68 101  75 101  84 100
M  END
> <chiral flag>
0

> <version>
0

> <s_m_source_file>
/data/baiqing/PycharmProjects/Reinvent-master-3.2/result/LINK_invent/BTK/process_docking_weight1_custom_sum_contain_oxygen_bond_distance_aromatic_linkinvent_7_9_3/rearranged_h_0177.sdf

> <i_m_source_file_index>
34

> <r_mmod_Potential_Energy-OPLS-2005>
-91.4032211303711

> <r_mmod_Stretch_Energy-OPLS-2005>
87.7974014282227

> <r_mmod_Bend_Energy-OPLS-2005>
160.365493774414

> <r_mmod_Torsional_Energy-OPLS-2005>
281.055450439453

> <r_mmod_Improper_Torsional_Energy-OPLS-2005>
12.5464105606079

> <r_mmod_Van_der_Waal_Energy-OPLS-2005>
148.180725097656

> <r_mmod_Electrostatic_Energy-OPLS-2005>
-349.672546386719

> <r_mmod_Solvation_Energy-OPLS-2005>
-470.682861328125

> <b_mmod_Minimization_Converged-OPLS-2005>
0

> <r_mmod_RMS_Derivative-OPLS-2005>
6.55329418182373

$$$$
34
                    3D
 Structure written by MMmdl.
169178  0  0  1  0            999 V2000
  -30.5538  -15.0789   20.4020 C   0  0  0  0  0  0
  -30.4199  -12.6817   19.5138 C   0  0  0  0  0  0
  -29.5164  -12.5488   18.2677 C   0  0  0  0  0  0
  -28.0578  -12.3123   18.6922 C   0  0  0  0  0  0
  -27.6147  -13.2690   19.8297 C   0  0  2  0  0  0
  -28.6541  -13.3841   20.9650 C   0  0  0  0  0  0
  -25.2388  -13.8246   20.5742 C   0  0  0  0  0  0
  -24.1734  -13.0438   20.9249 C   0  0  0  0  0  0
  -24.6384  -11.6934   20.8770 C   0  0  0  0  0  0
  -23.9077  -10.4292   21.0404 C   0  0  0  0  0  0
  -24.3622   -9.4209   21.9183 C   0  0  0  0  0  0
  -23.6301   -8.2243   22.0752 C   0  0  0  0  0  0
  -22.4284   -8.0272   21.3543 C   0  0  0  0  0  0
  -21.9918   -9.0244   20.4644 C   0  0  0  0  0  0
  -22.7245  -10.2123   20.3059 C   0  0  0  0  0  0
  -21.6856   -6.0734   22.5281 C   0  0  0  0  0  0
  -21.4021   -6.5638   23.8213 C   0  0  0  0  0  0
  -21.3664   -5.6793   24.9177 C   0  0  0  0  0  0
  -21.6050   -4.3057   24.7229 C   0  0  0  0  0  0
  -21.8817   -3.8144   23.4352 C   0  0  0  0  0  0
  -21.9195   -4.6962   22.3408 C   0  0  0  0  0  0
  -22.7748  -13.5185   21.1892 C   0  0  0  0  0  0
  -22.1658   -4.2148   21.0987 F   0  0  0  0  0  0
  -21.5629   -3.4544   25.7739 F   0  0  0  0  0  0
  -29.9071  -13.8281   20.3391 N   0  0  0  0  0  0
  -26.2818  -12.9516   20.3255 N   0  0  0  0  0  0
  -25.9324  -11.6625   20.5760 N   0  0  0  0  0  0
  -22.0413  -12.8158   22.0448 N   0  0  0  0  0  0
  -25.4032  -15.1973   20.4171 N   0  0  0  0  0  0
  -31.7661  -15.0161   20.1529 O   0  0  0  0  0  0
  -21.6647   -6.8868   21.4241 O   0  0  0  0  0  0
  -22.3423  -14.5487   20.6737 O   0  0  0  0  0  0
  -24.6508  -31.8359   23.1810 C   0  0  0  0  0  0
  -25.9249  -32.4650   23.8224 C   0  0  1  0  0  0
  -27.2150  -27.0543   20.1697 C   0  0  0  0  0  0
  -25.5965  -33.8461   24.2140 N   0  0  0  0  0  0
  -23.4582  -30.4521   21.5281 C   0  0  2  0  0  0
  -24.9088  -28.8615   20.1107 C   0  0  0  0  0  0
  -22.7603  -29.4507   22.4835 C   0  0  0  0  0  0
  -18.0312  -28.1394   22.8476 C   0  0  0  0  0  0
  -24.1494  -36.7235   23.2644 C   0  0  0  0  0  0
  -26.0190  -30.6840   21.3908 C   0  0  0  0  0  0
  -26.0886  -29.2871   20.7338 C   0  0  0  0  0  0
  -27.2413  -28.4020   20.7403 C   0  0  0  0  0  0
  -26.0084  -26.7472   19.5055 C   0  0  0  0  0  0
  -24.8863  -27.6084   19.4778 C   0  0  0  0  0  0
  -23.6892  -29.7744   20.1499 C   0  0  0  0  0  0
  -25.4129  -36.3007   24.0308 C   0  0  1  0  0  0
  -20.5930  -28.3728   23.1218 C   0  0  2  0  0  0
  -20.6794  -26.9423   22.5404 C   0  0  0  0  0  0
  -19.5769  -26.6376   21.5214 C   0  0  0  0  0  0
  -18.1948  -26.7932   22.1620 C   0  0  0  0  0  0
  -19.1571  -28.8883   23.2838 C   0  0  0  0  0  0
  -18.9485  -30.1475   23.8866 C   0  0  0  0  0  0
  -17.6479  -30.6590   24.0555 C   0  0  0  0  0  0
  -25.9085  -34.9385   23.5039 C   0  0  0  0  0  0
  -16.5371  -29.9077   23.6338 C   0  0  0  0  0  0
  -16.7296  -28.6496   23.0364 C   0  0  0  0  0  0
  -26.4539  -31.6549   25.0701 C   0  0  0  0  0  0
  -25.3696  -31.3765   26.1377 C   0  0  0  0  0  0
  -27.0420  -30.2934   24.6344 C   0  0  0  0  0  0
  -27.6053  -32.4330   25.7496 C   0  0  0  0  0  0
  -27.5578  -37.1772   24.8462 C   0  0  0  0  0  0
  -21.4289  -29.3040   22.3579 N   0  0  0  0  0  0
  -26.4285  -37.3730   23.9412 N   0  0  0  0  0  0
  -24.7297  -31.0144   22.0876 N   0  0  0  0  0  0
  -23.4208  -28.8065   23.3023 O   0  0  0  0  0  0
  -28.2500  -26.0270   20.2470 O   0  0  0  0  0  0
  -26.5682  -34.8899   22.4627 O   0  0  0  0  0  0
  -23.5610  -32.1273   23.6982 O   0  0  0  0  0  0
  -31.3475  -22.2761   20.5719 C   0  0  0  0  0  0
  -30.4751  -21.6106   21.6630 C   0  0  0  0  0  0
  -28.7570  -18.6439   21.4700 C   0  0  0  0  0  0
  -30.3368  -19.1112   19.8241 C   0  0  0  0  0  0
  -28.7875  -17.0319   21.1169 C   0  0  0  0  0  0
  -29.0488  -19.8577   20.4313 C   0  0  2  0  0  0
  -30.4207  -23.1444   19.6856 C   0  0  1  0  0  0
  -29.1008  -23.1574   20.4628 C   0  0  2  0  0  0
  -30.3354  -17.5271   19.3816 C   0  0  2  0  0  0
  -29.0507  -21.5103   21.0680 C   0  0  2  0  0  0
  -31.0176  -24.5279   19.3822 C   0  0  0  0  0  0
  -29.5544  -17.3790   18.0631 C   0  0  0  0  0  0
  -27.9900  -21.5412   22.1877 C   0  0  0  0  0  0
  -28.0003  -24.4533   20.1302 C   0  0  0  0  0  0
  -29.9072  -16.3928   20.3213 N   0  0  0  0  0  0
  -31.4525  -12.8245   19.1924 H   0  0  0  0  0  0
  -30.4216  -11.7558   20.0911 H   0  0  0  0  0  0
  -29.8594  -11.7319   17.6307 H   0  0  0  0  0  0
  -29.5832  -13.4573   17.6666 H   0  0  0  0  0  0
  -27.9805  -11.2778   19.0296 H   0  0  0  0  0  0
  -27.3905  -12.4049   17.8344 H   0  0  0  0  0  0
  -27.5496  -14.2528   19.3621 H   0  0  0  0  0  0
  -28.7770  -12.4353   21.4901 H   0  0  0  0  0  0
  -28.3272  -14.1126   21.7072 H   0  0  0  0  0  0
  -25.2764   -9.5693   22.4760 H   0  0  0  0  0  0
  -24.0020   -7.4634   22.7467 H   0  0  0  0  0  0
  -21.0854   -8.8747   19.8945 H   0  0  0  0  0  0
  -22.3692  -10.9655   19.6169 H   0  0  0  0  0  0
  -21.2014   -7.6145   23.9715 H   0  0  0  0  0  0
  -21.1492   -6.0526   25.9077 H   0  0  0  0  0  0
  -22.0594   -2.7606   23.2854 H   0  0  0  0  0  0
  -22.4055  -11.9848   22.4868 H   0  0  0  0  0  0
  -21.1021  -13.1153   22.2652 H   0  0  0  0  0  0
  -24.6348  -15.8489   20.5325 H   0  0  0  0  0  0
  -26.2526  -15.6373   20.0887 H   0  0  0  0  0  0
  -26.7314  -32.5227   23.0944 H   0  0  0  0  0  0
  -25.0074  -33.9555   25.0263 H   0  0  0  0  0  0
  -22.7645  -31.2800   21.3671 H   0  0  0  0  0  0
  -23.3769  -35.9552   23.3275 H   0  0  0  0  0  0
  -24.3577  -36.8904   22.2065 H   0  0  0  0  0  0
  -23.7233  -37.6411   23.6709 H   0  0  0  0  0  0
  -26.1848  -31.4334   20.6155 H   0  0  0  0  0  0
  -26.8852  -30.7357   22.0390 H   0  0  0  0  0  0
  -28.1382  -28.7235   21.2503 H   0  0  0  0  0  0
  -25.9019  -25.7867   19.0238 H   0  0  0  0  0  0
  -23.9866  -27.2766   18.9783 H   0  0  0  0  0  0
  -23.8332  -30.5463   19.3930 H   0  0  0  0  0  0
  -22.8010  -29.2220   19.8372 H   0  0  0  0  0  0
  -25.1322  -36.1819   25.0798 H   0  0  0  0  0  0
  -21.0020  -28.3325   24.1342 H   0  0  0  0  0  0
  -20.5683  -26.2342   23.3631 H   0  0  0  0  0  0
  -21.6657  -26.7414   22.1206 H   0  0  0  0  0  0
  -19.6925  -25.6277   21.1266 H   0  0  0  0  0  0
  -19.6706  -27.3169   20.6731 H   0  0  0  0  0  0
  -17.4217  -26.6684   21.4022 H   0  0  0  0  0  0
  -18.0340  -26.0077   22.9019 H   0  0  0  0  0  0
  -19.7959  -30.7305   24.2218 H   0  0  0  0  0  0
  -17.5029  -31.6269   24.5157 H   0  0  0  0  0  0
  -15.5370  -30.2970   23.7679 H   0  0  0  0  0  0
  -15.8697  -28.0803   22.7101 H   0  0  0  0  0  0
  -24.5883  -30.7108   25.7689 H   0  0  0  0  0  0
  -24.8878  -32.2958   26.4718 H   0  0  0  0  0  0
  -25.7952  -30.8987   27.0210 H   0  0  0  0  0  0
  -26.3059  -29.6632   24.1341 H   0  0  0  0  0  0
  -27.3991  -29.7266   25.4953 H   0  0  0  0  0  0
  -27.8982  -30.4149   23.9706 H   0  0  0  0  0  0
  -27.2636  -33.3659   26.1994 H   0  0  0  0  0  0
  -28.3908  -32.6845   25.0357 H   0  0  0  0  0  0
  -28.0670  -31.8507   26.5480 H   0  0  0  0  0  0
  -28.2571  -38.0091   24.7529 H   0  0  0  0  0  0
  -28.1100  -36.2622   24.6266 H   0  0  0  0  0  0
  -27.2297  -37.1384   25.8864 H   0  0  0  0  0  0
  -20.9514  -29.8739   21.6735 H   0  0  0  0  0  0
  -26.0144  -38.2792   24.1425 H   0  0  0  0  0  0
  -31.8542  -21.5299   19.9598 H   0  0  0  0  0  0
  -32.1319  -22.8698   21.0434 H   0  0  0  0  0  0
  -30.4744  -22.2497   22.5482 H   0  0  0  0  0  0
  -30.8881  -20.6731   22.0294 H   0  0  0  0  0  0
  -29.4499  -18.7753   22.3017 H   0  0  0  0  0  0
  -27.7755  -18.8259   21.9082 H   0  0  0  0  0  0
  -31.1570  -19.1944   20.5342 H   0  0  0  0  0  0
  -30.6699  -19.6957   18.9661 H   0  0  0  0  0  0
  -27.8708  -16.7973   20.5770 H   0  0  0  0  0  0
  -28.7075  -16.4849   22.0569 H   0  0  0  0  0  0
  -28.2669  -19.8267   19.6719 H   0  0  0  0  0  0
  -30.2474  -22.6267   18.7410 H   0  0  0  0  0  0
  -29.3882  -23.6776   21.3789 H   0  0  0  0  0  0
  -31.3762  -17.3186   19.1290 H   0  0  0  0  0  0
  -31.1768  -25.1043   20.2944 H   0  0  0  0  0  0
  -30.3640  -25.1088   18.7311 H   0  0  0  0  0  0
  -31.9791  -24.4357   18.8752 H   0  0  0  0  0  0
  -28.4893  -17.5613   18.2106 H   0  0  0  0  0  0
  -29.6651  -16.3800   17.6407 H   0  0  0  0  0  0
  -29.9056  -18.0883   17.3125 H   0  0  0  0  0  0
  -28.2001  -20.8148   22.9720 H   0  0  0  0  0  0
  -26.9971  -21.3323   21.7890 H   0  0  0  0  0  0
  -27.9399  -22.5104   22.6850 H   0  0  0  0  0  0
  -27.1326  -24.2679   20.7646 H   0  0  0  0  0  0
  -27.6396  -24.2831   19.1156 H   0  0  0  0  0  0
  1 25  1  0  0  0
  1 30  2  0  0  0
  1 85  1  0  0  0
  2  3  1  0  0  0
  2 25  1  0  0  0
  2 86  1  0  0  0
  2 87  1  0  0  0
  3  4  1  0  0  0
  3 88  1  0  0  0
  3 89  1  0  0  0
  4  5  1  0  0  0
  4 90  1  0  0  0
  4 91  1  0  0  0
  5  6  1  0  0  0
  5 26  1  0  0  0
  5 92  1  0  0  0
  6 25  1  0  0  0
  6 93  1  0  0  0
  6 94  1  0  0  0
  7  8  2  0  0  0
  7 26  1  0  0  0
  7 29  1  0  0  0
  8  9  1  0  0  0
  8 22  1  0  0  0
  9 10  1  0  0  0
  9 27  2  0  0  0
 10 11  2  0  0  0
 10 15  1  0  0  0
 11 12  1  0  0  0
 11 95  1  0  0  0
 12 13  2  0  0  0
 12 96  1  0  0  0
 13 14  1  0  0  0
 13 31  1  0  0  0
 14 15  2  0  0  0
 14 97  1  0  0  0
 15 98  1  0  0  0
 16 17  2  0  0  0
 16 21  1  0  0  0
 16 31  1  0  0  0
 17 18  1  0  0  0
 17 99  1  0  0  0
 18 19  2  0  0  0
 18100  1  0  0  0
 19 20  1  0  0  0
 19 24  1  0  0  0
 20 21  2  0  0  0
 20101  1  0  0  0
 21 23  1  0  0  0
 22 28  1  0  0  0
 22 32  2  0  0  0
 26 27  1  0  0  0
 28102  1  0  0  0
 28103  1  0  0  0
 29104  1  0  0  0
 29105  1  0  0  0
 33 34  1  0  0  0
 33 66  1  0  0  0
 33 70  2  0  0  0
 34 36  1  0  0  0
 34 59  1  0  0  0
 34106  1  0  0  0
 35 44  2  0  0  0
 35 45  1  0  0  0
 35 68  1  0  0  0
 36 56  1  0  0  0
 36107  1  0  0  0
 37 39  1  0  0  0
 37 47  1  0  0  0
 37 66  1  0  0  0
 37108  1  0  0  0
 38 43  2  0  0  0
 38 46  1  0  0  0
 38 47  1  0  0  0
 39 64  1  0  0  0
 39 67  2  0  0  0
 40 52  1  0  0  0
 40 53  2  0  0  0
 40 58  1  0  0  0
 41109  1  0  0  0
 41110  1  0  0  0
 41111  1  0  0  0
 41 48  1  0  0  0
 42 43  1  0  0  0
 42 66  1  0  0  0
 42112  1  0  0  0
 42113  1  0  0  0
 43 44  1  0  0  0
 44114  1  0  0  0
 45 46  2  0  0  0
 45115  1  0  0  0
 46116  1  0  0  0
 47117  1  0  0  0
 47118  1  0  0  0
 48 56  1  0  0  0
 48 65  1  0  0  0
 48119  1  0  0  0
 49 50  1  0  0  0
 49 53  1  0  0  0
 49 64  1  0  0  0
 49120  1  0  0  0
 50 51  1  0  0  0
 50121  1  0  0  0
 50122  1  0  0  0
 51 52  1  0  0  0
 51123  1  0  0  0
 51124  1  0  0  0
 52125  1  0  0  0
 52126  1  0  0  0
 53 54  1  0  0  0
 54 55  2  0  0  0
 54127  1  0  0  0
 55 57  1  0  0  0
 55128  1  0  0  0
 56 69  2  0  0  0
 57 58  2  0  0  0
 57129  1  0  0  0
 58130  1  0  0  0
 59 60  1  0  0  0
 59 61  1  0  0  0
 59 62  1  0  0  0
 60131  1  0  0  0
 60132  1  0  0  0
 60133  1  0  0  0
 61134  1  0  0  0
 61135  1  0  0  0
 61136  1  0  0  0
 62137  1  0  0  0
 62138  1  0  0  0
 62139  1  0  0  0
 63 65  1  0  0  0
 63140  1  0  0  0
 63141  1  0  0  0
 63142  1  0  0  0
 64143  1  0  0  0
 65144  1  0  0  0
 68 84  1  0  0  0
 71 72  1  0  0  0
 71 77  1  0  0  0
 71145  1  0  0  0
 71146  1  0  0  0
 72 80  1  0  0  0
 72147  1  0  0  0
 72148  1  0  0  0
 73 75  1  0  0  0
 73149  1  0  0  0
 73150  1  0  0  0
 73 76  1  0  0  0
 74 76  1  0  0  0
 74 79  1  0  0  0
 74151  1  0  0  0
 74152  1  0  0  0
 75 85  1  0  0  0
 75153  1  0  0  0
 75154  1  0  0  0
 76 80  1  0  0  0
 76155  1  0  0  0
 77 78  1  0  0  0
 77 81  1  0  0  0
 77156  1  0  0  0
 78 80  1  0  0  0
 78 84  1  0  0  0
 78157  1  0  0  0
 79 82  1  0  0  0
 79 85  1  0  0  0
 79158  1  0  0  0
 80 83  1  0  0  0
 81159  1  0  0  0
 81160  1  0  0  0
 81161  1  0  0  0
 82162  1  0  0  0
 82163  1  0  0  0
 82164  1  0  0  0
 83165  1  0  0  0
 83166  1  0  0  0
 83167  1  0  0  0
 84168  1  0  0  0
 84169  1  0  0  0
M  ISO  4   1 100  68 101  84 101  85 100
M  END
> <chiral flag>
0

> <version>
0

> <s_m_source_file>
/data/baiqing/PycharmProjects/Reinvent-master-3.2/result/LINK_invent/BTK/process_docking_weight1_custom_sum_contain_oxygen_bond_distance_aromatic_linkinvent_7_9_3/rearranged_h_0177.sdf

> <i_m_source_file_index>
35

> <r_mmod_Potential_Energy-OPLS-2005>
1303.3935546875

> <r_mmod_Stretch_Energy-OPLS-2005>
397.556030273438

> <r_mmod_Bend_Energy-OPLS-2005>
524.270874023438

> <r_mmod_Torsional_Energy-OPLS-2005>
407.692260742188

> <r_mmod_Improper_Torsional_Energy-OPLS-2005>
12.042462348938

> <r_mmod_Van_der_Waal_Energy-OPLS-2005>
120.680297851562

> <r_mmod_Electrostatic_Energy-OPLS-2005>
-259.331146240234

> <r_mmod_Solvation_Energy-OPLS-2005>
-181.306335449219

> <b_mmod_Minimization_Converged-OPLS-2005>
0

> <r_mmod_RMS_Derivative-OPLS-2005>
1.01145720481873

$$$$
35
                    3D
 Structure written by MMmdl.
156165  0  0  1  0            999 V2000
  -30.5536  -15.0286   20.4304 C   0  0  0  0  0  0
  -30.4356  -12.6510   19.5044 C   0  0  0  0  0  0
  -29.5201  -12.5448   18.2624 C   0  0  0  0  0  0
  -28.0573  -12.3157   18.6830 C   0  0  0  0  0  0
  -27.6242  -13.2554   19.8376 C   0  0  2  0  0  0
  -28.6696  -13.3075   20.9723 C   0  0  0  0  0  0
  -25.2391  -13.8197   20.5687 C   0  0  0  0  0  0
  -24.1743  -13.0411   20.9242 C   0  0  0  0  0  0
  -24.6390  -11.6911   20.8772 C   0  0  0  0  0  0
  -23.9082  -10.4279   21.0414 C   0  0  0  0  0  0
  -24.3629   -9.4195   21.9191 C   0  0  0  0  0  0
  -23.6300   -8.2234   22.0757 C   0  0  0  0  0  0
  -22.4283   -8.0275   21.3545 C   0  0  0  0  0  0
  -21.9922   -9.0249   20.4646 C   0  0  0  0  0  0
  -22.7257  -10.2124   20.3058 C   0  0  0  0  0  0
  -21.6852   -6.0734   22.5279 C   0  0  0  0  0  0
  -21.4013   -6.5638   23.8213 C   0  0  0  0  0  0
  -21.3659   -5.6790   24.9176 C   0  0  0  0  0  0
  -21.6044   -4.3053   24.7226 C   0  0  0  0  0  0
  -21.8819   -3.8145   23.4348 C   0  0  0  0  0  0
  -21.9195   -4.6962   22.3404 C   0  0  0  0  0  0
  -22.7763  -13.5177   21.1889 C   0  0  0  0  0  0
  -22.1663   -4.2149   21.0981 F   0  0  0  0  0  0
  -21.5629   -3.4538   25.7738 F   0  0  0  0  0  0
  -29.9282  -13.7692   20.3654 N   0  0  0  0  0  0
  -26.2855  -12.9466   20.3260 N   0  0  0  0  0  0
  -25.9331  -11.6588   20.5771 N   0  0  0  0  0  0
  -22.0420  -12.8168   22.0449 N   0  0  0  0  0  0
  -25.3925  -15.1915   20.4013 N   0  0  0  0  0  0
  -31.7550  -15.0271   20.1319 O   0  0  0  0  0  0
  -21.6640   -6.8877   21.4241 O   0  0  0  0  0  0
  -22.3445  -14.5481   20.6731 O   0  0  0  0  0  0
  -24.6483  -31.8396   23.1840 C   0  0  0  0  0  0
  -25.9231  -32.4673   23.8248 C   0  0  1  0  0  0
  -27.2163  -27.0826   20.1577 C   0  0  0  0  0  0
  -25.5960  -33.8482   24.2165 N   0  0  0  0  0  0
  -23.4552  -30.4570   21.5303 C   0  0  2  0  0  0
  -24.9065  -28.8771   20.1079 C   0  0  0  0  0  0
  -22.7595  -29.4521   22.4836 C   0  0  0  0  0  0
  -18.0312  -28.1407   22.8480 C   0  0  0  0  0  0
  -24.1489  -36.7241   23.2642 C   0  0  0  0  0  0
  -26.0149  -30.6957   21.3918 C   0  0  0  0  0  0
  -26.0855  -29.3017   20.7336 C   0  0  0  0  0  0
  -27.2397  -28.4214   20.7417 C   0  0  0  0  0  0
  -26.0123  -26.7790   19.4819 C   0  0  0  0  0  0
  -24.8863  -27.6313   19.4651 C   0  0  0  0  0  0
  -23.6854  -29.7853   20.1503 C   0  0  0  0  0  0
  -25.4126  -36.3018   24.0310 C   0  0  1  0  0  0
  -20.5928  -28.3733   23.1229 C   0  0  2  0  0  0
  -20.6793  -26.9432   22.5407 C   0  0  0  0  0  0
  -19.5765  -26.6388   21.5217 C   0  0  0  0  0  0
  -18.1947  -26.7945   22.1625 C   0  0  0  0  0  0
  -19.1571  -28.8888   23.2847 C   0  0  0  0  0  0
  -18.9482  -30.1482   23.8875 C   0  0  0  0  0  0
  -17.6478  -30.6599   24.0561 C   0  0  0  0  0  0
  -25.9084  -34.9396   23.5051 C   0  0  0  0  0  0
  -16.5370  -29.9091   23.6340 C   0  0  0  0  0  0
  -16.7296  -28.6510   23.0364 C   0  0  0  0  0  0
  -26.4536  -31.6559   25.0709 C   0  0  0  0  0  0
  -25.3703  -31.3766   26.1391 C   0  0  0  0  0  0
  -27.0406  -30.2948   24.6322 C   0  0  0  0  0  0
  -27.6059  -32.4330   25.7501 C   0  0  0  0  0  0
  -27.5574  -37.1781   24.8468 C   0  0  0  0  0  0
  -21.4280  -29.3051   22.3593 N   0  0  0  0  0  0
  -26.4285  -37.3736   23.9409 N   0  0  0  0  0  0
  -24.7261  -31.0201   22.0900 N   0  0  0  0  0  0
  -23.4215  -28.8072   23.3006 O   0  0  0  0  0  0
  -28.2398  -26.0500   20.2525 O   0  0  0  0  0  0
  -26.5669  -34.8898   22.4632 O   0  0  0  0  0  0
  -23.5589  -32.1297   23.7026 O   0  0  0  0  0  0
  -28.5392  -21.7303   20.0446 C   0  0  0  0  0  0
  -29.3596  -20.5914   20.5267 C   0  0  0  0  0  0
  -28.8032  -23.1549   20.3903 C   0  0  0  0  0  0
  -30.5636  -22.2677   21.6150 C   0  0  0  0  0  0
  -28.4671  -18.1750   21.4991 C   0  0  0  0  0  0
  -28.6356  -16.6156   21.2831 C   0  0  0  0  0  0
  -30.3050  -17.7572   20.1336 C   0  0  0  0  0  0
  -29.1549  -18.9317   20.3494 C   0  0  2  0  0  0
  -32.3901  -21.5663   22.9887 C   0  0  0  0  0  0
  -27.9231  -24.5229   19.9845 C   0  0  0  0  0  0
  -30.3640  -20.9664   21.3424 N   0  0  0  0  0  0
  -29.8700  -23.3323   21.1964 N   0  0  0  0  0  0
  -29.8603  -16.3023   20.5190 N   0  0  0  0  0  0
  -31.5832  -22.6038   22.4356 O   0  0  0  0  0  0
  -31.4651  -12.8109   19.1808 H   0  0  0  0  0  0
  -30.4503  -11.7100   20.0568 H   0  0  0  0  0  0
  -29.8542  -11.7360   17.6113 H   0  0  0  0  0  0
  -29.5936  -13.4616   17.6756 H   0  0  0  0  0  0
  -27.9672  -11.2771   19.0034 H   0  0  0  0  0  0
  -27.3912  -12.4293   17.8270 H   0  0  0  0  0  0
  -27.5765  -14.2511   19.3965 H   0  0  0  0  0  0
  -28.7880  -12.3287   21.4395 H   0  0  0  0  0  0
  -28.3458  -13.9746   21.7680 H   0  0  0  0  0  0
  -25.2769   -9.5671   22.4775 H   0  0  0  0  0  0
  -24.0004   -7.4623   22.7476 H   0  0  0  0  0  0
  -21.0855   -8.8772   19.8950 H   0  0  0  0  0  0
  -22.3718  -10.9666   19.6169 H   0  0  0  0  0  0
  -21.2002   -7.6147   23.9715 H   0  0  0  0  0  0
  -21.1481   -6.0521   25.9078 H   0  0  0  0  0  0
  -22.0599   -2.7609   23.2847 H   0  0  0  0  0  0
  -22.4050  -11.9836   22.4839 H   0  0  0  0  0  0
  -21.1036  -13.1182   22.2654 H   0  0  0  0  0  0
  -24.6144  -15.8337   20.5041 H   0  0  0  0  0  0
  -26.2251  -15.6329   20.0351 H   0  0  0  0  0  0
  -26.7296  -32.5262   23.0971 H   0  0  0  0  0  0
  -25.0083  -33.9593   25.0296 H   0  0  0  0  0  0
  -22.7606  -31.2846   21.3729 H   0  0  0  0  0  0
  -23.3759  -35.9563   23.3291 H   0  0  0  0  0  0
  -24.3574  -36.8888   22.2059 H   0  0  0  0  0  0
  -23.7231  -37.6426   23.6692 H   0  0  0  0  0  0
  -26.1770  -31.4468   20.6175 H   0  0  0  0  0  0
  -26.8826  -30.7481   22.0373 H   0  0  0  0  0  0
  -28.1330  -28.7393   21.2611 H   0  0  0  0  0  0
  -25.8984  -25.8302   18.9799 H   0  0  0  0  0  0
  -23.9882  -27.3034   18.9595 H   0  0  0  0  0  0
  -23.8272  -30.5595   19.3954 H   0  0  0  0  0  0
  -22.7986  -29.2316   19.8367 H   0  0  0  0  0  0
  -25.1319  -36.1839   25.0801 H   0  0  0  0  0  0
  -21.0026  -28.3322   24.1349 H   0  0  0  0  0  0
  -20.5685  -26.2347   23.3632 H   0  0  0  0  0  0
  -21.6657  -26.7433   22.1206 H   0  0  0  0  0  0
  -19.6921  -25.6291   21.1266 H   0  0  0  0  0  0
  -19.6700  -27.3182   20.6734 H   0  0  0  0  0  0
  -17.4219  -26.6700   21.4024 H   0  0  0  0  0  0
  -18.0336  -26.0097   22.9029 H   0  0  0  0  0  0
  -19.7956  -30.7308   24.2235 H   0  0  0  0  0  0
  -17.5030  -31.6276   24.5169 H   0  0  0  0  0  0
  -15.5371  -30.2986   23.7676 H   0  0  0  0  0  0
  -15.8698  -28.0818   22.7097 H   0  0  0  0  0  0
  -24.5911  -30.7078   25.7718 H   0  0  0  0  0  0
  -24.8857  -32.2950   26.4713 H   0  0  0  0  0  0
  -25.7977  -30.9020   27.0233 H   0  0  0  0  0  0
  -26.3035  -29.6664   24.1311 H   0  0  0  0  0  0
  -27.3987  -29.7257   25.4910 H   0  0  0  0  0  0
  -27.8957  -30.4173   23.9670 H   0  0  0  0  0  0
  -27.2659  -33.3671   26.1983 H   0  0  0  0  0  0
  -28.3926  -32.6821   25.0366 H   0  0  0  0  0  0
  -28.0660  -31.8508   26.5495 H   0  0  0  0  0  0
  -28.2587  -38.0082   24.7519 H   0  0  0  0  0  0
  -28.1076  -36.2614   24.6296 H   0  0  0  0  0  0
  -27.2294  -37.1426   25.8871 H   0  0  0  0  0  0
  -20.9502  -29.8761   21.6763 H   0  0  0  0  0  0
  -26.0146  -38.2799   24.1418 H   0  0  0  0  0  0
  -27.6797  -21.5112   19.4235 H   0  0  0  0  0  0
  -28.9588  -18.4538   22.4322 H   0  0  0  0  0  0
  -27.4204  -18.4633   21.6018 H   0  0  0  0  0  0
  -27.7900  -16.2390   20.7151 H   0  0  0  0  0  0
  -28.6376  -16.1092   22.2484 H   0  0  0  0  0  0
  -31.1617  -17.9966   20.7648 H   0  0  0  0  0  0
  -30.6747  -17.7755   19.1082 H   0  0  0  0  0  0
  -28.4922  -18.8486   19.4875 H   0  0  0  0  0  0
  -33.1542  -22.0055   23.6296 H   0  0  0  0  0  0
  -32.8994  -20.9972   22.2096 H   0  0  0  0  0  0
  -31.7990  -20.8840   23.6014 H   0  0  0  0  0  0
  -26.9460  -24.3389   20.4315 H   0  0  0  0  0  0
  -27.7645  -24.4400   18.9093 H   0  0  0  0  0  0
  1 25  1  0  0  0
  1 30  2  0  0  0
  1 83  1  0  0  0
  2  3  1  0  0  0
  2 25  1  0  0  0
  2 85  1  0  0  0
  2 86  1  0  0  0
  3  4  1  0  0  0
  3 87  1  0  0  0
  3 88  1  0  0  0
  4  5  1  0  0  0
  4 89  1  0  0  0
  4 90  1  0  0  0
  5  6  1  0  0  0
  5 26  1  0  0  0
  5 91  1  0  0  0
  6 25  1  0  0  0
  6 92  1  0  0  0
  6 93  1  0  0  0
  7  8  2  0  0  0
  7 26  1  0  0  0
  7 29  1  0  0  0
  8  9  1  0  0  0
  8 22  1  0  0  0
  9 10  1  0  0  0
  9 27  2  0  0  0
 10 11  2  0  0  0
 10 15  1  0  0  0
 11 12  1  0  0  0
 11 94  1  0  0  0
 12 13  2  0  0  0
 12 95  1  0  0  0
 13 14  1  0  0  0
 13 31  1  0  0  0
 14 15  2  0  0  0
 14 96  1  0  0  0
 15 97  1  0  0  0
 16 17  2  0  0  0
 16 21  1  0  0  0
 16 31  1  0  0  0
 17 18  1  0  0  0
 17 98  1  0  0  0
 18 19  2  0  0  0
 18 99  1  0  0  0
 19 20  1  0  0  0
 19 24  1  0  0  0
 20 21  2  0  0  0
 20100  1  0  0  0
 21 23  1  0  0  0
 22 28  1  0  0  0
 22 32  2  0  0  0
 26 27  1  0  0  0
 28101  1  0  0  0
 28102  1  0  0  0
 29103  1  0  0  0
 29104  1  0  0  0
 33 34  1  0  0  0
 33 66  1  0  0  0
 33 70  2  0  0  0
 34 36  1  0  0  0
 34 59  1  0  0  0
 34105  1  0  0  0
 35 44  2  0  0  0
 35 45  1  0  0  0
 35 68  1  0  0  0
 36 56  1  0  0  0
 36106  1  0  0  0
 37 39  1  0  0  0
 37 47  1  0  0  0
 37 66  1  0  0  0
 37107  1  0  0  0
 38 43  2  0  0  0
 38 46  1  0  0  0
 38 47  1  0  0  0
 39 64  1  0  0  0
 39 67  2  0  0  0
 40 52  1  0  0  0
 40 53  2  0  0  0
 40 58  1  0  0  0
 41108  1  0  0  0
 41109  1  0  0  0
 41110  1  0  0  0
 41 48  1  0  0  0
 42 43  1  0  0  0
 42 66  1  0  0  0
 42111  1  0  0  0
 42112  1  0  0  0
 43 44  1  0  0  0
 44113  1  0  0  0
 45 46  2  0  0  0
 45114  1  0  0  0
 46115  1  0  0  0
 47116  1  0  0  0
 47117  1  0  0  0
 48 56  1  0  0  0
 48 65  1  0  0  0
 48118  1  0  0  0
 49 50  1  0  0  0
 49 53  1  0  0  0
 49 64  1  0  0  0
 49119  1  0  0  0
 50 51  1  0  0  0
 50120  1  0  0  0
 50121  1  0  0  0
 51 52  1  0  0  0
 51122  1  0  0  0
 51123  1  0  0  0
 52124  1  0  0  0
 52125  1  0  0  0
 53 54  1  0  0  0
 54 55  2  0  0  0
 54126  1  0  0  0
 55 57  1  0  0  0
 55127  1  0  0  0
 56 69  2  0  0  0
 57 58  2  0  0  0
 57128  1  0  0  0
 58129  1  0  0  0
 59 60  1  0  0  0
 59 61  1  0  0  0
 59 62  1  0  0  0
 60130  1  0  0  0
 60131  1  0  0  0
 60132  1  0  0  0
 61133  1  0  0  0
 61134  1  0  0  0
 61135  1  0  0  0
 62136  1  0  0  0
 62137  1  0  0  0
 62138  1  0  0  0
 63 65  1  0  0  0
 63139  1  0  0  0
 63140  1  0  0  0
 63141  1  0  0  0
 64142  1  0  0  0
 65143  1  0  0  0
 68 80  1  0  0  0
 71 72  2  0  0  0
 71 73  1  0  0  0
 71144  1  0  0  0
 72 81  1  0  0  0
 72 78  1  0  0  0
 73 80  1  0  0  0
 73 82  2  0  0  0
 74 81  2  0  0  0
 74 82  1  0  0  0
 74 84  1  0  0  0
 75 76  1  0  0  0
 75 78  1  0  0  0
 75145  1  0  0  0
 75146  1  0  0  0
 76 83  1  0  0  0
 76147  1  0  0  0
 76148  1  0  0  0
 77 78  1  0  0  0
 77 83  1  0  0  0
 77149  1  0  0  0
 77150  1  0  0  0
 78151  1  0  0  0
 79 84  1  0  0  0
 79152  1  0  0  0
 79153  1  0  0  0
 79154  1  0  0  0
 80155  1  0  0  0
 80156  1  0  0  0
M  ISO  4   1 100  68 101  80 101  83 100
M  END
> <chiral flag>
0

> <version>
0

> <s_m_source_file>
/data/baiqing/PycharmProjects/Reinvent-master-3.2/result/LINK_invent/BTK/process_docking_weight1_custom_sum_contain_oxygen_bond_distance_aromatic_linkinvent_7_9_3/rearranged_h_0177.sdf

> <i_m_source_file_index>
36

> <r_mmod_Potential_Energy-OPLS-2005>
341.807037353516

> <r_mmod_Stretch_Energy-OPLS-2005>
294.615966796875

> <r_mmod_Bend_Energy-OPLS-2005>
318.801788330078

> <r_mmod_Torsional_Energy-OPLS-2005>
292.322998046875

> <r_mmod_Improper_Torsional_Energy-OPLS-2005>
8.50586318969727

> <r_mmod_Van_der_Waal_Energy-OPLS-2005>
144.093978881836

> <r_mmod_Electrostatic_Energy-OPLS-2005>
-718.741943359375

> <r_mmod_Solvation_Energy-OPLS-2005>
-243.810928344727

> <b_mmod_Minimization_Converged-OPLS-2005>
0

> <r_mmod_RMS_Derivative-OPLS-2005>
0.549069285392761

$$$$
36
                    3D
 Structure written by MMmdl.
158167  0  0  1  0            999 V2000
  -30.4299  -15.4503   20.3511 C   0  0  0  0  0  0
  -30.4152  -12.9512   19.5281 C   0  0  0  0  0  0
  -29.5314  -12.6120   18.3014 C   0  0  0  0  0  0
  -28.0958  -12.2969   18.7438 C   0  0  0  0  0  0
  -27.5959  -13.2986   19.8121 C   0  0  2  0  0  0
  -28.6213  -13.5846   20.9331 C   0  0  0  0  0  0
  -25.2331  -13.8289   20.5802 C   0  0  0  0  0  0
  -24.1707  -13.0445   20.9282 C   0  0  0  0  0  0
  -24.6396  -11.6952   20.8771 C   0  0  0  0  0  0
  -23.9103  -10.4298   21.0405 C   0  0  0  0  0  0
  -24.3645   -9.4209   21.9181 C   0  0  0  0  0  0
  -23.6312   -8.2247   22.0751 C   0  0  0  0  0  0
  -22.4292   -8.0288   21.3543 C   0  0  0  0  0  0
  -21.9937   -9.0262   20.4642 C   0  0  0  0  0  0
  -22.7274  -10.2137   20.3052 C   0  0  0  0  0  0
  -21.6859   -6.0744   22.5281 C   0  0  0  0  0  0
  -21.4017   -6.5645   23.8215 C   0  0  0  0  0  0
  -21.3659   -5.6795   24.9176 C   0  0  0  0  0  0
  -21.6044   -4.3059   24.7224 C   0  0  0  0  0  0
  -21.8819   -3.8152   23.4345 C   0  0  0  0  0  0
  -21.9193   -4.6970   22.3402 C   0  0  0  0  0  0
  -22.7720  -13.5176   21.1920 C   0  0  0  0  0  0
  -22.1662   -4.2156   21.0980 F   0  0  0  0  0  0
  -21.5626   -3.4541   25.7736 F   0  0  0  0  0  0
  -29.8217  -14.1409   20.2774 N   0  0  0  0  0  0
  -26.2763  -12.9604   20.3241 N   0  0  0  0  0  0
  -25.9338  -11.6684   20.5720 N   0  0  0  0  0  0
  -22.0386  -12.8151   22.0471 N   0  0  0  0  0  0
  -25.3958  -15.2029   20.4275 N   0  0  0  0  0  0
  -31.6585  -15.3195   20.1980 O   0  0  0  0  0  0
  -21.6649   -6.8890   21.4244 O   0  0  0  0  0  0
  -22.3396  -14.5475   20.6758 O   0  0  0  0  0  0
  -24.6744  -31.8112   23.1611 C   0  0  0  0  0  0
  -25.9374  -32.4520   23.8114 C   0  0  1  0  0  0
  -27.2153  -26.8073   20.1983 C   0  0  0  0  0  0
  -25.5998  -33.8340   24.2012 N   0  0  0  0  0  0
  -23.4945  -30.4188   21.5127 C   0  0  2  0  0  0
  -24.9496  -28.7840   20.1131 C   0  0  0  0  0  0
  -22.7719  -29.4377   22.4741 C   0  0  0  0  0  0
  -18.0331  -28.1417   22.8460 C   0  0  0  0  0  0
  -24.1492  -36.7167   23.2649 C   0  0  0  0  0  0
  -26.0706  -30.5784   21.4098 C   0  0  0  0  0  0
  -26.1367  -29.1558   20.7560 C   0  0  0  0  0  0
  -27.2605  -28.1916   20.7708 C   0  0  0  0  0  0
  -25.9991  -26.6217   19.4985 C   0  0  0  0  0  0
  -24.9137  -27.5406   19.4617 C   0  0  0  0  0  0
  -23.7417  -29.7267   20.1428 C   0  0  0  0  0  0
  -25.4139  -36.2924   24.0290 C   0  0  1  0  0  0
  -20.5962  -28.3769   23.1164 C   0  0  2  0  0  0
  -20.6800  -26.9438   22.5404 C   0  0  0  0  0  0
  -19.5776  -26.6379   21.5214 C   0  0  0  0  0  0
  -18.1960  -26.7947   22.1621 C   0  0  0  0  0  0
  -19.1596  -28.8916   23.2794 C   0  0  0  0  0  0
  -18.9502  -30.1501   23.8836 C   0  0  0  0  0  0
  -17.6494  -30.6603   24.0554 C   0  0  0  0  0  0
  -25.9115  -34.9311   23.4979 C   0  0  0  0  0  0
  -16.5385  -29.9087   23.6349 C   0  0  0  0  0  0
  -16.7312  -28.6507   23.0367 C   0  0  0  0  0  0
  -26.4587  -31.6511   25.0690 C   0  0  0  0  0  0
  -25.3684  -31.3803   26.1327 C   0  0  0  0  0  0
  -27.0497  -30.2859   24.6513 C   0  0  0  0  0  0
  -27.6058  -32.4344   25.7500 C   0  0  0  0  0  0
  -27.5564  -37.1741   24.8467 C   0  0  0  0  0  0
  -21.4378  -29.3034   22.3494 N   0  0  0  0  0  0
  -26.4270  -37.3678   23.9411 N   0  0  0  0  0  0
  -24.7689  -30.9664   22.0806 N   0  0  0  0  0  0
  -23.4211  -28.7965   23.3038 O   0  0  0  0  0  0
  -28.1731  -25.6225   20.2845 O   0  0  0  0  0  0
  -26.5738  -34.8871   22.4584 O   0  0  0  0  0  0
  -23.5787  -32.1139   23.6633 O   0  0  0  0  0  0
  -28.0658  -20.9043   19.8152 C   0  0  0  0  0  0
  -28.5789  -22.2899   20.2505 C   0  0  0  0  0  0
  -28.8453  -19.7014   20.1085 C   0  0  0  0  0  0
  -29.7529  -21.7459   20.8342 C   0  0  0  0  0  0
  -28.8882  -17.9789   19.8720 C   0  0  0  0  0  0
  -30.5550  -17.7998   21.5487 C   0  0  0  0  0  0
  -30.9822  -19.3233   21.1532 C   0  0  1  0  0  0
  -26.7572  -20.7738   19.0803 C   0  0  0  0  0  0
  -30.8402  -22.5228   21.5033 C   0  0  0  0  0  0
  -32.0610  -19.3001   20.0604 C   0  0  0  0  0  0
  -27.8261  -23.9710   20.0679 C   0  0  0  0  0  0
  -29.8921  -20.2791   20.7572 N   0  0  0  0  0  0
  -29.8606  -16.8587   20.5796 N   0  0  0  0  0  0
  -31.4258  -13.1580   19.1745 H   0  0  0  0  0  0
  -30.5175  -12.0848   20.1838 H   0  0  0  0  0  0
  -29.9495  -11.7700   17.7480 H   0  0  0  0  0  0
  -29.5250  -13.4598   17.6149 H   0  0  0  0  0  0
  -28.0927  -11.2886   19.1597 H   0  0  0  0  0  0
  -27.4235  -12.2780   17.8850 H   0  0  0  0  0  0
  -27.4742  -14.2347   19.2651 H   0  0  0  0  0  0
  -28.8400  -12.6915   21.5204 H   0  0  0  0  0  0
  -28.2215  -14.3244   21.6285 H   0  0  0  0  0  0
  -25.2784   -9.5688   22.4765 H   0  0  0  0  0  0
  -24.0017   -7.4639   22.7473 H   0  0  0  0  0  0
  -21.0868   -8.8786   19.8946 H   0  0  0  0  0  0
  -22.3731  -10.9678   19.6165 H   0  0  0  0  0  0
  -21.2013   -7.6153   23.9721 H   0  0  0  0  0  0
  -21.1480   -6.0525   25.9078 H   0  0  0  0  0  0
  -22.0596   -2.7615   23.2843 H   0  0  0  0  0  0
  -22.4029  -11.9827   22.4867 H   0  0  0  0  0  0
  -21.0990  -13.1141   22.2665 H   0  0  0  0  0  0
  -24.6294  -15.8550   20.5541 H   0  0  0  0  0  0
  -26.2497  -15.6492   20.1202 H   0  0  0  0  0  0
  -26.7448  -32.5023   23.0823 H   0  0  0  0  0  0
  -25.0080  -33.9395   25.0120 H   0  0  0  0  0  0
  -22.8138  -31.2536   21.3330 H   0  0  0  0  0  0
  -23.3771  -35.9479   23.3274 H   0  0  0  0  0  0
  -24.3564  -36.8858   22.2071 H   0  0  0  0  0  0
  -23.7233  -37.6334   23.6736 H   0  0  0  0  0  0
  -26.2640  -31.3120   20.6262 H   0  0  0  0  0  0
  -26.9252  -30.6399   22.0712 H   0  0  0  0  0  0
  -28.1534  -28.4759   21.3095 H   0  0  0  0  0  0
  -25.8434  -25.6767   18.9991 H   0  0  0  0  0  0
  -24.0152  -27.2495   18.9350 H   0  0  0  0  0  0
  -23.9077  -30.4917   19.3834 H   0  0  0  0  0  0
  -22.8482  -29.1886   19.8214 H   0  0  0  0  0  0
  -25.1344  -36.1700   25.0780 H   0  0  0  0  0  0
  -21.0045  -28.3387   24.1289 H   0  0  0  0  0  0
  -20.5670  -26.2390   23.3657 H   0  0  0  0  0  0
  -21.6664  -26.7396   22.1219 H   0  0  0  0  0  0
  -19.6935  -25.6275   21.1280 H   0  0  0  0  0  0
  -19.6719  -27.3157   20.6718 H   0  0  0  0  0  0
  -17.4229  -26.6686   21.4026 H   0  0  0  0  0  0
  -18.0353  -26.0106   22.9035 H   0  0  0  0  0  0
  -19.7978  -30.7333   24.2179 H   0  0  0  0  0  0
  -17.5046  -31.6276   24.5169 H   0  0  0  0  0  0
  -15.5381  -30.2970   23.7710 H   0  0  0  0  0  0
  -15.8711  -28.0807   22.7120 H   0  0  0  0  0  0
  -24.5893  -30.7119   25.7643 H   0  0  0  0  0  0
  -24.8846  -32.3015   26.4579 H   0  0  0  0  0  0
  -25.7898  -30.9094   27.0217 H   0  0  0  0  0  0
  -26.3192  -29.6506   24.1493 H   0  0  0  0  0  0
  -27.3946  -29.7263   25.5219 H   0  0  0  0  0  0
  -27.9168  -30.4001   24.0006 H   0  0  0  0  0  0
  -27.2615  -33.3708   26.1903 H   0  0  0  0  0  0
  -28.3963  -32.6801   25.0397 H   0  0  0  0  0  0
  -28.0616  -31.8584   26.5564 H   0  0  0  0  0  0
  -28.2558  -38.0057   24.7516 H   0  0  0  0  0  0
  -28.1084  -36.2583   24.6295 H   0  0  0  0  0  0
  -27.2280  -37.1382   25.8869 H   0  0  0  0  0  0
  -20.9660  -29.8699   21.6584 H   0  0  0  0  0  0
  -26.0105  -38.2727   24.1431 H   0  0  0  0  0  0
  -29.0229  -17.8163   18.8024 H   0  0  0  0  0  0
  -27.8782  -17.6158   20.0627 H   0  0  0  0  0  0
  -29.9002  -17.8643   22.4186 H   0  0  0  0  0  0
  -31.4493  -17.3012   21.9252 H   0  0  0  0  0  0
  -31.4419  -19.7500   22.0457 H   0  0  0  0  0  0
  -26.3769  -21.7464   18.7683 H   0  0  0  0  0  0
  -26.0084  -20.3053   19.7196 H   0  0  0  0  0  0
  -26.8792  -20.1579   18.1888 H   0  0  0  0  0  0
  -30.6061  -23.5876   21.5253 H   0  0  0  0  0  0
  -31.7878  -22.4043   20.9777 H   0  0  0  0  0  0
  -30.9809  -22.1946   22.5332 H   0  0  0  0  0  0
  -31.6752  -18.8819   19.1306 H   0  0  0  0  0  0
  -32.9151  -18.6962   20.3667 H   0  0  0  0  0  0
  -32.4289  -20.3030   19.8447 H   0  0  0  0  0  0
  -26.8994  -23.8588   20.6310 H   0  0  0  0  0  0
  -27.5003  -23.9489   19.0281 H   0  0  0  0  0  0
  1 25  1  0  0  0
  1 30  2  0  0  0
  1 83  1  0  0  0
  2  3  1  0  0  0
  2 25  1  0  0  0
  2 84  1  0  0  0
  2 85  1  0  0  0
  3  4  1  0  0  0
  3 86  1  0  0  0
  3 87  1  0  0  0
  4  5  1  0  0  0
  4 88  1  0  0  0
  4 89  1  0  0  0
  5  6  1  0  0  0
  5 26  1  0  0  0
  5 90  1  0  0  0
  6 25  1  0  0  0
  6 91  1  0  0  0
  6 92  1  0  0  0
  7  8  2  0  0  0
  7 26  1  0  0  0
  7 29  1  0  0  0
  8  9  1  0  0  0
  8 22  1  0  0  0
  9 10  1  0  0  0
  9 27  2  0  0  0
 10 11  2  0  0  0
 10 15  1  0  0  0
 11 12  1  0  0  0
 11 93  1  0  0  0
 12 13  2  0  0  0
 12 94  1  0  0  0
 13 14  1  0  0  0
 13 31  1  0  0  0
 14 15  2  0  0  0
 14 95  1  0  0  0
 15 96  1  0  0  0
 16 17  2  0  0  0
 16 21  1  0  0  0
 16 31  1  0  0  0
 17 18  1  0  0  0
 17 97  1  0  0  0
 18 19  2  0  0  0
 18 98  1  0  0  0
 19 20  1  0  0  0
 19 24  1  0  0  0
 20 21  2  0  0  0
 20 99  1  0  0  0
 21 23  1  0  0  0
 22 28  1  0  0  0
 22 32  2  0  0  0
 26 27  1  0  0  0
 28100  1  0  0  0
 28101  1  0  0  0
 29102  1  0  0  0
 29103  1  0  0  0
 33 34  1  0  0  0
 33 66  1  0  0  0
 33 70  2  0  0  0
 34 36  1  0  0  0
 34 59  1  0  0  0
 34104  1  0  0  0
 35 44  2  0  0  0
 35 45  1  0  0  0
 35 68  1  0  0  0
 36 56  1  0  0  0
 36105  1  0  0  0
 37 39  1  0  0  0
 37 47  1  0  0  0
 37 66  1  0  0  0
 37106  1  0  0  0
 38 43  2  0  0  0
 38 46  1  0  0  0
 38 47  1  0  0  0
 39 64  1  0  0  0
 39 67  2  0  0  0
 40 52  1  0  0  0
 40 53  2  0  0  0
 40 58  1  0  0  0
 41107  1  0  0  0
 41108  1  0  0  0
 41109  1  0  0  0
 41 48  1  0  0  0
 42 43  1  0  0  0
 42 66  1  0  0  0
 42110  1  0  0  0
 42111  1  0  0  0
 43 44  1  0  0  0
 44112  1  0  0  0
 45 46  2  0  0  0
 45113  1  0  0  0
 46114  1  0  0  0
 47115  1  0  0  0
 47116  1  0  0  0
 48 56  1  0  0  0
 48 65  1  0  0  0
 48117  1  0  0  0
 49 50  1  0  0  0
 49 53  1  0  0  0
 49 64  1  0  0  0
 49118  1  0  0  0
 50 51  1  0  0  0
 50119  1  0  0  0
 50120  1  0  0  0
 51 52  1  0  0  0
 51121  1  0  0  0
 51122  1  0  0  0
 52123  1  0  0  0
 52124  1  0  0  0
 53 54  1  0  0  0
 54 55  2  0  0  0
 54125  1  0  0  0
 55 57  1  0  0  0
 55126  1  0  0  0
 56 69  2  0  0  0
 57 58  2  0  0  0
 57127  1  0  0  0
 58128  1  0  0  0
 59 60  1  0  0  0
 59 61  1  0  0  0
 59 62  1  0  0  0
 60129  1  0  0  0
 60130  1  0  0  0
 60131  1  0  0  0
 61132  1  0  0  0
 61133  1  0  0  0
 61134  1  0  0  0
 62135  1  0  0  0
 62136  1  0  0  0
 62137  1  0  0  0
 63 65  1  0  0  0
 63138  1  0  0  0
 63139  1  0  0  0
 63140  1  0  0  0
 64141  1  0  0  0
 65142  1  0  0  0
 68 81  1  0  0  0
 71 72  1  0  0  0
 71 73  2  0  0  0
 71 78  1  0  0  0
 72 74  2  0  0  0
 72 81  1  0  0  0
 73 75  1  0  0  0
 73 82  1  0  0  0
 74 79  1  0  0  0
 74 82  1  0  0  0
 75 83  1  0  0  0
 75143  1  0  0  0
 75144  1  0  0  0
 76 77  1  0  0  0
 76 83  1  0  0  0
 76145  1  0  0  0
 76146  1  0  0  0
 77 80  1  0  0  0
 77 82  1  0  0  0
 77147  1  0  0  0
 78148  1  0  0  0
 78149  1  0  0  0
 78150  1  0  0  0
 79151  1  0  0  0
 79152  1  0  0  0
 79153  1  0  0  0
 80154  1  0  0  0
 80155  1  0  0  0
 80156  1  0  0  0
 81157  1  0  0  0
 81158  1  0  0  0
M  ISO  4   1 100  68 101  81 101  83 100
M  END
> <chiral flag>
0

> <version>
0

> <s_m_source_file>
/data/baiqing/PycharmProjects/Reinvent-master-3.2/result/LINK_invent/BTK/process_docking_weight1_custom_sum_contain_oxygen_bond_distance_aromatic_linkinvent_7_9_3/rearranged_h_0177.sdf

> <i_m_source_file_index>
37

> <r_mmod_Potential_Energy-OPLS-2005>
1822.83837890625

> <r_mmod_Stretch_Energy-OPLS-2005>
722.283874511719

> <r_mmod_Bend_Energy-OPLS-2005>
551.93603515625

> <r_mmod_Torsional_Energy-OPLS-2005>
330.572692871094

> <r_mmod_Improper_Torsional_Energy-OPLS-2005>
2.92830109596252

> <r_mmod_Van_der_Waal_Energy-OPLS-2005>
106.167922973633

> <r_mmod_Electrostatic_Energy-OPLS-2005>
-344.992218017578

> <r_mmod_Solvation_Energy-OPLS-2005>
-210.670501708984

> <b_mmod_Minimization_Converged-OPLS-2005>
0

> <r_mmod_RMS_Derivative-OPLS-2005>
0.40977418422699

$$$$
37
                    3D
 Structure written by MMmdl.
160169  0  0  1  0            999 V2000
  -30.5499  -14.9558   20.4308 C   0  0  0  0  0  0
  -30.4444  -12.6002   19.4992 C   0  0  0  0  0  0
  -29.5215  -12.5468   18.2599 C   0  0  0  0  0  0
  -28.0511  -12.3427   18.6712 C   0  0  0  0  0  0
  -27.6314  -13.2596   19.8502 C   0  0  2  0  0  0
  -28.6775  -13.2791   20.9846 C   0  0  0  0  0  0
  -25.2408  -13.8233   20.5736 C   0  0  0  0  0  0
  -24.1739  -13.0458   20.9255 C   0  0  0  0  0  0
  -24.6389  -11.6957   20.8781 C   0  0  0  0  0  0
  -23.9098  -10.4313   21.0427 C   0  0  0  0  0  0
  -24.3627   -9.4209   21.9191 C   0  0  0  0  0  0
  -23.6293   -8.2240   22.0737 C   0  0  0  0  0  0
  -22.4263   -8.0287   21.3546 C   0  0  0  0  0  0
  -21.9937   -9.0270   20.4643 C   0  0  0  0  0  0
  -22.7282  -10.2149   20.3061 C   0  0  0  0  0  0
  -21.6851   -6.0731   22.5278 C   0  0  0  0  0  0
  -21.4028   -6.5639   23.8217 C   0  0  0  0  0  0
  -21.3658   -5.6788   24.9181 C   0  0  0  0  0  0
  -21.6045   -4.3047   24.7232 C   0  0  0  0  0  0
  -21.8813   -3.8142   23.4350 C   0  0  0  0  0  0
  -21.9200   -4.6958   22.3408 C   0  0  0  0  0  0
  -22.7753  -13.5194   21.1921 C   0  0  0  0  0  0
  -22.1654   -4.2145   21.0983 F   0  0  0  0  0  0
  -21.5627   -3.4530   25.7745 F   0  0  0  0  0  0
  -29.9510  -13.6960   20.3814 N   0  0  0  0  0  0
  -26.2888  -12.9523   20.3314 N   0  0  0  0  0  0
  -25.9335  -11.6651   20.5778 N   0  0  0  0  0  0
  -22.0427  -12.8167   22.0480 N   0  0  0  0  0  0
  -25.4046  -15.1970   20.4093 N   0  0  0  0  0  0
  -31.7583  -15.0087   20.1741 O   0  0  0  0  0  0
  -21.6631   -6.8875   21.4240 O   0  0  0  0  0  0
  -22.3465  -14.5525   20.6795 O   0  0  0  0  0  0
  -24.6407  -31.8409   23.1841 C   0  0  0  0  0  0
  -25.9187  -32.4683   23.8236 C   0  0  1  0  0  0
  -27.2381  -27.1356   20.1531 C   0  0  0  0  0  0
  -25.5923  -33.8494   24.2132 N   0  0  0  0  0  0
  -23.4437  -30.4533   21.5263 C   0  0  2  0  0  0
  -24.9008  -28.8731   20.0971 C   0  0  0  0  0  0
  -22.7551  -29.4511   22.4839 C   0  0  0  0  0  0
  -18.0317  -28.1379   22.8491 C   0  0  0  0  0  0
  -24.1500  -36.7251   23.2651 C   0  0  0  0  0  0
  -25.9982  -30.7153   21.3812 C   0  0  0  0  0  0
  -26.0698  -29.3228   20.7244 C   0  0  0  0  0  0
  -27.2283  -28.4629   20.7398 C   0  0  0  0  0  0
  -26.0462  -26.7757   19.4889 C   0  0  0  0  0  0
  -24.9022  -27.6142   19.4640 C   0  0  0  0  0  0
  -23.6677  -29.7684   20.1475 C   0  0  0  0  0  0
  -25.4129  -36.3025   24.0318 C   0  0  1  0  0  0
  -20.5901  -28.3692   23.1225 C   0  0  2  0  0  0
  -20.6748  -26.9421   22.5283 C   0  0  0  0  0  0
  -19.5767  -26.6503   21.4981 C   0  0  0  0  0  0
  -18.1930  -26.8014   22.1410 C   0  0  0  0  0  0
  -19.1571  -28.8893   23.2826 C   0  0  0  0  0  0
  -18.9486  -30.1525   23.8736 C   0  0  0  0  0  0
  -17.6481  -30.6672   24.0342 C   0  0  0  0  0  0
  -25.9087  -34.9410   23.5038 C   0  0  0  0  0  0
  -16.5337  -29.9123   23.6267 C   0  0  0  0  0  0
  -16.7287  -28.6442   23.0442 C   0  0  0  0  0  0
  -26.4499  -31.6579   25.0712 C   0  0  0  0  0  0
  -25.3669  -31.3759   26.1389 C   0  0  0  0  0  0
  -27.0376  -30.2969   24.6343 C   0  0  0  0  0  0
  -27.6009  -32.4354   25.7509 C   0  0  0  0  0  0
  -27.5575  -37.1778   24.8466 C   0  0  0  0  0  0
  -21.4232  -29.3028   22.3594 N   0  0  0  0  0  0
  -26.4292  -37.3753   23.9405 N   0  0  0  0  0  0
  -24.7127  -31.0263   22.0842 N   0  0  0  0  0  0
  -23.4179  -28.8050   23.2988 O   0  0  0  0  0  0
  -28.3297  -26.2102   20.3168 O   0  0  0  0  0  0
  -26.5707  -34.8916   22.4635 O   0  0  0  0  0  0
  -23.5541  -32.1269   23.7069 O   0  0  0  0  0  0
  -25.1172  -21.7074   20.3632 C   0  0  0  0  0  0
  -24.9528  -20.2833   20.8333 C   0  0  0  0  0  0
  -29.6533  -20.6367   20.0192 C   0  0  0  0  0  0
  -27.9556  -19.3509   21.0560 C   0  0  0  0  0  0
  -29.1950  -19.0406   20.1853 C   0  0  1  0  0  0
  -26.1564  -21.0964   21.2882 C   0  0  0  0  0  0
  -28.5243  -21.7043   20.5790 C   0  0  1  0  0  0
  -30.1763  -17.6975   20.5740 C   0  0  0  0  0  0
  -27.9623  -23.2439   20.0462 C   0  0  0  0  0  0
  -28.6224  -24.7734   19.7772 C   0  0  0  0  0  0
  -29.7823  -16.1532   20.5593 N   0  0  0  0  0  0
  -27.4180  -20.6927   20.6215 N   0  3  1  0  0  0
  -31.4743  -12.7637   19.1826 H   0  0  0  0  0  0
  -30.4435  -11.6458   20.0292 H   0  0  0  0  0  0
  -29.8400  -11.7528   17.5806 H   0  0  0  0  0  0
  -29.6166  -13.4827   17.7048 H   0  0  0  0  0  0
  -27.9295  -11.2948   18.9493 H   0  0  0  0  0  0
  -27.3940  -12.5132   17.8153 H   0  0  0  0  0  0
  -27.5960  -14.2691   19.4385 H   0  0  0  0  0  0
  -28.7690  -12.2991   21.4577 H   0  0  0  0  0  0
  -28.3797  -13.9782   21.7678 H   0  0  0  0  0  0
  -25.2792   -9.5659   22.4756 H   0  0  0  0  0  0
  -24.0009   -7.4627   22.7438 H   0  0  0  0  0  0
  -21.0875   -8.8822   19.8927 H   0  0  0  0  0  0
  -22.3781  -10.9689   19.6133 H   0  0  0  0  0  0
  -21.2018   -7.6147   23.9728 H   0  0  0  0  0  0
  -21.1483   -6.0513   25.9090 H   0  0  0  0  0  0
  -22.0593   -2.7601   23.2864 H   0  0  0  0  0  0
  -22.4055  -11.9827   22.4875 H   0  0  0  0  0  0
  -21.1025  -13.1150   22.2648 H   0  0  0  0  0  0
  -24.6298  -15.8436   20.5072 H   0  0  0  0  0  0
  -26.2335  -15.6388   20.0351 H   0  0  0  0  0  0
  -26.7241  -32.5287   23.0956 H   0  0  0  0  0  0
  -24.9994  -33.9605   25.0223 H   0  0  0  0  0  0
  -22.7430  -31.2754   21.3662 H   0  0  0  0  0  0
  -23.3777  -35.9580   23.3313 H   0  0  0  0  0  0
  -24.3554  -36.8905   22.2071 H   0  0  0  0  0  0
  -23.7250  -37.6438   23.6699 H   0  0  0  0  0  0
  -26.1605  -31.4691   20.6097 H   0  0  0  0  0  0
  -26.8646  -30.7616   22.0288 H   0  0  0  0  0  0
  -28.1085  -28.7959   21.2667 H   0  0  0  0  0  0
  -25.9739  -25.7930   19.0402 H   0  0  0  0  0  0
  -24.0027  -27.2670   18.9735 H   0  0  0  0  0  0
  -23.7764  -30.5367   19.3800 H   0  0  0  0  0  0
  -22.7893  -29.1872   19.8581 H   0  0  0  0  0  0
  -25.1325  -36.1853   25.0820 H   0  0  0  0  0  0
  -20.9996  -28.3240   24.1331 H   0  0  0  0  0  0
  -20.5604  -26.2209   23.3379 H   0  0  0  0  0  0
  -21.6629  -26.7433   22.1119 H   0  0  0  0  0  0
  -19.6945  -25.6499   21.0822 H   0  0  0  0  0  0
  -19.6714  -27.3521   20.6684 H   0  0  0  0  0  0
  -17.4229  -26.6985   21.3728 H   0  0  0  0  0  0
  -18.0239  -26.0056   22.8681 H   0  0  0  0  0  0
  -19.7997  -30.7423   24.1866 H   0  0  0  0  0  0
  -17.5094  -31.6507   24.4680 H   0  0  0  0  0  0
  -15.5314  -30.3066   23.7432 H   0  0  0  0  0  0
  -15.8742  -28.0654   22.7199 H   0  0  0  0  0  0
  -24.5857  -30.7124   25.7639 H   0  0  0  0  0  0
  -24.8885  -32.2975   26.4749 H   0  0  0  0  0  0
  -25.7957  -30.8933   27.0189 H   0  0  0  0  0  0
  -26.3018  -29.6665   24.1356 H   0  0  0  0  0  0
  -27.3939  -29.7299   25.4946 H   0  0  0  0  0  0
  -27.8934  -30.4149   23.9688 H   0  0  0  0  0  0
  -27.2574  -33.3646   26.2042 H   0  0  0  0  0  0
  -28.3864  -32.6924   25.0396 H   0  0  0  0  0  0
  -28.0639  -31.8535   26.5488 H   0  0  0  0  0  0
  -28.2590  -38.0072   24.7516 H   0  0  0  0  0  0
  -28.1071  -36.2611   24.6291 H   0  0  0  0  0  0
  -27.2299  -37.1428   25.8869 H   0  0  0  0  0  0
  -20.9455  -29.8712   21.6783 H   0  0  0  0  0  0
  -26.0155  -38.2833   24.1373 H   0  0  0  0  0  0
  -24.4441  -22.4580   20.7766 H   0  0  0  0  0  0
  -25.3732  -21.8570   19.3103 H   0  0  0  0  0  0
  -25.0989  -19.5208   20.0684 H   0  0  0  0  0  0
  -24.1645  -20.0748   21.5509 H   0  0  0  0  0  0
  -29.8583  -20.8455   18.9710 H   0  0  0  0  0  0
  -30.5959  -20.8152   20.5402 H   0  0  0  0  0  0
  -28.2328  -19.3923   22.1121 H   0  0  0  0  0  0
  -27.2022  -18.5694   20.9502 H   0  0  0  0  0  0
  -28.7996  -18.7790   19.2034 H   0  0  0  0  0  0
  -26.2349  -21.4116   22.3280 H   0  0  0  0  0  0
  -28.8016  -21.8699   21.6236 H   0  0  0  0  0  0
  -30.5670  -17.8854   21.5765 H   0  0  0  0  0  0
  -31.0584  -17.7601   19.9314 H   0  0  0  0  0  0
  -27.1507  -23.4880   20.7287 H   0  0  0  0  0  0
  -27.4585  -23.0412   19.1016 H   0  0  0  0  0  0
  -28.6132  -24.9061   18.6959 H   0  0  0  0  0  0
  -29.6811  -24.6474   20.0101 H   0  0  0  0  0  0
  -28.8023  -15.9732   20.7247 H   0  0  0  0  0  0
  -27.1693  -20.5558   19.6504 H   0  0  0  0  0  0
  1 25  1  0  0  0
  1 30  2  0  0  0
  1 81  1  0  0  0
  2  3  1  0  0  0
  2 25  1  0  0  0
  2 83  1  0  0  0
  2 84  1  0  0  0
  3  4  1  0  0  0
  3 85  1  0  0  0
  3 86  1  0  0  0
  4  5  1  0  0  0
  4 87  1  0  0  0
  4 88  1  0  0  0
  5  6  1  0  0  0
  5 26  1  0  0  0
  5 89  1  0  0  0
  6 25  1  0  0  0
  6 90  1  0  0  0
  6 91  1  0  0  0
  7  8  2  0  0  0
  7 26  1  0  0  0
  7 29  1  0  0  0
  8  9  1  0  0  0
  8 22  1  0  0  0
  9 10  1  0  0  0
  9 27  2  0  0  0
 10 11  2  0  0  0
 10 15  1  0  0  0
 11 12  1  0  0  0
 11 92  1  0  0  0
 12 13  2  0  0  0
 12 93  1  0  0  0
 13 14  1  0  0  0
 13 31  1  0  0  0
 14 15  2  0  0  0
 14 94  1  0  0  0
 15 95  1  0  0  0
 16 17  2  0  0  0
 16 21  1  0  0  0
 16 31  1  0  0  0
 17 18  1  0  0  0
 17 96  1  0  0  0
 18 19  2  0  0  0
 18 97  1  0  0  0
 19 20  1  0  0  0
 19 24  1  0  0  0
 20 21  2  0  0  0
 20 98  1  0  0  0
 21 23  1  0  0  0
 22 28  1  0  0  0
 22 32  2  0  0  0
 26 27  1  0  0  0
 28 99  1  0  0  0
 28100  1  0  0  0
 29101  1  0  0  0
 29102  1  0  0  0
 33 34  1  0  0  0
 33 66  1  0  0  0
 33 70  2  0  0  0
 34 36  1  0  0  0
 34 59  1  0  0  0
 34103  1  0  0  0
 35 44  2  0  0  0
 35 45  1  0  0  0
 35 68  1  0  0  0
 36 56  1  0  0  0
 36104  1  0  0  0
 37 39  1  0  0  0
 37 47  1  0  0  0
 37 66  1  0  0  0
 37105  1  0  0  0
 38 43  2  0  0  0
 38 46  1  0  0  0
 38 47  1  0  0  0
 39 64  1  0  0  0
 39 67  2  0  0  0
 40 52  1  0  0  0
 40 53  2  0  0  0
 40 58  1  0  0  0
 41106  1  0  0  0
 41107  1  0  0  0
 41108  1  0  0  0
 41 48  1  0  0  0
 42 43  1  0  0  0
 42 66  1  0  0  0
 42109  1  0  0  0
 42110  1  0  0  0
 43 44  1  0  0  0
 44111  1  0  0  0
 45 46  2  0  0  0
 45112  1  0  0  0
 46113  1  0  0  0
 47114  1  0  0  0
 47115  1  0  0  0
 48 56  1  0  0  0
 48 65  1  0  0  0
 48116  1  0  0  0
 49 50  1  0  0  0
 49 53  1  0  0  0
 49 64  1  0  0  0
 49117  1  0  0  0
 50 51  1  0  0  0
 50118  1  0  0  0
 50119  1  0  0  0
 51 52  1  0  0  0
 51120  1  0  0  0
 51121  1  0  0  0
 52122  1  0  0  0
 52123  1  0  0  0
 53 54  1  0  0  0
 54 55  2  0  0  0
 54124  1  0  0  0
 55 57  1  0  0  0
 55125  1  0  0  0
 56 69  2  0  0  0
 57 58  2  0  0  0
 57126  1  0  0  0
 58127  1  0  0  0
 59 60  1  0  0  0
 59 61  1  0  0  0
 59 62  1  0  0  0
 60128  1  0  0  0
 60129  1  0  0  0
 60130  1  0  0  0
 61131  1  0  0  0
 61132  1  0  0  0
 61133  1  0  0  0
 62134  1  0  0  0
 62135  1  0  0  0
 62136  1  0  0  0
 63 65  1  0  0  0
 63137  1  0  0  0
 63138  1  0  0  0
 63139  1  0  0  0
 64140  1  0  0  0
 65141  1  0  0  0
 68 80  1  0  0  0
 71 72  1  0  0  0
 71142  1  0  0  0
 71143  1  0  0  0
 71 76  1  0  0  0
 72 76  1  0  0  0
 72144  1  0  0  0
 72145  1  0  0  0
 73 75  1  0  0  0
 73 77  1  0  0  0
 73146  1  0  0  0
 73147  1  0  0  0
 74 75  1  0  0  0
 74148  1  0  0  0
 74149  1  0  0  0
 74 82  1  0  0  0
 75 78  1  0  0  0
 75150  1  0  0  0
 76 82  1  0  0  0
 76151  1  0  0  0
 77 79  1  0  0  0
 77 82  1  0  0  0
 77152  1  0  0  0
 78 81  1  0  0  0
 78153  1  0  0  0
 78154  1  0  0  0
 79 80  1  0  0  0
 79155  1  0  0  0
 79156  1  0  0  0
 80157  1  0  0  0
 80158  1  0  0  0
 81159  1  0  0  0
 82160  1  0  0  0
M  CHG  1  82   1
M  ISO  4   1 100  68 101  80 101  81 100
M  END
> <chiral flag>
0

> <version>
0

> <s_m_source_file>
/data/baiqing/PycharmProjects/Reinvent-master-3.2/result/LINK_invent/BTK/process_docking_weight1_custom_sum_contain_oxygen_bond_distance_aromatic_linkinvent_7_9_3/rearranged_h_0177.sdf

> <i_m_source_file_index>
38

> <r_mmod_Potential_Energy-OPLS-2005>
652.714172363281

> <r_mmod_Stretch_Energy-OPLS-2005>
290.654479980469

> <r_mmod_Bend_Energy-OPLS-2005>
431.838226318359

> <r_mmod_Torsional_Energy-OPLS-2005>
314.295837402344

> <r_mmod_Improper_Torsional_Energy-OPLS-2005>
4.83017349243164

> <r_mmod_Van_der_Waal_Energy-OPLS-2005>
103.050132751465

> <r_mmod_Electrostatic_Energy-OPLS-2005>
-216.360992431641

> <r_mmod_Solvation_Energy-OPLS-2005>
-468.996490478516

> <b_mmod_Minimization_Converged-OPLS-2005>
0

> <r_mmod_RMS_Derivative-OPLS-2005>
6.16067600250244

$$$$
38
                    3D
 Structure written by MMmdl.
150159  0  0  1  0            999 V2000
  -30.5843  -14.8338   20.4405 C   0  0  0  0  0  0
  -30.4393  -12.5115   19.4856 C   0  0  0  0  0  0
  -29.5170  -12.5166   18.2452 C   0  0  0  0  0  0
  -28.0455  -12.3247   18.6602 C   0  0  0  0  0  0
  -27.6383  -13.2389   19.8461 C   0  0  2  0  0  0
  -28.6835  -13.2140   20.9829 C   0  0  0  0  0  0
  -25.2496  -13.8204   20.5701 C   0  0  0  0  0  0
  -24.1798  -13.0440   20.9218 C   0  0  0  0  0  0
  -24.6400  -11.6922   20.8752 C   0  0  0  0  0  0
  -23.9078  -10.4295   21.0407 C   0  0  0  0  0  0
  -24.3626   -9.4208   21.9184 C   0  0  0  0  0  0
  -23.6298   -8.2244   22.0753 C   0  0  0  0  0  0
  -22.4280   -8.0283   21.3544 C   0  0  0  0  0  0
  -21.9918   -9.0258   20.4646 C   0  0  0  0  0  0
  -22.7249  -10.2136   20.3056 C   0  0  0  0  0  0
  -21.6855   -6.0737   22.5278 C   0  0  0  0  0  0
  -21.4016   -6.5640   23.8212 C   0  0  0  0  0  0
  -21.3660   -5.6793   24.9173 C   0  0  0  0  0  0
  -21.6045   -4.3056   24.7224 C   0  0  0  0  0  0
  -21.8819   -3.8147   23.4345 C   0  0  0  0  0  0
  -21.9193   -4.6964   22.3401 C   0  0  0  0  0  0
  -22.7818  -13.5217   21.1874 C   0  0  0  0  0  0
  -22.1661   -4.2149   21.0979 F   0  0  0  0  0  0
  -21.5629   -3.4539   25.7737 F   0  0  0  0  0  0
  -29.9750  -13.5909   20.3943 N   0  0  0  0  0  0
  -26.2926  -12.9424   20.3269 N   0  0  0  0  0  0
  -25.9333  -11.6560   20.5749 N   0  0  0  0  0  0
  -22.0466  -12.8205   22.0430 N   0  0  0  0  0  0
  -25.4165  -15.1932   20.4108 N   0  0  0  0  0  0
  -31.7814  -14.9195   20.1508 O   0  0  0  0  0  0
  -21.6643   -6.8881   21.4241 O   0  0  0  0  0  0
  -22.3501  -14.5520   20.6718 O   0  0  0  0  0  0
  -24.6399  -31.8505   23.1961 C   0  0  0  0  0  0
  -25.9194  -32.4730   23.8323 C   0  0  1  0  0  0
  -27.2085  -27.1844   20.1307 C   0  0  0  0  0  0
  -25.5962  -33.8534   24.2237 N   0  0  0  0  0  0
  -23.4400  -30.4760   21.5416 C   0  0  2  0  0  0
  -24.8870  -28.9227   20.1082 C   0  0  0  0  0  0
  -22.7550  -29.4585   22.4881 C   0  0  0  0  0  0
  -18.0303  -28.1393   22.8479 C   0  0  0  0  0  0
  -24.1492  -36.7269   23.2640 C   0  0  0  0  0  0
  -25.9959  -30.7381   21.3918 C   0  0  0  0  0  0
  -26.0657  -29.3570   20.7282 C   0  0  0  0  0  0
  -27.2283  -28.5025   20.7296 C   0  0  0  0  0  0
  -26.0035  -26.8591   19.4590 C   0  0  0  0  0  0
  -24.8665  -27.6844   19.4602 C   0  0  0  0  0  0
  -23.6629  -29.8183   20.1568 C   0  0  0  0  0  0
  -25.4122  -36.3052   24.0320 C   0  0  1  0  0  0
  -20.5914  -28.3718   23.1241 C   0  0  2  0  0  0
  -20.6791  -26.9427   22.5399 C   0  0  0  0  0  0
  -19.5762  -26.6384   21.5209 C   0  0  0  0  0  0
  -18.1944  -26.7932   22.1624 C   0  0  0  0  0  0
  -19.1558  -28.8872   23.2854 C   0  0  0  0  0  0
  -18.9475  -30.1468   23.8880 C   0  0  0  0  0  0
  -17.6472  -30.6591   24.0559 C   0  0  0  0  0  0
  -25.9070  -34.9424   23.5081 C   0  0  0  0  0  0
  -16.5363  -29.9084   23.6335 C   0  0  0  0  0  0
  -16.7287  -28.6502   23.0357 C   0  0  0  0  0  0
  -26.4526  -31.6576   25.0742 C   0  0  0  0  0  0
  -25.3719  -31.3752   26.1441 C   0  0  0  0  0  0
  -27.0386  -30.2975   24.6299 C   0  0  0  0  0  0
  -27.6063  -32.4332   25.7524 C   0  0  0  0  0  0
  -27.5577  -37.1795   24.8466 C   0  0  0  0  0  0
  -21.4247  -29.3056   22.3623 N   0  0  0  0  0  0
  -26.4291  -37.3758   23.9406 N   0  0  0  0  0  0
  -24.7115  -31.0406   22.0981 N   0  0  0  0  0  0
  -23.4216  -28.8114   23.2998 O   0  0  0  0  0  0
  -28.2439  -26.1887   20.2138 O   0  0  0  0  0  0
  -26.5642  -34.8908   22.4651 O   0  0  0  0  0  0
  -23.5527  -32.1364   23.7205 O   0  0  0  0  0  0
  -29.3135  -22.6371   19.1656 C   0  0  0  0  0  0
  -29.5928  -21.2221   19.2224 C   0  0  0  0  0  0
  -28.3325  -22.4440   21.2919 C   0  0  0  0  0  0
  -28.6138  -23.3268   20.2009 C   0  0  0  0  0  0
  -29.1948  -20.3962   20.3176 C   0  0  0  0  0  0
  -29.6486  -18.0525   19.0906 C   0  0  0  0  0  0
  -29.1144  -18.7633   20.3101 C   0  0  1  0  0  0
  -30.1352  -17.4713   20.3951 C   0  0  1  0  0  0
  -27.8291  -24.7331   19.9601 C   0  0  0  0  0  0
  -28.6068  -21.0818   21.3508 N   0  0  0  0  0  0
  -29.7952  -15.9867   20.5735 N   0  0  0  0  0  0
  -31.4772  -12.6511   19.1788 H   0  0  0  0  0  0
  -30.4048  -11.5451   19.9909 H   0  0  0  0  0  0
  -29.8149  -11.7321   17.5483 H   0  0  0  0  0  0
  -29.6270  -13.4608   17.7093 H   0  0  0  0  0  0
  -27.9186  -11.2789   18.9419 H   0  0  0  0  0  0
  -27.3857  -12.4919   17.8080 H   0  0  0  0  0  0
  -27.6189  -14.2522   19.4444 H   0  0  0  0  0  0
  -28.7405  -12.2257   21.4413 H   0  0  0  0  0  0
  -28.4045  -13.9065   21.7788 H   0  0  0  0  0  0
  -25.2769   -9.5684   22.4762 H   0  0  0  0  0  0
  -24.0006   -7.4636   22.7474 H   0  0  0  0  0  0
  -21.0849   -8.8780   19.8953 H   0  0  0  0  0  0
  -22.3706  -10.9676   19.6168 H   0  0  0  0  0  0
  -21.2008   -7.6149   23.9715 H   0  0  0  0  0  0
  -21.1483   -6.0523   25.9077 H   0  0  0  0  0  0
  -22.0597   -2.7610   23.2845 H   0  0  0  0  0  0
  -22.4088  -11.9871   22.4821 H   0  0  0  0  0  0
  -21.1081  -13.1224   22.2635 H   0  0  0  0  0  0
  -24.6438  -15.8418   20.5161 H   0  0  0  0  0  0
  -26.2529  -15.6327   20.0498 H   0  0  0  0  0  0
  -26.7260  -32.5349   23.1056 H   0  0  0  0  0  0
  -25.0102  -33.9662   25.0378 H   0  0  0  0  0  0
  -22.7400  -31.3014   21.3956 H   0  0  0  0  0  0
  -23.3757  -35.9598   23.3297 H   0  0  0  0  0  0
  -24.3580  -36.8900   22.2055 H   0  0  0  0  0  0
  -23.7244  -37.6465   23.6673 H   0  0  0  0  0  0
  -26.1504  -31.4975   20.6242 H   0  0  0  0  0  0
  -26.8673  -30.7819   22.0334 H   0  0  0  0  0  0
  -28.1216  -28.8262   21.2452 H   0  0  0  0  0  0
  -25.8771  -25.9262   18.9339 H   0  0  0  0  0  0
  -23.9693  -27.3496   18.9578 H   0  0  0  0  0  0
  -23.7967  -30.5987   19.4069 H   0  0  0  0  0  0
  -22.7782  -29.2608   19.8439 H   0  0  0  0  0  0
  -25.1307  -36.1891   25.0813 H   0  0  0  0  0  0
  -21.0006  -28.3302   24.1362 H   0  0  0  0  0  0
  -20.5690  -26.2331   23.3614 H   0  0  0  0  0  0
  -21.6657  -26.7442   22.1192 H   0  0  0  0  0  0
  -19.6924  -25.6289   21.1253 H   0  0  0  0  0  0
  -19.6695  -27.3181   20.6729 H   0  0  0  0  0  0
  -17.4211  -26.6672   21.4031 H   0  0  0  0  0  0
  -18.0349  -26.0079   22.9027 H   0  0  0  0  0  0
  -19.7950  -30.7289   24.2244 H   0  0  0  0  0  0
  -17.5026  -31.6270   24.5162 H   0  0  0  0  0  0
  -15.5363  -30.2980   23.7669 H   0  0  0  0  0  0
  -15.8688  -28.0813   22.7087 H   0  0  0  0  0  0
  -24.5905  -30.7091   25.7763 H   0  0  0  0  0  0
  -24.8899  -32.2929   26.4821 H   0  0  0  0  0  0
  -25.8011  -30.8957   27.0248 H   0  0  0  0  0  0
  -26.2999  -29.6707   24.1291 H   0  0  0  0  0  0
  -27.3991  -29.7263   25.4864 H   0  0  0  0  0  0
  -27.8913  -30.4217   23.9621 H   0  0  0  0  0  0
  -27.2661  -33.3646   26.2063 H   0  0  0  0  0  0
  -28.3895  -32.6872   25.0369 H   0  0  0  0  0  0
  -28.0708  -31.8483   26.5473 H   0  0  0  0  0  0
  -28.2593  -38.0092   24.7507 H   0  0  0  0  0  0
  -28.1075  -36.2622   24.6302 H   0  0  0  0  0  0
  -27.2293  -37.1453   25.8869 H   0  0  0  0  0  0
  -20.9447  -29.8785   21.6823 H   0  0  0  0  0  0
  -26.0162  -38.2829   24.1401 H   0  0  0  0  0  0
  -29.5423  -23.1676   18.2524 H   0  0  0  0  0  0
  -30.0325  -20.7618   18.3489 H   0  0  0  0  0  0
  -27.7495  -22.8153   22.1219 H   0  0  0  0  0  0
  -30.4176  -18.5384   18.4946 H   0  0  0  0  0  0
  -28.9207  -17.4919   18.5077 H   0  0  0  0  0  0
  -28.0917  -18.5215   20.5930 H   0  0  0  0  0  0
  -31.1444  -17.7383   20.7040 H   0  0  0  0  0  0
  -26.8867  -24.5864   20.4905 H   0  0  0  0  0  0
  -27.5855  -24.6851   18.8985 H   0  0  0  0  0  0
  -28.8271  -15.7953   20.7835 H   0  0  0  0  0  0
  1 25  1  0  0  0
  1 30  2  0  0  0
  1 81  1  0  0  0
  2  3  1  0  0  0
  2 25  1  0  0  0
  2 82  1  0  0  0
  2 83  1  0  0  0
  3  4  1  0  0  0
  3 84  1  0  0  0
  3 85  1  0  0  0
  4  5  1  0  0  0
  4 86  1  0  0  0
  4 87  1  0  0  0
  5  6  1  0  0  0
  5 26  1  0  0  0
  5 88  1  0  0  0
  6 25  1  0  0  0
  6 89  1  0  0  0
  6 90  1  0  0  0
  7  8  2  0  0  0
  7 26  1  0  0  0
  7 29  1  0  0  0
  8  9  1  0  0  0
  8 22  1  0  0  0
  9 10  1  0  0  0
  9 27  2  0  0  0
 10 11  2  0  0  0
 10 15  1  0  0  0
 11 12  1  0  0  0
 11 91  1  0  0  0
 12 13  2  0  0  0
 12 92  1  0  0  0
 13 14  1  0  0  0
 13 31  1  0  0  0
 14 15  2  0  0  0
 14 93  1  0  0  0
 15 94  1  0  0  0
 16 17  2  0  0  0
 16 21  1  0  0  0
 16 31  1  0  0  0
 17 18  1  0  0  0
 17 95  1  0  0  0
 18 19  2  0  0  0
 18 96  1  0  0  0
 19 20  1  0  0  0
 19 24  1  0  0  0
 20 21  2  0  0  0
 20 97  1  0  0  0
 21 23  1  0  0  0
 22 28  1  0  0  0
 22 32  2  0  0  0
 26 27  1  0  0  0
 28 98  1  0  0  0
 28 99  1  0  0  0
 29100  1  0  0  0
 29101  1  0  0  0
 33 34  1  0  0  0
 33 66  1  0  0  0
 33 70  2  0  0  0
 34 36  1  0  0  0
 34 59  1  0  0  0
 34102  1  0  0  0
 35 44  2  0  0  0
 35 45  1  0  0  0
 35 68  1  0  0  0
 36 56  1  0  0  0
 36103  1  0  0  0
 37 39  1  0  0  0
 37 47  1  0  0  0
 37 66  1  0  0  0
 37104  1  0  0  0
 38 43  2  0  0  0
 38 46  1  0  0  0
 38 47  1  0  0  0
 39 64  1  0  0  0
 39 67  2  0  0  0
 40 52  1  0  0  0
 40 53  2  0  0  0
 40 58  1  0  0  0
 41105  1  0  0  0
 41106  1  0  0  0
 41107  1  0  0  0
 41 48  1  0  0  0
 42 43  1  0  0  0
 42 66  1  0  0  0
 42108  1  0  0  0
 42109  1  0  0  0
 43 44  1  0  0  0
 44110  1  0  0  0
 45 46  2  0  0  0
 45111  1  0  0  0
 46112  1  0  0  0
 47113  1  0  0  0
 47114  1  0  0  0
 48 56  1  0  0  0
 48 65  1  0  0  0
 48115  1  0  0  0
 49 50  1  0  0  0
 49 53  1  0  0  0
 49 64  1  0  0  0
 49116  1  0  0  0
 50 51  1  0  0  0
 50117  1  0  0  0
 50118  1  0  0  0
 51 52  1  0  0  0
 51119  1  0  0  0
 51120  1  0  0  0
 52121  1  0  0  0
 52122  1  0  0  0
 53 54  1  0  0  0
 54 55  2  0  0  0
 54123  1  0  0  0
 55 57  1  0  0  0
 55124  1  0  0  0
 56 69  2  0  0  0
 57 58  2  0  0  0
 57125  1  0  0  0
 58126  1  0  0  0
 59 60  1  0  0  0
 59 61  1  0  0  0
 59 62  1  0  0  0
 60127  1  0  0  0
 60128  1  0  0  0
 60129  1  0  0  0
 61130  1  0  0  0
 61131  1  0  0  0
 61132  1  0  0  0
 62133  1  0  0  0
 62134  1  0  0  0
 62135  1  0  0  0
 63 65  1  0  0  0
 63136  1  0  0  0
 63137  1  0  0  0
 63138  1  0  0  0
 64139  1  0  0  0
 65140  1  0  0  0
 68 79  1  0  0  0
 71 72  2  0  0  0
 71 74  1  0  0  0
 71141  1  0  0  0
 72 75  1  0  0  0
 72142  1  0  0  0
 73 74  2  0  0  0
 73 80  1  0  0  0
 73143  1  0  0  0
 74 79  1  0  0  0
 75 80  2  0  0  0
 75 77  1  0  0  0
 76 77  1  0  0  0
 76 78  1  0  0  0
 76144  1  0  0  0
 76145  1  0  0  0
 77 78  1  0  0  0
 77146  1  0  0  0
 78 81  1  0  0  0
 78147  1  0  0  0
 79148  1  0  0  0
 79149  1  0  0  0
 81150  1  0  0  0
M  ISO  4   1 100  68 101  79 101  81 100
M  END
> <chiral flag>
0

> <version>
0

> <s_m_source_file>
/data/baiqing/PycharmProjects/Reinvent-master-3.2/result/LINK_invent/BTK/process_docking_weight1_custom_sum_contain_oxygen_bond_distance_aromatic_linkinvent_7_9_3/rearranged_h_0177.sdf

> <i_m_source_file_index>
39

> <r_mmod_Potential_Energy-OPLS-2005>
300.844116210938

> <r_mmod_Stretch_Energy-OPLS-2005>
184.259765625

> <r_mmod_Bend_Energy-OPLS-2005>
227.220932006836

> <r_mmod_Torsional_Energy-OPLS-2005>
286.979461669922

> <r_mmod_Improper_Torsional_Energy-OPLS-2005>
11.9641981124878

> <r_mmod_Van_der_Waal_Energy-OPLS-2005>
144.374313354492

> <r_mmod_Electrostatic_Energy-OPLS-2005>
-464.594329833984

> <r_mmod_Solvation_Energy-OPLS-2005>
-229.561676025391

> <b_mmod_Minimization_Converged-OPLS-2005>
0

> <r_mmod_RMS_Derivative-OPLS-2005>
0.13677866756916

$$$$
39
                    3D
 Structure written by MMmdl.
151159  0  0  1  0            999 V2000
  -30.4599  -15.2277   20.3762 C   0  0  0  0  0  0
  -30.4374  -12.7852   19.5243 C   0  0  0  0  0  0
  -29.5353  -12.5685   18.2842 C   0  0  0  0  0  0
  -28.0814  -12.2982   18.7084 C   0  0  0  0  0  0
  -27.6126  -13.2710   19.8208 C   0  0  2  0  0  0
  -28.6446  -13.4382   20.9570 C   0  0  0  0  0  0
  -25.2408  -13.8245   20.5724 C   0  0  0  0  0  0
  -24.1754  -13.0443   20.9233 C   0  0  0  0  0  0
  -24.6396  -11.6930   20.8748 C   0  0  0  0  0  0
  -23.9100  -10.4298   21.0413 C   0  0  0  0  0  0
  -24.3650   -9.4211   21.9188 C   0  0  0  0  0  0
  -23.6319   -8.2250   22.0764 C   0  0  0  0  0  0
  -22.4297   -8.0294   21.3559 C   0  0  0  0  0  0
  -21.9935   -9.0260   20.4655 C   0  0  0  0  0  0
  -22.7273  -10.2135   20.3061 C   0  0  0  0  0  0
  -21.6855   -6.0753   22.5282 C   0  0  0  0  0  0
  -21.4009   -6.5649   23.8217 C   0  0  0  0  0  0
  -21.3658   -5.6799   24.9178 C   0  0  0  0  0  0
  -21.6047   -4.3062   24.7220 C   0  0  0  0  0  0
  -21.8820   -3.8159   23.4338 C   0  0  0  0  0  0
  -21.9185   -4.6982   22.3396 C   0  0  0  0  0  0
  -22.7776  -13.5208   21.1869 C   0  0  0  0  0  0
  -22.1660   -4.2166   21.0973 F   0  0  0  0  0  0
  -21.5627   -3.4545   25.7726 F   0  0  0  0  0  0
  -29.8827  -13.9305   20.3334 N   0  0  0  0  0  0
  -26.2827  -12.9497   20.3196 N   0  0  0  0  0  0
  -25.9329  -11.6616   20.5709 N   0  0  0  0  0  0
  -22.0425  -12.8204   22.0432 N   0  0  0  0  0  0
  -25.4060  -15.1974   20.4146 N   0  0  0  0  0  0
  -31.6813  -15.2131   20.1656 O   0  0  0  0  0  0
  -21.6650   -6.8897   21.4251 O   0  0  0  0  0  0
  -22.3454  -14.5503   20.6699 O   0  0  0  0  0  0
  -24.6612  -31.8271   23.1735 C   0  0  0  0  0  0
  -25.9311  -32.4608   23.8184 C   0  0  1  0  0  0
  -27.2043  -26.9517   20.1824 C   0  0  0  0  0  0
  -25.6004  -33.8422   24.2094 N   0  0  0  0  0  0
  -23.4733  -30.4437   21.5220 C   0  0  2  0  0  0
  -24.9250  -28.8412   20.1108 C   0  0  0  0  0  0
  -22.7663  -29.4474   22.4780 C   0  0  0  0  0  0
  -18.0322  -28.1421   22.8467 C   0  0  0  0  0  0
  -24.1482  -36.7200   23.2648 C   0  0  0  0  0  0
  -26.0425  -30.6437   21.4009 C   0  0  0  0  0  0
  -26.1087  -29.2364   20.7453 C   0  0  0  0  0  0
  -27.2450  -28.3109   20.7614 C   0  0  0  0  0  0
  -25.9939  -26.7114   19.4925 C   0  0  0  0  0  0
  -24.8918  -27.5986   19.4647 C   0  0  0  0  0  0
  -23.7124  -29.7675   20.1449 C   0  0  0  0  0  0
  -25.4119  -36.2969   24.0309 C   0  0  1  0  0  0
  -20.5948  -28.3759   23.1189 C   0  0  2  0  0  0
  -20.6808  -26.9451   22.5400 C   0  0  0  0  0  0
  -19.5777  -26.6383   21.5225 C   0  0  0  0  0  0
  -18.1954  -26.7962   22.1615 C   0  0  0  0  0  0
  -19.1589  -28.8908   23.2817 C   0  0  0  0  0  0
  -18.9511  -30.1502   23.8849 C   0  0  0  0  0  0
  -17.6503  -30.6609   24.0562 C   0  0  0  0  0  0
  -25.9091  -34.9357   23.5010 C   0  0  0  0  0  0
  -16.5386  -29.9096   23.6353 C   0  0  0  0  0  0
  -16.7305  -28.6519   23.0367 C   0  0  0  0  0  0
  -26.4563  -31.6555   25.0705 C   0  0  0  0  0  0
  -25.3689  -31.3848   26.1368 C   0  0  0  0  0  0
  -27.0448  -30.2911   24.6453 C   0  0  0  0  0  0
  -27.6074  -32.4353   25.7498 C   0  0  0  0  0  0
  -27.5555  -37.1747   24.8464 C   0  0  0  0  0  0
  -21.4332  -29.3062   22.3548 N   0  0  0  0  0  0
  -26.4246  -37.3717   23.9440 N   0  0  0  0  0  0
  -24.7469  -30.9971   22.0856 N   0  0  0  0  0  0
  -23.4237  -28.8042   23.3005 O   0  0  0  0  0  0
  -28.1805  -25.8303   20.2727 O   0  0  0  0  0  0
  -26.5675  -34.8899   22.4586 O   0  0  0  0  0  0
  -23.5680  -32.1221   23.6840 O   0  0  0  0  0  0
  -30.0627  -20.8888   20.8502 C   0  0  0  0  0  0
  -29.3691  -19.6769   20.3845 C   0  0  0  0  0  0
  -27.7386  -21.4475   19.7503 C   0  0  0  0  0  0
  -28.4427  -22.6598   20.2065 C   0  0  0  0  0  0
  -26.3694  -21.6059   19.1127 C   0  0  0  0  0  0
  -30.7422  -18.1630   18.7991 C   0  0  0  0  0  0
  -27.7604  -24.2665   20.0493 C   0  0  0  0  0  0
  -30.1174  -18.1062   20.2021 C   0  0  2  0  0  0
  -29.6463  -22.2568   20.7821 N   0  0  0  0  0  0
  -28.1699  -20.0870   19.8121 N   0  0  0  0  0  0
  -29.7207  -16.5105   20.4404 N   0  0  0  0  0  0
  -31.4574  -12.9826   19.1917 H   0  0  0  0  0  0
  -30.5002  -11.8776   20.1262 H   0  0  0  0  0  0
  -29.9131  -11.7422   17.6801 H   0  0  0  0  0  0
  -29.5702  -13.4569   17.6519 H   0  0  0  0  0  0
  -28.0293  -11.2714   19.0723 H   0  0  0  0  0  0
  -27.4151  -12.3512   17.8454 H   0  0  0  0  0  0
  -27.5303  -14.2397   19.3251 H   0  0  0  0  0  0
  -28.8024  -12.5030   21.4963 H   0  0  0  0  0  0
  -28.2850  -14.1640   21.6888 H   0  0  0  0  0  0
  -25.2795   -9.5679   22.4765 H   0  0  0  0  0  0
  -24.0021   -7.4640   22.7487 H   0  0  0  0  0  0
  -21.0864   -8.8783   19.8960 H   0  0  0  0  0  0
  -22.3744  -10.9670   19.6168 H   0  0  0  0  0  0
  -21.2009   -7.6158   23.9725 H   0  0  0  0  0  0
  -21.1479   -6.0528   25.9081 H   0  0  0  0  0  0
  -22.0600   -2.7621   23.2821 H   0  0  0  0  0  0
  -22.4062  -11.9867   22.4802 H   0  0  0  0  0  0
  -21.1048  -13.1227   22.2651 H   0  0  0  0  0  0
  -24.6336  -15.8466   20.5191 H   0  0  0  0  0  0
  -26.2501  -15.6366   20.0723 H   0  0  0  0  0  0
  -26.7389  -32.5140   23.0907 H   0  0  0  0  0  0
  -25.0207  -33.9526   25.0276 H   0  0  0  0  0  0
  -22.7863  -31.2754   21.3537 H   0  0  0  0  0  0
  -23.3765  -35.9507   23.3267 H   0  0  0  0  0  0
  -24.3582  -36.8873   22.2075 H   0  0  0  0  0  0
  -23.7208  -37.6368   23.6713 H   0  0  0  0  0  0
  -26.2216  -31.3881   20.6236 H   0  0  0  0  0  0
  -26.9038  -30.6967   22.0551 H   0  0  0  0  0  0
  -28.1348  -28.6082   21.2972 H   0  0  0  0  0  0
  -25.8448  -25.7688   18.9890 H   0  0  0  0  0  0
  -23.9928  -27.2910   18.9483 H   0  0  0  0  0  0
  -23.8708  -30.5379   19.3898 H   0  0  0  0  0  0
  -22.8228  -29.2242   19.8213 H   0  0  0  0  0  0
  -25.1308  -36.1745   25.0794 H   0  0  0  0  0  0
  -21.0030  -28.3360   24.1313 H   0  0  0  0  0  0
  -20.5705  -26.2392   23.3641 H   0  0  0  0  0  0
  -21.6670  -26.7445   22.1197 H   0  0  0  0  0  0
  -19.6946  -25.6279   21.1291 H   0  0  0  0  0  0
  -19.6715  -27.3163   20.6730 H   0  0  0  0  0  0
  -17.4234  -26.6724   21.4007 H   0  0  0  0  0  0
  -18.0329  -26.0114   22.9008 H   0  0  0  0  0  0
  -19.7995  -30.7333   24.2190 H   0  0  0  0  0  0
  -17.5064  -31.6291   24.5169 H   0  0  0  0  0  0
  -15.5388  -30.2990   23.7723 H   0  0  0  0  0  0
  -15.8707  -28.0826   22.7108 H   0  0  0  0  0  0
  -24.5889  -30.7169   25.7703 H   0  0  0  0  0  0
  -24.8857  -32.3068   26.4607 H   0  0  0  0  0  0
  -25.7906  -30.9153   27.0259 H   0  0  0  0  0  0
  -26.3108  -29.6607   24.1425 H   0  0  0  0  0  0
  -27.3944  -29.7269   25.5110 H   0  0  0  0  0  0
  -27.9071  -30.4106   23.9894 H   0  0  0  0  0  0
  -27.2672  -33.3730   26.1911 H   0  0  0  0  0  0
  -28.3969  -32.6789   25.0373 H   0  0  0  0  0  0
  -28.0649  -31.8577   26.5541 H   0  0  0  0  0  0
  -28.2533  -38.0080   24.7530 H   0  0  0  0  0  0
  -28.1072  -36.2604   24.6219 H   0  0  0  0  0  0
  -27.2296  -37.1308   25.8872 H   0  0  0  0  0  0
  -20.9575  -29.8771   21.6697 H   0  0  0  0  0  0
  -26.0076  -38.2756   24.1486 H   0  0  0  0  0  0
  -31.0543  -20.7641   21.2595 H   0  0  0  0  0  0
  -25.6858  -22.1245   19.7858 H   0  0  0  0  0  0
  -25.9229  -20.6412   18.8715 H   0  0  0  0  0  0
  -26.4392  -22.1782   18.1875 H   0  0  0  0  0  0
  -31.2889  -19.0960   18.6512 H   0  0  0  0  0  0
  -29.9696  -18.1104   18.0315 H   0  0  0  0  0  0
  -31.4508  -17.3546   18.6234 H   0  0  0  0  0  0
  -26.8332  -24.1787   20.6144 H   0  0  0  0  0  0
  -27.4503  -24.2622   19.0051 H   0  0  0  0  0  0
  -30.9534  -18.2039   20.8960 H   0  0  0  0  0  0
  -28.7330  -16.3790   20.5994 H   0  0  0  0  0  0
  1 25  1  0  0  0
  1 30  2  0  0  0
  1 81  1  0  0  0
  2  3  1  0  0  0
  2 25  1  0  0  0
  2 82  1  0  0  0
  2 83  1  0  0  0
  3  4  1  0  0  0
  3 84  1  0  0  0
  3 85  1  0  0  0
  4  5  1  0  0  0
  4 86  1  0  0  0
  4 87  1  0  0  0
  5  6  1  0  0  0
  5 26  1  0  0  0
  5 88  1  0  0  0
  6 25  1  0  0  0
  6 89  1  0  0  0
  6 90  1  0  0  0
  7  8  2  0  0  0
  7 26  1  0  0  0
  7 29  1  0  0  0
  8  9  1  0  0  0
  8 22  1  0  0  0
  9 10  1  0  0  0
  9 27  2  0  0  0
 10 11  2  0  0  0
 10 15  1  0  0  0
 11 12  1  0  0  0
 11 91  1  0  0  0
 12 13  2  0  0  0
 12 92  1  0  0  0
 13 14  1  0  0  0
 13 31  1  0  0  0
 14 15  2  0  0  0
 14 93  1  0  0  0
 15 94  1  0  0  0
 16 17  2  0  0  0
 16 21  1  0  0  0
 16 31  1  0  0  0
 17 18  1  0  0  0
 17 95  1  0  0  0
 18 19  2  0  0  0
 18 96  1  0  0  0
 19 20  1  0  0  0
 19 24  1  0  0  0
 20 21  2  0  0  0
 20 97  1  0  0  0
 21 23  1  0  0  0
 22 28  1  0  0  0
 22 32  2  0  0  0
 26 27  1  0  0  0
 28 98  1  0  0  0
 28 99  1  0  0  0
 29100  1  0  0  0
 29101  1  0  0  0
 33 34  1  0  0  0
 33 66  1  0  0  0
 33 70  2  0  0  0
 34 36  1  0  0  0
 34 59  1  0  0  0
 34102  1  0  0  0
 35 44  2  0  0  0
 35 45  1  0  0  0
 35 68  1  0  0  0
 36 56  1  0  0  0
 36103  1  0  0  0
 37 39  1  0  0  0
 37 47  1  0  0  0
 37 66  1  0  0  0
 37104  1  0  0  0
 38 43  2  0  0  0
 38 46  1  0  0  0
 38 47  1  0  0  0
 39 64  1  0  0  0
 39 67  2  0  0  0
 40 52  1  0  0  0
 40 53  2  0  0  0
 40 58  1  0  0  0
 41105  1  0  0  0
 41106  1  0  0  0
 41107  1  0  0  0
 41 48  1  0  0  0
 42 43  1  0  0  0
 42 66  1  0  0  0
 42108  1  0  0  0
 42109  1  0  0  0
 43 44  1  0  0  0
 44110  1  0  0  0
 45 46  2  0  0  0
 45111  1  0  0  0
 46112  1  0  0  0
 47113  1  0  0  0
 47114  1  0  0  0
 48 56  1  0  0  0
 48 65  1  0  0  0
 48115  1  0  0  0
 49 50  1  0  0  0
 49 53  1  0  0  0
 49 64  1  0  0  0
 49116  1  0  0  0
 50 51  1  0  0  0
 50117  1  0  0  0
 50118  1  0  0  0
 51 52  1  0  0  0
 51119  1  0  0  0
 51120  1  0  0  0
 52121  1  0  0  0
 52122  1  0  0  0
 53 54  1  0  0  0
 54 55  2  0  0  0
 54123  1  0  0  0
 55 57  1  0  0  0
 55124  1  0  0  0
 56 69  2  0  0  0
 57 58  2  0  0  0
 57125  1  0  0  0
 58126  1  0  0  0
 59 60  1  0  0  0
 59 61  1  0  0  0
 59 62  1  0  0  0
 60127  1  0  0  0
 60128  1  0  0  0
 60129  1  0  0  0
 61130  1  0  0  0
 61131  1  0  0  0
 61132  1  0  0  0
 62133  1  0  0  0
 62134  1  0  0  0
 62135  1  0  0  0
 63 65  1  0  0  0
 63136  1  0  0  0
 63137  1  0  0  0
 63138  1  0  0  0
 64139  1  0  0  0
 65140  1  0  0  0
 68 77  1  0  0  0
 71 72  2  0  0  0
 71 79  1  0  0  0
 71141  1  0  0  0
 72 78  1  0  0  0
 72 80  1  0  0  0
 73 74  1  0  0  0
 73 75  1  0  0  0
 73 80  2  0  0  0
 74 77  1  0  0  0
 74 79  2  0  0  0
 75142  1  0  0  0
 75143  1  0  0  0
 75144  1  0  0  0
 76145  1  0  0  0
 76146  1  0  0  0
 76147  1  0  0  0
 76 78  1  0  0  0
 77148  1  0  0  0
 77149  1  0  0  0
 78 81  1  0  0  0
 78150  1  0  0  0
 81151  1  0  0  0
M  ISO  4   1 100  68 101  77 101  81 100
M  END
> <chiral flag>
0

> <version>
0

> <s_m_source_file>
/data/baiqing/PycharmProjects/Reinvent-master-3.2/result/LINK_invent/BTK/process_docking_weight1_custom_sum_contain_oxygen_bond_distance_aromatic_linkinvent_7_9_3/rearranged_h_0177.sdf

> <i_m_source_file_index>
40

> <r_mmod_Potential_Energy-OPLS-2005>
1168.05126953125

> <r_mmod_Stretch_Energy-OPLS-2005>
500.412445068359

> <r_mmod_Bend_Energy-OPLS-2005>
448.407867431641

> <r_mmod_Torsional_Energy-OPLS-2005>
201.310913085938

> <r_mmod_Improper_Torsional_Energy-OPLS-2005>
6.76015138626099

> <r_mmod_Van_der_Waal_Energy-OPLS-2005>
134.805404663086

> <r_mmod_Electrostatic_Energy-OPLS-2005>
-318.452484130859

> <r_mmod_Solvation_Energy-OPLS-2005>
-231.8896484375

> <b_mmod_Minimization_Converged-OPLS-2005>
0

> <r_mmod_RMS_Derivative-OPLS-2005>
2.34545302391052

$$$$
40
                    3D
 Structure written by MMmdl.
165174  0  0  1  0            999 V2000
  -30.6716  -14.5650   20.5297 C   0  0  0  0  0  0
  -30.4172  -12.3542   19.4333 C   0  0  0  0  0  0
  -29.4918  -12.4981   18.2079 C   0  0  0  0  0  0
  -28.0141  -12.3496   18.6222 C   0  0  0  0  0  0
  -27.6465  -13.2160   19.8568 C   0  0  2  0  0  0
  -28.6918  -13.0640   20.9837 C   0  0  0  0  0  0
  -25.2526  -13.8170   20.5686 C   0  0  0  0  0  0
  -24.1804  -13.0433   20.9209 C   0  0  0  0  0  0
  -24.6382  -11.6903   20.8754 C   0  0  0  0  0  0
  -23.9065  -10.4282   21.0409 C   0  0  0  0  0  0
  -24.3615   -9.4198   21.9184 C   0  0  0  0  0  0
  -23.6294   -8.2231   22.0753 C   0  0  0  0  0  0
  -22.4273   -8.0274   21.3551 C   0  0  0  0  0  0
  -21.9912   -9.0244   20.4647 C   0  0  0  0  0  0
  -22.7236  -10.2125   20.3055 C   0  0  0  0  0  0
  -21.6858   -6.0735   22.5284 C   0  0  0  0  0  0
  -21.4011   -6.5641   23.8214 C   0  0  0  0  0  0
  -21.3660   -5.6794   24.9181 C   0  0  0  0  0  0
  -21.6042   -4.3057   24.7231 C   0  0  0  0  0  0
  -21.8815   -3.8150   23.4351 C   0  0  0  0  0  0
  -21.9189   -4.6964   22.3411 C   0  0  0  0  0  0
  -22.7828  -13.5224   21.1860 C   0  0  0  0  0  0
  -22.1657   -4.2151   21.0990 F   0  0  0  0  0  0
  -21.5631   -3.4543   25.7746 F   0  0  0  0  0  0
  -30.0066  -13.3784   20.4097 N   0  0  0  0  0  0
  -26.2947  -12.9354   20.3301 N   0  0  0  0  0  0
  -25.9303  -11.6509   20.5753 N   0  0  0  0  0  0
  -22.0481  -12.8212   22.0423 N   0  0  0  0  0  0
  -25.4217  -15.1897   20.4062 N   0  0  0  0  0  0
  -31.8476  -14.6789   20.1679 O   0  0  0  0  0  0
  -21.6638   -6.8872   21.4243 O   0  0  0  0  0  0
  -22.3509  -14.5528   20.6711 O   0  0  0  0  0  0
  -24.6179  -31.8637   23.2028 C   0  0  0  0  0  0
  -25.9043  -32.4798   23.8345 C   0  0  1  0  0  0
  -27.2379  -27.3845   20.1131 C   0  0  0  0  0  0
  -25.5872  -33.8595   24.2280 N   0  0  0  0  0  0
  -23.4106  -30.4840   21.5439 C   0  0  2  0  0  0
  -24.8605  -28.9394   20.1166 C   0  0  0  0  0  0
  -22.7437  -29.4621   22.4939 C   0  0  0  0  0  0
  -18.0269  -28.1393   22.8483 C   0  0  0  0  0  0
  -24.1495  -36.7319   23.2641 C   0  0  0  0  0  0
  -25.9443  -30.8172   21.3612 C   0  0  0  0  0  0
  -26.0226  -29.4454   20.7118 C   0  0  0  0  0  0
  -27.2176  -28.6801   20.6965 C   0  0  0  0  0  0
  -26.0576  -26.9010   19.5146 C   0  0  0  0  0  0
  -24.8755  -27.6699   19.5123 C   0  0  0  0  0  0
  -23.6248  -29.8130   20.1601 C   0  0  0  0  0  0
  -25.4110  -36.3102   24.0337 C   0  0  1  0  0  0
  -20.5868  -28.3666   23.1312 C   0  0  2  0  0  0
  -20.6759  -26.9388   22.5431 C   0  0  0  0  0  0
  -19.5733  -26.6387   21.5230 C   0  0  0  0  0  0
  -18.1910  -26.7935   22.1637 C   0  0  0  0  0  0
  -19.1523  -28.8844   23.2900 C   0  0  0  0  0  0
  -18.9443  -30.1450   23.8904 C   0  0  0  0  0  0
  -17.6443  -30.6583   24.0565 C   0  0  0  0  0  0
  -25.9041  -34.9462   23.5124 C   0  0  0  0  0  0
  -16.5336  -29.9081   23.6326 C   0  0  0  0  0  0
  -16.7259  -28.6517   23.0320 C   0  0  0  0  0  0
  -26.4457  -31.6574   25.0677 C   0  0  0  0  0  0
  -25.3709  -31.3672   26.1414 C   0  0  0  0  0  0
  -27.0277  -30.3008   24.6067 C   0  0  0  0  0  0
  -27.6049  -32.4280   25.7425 C   0  0  0  0  0  0
  -27.5593  -37.1794   24.8451 C   0  0  0  0  0  0
  -21.4155  -29.3027   22.3712 N   0  0  0  0  0  0
  -26.4292  -37.3792   23.9413 N   0  0  0  0  0  0
  -24.6762  -31.0705   22.0946 N   0  0  0  0  0  0
  -23.4194  -28.8140   23.2979 O   0  0  0  0  0  0
  -28.4033  -26.6339   20.0644 O   0  0  0  0  0  0
  -26.5631  -34.8923   22.4699 O   0  0  0  0  0  0
  -23.5355  -32.1390   23.7391 O   0  0  0  0  0  0
  -29.8990  -18.1622   20.6663 C   0  0  0  0  0  0
  -31.6940  -18.1790   22.7192 C   0  0  0  0  0  0
  -30.4005  -19.4440   21.0778 C   0  0  0  0  0  0
  -31.3646  -19.4081   22.1247 C   0  0  0  0  0  0
  -30.3662  -16.9455   21.2636 C   0  0  0  0  0  0
  -29.4607  -20.6681   18.9280 C   0  0  0  0  0  0
  -29.1586  -22.1342   18.5387 C   0  0  0  0  0  0
  -30.0935  -20.7823   20.3136 C   0  0  1  0  0  0
  -29.1960  -21.9373   20.8990 C   0  0  1  0  0  0
  -32.1447  -20.6175   22.6279 C   0  0  0  0  0  0
  -29.6268  -22.5592   22.2370 C   0  0  0  0  0  0
  -28.1280  -24.0632   19.7855 C   0  0  0  0  0  0
  -28.4231  -25.3167   20.6884 C   0  0  0  0  0  0
  -31.2198  -16.9940   22.3052 N   0  0  0  0  0  0
  -29.9098  -15.6623   20.8038 N   0  0  0  0  0  0
  -29.1564  -22.9493   19.7878 N   0  3  2  0  0  0
  -31.4617  -12.4549   19.1340 H   0  0  0  0  0  0
  -30.3243  -11.3577   19.8683 H   0  0  0  0  0  0
  -29.7440  -11.7540   17.4511 H   0  0  0  0  0  0
  -29.6464  -13.4728   17.7425 H   0  0  0  0  0  0
  -27.8382  -11.2964   18.8442 H   0  0  0  0  0  0
  -27.3605  -12.5953   17.7842 H   0  0  0  0  0  0
  -27.6644  -14.2520   19.5177 H   0  0  0  0  0  0
  -28.6891  -12.0452   21.3743 H   0  0  0  0  0  0
  -28.4539  -13.7110   21.8300 H   0  0  0  0  0  0
  -25.2758   -9.5683   22.4756 H   0  0  0  0  0  0
  -24.0011   -7.4624   22.7468 H   0  0  0  0  0  0
  -21.0846   -8.8754   19.8952 H   0  0  0  0  0  0
  -22.3691  -10.9661   19.6160 H   0  0  0  0  0  0
  -21.1998   -7.6147   23.9723 H   0  0  0  0  0  0
  -21.1490   -6.0528   25.9087 H   0  0  0  0  0  0
  -22.0593   -2.7611   23.2858 H   0  0  0  0  0  0
  -22.4092  -11.9873   22.4808 H   0  0  0  0  0  0
  -21.1094  -13.1226   22.2611 H   0  0  0  0  0  0
  -24.6494  -15.8398   20.5045 H   0  0  0  0  0  0
  -26.2585  -15.6290   20.0460 H   0  0  0  0  0  0
  -26.7108  -32.5502   23.1101 H   0  0  0  0  0  0
  -24.9933  -33.9751   25.0365 H   0  0  0  0  0  0
  -22.7024  -31.3021   21.3970 H   0  0  0  0  0  0
  -23.3763  -35.9648   23.3274 H   0  0  0  0  0  0
  -24.3610  -36.8971   22.2068 H   0  0  0  0  0  0
  -23.7246  -37.6511   23.6679 H   0  0  0  0  0  0
  -26.0623  -31.5798   20.5893 H   0  0  0  0  0  0
  -26.8314  -30.8746   21.9802 H   0  0  0  0  0  0
  -28.1197  -29.0763   21.1411 H   0  0  0  0  0  0
  -26.0521  -25.9347   19.0316 H   0  0  0  0  0  0
  -23.9848  -27.2759   19.0439 H   0  0  0  0  0  0
  -23.7376  -30.5868   19.3999 H   0  0  0  0  0  0
  -22.7489  -29.2364   19.8577 H   0  0  0  0  0  0
  -25.1290  -36.1961   25.0833 H   0  0  0  0  0  0
  -20.9974  -28.3230   24.1426 H   0  0  0  0  0  0
  -20.5661  -26.2262   23.3623 H   0  0  0  0  0  0
  -21.6620  -26.7417   22.1206 H   0  0  0  0  0  0
  -19.6883  -25.6310   21.1220 H   0  0  0  0  0  0
  -19.6674  -27.3233   20.6789 H   0  0  0  0  0  0
  -17.4181  -26.6677   21.4039 H   0  0  0  0  0  0
  -18.0287  -26.0097   22.9049 H   0  0  0  0  0  0
  -19.7913  -30.7272   24.2276 H   0  0  0  0  0  0
  -17.4985  -31.6254   24.5178 H   0  0  0  0  0  0
  -15.5332  -30.2978   23.7659 H   0  0  0  0  0  0
  -15.8664  -28.0857   22.6996 H   0  0  0  0  0  0
  -24.5899  -30.7006   25.7728 H   0  0  0  0  0  0
  -24.8866  -32.2815   26.4856 H   0  0  0  0  0  0
  -25.8043  -30.8831   27.0172 H   0  0  0  0  0  0
  -26.2800  -29.6769   24.1149 H   0  0  0  0  0  0
  -27.4064  -29.7250   25.4520 H   0  0  0  0  0  0
  -27.8635  -30.4313   23.9188 H   0  0  0  0  0  0
  -27.2701  -33.3595   26.1997 H   0  0  0  0  0  0
  -28.3847  -32.6814   25.0227 H   0  0  0  0  0  0
  -28.0721  -31.8389   26.5326 H   0  0  0  0  0  0
  -28.2571  -38.0131   24.7568 H   0  0  0  0  0  0
  -28.1127  -36.2669   24.6184 H   0  0  0  0  0  0
  -27.2315  -37.1337   25.8850 H   0  0  0  0  0  0
  -20.9311  -29.8803   21.6986 H   0  0  0  0  0  0
  -26.0181  -38.2864   24.1434 H   0  0  0  0  0  0
  -29.2048  -18.0998   19.8409 H   0  0  0  0  0  0
  -32.4088  -18.1354   23.5278 H   0  0  0  0  0  0
  -30.1016  -20.1651   18.2040 H   0  0  0  0  0  0
  -28.5226  -20.1141   18.9846 H   0  0  0  0  0  0
  -28.2034  -22.1889   18.0148 H   0  0  0  0  0  0
  -29.9229  -22.5202   17.8622 H   0  0  0  0  0  0
  -31.0793  -21.2044   20.1166 H   0  0  0  0  0  0
  -28.1887  -21.5391   21.0388 H   0  0  0  0  0  0
  -33.1710  -20.3223   22.8524 H   0  0  0  0  0  0
  -31.7173  -20.9982   23.5554 H   0  0  0  0  0  0
  -32.2222  -21.4289   21.9097 H   0  0  0  0  0  0
  -30.5927  -23.0608   22.1720 H   0  0  0  0  0  0
  -29.6791  -21.8032   23.0181 H   0  0  0  0  0  0
  -28.8957  -23.2891   22.5816 H   0  0  0  0  0  0
  -28.0549  -24.4348   18.7629 H   0  0  0  0  0  0
  -27.1447  -23.6535   20.0186 H   0  0  0  0  0  0
  -29.4235  -25.2161   21.1086 H   0  0  0  0  0  0
  -27.7565  -25.3080   21.5520 H   0  0  0  0  0  0
  -28.9127  -15.5256   20.8020 H   0  0  0  0  0  0
  -30.0608  -23.4011   19.7828 H   0  0  0  0  0  0
  1 25  1  0  0  0
  1 30  2  0  0  0
  1 85  1  0  0  0
  2  3  1  0  0  0
  2 25  1  0  0  0
  2 87  1  0  0  0
  2 88  1  0  0  0
  3  4  1  0  0  0
  3 89  1  0  0  0
  3 90  1  0  0  0
  4  5  1  0  0  0
  4 91  1  0  0  0
  4 92  1  0  0  0
  5  6  1  0  0  0
  5 26  1  0  0  0
  5 93  1  0  0  0
  6 25  1  0  0  0
  6 94  1  0  0  0
  6 95  1  0  0  0
  7  8  2  0  0  0
  7 26  1  0  0  0
  7 29  1  0  0  0
  8  9  1  0  0  0
  8 22  1  0  0  0
  9 10  1  0  0  0
  9 27  2  0  0  0
 10 11  2  0  0  0
 10 15  1  0  0  0
 11 12  1  0  0  0
 11 96  1  0  0  0
 12 13  2  0  0  0
 12 97  1  0  0  0
 13 14  1  0  0  0
 13 31  1  0  0  0
 14 15  2  0  0  0
 14 98  1  0  0  0
 15 99  1  0  0  0
 16 17  2  0  0  0
 16 21  1  0  0  0
 16 31  1  0  0  0
 17 18  1  0  0  0
 17100  1  0  0  0
 18 19  2  0  0  0
 18101  1  0  0  0
 19 20  1  0  0  0
 19 24  1  0  0  0
 20 21  2  0  0  0
 20102  1  0  0  0
 21 23  1  0  0  0
 22 28  1  0  0  0
 22 32  2  0  0  0
 26 27  1  0  0  0
 28103  1  0  0  0
 28104  1  0  0  0
 29105  1  0  0  0
 29106  1  0  0  0
 33 34  1  0  0  0
 33 66  1  0  0  0
 33 70  2  0  0  0
 34 36  1  0  0  0
 34 59  1  0  0  0
 34107  1  0  0  0
 35 44  2  0  0  0
 35 45  1  0  0  0
 35 68  1  0  0  0
 36 56  1  0  0  0
 36108  1  0  0  0
 37 39  1  0  0  0
 37 47  1  0  0  0
 37 66  1  0  0  0
 37109  1  0  0  0
 38 43  2  0  0  0
 38 46  1  0  0  0
 38 47  1  0  0  0
 39 64  1  0  0  0
 39 67  2  0  0  0
 40 52  1  0  0  0
 40 53  2  0  0  0
 40 58  1  0  0  0
 41110  1  0  0  0
 41111  1  0  0  0
 41112  1  0  0  0
 41 48  1  0  0  0
 42 43  1  0  0  0
 42 66  1  0  0  0
 42113  1  0  0  0
 42114  1  0  0  0
 43 44  1  0  0  0
 44115  1  0  0  0
 45 46  2  0  0  0
 45116  1  0  0  0
 46117  1  0  0  0
 47118  1  0  0  0
 47119  1  0  0  0
 48 56  1  0  0  0
 48 65  1  0  0  0
 48120  1  0  0  0
 49 50  1  0  0  0
 49 53  1  0  0  0
 49 64  1  0  0  0
 49121  1  0  0  0
 50 51  1  0  0  0
 50122  1  0  0  0
 50123  1  0  0  0
 51 52  1  0  0  0
 51124  1  0  0  0
 51125  1  0  0  0
 52126  1  0  0  0
 52127  1  0  0  0
 53 54  1  0  0  0
 54 55  2  0  0  0
 54128  1  0  0  0
 55 57  1  0  0  0
 55129  1  0  0  0
 56 69  2  0  0  0
 57 58  2  0  0  0
 57130  1  0  0  0
 58131  1  0  0  0
 59 60  1  0  0  0
 59 61  1  0  0  0
 59 62  1  0  0  0
 60132  1  0  0  0
 60133  1  0  0  0
 60134  1  0  0  0
 61135  1  0  0  0
 61136  1  0  0  0
 61137  1  0  0  0
 62138  1  0  0  0
 62139  1  0  0  0
 62140  1  0  0  0
 63 65  1  0  0  0
 63141  1  0  0  0
 63142  1  0  0  0
 63143  1  0  0  0
 64144  1  0  0  0
 65145  1  0  0  0
 68 83  1  0  0  0
 71 73  2  0  0  0
 71 75  1  0  0  0
 71146  1  0  0  0
 72 74  2  0  0  0
 72 84  1  0  0  0
 72147  1  0  0  0
 73 74  1  0  0  0
 73 78  1  0  0  0
 74 80  1  0  0  0
 75 84  2  0  0  0
 75 85  1  0  0  0
 76 77  1  0  0  0
 76 78  1  0  0  0
 76148  1  0  0  0
 76149  1  0  0  0
 77 86  1  0  0  0
 77150  1  0  0  0
 77151  1  0  0  0
 78 79  1  0  0  0
 78152  1  0  0  0
 79 81  1  0  0  0
 79 86  1  0  0  0
 79153  1  0  0  0
 80154  1  0  0  0
 80155  1  0  0  0
 80156  1  0  0  0
 81157  1  0  0  0
 81158  1  0  0  0
 81159  1  0  0  0
 82 83  1  0  0  0
 82160  1  0  0  0
 82161  1  0  0  0
 82 86  1  0  0  0
 83162  1  0  0  0
 83163  1  0  0  0
 85164  1  0  0  0
 86165  1  0  0  0
M  CHG  1  86   1
M  ISO  4   1 100  68 101  83 101  85 100
M  END
> <chiral flag>
0

> <version>
0

> <s_m_source_file>
/data/baiqing/PycharmProjects/Reinvent-master-3.2/result/LINK_invent/BTK/process_docking_weight1_custom_sum_contain_oxygen_bond_distance_aromatic_linkinvent_7_9_3/rearranged_h_0177.sdf

> <i_m_source_file_index>
41

> <r_mmod_Potential_Energy-OPLS-2005>
-108.061340332031

> <r_mmod_Stretch_Energy-OPLS-2005>
60.2797775268555

> <r_mmod_Bend_Energy-OPLS-2005>
176.078262329102

> <r_mmod_Torsional_Energy-OPLS-2005>
311.142639160156

> <r_mmod_Improper_Torsional_Energy-OPLS-2005>
7.64537143707275

> <r_mmod_Van_der_Waal_Energy-OPLS-2005>
145.143310546875

> <r_mmod_Electrostatic_Energy-OPLS-2005>
-366.322265625

> <r_mmod_Solvation_Energy-OPLS-2005>
-467.893249511719

> <b_mmod_Minimization_Converged-OPLS-2005>
0

> <r_mmod_RMS_Derivative-OPLS-2005>
1.88735663890839

$$$$
41
                    3D
 Structure written by MMmdl.
165174  0  0  1  0            999 V2000
  -30.5488  -14.9667   20.3969 C   0  0  0  0  0  0
  -30.4304  -12.5940   19.4987 C   0  0  0  0  0  0
  -29.5179  -12.5222   18.2539 C   0  0  0  0  0  0
  -28.0506  -12.3128   18.6711 C   0  0  0  0  0  0
  -27.6238  -13.2522   19.8303 C   0  0  2  0  0  0
  -28.6661  -13.3005   20.9669 C   0  0  0  0  0  0
  -25.2439  -13.8220   20.5714 C   0  0  0  0  0  0
  -24.1758  -13.0434   20.9239 C   0  0  0  0  0  0
  -24.6383  -11.6925   20.8761 C   0  0  0  0  0  0
  -23.9073  -10.4289   21.0411 C   0  0  0  0  0  0
  -24.3621   -9.4205   21.9189 C   0  0  0  0  0  0
  -23.6288   -8.2247   22.0761 C   0  0  0  0  0  0
  -22.4272   -8.0285   21.3551 C   0  0  0  0  0  0
  -21.9908   -9.0259   20.4655 C   0  0  0  0  0  0
  -22.7244  -10.2135   20.3062 C   0  0  0  0  0  0
  -21.6847   -6.0736   22.5279 C   0  0  0  0  0  0
  -21.4015   -6.5639   23.8213 C   0  0  0  0  0  0
  -21.3661   -5.6794   24.9176 C   0  0  0  0  0  0
  -21.6042   -4.3056   24.7225 C   0  0  0  0  0  0
  -21.8818   -3.8147   23.4346 C   0  0  0  0  0  0
  -21.9188   -4.6964   22.3402 C   0  0  0  0  0  0
  -22.7784  -13.5216   21.1875 C   0  0  0  0  0  0
  -22.1659   -4.2151   21.0979 F   0  0  0  0  0  0
  -21.5625   -3.4538   25.7738 F   0  0  0  0  0  0
  -29.9388  -13.7100   20.3618 N   0  0  0  0  0  0
  -26.2854  -12.9460   20.3215 N   0  0  0  0  0  0
  -25.9313  -11.6587   20.5721 N   0  0  0  0  0  0
  -22.0420  -12.8217   22.0432 N   0  0  0  0  0  0
  -25.4077  -15.1947   20.4133 N   0  0  0  0  0  0
  -31.7637  -14.9675   20.1573 O   0  0  0  0  0  0
  -21.6638   -6.8879   21.4242 O   0  0  0  0  0  0
  -22.3479  -14.5516   20.6704 O   0  0  0  0  0  0
  -24.6451  -31.8417   23.1866 C   0  0  0  0  0  0
  -25.9215  -32.4683   23.8257 C   0  0  1  0  0  0
  -27.2114  -27.1075   20.1536 C   0  0  0  0  0  0
  -25.5956  -33.8492   24.2171 N   0  0  0  0  0  0
  -23.4505  -30.4604   21.5327 C   0  0  2  0  0  0
  -24.8999  -28.8850   20.1090 C   0  0  0  0  0  0
  -22.7576  -29.4532   22.4848 C   0  0  0  0  0  0
  -18.0305  -28.1405   22.8466 C   0  0  0  0  0  0
  -24.1495  -36.7235   23.2643 C   0  0  0  0  0  0
  -26.0089  -30.7045   21.3941 C   0  0  0  0  0  0
  -26.0782  -29.3151   20.7320 C   0  0  0  0  0  0
  -27.2333  -28.4414   20.7392 C   0  0  0  0  0  0
  -26.0117  -26.7953   19.4769 C   0  0  0  0  0  0
  -24.8815  -27.6402   19.4653 C   0  0  0  0  0  0
  -23.6784  -29.7895   20.1525 C   0  0  0  0  0  0
  -25.4135  -36.3028   24.0313 C   0  0  1  0  0  0
  -20.5916  -28.3736   23.1222 C   0  0  2  0  0  0
  -20.6792  -26.9438   22.5398 C   0  0  0  0  0  0
  -19.5771  -26.6387   21.5205 C   0  0  0  0  0  0
  -18.1950  -26.7943   22.1616 C   0  0  0  0  0  0
  -19.1560  -28.8891   23.2833 C   0  0  0  0  0  0
  -18.9480  -30.1484   23.8861 C   0  0  0  0  0  0
  -17.6475  -30.6600   24.0561 C   0  0  0  0  0  0
  -25.9084  -34.9404   23.5053 C   0  0  0  0  0  0
  -16.5365  -29.9090   23.6344 C   0  0  0  0  0  0
  -16.7287  -28.6513   23.0354 C   0  0  0  0  0  0
  -26.4529  -31.6565   25.0712 C   0  0  0  0  0  0
  -25.3693  -31.3759   26.1389 C   0  0  0  0  0  0
  -27.0410  -30.2956   24.6338 C   0  0  0  0  0  0
  -27.6060  -32.4338   25.7486 C   0  0  0  0  0  0
  -27.5582  -37.1780   24.8469 C   0  0  0  0  0  0
  -21.4267  -29.3048   22.3587 N   0  0  0  0  0  0
  -26.4298  -37.3743   23.9401 N   0  0  0  0  0  0
  -24.7210  -31.0247   22.0918 N   0  0  0  0  0  0
  -23.4203  -28.8082   23.3016 O   0  0  0  0  0  0
  -28.2454  -26.0953   20.2536 O   0  0  0  0  0  0
  -26.5670  -34.8905   22.4633 O   0  0  0  0  0  0
  -23.5563  -32.1307   23.7066 O   0  0  0  0  0  0
  -29.2353  -18.8622   20.3365 C   0  0  0  0  0  0
  -29.6573  -20.2517   19.9868 C   0  0  0  0  0  0
  -30.9686  -20.2953   19.4882 C   0  0  0  0  0  0
  -31.8324  -19.1718   19.5915 C   0  0  0  0  0  0
  -30.1367  -17.6678   20.2978 C   0  0  0  0  0  0
  -29.7720  -22.0819   18.4278 C   0  0  0  0  0  0
  -28.8714  -21.6771   19.6206 C   0  0  1  0  0  0
  -31.2162  -21.5703   18.6889 C   0  0  0  0  0  0
  -33.2926  -19.1963   19.1828 C   0  0  0  0  0  0
  -27.4468  -21.3279   19.1641 C   0  0  0  0  0  0
  -31.8789  -21.3383   17.3148 C   0  0  0  0  0  0
  -32.0703  -22.5691   19.4981 C   0  0  0  0  0  0
  -28.7905  -23.1576   20.4730 C   0  0  0  0  0  0
  -28.0136  -24.5776   19.9161 C   0  0  0  0  0  0
  -31.4229  -17.9510   20.0012 N   0  0  0  0  0  0
  -29.7894  -16.1805   20.5022 N   0  0  0  0  0  0
  -31.4667  -12.7332   19.1863 H   0  0  0  0  0  0
  -30.4127  -11.6502   20.0457 H   0  0  0  0  0  0
  -29.8391  -11.7141   17.5950 H   0  0  0  0  0  0
  -29.6099  -13.4438   17.6765 H   0  0  0  0  0  0
  -27.9451  -11.2723   18.9819 H   0  0  0  0  0  0
  -27.3901  -12.4406   17.8127 H   0  0  0  0  0  0
  -27.5804  -14.2503   19.3933 H   0  0  0  0  0  0
  -28.7589  -12.3323   21.4603 H   0  0  0  0  0  0
  -28.3635  -14.0129   21.7355 H   0  0  0  0  0  0
  -25.2764   -9.5677   22.4770 H   0  0  0  0  0  0
  -23.9991   -7.4637   22.7483 H   0  0  0  0  0  0
  -21.0839   -8.8782   19.8963 H   0  0  0  0  0  0
  -22.3701  -10.9677   19.6177 H   0  0  0  0  0  0
  -21.2015   -7.6150   23.9716 H   0  0  0  0  0  0
  -21.1482   -6.0525   25.9077 H   0  0  0  0  0  0
  -22.0593   -2.7610   23.2842 H   0  0  0  0  0  0
  -22.4033  -11.9900   22.4863 H   0  0  0  0  0  0
  -21.1037  -13.1256   22.2611 H   0  0  0  0  0  0
  -24.6300  -15.8377   20.5153 H   0  0  0  0  0  0
  -26.2355  -15.6366   20.0358 H   0  0  0  0  0  0
  -26.7271  -32.5277   23.0972 H   0  0  0  0  0  0
  -25.0097  -33.9606   25.0314 H   0  0  0  0  0  0
  -22.7556  -31.2879   21.3764 H   0  0  0  0  0  0
  -23.3776  -35.9548   23.3301 H   0  0  0  0  0  0
  -24.3567  -36.8869   22.2057 H   0  0  0  0  0  0
  -23.7234  -37.6422   23.6679 H   0  0  0  0  0  0
  -26.1786  -31.4612   20.6269 H   0  0  0  0  0  0
  -26.8726  -30.7464   22.0454 H   0  0  0  0  0  0
  -28.1278  -28.7620   21.2546 H   0  0  0  0  0  0
  -25.9045  -25.8504   18.9679 H   0  0  0  0  0  0
  -23.9845  -27.3066   18.9619 H   0  0  0  0  0  0
  -23.8202  -30.5625   19.3966 H   0  0  0  0  0  0
  -22.7918  -29.2347   19.8396 H   0  0  0  0  0  0
  -25.1331  -36.1859   25.0808 H   0  0  0  0  0  0
  -21.0006  -28.3338   24.1345 H   0  0  0  0  0  0
  -20.5692  -26.2351   23.3618 H   0  0  0  0  0  0
  -21.6661  -26.7449   22.1196 H   0  0  0  0  0  0
  -19.6936  -25.6288   21.1263 H   0  0  0  0  0  0
  -19.6712  -27.3176   20.6715 H   0  0  0  0  0  0
  -17.4217  -26.6673   21.4022 H   0  0  0  0  0  0
  -18.0358  -26.0092   22.9023 H   0  0  0  0  0  0
  -19.7955  -30.7308   24.2214 H   0  0  0  0  0  0
  -17.5031  -31.6277   24.5172 H   0  0  0  0  0  0
  -15.5366  -30.2984   23.7694 H   0  0  0  0  0  0
  -15.8684  -28.0826   22.7086 H   0  0  0  0  0  0
  -24.5886  -30.7104   25.7681 H   0  0  0  0  0  0
  -24.8865  -32.2943   26.4743 H   0  0  0  0  0  0
  -25.7954  -30.8962   27.0210 H   0  0  0  0  0  0
  -26.3049  -29.6655   24.1337 H   0  0  0  0  0  0
  -27.3987  -29.7290   25.4944 H   0  0  0  0  0  0
  -27.8970  -30.4169   23.9696 H   0  0  0  0  0  0
  -27.2663  -33.3665   26.2001 H   0  0  0  0  0  0
  -28.3897  -32.6861   25.0326 H   0  0  0  0  0  0
  -28.0704  -31.8506   26.5449 H   0  0  0  0  0  0
  -28.2608  -38.0071   24.7519 H   0  0  0  0  0  0
  -28.1077  -36.2603   24.6311 H   0  0  0  0  0  0
  -27.2285  -37.1439   25.8868 H   0  0  0  0  0  0
  -20.9492  -29.8731   21.6726 H   0  0  0  0  0  0
  -26.0169  -38.2813   24.1398 H   0  0  0  0  0  0
  -28.1887  -18.7019   20.5557 H   0  0  0  0  0  0
  -29.7390  -23.1377   18.1604 H   0  0  0  0  0  0
  -29.3939  -21.5575   17.5473 H   0  0  0  0  0  0
  -33.3932  -18.9977   18.1159 H   0  0  0  0  0  0
  -33.8592  -18.4283   19.7107 H   0  0  0  0  0  0
  -33.7580  -20.1503   19.4180 H   0  0  0  0  0  0
  -27.4475  -20.5127   18.4400 H   0  0  0  0  0  0
  -26.9557  -22.1812   18.6966 H   0  0  0  0  0  0
  -26.8373  -21.0052   20.0073 H   0  0  0  0  0  0
  -32.9287  -21.0643   17.3881 H   0  0  0  0  0  0
  -31.8518  -22.2535   16.7226 H   0  0  0  0  0  0
  -31.3670  -20.5625   16.7427 H   0  0  0  0  0  0
  -31.7526  -22.6468   20.5363 H   0  0  0  0  0  0
  -32.0403  -23.5660   19.0561 H   0  0  0  0  0  0
  -33.1172  -22.2729   19.5289 H   0  0  0  0  0  0
  -29.8035  -23.4614   20.7128 H   0  0  0  0  0  0
  -28.3579  -22.9346   21.4481 H   0  0  0  0  0  0
  -28.0502  -24.5443   18.8274 H   0  0  0  0  0  0
  -26.9671  -24.3865   20.1515 H   0  0  0  0  0  0
  -28.8109  -16.0145   20.6745 H   0  0  0  0  0  0
  1 25  1  0  0  0
  1 30  2  0  0  0
  1 86  1  0  0  0
  2  3  1  0  0  0
  2 25  1  0  0  0
  2 87  1  0  0  0
  2 88  1  0  0  0
  3  4  1  0  0  0
  3 89  1  0  0  0
  3 90  1  0  0  0
  4  5  1  0  0  0
  4 91  1  0  0  0
  4 92  1  0  0  0
  5  6  1  0  0  0
  5 26  1  0  0  0
  5 93  1  0  0  0
  6 25  1  0  0  0
  6 94  1  0  0  0
  6 95  1  0  0  0
  7  8  2  0  0  0
  7 26  1  0  0  0
  7 29  1  0  0  0
  8  9  1  0  0  0
  8 22  1  0  0  0
  9 10  1  0  0  0
  9 27  2  0  0  0
 10 11  2  0  0  0
 10 15  1  0  0  0
 11 12  1  0  0  0
 11 96  1  0  0  0
 12 13  2  0  0  0
 12 97  1  0  0  0
 13 14  1  0  0  0
 13 31  1  0  0  0
 14 15  2  0  0  0
 14 98  1  0  0  0
 15 99  1  0  0  0
 16 17  2  0  0  0
 16 21  1  0  0  0
 16 31  1  0  0  0
 17 18  1  0  0  0
 17100  1  0  0  0
 18 19  2  0  0  0
 18101  1  0  0  0
 19 20  1  0  0  0
 19 24  1  0  0  0
 20 21  2  0  0  0
 20102  1  0  0  0
 21 23  1  0  0  0
 22 28  1  0  0  0
 22 32  2  0  0  0
 26 27  1  0  0  0
 28103  1  0  0  0
 28104  1  0  0  0
 29105  1  0  0  0
 29106  1  0  0  0
 33 34  1  0  0  0
 33 66  1  0  0  0
 33 70  2  0  0  0
 34 36  1  0  0  0
 34 59  1  0  0  0
 34107  1  0  0  0
 35 44  2  0  0  0
 35 45  1  0  0  0
 35 68  1  0  0  0
 36 56  1  0  0  0
 36108  1  0  0  0
 37 39  1  0  0  0
 37 47  1  0  0  0
 37 66  1  0  0  0
 37109  1  0  0  0
 38 43  2  0  0  0
 38 46  1  0  0  0
 38 47  1  0  0  0
 39 64  1  0  0  0
 39 67  2  0  0  0
 40 52  1  0  0  0
 40 53  2  0  0  0
 40 58  1  0  0  0
 41110  1  0  0  0
 41111  1  0  0  0
 41112  1  0  0  0
 41 48  1  0  0  0
 42 43  1  0  0  0
 42 66  1  0  0  0
 42113  1  0  0  0
 42114  1  0  0  0
 43 44  1  0  0  0
 44115  1  0  0  0
 45 46  2  0  0  0
 45116  1  0  0  0
 46117  1  0  0  0
 47118  1  0  0  0
 47119  1  0  0  0
 48 56  1  0  0  0
 48 65  1  0  0  0
 48120  1  0  0  0
 49 50  1  0  0  0
 49 53  1  0  0  0
 49 64  1  0  0  0
 49121  1  0  0  0
 50 51  1  0  0  0
 50122  1  0  0  0
 50123  1  0  0  0
 51 52  1  0  0  0
 51124  1  0  0  0
 51125  1  0  0  0
 52126  1  0  0  0
 52127  1  0  0  0
 53 54  1  0  0  0
 54 55  2  0  0  0
 54128  1  0  0  0
 55 57  1  0  0  0
 55129  1  0  0  0
 56 69  2  0  0  0
 57 58  2  0  0  0
 57130  1  0  0  0
 58131  1  0  0  0
 59 60  1  0  0  0
 59 61  1  0  0  0
 59 62  1  0  0  0
 60132  1  0  0  0
 60133  1  0  0  0
 60134  1  0  0  0
 61135  1  0  0  0
 61136  1  0  0  0
 61137  1  0  0  0
 62138  1  0  0  0
 62139  1  0  0  0
 62140  1  0  0  0
 63 65  1  0  0  0
 63141  1  0  0  0
 63142  1  0  0  0
 63143  1  0  0  0
 64144  1  0  0  0
 65145  1  0  0  0
 68 84  1  0  0  0
 71 72  2  0  0  0
 71 75  1  0  0  0
 71146  1  0  0  0
 72 73  1  0  0  0
 72 77  1  0  0  0
 73 74  2  0  0  0
 73 78  1  0  0  0
 74 79  1  0  0  0
 74 85  1  0  0  0
 75 85  2  0  0  0
 75 86  1  0  0  0
 76 77  1  0  0  0
 76 78  1  0  0  0
 76147  1  0  0  0
 76148  1  0  0  0
 77 80  1  0  0  0
 77 83  1  0  0  0
 78 81  1  0  0  0
 78 82  1  0  0  0
 79149  1  0  0  0
 79150  1  0  0  0
 79151  1  0  0  0
 80152  1  0  0  0
 80153  1  0  0  0
 80154  1  0  0  0
 81155  1  0  0  0
 81156  1  0  0  0
 81157  1  0  0  0
 82158  1  0  0  0
 82159  1  0  0  0
 82160  1  0  0  0
 83 84  1  0  0  0
 83161  1  0  0  0
 83162  1  0  0  0
 84163  1  0  0  0
 84164  1  0  0  0
 86165  1  0  0  0
M  ISO  4   1 100  68 101  84 101  86 100
M  END
> <chiral flag>
0

> <version>
0

> <s_m_source_file>
/data/baiqing/PycharmProjects/Reinvent-master-3.2/result/LINK_invent/BTK/process_docking_weight1_custom_sum_contain_oxygen_bond_distance_aromatic_linkinvent_7_9_3/rearranged_h_0177.sdf

> <i_m_source_file_index>
42

> <r_mmod_Potential_Energy-OPLS-2005>
510.009460449219

> <r_mmod_Stretch_Energy-OPLS-2005>
297.259490966797

> <r_mmod_Bend_Energy-OPLS-2005>
352.908996582031

> <r_mmod_Torsional_Energy-OPLS-2005>
251.339599609375

> <r_mmod_Improper_Torsional_Energy-OPLS-2005>
9.7566556930542

> <r_mmod_Van_der_Waal_Energy-OPLS-2005>
141.359619140625

> <r_mmod_Electrostatic_Energy-OPLS-2005>
-523.337341308594

> <r_mmod_Solvation_Energy-OPLS-2005>
-232.089645385742

> <b_mmod_Minimization_Converged-OPLS-2005>
0

> <r_mmod_RMS_Derivative-OPLS-2005>
1.66369271278381

$$$$
42
                    3D
 Structure written by MMmdl.
162171  0  0  1  0            999 V2000
  -30.6039  -14.7921   20.4834 C   0  0  0  0  0  0
  -30.4362  -12.4916   19.4822 C   0  0  0  0  0  0
  -29.5142  -12.5246   18.2420 C   0  0  0  0  0  0
  -28.0406  -12.3395   18.6529 C   0  0  0  0  0  0
  -27.6428  -13.2358   19.8565 C   0  0  2  0  0  0
  -28.6872  -13.1657   20.9916 C   0  0  0  0  0  0
  -25.2521  -13.8205   20.5728 C   0  0  0  0  0  0
  -24.1796  -13.0451   20.9199 C   0  0  0  0  0  0
  -24.6382  -11.6925   20.8731 C   0  0  0  0  0  0
  -23.9058  -10.4299   21.0396 C   0  0  0  0  0  0
  -24.3611   -9.4219   21.9177 C   0  0  0  0  0  0
  -23.6289   -8.2251   22.0750 C   0  0  0  0  0  0
  -22.4271   -8.0284   21.3542 C   0  0  0  0  0  0
  -21.9902   -9.0256   20.4643 C   0  0  0  0  0  0
  -22.7225  -10.2139   20.3051 C   0  0  0  0  0  0
  -21.6856   -6.0732   22.5278 C   0  0  0  0  0  0
  -21.4015   -6.5632   23.8212 C   0  0  0  0  0  0
  -21.3658   -5.6781   24.9172 C   0  0  0  0  0  0
  -21.6047   -4.3045   24.7221 C   0  0  0  0  0  0
  -21.8821   -3.8141   23.4340 C   0  0  0  0  0  0
  -21.9192   -4.6959   22.3398 C   0  0  0  0  0  0
  -22.7820  -13.5249   21.1849 C   0  0  0  0  0  0
  -22.1666   -4.2143   21.0976 F   0  0  0  0  0  0
  -21.5626   -3.4529   25.7735 F   0  0  0  0  0  0
  -29.9804  -13.5559   20.4144 N   0  0  0  0  0  0
  -26.2946  -12.9413   20.3318 N   0  0  0  0  0  0
  -25.9320  -11.6550   20.5751 N   0  0  0  0  0  0
  -22.0444  -12.8259   22.0404 N   0  0  0  0  0  0
  -25.4249  -15.1926   20.4182 N   0  0  0  0  0  0
  -31.7661  -14.8847   20.0741 O   0  0  0  0  0  0
  -21.6640   -6.8880   21.4243 O   0  0  0  0  0  0
  -22.3513  -14.5552   20.6682 O   0  0  0  0  0  0
  -24.6352  -31.8527   23.1969 C   0  0  0  0  0  0
  -25.9164  -32.4738   23.8317 C   0  0  1  0  0  0
  -27.2138  -27.2207   20.1302 C   0  0  0  0  0  0
  -25.5948  -33.8543   24.2239 N   0  0  0  0  0  0
  -23.4334  -30.4774   21.5411 C   0  0  2  0  0  0
  -24.8810  -28.9233   20.1072 C   0  0  0  0  0  0
  -22.7528  -29.4588   22.4885 C   0  0  0  0  0  0
  -18.0299  -28.1405   22.8496 C   0  0  0  0  0  0
  -24.1495  -36.7278   23.2640 C   0  0  0  0  0  0
  -25.9842  -30.7510   21.3861 C   0  0  0  0  0  0
  -26.0544  -29.3713   20.7263 C   0  0  0  0  0  0
  -27.2211  -28.5322   20.7301 C   0  0  0  0  0  0
  -26.0191  -26.8638   19.4621 C   0  0  0  0  0  0
  -24.8713  -27.6792   19.4628 C   0  0  0  0  0  0
  -23.6542  -29.8162   20.1563 C   0  0  0  0  0  0
  -25.4120  -36.3057   24.0328 C   0  0  1  0  0  0
  -20.5909  -28.3713   23.1267 C   0  0  2  0  0  0
  -20.6788  -26.9423   22.5415 C   0  0  0  0  0  0
  -19.5754  -26.6391   21.5230 C   0  0  0  0  0  0
  -18.1934  -26.7942   22.1637 C   0  0  0  0  0  0
  -19.1555  -28.8875   23.2877 C   0  0  0  0  0  0
  -18.9468  -30.1480   23.8895 C   0  0  0  0  0  0
  -17.6465  -30.6601   24.0571 C   0  0  0  0  0  0
  -25.9067  -34.9433   23.5085 C   0  0  0  0  0  0
  -16.5358  -29.9103   23.6339 C   0  0  0  0  0  0
  -16.7283  -28.6522   23.0356 C   0  0  0  0  0  0
  -26.4514  -31.6566   25.0717 C   0  0  0  0  0  0
  -25.3722  -31.3726   26.1428 C   0  0  0  0  0  0
  -27.0367  -30.2974   24.6233 C   0  0  0  0  0  0
  -27.6063  -32.4307   25.7499 C   0  0  0  0  0  0
  -27.5582  -37.1796   24.8463 C   0  0  0  0  0  0
  -21.4226  -29.3051   22.3646 N   0  0  0  0  0  0
  -26.4289  -37.3762   23.9413 N   0  0  0  0  0  0
  -24.7036  -31.0456   22.0968 N   0  0  0  0  0  0
  -23.4215  -28.8116   23.2982 O   0  0  0  0  0  0
  -28.2854  -26.2827   20.2156 O   0  0  0  0  0  0
  -26.5642  -34.8915   22.4658 O   0  0  0  0  0  0
  -23.5492  -32.1376   23.7239 O   0  0  0  0  0  0
  -28.4317  -22.4274   21.3065 C   0  0  0  0  0  0
  -27.7628  -22.9839   22.4349 C   0  0  0  0  0  0
  -28.4965  -20.9388   21.3137 C   0  0  0  0  0  0
  -27.0430  -20.9480   23.1264 C   0  0  0  0  0  0
  -29.5300  -17.8956   22.2103 C   0  0  0  0  0  0
  -29.4549  -16.3453   22.0832 C   0  0  0  0  0  0
  -29.9180  -17.3072   20.0010 C   0  0  0  0  0  0
  -29.1580  -18.4625   20.8259 C   0  0  2  0  0  0
  -27.7963  -24.4574   22.8196 C   0  0  0  0  0  0
  -26.2127  -20.1240   24.0852 C   0  0  0  0  0  0
  -28.9873  -23.5198   20.2809 C   0  0  0  0  0  0
  -28.0620  -24.8210   19.8552 C   0  0  0  0  0  0
  -27.0701  -22.2480   23.3117 N   0  0  0  0  0  0
  -27.7148  -20.2963   22.2015 N   0  0  0  0  0  0
  -29.8494  -15.9565   20.7208 N   0  0  0  0  0  0
  -29.2935  -19.9793   20.5862 O   0  0  0  0  0  0
  -31.4752  -12.6223   19.1763 H   0  0  0  0  0  0
  -30.3971  -11.5158   19.9688 H   0  0  0  0  0  0
  -29.8051  -11.7476   17.5335 H   0  0  0  0  0  0
  -29.6332  -13.4761   17.7206 H   0  0  0  0  0  0
  -27.9018  -11.2894   18.9138 H   0  0  0  0  0  0
  -27.3835  -12.5298   17.8027 H   0  0  0  0  0  0
  -27.6391  -14.2598   19.4818 H   0  0  0  0  0  0
  -28.7390  -12.1588   21.4082 H   0  0  0  0  0  0
  -28.4043  -13.8152   21.8185 H   0  0  0  0  0  0
  -25.2753   -9.5703   22.4752 H   0  0  0  0  0  0
  -23.9994   -7.4649   22.7473 H   0  0  0  0  0  0
  -21.0829   -8.8775   19.8953 H   0  0  0  0  0  0
  -22.3678  -10.9676   19.6159 H   0  0  0  0  0  0
  -21.2013   -7.6138   23.9719 H   0  0  0  0  0  0
  -21.1477   -6.0507   25.9076 H   0  0  0  0  0  0
  -22.0599   -2.7601   23.2839 H   0  0  0  0  0  0
  -22.4035  -11.9939   22.4843 H   0  0  0  0  0  0
  -21.1056  -13.1306   22.2564 H   0  0  0  0  0  0
  -24.6648  -15.8531   20.5372 H   0  0  0  0  0  0
  -26.2891  -15.6300   20.1255 H   0  0  0  0  0  0
  -26.7231  -32.5374   23.1054 H   0  0  0  0  0  0
  -25.0068  -33.9665   25.0367 H   0  0  0  0  0  0
  -22.7303  -31.3011   21.3971 H   0  0  0  0  0  0
  -23.3759  -35.9609   23.3287 H   0  0  0  0  0  0
  -24.3572  -36.8915   22.2054 H   0  0  0  0  0  0
  -23.7254  -37.6476   23.6674 H   0  0  0  0  0  0
  -26.1331  -31.5094   20.6162 H   0  0  0  0  0  0
  -26.8579  -30.7962   22.0248 H   0  0  0  0  0  0
  -28.1141  -28.8663   21.2402 H   0  0  0  0  0  0
  -25.9290  -25.9246   18.9388 H   0  0  0  0  0  0
  -23.9771  -27.3351   18.9613 H   0  0  0  0  0  0
  -23.7837  -30.5963   19.4049 H   0  0  0  0  0  0
  -22.7696  -29.2564   19.8466 H   0  0  0  0  0  0
  -25.1303  -36.1894   25.0821 H   0  0  0  0  0  0
  -21.0015  -28.3303   24.1382 H   0  0  0  0  0  0
  -20.5699  -26.2318   23.3622 H   0  0  0  0  0  0
  -21.6651  -26.7446   22.1198 H   0  0  0  0  0  0
  -19.6903  -25.6298   21.1268 H   0  0  0  0  0  0
  -19.6694  -27.3202   20.6761 H   0  0  0  0  0  0
  -17.4203  -26.6711   21.4037 H   0  0  0  0  0  0
  -18.0318  -26.0081   22.9029 H   0  0  0  0  0  0
  -19.7937  -30.7312   24.2250 H   0  0  0  0  0  0
  -17.5011  -31.6274   24.5182 H   0  0  0  0  0  0
  -15.5357  -30.3004   23.7657 H   0  0  0  0  0  0
  -15.8684  -28.0848   22.7062 H   0  0  0  0  0  0
  -24.5911  -30.7058   25.7756 H   0  0  0  0  0  0
  -24.8892  -32.2894   26.4816 H   0  0  0  0  0  0
  -25.8025  -30.8930   27.0228 H   0  0  0  0  0  0
  -26.2963  -29.6706   24.1251 H   0  0  0  0  0  0
  -27.4025  -29.7250   25.4765 H   0  0  0  0  0  0
  -27.8851  -30.4226   23.9505 H   0  0  0  0  0  0
  -27.2678  -33.3618   26.2056 H   0  0  0  0  0  0
  -28.3894  -32.6849   25.0343 H   0  0  0  0  0  0
  -28.0713  -31.8439   26.5429 H   0  0  0  0  0  0
  -28.2596  -38.0099   24.7512 H   0  0  0  0  0  0
  -28.1084  -36.2628   24.6284 H   0  0  0  0  0  0
  -27.2295  -37.1442   25.8865 H   0  0  0  0  0  0
  -20.9406  -29.8782   21.6863 H   0  0  0  0  0  0
  -26.0161  -38.2834   24.1410 H   0  0  0  0  0  0
  -30.5468  -18.1977   22.4648 H   0  0  0  0  0  0
  -28.8876  -18.2360   23.0210 H   0  0  0  0  0  0
  -28.4252  -16.0258   22.2445 H   0  0  0  0  0  0
  -30.0682  -15.8597   22.8451 H   0  0  0  0  0  0
  -30.9676  -17.5752   19.8718 H   0  0  0  0  0  0
  -29.4966  -17.2133   18.9995 H   0  0  0  0  0  0
  -28.0981  -18.2545   20.6676 H   0  0  0  0  0  0
  -28.7296  -24.9372   22.5264 H   0  0  0  0  0  0
  -27.7179  -24.5771   23.9009 H   0  0  0  0  0  0
  -26.9592  -24.9975   22.3782 H   0  0  0  0  0  0
  -26.0007  -20.6743   25.0023 H   0  0  0  0  0  0
  -26.7330  -19.2056   24.3580 H   0  0  0  0  0  0
  -25.2640  -19.8542   23.6230 H   0  0  0  0  0  0
  -29.2148  -22.9699   19.3669 H   0  0  0  0  0  0
  -29.9541  -23.8735   20.6403 H   0  0  0  0  0  0
  -27.0422  -24.5396   20.1154 H   0  0  0  0  0  0
  -28.0617  -24.8277   18.7641 H   0  0  0  0  0  0
  1 25  1  0  0  0
  1 30  2  0  0  0
  1 85  1  0  0  0
  2  3  1  0  0  0
  2 25  1  0  0  0
  2 87  1  0  0  0
  2 88  1  0  0  0
  3  4  1  0  0  0
  3 89  1  0  0  0
  3 90  1  0  0  0
  4  5  1  0  0  0
  4 91  1  0  0  0
  4 92  1  0  0  0
  5  6  1  0  0  0
  5 26  1  0  0  0
  5 93  1  0  0  0
  6 25  1  0  0  0
  6 94  1  0  0  0
  6 95  1  0  0  0
  7  8  2  0  0  0
  7 26  1  0  0  0
  7 29  1  0  0  0
  8  9  1  0  0  0
  8 22  1  0  0  0
  9 10  1  0  0  0
  9 27  2  0  0  0
 10 11  2  0  0  0
 10 15  1  0  0  0
 11 12  1  0  0  0
 11 96  1  0  0  0
 12 13  2  0  0  0
 12 97  1  0  0  0
 13 14  1  0  0  0
 13 31  1  0  0  0
 14 15  2  0  0  0
 14 98  1  0  0  0
 15 99  1  0  0  0
 16 17  2  0  0  0
 16 21  1  0  0  0
 16 31  1  0  0  0
 17 18  1  0  0  0
 17100  1  0  0  0
 18 19  2  0  0  0
 18101  1  0  0  0
 19 20  1  0  0  0
 19 24  1  0  0  0
 20 21  2  0  0  0
 20102  1  0  0  0
 21 23  1  0  0  0
 22 28  1  0  0  0
 22 32  2  0  0  0
 26 27  1  0  0  0
 28103  1  0  0  0
 28104  1  0  0  0
 29105  1  0  0  0
 29106  1  0  0  0
 33 34  1  0  0  0
 33 66  1  0  0  0
 33 70  2  0  0  0
 34 36  1  0  0  0
 34 59  1  0  0  0
 34107  1  0  0  0
 35 44  2  0  0  0
 35 45  1  0  0  0
 35 68  1  0  0  0
 36 56  1  0  0  0
 36108  1  0  0  0
 37 39  1  0  0  0
 37 47  1  0  0  0
 37 66  1  0  0  0
 37109  1  0  0  0
 38 43  2  0  0  0
 38 46  1  0  0  0
 38 47  1  0  0  0
 39 64  1  0  0  0
 39 67  2  0  0  0
 40 52  1  0  0  0
 40 53  2  0  0  0
 40 58  1  0  0  0
 41110  1  0  0  0
 41111  1  0  0  0
 41112  1  0  0  0
 41 48  1  0  0  0
 42 43  1  0  0  0
 42 66  1  0  0  0
 42113  1  0  0  0
 42114  1  0  0  0
 43 44  1  0  0  0
 44115  1  0  0  0
 45 46  2  0  0  0
 45116  1  0  0  0
 46117  1  0  0  0
 47118  1  0  0  0
 47119  1  0  0  0
 48 56  1  0  0  0
 48 65  1  0  0  0
 48120  1  0  0  0
 49 50  1  0  0  0
 49 53  1  0  0  0
 49 64  1  0  0  0
 49121  1  0  0  0
 50 51  1  0  0  0
 50122  1  0  0  0
 50123  1  0  0  0
 51 52  1  0  0  0
 51124  1  0  0  0
 51125  1  0  0  0
 52126  1  0  0  0
 52127  1  0  0  0
 53 54  1  0  0  0
 54 55  2  0  0  0
 54128  1  0  0  0
 55 57  1  0  0  0
 55129  1  0  0  0
 56 69  2  0  0  0
 57 58  2  0  0  0
 57130  1  0  0  0
 58131  1  0  0  0
 59 60  1  0  0  0
 59 61  1  0  0  0
 59 62  1  0  0  0
 60132  1  0  0  0
 60133  1  0  0  0
 60134  1  0  0  0
 61135  1  0  0  0
 61136  1  0  0  0
 61137  1  0  0  0
 62138  1  0  0  0
 62139  1  0  0  0
 62140  1  0  0  0
 63 65  1  0  0  0
 63141  1  0  0  0
 63142  1  0  0  0
 63143  1  0  0  0
 64144  1  0  0  0
 65145  1  0  0  0
 68 82  1  0  0  0
 71 72  2  0  0  0
 71 73  1  0  0  0
 71 81  1  0  0  0
 72 79  1  0  0  0
 72 83  1  0  0  0
 73 84  2  0  0  0
 73 86  1  0  0  0
 74 80  1  0  0  0
 74 83  2  0  0  0
 74 84  1  0  0  0
 75 76  1  0  0  0
 75 78  1  0  0  0
 75146  1  0  0  0
 75147  1  0  0  0
 76 85  1  0  0  0
 76148  1  0  0  0
 76149  1  0  0  0
 77 78  1  0  0  0
 77 85  1  0  0  0
 77150  1  0  0  0
 77151  1  0  0  0
 78 86  1  0  0  0
 78152  1  0  0  0
 79153  1  0  0  0
 79154  1  0  0  0
 79155  1  0  0  0
 80156  1  0  0  0
 80157  1  0  0  0
 80158  1  0  0  0
 81 82  1  0  0  0
 81159  1  0  0  0
 81160  1  0  0  0
 82161  1  0  0  0
 82162  1  0  0  0
M  ISO  4   1 100  68 101  82 101  85 100
M  END
> <chiral flag>
0

> <version>
0

> <s_m_source_file>
/data/baiqing/PycharmProjects/Reinvent-master-3.2/result/LINK_invent/BTK/process_docking_weight1_custom_sum_contain_oxygen_bond_distance_aromatic_linkinvent_7_9_3/rearranged_h_0177.sdf

> <i_m_source_file_index>
43

> <r_mmod_Potential_Energy-OPLS-2005>
67.5919189453125

> <r_mmod_Stretch_Energy-OPLS-2005>
176.682968139648

> <r_mmod_Bend_Energy-OPLS-2005>
273.55419921875

> <r_mmod_Torsional_Energy-OPLS-2005>
318.793609619141

> <r_mmod_Improper_Torsional_Energy-OPLS-2005>
10.1839284896851

> <r_mmod_Van_der_Waal_Energy-OPLS-2005>
161.273406982422

> <r_mmod_Electrostatic_Energy-OPLS-2005>
-770.809692382812

> <r_mmod_Solvation_Energy-OPLS-2005>
-210.593246459961

> <b_mmod_Minimization_Converged-OPLS-2005>
0

> <r_mmod_RMS_Derivative-OPLS-2005>
1.27172982692719

$$$$
43
                    3D
 Structure written by MMmdl.
155164  0  0  1  0            999 V2000
  -30.6471  -14.7307   20.4641 C   0  0  0  0  0  0
  -30.4287  -12.4505   19.4553 C   0  0  0  0  0  0
  -29.5016  -12.4934   18.2222 C   0  0  0  0  0  0
  -28.0306  -12.3205   18.6464 C   0  0  0  0  0  0
  -27.6391  -13.2336   19.8398 C   0  0  2  0  0  0
  -28.6904  -13.1828   20.9680 C   0  0  0  0  0  0
  -25.2507  -13.8216   20.5688 C   0  0  0  0  0  0
  -24.1807  -13.0453   20.9216 C   0  0  0  0  0  0
  -24.6415  -11.6934   20.8762 C   0  0  0  0  0  0
  -23.9098  -10.4300   21.0415 C   0  0  0  0  0  0
  -24.3642   -9.4203   21.9186 C   0  0  0  0  0  0
  -23.6300   -8.2244   22.0761 C   0  0  0  0  0  0
  -22.4277   -8.0297   21.3557 C   0  0  0  0  0  0
  -21.9921   -9.0276   20.4653 C   0  0  0  0  0  0
  -22.7272  -10.2142   20.3058 C   0  0  0  0  0  0
  -21.6857   -6.0742   22.5279 C   0  0  0  0  0  0
  -21.4019   -6.5639   23.8216 C   0  0  0  0  0  0
  -21.3656   -5.6783   24.9172 C   0  0  0  0  0  0
  -21.6044   -4.3045   24.7213 C   0  0  0  0  0  0
  -21.8826   -3.8151   23.4330 C   0  0  0  0  0  0
  -21.9193   -4.6974   22.3390 C   0  0  0  0  0  0
  -22.7821  -13.5222   21.1855 C   0  0  0  0  0  0
  -22.1662   -4.2167   21.0967 F   0  0  0  0  0  0
  -21.5627   -3.4526   25.7720 F   0  0  0  0  0  0
  -29.9862  -13.5260   20.3710 N   0  0  0  0  0  0
  -26.2939  -12.9433   20.3247 N   0  0  0  0  0  0
  -25.9344  -11.6578   20.5758 N   0  0  0  0  0  0
  -22.0463  -12.8234   22.0419 N   0  0  0  0  0  0
  -25.4140  -15.1942   20.4105 N   0  0  0  0  0  0
  -31.8490  -14.7718   20.1992 O   0  0  0  0  0  0
  -21.6641   -6.8899   21.4249 O   0  0  0  0  0  0
  -22.3498  -14.5523   20.6690 O   0  0  0  0  0  0
  -24.6315  -31.8563   23.2006 C   0  0  0  0  0  0
  -25.9145  -32.4763   23.8333 C   0  0  1  0  0  0
  -27.2136  -27.2665   20.1237 C   0  0  0  0  0  0
  -25.5942  -33.8563   24.2258 N   0  0  0  0  0  0
  -23.4270  -30.4803   21.5453 C   0  0  2  0  0  0
  -24.8726  -28.9306   20.1122 C   0  0  0  0  0  0
  -22.7499  -29.4610   22.4932 C   0  0  0  0  0  0
  -18.0295  -28.1375   22.8487 C   0  0  0  0  0  0
  -24.1488  -36.7284   23.2636 C   0  0  0  0  0  0
  -25.9740  -30.7695   21.3814 C   0  0  0  0  0  0
  -26.0469  -29.3935   20.7214 C   0  0  0  0  0  0
  -27.2232  -28.5750   20.7154 C   0  0  0  0  0  0
  -26.0229  -26.8852   19.4663 C   0  0  0  0  0  0
  -24.8656  -27.6836   19.4734 C   0  0  0  0  0  0
  -23.6435  -29.8167   20.1608 C   0  0  0  0  0  0
  -25.4114  -36.3073   24.0324 C   0  0  1  0  0  0
  -20.5895  -28.3680   23.1271 C   0  0  2  0  0  0
  -20.6778  -26.9397   22.5404 C   0  0  0  0  0  0
  -19.5751  -26.6370   21.5210 C   0  0  0  0  0  0
  -18.1934  -26.7918   22.1627 C   0  0  0  0  0  0
  -19.1543  -28.8848   23.2872 C   0  0  0  0  0  0
  -18.9471  -30.1455   23.8879 C   0  0  0  0  0  0
  -17.6465  -30.6576   24.0555 C   0  0  0  0  0  0
  -25.9056  -34.9443   23.5084 C   0  0  0  0  0  0
  -16.5357  -29.9066   23.6337 C   0  0  0  0  0  0
  -16.7282  -28.6487   23.0358 C   0  0  0  0  0  0
  -26.4509  -31.6593   25.0726 C   0  0  0  0  0  0
  -25.3719  -31.3750   26.1441 C   0  0  0  0  0  0
  -27.0374  -30.3010   24.6230 C   0  0  0  0  0  0
  -27.6052  -32.4347   25.7498 C   0  0  0  0  0  0
  -27.5581  -37.1792   24.8461 C   0  0  0  0  0  0
  -21.4210  -29.3032   22.3669 N   0  0  0  0  0  0
  -26.4286  -37.3774   23.9418 N   0  0  0  0  0  0
  -24.6968  -31.0521   22.0987 N   0  0  0  0  0  0
  -23.4207  -28.8137   23.3014 O   0  0  0  0  0  0
  -28.2909  -26.3509   20.1526 O   0  0  0  0  0  0
  -26.5621  -34.8918   22.4652 O   0  0  0  0  0  0
  -23.5465  -32.1385   23.7302 O   0  0  0  0  0  0
  -30.1174  -23.9004   19.4948 C   0  0  0  0  0  0
  -28.6358  -22.3247   20.5574 C   0  0  0  0  0  0
  -30.9319  -22.7920   19.1880 C   0  0  0  0  0  0
  -28.9180  -23.7046   20.2004 C   0  0  0  0  0  0
  -29.5202  -21.2296   20.2201 C   0  0  0  0  0  0
  -31.5626  -18.9893   21.1028 C   0  0  0  0  0  0
  -31.7646  -17.5042   21.3469 C   0  0  0  0  0  0
  -30.2578  -18.6812   20.3325 C   0  0  1  0  0  0
  -30.2435  -17.2972   21.1999 C   0  0  1  0  0  0
  -27.9702  -24.9311   20.5479 C   0  0  0  0  0  0
  -30.6467  -21.5100   19.5310 N   0  0  0  0  0  0
  -29.2979  -19.8362   20.5703 N   0  0  0  0  0  0
  -29.9049  -15.8916   20.6649 N   0  0  0  0  0  0
  -31.4688  -12.5660   19.1464 H   0  0  0  0  0  0
  -30.3690  -11.4795   19.9498 H   0  0  0  0  0  0
  -29.7792  -11.7122   17.5122 H   0  0  0  0  0  0
  -29.6264  -13.4435   17.7015 H   0  0  0  0  0  0
  -27.8951  -11.2750   18.9255 H   0  0  0  0  0  0
  -27.3655  -12.4941   17.7992 H   0  0  0  0  0  0
  -27.6279  -14.2508   19.4476 H   0  0  0  0  0  0
  -28.7272  -12.1921   21.4219 H   0  0  0  0  0  0
  -28.4352  -13.8787   21.7678 H   0  0  0  0  0  0
  -25.2798   -9.5671   22.4750 H   0  0  0  0  0  0
  -24.0010   -7.4636   22.7476 H   0  0  0  0  0  0
  -21.0854   -8.8816   19.8950 H   0  0  0  0  0  0
  -22.3755  -10.9689   19.6160 H   0  0  0  0  0  0
  -21.2020   -7.6148   23.9735 H   0  0  0  0  0  0
  -21.1467   -6.0499   25.9077 H   0  0  0  0  0  0
  -22.0607   -2.7616   23.2822 H   0  0  0  0  0  0
  -22.4065  -11.9897   22.4835 H   0  0  0  0  0  0
  -21.1080  -13.1277   22.2607 H   0  0  0  0  0  0
  -24.6413  -15.8396   20.5353 H   0  0  0  0  0  0
  -26.2523  -15.6477   20.0713 H   0  0  0  0  0  0
  -26.7205  -32.5415   23.1066 H   0  0  0  0  0  0
  -25.0113  -33.9694   25.0423 H   0  0  0  0  0  0
  -22.7235  -31.3035   21.4013 H   0  0  0  0  0  0
  -23.3759  -35.9606   23.3285 H   0  0  0  0  0  0
  -24.3580  -36.8925   22.2053 H   0  0  0  0  0  0
  -23.7225  -37.6471   23.6675 H   0  0  0  0  0  0
  -26.1153  -31.5327   20.6144 H   0  0  0  0  0  0
  -26.8513  -30.8146   22.0169 H   0  0  0  0  0  0
  -28.1220  -28.9257   21.2031 H   0  0  0  0  0  0
  -25.9657  -25.9470   18.9348 H   0  0  0  0  0  0
  -23.9709  -27.3297   18.9797 H   0  0  0  0  0  0
  -23.7652  -30.5946   19.4055 H   0  0  0  0  0  0
  -22.7627  -29.2485   19.8569 H   0  0  0  0  0  0
  -25.1292  -36.1913   25.0814 H   0  0  0  0  0  0
  -20.9990  -28.3247   24.1392 H   0  0  0  0  0  0
  -20.5675  -26.2284   23.3608 H   0  0  0  0  0  0
  -21.6646  -26.7414   22.1196 H   0  0  0  0  0  0
  -19.6905  -25.6280   21.1243 H   0  0  0  0  0  0
  -19.6688  -27.3180   20.6740 H   0  0  0  0  0  0
  -17.4204  -26.6678   21.4027 H   0  0  0  0  0  0
  -18.0327  -26.0050   22.9013 H   0  0  0  0  0  0
  -19.7944  -30.7282   24.2229 H   0  0  0  0  0  0
  -17.5018  -31.6259   24.5153 H   0  0  0  0  0  0
  -15.5355  -30.2960   23.7671 H   0  0  0  0  0  0
  -15.8689  -28.0800   22.7078 H   0  0  0  0  0  0
  -24.5890  -30.7108   25.7764 H   0  0  0  0  0  0
  -24.8916  -32.2927   26.4846 H   0  0  0  0  0  0
  -25.8018  -30.8932   27.0232 H   0  0  0  0  0  0
  -26.2975  -29.6744   24.1239 H   0  0  0  0  0  0
  -27.4040  -29.7287   25.4763 H   0  0  0  0  0  0
  -27.8852  -30.4290   23.9496 H   0  0  0  0  0  0
  -27.2650  -33.3656   26.2047 H   0  0  0  0  0  0
  -28.3870  -32.6904   25.0333 H   0  0  0  0  0  0
  -28.0716  -31.8500   26.5438 H   0  0  0  0  0  0
  -28.2578  -38.0110   24.7543 H   0  0  0  0  0  0
  -28.1098  -36.2645   24.6243 H   0  0  0  0  0  0
  -27.2306  -37.1379   25.8863 H   0  0  0  0  0  0
  -20.9403  -29.8757   21.6878 H   0  0  0  0  0  0
  -26.0164  -38.2843   24.1442 H   0  0  0  0  0  0
  -30.4111  -24.8933   19.1834 H   0  0  0  0  0  0
  -27.7235  -22.1170   21.1002 H   0  0  0  0  0  0
  -31.8535  -22.9413   18.6438 H   0  0  0  0  0  0
  -32.3494  -19.4604   20.5117 H   0  0  0  0  0  0
  -31.4037  -19.5287   22.0395 H   0  0  0  0  0  0
  -32.1727  -17.2588   22.3283 H   0  0  0  0  0  0
  -32.3788  -17.0949   20.5458 H   0  0  0  0  0  0
  -30.4517  -18.5087   19.2721 H   0  0  0  0  0  0
  -29.7578  -17.4721   22.1624 H   0  0  0  0  0  0
  -27.8755  -24.9366   21.6339 H   0  0  0  0  0  0
  -26.9909  -24.6235   20.1889 H   0  0  0  0  0  0
  -28.4195  -19.6071   21.0224 H   0  0  0  0  0  0
  -28.9146  -15.7046   20.6596 H   0  0  0  0  0  0
  1 25  1  0  0  0
  1 30  2  0  0  0
  1 83  1  0  0  0
  2  3  1  0  0  0
  2 25  1  0  0  0
  2 84  1  0  0  0
  2 85  1  0  0  0
  3  4  1  0  0  0
  3 86  1  0  0  0
  3 87  1  0  0  0
  4  5  1  0  0  0
  4 88  1  0  0  0
  4 89  1  0  0  0
  5  6  1  0  0  0
  5 26  1  0  0  0
  5 90  1  0  0  0
  6 25  1  0  0  0
  6 91  1  0  0  0
  6 92  1  0  0  0
  7  8  2  0  0  0
  7 26  1  0  0  0
  7 29  1  0  0  0
  8  9  1  0  0  0
  8 22  1  0  0  0
  9 10  1  0  0  0
  9 27  2  0  0  0
 10 11  2  0  0  0
 10 15  1  0  0  0
 11 12  1  0  0  0
 11 93  1  0  0  0
 12 13  2  0  0  0
 12 94  1  0  0  0
 13 14  1  0  0  0
 13 31  1  0  0  0
 14 15  2  0  0  0
 14 95  1  0  0  0
 15 96  1  0  0  0
 16 17  2  0  0  0
 16 21  1  0  0  0
 16 31  1  0  0  0
 17 18  1  0  0  0
 17 97  1  0  0  0
 18 19  2  0  0  0
 18 98  1  0  0  0
 19 20  1  0  0  0
 19 24  1  0  0  0
 20 21  2  0  0  0
 20 99  1  0  0  0
 21 23  1  0  0  0
 22 28  1  0  0  0
 22 32  2  0  0  0
 26 27  1  0  0  0
 28100  1  0  0  0
 28101  1  0  0  0
 29102  1  0  0  0
 29103  1  0  0  0
 33 34  1  0  0  0
 33 66  1  0  0  0
 33 70  2  0  0  0
 34 36  1  0  0  0
 34 59  1  0  0  0
 34104  1  0  0  0
 35 44  2  0  0  0
 35 45  1  0  0  0
 35 68  1  0  0  0
 36 56  1  0  0  0
 36105  1  0  0  0
 37 39  1  0  0  0
 37 47  1  0  0  0
 37 66  1  0  0  0
 37106  1  0  0  0
 38 43  2  0  0  0
 38 46  1  0  0  0
 38 47  1  0  0  0
 39 64  1  0  0  0
 39 67  2  0  0  0
 40 52  1  0  0  0
 40 53  2  0  0  0
 40 58  1  0  0  0
 41107  1  0  0  0
 41108  1  0  0  0
 41109  1  0  0  0
 41 48  1  0  0  0
 42 43  1  0  0  0
 42 66  1  0  0  0
 42110  1  0  0  0
 42111  1  0  0  0
 43 44  1  0  0  0
 44112  1  0  0  0
 45 46  2  0  0  0
 45113  1  0  0  0
 46114  1  0  0  0
 47115  1  0  0  0
 47116  1  0  0  0
 48 56  1  0  0  0
 48 65  1  0  0  0
 48117  1  0  0  0
 49 50  1  0  0  0
 49 53  1  0  0  0
 49 64  1  0  0  0
 49118  1  0  0  0
 50 51  1  0  0  0
 50119  1  0  0  0
 50120  1  0  0  0
 51 52  1  0  0  0
 51121  1  0  0  0
 51122  1  0  0  0
 52123  1  0  0  0
 52124  1  0  0  0
 53 54  1  0  0  0
 54 55  2  0  0  0
 54125  1  0  0  0
 55 57  1  0  0  0
 55126  1  0  0  0
 56 69  2  0  0  0
 57 58  2  0  0  0
 57127  1  0  0  0
 58128  1  0  0  0
 59 60  1  0  0  0
 59 61  1  0  0  0
 59 62  1  0  0  0
 60129  1  0  0  0
 60130  1  0  0  0
 60131  1  0  0  0
 61132  1  0  0  0
 61133  1  0  0  0
 61134  1  0  0  0
 62135  1  0  0  0
 62136  1  0  0  0
 62137  1  0  0  0
 63 65  1  0  0  0
 63138  1  0  0  0
 63139  1  0  0  0
 63140  1  0  0  0
 64141  1  0  0  0
 65142  1  0  0  0
 68 80  1  0  0  0
 71 73  2  0  0  0
 71 74  1  0  0  0
 71143  1  0  0  0
 72 74  2  0  0  0
 72 75  1  0  0  0
 72144  1  0  0  0
 73 81  1  0  0  0
 73145  1  0  0  0
 74 80  1  0  0  0
 75 81  2  0  0  0
 75 82  1  0  0  0
 76 77  1  0  0  0
 76 78  1  0  0  0
 76146  1  0  0  0
 76147  1  0  0  0
 77 79  1  0  0  0
 77148  1  0  0  0
 77149  1  0  0  0
 78 79  1  0  0  0
 78 82  1  0  0  0
 78150  1  0  0  0
 79 83  1  0  0  0
 79151  1  0  0  0
 80152  1  0  0  0
 80153  1  0  0  0
 82154  1  0  0  0
 83155  1  0  0  0
M  ISO  4   1 100  68 101  80 101  83 100
M  END
> <chiral flag>
0

> <version>
0

> <s_m_source_file>
/data/baiqing/PycharmProjects/Reinvent-master-3.2/result/LINK_invent/BTK/process_docking_weight1_custom_sum_contain_oxygen_bond_distance_aromatic_linkinvent_7_9_3/rearranged_h_0177.sdf

> <i_m_source_file_index>
44

> <r_mmod_Potential_Energy-OPLS-2005>
-28.0734233856201

> <r_mmod_Stretch_Energy-OPLS-2005>
121.926933288574

> <r_mmod_Bend_Energy-OPLS-2005>
209.848342895508

> <r_mmod_Torsional_Energy-OPLS-2005>
246.556167602539

> <r_mmod_Improper_Torsional_Energy-OPLS-2005>
4.54577302932739

> <r_mmod_Van_der_Waal_Energy-OPLS-2005>
151.684844970703

> <r_mmod_Electrostatic_Energy-OPLS-2005>
-604.010375976562

> <r_mmod_Solvation_Energy-OPLS-2005>
-243.191986083984

> <b_mmod_Minimization_Converged-OPLS-2005>
0

> <r_mmod_RMS_Derivative-OPLS-2005>
1.77779102325439

$$$$
44
                    3D
 Structure written by MMmdl.
163172  0  0  1  0            999 V2000
  -30.6201  -14.6829   20.4582 C   0  0  0  0  0  0
  -30.4285  -12.4318   19.4447 C   0  0  0  0  0  0
  -29.4991  -12.5126   18.2129 C   0  0  0  0  0  0
  -28.0185  -12.3653   18.6142 C   0  0  0  0  0  0
  -27.6410  -13.2306   19.8479 C   0  0  2  0  0  0
  -28.6879  -13.1384   20.9771 C   0  0  0  0  0  0
  -25.2492  -13.8208   20.5667 C   0  0  0  0  0  0
  -24.1807  -13.0463   20.9188 C   0  0  0  0  0  0
  -24.6387  -11.6920   20.8740 C   0  0  0  0  0  0
  -23.9080  -10.4290   21.0410 C   0  0  0  0  0  0
  -24.3635   -9.4213   21.9206 C   0  0  0  0  0  0
  -23.6315   -8.2239   22.0782 C   0  0  0  0  0  0
  -22.4297   -8.0268   21.3539 C   0  0  0  0  0  0
  -21.9933   -9.0237   20.4627 C   0  0  0  0  0  0
  -22.7269  -10.2125   20.3046 C   0  0  0  0  0  0
  -21.6853   -6.0722   22.5275 C   0  0  0  0  0  0
  -21.4013   -6.5661   23.8199 C   0  0  0  0  0  0
  -21.3657   -5.6838   24.9176 C   0  0  0  0  0  0
  -21.6035   -4.3093   24.7245 C   0  0  0  0  0  0
  -21.8832   -3.8160   23.4384 C   0  0  0  0  0  0
  -21.9206   -4.6944   22.3421 C   0  0  0  0  0  0
  -22.7825  -13.5192   21.1883 C   0  0  0  0  0  0
  -22.1676   -4.2151   21.0983 F   0  0  0  0  0  0
  -21.5630   -3.4578   25.7743 F   0  0  0  0  0  0
  -29.9894  -13.4712   20.3926 N   0  0  0  0  0  0
  -26.2906  -12.9423   20.3235 N   0  0  0  0  0  0
  -25.9324  -11.6552   20.5743 N   0  0  0  0  0  0
  -22.0500  -12.8109   22.0377 N   0  0  0  0  0  0
  -25.4171  -15.1977   20.4069 N   0  0  0  0  0  0
  -31.8167  -14.7918   20.1796 O   0  0  0  0  0  0
  -21.6662   -6.8880   21.4244 O   0  0  0  0  0  0
  -22.3485  -14.5496   20.6749 O   0  0  0  0  0  0
  -24.6337  -31.8540   23.2030 C   0  0  0  0  0  0
  -25.9178  -32.4740   23.8356 C   0  0  1  0  0  0
  -27.2181  -27.2893   20.0941 C   0  0  0  0  0  0
  -25.5992  -33.8539   24.2292 N   0  0  0  0  0  0
  -23.4246  -30.4866   21.5427 C   0  0  2  0  0  0
  -24.8666  -28.9409   20.1004 C   0  0  0  0  0  0
  -22.7489  -29.4629   22.4869 C   0  0  0  0  0  0
  -18.0304  -28.1415   22.8536 C   0  0  0  0  0  0
  -24.1480  -36.7272   23.2653 C   0  0  0  0  0  0
  -25.9698  -30.7803   21.3690 C   0  0  0  0  0  0
  -26.0394  -29.4046   20.7101 C   0  0  0  0  0  0
  -27.2129  -28.5879   20.7052 C   0  0  0  0  0  0
  -26.0121  -26.8805   19.4798 C   0  0  0  0  0  0
  -24.8583  -27.6857   19.4767 C   0  0  0  0  0  0
  -23.6428  -29.8348   20.1528 C   0  0  0  0  0  0
  -25.4095  -36.3036   24.0350 C   0  0  1  0  0  0
  -20.5909  -28.3726   23.1288 C   0  0  2  0  0  0
  -20.6781  -26.9438   22.5417 C   0  0  0  0  0  0
  -19.5747  -26.6410   21.5231 C   0  0  0  0  0  0
  -18.1935  -26.7978   22.1620 C   0  0  0  0  0  0
  -19.1558  -28.8880   23.2921 C   0  0  0  0  0  0
  -18.9446  -30.1470   23.8942 C   0  0  0  0  0  0
  -17.6440  -30.6617   24.0557 C   0  0  0  0  0  0
  -25.9056  -34.9419   23.5106 C   0  0  0  0  0  0
  -16.5339  -29.9099   23.6332 C   0  0  0  0  0  0
  -16.7280  -28.6512   23.0384 C   0  0  0  0  0  0
  -26.4576  -31.6550   25.0723 C   0  0  0  0  0  0
  -25.3848  -31.3511   26.1438 C   0  0  0  0  0  0
  -27.0496  -30.3032   24.6105 C   0  0  0  0  0  0
  -27.6114  -32.4267   25.7550 C   0  0  0  0  0  0
  -27.5570  -37.1782   24.8467 C   0  0  0  0  0  0
  -21.4190  -29.3065   22.3650 N   0  0  0  0  0  0
  -26.4252  -37.3742   23.9450 N   0  0  0  0  0  0
  -24.6967  -31.0581   22.0953 N   0  0  0  0  0  0
  -23.4224  -28.8176   23.2954 O   0  0  0  0  0  0
  -28.3286  -26.4229   20.1637 O   0  0  0  0  0  0
  -26.5577  -34.8894   22.4639 O   0  0  0  0  0  0
  -23.5497  -32.1324   23.7383 O   0  0  0  0  0  0
  -30.0191  -23.2051   19.9495 C   0  0  0  0  0  0
  -28.7154  -23.7559   19.7494 C   0  0  0  0  0  0
  -27.9289  -21.5078   19.7520 C   0  0  0  0  0  0
  -29.2511  -20.9664   19.8914 C   0  0  0  0  0  0
  -29.1068  -18.3875   20.5193 C   0  0  0  0  0  0
  -30.9367  -19.2263   19.2171 C   0  0  0  0  0  0
  -30.2482  -17.2712   20.5281 C   0  0  2  0  0  0
  -31.0604  -17.6873   19.2721 C   0  0  2  0  0  0
  -31.2656  -24.0663   20.0137 C   0  0  0  0  0  0
  -26.7247  -20.6002   19.5684 C   0  0  0  0  0  0
  -28.4764  -25.2526   19.2544 C   0  0  0  0  0  0
  -27.6740  -22.8643   19.6798 N   0  0  0  0  0  0
  -30.2679  -21.8594   20.0133 N   0  0  0  0  0  0
  -29.6271  -19.5741   19.7777 N   0  0  0  0  0  0
  -29.8394  -15.8095   20.5719 N   0  0  0  0  0  0
  -32.4588  -17.2175   19.2536 N   0  3  0  0  0  0
  -31.4617  -12.5781   19.1215 H   0  0  0  0  0  0
  -30.3872  -11.4495   19.9167 H   0  0  0  0  0  0
  -29.7668  -11.7453   17.4831 H   0  0  0  0  0  0
  -29.6416  -13.4701   17.7086 H   0  0  0  0  0  0
  -27.8220  -11.3119   18.8132 H   0  0  0  0  0  0
  -27.3822  -12.6371   17.7699 H   0  0  0  0  0  0
  -27.6353  -14.2636   19.4973 H   0  0  0  0  0  0
  -28.7100  -12.1374   21.4109 H   0  0  0  0  0  0
  -28.4330  -13.8217   21.7895 H   0  0  0  0  0  0
  -25.2782   -9.5701   22.4747 H   0  0  0  0  0  0
  -24.0036   -7.4647   22.7526 H   0  0  0  0  0  0
  -21.0878   -8.8719   19.8912 H   0  0  0  0  0  0
  -22.3720  -10.9643   19.6117 H   0  0  0  0  0  0
  -21.1979   -7.6169   23.9694 H   0  0  0  0  0  0
  -21.1478   -6.0574   25.9081 H   0  0  0  0  0  0
  -22.0597   -2.7610   23.2899 H   0  0  0  0  0  0
  -22.4227  -11.9768   22.4689 H   0  0  0  0  0  0
  -21.1094  -13.1035   22.2603 H   0  0  0  0  0  0
  -24.6501  -15.8485   20.5202 H   0  0  0  0  0  0
  -26.2518  -15.6338   20.0411 H   0  0  0  0  0  0
  -26.7253  -32.5411   23.1107 H   0  0  0  0  0  0
  -25.0270  -33.9655   25.0530 H   0  0  0  0  0  0
  -22.7212  -31.3107   21.4083 H   0  0  0  0  0  0
  -23.3755  -35.9572   23.3198 H   0  0  0  0  0  0
  -24.3572  -36.9008   22.2083 H   0  0  0  0  0  0
  -23.7210  -37.6435   23.6752 H   0  0  0  0  0  0
  -26.0953  -31.5375   20.5955 H   0  0  0  0  0  0
  -26.8542  -30.8334   21.9937 H   0  0  0  0  0  0
  -28.1091  -28.9456   21.1941 H   0  0  0  0  0  0
  -25.9008  -25.9114   19.0209 H   0  0  0  0  0  0
  -23.9602  -27.3194   18.9993 H   0  0  0  0  0  0
  -23.7851  -30.6236   19.4130 H   0  0  0  0  0  0
  -22.7540  -29.2905   19.8316 H   0  0  0  0  0  0
  -25.1261  -36.1855   25.0840 H   0  0  0  0  0  0
  -21.0029  -28.3287   24.1390 H   0  0  0  0  0  0
  -20.5723  -26.2293   23.3573 H   0  0  0  0  0  0
  -21.6644  -26.7462   22.1190 H   0  0  0  0  0  0
  -19.6880  -25.6324   21.1248 H   0  0  0  0  0  0
  -19.6700  -27.3215   20.6770 H   0  0  0  0  0  0
  -17.4199  -26.6789   21.4018 H   0  0  0  0  0  0
  -18.0271  -26.0105   22.8996 H   0  0  0  0  0  0
  -19.7890  -30.7306   24.2346 H   0  0  0  0  0  0
  -17.4964  -31.6308   24.5136 H   0  0  0  0  0  0
  -15.5340  -30.2982   23.7652 H   0  0  0  0  0  0
  -15.8684  -28.0824   22.7095 H   0  0  0  0  0  0
  -24.6221  -30.6624   25.7781 H   0  0  0  0  0  0
  -24.8817  -32.2562   26.4847 H   0  0  0  0  0  0
  -25.8309  -30.8809   27.0220 H   0  0  0  0  0  0
  -26.3072  -29.6703   24.1234 H   0  0  0  0  0  0
  -27.4402  -29.7334   25.4562 H   0  0  0  0  0  0
  -27.8824  -30.4409   23.9194 H   0  0  0  0  0  0
  -27.2766  -33.3598   26.2059 H   0  0  0  0  0  0
  -28.4019  -32.6728   25.0468 H   0  0  0  0  0  0
  -28.0659  -31.8404   26.5533 H   0  0  0  0  0  0
  -28.2487  -38.0188   24.7635 H   0  0  0  0  0  0
  -28.1184  -36.2718   24.6151 H   0  0  0  0  0  0
  -27.2291  -37.1240   25.8866 H   0  0  0  0  0  0
  -20.9325  -29.8775   21.6888 H   0  0  0  0  0  0
  -26.0114  -38.2795   24.1503 H   0  0  0  0  0  0
  -28.8083  -18.6627   21.5312 H   0  0  0  0  0  0
  -28.2027  -18.0222   20.0200 H   0  0  0  0  0  0
  -31.0494  -19.5859   18.1892 H   0  0  0  0  0  0
  -31.7317  -19.6866   19.8047 H   0  0  0  0  0  0
  -30.8599  -17.4548   21.4170 H   0  0  0  0  0  0
  -30.5668  -17.2689   18.3933 H   0  0  0  0  0  0
  -31.0521  -25.0678   20.3886 H   0  0  0  0  0  0
  -31.7127  -24.1549   19.0227 H   0  0  0  0  0  0
  -31.9977  -23.6117   20.6798 H   0  0  0  0  0  0
  -26.4322  -20.1603   20.5214 H   0  0  0  0  0  0
  -26.9566  -19.7908   18.8738 H   0  0  0  0  0  0
  -25.8676  -21.1412   19.1651 H   0  0  0  0  0  0
  -27.7411  -25.2387   18.4548 H   0  0  0  0  0  0
  -29.3819  -25.5009   18.7037 H   0  0  0  0  0  0
  -28.8532  -15.6373   20.7002 H   0  0  0  0  0  0
  -33.0596  -17.7287   19.8781 H   0  0  0  0  0  0
  -32.8485  -17.2648   18.3275 H   0  0  0  0  0  0
  -32.4475  -16.2437   19.5488 H   0  0  0  0  0  0
  1 25  1  0  0  0
  1 30  2  0  0  0
  1 85  1  0  0  0
  2  3  1  0  0  0
  2 25  1  0  0  0
  2 87  1  0  0  0
  2 88  1  0  0  0
  3  4  1  0  0  0
  3 89  1  0  0  0
  3 90  1  0  0  0
  4  5  1  0  0  0
  4 91  1  0  0  0
  4 92  1  0  0  0
  5  6  1  0  0  0
  5 26  1  0  0  0
  5 93  1  0  0  0
  6 25  1  0  0  0
  6 94  1  0  0  0
  6 95  1  0  0  0
  7  8  2  0  0  0
  7 26  1  0  0  0
  7 29  1  0  0  0
  8  9  1  0  0  0
  8 22  1  0  0  0
  9 10  1  0  0  0
  9 27  2  0  0  0
 10 11  2  0  0  0
 10 15  1  0  0  0
 11 12  1  0  0  0
 11 96  1  0  0  0
 12 13  2  0  0  0
 12 97  1  0  0  0
 13 14  1  0  0  0
 13 31  1  0  0  0
 14 15  2  0  0  0
 14 98  1  0  0  0
 15 99  1  0  0  0
 16 17  2  0  0  0
 16 21  1  0  0  0
 16 31  1  0  0  0
 17 18  1  0  0  0
 17100  1  0  0  0
 18 19  2  0  0  0
 18101  1  0  0  0
 19 20  1  0  0  0
 19 24  1  0  0  0
 20 21  2  0  0  0
 20102  1  0  0  0
 21 23  1  0  0  0
 22 28  1  0  0  0
 22 32  2  0  0  0
 26 27  1  0  0  0
 28103  1  0  0  0
 28104  1  0  0  0
 29105  1  0  0  0
 29106  1  0  0  0
 33 34  1  0  0  0
 33 66  1  0  0  0
 33 70  2  0  0  0
 34 36  1  0  0  0
 34 59  1  0  0  0
 34107  1  0  0  0
 35 44  2  0  0  0
 35 45  1  0  0  0
 35 68  1  0  0  0
 36 56  1  0  0  0
 36108  1  0  0  0
 37 39  1  0  0  0
 37 47  1  0  0  0
 37 66  1  0  0  0
 37109  1  0  0  0
 38 43  2  0  0  0
 38 46  1  0  0  0
 38 47  1  0  0  0
 39 64  1  0  0  0
 39 67  2  0  0  0
 40 52  1  0  0  0
 40 53  2  0  0  0
 40 58  1  0  0  0
 41110  1  0  0  0
 41111  1  0  0  0
 41112  1  0  0  0
 41 48  1  0  0  0
 42 43  1  0  0  0
 42 66  1  0  0  0
 42113  1  0  0  0
 42114  1  0  0  0
 43 44  1  0  0  0
 44115  1  0  0  0
 45 46  2  0  0  0
 45116  1  0  0  0
 46117  1  0  0  0
 47118  1  0  0  0
 47119  1  0  0  0
 48 56  1  0  0  0
 48 65  1  0  0  0
 48120  1  0  0  0
 49 50  1  0  0  0
 49 53  1  0  0  0
 49 64  1  0  0  0
 49121  1  0  0  0
 50 51  1  0  0  0
 50122  1  0  0  0
 50123  1  0  0  0
 51 52  1  0  0  0
 51124  1  0  0  0
 51125  1  0  0  0
 52126  1  0  0  0
 52127  1  0  0  0
 53 54  1  0  0  0
 54 55  2  0  0  0
 54128  1  0  0  0
 55 57  1  0  0  0
 55129  1  0  0  0
 56 69  2  0  0  0
 57 58  2  0  0  0
 57130  1  0  0  0
 58131  1  0  0  0
 59 60  1  0  0  0
 59 61  1  0  0  0
 59 62  1  0  0  0
 60132  1  0  0  0
 60133  1  0  0  0
 60134  1  0  0  0
 61135  1  0  0  0
 61136  1  0  0  0
 61137  1  0  0  0
 62138  1  0  0  0
 62139  1  0  0  0
 62140  1  0  0  0
 63 65  1  0  0  0
 63141  1  0  0  0
 63142  1  0  0  0
 63143  1  0  0  0
 64144  1  0  0  0
 65145  1  0  0  0
 68 81  1  0  0  0
 71 72  2  0  0  0
 71 79  1  0  0  0
 71 83  1  0  0  0
 72 81  1  0  0  0
 72 82  1  0  0  0
 73 74  1  0  0  0
 73 80  1  0  0  0
 73 82  2  0  0  0
 74 83  2  0  0  0
 74 84  1  0  0  0
 75 77  1  0  0  0
 75 84  1  0  0  0
 75146  1  0  0  0
 75147  1  0  0  0
 76 78  1  0  0  0
 76 84  1  0  0  0
 76148  1  0  0  0
 76149  1  0  0  0
 77 78  1  0  0  0
 77 85  1  0  0  0
 77150  1  0  0  0
 78 86  1  0  0  0
 78151  1  0  0  0
 79152  1  0  0  0
 79153  1  0  0  0
 79154  1  0  0  0
 80155  1  0  0  0
 80156  1  0  0  0
 80157  1  0  0  0
 81158  1  0  0  0
 81159  1  0  0  0
 85160  1  0  0  0
 86161  1  0  0  0
 86162  1  0  0  0
 86163  1  0  0  0
M  CHG  1  86   1
M  ISO  4   1 100  68 101  81 101  85 100
M  END
> <chiral flag>
0

> <version>
0

> <s_m_source_file>
/data/baiqing/PycharmProjects/Reinvent-master-3.2/result/LINK_invent/BTK/process_docking_weight1_custom_sum_contain_oxygen_bond_distance_aromatic_linkinvent_7_9_3/rearranged_h_0177.sdf

> <i_m_source_file_index>
45

> <r_mmod_Potential_Energy-OPLS-2005>
-123.693382263184

> <r_mmod_Stretch_Energy-OPLS-2005>
96.6151123046875

> <r_mmod_Bend_Energy-OPLS-2005>
207.056304931641

> <r_mmod_Torsional_Energy-OPLS-2005>
314.825012207031

> <r_mmod_Improper_Torsional_Energy-OPLS-2005>
10.5232458114624

> <r_mmod_Van_der_Waal_Energy-OPLS-2005>
154.702453613281

> <r_mmod_Electrostatic_Energy-OPLS-2005>
-506.503662109375

> <r_mmod_Solvation_Energy-OPLS-2005>
-467.763610839844

> <b_mmod_Minimization_Converged-OPLS-2005>
0

> <r_mmod_RMS_Derivative-OPLS-2005>
6.69764566421509

$$$$
45
                    3D
 Structure written by MMmdl.
162171  0  0  1  0            999 V2000
  -30.6500  -14.7618   20.4439 C   0  0  0  0  0  0
  -30.4196  -12.4719   19.4700 C   0  0  0  0  0  0
  -29.4979  -12.4961   18.2338 C   0  0  0  0  0  0
  -28.0316  -12.3046   18.6608 C   0  0  0  0  0  0
  -27.6314  -13.2234   19.8445 C   0  0  2  0  0  0
  -28.6812  -13.2176   20.9762 C   0  0  0  0  0  0
  -25.2502  -13.8164   20.5745 C   0  0  0  0  0  0
  -24.1774  -13.0422   20.9229 C   0  0  0  0  0  0
  -24.6353  -11.6895   20.8766 C   0  0  0  0  0  0
  -23.9034  -10.4280   21.0428 C   0  0  0  0  0  0
  -24.3599   -9.4195   21.9201 C   0  0  0  0  0  0
  -23.6283   -8.2232   22.0762 C   0  0  0  0  0  0
  -22.4265   -8.0271   21.3548 C   0  0  0  0  0  0
  -21.9896   -9.0239   20.4648 C   0  0  0  0  0  0
  -22.7214  -10.2127   20.3067 C   0  0  0  0  0  0
  -21.6847   -6.0735   22.5277 C   0  0  0  0  0  0
  -21.4005   -6.5640   23.8204 C   0  0  0  0  0  0
  -21.3661   -5.6797   24.9169 C   0  0  0  0  0  0
  -21.6044   -4.3059   24.7223 C   0  0  0  0  0  0
  -21.8821   -3.8148   23.4338 C   0  0  0  0  0  0
  -21.9191   -4.6965   22.3394 C   0  0  0  0  0  0
  -22.7805  -13.5228   21.1886 C   0  0  0  0  0  0
  -22.1663   -4.2154   21.0975 F   0  0  0  0  0  0
  -21.5634   -3.4542   25.7731 F   0  0  0  0  0  0
  -29.9737  -13.5615   20.3730 N   0  0  0  0  0  0
  -26.2898  -12.9346   20.3329 N   0  0  0  0  0  0
  -25.9289  -11.6497   20.5794 N   0  0  0  0  0  0
  -22.0444  -12.8213   22.0424 N   0  0  0  0  0  0
  -25.4260  -15.1891   20.4203 N   0  0  0  0  0  0
  -31.8559  -14.7711   20.1733 O   0  0  0  0  0  0
  -21.6636   -6.8868   21.4235 O   0  0  0  0  0  0
  -22.3505  -14.5544   20.6740 O   0  0  0  0  0  0
  -24.6335  -31.8556   23.1994 C   0  0  0  0  0  0
  -25.9153  -32.4765   23.8346 C   0  0  1  0  0  0
  -27.2116  -27.2592   20.1313 C   0  0  0  0  0  0
  -25.5962  -33.8566   24.2277 N   0  0  0  0  0  0
  -23.4305  -30.4776   21.5435 C   0  0  2  0  0  0
  -24.8787  -28.9285   20.1071 C   0  0  0  0  0  0
  -22.7511  -29.4594   22.4919 C   0  0  0  0  0  0
  -18.0287  -28.1397   22.8487 C   0  0  0  0  0  0
  -24.1482  -36.7257   23.2629 C   0  0  0  0  0  0
  -25.9770  -30.7681   21.3791 C   0  0  0  0  0  0
  -26.0509  -29.3902   20.7211 C   0  0  0  0  0  0
  -27.2248  -28.5666   20.7254 C   0  0  0  0  0  0
  -26.0271  -26.8783   19.4674 C   0  0  0  0  0  0
  -24.8720  -27.6816   19.4661 C   0  0  0  0  0  0
  -23.6478  -29.8130   20.1593 C   0  0  0  0  0  0
  -25.4100  -36.3060   24.0335 C   0  0  1  0  0  0
  -20.5888  -28.3707   23.1270 C   0  0  2  0  0  0
  -20.6776  -26.9426   22.5403 C   0  0  0  0  0  0
  -19.5741  -26.6388   21.5217 C   0  0  0  0  0  0
  -18.1917  -26.7943   22.1620 C   0  0  0  0  0  0
  -19.1543  -28.8867   23.2873 C   0  0  0  0  0  0
  -18.9471  -30.1463   23.8893 C   0  0  0  0  0  0
  -17.6471  -30.6601   24.0554 C   0  0  0  0  0  0
  -25.9062  -34.9440   23.5099 C   0  0  0  0  0  0
  -16.5357  -29.9087   23.6351 C   0  0  0  0  0  0
  -16.7274  -28.6502   23.0378 C   0  0  0  0  0  0
  -26.4528  -31.6592   25.0742 C   0  0  0  0  0  0
  -25.3731  -31.3722   26.1451 C   0  0  0  0  0  0
  -27.0398  -30.3025   24.6206 C   0  0  0  0  0  0
  -27.6096  -32.4324   25.7497 C   0  0  0  0  0  0
  -27.5586  -37.1742   24.8437 C   0  0  0  0  0  0
  -21.4215  -29.3054   22.3675 N   0  0  0  0  0  0
  -26.4247  -37.3789   23.9464 N   0  0  0  0  0  0
  -24.6995  -31.0513   22.0975 N   0  0  0  0  0  0
  -23.4200  -28.8116   23.3013 O   0  0  0  0  0  0
  -28.2492  -26.3004   20.1893 O   0  0  0  0  0  0
  -26.5612  -34.8905   22.4655 O   0  0  0  0  0  0
  -23.5490  -32.1381   23.7292 O   0  0  0  0  0  0
  -29.3321  -23.1405   19.6311 C   0  0  0  0  0  0
  -29.7265  -21.7624   19.4876 C   0  0  0  0  0  0
  -28.4075  -23.5446   20.6287 C   0  0  0  0  0  0
  -29.2220  -20.7375   20.3555 C   0  0  0  0  0  0
  -27.9268  -22.4436   21.4146 C   0  0  0  0  0  0
  -30.0686  -18.4770   21.6258 C   0  0  0  0  0  0
  -28.7326  -18.1270   19.6570 C   0  0  0  0  0  0
  -30.6998  -17.0262   21.4627 C   0  0  0  0  0  0
  -29.3828  -16.6843   19.4614 C   0  0  0  0  0  0
  -29.6739  -19.1868   20.2994 C   0  0  0  0  0  0
  -30.7011  -21.4125   18.3739 C   0  0  0  0  0  0
  -26.9024  -22.6666   22.5151 C   0  0  0  0  0  0
  -27.8811  -25.0367   20.9175 C   0  0  0  0  0  0
  -28.3100  -21.1278   21.2826 N   0  0  0  0  0  0
  -29.9850  -15.9856   20.6457 N   0  0  0  0  0  0
  -31.4595  -12.5813   19.1581 H   0  0  0  0  0  0
  -30.3631  -11.5081   19.9779 H   0  0  0  0  0  0
  -29.7887  -11.7149   17.5302 H   0  0  0  0  0  0
  -29.6083  -13.4439   17.7044 H   0  0  0  0  0  0
  -27.9099  -11.2596   18.9478 H   0  0  0  0  0  0
  -27.3647  -12.4662   17.8129 H   0  0  0  0  0  0
  -27.5953  -14.2258   19.4303 H   0  0  0  0  0  0
  -28.7327  -12.2412   21.4612 H   0  0  0  0  0  0
  -28.4148  -13.9397   21.7501 H   0  0  0  0  0  0
  -25.2744   -9.5684   22.4770 H   0  0  0  0  0  0
  -23.9988   -7.4632   22.7487 H   0  0  0  0  0  0
  -21.0826   -8.8744   19.8955 H   0  0  0  0  0  0
  -22.3661  -10.9664   19.6175 H   0  0  0  0  0  0
  -21.1986   -7.6149   23.9699 H   0  0  0  0  0  0
  -21.1487   -6.0535   25.9071 H   0  0  0  0  0  0
  -22.0598   -2.7610   23.2836 H   0  0  0  0  0  0
  -22.4039  -11.9857   22.4793 H   0  0  0  0  0  0
  -21.1069  -13.1264   22.2650 H   0  0  0  0  0  0
  -24.6709  -15.8530   20.5451 H   0  0  0  0  0  0
  -26.2971  -15.6250   20.1478 H   0  0  0  0  0  0
  -26.7216  -32.5416   23.1078 H   0  0  0  0  0  0
  -25.0190  -33.9717   25.0480 H   0  0  0  0  0  0
  -22.7278  -31.2999   21.3955 H   0  0  0  0  0  0
  -23.3788  -35.9541   23.3224 H   0  0  0  0  0  0
  -24.3599  -36.8965   22.2061 H   0  0  0  0  0  0
  -23.7176  -37.6409   23.6702 H   0  0  0  0  0  0
  -26.1115  -31.5257   20.6058 H   0  0  0  0  0  0
  -26.8570  -30.8226   22.0084 H   0  0  0  0  0  0
  -28.1180  -28.9042   21.2325 H   0  0  0  0  0  0
  -25.9798  -25.9183   18.9729 H   0  0  0  0  0  0
  -23.9770  -27.3275   18.9734 H   0  0  0  0  0  0
  -23.7618  -30.5890   19.4007 H   0  0  0  0  0  0
  -22.7670  -29.2420   19.8617 H   0  0  0  0  0  0
  -25.1260  -36.1889   25.0826 H   0  0  0  0  0  0
  -20.9977  -28.3275   24.1391 H   0  0  0  0  0  0
  -20.5707  -26.2304   23.3605 H   0  0  0  0  0  0
  -21.6632  -26.7456   22.1159 H   0  0  0  0  0  0
  -19.6909  -25.6300   21.1248 H   0  0  0  0  0  0
  -19.6694  -27.3198   20.6749 H   0  0  0  0  0  0
  -17.4198  -26.6729   21.4009 H   0  0  0  0  0  0
  -18.0277  -26.0079   22.9009 H   0  0  0  0  0  0
  -19.7948  -30.7279   24.2256 H   0  0  0  0  0  0
  -17.5026  -31.6285   24.5145 H   0  0  0  0  0  0
  -15.5353  -30.2987   23.7691 H   0  0  0  0  0  0
  -15.8669  -28.0809   22.7127 H   0  0  0  0  0  0
  -24.5939  -30.7034   25.7773 H   0  0  0  0  0  0
  -24.8857  -32.2872   26.4837 H   0  0  0  0  0  0
  -25.8030  -30.8940   27.0258 H   0  0  0  0  0  0
  -26.2998  -29.6743   24.1230 H   0  0  0  0  0  0
  -27.4133  -29.7319   25.4719 H   0  0  0  0  0  0
  -27.8840  -30.4354   23.9427 H   0  0  0  0  0  0
  -27.2762  -33.3678   26.1996 H   0  0  0  0  0  0
  -28.3937  -32.6800   25.0325 H   0  0  0  0  0  0
  -28.0710  -31.8478   26.5467 H   0  0  0  0  0  0
  -28.2470  -38.0166   24.7697 H   0  0  0  0  0  0
  -28.1218  -36.2726   24.5990 H   0  0  0  0  0  0
  -27.2335  -37.1044   25.8829 H   0  0  0  0  0  0
  -20.9406  -29.8790   21.6890 H   0  0  0  0  0  0
  -26.0118  -38.2828   24.1611 H   0  0  0  0  0  0
  -29.7431  -23.8906   18.9678 H   0  0  0  0  0  0
  -30.7830  -19.1058   22.1589 H   0  0  0  0  0  0
  -29.1903  -18.4176   22.2689 H   0  0  0  0  0  0
  -27.8267  -18.0433   20.2602 H   0  0  0  0  0  0
  -28.4022  -18.4939   18.6844 H   0  0  0  0  0  0
  -30.8630  -16.6130   22.4598 H   0  0  0  0  0  0
  -31.6974  -17.1608   21.0388 H   0  0  0  0  0  0
  -30.1670  -16.7720   18.7070 H   0  0  0  0  0  0
  -28.6340  -16.0371   19.0118 H   0  0  0  0  0  0
  -30.5840  -19.1806   19.7025 H   0  0  0  0  0  0
  -30.7837  -22.2208   17.6457 H   0  0  0  0  0  0
  -30.3666  -20.5254   17.8350 H   0  0  0  0  0  0
  -31.6953  -21.2203   18.7778 H   0  0  0  0  0  0
  -26.0317  -23.2043   22.1404 H   0  0  0  0  0  0
  -27.3372  -23.2399   23.3350 H   0  0  0  0  0  0
  -26.5404  -21.7240   22.9259 H   0  0  0  0  0  0
  -28.1358  -25.2357   21.9586 H   0  0  0  0  0  0
  -26.7972  -24.9464   20.9279 H   0  0  0  0  0  0
  1 25  1  0  0  0
  1 30  2  0  0  0
  1 85  1  0  0  0
  2  3  1  0  0  0
  2 25  1  0  0  0
  2 86  1  0  0  0
  2 87  1  0  0  0
  3  4  1  0  0  0
  3 88  1  0  0  0
  3 89  1  0  0  0
  4  5  1  0  0  0
  4 90  1  0  0  0
  4 91  1  0  0  0
  5  6  1  0  0  0
  5 26  1  0  0  0
  5 92  1  0  0  0
  6 25  1  0  0  0
  6 93  1  0  0  0
  6 94  1  0  0  0
  7  8  2  0  0  0
  7 26  1  0  0  0
  7 29  1  0  0  0
  8  9  1  0  0  0
  8 22  1  0  0  0
  9 10  1  0  0  0
  9 27  2  0  0  0
 10 11  2  0  0  0
 10 15  1  0  0  0
 11 12  1  0  0  0
 11 95  1  0  0  0
 12 13  2  0  0  0
 12 96  1  0  0  0
 13 14  1  0  0  0
 13 31  1  0  0  0
 14 15  2  0  0  0
 14 97  1  0  0  0
 15 98  1  0  0  0
 16 17  2  0  0  0
 16 21  1  0  0  0
 16 31  1  0  0  0
 17 18  1  0  0  0
 17 99  1  0  0  0
 18 19  2  0  0  0
 18100  1  0  0  0
 19 20  1  0  0  0
 19 24  1  0  0  0
 20 21  2  0  0  0
 20101  1  0  0  0
 21 23  1  0  0  0
 22 28  1  0  0  0
 22 32  2  0  0  0
 26 27  1  0  0  0
 28102  1  0  0  0
 28103  1  0  0  0
 29104  1  0  0  0
 29105  1  0  0  0
 33 34  1  0  0  0
 33 66  1  0  0  0
 33 70  2  0  0  0
 34 36  1  0  0  0
 34 59  1  0  0  0
 34106  1  0  0  0
 35 44  2  0  0  0
 35 45  1  0  0  0
 35 68  1  0  0  0
 36 56  1  0  0  0
 36107  1  0  0  0
 37 39  1  0  0  0
 37 47  1  0  0  0
 37 66  1  0  0  0
 37108  1  0  0  0
 38 43  2  0  0  0
 38 46  1  0  0  0
 38 47  1  0  0  0
 39 64  1  0  0  0
 39 67  2  0  0  0
 40 52  1  0  0  0
 40 53  2  0  0  0
 40 58  1  0  0  0
 41109  1  0  0  0
 41110  1  0  0  0
 41111  1  0  0  0
 41 48  1  0  0  0
 42 43  1  0  0  0
 42 66  1  0  0  0
 42112  1  0  0  0
 42113  1  0  0  0
 43 44  1  0  0  0
 44114  1  0  0  0
 45 46  2  0  0  0
 45115  1  0  0  0
 46116  1  0  0  0
 47117  1  0  0  0
 47118  1  0  0  0
 48 56  1  0  0  0
 48 65  1  0  0  0
 48119  1  0  0  0
 49 50  1  0  0  0
 49 53  1  0  0  0
 49 64  1  0  0  0
 49120  1  0  0  0
 50 51  1  0  0  0
 50121  1  0  0  0
 50122  1  0  0  0
 51 52  1  0  0  0
 51123  1  0  0  0
 51124  1  0  0  0
 52125  1  0  0  0
 52126  1  0  0  0
 53 54  1  0  0  0
 54 55  2  0  0  0
 54127  1  0  0  0
 55 57  1  0  0  0
 55128  1  0  0  0
 56 69  2  0  0  0
 57 58  2  0  0  0
 57129  1  0  0  0
 58130  1  0  0  0
 59 60  1  0  0  0
 59 61  1  0  0  0
 59 62  1  0  0  0
 60131  1  0  0  0
 60132  1  0  0  0
 60133  1  0  0  0
 61134  1  0  0  0
 61135  1  0  0  0
 61136  1  0  0  0
 62137  1  0  0  0
 62138  1  0  0  0
 62139  1  0  0  0
 63 65  1  0  0  0
 63140  1  0  0  0
 63141  1  0  0  0
 63142  1  0  0  0
 64143  1  0  0  0
 65144  1  0  0  0
 68 83  1  0  0  0
 71 72  2  0  0  0
 71 73  1  0  0  0
 71145  1  0  0  0
 72 74  1  0  0  0
 72 81  1  0  0  0
 73 75  2  0  0  0
 73 83  1  0  0  0
 74 84  2  0  0  0
 74 80  1  0  0  0
 75 82  1  0  0  0
 75 84  1  0  0  0
 76 78  1  0  0  0
 76 80  1  0  0  0
 76146  1  0  0  0
 76147  1  0  0  0
 77 79  1  0  0  0
 77 80  1  0  0  0
 77148  1  0  0  0
 77149  1  0  0  0
 78 85  1  0  0  0
 78150  1  0  0  0
 78151  1  0  0  0
 79 85  1  0  0  0
 79152  1  0  0  0
 79153  1  0  0  0
 80154  1  0  0  0
 81155  1  0  0  0
 81156  1  0  0  0
 81157  1  0  0  0
 82158  1  0  0  0
 82159  1  0  0  0
 82160  1  0  0  0
 83161  1  0  0  0
 83162  1  0  0  0
M  ISO  4   1 100  68 101  83 101  85 100
M  END
> <chiral flag>
0

> <version>
0

> <s_m_source_file>
/data/baiqing/PycharmProjects/Reinvent-master-3.2/result/LINK_invent/BTK/process_docking_weight1_custom_sum_contain_oxygen_bond_distance_aromatic_linkinvent_7_9_3/rearranged_h_0177.sdf

> <i_m_source_file_index>
46

> <r_mmod_Potential_Energy-OPLS-2005>
292.572662353516

> <r_mmod_Stretch_Energy-OPLS-2005>
124.749794006348

> <r_mmod_Bend_Energy-OPLS-2005>
205.144714355469

> <r_mmod_Torsional_Energy-OPLS-2005>
340.501098632812

> <r_mmod_Improper_Torsional_Energy-OPLS-2005>
7.88648462295532

> <r_mmod_Van_der_Waal_Energy-OPLS-2005>
146.706619262695

> <r_mmod_Electrostatic_Energy-OPLS-2005>
-426.902679443359

> <r_mmod_Solvation_Energy-OPLS-2005>
-206.080780029297

> <b_mmod_Minimization_Converged-OPLS-2005>
0

> <r_mmod_RMS_Derivative-OPLS-2005>
2.17214274406433

$$$$
46
                    3D
 Structure written by MMmdl.
160169  0  0  1  0            999 V2000
  -30.5204  -15.1809   20.3853 C   0  0  0  0  0  0
  -30.4187  -12.7560   19.5128 C   0  0  0  0  0  0
  -29.5162  -12.5567   18.2741 C   0  0  0  0  0  0
  -28.0651  -12.2985   18.7100 C   0  0  0  0  0  0
  -27.6072  -13.2749   19.8233 C   0  0  2  0  0  0
  -28.6457  -13.4405   20.9526 C   0  0  0  0  0  0
  -25.2365  -13.8268   20.5760 C   0  0  0  0  0  0
  -24.1724  -13.0451   20.9275 C   0  0  0  0  0  0
  -24.6384  -11.6949   20.8792 C   0  0  0  0  0  0
  -23.9095  -10.4296   21.0427 C   0  0  0  0  0  0
  -24.3635   -9.4200   21.9200 C   0  0  0  0  0  0
  -23.6307   -8.2237   22.0757 C   0  0  0  0  0  0
  -22.4288   -8.0283   21.3546 C   0  0  0  0  0  0
  -21.9935   -9.0261   20.4647 C   0  0  0  0  0  0
  -22.7275  -10.2140   20.3066 C   0  0  0  0  0  0
  -21.6849   -6.0741   22.5281 C   0  0  0  0  0  0
  -21.4012   -6.5643   23.8216 C   0  0  0  0  0  0
  -21.3657   -5.6797   24.9177 C   0  0  0  0  0  0
  -21.6045   -4.3062   24.7228 C   0  0  0  0  0  0
  -21.8816   -3.8156   23.4353 C   0  0  0  0  0  0
  -21.9190   -4.6969   22.3405 C   0  0  0  0  0  0
  -22.7738  -13.5193   21.1917 C   0  0  0  0  0  0
  -22.1660   -4.2152   21.0986 F   0  0  0  0  0  0
  -21.5625   -3.4543   25.7741 F   0  0  0  0  0  0
  -29.8783  -13.9189   20.3085 N   0  0  0  0  0  0
  -26.2788  -12.9543   20.3257 N   0  0  0  0  0  0
  -25.9319  -11.6646   20.5773 N   0  0  0  0  0  0
  -22.0397  -12.8163   22.0464 N   0  0  0  0  0  0
  -25.4013  -15.1993   20.4168 N   0  0  0  0  0  0
  -31.7393  -15.0935   20.1761 O   0  0  0  0  0  0
  -21.6642   -6.8888   21.4250 O   0  0  0  0  0  0
  -22.3422  -14.5496   20.6760 O   0  0  0  0  0  0
  -24.6571  -31.8298   23.1741 C   0  0  0  0  0  0
  -25.9278  -32.4623   23.8187 C   0  0  1  0  0  0
  -27.2114  -26.9786   20.1746 C   0  0  0  0  0  0
  -25.5980  -33.8430   24.2113 N   0  0  0  0  0  0
  -23.4678  -30.4436   21.5213 C   0  0  2  0  0  0
  -24.9184  -28.8408   20.1078 C   0  0  0  0  0  0
  -22.7634  -29.4475   22.4782 C   0  0  0  0  0  0
  -18.0328  -28.1431   22.8484 C   0  0  0  0  0  0
  -24.1482  -36.7195   23.2646 C   0  0  0  0  0  0
  -26.0330  -30.6533   21.3935 C   0  0  0  0  0  0
  -26.1002  -29.2473   20.7398 C   0  0  0  0  0  0
  -27.2416  -28.3354   20.7515 C   0  0  0  0  0  0
  -26.0024  -26.7139   19.4933 C   0  0  0  0  0  0
  -24.8916  -27.5931   19.4651 C   0  0  0  0  0  0
  -23.7031  -29.7623   20.1446 C   0  0  0  0  0  0
  -25.4119  -36.2980   24.0308 C   0  0  1  0  0  0
  -20.5955  -28.3750   23.1207 C   0  0  2  0  0  0
  -20.6803  -26.9441   22.5409 C   0  0  0  0  0  0
  -19.5774  -26.6408   21.5220 C   0  0  0  0  0  0
  -18.1957  -26.7971   22.1632 C   0  0  0  0  0  0
  -19.1592  -28.8910   23.2842 C   0  0  0  0  0  0
  -18.9499  -30.1502   23.8868 C   0  0  0  0  0  0
  -17.6496  -30.6611   24.0573 C   0  0  0  0  0  0
  -25.9093  -34.9367   23.5024 C   0  0  0  0  0  0
  -16.5383  -29.9105   23.6366 C   0  0  0  0  0  0
  -16.7314  -28.6529   23.0376 C   0  0  0  0  0  0
  -26.4560  -31.6537   25.0674 C   0  0  0  0  0  0
  -25.3702  -31.3763   26.1338 C   0  0  0  0  0  0
  -27.0442  -30.2924   24.6331 C   0  0  0  0  0  0
  -27.6082  -32.4309   25.7458 C   0  0  0  0  0  0
  -27.5561  -37.1753   24.8470 C   0  0  0  0  0  0
  -21.4315  -29.3044   22.3540 N   0  0  0  0  0  0
  -26.4269  -37.3710   23.9423 N   0  0  0  0  0  0
  -24.7403  -31.0011   22.0838 N   0  0  0  0  0  0
  -23.4224  -28.8044   23.2995 O   0  0  0  0  0  0
  -28.2334  -25.9119   20.2478 O   0  0  0  0  0  0
  -26.5684  -34.8896   22.4612 O   0  0  0  0  0  0
  -23.5661  -32.1246   23.6877 O   0  0  0  0  0  0
  -30.0610  -19.2660   19.4926 C   0  0  0  0  0  0
  -28.2590  -18.7745   20.8584 C   0  0  0  0  0  0
  -27.2891  -23.5882   21.2683 C   0  0  0  0  0  0
  -30.6998  -17.7672   19.8279 C   0  0  0  0  0  0
  -28.8318  -17.2270   21.1520 C   0  0  0  0  0  0
  -27.4107  -21.9944   21.1748 C   0  0  0  0  0  0
  -29.1853  -20.0831   20.5603 C   0  0  0  0  0  0
  -28.0220  -24.2985   20.1038 C   0  0  2  0  0  0
  -29.1188  -22.9964   19.9642 C   0  0  2  0  0  0
  -29.8391  -23.0377   18.6078 C   0  0  0  0  0  0
  -29.9074  -16.5355   20.3115 N   0  0  0  0  0  0
  -28.4805  -21.5541   20.2232 N   0  3  2  0  0  0
  -31.4441  -12.9197   19.1791 H   0  0  0  0  0  0
  -30.4536  -11.8496   20.1188 H   0  0  0  0  0  0
  -29.8783  -11.7269   17.6664 H   0  0  0  0  0  0
  -29.5576  -13.4451   17.6423 H   0  0  0  0  0  0
  -28.0143  -11.2743   19.0814 H   0  0  0  0  0  0
  -27.3908  -12.3483   17.8540 H   0  0  0  0  0  0
  -27.5260  -14.2446   19.3306 H   0  0  0  0  0  0
  -28.8004  -12.5061   21.4934 H   0  0  0  0  0  0
  -28.3000  -14.1712   21.6854 H   0  0  0  0  0  0
  -25.2771   -9.5665   22.4785 H   0  0  0  0  0  0
  -24.0000   -7.4621   22.7475 H   0  0  0  0  0  0
  -21.0862   -8.8799   19.8949 H   0  0  0  0  0  0
  -22.3741  -10.9684   19.6177 H   0  0  0  0  0  0
  -21.2006   -7.6146   23.9720 H   0  0  0  0  0  0
  -21.1477   -6.0526   25.9078 H   0  0  0  0  0  0
  -22.0597   -2.7618   23.2851 H   0  0  0  0  0  0
  -22.4015  -11.9814   22.4828 H   0  0  0  0  0  0
  -21.1015  -13.1179   22.2691 H   0  0  0  0  0  0
  -24.6338  -15.8526   20.5274 H   0  0  0  0  0  0
  -26.2478  -15.6362   20.0772 H   0  0  0  0  0  0
  -26.7337  -32.5165   23.0895 H   0  0  0  0  0  0
  -25.0111  -33.9520   25.0252 H   0  0  0  0  0  0
  -22.7798  -31.2754   21.3559 H   0  0  0  0  0  0
  -23.3762  -35.9507   23.3296 H   0  0  0  0  0  0
  -24.3576  -36.8858   22.2070 H   0  0  0  0  0  0
  -23.7223  -37.6377   23.6696 H   0  0  0  0  0  0
  -26.2049  -31.3972   20.6136 H   0  0  0  0  0  0
  -26.8965  -30.7107   22.0445 H   0  0  0  0  0  0
  -28.1342  -28.6432   21.2769 H   0  0  0  0  0  0
  -25.8780  -25.7668   18.9917 H   0  0  0  0  0  0
  -23.9935  -27.2811   18.9487 H   0  0  0  0  0  0
  -23.8536  -30.5327   19.3871 H   0  0  0  0  0  0
  -22.8121  -29.2151   19.8300 H   0  0  0  0  0  0
  -25.1327  -36.1772   25.0800 H   0  0  0  0  0  0
  -21.0068  -28.3350   24.1321 H   0  0  0  0  0  0
  -20.5692  -26.2367   23.3642 H   0  0  0  0  0  0
  -21.6665  -26.7435   22.1196 H   0  0  0  0  0  0
  -19.6921  -25.6312   21.1265 H   0  0  0  0  0  0
  -19.6709  -27.3206   20.6741 H   0  0  0  0  0  0
  -17.4232  -26.6746   21.4034 H   0  0  0  0  0  0
  -18.0337  -26.0122   22.9039 H   0  0  0  0  0  0
  -19.7972  -30.7345   24.2214 H   0  0  0  0  0  0
  -17.5047  -31.6289   24.5190 H   0  0  0  0  0  0
  -15.5384  -30.3004   23.7692 H   0  0  0  0  0  0
  -15.8727  -28.0844   22.7098 H   0  0  0  0  0  0
  -24.5918  -30.7068   25.7655 H   0  0  0  0  0  0
  -24.8827  -32.2943   26.4621 H   0  0  0  0  0  0
  -25.7956  -30.9047   27.0202 H   0  0  0  0  0  0
  -26.3086  -29.6617   24.1317 H   0  0  0  0  0  0
  -27.4019  -29.7267   25.4941 H   0  0  0  0  0  0
  -27.9024  -30.4168   23.9718 H   0  0  0  0  0  0
  -27.2714  -33.3685   26.1887 H   0  0  0  0  0  0
  -28.3968  -32.6732   25.0319 H   0  0  0  0  0  0
  -28.0646  -31.8500   26.5485 H   0  0  0  0  0  0
  -28.2565  -38.0064   24.7537 H   0  0  0  0  0  0
  -28.1082  -36.2596   24.6280 H   0  0  0  0  0  0
  -27.2299  -37.1380   25.8881 H   0  0  0  0  0  0
  -20.9537  -29.8740   21.6699 H   0  0  0  0  0  0
  -26.0119  -38.2770   24.1448 H   0  0  0  0  0  0
  -29.4707  -19.1710   18.5806 H   0  0  0  0  0  0
  -30.8936  -19.9107   19.2083 H   0  0  0  0  0  0
  -27.6094  -19.0241   21.6976 H   0  0  0  0  0  0
  -27.5709  -18.6837   20.0173 H   0  0  0  0  0  0
  -27.7619  -23.9118   22.1956 H   0  0  0  0  0  0
  -26.2476  -23.9044   21.3313 H   0  0  0  0  0  0
  -31.4863  -17.9198   20.5683 H   0  0  0  0  0  0
  -31.2298  -17.4495   18.9288 H   0  0  0  0  0  0
  -27.9727  -16.5556   21.1658 H   0  0  0  0  0  0
  -29.2110  -17.2151   22.1753 H   0  0  0  0  0  0
  -26.4661  -21.5556   20.8527 H   0  0  0  0  0  0
  -27.6174  -21.5946   22.1682 H   0  0  0  0  0  0
  -29.8052  -20.2525   21.4411 H   0  0  0  0  0  0
  -27.3867  -24.1964   19.2252 H   0  0  0  0  0  0
  -29.8683  -23.1304   20.7456 H   0  0  0  0  0  0
  -29.1431  -22.8920   17.7817 H   0  0  0  0  0  0
  -30.6043  -22.2658   18.5357 H   0  0  0  0  0  0
  -30.3330  -23.9985   18.4570 H   0  0  0  0  0  0
  -27.9657  -21.3651   19.3751 H   0  0  0  0  0  0
  1 25  1  0  0  0
  1 30  2  0  0  0
  1 81  1  0  0  0
  2  3  1  0  0  0
  2 25  1  0  0  0
  2 83  1  0  0  0
  2 84  1  0  0  0
  3  4  1  0  0  0
  3 85  1  0  0  0
  3 86  1  0  0  0
  4  5  1  0  0  0
  4 87  1  0  0  0
  4 88  1  0  0  0
  5  6  1  0  0  0
  5 26  1  0  0  0
  5 89  1  0  0  0
  6 25  1  0  0  0
  6 90  1  0  0  0
  6 91  1  0  0  0
  7  8  2  0  0  0
  7 26  1  0  0  0
  7 29  1  0  0  0
  8  9  1  0  0  0
  8 22  1  0  0  0
  9 10  1  0  0  0
  9 27  2  0  0  0
 10 11  2  0  0  0
 10 15  1  0  0  0
 11 12  1  0  0  0
 11 92  1  0  0  0
 12 13  2  0  0  0
 12 93  1  0  0  0
 13 14  1  0  0  0
 13 31  1  0  0  0
 14 15  2  0  0  0
 14 94  1  0  0  0
 15 95  1  0  0  0
 16 17  2  0  0  0
 16 21  1  0  0  0
 16 31  1  0  0  0
 17 18  1  0  0  0
 17 96  1  0  0  0
 18 19  2  0  0  0
 18 97  1  0  0  0
 19 20  1  0  0  0
 19 24  1  0  0  0
 20 21  2  0  0  0
 20 98  1  0  0  0
 21 23  1  0  0  0
 22 28  1  0  0  0
 22 32  2  0  0  0
 26 27  1  0  0  0
 28 99  1  0  0  0
 28100  1  0  0  0
 29101  1  0  0  0
 29102  1  0  0  0
 33 34  1  0  0  0
 33 66  1  0  0  0
 33 70  2  0  0  0
 34 36  1  0  0  0
 34 59  1  0  0  0
 34103  1  0  0  0
 35 44  2  0  0  0
 35 45  1  0  0  0
 35 68  1  0  0  0
 36 56  1  0  0  0
 36104  1  0  0  0
 37 39  1  0  0  0
 37 47  1  0  0  0
 37 66  1  0  0  0
 37105  1  0  0  0
 38 43  2  0  0  0
 38 46  1  0  0  0
 38 47  1  0  0  0
 39 64  1  0  0  0
 39 67  2  0  0  0
 40 52  1  0  0  0
 40 53  2  0  0  0
 40 58  1  0  0  0
 41106  1  0  0  0
 41107  1  0  0  0
 41108  1  0  0  0
 41 48  1  0  0  0
 42 43  1  0  0  0
 42 66  1  0  0  0
 42109  1  0  0  0
 42110  1  0  0  0
 43 44  1  0  0  0
 44111  1  0  0  0
 45 46  2  0  0  0
 45112  1  0  0  0
 46113  1  0  0  0
 47114  1  0  0  0
 47115  1  0  0  0
 48 56  1  0  0  0
 48 65  1  0  0  0
 48116  1  0  0  0
 49 50  1  0  0  0
 49 53  1  0  0  0
 49 64  1  0  0  0
 49117  1  0  0  0
 50 51  1  0  0  0
 50118  1  0  0  0
 50119  1  0  0  0
 51 52  1  0  0  0
 51120  1  0  0  0
 51121  1  0  0  0
 52122  1  0  0  0
 52123  1  0  0  0
 53 54  1  0  0  0
 54 55  2  0  0  0
 54124  1  0  0  0
 55 57  1  0  0  0
 55125  1  0  0  0
 56 69  2  0  0  0
 57 58  2  0  0  0
 57126  1  0  0  0
 58127  1  0  0  0
 59 60  1  0  0  0
 59 61  1  0  0  0
 59 62  1  0  0  0
 60128  1  0  0  0
 60129  1  0  0  0
 60130  1  0  0  0
 61131  1  0  0  0
 61132  1  0  0  0
 61133  1  0  0  0
 62134  1  0  0  0
 62135  1  0  0  0
 62136  1  0  0  0
 63 65  1  0  0  0
 63137  1  0  0  0
 63138  1  0  0  0
 63139  1  0  0  0
 64140  1  0  0  0
 65141  1  0  0  0
 68 78  1  0  0  0
 71 74  1  0  0  0
 71142  1  0  0  0
 71143  1  0  0  0
 71 77  1  0  0  0
 72 75  1  0  0  0
 72 77  1  0  0  0
 72144  1  0  0  0
 72145  1  0  0  0
 73 76  1  0  0  0
 73 78  1  0  0  0
 73146  1  0  0  0
 73147  1  0  0  0
 74 81  1  0  0  0
 74148  1  0  0  0
 74149  1  0  0  0
 75 81  1  0  0  0
 75150  1  0  0  0
 75151  1  0  0  0
 76152  1  0  0  0
 76153  1  0  0  0
 76 82  1  0  0  0
 77 82  1  0  0  0
 77154  1  0  0  0
 78 79  1  0  0  0
 78155  1  0  0  0
 79 80  1  0  0  0
 79 82  1  0  0  0
 79156  1  0  0  0
 80157  1  0  0  0
 80158  1  0  0  0
 80159  1  0  0  0
 82160  1  0  0  0
M  CHG  1  82   1
M  ISO  4   1 100  68 101  78 101  81 100
M  END
> <chiral flag>
0

> <version>
0

> <s_m_source_file>
/data/baiqing/PycharmProjects/Reinvent-master-3.2/result/LINK_invent/BTK/process_docking_weight1_custom_sum_contain_oxygen_bond_distance_aromatic_linkinvent_7_9_3/rearranged_h_0177.sdf

> <i_m_source_file_index>
47

> <r_mmod_Potential_Energy-OPLS-2005>
1190.7646484375

> <r_mmod_Stretch_Energy-OPLS-2005>
422.615814208984

> <r_mmod_Bend_Energy-OPLS-2005>
481.0771484375

> <r_mmod_Torsional_Energy-OPLS-2005>
362.854858398438

> <r_mmod_Improper_Torsional_Energy-OPLS-2005>
12.7998037338257

> <r_mmod_Van_der_Waal_Energy-OPLS-2005>
107.471351623535

> <r_mmod_Electrostatic_Energy-OPLS-2005>
-142.230255126953

> <r_mmod_Solvation_Energy-OPLS-2005>
-426.804077148438

> <b_mmod_Minimization_Converged-OPLS-2005>
0

> <r_mmod_RMS_Derivative-OPLS-2005>
2.1910514831543

$$$$
47
                    3D
 Structure written by MMmdl.
165174  0  0  1  0            999 V2000
  -30.7772  -14.5687   20.5528 C   0  0  0  0  0  0
  -30.3877  -12.3566   19.4816 C   0  0  0  0  0  0
  -29.4854  -12.4783   18.2388 C   0  0  0  0  0  0
  -28.0120  -12.3199   18.6526 C   0  0  0  0  0  0
  -27.6392  -13.2209   19.8610 C   0  0  2  0  0  0
  -28.6862  -13.1619   21.0041 C   0  0  0  0  0  0
  -25.2529  -13.8207   20.5773 C   0  0  0  0  0  0
  -24.1799  -13.0485   20.9252 C   0  0  0  0  0  0
  -24.6334  -11.6950   20.8814 C   0  0  0  0  0  0
  -23.9056  -10.4304   21.0422 C   0  0  0  0  0  0
  -24.3614   -9.4200   21.9168 C   0  0  0  0  0  0
  -23.6285   -8.2227   22.0722 C   0  0  0  0  0  0
  -22.4270   -8.0280   21.3520 C   0  0  0  0  0  0
  -21.9922   -9.0261   20.4607 C   0  0  0  0  0  0
  -22.7256  -10.2149   20.3037 C   0  0  0  0  0  0
  -21.6837   -6.0734   22.5259 C   0  0  0  0  0  0
  -21.3984   -6.5636   23.8188 C   0  0  0  0  0  0
  -21.3633   -5.6802   24.9156 C   0  0  0  0  0  0
  -21.6047   -4.3066   24.7221 C   0  0  0  0  0  0
  -21.8802   -3.8155   23.4329 C   0  0  0  0  0  0
  -21.9183   -4.6971   22.3393 C   0  0  0  0  0  0
  -22.7806  -13.5249   21.1908 C   0  0  0  0  0  0
  -22.1676   -4.2145   21.0971 F   0  0  0  0  0  0
  -21.5606   -3.4537   25.7717 F   0  0  0  0  0  0
  -30.0173  -13.4271   20.4390 N   0  0  0  0  0  0
  -26.2924  -12.9369   20.3409 N   0  0  0  0  0  0
  -25.9276  -11.6526   20.5883 N   0  0  0  0  0  0
  -22.0455  -12.8217   22.0425 N   0  0  0  0  0  0
  -25.4355  -15.1911   20.4117 N   0  0  0  0  0  0
  -31.8804  -14.6353   20.0056 O   0  0  0  0  0  0
  -21.6648   -6.8876   21.4196 O   0  0  0  0  0  0
  -22.3465  -14.5578   20.6782 O   0  0  0  0  0  0
  -24.6224  -31.8608   23.2048 C   0  0  0  0  0  0
  -25.9076  -32.4788   23.8393 C   0  0  1  0  0  0
  -27.2257  -27.3610   20.1391 C   0  0  0  0  0  0
  -25.5881  -33.8581   24.2289 N   0  0  0  0  0  0
  -23.4149  -30.4819   21.5467 C   0  0  2  0  0  0
  -24.8595  -28.9385   20.1148 C   0  0  0  0  0  0
  -22.7494  -29.4588   22.4984 C   0  0  0  0  0  0
  -18.0317  -28.1348   22.8499 C   0  0  0  0  0  0
  -24.1484  -36.7322   23.2647 C   0  0  0  0  0  0
  -25.9474  -30.8041   21.3683 C   0  0  0  0  0  0
  -26.0226  -29.4319   20.7237 C   0  0  0  0  0  0
  -27.2100  -28.6538   20.7294 C   0  0  0  0  0  0
  -26.0523  -26.9037   19.5079 C   0  0  0  0  0  0
  -24.8738  -27.6755   19.4959 C   0  0  0  0  0  0
  -23.6275  -29.8149   20.1605 C   0  0  0  0  0  0
  -25.4098  -36.3097   24.0336 C   0  0  1  0  0  0
  -20.5893  -28.3658   23.1349 C   0  0  2  0  0  0
  -20.6780  -26.9352   22.5505 C   0  0  0  0  0  0
  -19.5789  -26.6322   21.5263 C   0  0  0  0  0  0
  -18.1945  -26.7923   22.1558 C   0  0  0  0  0  0
  -19.1552  -28.8808   23.2909 C   0  0  0  0  0  0
  -18.9485  -30.1433   23.8874 C   0  0  0  0  0  0
  -17.6474  -30.6576   24.0531 C   0  0  0  0  0  0
  -25.9021  -34.9464   23.5108 C   0  0  0  0  0  0
  -16.5382  -29.9048   23.6350 C   0  0  0  0  0  0
  -16.7304  -28.6465   23.0377 C   0  0  0  0  0  0
  -26.4488  -31.6603   25.0750 C   0  0  0  0  0  0
  -25.3705  -31.3756   26.1476 C   0  0  0  0  0  0
  -27.0299  -30.3018   24.6168 C   0  0  0  0  0  0
  -27.6026  -32.4356   25.7534 C   0  0  0  0  0  0
  -27.5577  -37.1829   24.8474 C   0  0  0  0  0  0
  -21.4206  -29.3013   22.3750 N   0  0  0  0  0  0
  -26.4299  -37.3776   23.9409 N   0  0  0  0  0  0
  -24.6800  -31.0708   22.0950 N   0  0  0  0  0  0
  -23.4256  -28.8153   23.3063 O   0  0  0  0  0  0
  -28.3537  -26.5590   20.1063 O   0  0  0  0  0  0
  -26.5639  -34.8923   22.4708 O   0  0  0  0  0  0
  -23.5387  -32.1378   23.7427 O   0  0  0  0  0  0
  -26.8636  -21.5305   20.5206 C   0  0  0  0  0  0
  -28.8670  -22.9024   20.7300 C   0  0  0  0  0  0
  -28.2771  -21.5988   20.5598 C   0  0  0  0  0  0
  -26.0907  -22.7059   20.6826 C   0  0  0  0  0  0
  -28.0351  -24.0774   20.8076 C   0  0  0  0  0  0
  -30.7762  -18.0452   21.6168 C   0  0  0  0  0  0
  -31.2954  -16.6142   21.8894 C   0  0  0  0  0  0
  -29.1703  -16.4546   20.8758 C   0  0  0  0  0  0
  -29.6575  -17.8953   20.5824 C   0  0  1  0  0  0
  -30.3643  -23.0322   20.9537 C   0  0  0  0  0  0
  -24.5802  -22.6808   20.8309 C   0  0  0  0  0  0
  -28.4971  -25.5325   21.1318 C   0  0  0  0  0  0
  -28.5530  -19.0219   20.5436 C   0  0  0  0  0  0
  -26.6977  -23.9044   20.7906 N   0  3  0  0  0  0
  -30.3362  -15.6410   21.2928 N   0  0  0  0  0  0
  -29.0729  -20.4103   20.4801 N   0  0  0  0  0  0
  -31.4424  -12.3742   19.2062 H   0  0  0  0  0  0
  -30.2288  -11.3831   19.9475 H   0  0  0  0  0  0
  -29.7378  -11.7132   17.5022 H   0  0  0  0  0  0
  -29.6284  -13.4434   17.7561 H   0  0  0  0  0  0
  -27.8513  -11.2699   18.9127 H   0  0  0  0  0  0
  -27.3558  -12.5247   17.8069 H   0  0  0  0  0  0
  -27.6286  -14.2319   19.4606 H   0  0  0  0  0  0
  -28.6711  -12.1866   21.4896 H   0  0  0  0  0  0
  -28.4293  -13.8815   21.7850 H   0  0  0  0  0  0
  -25.2696   -9.5715   22.4800 H   0  0  0  0  0  0
  -23.9974   -7.4616   22.7455 H   0  0  0  0  0  0
  -21.0848   -8.8773   19.8920 H   0  0  0  0  0  0
  -22.3649  -10.9713   19.6194 H   0  0  0  0  0  0
  -21.1953   -7.6141   23.9695 H   0  0  0  0  0  0
  -21.1502   -6.0535   25.9079 H   0  0  0  0  0  0
  -22.0621   -2.7620   23.2832 H   0  0  0  0  0  0
  -22.4006  -11.9791   22.4737 H   0  0  0  0  0  0
  -21.1085  -13.1177   22.2686 H   0  0  0  0  0  0
  -24.6894  -15.8704   20.5060 H   0  0  0  0  0  0
  -26.2972  -15.6016   20.0770 H   0  0  0  0  0  0
  -26.7133  -32.5476   23.1144 H   0  0  0  0  0  0
  -24.9986  -33.9745   25.0410 H   0  0  0  0  0  0
  -22.7065  -31.2985   21.4024 H   0  0  0  0  0  0
  -23.3722  -35.9687   23.3339 H   0  0  0  0  0  0
  -24.3575  -36.8909   22.2055 H   0  0  0  0  0  0
  -23.7282  -37.6546   23.6642 H   0  0  0  0  0  0
  -26.0809  -31.5596   20.5944 H   0  0  0  0  0  0
  -26.8332  -30.8595   21.9920 H   0  0  0  0  0  0
  -28.1061  -29.0419   21.1928 H   0  0  0  0  0  0
  -26.0447  -25.9412   19.0201 H   0  0  0  0  0  0
  -23.9894  -27.2954   19.0059 H   0  0  0  0  0  0
  -23.7483  -30.5874   19.4022 H   0  0  0  0  0  0
  -22.7503  -29.2364   19.8614 H   0  0  0  0  0  0
  -25.1291  -36.1971   25.0833 H   0  0  0  0  0  0
  -21.0002  -28.3315   24.1469 H   0  0  0  0  0  0
  -20.5725  -26.2276   23.3727 H   0  0  0  0  0  0
  -21.6609  -26.7322   22.1296 H   0  0  0  0  0  0
  -19.6948  -25.6205   21.1347 H   0  0  0  0  0  0
  -19.6837  -27.3159   20.6830 H   0  0  0  0  0  0
  -17.4308  -26.6739   21.3834 H   0  0  0  0  0  0
  -18.0268  -25.9957   22.8810 H   0  0  0  0  0  0
  -19.7968  -30.7261   24.2172 H   0  0  0  0  0  0
  -17.5041  -31.6297   24.5037 H   0  0  0  0  0  0
  -15.5370  -30.2937   23.7638 H   0  0  0  0  0  0
  -15.8711  -28.0844   22.7031 H   0  0  0  0  0  0
  -24.5865  -30.7122   25.7832 H   0  0  0  0  0  0
  -24.8915  -32.2907   26.4925 H   0  0  0  0  0  0
  -25.8011  -30.8921   27.0253 H   0  0  0  0  0  0
  -26.2838  -29.6826   24.1148 H   0  0  0  0  0  0
  -27.3953  -29.7242   25.4684 H   0  0  0  0  0  0
  -27.8754  -30.4350   23.9415 H   0  0  0  0  0  0
  -27.2590  -33.3634   26.2161 H   0  0  0  0  0  0
  -28.3810  -32.6976   25.0345 H   0  0  0  0  0  0
  -28.0726  -31.8455   26.5432 H   0  0  0  0  0  0
  -28.2627  -38.0095   24.7452 H   0  0  0  0  0  0
  -28.1037  -36.2613   24.6362 H   0  0  0  0  0  0
  -27.2293  -37.1564   25.8884 H   0  0  0  0  0  0
  -20.9355  -29.8869   21.7072 H   0  0  0  0  0  0
  -26.0179  -38.2880   24.1311 H   0  0  0  0  0  0
  -26.3579  -20.5833   20.4200 H   0  0  0  0  0  0
  -31.5768  -18.7065   21.2544 H   0  0  0  0  0  0
  -30.3881  -18.4765   22.5396 H   0  0  0  0  0  0
  -31.3944  -16.4602   22.9711 H   0  0  0  0  0  0
  -32.3100  -16.5133   21.4819 H   0  0  0  0  0  0
  -28.4509  -16.4616   21.6991 H   0  0  0  0  0  0
  -28.6746  -16.0452   19.9979 H   0  0  0  0  0  0
  -30.1275  -17.8579   19.5971 H   0  0  0  0  0  0
  -30.9255  -22.1621   20.6160 H   0  0  0  0  0  0
  -30.5357  -23.1430   22.0263 H   0  0  0  0  0  0
  -30.7693  -23.9044   20.4392 H   0  0  0  0  0  0
  -24.0956  -23.3595   20.1302 H   0  0  0  0  0  0
  -24.3065  -22.9972   21.8391 H   0  0  0  0  0  0
  -24.1855  -21.6780   20.6775 H   0  0  0  0  0  0
  -29.5409  -25.5317   21.4441 H   0  0  0  0  0  0
  -27.9572  -25.8492   22.0246 H   0  0  0  0  0  0
  -27.8773  -18.9210   21.3954 H   0  0  0  0  0  0
  -27.9390  -18.8483   19.6559 H   0  0  0  0  0  0
  -26.1143  -24.7274   20.9362 H   0  0  0  0  0  0
  -30.0761  -20.5290   20.4273 H   0  0  0  0  0  0
  1 25  1  0  0  0
  1 30  2  0  0  0
  1 85  1  0  0  0
  2  3  1  0  0  0
  2 25  1  0  0  0
  2 87  1  0  0  0
  2 88  1  0  0  0
  3  4  1  0  0  0
  3 89  1  0  0  0
  3 90  1  0  0  0
  4  5  1  0  0  0
  4 91  1  0  0  0
  4 92  1  0  0  0
  5  6  1  0  0  0
  5 26  1  0  0  0
  5 93  1  0  0  0
  6 25  1  0  0  0
  6 94  1  0  0  0
  6 95  1  0  0  0
  7  8  2  0  0  0
  7 26  1  0  0  0
  7 29  1  0  0  0
  8  9  1  0  0  0
  8 22  1  0  0  0
  9 10  1  0  0  0
  9 27  2  0  0  0
 10 11  2  0  0  0
 10 15  1  0  0  0
 11 12  1  0  0  0
 11 96  1  0  0  0
 12 13  2  0  0  0
 12 97  1  0  0  0
 13 14  1  0  0  0
 13 31  1  0  0  0
 14 15  2  0  0  0
 14 98  1  0  0  0
 15 99  1  0  0  0
 16 17  2  0  0  0
 16 21  1  0  0  0
 16 31  1  0  0  0
 17 18  1  0  0  0
 17100  1  0  0  0
 18 19  2  0  0  0
 18101  1  0  0  0
 19 20  1  0  0  0
 19 24  1  0  0  0
 20 21  2  0  0  0
 20102  1  0  0  0
 21 23  1  0  0  0
 22 28  1  0  0  0
 22 32  2  0  0  0
 26 27  1  0  0  0
 28103  1  0  0  0
 28104  1  0  0  0
 29105  1  0  0  0
 29106  1  0  0  0
 33 34  1  0  0  0
 33 66  1  0  0  0
 33 70  2  0  0  0
 34 36  1  0  0  0
 34 59  1  0  0  0
 34107  1  0  0  0
 35 44  2  0  0  0
 35 45  1  0  0  0
 35 68  1  0  0  0
 36 56  1  0  0  0
 36108  1  0  0  0
 37 39  1  0  0  0
 37 47  1  0  0  0
 37 66  1  0  0  0
 37109  1  0  0  0
 38 43  2  0  0  0
 38 46  1  0  0  0
 38 47  1  0  0  0
 39 64  1  0  0  0
 39 67  2  0  0  0
 40 52  1  0  0  0
 40 53  2  0  0  0
 40 58  1  0  0  0
 41110  1  0  0  0
 41111  1  0  0  0
 41112  1  0  0  0
 41 48  1  0  0  0
 42 43  1  0  0  0
 42 66  1  0  0  0
 42113  1  0  0  0
 42114  1  0  0  0
 43 44  1  0  0  0
 44115  1  0  0  0
 45 46  2  0  0  0
 45116  1  0  0  0
 46117  1  0  0  0
 47118  1  0  0  0
 47119  1  0  0  0
 48 56  1  0  0  0
 48 65  1  0  0  0
 48120  1  0  0  0
 49 50  1  0  0  0
 49 53  1  0  0  0
 49 64  1  0  0  0
 49121  1  0  0  0
 50 51  1  0  0  0
 50122  1  0  0  0
 50123  1  0  0  0
 51 52  1  0  0  0
 51124  1  0  0  0
 51125  1  0  0  0
 52126  1  0  0  0
 52127  1  0  0  0
 53 54  1  0  0  0
 54 55  2  0  0  0
 54128  1  0  0  0
 55 57  1  0  0  0
 55129  1  0  0  0
 56 69  2  0  0  0
 57 58  2  0  0  0
 57130  1  0  0  0
 58131  1  0  0  0
 59 60  1  0  0  0
 59 61  1  0  0  0
 59 62  1  0  0  0
 60132  1  0  0  0
 60133  1  0  0  0
 60134  1  0  0  0
 61135  1  0  0  0
 61136  1  0  0  0
 61137  1  0  0  0
 62138  1  0  0  0
 62139  1  0  0  0
 62140  1  0  0  0
 63 65  1  0  0  0
 63141  1  0  0  0
 63142  1  0  0  0
 63143  1  0  0  0
 64144  1  0  0  0
 65145  1  0  0  0
 68 82  1  0  0  0
 71 73  2  0  0  0
 71 74  1  0  0  0
 71146  1  0  0  0
 72 73  1  0  0  0
 72 75  2  0  0  0
 72 80  1  0  0  0
 73 86  1  0  0  0
 74 81  1  0  0  0
 74 84  2  0  0  0
 75 82  1  0  0  0
 75 84  1  0  0  0
 76 77  1  0  0  0
 76 79  1  0  0  0
 76147  1  0  0  0
 76148  1  0  0  0
 77 85  1  0  0  0
 77149  1  0  0  0
 77150  1  0  0  0
 78 79  1  0  0  0
 78 85  1  0  0  0
 78151  1  0  0  0
 78152  1  0  0  0
 79 83  1  0  0  0
 79153  1  0  0  0
 80154  1  0  0  0
 80155  1  0  0  0
 80156  1  0  0  0
 81157  1  0  0  0
 81158  1  0  0  0
 81159  1  0  0  0
 82160  1  0  0  0
 82161  1  0  0  0
 83 86  1  0  0  0
 83162  1  0  0  0
 83163  1  0  0  0
 84164  1  0  0  0
 86165  1  0  0  0
M  CHG  1  84   1
M  ISO  4   1 100  68 101  82 101  85 100
M  END
> <chiral flag>
0

> <version>
0

> <s_m_source_file>
/data/baiqing/PycharmProjects/Reinvent-master-3.2/result/LINK_invent/BTK/process_docking_weight1_custom_sum_contain_oxygen_bond_distance_aromatic_linkinvent_7_9_3/rearranged_h_0177.sdf

> <i_m_source_file_index>
48

> <r_mmod_Potential_Energy-OPLS-2005>
150.04899597168

> <r_mmod_Stretch_Energy-OPLS-2005>
65.3452224731445

> <r_mmod_Bend_Energy-OPLS-2005>
159.916198730469

> <r_mmod_Torsional_Energy-OPLS-2005>
350.386016845703

> <r_mmod_Improper_Torsional_Energy-OPLS-2005>
6.9344687461853

> <r_mmod_Van_der_Waal_Energy-OPLS-2005>
140.404067993164

> <r_mmod_Electrostatic_Energy-OPLS-2005>
-218.625625610352

> <r_mmod_Solvation_Energy-OPLS-2005>
-389.933349609375

> <b_mmod_Minimization_Converged-OPLS-2005>
0

> <r_mmod_RMS_Derivative-OPLS-2005>
8.35333156585693

$$$$
48
                    3D
 Structure written by MMmdl.
168177  0  0  1  0            999 V2000
  -30.7004  -14.4439   20.6133 C   0  0  0  0  0  0
  -30.4272  -12.2994   19.4125 C   0  0  0  0  0  0
  -29.4947  -12.5163   18.2023 C   0  0  0  0  0  0
  -28.0146  -12.3762   18.6130 C   0  0  0  0  0  0
  -27.6659  -13.2011   19.8806 C   0  0  2  0  0  0
  -28.7048  -12.9422   20.9950 C   0  0  0  0  0  0
  -25.2580  -13.8141   20.5616 C   0  0  0  0  0  0
  -24.1842  -13.0431   20.9169 C   0  0  0  0  0  0
  -24.6394  -11.6899   20.8739 C   0  0  0  0  0  0
  -23.9057  -10.4290   21.0414 C   0  0  0  0  0  0
  -24.3610   -9.4205   21.9188 C   0  0  0  0  0  0
  -23.6290   -8.2238   22.0756 C   0  0  0  0  0  0
  -22.4270   -8.0279   21.3548 C   0  0  0  0  0  0
  -21.9905   -9.0250   20.4649 C   0  0  0  0  0  0
  -22.7231  -10.2131   20.3060 C   0  0  0  0  0  0
  -21.6851   -6.0734   22.5282 C   0  0  0  0  0  0
  -21.4009   -6.5641   23.8214 C   0  0  0  0  0  0
  -21.3659   -5.6791   24.9176 C   0  0  0  0  0  0
  -21.6045   -4.3052   24.7225 C   0  0  0  0  0  0
  -21.8819   -3.8145   23.4345 C   0  0  0  0  0  0
  -21.9191   -4.6962   22.3403 C   0  0  0  0  0  0
  -22.7866  -13.5236   21.1837 C   0  0  0  0  0  0
  -22.1661   -4.2147   21.0978 F   0  0  0  0  0  0
  -21.5630   -3.4533   25.7738 F   0  0  0  0  0  0
  -30.0423  -13.2608   20.4580 N   0  0  0  0  0  0
  -26.3036  -12.9311   20.3370 N   0  0  0  0  0  0
  -25.9322  -11.6478   20.5781 N   0  0  0  0  0  0
  -22.0500  -12.8236   22.0395 N   0  0  0  0  0  0
  -25.4253  -15.1844   20.3904 N   0  0  0  0  0  0
  -31.7994  -14.6605   20.0890 O   0  0  0  0  0  0
  -21.6636   -6.8876   21.4244 O   0  0  0  0  0  0
  -22.3559  -14.5546   20.6690 O   0  0  0  0  0  0
  -24.6111  -31.8696   23.2108 C   0  0  0  0  0  0
  -25.9008  -32.4833   23.8405 C   0  0  1  0  0  0
  -27.2400  -27.4543   20.1036 C   0  0  0  0  0  0
  -25.5879  -33.8631   24.2350 N   0  0  0  0  0  0
  -23.3995  -30.4915   21.5503 C   0  0  2  0  0  0
  -24.8501  -28.9573   20.1161 C   0  0  0  0  0  0
  -22.7405  -29.4658   22.4998 C   0  0  0  0  0  0
  -18.0275  -28.1365   22.8494 C   0  0  0  0  0  0
  -24.1488  -36.7309   23.2642 C   0  0  0  0  0  0
  -25.9253  -30.8429   21.3602 C   0  0  0  0  0  0
  -26.0075  -29.4779   20.7096 C   0  0  0  0  0  0
  -27.2087  -28.7356   20.6969 C   0  0  0  0  0  0
  -26.0708  -26.9423   19.5046 C   0  0  0  0  0  0
  -24.8755  -27.6877   19.5104 C   0  0  0  0  0  0
  -23.6089  -29.8202   20.1658 C   0  0  0  0  0  0
  -25.4107  -36.3119   24.0353 C   0  0  1  0  0  0
  -20.5863  -28.3641   23.1328 C   0  0  2  0  0  0
  -20.6763  -26.9381   22.5418 C   0  0  0  0  0  0
  -19.5746  -26.6373   21.5208 C   0  0  0  0  0  0
  -18.1924  -26.7918   22.1616 C   0  0  0  0  0  0
  -19.1525  -28.8819   23.2908 C   0  0  0  0  0  0
  -18.9454  -30.1427   23.8917 C   0  0  0  0  0  0
  -17.6461  -30.6579   24.0554 C   0  0  0  0  0  0
  -25.9025  -34.9482   23.5150 C   0  0  0  0  0  0
  -16.5350  -29.9082   23.6320 C   0  0  0  0  0  0
  -16.7267  -28.6492   23.0352 C   0  0  0  0  0  0
  -26.4452  -31.6598   25.0713 C   0  0  0  0  0  0
  -25.3731  -31.3700   26.1471 C   0  0  0  0  0  0
  -27.0279  -30.3055   24.6037 C   0  0  0  0  0  0
  -27.6039  -32.4310   25.7466 C   0  0  0  0  0  0
  -27.5589  -37.1810   24.8470 C   0  0  0  0  0  0
  -21.4130  -29.3021   22.3745 N   0  0  0  0  0  0
  -26.4299  -37.3798   23.9415 N   0  0  0  0  0  0
  -24.6632  -31.0813   22.0998 N   0  0  0  0  0  0
  -23.4197  -28.8204   23.3022 O   0  0  0  0  0  0
  -28.3898  -26.6981   20.0912 O   0  0  0  0  0  0
  -26.5582  -34.8929   22.4706 O   0  0  0  0  0  0
  -23.5307  -32.1435   23.7515 O   0  0  0  0  0  0
  -29.0440  -18.8622   22.0676 C   0  0  0  0  0  0
  -30.1017  -19.5888   21.4862 C   0  0  0  0  0  0
  -29.0405  -17.4532   22.0142 C   0  0  0  0  0  0
  -31.1143  -18.8366   20.8446 C   0  0  0  0  0  0
  -30.0987  -16.7762   21.3608 C   0  0  0  0  0  0
  -29.9676  -21.6846   23.0111 C   0  0  0  0  0  0
  -29.6764  -23.1640   22.7456 C   0  0  0  0  0  0
  -29.0909  -21.9114   20.7919 C   0  0  0  0  0  0
  -30.1439  -21.1267   21.6018 C   0  0  2  0  0  0
  -27.8913  -16.7014   22.6737 C   0  0  0  0  0  0
  -32.3071  -19.4862   20.1672 C   0  0  0  0  0  0
  -29.2790  -26.4306   22.2871 C   0  0  0  0  0  0
  -29.1463  -24.4377   20.6273 C   0  0  0  0  0  0
  -28.4871  -25.7436   21.1607 C   0  0  2  0  0  0
  -31.1001  -17.4854   20.7906 N   0  0  0  0  0  0
  -30.0235  -15.3536   21.3412 N   0  0  0  0  0  0
  -28.9071  -23.2252   21.4755 N   0  3  2  0  0  0
  -31.4707  -12.4041   19.1109 H   0  0  0  0  0  0
  -30.3326  -11.2796   19.7893 H   0  0  0  0  0  0
  -29.7319  -11.8021   17.4126 H   0  0  0  0  0  0
  -29.6654  -13.5069   17.7779 H   0  0  0  0  0  0
  -27.8194  -11.3187   18.7947 H   0  0  0  0  0  0
  -27.3655  -12.6648   17.7855 H   0  0  0  0  0  0
  -27.7221  -14.2550   19.6065 H   0  0  0  0  0  0
  -28.6776  -11.8930   21.2934 H   0  0  0  0  0  0
  -28.4551  -13.4944   21.9011 H   0  0  0  0  0  0
  -25.2759   -9.5677   22.4759 H   0  0  0  0  0  0
  -24.0001   -7.4627   22.7471 H   0  0  0  0  0  0
  -21.0838   -8.8766   19.8951 H   0  0  0  0  0  0
  -22.3695  -10.9666   19.6163 H   0  0  0  0  0  0
  -21.1998   -7.6150   23.9720 H   0  0  0  0  0  0
  -21.1484   -6.0518   25.9079 H   0  0  0  0  0  0
  -22.0597   -2.7606   23.2843 H   0  0  0  0  0  0
  -22.4104  -11.9893   22.4785 H   0  0  0  0  0  0
  -21.1120  -13.1275   22.2599 H   0  0  0  0  0  0
  -24.6466  -15.8290   20.4696 H   0  0  0  0  0  0
  -26.2589  -15.6156   20.0119 H   0  0  0  0  0  0
  -26.7076  -32.5563   23.1174 H   0  0  0  0  0  0
  -25.0057  -33.9798   25.0514 H   0  0  0  0  0  0
  -22.6858  -31.3062   21.4115 H   0  0  0  0  0  0
  -23.3756  -35.9635   23.3313 H   0  0  0  0  0  0
  -24.3590  -36.8903   22.2054 H   0  0  0  0  0  0
  -23.7231  -37.6517   23.6638 H   0  0  0  0  0  0
  -26.0314  -31.6093   20.5912 H   0  0  0  0  0  0
  -26.8149  -30.9009   21.9757 H   0  0  0  0  0  0
  -28.1041  -29.1402   21.1477 H   0  0  0  0  0  0
  -26.0859  -25.9680   19.0362 H   0  0  0  0  0  0
  -23.9845  -27.2821   19.0499 H   0  0  0  0  0  0
  -23.7146  -30.5945   19.4049 H   0  0  0  0  0  0
  -22.7354  -29.2365   19.8702 H   0  0  0  0  0  0
  -25.1287  -36.1994   25.0848 H   0  0  0  0  0  0
  -20.9947  -28.3192   24.1450 H   0  0  0  0  0  0
  -20.5641  -26.2247   23.3592 H   0  0  0  0  0  0
  -21.6635  -26.7416   22.1221 H   0  0  0  0  0  0
  -19.6892  -25.6284   21.1233 H   0  0  0  0  0  0
  -19.6700  -27.3191   20.6745 H   0  0  0  0  0  0
  -17.4196  -26.6670   21.4015 H   0  0  0  0  0  0
  -18.0325  -26.0057   22.9008 H   0  0  0  0  0  0
  -19.7932  -30.7229   24.2304 H   0  0  0  0  0  0
  -17.5021  -31.6267   24.5145 H   0  0  0  0  0  0
  -15.5352  -30.2991   23.7630 H   0  0  0  0  0  0
  -15.8665  -28.0813   22.7063 H   0  0  0  0  0  0
  -24.5893  -30.7056   25.7814 H   0  0  0  0  0  0
  -24.8927  -32.2857   26.4933 H   0  0  0  0  0  0
  -25.8091  -30.8863   27.0221 H   0  0  0  0  0  0
  -26.2806  -29.6831   24.1097 H   0  0  0  0  0  0
  -27.4099  -29.7266   25.4455 H   0  0  0  0  0  0
  -27.8618  -30.4413   23.9144 H   0  0  0  0  0  0
  -27.2666  -33.3599   26.2076 H   0  0  0  0  0  0
  -28.3822  -32.6884   25.0271 H   0  0  0  0  0  0
  -28.0728  -31.8410   26.5350 H   0  0  0  0  0  0
  -28.2612  -38.0101   24.7515 H   0  0  0  0  0  0
  -28.1084  -36.2636   24.6305 H   0  0  0  0  0  0
  -27.2311  -37.1464   25.8873 H   0  0  0  0  0  0
  -20.9275  -29.8763   21.6995 H   0  0  0  0  0  0
  -26.0200  -38.2883   24.1408 H   0  0  0  0  0  0
  -28.2380  -19.3791   22.5676 H   0  0  0  0  0  0
  -29.1104  -21.2386   23.5164 H   0  0  0  0  0  0
  -30.8432  -21.5308   23.6423 H   0  0  0  0  0  0
  -30.6218  -23.6979   22.6362 H   0  0  0  0  0  0
  -29.1280  -23.6146   23.5735 H   0  0  0  0  0  0
  -28.1301  -21.3964   20.8140 H   0  0  0  0  0  0
  -29.3804  -22.0054   19.7444 H   0  0  0  0  0  0
  -31.1176  -21.4805   21.2640 H   0  0  0  0  0  0
  -27.0535  -17.3655   22.8887 H   0  0  0  0  0  0
  -28.2153  -16.2565   23.6150 H   0  0  0  0  0  0
  -27.5109  -15.9079   22.0320 H   0  0  0  0  0  0
  -32.9162  -20.0234   20.8943 H   0  0  0  0  0  0
  -31.9779  -20.1868   19.3996 H   0  0  0  0  0  0
  -32.9472  -18.7458   19.6853 H   0  0  0  0  0  0
  -29.3505  -25.8163   23.1806 H   0  0  0  0  0  0
  -28.7987  -27.3580   22.5959 H   0  0  0  0  0  0
  -30.2900  -26.6775   21.9637 H   0  0  0  0  0  0
  -30.2117  -24.5818   20.4442 H   0  0  0  0  0  0
  -28.7004  -24.2390   19.6519 H   0  0  0  0  0  0
  -27.4875  -25.4963   21.5262 H   0  0  0  0  0  0
  -29.2017  -14.9768   21.7807 H   0  0  0  0  0  0
  -27.9297  -23.2360   21.7307 H   0  0  0  0  0  0
  1 25  1  0  0  0
  1 30  2  0  0  0
  1 86  1  0  0  0
  2  3  1  0  0  0
  2 25  1  0  0  0
  2 88  1  0  0  0
  2 89  1  0  0  0
  3  4  1  0  0  0
  3 90  1  0  0  0
  3 91  1  0  0  0
  4  5  1  0  0  0
  4 92  1  0  0  0
  4 93  1  0  0  0
  5  6  1  0  0  0
  5 26  1  0  0  0
  5 94  1  0  0  0
  6 25  1  0  0  0
  6 95  1  0  0  0
  6 96  1  0  0  0
  7  8  2  0  0  0
  7 26  1  0  0  0
  7 29  1  0  0  0
  8  9  1  0  0  0
  8 22  1  0  0  0
  9 10  1  0  0  0
  9 27  2  0  0  0
 10 11  2  0  0  0
 10 15  1  0  0  0
 11 12  1  0  0  0
 11 97  1  0  0  0
 12 13  2  0  0  0
 12 98  1  0  0  0
 13 14  1  0  0  0
 13 31  1  0  0  0
 14 15  2  0  0  0
 14 99  1  0  0  0
 15100  1  0  0  0
 16 17  2  0  0  0
 16 21  1  0  0  0
 16 31  1  0  0  0
 17 18  1  0  0  0
 17101  1  0  0  0
 18 19  2  0  0  0
 18102  1  0  0  0
 19 20  1  0  0  0
 19 24  1  0  0  0
 20 21  2  0  0  0
 20103  1  0  0  0
 21 23  1  0  0  0
 22 28  1  0  0  0
 22 32  2  0  0  0
 26 27  1  0  0  0
 28104  1  0  0  0
 28105  1  0  0  0
 29106  1  0  0  0
 29107  1  0  0  0
 33 34  1  0  0  0
 33 66  1  0  0  0
 33 70  2  0  0  0
 34 36  1  0  0  0
 34 59  1  0  0  0
 34108  1  0  0  0
 35 44  2  0  0  0
 35 45  1  0  0  0
 35 68  1  0  0  0
 36 56  1  0  0  0
 36109  1  0  0  0
 37 39  1  0  0  0
 37 47  1  0  0  0
 37 66  1  0  0  0
 37110  1  0  0  0
 38 43  2  0  0  0
 38 46  1  0  0  0
 38 47  1  0  0  0
 39 64  1  0  0  0
 39 67  2  0  0  0
 40 52  1  0  0  0
 40 53  2  0  0  0
 40 58  1  0  0  0
 41111  1  0  0  0
 41112  1  0  0  0
 41113  1  0  0  0
 41 48  1  0  0  0
 42 43  1  0  0  0
 42 66  1  0  0  0
 42114  1  0  0  0
 42115  1  0  0  0
 43 44  1  0  0  0
 44116  1  0  0  0
 45 46  2  0  0  0
 45117  1  0  0  0
 46118  1  0  0  0
 47119  1  0  0  0
 47120  1  0  0  0
 48 56  1  0  0  0
 48 65  1  0  0  0
 48121  1  0  0  0
 49 50  1  0  0  0
 49 53  1  0  0  0
 49 64  1  0  0  0
 49122  1  0  0  0
 50 51  1  0  0  0
 50123  1  0  0  0
 50124  1  0  0  0
 51 52  1  0  0  0
 51125  1  0  0  0
 51126  1  0  0  0
 52127  1  0  0  0
 52128  1  0  0  0
 53 54  1  0  0  0
 54 55  2  0  0  0
 54129  1  0  0  0
 55 57  1  0  0  0
 55130  1  0  0  0
 56 69  2  0  0  0
 57 58  2  0  0  0
 57131  1  0  0  0
 58132  1  0  0  0
 59 60  1  0  0  0
 59 61  1  0  0  0
 59 62  1  0  0  0
 60133  1  0  0  0
 60134  1  0  0  0
 60135  1  0  0  0
 61136  1  0  0  0
 61137  1  0  0  0
 61138  1  0  0  0
 62139  1  0  0  0
 62140  1  0  0  0
 62141  1  0  0  0
 63 65  1  0  0  0
 63142  1  0  0  0
 63143  1  0  0  0
 63144  1  0  0  0
 64145  1  0  0  0
 65146  1  0  0  0
 68 84  1  0  0  0
 71 72  2  0  0  0
 71 73  1  0  0  0
 71147  1  0  0  0
 72 74  1  0  0  0
 72 79  1  0  0  0
 73 75  2  0  0  0
 73 80  1  0  0  0
 74 81  1  0  0  0
 74 85  2  0  0  0
 75 85  1  0  0  0
 75 86  1  0  0  0
 76 77  1  0  0  0
 76 79  1  0  0  0
 76148  1  0  0  0
 76149  1  0  0  0
 77 87  1  0  0  0
 77150  1  0  0  0
 77151  1  0  0  0
 78 79  1  0  0  0
 78 87  1  0  0  0
 78152  1  0  0  0
 78153  1  0  0  0
 79154  1  0  0  0
 80155  1  0  0  0
 80156  1  0  0  0
 80157  1  0  0  0
 81158  1  0  0  0
 81159  1  0  0  0
 81160  1  0  0  0
 82161  1  0  0  0
 82162  1  0  0  0
 82163  1  0  0  0
 82 84  1  0  0  0
 83 84  1  0  0  0
 83164  1  0  0  0
 83165  1  0  0  0
 83 87  1  0  0  0
 84166  1  0  0  0
 86167  1  0  0  0
 87168  1  0  0  0
M  CHG  1  87   1
M  ISO  4   1 100  68 101  84 101  86 100
M  END
> <chiral flag>
0

> <version>
0

> <s_m_source_file>
/data/baiqing/PycharmProjects/Reinvent-master-3.2/result/LINK_invent/BTK/process_docking_weight1_custom_sum_contain_oxygen_bond_distance_aromatic_linkinvent_7_9_3/rearranged_h_0177.sdf

> <i_m_source_file_index>
49

> <r_mmod_Potential_Energy-OPLS-2005>
-238.079315185547

> <r_mmod_Stretch_Energy-OPLS-2005>
38.8878288269043

> <r_mmod_Bend_Energy-OPLS-2005>
130.147857666016

> <r_mmod_Torsional_Energy-OPLS-2005>
294.880249023438

> <r_mmod_Improper_Torsional_Energy-OPLS-2005>
3.05467247962952

> <r_mmod_Van_der_Waal_Energy-OPLS-2005>
150.033309936523

> <r_mmod_Electrostatic_Energy-OPLS-2005>
-405.807312011719

> <r_mmod_Solvation_Energy-OPLS-2005>
-458.364196777344

> <b_mmod_Minimization_Converged-OPLS-2005>
0

> <r_mmod_RMS_Derivative-OPLS-2005>
1.02237188816071

$$$$
49
                    3D
 Structure written by MMmdl.
154162  0  0  1  0            999 V2000
  -30.4646  -15.2211   20.3794 C   0  0  0  0  0  0
  -30.4381  -12.7813   19.5183 C   0  0  0  0  0  0
  -29.5324  -12.5712   18.2804 C   0  0  0  0  0  0
  -28.0795  -12.3025   18.7087 C   0  0  0  0  0  0
  -27.6136  -13.2727   19.8231 C   0  0  2  0  0  0
  -28.6494  -13.4338   20.9558 C   0  0  0  0  0  0
  -25.2398  -13.8247   20.5745 C   0  0  0  0  0  0
  -24.1745  -13.0443   20.9260 C   0  0  0  0  0  0
  -24.6393  -11.6935   20.8764 C   0  0  0  0  0  0
  -23.9086  -10.4297   21.0407 C   0  0  0  0  0  0
  -24.3629   -9.4210   21.9183 C   0  0  0  0  0  0
  -23.6298   -8.2247   22.0751 C   0  0  0  0  0  0
  -22.4279   -8.0283   21.3546 C   0  0  0  0  0  0
  -21.9920   -9.0261   20.4651 C   0  0  0  0  0  0
  -22.7253  -10.2136   20.3058 C   0  0  0  0  0  0
  -21.6855   -6.0736   22.5282 C   0  0  0  0  0  0
  -21.4016   -6.5641   23.8214 C   0  0  0  0  0  0
  -21.3661   -5.6789   24.9175 C   0  0  0  0  0  0
  -21.6046   -4.3053   24.7225 C   0  0  0  0  0  0
  -21.8818   -3.8146   23.4346 C   0  0  0  0  0  0
  -21.9193   -4.6965   22.3402 C   0  0  0  0  0  0
  -22.7764  -13.5201   21.1904 C   0  0  0  0  0  0
  -22.1664   -4.2152   21.0980 F   0  0  0  0  0  0
  -21.5625   -3.4534   25.7738 F   0  0  0  0  0  0
  -29.8859  -13.9254   20.3293 N   0  0  0  0  0  0
  -26.2822  -12.9517   20.3212 N   0  0  0  0  0  0
  -25.9329  -11.6624   20.5714 N   0  0  0  0  0  0
  -22.0415  -12.8193   22.0459 N   0  0  0  0  0  0
  -25.4037  -15.1978   20.4182 N   0  0  0  0  0  0
  -31.6859  -15.2155   20.1742 O   0  0  0  0  0  0
  -21.6644   -6.8881   21.4243 O   0  0  0  0  0  0
  -22.3453  -14.5505   20.6742 O   0  0  0  0  0  0
  -24.6612  -31.8270   23.1747 C   0  0  0  0  0  0
  -25.9303  -32.4606   23.8203 C   0  0  1  0  0  0
  -27.2153  -26.9539   20.1782 C   0  0  0  0  0  0
  -25.5981  -33.8419   24.2109 N   0  0  0  0  0  0
  -23.4744  -30.4408   21.5236 C   0  0  2  0  0  0
  -24.9274  -28.8369   20.1113 C   0  0  0  0  0  0
  -22.7660  -29.4460   22.4796 C   0  0  0  0  0  0
  -18.0322  -28.1406   22.8462 C   0  0  0  0  0  0
  -24.1490  -36.7209   23.2643 C   0  0  0  0  0  0
  -26.0427  -30.6425   21.4012 C   0  0  0  0  0  0
  -26.1113  -29.2355   20.7443 C   0  0  0  0  0  0
  -27.2511  -28.3145   20.7556 C   0  0  0  0  0  0
  -26.0036  -26.7084   19.4915 C   0  0  0  0  0  0
  -24.8977  -27.5930   19.4642 C   0  0  0  0  0  0
  -23.7130  -29.7621   20.1477 C   0  0  0  0  0  0
  -25.4128  -36.2977   24.0305 C   0  0  1  0  0  0
  -20.5946  -28.3753   23.1193 C   0  0  2  0  0  0
  -20.6798  -26.9435   22.5406 C   0  0  0  0  0  0
  -19.5776  -26.6377   21.5212 C   0  0  0  0  0  0
  -18.1956  -26.7941   22.1616 C   0  0  0  0  0  0
  -19.1582  -28.8899   23.2814 C   0  0  0  0  0  0
  -18.9491  -30.1487   23.8854 C   0  0  0  0  0  0
  -17.6485  -30.6595   24.0555 C   0  0  0  0  0  0
  -25.9097  -34.9361   23.5025 C   0  0  0  0  0  0
  -16.5378  -29.9083   23.6339 C   0  0  0  0  0  0
  -16.7303  -28.6503   23.0359 C   0  0  0  0  0  0
  -26.4560  -31.6537   25.0718 C   0  0  0  0  0  0
  -25.3701  -31.3782   26.1389 C   0  0  0  0  0  0
  -27.0435  -30.2901   24.6427 C   0  0  0  0  0  0
  -27.6072  -32.4324   25.7508 C   0  0  0  0  0  0
  -27.5576  -37.1751   24.8457 C   0  0  0  0  0  0
  -21.4335  -29.3044   22.3541 N   0  0  0  0  0  0
  -26.4272  -37.3716   23.9419 N   0  0  0  0  0  0
  -24.7472  -30.9961   22.0871 N   0  0  0  0  0  0
  -23.4215  -28.8026   23.3030 O   0  0  0  0  0  0
  -28.2013  -25.8414   20.2647 O   0  0  0  0  0  0
  -26.5704  -34.8890   22.4619 O   0  0  0  0  0  0
  -23.5687  -32.1230   23.6855 O   0  0  0  0  0  0
  -29.4303  -21.9768   19.3076 C   0  0  0  0  0  0
  -28.5619  -20.3988   21.2800 C   0  0  0  0  0  0
  -29.3934  -19.6705   20.3216 C   0  0  0  0  0  0
  -28.5994  -22.7099   20.2603 C   0  0  0  0  0  0
  -29.9460  -22.7052   18.0832 C   0  0  0  0  0  0
  -26.5786  -19.1734   22.2676 C   0  0  0  0  0  0
  -28.0195  -19.6520   22.4850 C   0  0  0  0  0  0
  -30.1465  -18.0942   20.4124 C   0  0  0  0  0  0
  -27.8214  -24.2641   20.0576 C   0  0  0  0  0  0
  -29.8024  -20.5984   19.3567 N   0  0  0  0  0  0
  -28.1835  -21.7800   21.2264 N   0  0  0  0  0  0
  -29.7225  -16.4954   20.4568 N   0  0  0  0  0  0
  -31.4587  -12.9775   19.1869 H   0  0  0  0  0  0
  -30.4952  -11.8704   20.1168 H   0  0  0  0  0  0
  -29.9044  -11.7463   17.6705 H   0  0  0  0  0  0
  -29.5688  -13.4606   17.6494 H   0  0  0  0  0  0
  -28.0288  -11.2767   19.0748 H   0  0  0  0  0  0
  -27.4109  -12.3545   17.8485 H   0  0  0  0  0  0
  -27.5333  -14.2428   19.3315 H   0  0  0  0  0  0
  -28.8074  -12.4966   21.4913 H   0  0  0  0  0  0
  -28.2966  -14.1575   21.6920 H   0  0  0  0  0  0
  -25.2766   -9.5694   22.4765 H   0  0  0  0  0  0
  -24.0010   -7.4639   22.7466 H   0  0  0  0  0  0
  -21.0849   -8.8785   19.8959 H   0  0  0  0  0  0
  -22.3703  -10.9681   19.6176 H   0  0  0  0  0  0
  -21.2011   -7.6147   23.9718 H   0  0  0  0  0  0
  -21.1481   -6.0519   25.9078 H   0  0  0  0  0  0
  -22.0595   -2.7608   23.2841 H   0  0  0  0  0  0
  -22.4034  -11.9869   22.4869 H   0  0  0  0  0  0
  -21.1028  -13.1219   22.2651 H   0  0  0  0  0  0
  -24.6296  -15.8445   20.5265 H   0  0  0  0  0  0
  -26.2383  -15.6379   20.0544 H   0  0  0  0  0  0
  -26.7374  -32.5156   23.0922 H   0  0  0  0  0  0
  -25.0084  -33.9503   25.0227 H   0  0  0  0  0  0
  -22.7862  -31.2720   21.3571 H   0  0  0  0  0  0
  -23.3779  -35.9510   23.3253 H   0  0  0  0  0  0
  -24.3583  -36.8905   22.2070 H   0  0  0  0  0  0
  -23.7210  -37.6367   23.6730 H   0  0  0  0  0  0
  -26.2186  -31.3857   20.6224 H   0  0  0  0  0  0
  -26.9043  -30.6994   22.0544 H   0  0  0  0  0  0
  -28.1445  -28.6158   21.2834 H   0  0  0  0  0  0
  -25.8671  -25.7631   18.9896 H   0  0  0  0  0  0
  -23.9990  -27.2831   18.9482 H   0  0  0  0  0  0
  -23.8689  -30.5342   19.3933 H   0  0  0  0  0  0
  -22.8227  -29.2179   19.8283 H   0  0  0  0  0  0
  -25.1317  -36.1776   25.0795 H   0  0  0  0  0  0
  -21.0032  -28.3358   24.1318 H   0  0  0  0  0  0
  -20.5671  -26.2374   23.3645 H   0  0  0  0  0  0
  -21.6666  -26.7407   22.1224 H   0  0  0  0  0  0
  -19.6941  -25.6275   21.1273 H   0  0  0  0  0  0
  -19.6719  -27.3160   20.6720 H   0  0  0  0  0  0
  -17.4228  -26.6682   21.4016 H   0  0  0  0  0  0
  -18.0351  -26.0093   22.9023 H   0  0  0  0  0  0
  -19.7969  -30.7309   24.2212 H   0  0  0  0  0  0
  -17.5038  -31.6273   24.5165 H   0  0  0  0  0  0
  -15.5374  -30.2970   23.7686 H   0  0  0  0  0  0
  -15.8705  -28.0801   22.7103 H   0  0  0  0  0  0
  -24.5917  -30.7081   25.7722 H   0  0  0  0  0  0
  -24.8850  -32.2977   26.4679 H   0  0  0  0  0  0
  -25.7959  -30.9064   27.0257 H   0  0  0  0  0  0
  -26.3089  -29.6597   24.1408 H   0  0  0  0  0  0
  -27.3940  -29.7245   25.5071 H   0  0  0  0  0  0
  -27.9050  -30.4076   23.9850 H   0  0  0  0  0  0
  -27.2671  -33.3674   26.1973 H   0  0  0  0  0  0
  -28.3947  -32.6800   25.0376 H   0  0  0  0  0  0
  -28.0678  -31.8522   26.5515 H   0  0  0  0  0  0
  -28.2549  -38.0091   24.7554 H   0  0  0  0  0  0
  -28.1117  -36.2624   24.6211 H   0  0  0  0  0  0
  -27.2314  -37.1310   25.8862 H   0  0  0  0  0  0
  -20.9586  -29.8723   21.6663 H   0  0  0  0  0  0
  -26.0122  -38.2766   24.1467 H   0  0  0  0  0  0
  -30.0026  -23.7798   18.2581 H   0  0  0  0  0  0
  -29.2841  -22.5305   17.2352 H   0  0  0  0  0  0
  -30.9452  -22.3607   17.8158 H   0  0  0  0  0  0
  -26.2173  -18.6201   23.1341 H   0  0  0  0  0  0
  -26.5101  -18.5153   21.4010 H   0  0  0  0  0  0
  -25.9036  -20.0139   22.1045 H   0  0  0  0  0  0
  -28.0660  -20.3017   23.3598 H   0  0  0  0  0  0
  -28.6622  -18.8004   22.7098 H   0  0  0  0  0  0
  -30.7785  -18.1927   21.2950 H   0  0  0  0  0  0
  -30.8608  -18.1230   19.5891 H   0  0  0  0  0  0
  -26.9010  -24.1508   20.6309 H   0  0  0  0  0  0
  -27.4944  -24.2187   19.0191 H   0  0  0  0  0  0
  -28.7291  -16.3583   20.5660 H   0  0  0  0  0  0
  1 25  1  0  0  0
  1 30  2  0  0  0
  1 82  1  0  0  0
  2  3  1  0  0  0
  2 25  1  0  0  0
  2 83  1  0  0  0
  2 84  1  0  0  0
  3  4  1  0  0  0
  3 85  1  0  0  0
  3 86  1  0  0  0
  4  5  1  0  0  0
  4 87  1  0  0  0
  4 88  1  0  0  0
  5  6  1  0  0  0
  5 26  1  0  0  0
  5 89  1  0  0  0
  6 25  1  0  0  0
  6 90  1  0  0  0
  6 91  1  0  0  0
  7  8  2  0  0  0
  7 26  1  0  0  0
  7 29  1  0  0  0
  8  9  1  0  0  0
  8 22  1  0  0  0
  9 10  1  0  0  0
  9 27  2  0  0  0
 10 11  2  0  0  0
 10 15  1  0  0  0
 11 12  1  0  0  0
 11 92  1  0  0  0
 12 13  2  0  0  0
 12 93  1  0  0  0
 13 14  1  0  0  0
 13 31  1  0  0  0
 14 15  2  0  0  0
 14 94  1  0  0  0
 15 95  1  0  0  0
 16 17  2  0  0  0
 16 21  1  0  0  0
 16 31  1  0  0  0
 17 18  1  0  0  0
 17 96  1  0  0  0
 18 19  2  0  0  0
 18 97  1  0  0  0
 19 20  1  0  0  0
 19 24  1  0  0  0
 20 21  2  0  0  0
 20 98  1  0  0  0
 21 23  1  0  0  0
 22 28  1  0  0  0
 22 32  2  0  0  0
 26 27  1  0  0  0
 28 99  1  0  0  0
 28100  1  0  0  0
 29101  1  0  0  0
 29102  1  0  0  0
 33 34  1  0  0  0
 33 66  1  0  0  0
 33 70  2  0  0  0
 34 36  1  0  0  0
 34 59  1  0  0  0
 34103  1  0  0  0
 35 44  2  0  0  0
 35 45  1  0  0  0
 35 68  1  0  0  0
 36 56  1  0  0  0
 36104  1  0  0  0
 37 39  1  0  0  0
 37 47  1  0  0  0
 37 66  1  0  0  0
 37105  1  0  0  0
 38 43  2  0  0  0
 38 46  1  0  0  0
 38 47  1  0  0  0
 39 64  1  0  0  0
 39 67  2  0  0  0
 40 52  1  0  0  0
 40 53  2  0  0  0
 40 58  1  0  0  0
 41106  1  0  0  0
 41107  1  0  0  0
 41108  1  0  0  0
 41 48  1  0  0  0
 42 43  1  0  0  0
 42 66  1  0  0  0
 42109  1  0  0  0
 42110  1  0  0  0
 43 44  1  0  0  0
 44111  1  0  0  0
 45 46  2  0  0  0
 45112  1  0  0  0
 46113  1  0  0  0
 47114  1  0  0  0
 47115  1  0  0  0
 48 56  1  0  0  0
 48 65  1  0  0  0
 48116  1  0  0  0
 49 50  1  0  0  0
 49 53  1  0  0  0
 49 64  1  0  0  0
 49117  1  0  0  0
 50 51  1  0  0  0
 50118  1  0  0  0
 50119  1  0  0  0
 51 52  1  0  0  0
 51120  1  0  0  0
 51121  1  0  0  0
 52122  1  0  0  0
 52123  1  0  0  0
 53 54  1  0  0  0
 54 55  2  0  0  0
 54124  1  0  0  0
 55 57  1  0  0  0
 55125  1  0  0  0
 56 69  2  0  0  0
 57 58  2  0  0  0
 57126  1  0  0  0
 58127  1  0  0  0
 59 60  1  0  0  0
 59 61  1  0  0  0
 59 62  1  0  0  0
 60128  1  0  0  0
 60129  1  0  0  0
 60130  1  0  0  0
 61131  1  0  0  0
 61132  1  0  0  0
 61133  1  0  0  0
 62134  1  0  0  0
 62135  1  0  0  0
 62136  1  0  0  0
 63 65  1  0  0  0
 63137  1  0  0  0
 63138  1  0  0  0
 63139  1  0  0  0
 64140  1  0  0  0
 65141  1  0  0  0
 68 79  1  0  0  0
 71 74  2  0  0  0
 71 75  1  0  0  0
 71 80  1  0  0  0
 72 73  1  0  0  0
 72 77  1  0  0  0
 72 81  2  0  0  0
 73 78  1  0  0  0
 73 80  2  0  0  0
 74 79  1  0  0  0
 74 81  1  0  0  0
 75142  1  0  0  0
 75143  1  0  0  0
 75144  1  0  0  0
 76 77  1  0  0  0
 76145  1  0  0  0
 76146  1  0  0  0
 76147  1  0  0  0
 77148  1  0  0  0
 77149  1  0  0  0
 78 82  1  0  0  0
 78150  1  0  0  0
 78151  1  0  0  0
 79152  1  0  0  0
 79153  1  0  0  0
 82154  1  0  0  0
M  ISO  4   1 100  68 101  79 101  82 100
M  END
> <chiral flag>
0

> <version>
0

> <s_m_source_file>
/data/baiqing/PycharmProjects/Reinvent-master-3.2/result/LINK_invent/BTK/process_docking_weight1_custom_sum_contain_oxygen_bond_distance_aromatic_linkinvent_7_9_3/rearranged_h_0177.sdf

> <i_m_source_file_index>
50

> <r_mmod_Potential_Energy-OPLS-2005>
1112.87060546875

> <r_mmod_Stretch_Energy-OPLS-2005>
491.298400878906

> <r_mmod_Bend_Energy-OPLS-2005>
432.382843017578

> <r_mmod_Torsional_Energy-OPLS-2005>
212.494079589844

> <r_mmod_Improper_Torsional_Energy-OPLS-2005>
8.42705059051514

> <r_mmod_Van_der_Waal_Energy-OPLS-2005>
127.646224975586

> <r_mmod_Electrostatic_Energy-OPLS-2005>
-347.188598632812

> <r_mmod_Solvation_Energy-OPLS-2005>
-232.043975830078

> <b_mmod_Minimization_Converged-OPLS-2005>
0

> <r_mmod_RMS_Derivative-OPLS-2005>
0.920375406742096

$$$$
50
                    3D
 Structure written by MMmdl.
161170  0  0  1  0            999 V2000
  -30.4052  -15.2765   20.4360 C   0  0  0  0  0  0
  -30.4558  -12.8219   19.5225 C   0  0  0  0  0  0
  -29.5444  -12.5954   18.2835 C   0  0  0  0  0  0
  -28.0860  -12.3114   18.7012 C   0  0  0  0  0  0
  -27.6217  -13.2531   19.8376 C   0  0  2  0  0  0
  -28.6755  -13.3145   20.9694 C   0  0  0  0  0  0
  -25.2328  -13.8146   20.5597 C   0  0  0  0  0  0
  -24.1716  -13.0353   20.9245 C   0  0  0  0  0  0
  -24.6373  -11.6864   20.8765 C   0  0  0  0  0  0
  -23.9046  -10.4244   21.0413 C   0  0  0  0  0  0
  -24.3599   -9.4169   21.9191 C   0  0  0  0  0  0
  -23.6264   -8.2205   22.0752 C   0  0  0  0  0  0
  -22.4247   -8.0250   21.3540 C   0  0  0  0  0  0
  -21.9885   -9.0220   20.4645 C   0  0  0  0  0  0
  -22.7218  -10.2094   20.3051 C   0  0  0  0  0  0
  -21.6838   -6.0716   22.5290 C   0  0  0  0  0  0
  -21.4002   -6.5619   23.8226 C   0  0  0  0  0  0
  -21.3663   -5.6777   24.9186 C   0  0  0  0  0  0
  -21.6051   -4.3039   24.7237 C   0  0  0  0  0  0
  -21.8819   -3.8127   23.4356 C   0  0  0  0  0  0
  -21.9187   -4.6945   22.3412 C   0  0  0  0  0  0
  -22.7744  -13.5130   21.1919 C   0  0  0  0  0  0
  -22.1655   -4.2130   21.0990 F   0  0  0  0  0  0
  -21.5643   -3.4526   25.7752 F   0  0  0  0  0  0
  -29.8739  -13.9393   20.3640 N   0  0  0  0  0  0
  -26.2826  -12.9415   20.3220 N   0  0  0  0  0  0
  -25.9322  -11.6548   20.5765 N   0  0  0  0  0  0
  -22.0395  -12.8154   22.0517 N   0  0  0  0  0  0
  -25.3714  -15.1856   20.3775 N   0  0  0  0  0  0
  -31.6194  -15.2924   20.1773 O   0  0  0  0  0  0
  -21.6595   -6.8859   21.4254 O   0  0  0  0  0  0
  -22.3446  -14.5442   20.6751 O   0  0  0  0  0  0
  -24.6584  -31.8262   23.1692 C   0  0  0  0  0  0
  -25.9271  -32.4609   23.8165 C   0  0  1  0  0  0
  -27.2299  -26.9405   20.2059 C   0  0  0  0  0  0
  -25.5942  -33.8414   24.2078 N   0  0  0  0  0  0
  -23.4737  -30.4318   21.5193 C   0  0  2  0  0  0
  -24.9278  -28.8078   20.1239 C   0  0  0  0  0  0
  -22.7665  -29.4428   22.4826 C   0  0  0  0  0  0
  -18.0314  -28.1397   22.8476 C   0  0  0  0  0  0
  -24.1490  -36.7226   23.2649 C   0  0  0  0  0  0
  -26.0381  -30.6369   21.3932 C   0  0  0  0  0  0
  -26.1054  -29.2207   20.7560 C   0  0  0  0  0  0
  -27.2468  -28.3057   20.7738 C   0  0  0  0  0  0
  -26.0245  -26.6726   19.5167 C   0  0  0  0  0  0
  -24.9084  -27.5538   19.4889 C   0  0  0  0  0  0
  -23.7147  -29.7363   20.1497 C   0  0  0  0  0  0
  -25.4130  -36.2982   24.0306 C   0  0  1  0  0  0
  -20.5944  -28.3728   23.1226 C   0  0  2  0  0  0
  -20.6793  -26.9414   22.5414 C   0  0  0  0  0  0
  -19.5751  -26.6362   21.5235 C   0  0  0  0  0  0
  -18.1934  -26.7931   22.1639 C   0  0  0  0  0  0
  -19.1579  -28.8891   23.2838 C   0  0  0  0  0  0
  -18.9484  -30.1488   23.8861 C   0  0  0  0  0  0
  -17.6473  -30.6592   24.0557 C   0  0  0  0  0  0
  -25.9088  -34.9365   23.5018 C   0  0  0  0  0  0
  -16.5367  -29.9078   23.6334 C   0  0  0  0  0  0
  -16.7297  -28.6500   23.0358 C   0  0  0  0  0  0
  -26.4545  -31.6533   25.0674 C   0  0  0  0  0  0
  -25.3685  -31.3743   26.1333 C   0  0  0  0  0  0
  -27.0428  -30.2916   24.6327 C   0  0  0  0  0  0
  -27.6036  -32.4337   25.7483 C   0  0  0  0  0  0
  -27.5569  -37.1769   24.8465 C   0  0  0  0  0  0
  -21.4336  -29.3033   22.3593 N   0  0  0  0  0  0
  -26.4279  -37.3716   23.9406 N   0  0  0  0  0  0
  -24.7452  -30.9945   22.0809 N   0  0  0  0  0  0
  -23.4235  -28.7998   23.3041 O   0  0  0  0  0  0
  -28.3234  -25.9333   20.2325 O   0  0  0  0  0  0
  -26.5709  -34.8895   22.4619 O   0  0  0  0  0  0
  -23.5666  -32.1201   23.6820 O   0  0  0  0  0  0
  -29.8096  -22.4010   20.2867 C   0  0  0  0  0  0
  -28.8096  -21.3489   20.2899 C   0  0  0  0  0  0
  -27.5574  -22.1208   20.3062 C   0  0  0  0  0  0
  -28.3915  -24.4330   20.2699 C   0  0  0  0  0  0
  -28.3451  -16.5229   21.2797 C   0  0  0  0  0  0
  -28.5662  -16.7856   22.7810 C   0  0  0  0  0  0
  -30.2336  -18.5083   22.1493 C   0  0  0  0  0  0
  -29.9370  -18.2173   20.6576 C   0  0  2  0  0  0
  -26.2465  -21.3578   20.3240 C   0  0  0  0  0  0
  -29.2731  -18.4799   24.4328 C   0  0  0  0  0  0
  -28.9580  -19.6074   20.0583 C   0  0  0  0  0  0
  -29.6091  -23.8057   20.2821 N   0  0  0  0  0  0
  -27.3675  -23.5330   20.2981 N   0  0  0  0  0  0
  -29.6309  -16.5656   20.5839 N   0  0  0  0  0  0
  -29.0646  -18.1670   23.0020 N   0  3  2  0  0  0
  -31.4658  -13.0602   19.1915 H   0  0  0  0  0  0
  -30.5692  -11.8970   20.0935 H   0  0  0  0  0  0
  -29.9274  -11.7763   17.6727 H   0  0  0  0  0  0
  -29.5752  -13.4863   17.6545 H   0  0  0  0  0  0
  -28.0363  -11.2786   19.0513 H   0  0  0  0  0  0
  -27.4210  -12.3737   17.8391 H   0  0  0  0  0  0
  -27.5628  -14.2372   19.3713 H   0  0  0  0  0  0
  -28.8629  -12.3055   21.3405 H   0  0  0  0  0  0
  -28.3401  -13.8353   21.8606 H   0  0  0  0  0  0
  -25.2747   -9.5649   22.4755 H   0  0  0  0  0  0
  -23.9967   -7.4587   22.7474 H   0  0  0  0  0  0
  -21.0806   -8.8733   19.8950 H   0  0  0  0  0  0
  -22.3672  -10.9613   19.6138 H   0  0  0  0  0  0
  -21.1972   -7.6119   23.9730 H   0  0  0  0  0  0
  -21.1483   -6.0499   25.9095 H   0  0  0  0  0  0
  -22.0583   -2.7583   23.2863 H   0  0  0  0  0  0
  -22.3971  -11.9807   22.4941 H   0  0  0  0  0  0
  -21.1009  -13.1189   22.2686 H   0  0  0  0  0  0
  -24.5531  -15.7856   20.4142 H   0  0  0  0  0  0
  -26.1394  -15.6062   19.8728 H   0  0  0  0  0  0
  -26.7335  -32.5163   23.0884 H   0  0  0  0  0  0
  -25.0025  -33.9490   25.0185 H   0  0  0  0  0  0
  -22.7822  -31.2594   21.3440 H   0  0  0  0  0  0
  -23.3754  -35.9555   23.3285 H   0  0  0  0  0  0
  -24.3563  -36.8888   22.2065 H   0  0  0  0  0  0
  -23.7240  -37.6407   23.6717 H   0  0  0  0  0  0
  -26.2043  -31.3643   20.5982 H   0  0  0  0  0  0
  -26.9050  -30.7110   22.0372 H   0  0  0  0  0  0
  -28.1451  -28.6299   21.2802 H   0  0  0  0  0  0
  -25.9213  -25.7210   19.0127 H   0  0  0  0  0  0
  -24.0088  -27.2336   18.9808 H   0  0  0  0  0  0
  -23.8747  -30.4951   19.3833 H   0  0  0  0  0  0
  -22.8250  -29.1877   19.8371 H   0  0  0  0  0  0
  -25.1330  -36.1792   25.0799 H   0  0  0  0  0  0
  -21.0027  -28.3302   24.1350 H   0  0  0  0  0  0
  -20.5680  -26.2341   23.3644 H   0  0  0  0  0  0
  -21.6656  -26.7381   22.1214 H   0  0  0  0  0  0
  -19.6901  -25.6267   21.1269 H   0  0  0  0  0  0
  -19.6684  -27.3176   20.6766 H   0  0  0  0  0  0
  -17.4213  -26.6700   21.4031 H   0  0  0  0  0  0
  -18.0303  -26.0088   22.9042 H   0  0  0  0  0  0
  -19.7960  -30.7322   24.2211 H   0  0  0  0  0  0
  -17.5016  -31.6258   24.5174 H   0  0  0  0  0  0
  -15.5367  -30.2959   23.7675 H   0  0  0  0  0  0
  -15.8699  -28.0798   22.7090 H   0  0  0  0  0  0
  -24.5904  -30.7058   25.7636 H   0  0  0  0  0  0
  -24.8838  -32.2933   26.4636 H   0  0  0  0  0  0
  -25.7940  -30.8995   27.0182 H   0  0  0  0  0  0
  -26.3070  -29.6617   24.1318 H   0  0  0  0  0  0
  -27.3992  -29.7244   25.4930 H   0  0  0  0  0  0
  -27.8994  -30.4131   23.9698 H   0  0  0  0  0  0
  -27.2604  -33.3679   26.1934 H   0  0  0  0  0  0
  -28.3920  -32.6821   25.0370 H   0  0  0  0  0  0
  -28.0622  -31.8543   26.5500 H   0  0  0  0  0  0
  -28.2584  -38.0069   24.7508 H   0  0  0  0  0  0
  -28.1071  -36.2595   24.6309 H   0  0  0  0  0  0
  -27.2281  -37.1438   25.8866 H   0  0  0  0  0  0
  -20.9613  -29.8730   21.6718 H   0  0  0  0  0  0
  -26.0129  -38.2778   24.1407 H   0  0  0  0  0  0
  -30.8477  -22.1061   20.2614 H   0  0  0  0  0  0
  -27.6626  -17.2667   20.8778 H   0  0  0  0  0  0
  -27.7952  -15.6183   21.1191 H   0  0  0  0  0  0
  -29.2820  -16.0686   23.1884 H   0  0  0  0  0  0
  -27.6311  -16.6408   23.3227 H   0  0  0  0  0  0
  -30.4762  -19.5625   22.2865 H   0  0  0  0  0  0
  -31.1057  -17.9401   22.4788 H   0  0  0  0  0  0
  -30.8986  -18.3217   20.1520 H   0  0  0  0  0  0
  -26.2418  -20.6442   21.1478 H   0  0  0  0  0  0
  -26.1053  -20.8061   19.3953 H   0  0  0  0  0  0
  -25.3915  -22.0216   20.4568 H   0  0  0  0  0  0
  -28.3689  -18.2748   25.0092 H   0  0  0  0  0  0
  -29.5088  -19.5352   24.5638 H   0  0  0  0  0  0
  -30.0906  -17.8977   24.8592 H   0  0  0  0  0  0
  -29.0577  -19.5303   18.9747 H   0  0  0  0  0  0
  -27.9338  -19.2867   20.2219 H   0  0  0  0  0  0
  -28.3225  -18.7868   22.7112 H   0  0  0  0  0  0
  1 25  1  0  0  0
  1 30  2  0  0  0
  1 84  1  0  0  0
  2  3  1  0  0  0
  2 25  1  0  0  0
  2 86  1  0  0  0
  2 87  1  0  0  0
  3  4  1  0  0  0
  3 88  1  0  0  0
  3 89  1  0  0  0
  4  5  1  0  0  0
  4 90  1  0  0  0
  4 91  1  0  0  0
  5  6  1  0  0  0
  5 26  1  0  0  0
  5 92  1  0  0  0
  6 25  1  0  0  0
  6 93  1  0  0  0
  6 94  1  0  0  0
  7  8  2  0  0  0
  7 26  1  0  0  0
  7 29  1  0  0  0
  8  9  1  0  0  0
  8 22  1  0  0  0
  9 10  1  0  0  0
  9 27  2  0  0  0
 10 11  2  0  0  0
 10 15  1  0  0  0
 11 12  1  0  0  0
 11 95  1  0  0  0
 12 13  2  0  0  0
 12 96  1  0  0  0
 13 14  1  0  0  0
 13 31  1  0  0  0
 14 15  2  0  0  0
 14 97  1  0  0  0
 15 98  1  0  0  0
 16 17  2  0  0  0
 16 21  1  0  0  0
 16 31  1  0  0  0
 17 18  1  0  0  0
 17 99  1  0  0  0
 18 19  2  0  0  0
 18100  1  0  0  0
 19 20  1  0  0  0
 19 24  1  0  0  0
 20 21  2  0  0  0
 20101  1  0  0  0
 21 23  1  0  0  0
 22 28  1  0  0  0
 22 32  2  0  0  0
 26 27  1  0  0  0
 28102  1  0  0  0
 28103  1  0  0  0
 29104  1  0  0  0
 29105  1  0  0  0
 33 34  1  0  0  0
 33 66  1  0  0  0
 33 70  2  0  0  0
 34 36  1  0  0  0
 34 59  1  0  0  0
 34106  1  0  0  0
 35 44  2  0  0  0
 35 45  1  0  0  0
 35 68  1  0  0  0
 36 56  1  0  0  0
 36107  1  0  0  0
 37 39  1  0  0  0
 37 47  1  0  0  0
 37 66  1  0  0  0
 37108  1  0  0  0
 38 43  2  0  0  0
 38 46  1  0  0  0
 38 47  1  0  0  0
 39 64  1  0  0  0
 39 67  2  0  0  0
 40 52  1  0  0  0
 40 53  2  0  0  0
 40 58  1  0  0  0
 41109  1  0  0  0
 41110  1  0  0  0
 41111  1  0  0  0
 41 48  1  0  0  0
 42 43  1  0  0  0
 42 66  1  0  0  0
 42112  1  0  0  0
 42113  1  0  0  0
 43 44  1  0  0  0
 44114  1  0  0  0
 45 46  2  0  0  0
 45115  1  0  0  0
 46116  1  0  0  0
 47117  1  0  0  0
 47118  1  0  0  0
 48 56  1  0  0  0
 48 65  1  0  0  0
 48119  1  0  0  0
 49 50  1  0  0  0
 49 53  1  0  0  0
 49 64  1  0  0  0
 49120  1  0  0  0
 50 51  1  0  0  0
 50121  1  0  0  0
 50122  1  0  0  0
 51 52  1  0  0  0
 51123  1  0  0  0
 51124  1  0  0  0
 52125  1  0  0  0
 52126  1  0  0  0
 53 54  1  0  0  0
 54 55  2  0  0  0
 54127  1  0  0  0
 55 57  1  0  0  0
 55128  1  0  0  0
 56 69  2  0  0  0
 57 58  2  0  0  0
 57129  1  0  0  0
 58130  1  0  0  0
 59 60  1  0  0  0
 59 61  1  0  0  0
 59 62  1  0  0  0
 60131  1  0  0  0
 60132  1  0  0  0
 60133  1  0  0  0
 61134  1  0  0  0
 61135  1  0  0  0
 61136  1  0  0  0
 62137  1  0  0  0
 62138  1  0  0  0
 62139  1  0  0  0
 63 65  1  0  0  0
 63140  1  0  0  0
 63141  1  0  0  0
 63142  1  0  0  0
 64143  1  0  0  0
 65144  1  0  0  0
 68 74  1  0  0  0
 71 72  2  0  0  0
 71 82  1  0  0  0
 71145  1  0  0  0
 72 73  1  0  0  0
 72 81  1  0  0  0
 73 79  1  0  0  0
 73 83  2  0  0  0
 74 82  2  0  0  0
 74 83  1  0  0  0
 75 76  1  0  0  0
 75 84  1  0  0  0
 75146  1  0  0  0
 75147  1  0  0  0
 76 85  1  0  0  0
 76148  1  0  0  0
 76149  1  0  0  0
 77 78  1  0  0  0
 77 85  1  0  0  0
 77150  1  0  0  0
 77151  1  0  0  0
 78 81  1  0  0  0
 78 84  1  0  0  0
 78152  1  0  0  0
 79153  1  0  0  0
 79154  1  0  0  0
 79155  1  0  0  0
 80156  1  0  0  0
 80157  1  0  0  0
 80158  1  0  0  0
 80 85  1  0  0  0
 81159  1  0  0  0
 81160  1  0  0  0
 85161  1  0  0  0
M  CHG  1  85   1
M  ISO  4   1 100  68 101  74 101  84 100
M  END
> <chiral flag>
0

> <version>
0

> <s_m_source_file>
/data/baiqing/PycharmProjects/Reinvent-master-3.2/result/LINK_invent/BTK/process_docking_weight1_custom_sum_contain_oxygen_bond_distance_aromatic_linkinvent_7_9_3/rearranged_h_0177.sdf

> <i_m_source_file_index>
51

> <r_mmod_Potential_Energy-OPLS-2005>
929.230895996094

> <r_mmod_Stretch_Energy-OPLS-2005>
530.9912109375

> <r_mmod_Bend_Energy-OPLS-2005>
500.402404785156

> <r_mmod_Torsional_Energy-OPLS-2005>
363.469635009766

> <r_mmod_Improper_Torsional_Energy-OPLS-2005>
8.53265857696533

> <r_mmod_Van_der_Waal_Energy-OPLS-2005>
148.348617553711

> <r_mmod_Electrostatic_Energy-OPLS-2005>
-576.638549804688

> <r_mmod_Solvation_Energy-OPLS-2005>
-470.265472412109

> <b_mmod_Minimization_Converged-OPLS-2005>
0

> <r_mmod_RMS_Derivative-OPLS-2005>
3.29802751541138

$$$$
51
                    3D
 Structure written by MMmdl.
154163  0  0  1  0            999 V2000
  -30.6338  -14.8115   20.4417 C   0  0  0  0  0  0
  -30.4210  -12.5057   19.4735 C   0  0  0  0  0  0
  -29.5027  -12.5122   18.2338 C   0  0  0  0  0  0
  -28.0323  -12.3300   18.6541 C   0  0  0  0  0  0
  -27.6322  -13.2437   19.8447 C   0  0  2  0  0  0
  -28.6830  -13.2193   20.9748 C   0  0  0  0  0  0
  -25.2475  -13.8220   20.5724 C   0  0  0  0  0  0
  -24.1783  -13.0448   20.9230 C   0  0  0  0  0  0
  -24.6391  -11.6931   20.8765 C   0  0  0  0  0  0
  -23.9073  -10.4299   21.0411 C   0  0  0  0  0  0
  -24.3622   -9.4213   21.9188 C   0  0  0  0  0  0
  -23.6298   -8.2246   22.0754 C   0  0  0  0  0  0
  -22.4280   -8.0283   21.3545 C   0  0  0  0  0  0
  -21.9919   -9.0259   20.4647 C   0  0  0  0  0  0
  -22.7246  -10.2140   20.3057 C   0  0  0  0  0  0
  -21.6854   -6.0738   22.5280 C   0  0  0  0  0  0
  -21.4015   -6.5642   23.8213 C   0  0  0  0  0  0
  -21.3662   -5.6795   24.9175 C   0  0  0  0  0  0
  -21.6044   -4.3057   24.7225 C   0  0  0  0  0  0
  -21.8820   -3.8148   23.4346 C   0  0  0  0  0  0
  -21.9192   -4.6965   22.3403 C   0  0  0  0  0  0
  -22.7802  -13.5220   21.1875 C   0  0  0  0  0  0
  -22.1658   -4.2152   21.0979 F   0  0  0  0  0  0
  -21.5630   -3.4539   25.7737 F   0  0  0  0  0  0
  -29.9596  -13.6035   20.3637 N   0  0  0  0  0  0
  -26.2902  -12.9447   20.3302 N   0  0  0  0  0  0
  -25.9327  -11.6578   20.5779 N   0  0  0  0  0  0
  -22.0448  -12.8209   22.0428 N   0  0  0  0  0  0
  -25.4156  -15.1943   20.4126 N   0  0  0  0  0  0
  -31.8453  -14.7862   20.1995 O   0  0  0  0  0  0
  -21.6642   -6.8882   21.4242 O   0  0  0  0  0  0
  -22.3490  -14.5525   20.6717 O   0  0  0  0  0  0
  -24.6362  -31.8513   23.1953 C   0  0  0  0  0  0
  -25.9170  -32.4730   23.8311 C   0  0  1  0  0  0
  -27.2157  -27.2168   20.1181 C   0  0  0  0  0  0
  -25.5949  -33.8534   24.2233 N   0  0  0  0  0  0
  -23.4340  -30.4749   21.5401 C   0  0  2  0  0  0
  -24.8790  -28.9183   20.1067 C   0  0  0  0  0  0
  -22.7525  -29.4587   22.4893 C   0  0  0  0  0  0
  -18.0296  -28.1391   22.8481 C   0  0  0  0  0  0
  -24.1491  -36.7270   23.2641 C   0  0  0  0  0  0
  -25.9847  -30.7494   21.3818 C   0  0  0  0  0  0
  -26.0539  -29.3697   20.7195 C   0  0  0  0  0  0
  -27.2201  -28.5303   20.7168 C   0  0  0  0  0  0
  -26.0059  -26.8416   19.4887 C   0  0  0  0  0  0
  -24.8630  -27.6642   19.4824 C   0  0  0  0  0  0
  -23.6532  -29.8110   20.1559 C   0  0  0  0  0  0
  -25.4120  -36.3053   24.0323 C   0  0  1  0  0  0
  -20.5903  -28.3708   23.1256 C   0  0  2  0  0  0
  -20.6783  -26.9421   22.5406 C   0  0  0  0  0  0
  -19.5757  -26.6384   21.5212 C   0  0  0  0  0  0
  -18.1938  -26.7932   22.1623 C   0  0  0  0  0  0
  -19.1551  -28.8867   23.2862 C   0  0  0  0  0  0
  -18.9470  -30.1466   23.8884 C   0  0  0  0  0  0
  -17.6468  -30.6590   24.0561 C   0  0  0  0  0  0
  -25.9066  -34.9426   23.5082 C   0  0  0  0  0  0
  -16.5358  -29.9085   23.6335 C   0  0  0  0  0  0
  -16.7281  -28.6503   23.0355 C   0  0  0  0  0  0
  -26.4519  -31.6570   25.0722 C   0  0  0  0  0  0
  -25.3726  -31.3734   26.1430 C   0  0  0  0  0  0
  -27.0377  -30.2977   24.6248 C   0  0  0  0  0  0
  -27.6061  -32.4322   25.7502 C   0  0  0  0  0  0
  -27.5578  -37.1791   24.8464 C   0  0  0  0  0  0
  -21.4227  -29.3047   22.3638 N   0  0  0  0  0  0
  -26.4288  -37.3759   23.9410 N   0  0  0  0  0  0
  -24.7045  -31.0441   22.0950 N   0  0  0  0  0  0
  -23.4205  -28.8126   23.3008 O   0  0  0  0  0  0
  -28.3013  -26.2976   20.2172 O   0  0  0  0  0  0
  -26.5640  -34.8910   22.4654 O   0  0  0  0  0  0
  -23.5502  -32.1357   23.7226 O   0  0  0  0  0  0
  -27.5979  -22.6569   20.5023 C   0  0  0  0  0  0
  -27.8162  -21.2406   20.6656 C   0  0  0  0  0  0
  -28.6344  -23.5050   20.0146 C   0  0  0  0  0  0
  -29.0695  -20.6432   20.3328 C   0  0  0  0  0  0
  -30.6223  -18.5935   19.9463 C   0  0  0  0  0  0
  -28.4090  -18.1595   20.8783 C   0  0  0  0  0  0
  -30.4828  -17.1171   19.3770 C   0  0  0  0  0  0
  -29.0112  -16.7097   21.2549 C   0  0  0  0  0  0
  -28.3936  -25.0003   19.4307 C   0  0  0  0  0  0
  -29.8268  -22.8699   19.7428 N   0  0  0  0  0  0
  -30.0338  -21.5241   19.9024 N   0  0  0  0  0  0
  -29.3589  -19.2014   20.4064 N   0  0  0  0  0  0
  -29.9626  -16.0504   20.3005 N   0  0  0  0  0  0
  -31.4599  -12.6218   19.1608 H   0  0  0  0  0  0
  -30.3748  -11.5443   19.9876 H   0  0  0  0  0  0
  -29.7952  -11.7231   17.5396 H   0  0  0  0  0  0
  -29.6181  -13.4541   17.6948 H   0  0  0  0  0  0
  -27.9007  -11.2838   18.9328 H   0  0  0  0  0  0
  -27.3709  -12.5025   17.8042 H   0  0  0  0  0  0
  -27.6116  -14.2587   19.4473 H   0  0  0  0  0  0
  -28.7487  -12.2270   21.4236 H   0  0  0  0  0  0
  -28.4145  -13.8954   21.7853 H   0  0  0  0  0  0
  -25.2762   -9.5688   22.4774 H   0  0  0  0  0  0
  -24.0007   -7.4635   22.7473 H   0  0  0  0  0  0
  -21.0850   -8.8772   19.8953 H   0  0  0  0  0  0
  -22.3696  -10.9680   19.6172 H   0  0  0  0  0  0
  -21.2007   -7.6150   23.9717 H   0  0  0  0  0  0
  -21.1485   -6.0524   25.9079 H   0  0  0  0  0  0
  -22.0597   -2.7610   23.2843 H   0  0  0  0  0  0
  -22.4059  -11.9871   22.4820 H   0  0  0  0  0  0
  -21.1067  -13.1238   22.2629 H   0  0  0  0  0  0
  -24.6468  -15.8472   20.5170 H   0  0  0  0  0  0
  -26.2618  -15.6282   20.0678 H   0  0  0  0  0  0
  -26.7234  -32.5356   23.1043 H   0  0  0  0  0  0
  -25.0087  -33.9660   25.0373 H   0  0  0  0  0  0
  -22.7326  -31.2991   21.3938 H   0  0  0  0  0  0
  -23.3758  -35.9596   23.3289 H   0  0  0  0  0  0
  -24.3580  -36.8910   22.2057 H   0  0  0  0  0  0
  -23.7239  -37.6464   23.6679 H   0  0  0  0  0  0
  -26.1321  -31.5096   20.6135 H   0  0  0  0  0  0
  -26.8591  -30.7947   22.0198 H   0  0  0  0  0  0
  -28.1162  -28.8699   21.2172 H   0  0  0  0  0  0
  -25.8725  -25.8754   19.0324 H   0  0  0  0  0  0
  -23.9586  -27.3071   19.0087 H   0  0  0  0  0  0
  -23.7818  -30.5886   19.4019 H   0  0  0  0  0  0
  -22.7693  -29.2495   19.8486 H   0  0  0  0  0  0
  -25.1303  -36.1889   25.0816 H   0  0  0  0  0  0
  -20.9996  -28.3291   24.1376 H   0  0  0  0  0  0
  -20.5681  -26.2321   23.3615 H   0  0  0  0  0  0
  -21.6649  -26.7439   22.1199 H   0  0  0  0  0  0
  -19.6918  -25.6291   21.1250 H   0  0  0  0  0  0
  -19.6695  -27.3188   20.6735 H   0  0  0  0  0  0
  -17.4208  -26.6679   21.4025 H   0  0  0  0  0  0
  -18.0338  -26.0076   22.9022 H   0  0  0  0  0  0
  -19.7945  -30.7286   24.2247 H   0  0  0  0  0  0
  -17.5021  -31.6270   24.5164 H   0  0  0  0  0  0
  -15.5358  -30.2984   23.7666 H   0  0  0  0  0  0
  -15.8680  -28.0819   22.7080 H   0  0  0  0  0  0
  -24.5910  -30.7075   25.7754 H   0  0  0  0  0  0
  -24.8910  -32.2907   26.4824 H   0  0  0  0  0  0
  -25.8029  -30.8930   27.0226 H   0  0  0  0  0  0
  -26.2978  -29.6707   24.1259 H   0  0  0  0  0  0
  -27.4024  -29.7261   25.4792 H   0  0  0  0  0  0
  -27.8871  -30.4235   23.9529 H   0  0  0  0  0  0
  -27.2660  -33.3632   26.2049 H   0  0  0  0  0  0
  -28.3890  -32.6864   25.0344 H   0  0  0  0  0  0
  -28.0708  -31.8466   26.5445 H   0  0  0  0  0  0
  -28.2585  -38.0098   24.7520 H   0  0  0  0  0  0
  -28.1087  -36.2629   24.6279 H   0  0  0  0  0  0
  -27.2298  -37.1422   25.8867 H   0  0  0  0  0  0
  -20.9420  -29.8768   21.6836 H   0  0  0  0  0  0
  -26.0160  -38.2829   24.1416 H   0  0  0  0  0  0
  -26.6179  -23.0724   20.6850 H   0  0  0  0  0  0
  -27.0001  -20.6218   21.0062 H   0  0  0  0  0  0
  -31.0566  -19.2226   19.1678 H   0  0  0  0  0  0
  -31.3347  -18.6042   20.7724 H   0  0  0  0  0  0
  -27.8693  -18.5451   21.7445 H   0  0  0  0  0  0
  -27.6580  -18.0322   20.0971 H   0  0  0  0  0  0
  -31.4541  -16.8375   18.9667 H   0  0  0  0  0  0
  -29.8197  -17.1371   18.5113 H   0  0  0  0  0  0
  -28.1692  -16.0430   21.4315 H   0  0  0  0  0  0
  -29.5277  -16.7889   22.2126 H   0  0  0  0  0  0
  -27.6026  -24.9050   18.6944 H   0  0  0  0  0  0
  -29.2625  -25.1777   18.7967 H   0  0  0  0  0  0
  1 25  1  0  0  0
  1 30  2  0  0  0
  1 83  1  0  0  0
  2  3  1  0  0  0
  2 25  1  0  0  0
  2 84  1  0  0  0
  2 85  1  0  0  0
  3  4  1  0  0  0
  3 86  1  0  0  0
  3 87  1  0  0  0
  4  5  1  0  0  0
  4 88  1  0  0  0
  4 89  1  0  0  0
  5  6  1  0  0  0
  5 26  1  0  0  0
  5 90  1  0  0  0
  6 25  1  0  0  0
  6 91  1  0  0  0
  6 92  1  0  0  0
  7  8  2  0  0  0
  7 26  1  0  0  0
  7 29  1  0  0  0
  8  9  1  0  0  0
  8 22  1  0  0  0
  9 10  1  0  0  0
  9 27  2  0  0  0
 10 11  2  0  0  0
 10 15  1  0  0  0
 11 12  1  0  0  0
 11 93  1  0  0  0
 12 13  2  0  0  0
 12 94  1  0  0  0
 13 14  1  0  0  0
 13 31  1  0  0  0
 14 15  2  0  0  0
 14 95  1  0  0  0
 15 96  1  0  0  0
 16 17  2  0  0  0
 16 21  1  0  0  0
 16 31  1  0  0  0
 17 18  1  0  0  0
 17 97  1  0  0  0
 18 19  2  0  0  0
 18 98  1  0  0  0
 19 20  1  0  0  0
 19 24  1  0  0  0
 20 21  2  0  0  0
 20 99  1  0  0  0
 21 23  1  0  0  0
 22 28  1  0  0  0
 22 32  2  0  0  0
 26 27  1  0  0  0
 28100  1  0  0  0
 28101  1  0  0  0
 29102  1  0  0  0
 29103  1  0  0  0
 33 34  1  0  0  0
 33 66  1  0  0  0
 33 70  2  0  0  0
 34 36  1  0  0  0
 34 59  1  0  0  0
 34104  1  0  0  0
 35 44  2  0  0  0
 35 45  1  0  0  0
 35 68  1  0  0  0
 36 56  1  0  0  0
 36105  1  0  0  0
 37 39  1  0  0  0
 37 47  1  0  0  0
 37 66  1  0  0  0
 37106  1  0  0  0
 38 43  2  0  0  0
 38 46  1  0  0  0
 38 47  1  0  0  0
 39 64  1  0  0  0
 39 67  2  0  0  0
 40 52  1  0  0  0
 40 53  2  0  0  0
 40 58  1  0  0  0
 41107  1  0  0  0
 41108  1  0  0  0
 41109  1  0  0  0
 41 48  1  0  0  0
 42 43  1  0  0  0
 42 66  1  0  0  0
 42110  1  0  0  0
 42111  1  0  0  0
 43 44  1  0  0  0
 44112  1  0  0  0
 45 46  2  0  0  0
 45113  1  0  0  0
 46114  1  0  0  0
 47115  1  0  0  0
 47116  1  0  0  0
 48 56  1  0  0  0
 48 65  1  0  0  0
 48117  1  0  0  0
 49 50  1  0  0  0
 49 53  1  0  0  0
 49 64  1  0  0  0
 49118  1  0  0  0
 50 51  1  0  0  0
 50119  1  0  0  0
 50120  1  0  0  0
 51 52  1  0  0  0
 51121  1  0  0  0
 51122  1  0  0  0
 52123  1  0  0  0
 52124  1  0  0  0
 53 54  1  0  0  0
 54 55  2  0  0  0
 54125  1  0  0  0
 55 57  1  0  0  0
 55126  1  0  0  0
 56 69  2  0  0  0
 57 58  2  0  0  0
 57127  1  0  0  0
 58128  1  0  0  0
 59 60  1  0  0  0
 59 61  1  0  0  0
 59 62  1  0  0  0
 60129  1  0  0  0
 60130  1  0  0  0
 60131  1  0  0  0
 61132  1  0  0  0
 61133  1  0  0  0
 61134  1  0  0  0
 62135  1  0  0  0
 62136  1  0  0  0
 62137  1  0  0  0
 63 65  1  0  0  0
 63138  1  0  0  0
 63139  1  0  0  0
 63140  1  0  0  0
 64141  1  0  0  0
 65142  1  0  0  0
 68 79  1  0  0  0
 71 72  2  0  0  0
 71 73  1  0  0  0
 71143  1  0  0  0
 72 74  1  0  0  0
 72144  1  0  0  0
 73 79  1  0  0  0
 73 80  2  0  0  0
 74 81  2  0  0  0
 74 82  1  0  0  0
 75 77  1  0  0  0
 75 82  1  0  0  0
 75145  1  0  0  0
 75146  1  0  0  0
 76 78  1  0  0  0
 76 82  1  0  0  0
 76147  1  0  0  0
 76148  1  0  0  0
 77 83  1  0  0  0
 77149  1  0  0  0
 77150  1  0  0  0
 78 83  1  0  0  0
 78151  1  0  0  0
 78152  1  0  0  0
 79153  1  0  0  0
 79154  1  0  0  0
 80 81  1  0  0  0
M  ISO  4   1 100  68 101  79 101  83 100
M  END
> <chiral flag>
0

> <version>
0

> <s_m_source_file>
/data/baiqing/PycharmProjects/Reinvent-master-3.2/result/LINK_invent/BTK/process_docking_weight1_custom_sum_contain_oxygen_bond_distance_aromatic_linkinvent_7_9_3/rearranged_h_0177.sdf

> <i_m_source_file_index>
52

> <r_mmod_Potential_Energy-OPLS-2005>
481.995727539062

> <r_mmod_Stretch_Energy-OPLS-2005>
150.077606201172

> <r_mmod_Bend_Energy-OPLS-2005>
240.95768737793

> <r_mmod_Torsional_Energy-OPLS-2005>
340.685638427734

> <r_mmod_Improper_Torsional_Energy-OPLS-2005>
19.0099983215332

> <r_mmod_Van_der_Waal_Energy-OPLS-2005>
152.30696105957

> <r_mmod_Electrostatic_Energy-OPLS-2005>
-293.326721191406

> <r_mmod_Solvation_Energy-OPLS-2005>
-245.139663696289

> <b_mmod_Minimization_Converged-OPLS-2005>
0

> <r_mmod_RMS_Derivative-OPLS-2005>
0.454400688409805

$$$$
52
                    3D
 Structure written by MMmdl.
152161  0  0  1  0            999 V2000
  -30.5520  -14.9625   20.4406 C   0  0  0  0  0  0
  -30.4360  -12.6045   19.4956 C   0  0  0  0  0  0
  -29.5191  -12.5323   18.2542 C   0  0  0  0  0  0
  -28.0544  -12.3150   18.6761 C   0  0  0  0  0  0
  -27.6280  -13.2528   19.8363 C   0  0  2  0  0  0
  -28.6697  -13.2948   20.9729 C   0  0  0  0  0  0
  -25.2466  -13.8225   20.5722 C   0  0  0  0  0  0
  -24.1777  -13.0443   20.9216 C   0  0  0  0  0  0
  -24.6394  -11.6929   20.8746 C   0  0  0  0  0  0
  -23.9078  -10.4295   21.0400 C   0  0  0  0  0  0
  -24.3627   -9.4212   21.9182 C   0  0  0  0  0  0
  -23.6302   -8.2249   22.0757 C   0  0  0  0  0  0
  -22.4283   -8.0284   21.3550 C   0  0  0  0  0  0
  -21.9918   -9.0257   20.4652 C   0  0  0  0  0  0
  -22.7249  -10.2135   20.3057 C   0  0  0  0  0  0
  -21.6856   -6.0737   22.5282 C   0  0  0  0  0  0
  -21.4016   -6.5644   23.8213 C   0  0  0  0  0  0
  -21.3660   -5.6795   24.9176 C   0  0  0  0  0  0
  -21.6039   -4.3056   24.7227 C   0  0  0  0  0  0
  -21.8819   -3.8149   23.4348 C   0  0  0  0  0  0
  -21.9196   -4.6965   22.3405 C   0  0  0  0  0  0
  -22.7796  -13.5211   21.1871 C   0  0  0  0  0  0
  -22.1667   -4.2157   21.0977 F   0  0  0  0  0  0
  -21.5629   -3.4535   25.7735 F   0  0  0  0  0  0
  -29.9405  -13.7098   20.3672 N   0  0  0  0  0  0
  -26.2892  -12.9465   20.3258 N   0  0  0  0  0  0
  -25.9333  -11.6589   20.5743 N   0  0  0  0  0  0
  -22.0447  -12.8201   22.0432 N   0  0  0  0  0  0
  -25.4138  -15.1956   20.4182 N   0  0  0  0  0  0
  -31.7533  -15.0036   20.1463 O   0  0  0  0  0  0
  -21.6645   -6.8882   21.4244 O   0  0  0  0  0  0
  -22.3474  -14.5512   20.6712 O   0  0  0  0  0  0
  -24.6460  -31.8420   23.1866 C   0  0  0  0  0  0
  -25.9222  -32.4689   23.8263 C   0  0  1  0  0  0
  -27.2128  -27.1132   20.1564 C   0  0  0  0  0  0
  -25.5963  -33.8498   24.2179 N   0  0  0  0  0  0
  -23.4498  -30.4619   21.5326 C   0  0  2  0  0  0
  -24.8981  -28.8843   20.1106 C   0  0  0  0  0  0
  -22.7573  -29.4549   22.4854 C   0  0  0  0  0  0
  -18.0307  -28.1395   22.8479 C   0  0  0  0  0  0
  -24.1489  -36.7251   23.2644 C   0  0  0  0  0  0
  -26.0073  -30.7098   21.3872 C   0  0  0  0  0  0
  -26.0773  -29.3189   20.7291 C   0  0  0  0  0  0
  -27.2362  -28.4507   20.7316 C   0  0  0  0  0  0
  -26.0058  -26.7840   19.5014 C   0  0  0  0  0  0
  -24.8769  -27.6315   19.4801 C   0  0  0  0  0  0
  -23.6771  -29.7906   20.1522 C   0  0  0  0  0  0
  -25.4121  -36.3026   24.0315 C   0  0  1  0  0  0
  -20.5921  -28.3729   23.1227 C   0  0  2  0  0  0
  -20.6793  -26.9431   22.5401 C   0  0  0  0  0  0
  -19.5762  -26.6381   21.5211 C   0  0  0  0  0  0
  -18.1945  -26.7934   22.1624 C   0  0  0  0  0  0
  -19.1563  -28.8878   23.2847 C   0  0  0  0  0  0
  -18.9481  -30.1475   23.8870 C   0  0  0  0  0  0
  -17.6477  -30.6592   24.0560 C   0  0  0  0  0  0
  -25.9079  -34.9404   23.5056 C   0  0  0  0  0  0
  -16.5369  -29.9083   23.6337 C   0  0  0  0  0  0
  -16.7292  -28.6504   23.0357 C   0  0  0  0  0  0
  -26.4538  -31.6564   25.0714 C   0  0  0  0  0  0
  -25.3714  -31.3756   26.1405 C   0  0  0  0  0  0
  -27.0418  -30.2958   24.6311 C   0  0  0  0  0  0
  -27.6058  -32.4343   25.7505 C   0  0  0  0  0  0
  -27.5571  -37.1783   24.8471 C   0  0  0  0  0  0
  -21.4263  -29.3058   22.3604 N   0  0  0  0  0  0
  -26.4282  -37.3740   23.9412 N   0  0  0  0  0  0
  -24.7212  -31.0263   22.0905 N   0  0  0  0  0  0
  -23.4206  -28.8105   23.3022 O   0  0  0  0  0  0
  -28.2578  -26.1137   20.2272 O   0  0  0  0  0  0
  -26.5662  -34.8907   22.4635 O   0  0  0  0  0  0
  -23.5571  -32.1311   23.7072 O   0  0  0  0  0  0
  -29.6074  -20.4742   20.3930 C   0  0  0  0  0  0
  -27.3334  -21.2056   20.3967 C   0  0  0  0  0  0
  -28.6765  -21.6361   20.3707 C   0  0  0  0  0  0
  -29.2084  -19.0394   20.4349 C   0  0  0  0  0  0
  -27.0039  -19.8298   20.4440 C   0  0  0  0  0  0
  -30.2460  -16.9975   21.7973 C   0  0  0  0  0  0
  -30.1517  -17.6769   20.4739 C   0  0  2  0  0  0
  -29.0281  -23.2645   20.3779 C   0  0  0  0  0  0
  -27.9665  -24.5715   20.1368 C   0  0  0  0  0  0
  -27.8776  -18.7979   20.4556 N   0  0  0  0  0  0
  -29.8237  -16.1632   20.7080 N   0  0  0  0  0  0
  -25.6756  -19.4470   20.4842 N   0  0  0  0  0  0
  -31.4688  -12.7613   19.1807 H   0  0  0  0  0  0
  -30.4313  -11.6573   20.0370 H   0  0  0  0  0  0
  -29.8429  -11.7286   17.5916 H   0  0  0  0  0  0
  -29.6038  -13.4566   17.6807 H   0  0  0  0  0  0
  -27.9562  -11.2751   18.9898 H   0  0  0  0  0  0
  -27.3885  -12.4395   17.8216 H   0  0  0  0  0  0
  -27.5875  -14.2536   19.4039 H   0  0  0  0  0  0
  -28.7615  -12.3244   21.4632 H   0  0  0  0  0  0
  -28.3655  -14.0066   21.7419 H   0  0  0  0  0  0
  -25.2772   -9.5692   22.4756 H   0  0  0  0  0  0
  -24.0017   -7.4638   22.7473 H   0  0  0  0  0  0
  -21.0852   -8.8768   19.8957 H   0  0  0  0  0  0
  -22.3701  -10.9670   19.6167 H   0  0  0  0  0  0
  -21.2008   -7.6149   23.9722 H   0  0  0  0  0  0
  -21.1485   -6.0522   25.9079 H   0  0  0  0  0  0
  -22.0597   -2.7614   23.2841 H   0  0  0  0  0  0
  -22.4071  -11.9879   22.4837 H   0  0  0  0  0  0
  -21.1062  -13.1221   22.2628 H   0  0  0  0  0  0
  -24.6443  -15.8458   20.5299 H   0  0  0  0  0  0
  -26.2772  -15.6446   20.1354 H   0  0  0  0  0  0
  -26.7289  -32.5286   23.0994 H   0  0  0  0  0  0
  -25.0106  -33.9610   25.0322 H   0  0  0  0  0  0
  -22.7537  -31.2887   21.3777 H   0  0  0  0  0  0
  -23.3757  -35.9579   23.3300 H   0  0  0  0  0  0
  -24.3571  -36.8887   22.2060 H   0  0  0  0  0  0
  -23.7244  -37.6444   23.6686 H   0  0  0  0  0  0
  -26.1653  -31.4631   20.6145 H   0  0  0  0  0  0
  -26.8770  -30.7593   22.0312 H   0  0  0  0  0  0
  -28.1352  -28.7799   21.2350 H   0  0  0  0  0  0
  -25.8984  -25.8264   19.0151 H   0  0  0  0  0  0
  -23.9776  -27.2921   18.9847 H   0  0  0  0  0  0
  -23.8182  -30.5662   19.3984 H   0  0  0  0  0  0
  -22.7903  -29.2374   19.8385 H   0  0  0  0  0  0
  -25.1311  -36.1851   25.0806 H   0  0  0  0  0  0
  -21.0010  -28.3319   24.1346 H   0  0  0  0  0  0
  -20.5681  -26.2348   23.3624 H   0  0  0  0  0  0
  -21.6660  -26.7433   22.1201 H   0  0  0  0  0  0
  -19.6929  -25.6281   21.1263 H   0  0  0  0  0  0
  -19.6695  -27.3174   20.6724 H   0  0  0  0  0  0
  -17.4216  -26.6677   21.4029 H   0  0  0  0  0  0
  -18.0349  -26.0077   22.9021 H   0  0  0  0  0  0
  -19.7957  -30.7303   24.2224 H   0  0  0  0  0  0
  -17.5029  -31.6268   24.5169 H   0  0  0  0  0  0
  -15.5367  -30.2977   23.7671 H   0  0  0  0  0  0
  -15.8694  -28.0812   22.7080 H   0  0  0  0  0  0
  -24.5899  -30.7104   25.7721 H   0  0  0  0  0  0
  -24.8906  -32.2942   26.4775 H   0  0  0  0  0  0
  -25.7991  -30.8963   27.0218 H   0  0  0  0  0  0
  -26.3046  -29.6670   24.1312 H   0  0  0  0  0  0
  -27.4023  -29.7272   25.4893 H   0  0  0  0  0  0
  -27.8951  -30.4198   23.9642 H   0  0  0  0  0  0
  -27.2641  -33.3664   26.2018 H   0  0  0  0  0  0
  -28.3902  -32.6872   25.0360 H   0  0  0  0  0  0
  -28.0692  -31.8517   26.5477 H   0  0  0  0  0  0
  -28.2590  -38.0077   24.7505 H   0  0  0  0  0  0
  -28.1063  -36.2608   24.6312 H   0  0  0  0  0  0
  -27.2291  -37.1447   25.8873 H   0  0  0  0  0  0
  -20.9479  -29.8765   21.6775 H   0  0  0  0  0  0
  -26.0149  -38.2809   24.1405 H   0  0  0  0  0  0
  -30.6688  -20.6867   20.3875 H   0  0  0  0  0  0
  -26.5464  -21.9476   20.3938 H   0  0  0  0  0  0
  -31.2438  -16.8420   22.2054 H   0  0  0  0  0  0
  -29.4825  -17.2190   22.5405 H   0  0  0  0  0  0
  -31.0821  -17.8797   19.9469 H   0  0  0  0  0  0
  -29.8384  -23.3853   19.6593 H   0  0  0  0  0  0
  -29.4963  -23.4388   21.3462 H   0  0  0  0  0  0
  -27.1344  -24.4052   20.8223 H   0  0  0  0  0  0
  -27.5518  -24.4097   19.1427 H   0  0  0  0  0  0
  -24.9808  -20.1327   20.7561 H   0  0  0  0  0  0
  -25.4659  -18.5024   20.7818 H   0  0  0  0  0  0
  1 25  1  0  0  0
  1 30  2  0  0  0
  1 81  1  0  0  0
  2  3  1  0  0  0
  2 25  1  0  0  0
  2 83  1  0  0  0
  2 84  1  0  0  0
  3  4  1  0  0  0
  3 85  1  0  0  0
  3 86  1  0  0  0
  4  5  1  0  0  0
  4 87  1  0  0  0
  4 88  1  0  0  0
  5  6  1  0  0  0
  5 26  1  0  0  0
  5 89  1  0  0  0
  6 25  1  0  0  0
  6 90  1  0  0  0
  6 91  1  0  0  0
  7  8  2  0  0  0
  7 26  1  0  0  0
  7 29  1  0  0  0
  8  9  1  0  0  0
  8 22  1  0  0  0
  9 10  1  0  0  0
  9 27  2  0  0  0
 10 11  2  0  0  0
 10 15  1  0  0  0
 11 12  1  0  0  0
 11 92  1  0  0  0
 12 13  2  0  0  0
 12 93  1  0  0  0
 13 14  1  0  0  0
 13 31  1  0  0  0
 14 15  2  0  0  0
 14 94  1  0  0  0
 15 95  1  0  0  0
 16 17  2  0  0  0
 16 21  1  0  0  0
 16 31  1  0  0  0
 17 18  1  0  0  0
 17 96  1  0  0  0
 18 19  2  0  0  0
 18 97  1  0  0  0
 19 20  1  0  0  0
 19 24  1  0  0  0
 20 21  2  0  0  0
 20 98  1  0  0  0
 21 23  1  0  0  0
 22 28  1  0  0  0
 22 32  2  0  0  0
 26 27  1  0  0  0
 28 99  1  0  0  0
 28100  1  0  0  0
 29101  1  0  0  0
 29102  1  0  0  0
 33 34  1  0  0  0
 33 66  1  0  0  0
 33 70  2  0  0  0
 34 36  1  0  0  0
 34 59  1  0  0  0
 34103  1  0  0  0
 35 44  2  0  0  0
 35 45  1  0  0  0
 35 68  1  0  0  0
 36 56  1  0  0  0
 36104  1  0  0  0
 37 39  1  0  0  0
 37 47  1  0  0  0
 37 66  1  0  0  0
 37105  1  0  0  0
 38 43  2  0  0  0
 38 46  1  0  0  0
 38 47  1  0  0  0
 39 64  1  0  0  0
 39 67  2  0  0  0
 40 52  1  0  0  0
 40 53  2  0  0  0
 40 58  1  0  0  0
 41106  1  0  0  0
 41107  1  0  0  0
 41108  1  0  0  0
 41 48  1  0  0  0
 42 43  1  0  0  0
 42 66  1  0  0  0
 42109  1  0  0  0
 42110  1  0  0  0
 43 44  1  0  0  0
 44111  1  0  0  0
 45 46  2  0  0  0
 45112  1  0  0  0
 46113  1  0  0  0
 47114  1  0  0  0
 47115  1  0  0  0
 48 56  1  0  0  0
 48 65  1  0  0  0
 48116  1  0  0  0
 49 50  1  0  0  0
 49 53  1  0  0  0
 49 64  1  0  0  0
 49117  1  0  0  0
 50 51  1  0  0  0
 50118  1  0  0  0
 50119  1  0  0  0
 51 52  1  0  0  0
 51120  1  0  0  0
 51121  1  0  0  0
 52122  1  0  0  0
 52123  1  0  0  0
 53 54  1  0  0  0
 54 55  2  0  0  0
 54124  1  0  0  0
 55 57  1  0  0  0
 55125  1  0  0  0
 56 69  2  0  0  0
 57 58  2  0  0  0
 57126  1  0  0  0
 58127  1  0  0  0
 59 60  1  0  0  0
 59 61  1  0  0  0
 59 62  1  0  0  0
 60128  1  0  0  0
 60129  1  0  0  0
 60130  1  0  0  0
 61131  1  0  0  0
 61132  1  0  0  0
 61133  1  0  0  0
 62134  1  0  0  0
 62135  1  0  0  0
 62136  1  0  0  0
 63 65  1  0  0  0
 63137  1  0  0  0
 63138  1  0  0  0
 63139  1  0  0  0
 64140  1  0  0  0
 65141  1  0  0  0
 68 79  1  0  0  0
 71 73  2  0  0  0
 71 74  1  0  0  0
 71142  1  0  0  0
 72 73  1  0  0  0
 72 75  2  0  0  0
 72143  1  0  0  0
 73 78  1  0  0  0
 74 80  2  0  0  0
 74 77  1  0  0  0
 75 80  1  0  0  0
 75 82  1  0  0  0
 76 77  1  0  0  0
 76 81  1  0  0  0
 76144  1  0  0  0
 76145  1  0  0  0
 77 81  1  0  0  0
 77146  1  0  0  0
 78 79  1  0  0  0
 78147  1  0  0  0
 78148  1  0  0  0
 79149  1  0  0  0
 79150  1  0  0  0
 82151  1  0  0  0
 82152  1  0  0  0
M  ISO  4   1 100  68 101  79 101  81 100
M  END
> <chiral flag>
0

> <version>
0

> <s_m_source_file>
/data/baiqing/PycharmProjects/Reinvent-master-3.2/result/LINK_invent/BTK/process_docking_weight1_custom_sum_contain_oxygen_bond_distance_aromatic_linkinvent_7_9_3/rearranged_h_0177.sdf

> <i_m_source_file_index>
53

> <r_mmod_Potential_Energy-OPLS-2005>
296.471038818359

> <r_mmod_Stretch_Energy-OPLS-2005>
280.820678710938

> <r_mmod_Bend_Energy-OPLS-2005>
267.600280761719

> <r_mmod_Torsional_Energy-OPLS-2005>
283.934417724609

> <r_mmod_Improper_Torsional_Energy-OPLS-2005>
12.9797315597534

> <r_mmod_Van_der_Waal_Energy-OPLS-2005>
129.262817382812

> <r_mmod_Electrostatic_Energy-OPLS-2005>
-664.134399414062

> <r_mmod_Solvation_Energy-OPLS-2005>
-220.964233398438

> <b_mmod_Minimization_Converged-OPLS-2005>
0

> <r_mmod_RMS_Derivative-OPLS-2005>
1.04029202461243

$$$$
53
                    3D
 Structure written by MMmdl.
160169  0  0  1  0            999 V2000
  -30.6881  -14.5991   20.4918 C   0  0  0  0  0  0
  -30.4136  -12.3683   19.4555 C   0  0  0  0  0  0
  -29.4961  -12.4894   18.2227 C   0  0  0  0  0  0
  -28.0212  -12.3343   18.6395 C   0  0  0  0  0  0
  -27.6442  -13.2181   19.8591 C   0  0  2  0  0  0
  -28.6900  -13.1185   20.9911 C   0  0  0  0  0  0
  -25.2529  -13.8174   20.5717 C   0  0  0  0  0  0
  -24.1798  -13.0433   20.9199 C   0  0  0  0  0  0
  -24.6373  -11.6904   20.8756 C   0  0  0  0  0  0
  -23.9054  -10.4285   21.0415 C   0  0  0  0  0  0
  -24.3612   -9.4199   21.9188 C   0  0  0  0  0  0
  -23.6288   -8.2235   22.0757 C   0  0  0  0  0  0
  -22.4269   -8.0280   21.3548 C   0  0  0  0  0  0
  -21.9900   -9.0253   20.4648 C   0  0  0  0  0  0
  -22.7229  -10.2132   20.3060 C   0  0  0  0  0  0
  -21.6847   -6.0735   22.5279 C   0  0  0  0  0  0
  -21.4010   -6.5638   23.8213 C   0  0  0  0  0  0
  -21.3659   -5.6791   24.9175 C   0  0  0  0  0  0
  -21.6046   -4.3055   24.7224 C   0  0  0  0  0  0
  -21.8817   -3.8146   23.4344 C   0  0  0  0  0  0
  -21.9190   -4.6964   22.3401 C   0  0  0  0  0  0
  -22.7822  -13.5230   21.1848 C   0  0  0  0  0  0
  -22.1659   -4.2152   21.0978 F   0  0  0  0  0  0
  -21.5629   -3.4539   25.7736 F   0  0  0  0  0  0
  -30.0036  -13.4175   20.4093 N   0  0  0  0  0  0
  -26.2946  -12.9351   20.3343 N   0  0  0  0  0  0
  -25.9300  -11.6505   20.5782 N   0  0  0  0  0  0
  -22.0459  -12.8237   22.0409 N   0  0  0  0  0  0
  -25.4257  -15.1897   20.4161 N   0  0  0  0  0  0
  -31.8684  -14.6690   20.1339 O   0  0  0  0  0  0
  -21.6633   -6.8879   21.4243 O   0  0  0  0  0  0
  -22.3515  -14.5539   20.6695 O   0  0  0  0  0  0
  -24.6210  -31.8621   23.2037 C   0  0  0  0  0  0
  -25.9080  -32.4791   23.8350 C   0  0  1  0  0  0
  -27.2270  -27.3556   20.1076 C   0  0  0  0  0  0
  -25.5914  -33.8592   24.2284 N   0  0  0  0  0  0
  -23.4118  -30.4843   21.5456 C   0  0  2  0  0  0
  -24.8563  -28.9371   20.1106 C   0  0  0  0  0  0
  -22.7439  -29.4635   22.4960 C   0  0  0  0  0  0
  -18.0280  -28.1380   22.8488 C   0  0  0  0  0  0
  -24.1488  -36.7298   23.2639 C   0  0  0  0  0  0
  -25.9469  -30.8027   21.3671 C   0  0  0  0  0  0
  -26.0194  -29.4311   20.7123 C   0  0  0  0  0  0
  -27.2029  -28.6476   20.7062 C   0  0  0  0  0  0
  -26.0409  -26.8921   19.4954 C   0  0  0  0  0  0
  -24.8665  -27.6716   19.4981 C   0  0  0  0  0  0
  -23.6226  -29.8142   20.1609 C   0  0  0  0  0  0
  -25.4114  -36.3093   24.0332 C   0  0  1  0  0  0
  -20.5873  -28.3677   23.1304 C   0  0  2  0  0  0
  -20.6769  -26.9408   22.5416 C   0  0  0  0  0  0
  -19.5749  -26.6386   21.5213 C   0  0  0  0  0  0
  -18.1925  -26.7927   22.1622 C   0  0  0  0  0  0
  -19.1528  -28.8847   23.2889 C   0  0  0  0  0  0
  -18.9456  -30.1448   23.8905 C   0  0  0  0  0  0
  -17.6456  -30.6586   24.0567 C   0  0  0  0  0  0
  -25.9047  -34.9461   23.5111 C   0  0  0  0  0  0
  -16.5349  -29.9086   23.6329 C   0  0  0  0  0  0
  -16.7266  -28.6504   23.0350 C   0  0  0  0  0  0
  -26.4482  -31.6595   25.0708 C   0  0  0  0  0  0
  -25.3733  -31.3719   26.1449 C   0  0  0  0  0  0
  -27.0322  -30.3031   24.6131 C   0  0  0  0  0  0
  -27.6048  -32.4325   25.7472 C   0  0  0  0  0  0
  -27.5580  -37.1805   24.8466 C   0  0  0  0  0  0
  -21.4158  -29.3035   22.3700 N   0  0  0  0  0  0
  -26.4295  -37.3783   23.9407 N   0  0  0  0  0  0
  -24.6787  -31.0661   22.0965 N   0  0  0  0  0  0
  -23.4184  -28.8184   23.3029 O   0  0  0  0  0  0
  -28.3893  -26.5908   20.1691 O   0  0  0  0  0  0
  -26.5613  -34.8924   22.4674 O   0  0  0  0  0  0
  -23.5390  -32.1404   23.7395 O   0  0  0  0  0  0
  -29.9112  -17.9649   22.1301 C   0  0  0  0  0  0
  -28.7370  -17.8834   20.0101 C   0  0  0  0  0  0
  -30.5489  -19.7350   20.2759 C   0  0  0  0  0  0
  -30.6765  -16.6562   21.7713 C   0  0  0  0  0  0
  -29.5278  -16.5759   19.6506 C   0  0  0  0  0  0
  -29.4230  -20.3812   21.0554 C   0  0  2  0  0  0
  -29.5309  -18.8204   20.9197 C   0  0  0  0  0  0
  -28.4356  -21.3811   20.3789 C   0  0  0  0  0  0
  -28.0760  -23.9745   20.3481 C   0  0  0  0  0  0
  -28.5208  -25.2691   19.5522 C   0  0  0  0  0  0
  -30.0046  -15.7559   20.8006 N   0  0  0  0  0  0
  -28.9888  -22.7738   20.1809 N   0  3  0  0  0  0
  -31.4593  -12.4542   19.1555 H   0  0  0  0  0  0
  -30.3173  -11.3836   19.9150 H   0  0  0  0  0  0
  -29.7570  -11.7320   17.4823 H   0  0  0  0  0  0
  -29.6464  -13.4558   17.7392 H   0  0  0  0  0  0
  -27.8595  -11.2833   18.8823 H   0  0  0  0  0  0
  -27.3654  -12.5544   17.7964 H   0  0  0  0  0  0
  -27.6439  -14.2442   19.4997 H   0  0  0  0  0  0
  -28.6920  -12.1212   21.4333 H   0  0  0  0  0  0
  -28.4489  -13.8129   21.7978 H   0  0  0  0  0  0
  -25.2758   -9.5676   22.4761 H   0  0  0  0  0  0
  -23.9998   -7.4623   22.7473 H   0  0  0  0  0  0
  -21.0832   -8.8780   19.8953 H   0  0  0  0  0  0
  -22.3694  -10.9678   19.6174 H   0  0  0  0  0  0
  -21.2007   -7.6146   23.9722 H   0  0  0  0  0  0
  -21.1481   -6.0517   25.9079 H   0  0  0  0  0  0
  -22.0597   -2.7609   23.2841 H   0  0  0  0  0  0
  -22.4070  -11.9914   22.4825 H   0  0  0  0  0  0
  -21.1077  -13.1276   22.2600 H   0  0  0  0  0  0
  -24.6646  -15.8486   20.5401 H   0  0  0  0  0  0
  -26.2920  -15.6308   20.1345 H   0  0  0  0  0  0
  -26.7144  -32.5467   23.1096 H   0  0  0  0  0  0
  -25.0071  -33.9739   25.0437 H   0  0  0  0  0  0
  -22.7039  -31.3035   21.4031 H   0  0  0  0  0  0
  -23.3753  -35.9628   23.3312 H   0  0  0  0  0  0
  -24.3577  -36.8907   22.2050 H   0  0  0  0  0  0
  -23.7242  -37.6503   23.6653 H   0  0  0  0  0  0
  -26.0712  -31.5658   20.5976 H   0  0  0  0  0  0
  -26.8305  -30.8537   21.9917 H   0  0  0  0  0  0
  -28.0986  -29.0239   21.1807 H   0  0  0  0  0  0
  -25.9942  -25.9192   19.0293 H   0  0  0  0  0  0
  -23.9697  -27.2849   19.0331 H   0  0  0  0  0  0
  -23.7377  -30.5886   19.4015 H   0  0  0  0  0  0
  -22.7432  -29.2403   19.8630 H   0  0  0  0  0  0
  -25.1296  -36.1949   25.0826 H   0  0  0  0  0  0
  -20.9961  -28.3249   24.1427 H   0  0  0  0  0  0
  -20.5675  -26.2285   23.3606 H   0  0  0  0  0  0
  -21.6639  -26.7448   22.1211 H   0  0  0  0  0  0
  -19.6913  -25.6298   21.1239 H   0  0  0  0  0  0
  -19.6692  -27.3200   20.6745 H   0  0  0  0  0  0
  -17.4197  -26.6676   21.4020 H   0  0  0  0  0  0
  -18.0325  -26.0064   22.9015 H   0  0  0  0  0  0
  -19.7932  -30.7260   24.2281 H   0  0  0  0  0  0
  -17.5015  -31.6270   24.5161 H   0  0  0  0  0  0
  -15.5350  -30.2994   23.7650 H   0  0  0  0  0  0
  -15.8664  -28.0828   22.7063 H   0  0  0  0  0  0
  -24.5902  -30.7073   25.7783 H   0  0  0  0  0  0
  -24.8928  -32.2879   26.4893 H   0  0  0  0  0  0
  -25.8072  -30.8885   27.0211 H   0  0  0  0  0  0
  -26.2881  -29.6782   24.1179 H   0  0  0  0  0  0
  -27.4068  -29.7282   25.4610 H   0  0  0  0  0  0
  -27.8726  -30.4336   23.9310 H   0  0  0  0  0  0
  -27.2665  -33.3620   26.2061 H   0  0  0  0  0  0
  -28.3847  -32.6897   25.0293 H   0  0  0  0  0  0
  -28.0730  -31.8448   26.5376 H   0  0  0  0  0  0
  -28.2610  -38.0091   24.7509 H   0  0  0  0  0  0
  -28.1067  -36.2626   24.6303 H   0  0  0  0  0  0
  -27.2297  -37.1467   25.8869 H   0  0  0  0  0  0
  -20.9329  -29.8749   21.6908 H   0  0  0  0  0  0
  -26.0184  -38.2862   24.1400 H   0  0  0  0  0  0
  -30.5224  -18.5605   22.8101 H   0  0  0  0  0  0
  -29.0032  -17.7183   22.6830 H   0  0  0  0  0  0
  -27.7988  -17.6255   20.5038 H   0  0  0  0  0  0
  -28.4638  -18.4123   19.0961 H   0  0  0  0  0  0
  -31.5447  -19.7691   20.7140 H   0  0  0  0  0  0
  -30.5255  -19.8259   19.1911 H   0  0  0  0  0  0
  -30.8682  -16.1004   22.6910 H   0  0  0  0  0  0
  -31.6579  -16.9348   21.3811 H   0  0  0  0  0  0
  -30.3959  -16.8563   19.0501 H   0  0  0  0  0  0
  -28.9130  -15.9640   18.9917 H   0  0  0  0  0  0
  -29.7045  -20.7431   22.0426 H   0  0  0  0  0  0
  -27.5468  -21.4382   21.0082 H   0  0  0  0  0  0
  -28.1084  -20.9820   19.4183 H   0  0  0  0  0  0
  -27.0624  -23.7121   20.0438 H   0  0  0  0  0  0
  -28.0223  -24.2045   21.4123 H   0  0  0  0  0  0
  -28.0853  -25.2655   18.5524 H   0  0  0  0  0  0
  -29.5918  -25.1811   19.3697 H   0  0  0  0  0  0
  -29.3814  -22.7923   19.2523 H   0  0  0  0  0  0
  -29.7624  -22.8901   20.8167 H   0  0  0  0  0  0
  1 25  1  0  0  0
  1 30  2  0  0  0
  1 81  1  0  0  0
  2  3  1  0  0  0
  2 25  1  0  0  0
  2 83  1  0  0  0
  2 84  1  0  0  0
  3  4  1  0  0  0
  3 85  1  0  0  0
  3 86  1  0  0  0
  4  5  1  0  0  0
  4 87  1  0  0  0
  4 88  1  0  0  0
  5  6  1  0  0  0
  5 26  1  0  0  0
  5 89  1  0  0  0
  6 25  1  0  0  0
  6 90  1  0  0  0
  6 91  1  0  0  0
  7  8  2  0  0  0
  7 26  1  0  0  0
  7 29  1  0  0  0
  8  9  1  0  0  0
  8 22  1  0  0  0
  9 10  1  0  0  0
  9 27  2  0  0  0
 10 11  2  0  0  0
 10 15  1  0  0  0
 11 12  1  0  0  0
 11 92  1  0  0  0
 12 13  2  0  0  0
 12 93  1  0  0  0
 13 14  1  0  0  0
 13 31  1  0  0  0
 14 15  2  0  0  0
 14 94  1  0  0  0
 15 95  1  0  0  0
 16 17  2  0  0  0
 16 21  1  0  0  0
 16 31  1  0  0  0
 17 18  1  0  0  0
 17 96  1  0  0  0
 18 19  2  0  0  0
 18 97  1  0  0  0
 19 20  1  0  0  0
 19 24  1  0  0  0
 20 21  2  0  0  0
 20 98  1  0  0  0
 21 23  1  0  0  0
 22 28  1  0  0  0
 22 32  2  0  0  0
 26 27  1  0  0  0
 28 99  1  0  0  0
 28100  1  0  0  0
 29101  1  0  0  0
 29102  1  0  0  0
 33 34  1  0  0  0
 33 66  1  0  0  0
 33 70  2  0  0  0
 34 36  1  0  0  0
 34 59  1  0  0  0
 34103  1  0  0  0
 35 44  2  0  0  0
 35 45  1  0  0  0
 35 68  1  0  0  0
 36 56  1  0  0  0
 36104  1  0  0  0
 37 39  1  0  0  0
 37 47  1  0  0  0
 37 66  1  0  0  0
 37105  1  0  0  0
 38 43  2  0  0  0
 38 46  1  0  0  0
 38 47  1  0  0  0
 39 64  1  0  0  0
 39 67  2  0  0  0
 40 52  1  0  0  0
 40 53  2  0  0  0
 40 58  1  0  0  0
 41106  1  0  0  0
 41107  1  0  0  0
 41108  1  0  0  0
 41 48  1  0  0  0
 42 43  1  0  0  0
 42 66  1  0  0  0
 42109  1  0  0  0
 42110  1  0  0  0
 43 44  1  0  0  0
 44111  1  0  0  0
 45 46  2  0  0  0
 45112  1  0  0  0
 46113  1  0  0  0
 47114  1  0  0  0
 47115  1  0  0  0
 48 56  1  0  0  0
 48 65  1  0  0  0
 48116  1  0  0  0
 49 50  1  0  0  0
 49 53  1  0  0  0
 49 64  1  0  0  0
 49117  1  0  0  0
 50 51  1  0  0  0
 50118  1  0  0  0
 50119  1  0  0  0
 51 52  1  0  0  0
 51120  1  0  0  0
 51121  1  0  0  0
 52122  1  0  0  0
 52123  1  0  0  0
 53 54  1  0  0  0
 54 55  2  0  0  0
 54124  1  0  0  0
 55 57  1  0  0  0
 55125  1  0  0  0
 56 69  2  0  0  0
 57 58  2  0  0  0
 57126  1  0  0  0
 58127  1  0  0  0
 59 60  1  0  0  0
 59 61  1  0  0  0
 59 62  1  0  0  0
 60128  1  0  0  0
 60129  1  0  0  0
 60130  1  0  0  0
 61131  1  0  0  0
 61132  1  0  0  0
 61133  1  0  0  0
 62134  1  0  0  0
 62135  1  0  0  0
 62136  1  0  0  0
 63 65  1  0  0  0
 63137  1  0  0  0
 63138  1  0  0  0
 63139  1  0  0  0
 64140  1  0  0  0
 65141  1  0  0  0
 68 80  1  0  0  0
 71 74  1  0  0  0
 71142  1  0  0  0
 71143  1  0  0  0
 71 77  1  0  0  0
 72 75  1  0  0  0
 72 77  1  0  0  0
 72144  1  0  0  0
 72145  1  0  0  0
 73 76  1  0  0  0
 73 77  1  0  0  0
 73146  1  0  0  0
 73147  1  0  0  0
 74 81  1  0  0  0
 74148  1  0  0  0
 74149  1  0  0  0
 75 81  1  0  0  0
 75150  1  0  0  0
 75151  1  0  0  0
 76 77  1  0  0  0
 76 78  1  0  0  0
 76152  1  0  0  0
 78 82  1  0  0  0
 78153  1  0  0  0
 78154  1  0  0  0
 79 80  1  0  0  0
 79 82  1  0  0  0
 79155  1  0  0  0
 79156  1  0  0  0
 80157  1  0  0  0
 80158  1  0  0  0
 82159  1  0  0  0
 82160  1  0  0  0
M  CHG  1  82   1
M  ISO  4   1 100  68 101  80 101  81 100
M  END
> <chiral flag>
0

> <version>
0

> <s_m_source_file>
/data/baiqing/PycharmProjects/Reinvent-master-3.2/result/LINK_invent/BTK/process_docking_weight1_custom_sum_contain_oxygen_bond_distance_aromatic_linkinvent_7_9_3/rearranged_h_0177.sdf

> <i_m_source_file_index>
54

> <r_mmod_Potential_Energy-OPLS-2005>
185.567260742188

> <r_mmod_Stretch_Energy-OPLS-2005>
65.4317321777344

> <r_mmod_Bend_Energy-OPLS-2005>
155.710662841797

> <r_mmod_Torsional_Energy-OPLS-2005>
400.082153320312

> <r_mmod_Improper_Torsional_Energy-OPLS-2005>
8.70779895782471

> <r_mmod_Van_der_Waal_Energy-OPLS-2005>
123.932472229004

> <r_mmod_Electrostatic_Energy-OPLS-2005>
-165.149276733398

> <r_mmod_Solvation_Energy-OPLS-2005>
-440.728668212891

> <b_mmod_Minimization_Converged-OPLS-2005>
0

> <r_mmod_RMS_Derivative-OPLS-2005>
0.808289349079132

$$$$
54
                    3D
 Structure written by MMmdl.
156165  0  0  1  0            999 V2000
  -30.6178  -14.6378   20.5035 C   0  0  0  0  0  0
  -30.4419  -12.3912   19.4489 C   0  0  0  0  0  0
  -29.5088  -12.5070   18.2225 C   0  0  0  0  0  0
  -28.0311  -12.3441   18.6340 C   0  0  0  0  0  0
  -27.6541  -13.2130   19.8630 C   0  0  2  0  0  0
  -28.6996  -13.0616   20.9915 C   0  0  0  0  0  0
  -25.2571  -13.8163   20.5680 C   0  0  0  0  0  0
  -24.1833  -13.0435   20.9186 C   0  0  0  0  0  0
  -24.6395  -11.6903   20.8734 C   0  0  0  0  0  0
  -23.9060  -10.4290   21.0405 C   0  0  0  0  0  0
  -24.3613   -9.4207   21.9183 C   0  0  0  0  0  0
  -23.6290   -8.2242   22.0753 C   0  0  0  0  0  0
  -22.4272   -8.0280   21.3544 C   0  0  0  0  0  0
  -21.9906   -9.0253   20.4646 C   0  0  0  0  0  0
  -22.7233  -10.2133   20.3055 C   0  0  0  0  0  0
  -21.6852   -6.0735   22.5280 C   0  0  0  0  0  0
  -21.4014   -6.5639   23.8213 C   0  0  0  0  0  0
  -21.3660   -5.6792   24.9175 C   0  0  0  0  0  0
  -21.6044   -4.3055   24.7225 C   0  0  0  0  0  0
  -21.8820   -3.8147   23.4347 C   0  0  0  0  0  0
  -21.9193   -4.6963   22.3403 C   0  0  0  0  0  0
  -22.7857  -13.5231   21.1853 C   0  0  0  0  0  0
  -22.1661   -4.2149   21.0981 F   0  0  0  0  0  0
  -21.5629   -3.4538   25.7738 F   0  0  0  0  0  0
  -30.0158  -13.4078   20.4299 N   0  0  0  0  0  0
  -26.2994  -12.9335   20.3313 N   0  0  0  0  0  0
  -25.9322  -11.6495   20.5750 N   0  0  0  0  0  0
  -22.0497  -12.8224   22.0408 N   0  0  0  0  0  0
  -25.4287  -15.1888   20.4101 N   0  0  0  0  0  0
  -31.7860  -14.8024   20.1343 O   0  0  0  0  0  0
  -21.6638   -6.8877   21.4241 O   0  0  0  0  0  0
  -22.3546  -14.5542   20.6706 O   0  0  0  0  0  0
  -24.6260  -31.8608   23.2039 C   0  0  0  0  0  0
  -25.9109  -32.4785   23.8363 C   0  0  1  0  0  0
  -27.2230  -27.3236   20.1106 C   0  0  0  0  0  0
  -25.5926  -33.8585   24.2287 N   0  0  0  0  0  0
  -23.4189  -30.4861   21.5472 C   0  0  2  0  0  0
  -24.8641  -28.9444   20.1124 C   0  0  0  0  0  0
  -22.7473  -29.4631   22.4942 C   0  0  0  0  0  0
  -18.0285  -28.1385   22.8487 C   0  0  0  0  0  0
  -24.1489  -36.7297   23.2639 C   0  0  0  0  0  0
  -25.9609  -30.7931   21.3746 C   0  0  0  0  0  0
  -26.0348  -29.4220   20.7146 C   0  0  0  0  0  0
  -27.2176  -28.6245   20.7028 C   0  0  0  0  0  0
  -26.0245  -26.9000   19.4870 C   0  0  0  0  0  0
  -24.8608  -27.6885   19.4907 C   0  0  0  0  0  0
  -23.6328  -29.8242   20.1618 C   0  0  0  0  0  0
  -25.4114  -36.3088   24.0330 C   0  0  1  0  0  0
  -20.5886  -28.3689   23.1284 C   0  0  2  0  0  0
  -20.6775  -26.9413   22.5409 C   0  0  0  0  0  0
  -19.5751  -26.6386   21.5212 C   0  0  0  0  0  0
  -18.1931  -26.7928   22.1626 C   0  0  0  0  0  0
  -19.1538  -28.8853   23.2881 C   0  0  0  0  0  0
  -18.9461  -30.1456   23.8897 C   0  0  0  0  0  0
  -17.6461  -30.6588   24.0564 C   0  0  0  0  0  0
  -25.9050  -34.9456   23.5108 C   0  0  0  0  0  0
  -16.5352  -29.9087   23.6330 C   0  0  0  0  0  0
  -16.7273  -28.6504   23.0351 C   0  0  0  0  0  0
  -26.4494  -31.6591   25.0731 C   0  0  0  0  0  0
  -25.3729  -31.3727   26.1458 C   0  0  0  0  0  0
  -27.0337  -30.3016   24.6183 C   0  0  0  0  0  0
  -27.6052  -32.4326   25.7502 C   0  0  0  0  0  0
  -27.5580  -37.1806   24.8465 C   0  0  0  0  0  0
  -21.4187  -29.3045   22.3682 N   0  0  0  0  0  0
  -26.4294  -37.3780   23.9406 N   0  0  0  0  0  0
  -24.6875  -31.0627   22.0988 N   0  0  0  0  0  0
  -23.4201  -28.8163   23.3011 O   0  0  0  0  0  0
  -28.3432  -26.4757   20.1552 O   0  0  0  0  0  0
  -26.5618  -34.8920   22.4674 O   0  0  0  0  0  0
  -23.5424  -32.1403   23.7370 O   0  0  0  0  0  0
  -30.8740  -17.9033   21.2117 C   0  0  0  0  0  0
  -28.8262  -19.1058   19.7940 C   0  0  0  0  0  0
  -30.8159  -19.3186   21.0796 C   0  0  0  0  0  0
  -29.7937  -19.9543   20.3741 C   0  0  0  0  0  0
  -29.8601  -17.1056   20.6155 C   0  0  0  0  0  0
  -31.8084  -20.3246   21.6024 C   0  0  0  0  0  0
  -31.1498  -21.7021   21.3172 C   0  0  0  0  0  0
  -30.0385  -21.4949   20.2498 C   0  0  2  0  0  0
  -29.2895  -23.9910   20.3274 C   0  0  0  0  0  0
  -28.1031  -25.0148   20.0653 C   0  0  0  0  0  0
  -28.8531  -17.7416   19.9411 N   0  0  0  0  0  0
  -29.7882  -15.6718   20.8454 N   0  0  0  0  0  0
  -28.9139  -22.5095   20.3692 N   0  3  0  0  0  0
  -31.4822  -12.5222   19.1456 H   0  0  0  0  0  0
  -30.3815  -11.3939   19.8873 H   0  0  0  0  0  0
  -29.7732  -11.7566   17.4761 H   0  0  0  0  0  0
  -29.6501  -13.4767   17.7425 H   0  0  0  0  0  0
  -27.8673  -11.2906   18.8640 H   0  0  0  0  0  0
  -27.3766  -12.5759   17.7929 H   0  0  0  0  0  0
  -27.6724  -14.2484   19.5224 H   0  0  0  0  0  0
  -28.7113  -12.0373   21.3674 H   0  0  0  0  0  0
  -28.4446  -13.6865   21.8489 H   0  0  0  0  0  0
  -25.2759   -9.5683   22.4755 H   0  0  0  0  0  0
  -24.0002   -7.4633   22.7470 H   0  0  0  0  0  0
  -21.0838   -8.8768   19.8952 H   0  0  0  0  0  0
  -22.3691  -10.9670   19.6162 H   0  0  0  0  0  0
  -21.2006   -7.6148   23.9716 H   0  0  0  0  0  0
  -21.1482   -6.0522   25.9077 H   0  0  0  0  0  0
  -22.0599   -2.7609   23.2846 H   0  0  0  0  0  0
  -22.4108  -11.9879   22.4790 H   0  0  0  0  0  0
  -21.1118  -13.1253   22.2618 H   0  0  0  0  0  0
  -24.6596  -15.8408   20.5201 H   0  0  0  0  0  0
  -26.2747  -15.6333   20.0749 H   0  0  0  0  0  0
  -26.7177  -32.5455   23.1112 H   0  0  0  0  0  0
  -25.0069  -33.9733   25.0429 H   0  0  0  0  0  0
  -22.7125  -31.3068   21.4063 H   0  0  0  0  0  0
  -23.3750  -35.9632   23.3306 H   0  0  0  0  0  0
  -24.3579  -36.8913   22.2052 H   0  0  0  0  0  0
  -23.7245  -37.6502   23.6657 H   0  0  0  0  0  0
  -26.0930  -31.5581   20.6082 H   0  0  0  0  0  0
  -26.8411  -30.8396   22.0042 H   0  0  0  0  0  0
  -28.1160  -28.9882   21.1820 H   0  0  0  0  0  0
  -25.9462  -25.9455   18.9906 H   0  0  0  0  0  0
  -23.9635  -27.3174   19.0147 H   0  0  0  0  0  0
  -23.7526  -30.6022   19.4069 H   0  0  0  0  0  0
  -22.7524  -29.2547   19.8582 H   0  0  0  0  0  0
  -25.1295  -36.1943   25.0823 H   0  0  0  0  0  0
  -20.9978  -28.3262   24.1405 H   0  0  0  0  0  0
  -20.5680  -26.2298   23.3608 H   0  0  0  0  0  0
  -21.6644  -26.7447   22.1200 H   0  0  0  0  0  0
  -19.6913  -25.6298   21.1240 H   0  0  0  0  0  0
  -19.6687  -27.3198   20.6743 H   0  0  0  0  0  0
  -17.4200  -26.6673   21.4030 H   0  0  0  0  0  0
  -18.0335  -26.0071   22.9023 H   0  0  0  0  0  0
  -19.7937  -30.7272   24.2266 H   0  0  0  0  0  0
  -17.5016  -31.6268   24.5167 H   0  0  0  0  0  0
  -15.5353  -30.2990   23.7655 H   0  0  0  0  0  0
  -15.8672  -28.0825   22.7065 H   0  0  0  0  0  0
  -24.5902  -30.7078   25.7787 H   0  0  0  0  0  0
  -24.8922  -32.2893   26.4887 H   0  0  0  0  0  0
  -25.8054  -30.8902   27.0232 H   0  0  0  0  0  0
  -26.2912  -29.6769   24.1203 H   0  0  0  0  0  0
  -27.4031  -29.7269   25.4686 H   0  0  0  0  0  0
  -27.8783  -30.4303   23.9410 H   0  0  0  0  0  0
  -27.2659  -33.3622   26.2085 H   0  0  0  0  0  0
  -28.3860  -32.6894   25.0331 H   0  0  0  0  0  0
  -28.0724  -31.8451   26.5416 H   0  0  0  0  0  0
  -28.2601  -38.0100   24.7508 H   0  0  0  0  0  0
  -28.1072  -36.2630   24.6298 H   0  0  0  0  0  0
  -27.2296  -37.1464   25.8868 H   0  0  0  0  0  0
  -20.9361  -29.8776   21.6902 H   0  0  0  0  0  0
  -26.0177  -38.2857   24.1402 H   0  0  0  0  0  0
  -31.6743  -17.4421   21.7747 H   0  0  0  0  0  0
  -28.0216  -19.5119   19.1989 H   0  0  0  0  0  0
  -32.7458  -20.2174   21.0558 H   0  0  0  0  0  0
  -32.0096  -20.1762   22.6638 H   0  0  0  0  0  0
  -31.8710  -22.4728   21.0444 H   0  0  0  0  0  0
  -30.6802  -22.0275   22.2461 H   0  0  0  0  0  0
  -30.4857  -21.6378   19.2645 H   0  0  0  0  0  0
  -29.7724  -24.2478   21.2703 H   0  0  0  0  0  0
  -30.0411  -24.1391   19.5515 H   0  0  0  0  0  0
  -27.2967  -24.7709   20.7589 H   0  0  0  0  0  0
  -27.7324  -24.7935   19.0645 H   0  0  0  0  0  0
  -28.8598  -15.3456   21.0553 H   0  0  0  0  0  0
  -28.4025  -22.3324   21.2199 H   0  0  0  0  0  0
  -28.2793  -22.3328   19.6060 H   0  0  0  0  0  0
  1 25  1  0  0  0
  1 30  2  0  0  0
  1 82  1  0  0  0
  2  3  1  0  0  0
  2 25  1  0  0  0
  2 84  1  0  0  0
  2 85  1  0  0  0
  3  4  1  0  0  0
  3 86  1  0  0  0
  3 87  1  0  0  0
  4  5  1  0  0  0
  4 88  1  0  0  0
  4 89  1  0  0  0
  5  6  1  0  0  0
  5 26  1  0  0  0
  5 90  1  0  0  0
  6 25  1  0  0  0
  6 91  1  0  0  0
  6 92  1  0  0  0
  7  8  2  0  0  0
  7 26  1  0  0  0
  7 29  1  0  0  0
  8  9  1  0  0  0
  8 22  1  0  0  0
  9 10  1  0  0  0
  9 27  2  0  0  0
 10 11  2  0  0  0
 10 15  1  0  0  0
 11 12  1  0  0  0
 11 93  1  0  0  0
 12 13  2  0  0  0
 12 94  1  0  0  0
 13 14  1  0  0  0
 13 31  1  0  0  0
 14 15  2  0  0  0
 14 95  1  0  0  0
 15 96  1  0  0  0
 16 17  2  0  0  0
 16 21  1  0  0  0
 16 31  1  0  0  0
 17 18  1  0  0  0
 17 97  1  0  0  0
 18 19  2  0  0  0
 18 98  1  0  0  0
 19 20  1  0  0  0
 19 24  1  0  0  0
 20 21  2  0  0  0
 20 99  1  0  0  0
 21 23  1  0  0  0
 22 28  1  0  0  0
 22 32  2  0  0  0
 26 27  1  0  0  0
 28100  1  0  0  0
 28101  1  0  0  0
 29102  1  0  0  0
 29103  1  0  0  0
 33 34  1  0  0  0
 33 66  1  0  0  0
 33 70  2  0  0  0
 34 36  1  0  0  0
 34 59  1  0  0  0
 34104  1  0  0  0
 35 44  2  0  0  0
 35 45  1  0  0  0
 35 68  1  0  0  0
 36 56  1  0  0  0
 36105  1  0  0  0
 37 39  1  0  0  0
 37 47  1  0  0  0
 37 66  1  0  0  0
 37106  1  0  0  0
 38 43  2  0  0  0
 38 46  1  0  0  0
 38 47  1  0  0  0
 39 64  1  0  0  0
 39 67  2  0  0  0
 40 52  1  0  0  0
 40 53  2  0  0  0
 40 58  1  0  0  0
 41107  1  0  0  0
 41108  1  0  0  0
 41109  1  0  0  0
 41 48  1  0  0  0
 42 43  1  0  0  0
 42 66  1  0  0  0
 42110  1  0  0  0
 42111  1  0  0  0
 43 44  1  0  0  0
 44112  1  0  0  0
 45 46  2  0  0  0
 45113  1  0  0  0
 46114  1  0  0  0
 47115  1  0  0  0
 47116  1  0  0  0
 48 56  1  0  0  0
 48 65  1  0  0  0
 48117  1  0  0  0
 49 50  1  0  0  0
 49 53  1  0  0  0
 49 64  1  0  0  0
 49118  1  0  0  0
 50 51  1  0  0  0
 50119  1  0  0  0
 50120  1  0  0  0
 51 52  1  0  0  0
 51121  1  0  0  0
 51122  1  0  0  0
 52123  1  0  0  0
 52124  1  0  0  0
 53 54  1  0  0  0
 54 55  2  0  0  0
 54125  1  0  0  0
 55 57  1  0  0  0
 55126  1  0  0  0
 56 69  2  0  0  0
 57 58  2  0  0  0
 57127  1  0  0  0
 58128  1  0  0  0
 59 60  1  0  0  0
 59 61  1  0  0  0
 59 62  1  0  0  0
 60129  1  0  0  0
 60130  1  0  0  0
 60131  1  0  0  0
 61132  1  0  0  0
 61133  1  0  0  0
 61134  1  0  0  0
 62135  1  0  0  0
 62136  1  0  0  0
 62137  1  0  0  0
 63 65  1  0  0  0
 63138  1  0  0  0
 63139  1  0  0  0
 63140  1  0  0  0
 64141  1  0  0  0
 65142  1  0  0  0
 68 80  1  0  0  0
 71 73  2  0  0  0
 71 75  1  0  0  0
 71143  1  0  0  0
 72 74  2  0  0  0
 72 81  1  0  0  0
 72144  1  0  0  0
 73 74  1  0  0  0
 73 76  1  0  0  0
 74 78  1  0  0  0
 75 81  2  0  0  0
 75 82  1  0  0  0
 76 77  1  0  0  0
 76145  1  0  0  0
 76146  1  0  0  0
 77 78  1  0  0  0
 77147  1  0  0  0
 77148  1  0  0  0
 78 83  1  0  0  0
 78149  1  0  0  0
 79 80  1  0  0  0
 79 83  1  0  0  0
 79150  1  0  0  0
 79151  1  0  0  0
 80152  1  0  0  0
 80153  1  0  0  0
 82154  1  0  0  0
 83155  1  0  0  0
 83156  1  0  0  0
M  CHG  1  83   1
M  ISO  4   1 100  68 101  80 101  82 100
M  END
> <chiral flag>
0

> <version>
0

> <s_m_source_file>
/data/baiqing/PycharmProjects/Reinvent-master-3.2/result/LINK_invent/BTK/process_docking_weight1_custom_sum_contain_oxygen_bond_distance_aromatic_linkinvent_7_9_3/rearranged_h_0177.sdf

> <i_m_source_file_index>
55

> <r_mmod_Potential_Energy-OPLS-2005>
-168.354919433594

> <r_mmod_Stretch_Energy-OPLS-2005>
75.4351425170898

> <r_mmod_Bend_Energy-OPLS-2005>
186.057022094727

> <r_mmod_Torsional_Energy-OPLS-2005>
239.790008544922

> <r_mmod_Improper_Torsional_Energy-OPLS-2005>
5.97350311279297

> <r_mmod_Van_der_Waal_Energy-OPLS-2005>
141.087188720703

> <r_mmod_Electrostatic_Energy-OPLS-2005>
-392.763885498047

> <r_mmod_Solvation_Energy-OPLS-2005>
-471.126708984375

> <b_mmod_Minimization_Converged-OPLS-2005>
0

> <r_mmod_RMS_Derivative-OPLS-2005>
0.192832142114639

$$$$
55
                    3D
 Structure written by MMmdl.
159168  0  0  1  0            999 V2000
  -30.5131  -15.0454   20.3964 C   0  0  0  0  0  0
  -30.4537  -12.6612   19.4857 C   0  0  0  0  0  0
  -29.5292  -12.5265   18.2537 C   0  0  0  0  0  0
  -28.0670  -12.2975   18.6862 C   0  0  0  0  0  0
  -27.6266  -13.2505   19.8290 C   0  0  2  0  0  0
  -28.6723  -13.3293   20.9581 C   0  0  0  0  0  0
  -25.2496  -13.8210   20.5768 C   0  0  0  0  0  0
  -24.1788  -13.0457   20.9263 C   0  0  0  0  0  0
  -24.6375  -11.6933   20.8725 C   0  0  0  0  0  0
  -23.9037  -10.4311   21.0382 C   0  0  0  0  0  0
  -24.3590   -9.4244   21.9163 C   0  0  0  0  0  0
  -23.6288   -8.2262   22.0725 C   0  0  0  0  0  0
  -22.4278   -8.0268   21.3517 C   0  0  0  0  0  0
  -21.9912   -9.0239   20.4625 C   0  0  0  0  0  0
  -22.7211  -10.2139   20.3042 C   0  0  0  0  0  0
  -21.6863   -6.0719   22.5273 C   0  0  0  0  0  0
  -21.3990   -6.5610   23.8199 C   0  0  0  0  0  0
  -21.3672   -5.6769   24.9166 C   0  0  0  0  0  0
  -21.6067   -4.3032   24.7216 C   0  0  0  0  0  0
  -21.8828   -3.8121   23.4335 C   0  0  0  0  0  0
  -21.9193   -4.6942   22.3398 C   0  0  0  0  0  0
  -22.7809  -13.5241   21.1891 C   0  0  0  0  0  0
  -22.1663   -4.2113   21.0975 F   0  0  0  0  0  0
  -21.5667   -3.4525   25.7740 F   0  0  0  0  0  0
  -29.9274  -13.7729   20.3357 N   0  0  0  0  0  0
  -26.2882  -12.9416   20.3226 N   0  0  0  0  0  0
  -25.9299  -11.6545   20.5692 N   0  0  0  0  0  0
  -22.0376  -12.8271   22.0415 N   0  0  0  0  0  0
  -25.4265  -15.1934   20.4223 N   0  0  0  0  0  0
  -31.7343  -15.0902   20.2149 O   0  0  0  0  0  0
  -21.6645   -6.8865   21.4228 O   0  0  0  0  0  0
  -22.3523  -14.5543   20.6702 O   0  0  0  0  0  0
  -24.6439  -31.8420   23.1860 C   0  0  0  0  0  0
  -25.9214  -32.4685   23.8241 C   0  0  1  0  0  0
  -27.2053  -27.1062   20.1681 C   0  0  0  0  0  0
  -25.5967  -33.8488   24.2157 N   0  0  0  0  0  0
  -23.4472  -30.4605   21.5345 C   0  0  2  0  0  0
  -24.8960  -28.8861   20.1040 C   0  0  0  0  0  0
  -22.7562  -29.4531   22.4866 C   0  0  0  0  0  0
  -18.0285  -28.1383   22.8487 C   0  0  0  0  0  0
  -24.1497  -36.7234   23.2644 C   0  0  0  0  0  0
  -26.0038  -30.7100   21.3848 C   0  0  0  0  0  0
  -26.0726  -29.3187   20.7258 C   0  0  0  0  0  0
  -27.2295  -28.4469   20.7364 C   0  0  0  0  0  0
  -26.0066  -26.7815   19.4984 C   0  0  0  0  0  0
  -24.8799  -27.6349   19.4667 C   0  0  0  0  0  0
  -23.6703  -29.7905   20.1518 C   0  0  0  0  0  0
  -25.4134  -36.3016   24.0305 C   0  0  1  0  0  0
  -20.5907  -28.3705   23.1244 C   0  0  2  0  0  0
  -20.6771  -26.9402   22.5413 C   0  0  0  0  0  0
  -19.5748  -26.6371   21.5215 C   0  0  0  0  0  0
  -18.1929  -26.7932   22.1628 C   0  0  0  0  0  0
  -19.1549  -28.8869   23.2860 C   0  0  0  0  0  0
  -18.9467  -30.1467   23.8874 C   0  0  0  0  0  0
  -17.6465  -30.6588   24.0564 C   0  0  0  0  0  0
  -25.9093  -34.9398   23.5046 C   0  0  0  0  0  0
  -16.5346  -29.9084   23.6333 C   0  0  0  0  0  0
  -16.7276  -28.6499   23.0364 C   0  0  0  0  0  0
  -26.4525  -31.6552   25.0689 C   0  0  0  0  0  0
  -25.3697  -31.3741   26.1377 C   0  0  0  0  0  0
  -27.0382  -30.2946   24.6273 C   0  0  0  0  0  0
  -27.6063  -32.4320   25.7476 C   0  0  0  0  0  0
  -27.5569  -37.1766   24.8459 C   0  0  0  0  0  0
  -21.4248  -29.3033   22.3627 N   0  0  0  0  0  0
  -26.4285  -37.3730   23.9415 N   0  0  0  0  0  0
  -24.7190  -31.0262   22.0898 N   0  0  0  0  0  0
  -23.4209  -28.8084   23.3045 O   0  0  0  0  0  0
  -28.2444  -26.1006   20.2679 O   0  0  0  0  0  0
  -26.5686  -34.8899   22.4622 O   0  0  0  0  0  0
  -23.5567  -32.1309   23.7078 O   0  0  0  0  0  0
  -29.6822  -20.4234   17.8917 C   0  0  0  0  0  0
  -29.7073  -19.2115   18.6115 C   0  0  0  0  0  0
  -29.4759  -21.6618   18.5364 C   0  0  0  0  0  0
  -29.1455  -21.7271   19.9089 C   0  0  0  0  0  0
  -29.5754  -19.2008   20.0089 C   0  0  0  0  0  0
  -29.7650  -22.9499   17.7706 C   0  0  0  0  0  0
  -30.5934  -23.9817   18.5865 C   0  0  0  0  0  0
  -30.4399  -23.8770   20.1255 C   0  0  0  0  0  0
  -29.0784  -23.2902   20.5311 C   0  0  2  0  0  0
  -28.9920  -23.2062   22.0653 C   0  0  0  0  0  0
  -30.0322  -17.7910   20.7843 C   0  0  0  0  0  0
  -28.0080  -24.5513   20.0840 C   0  0  0  0  0  0
  -29.2841  -20.4765   20.6177 N   0  0  0  0  0  0
  -29.7308  -16.2497   20.4595 N   0  0  0  0  0  0
  -31.4725  -12.8626   19.1488 H   0  0  0  0  0  0
  -30.4993  -11.7252   20.0466 H   0  0  0  0  0  0
  -29.8646  -11.6986   17.6268 H   0  0  0  0  0  0
  -29.6052  -13.4271   17.6409 H   0  0  0  0  0  0
  -27.9926  -11.2661   19.0341 H   0  0  0  0  0  0
  -27.3966  -12.3795   17.8303 H   0  0  0  0  0  0
  -27.5763  -14.2414   19.3761 H   0  0  0  0  0  0
  -28.7933  -12.3664   21.4549 H   0  0  0  0  0  0
  -28.3539  -14.0378   21.7254 H   0  0  0  0  0  0
  -25.2690   -9.5739   22.4784 H   0  0  0  0  0  0
  -23.9995   -7.4648   22.7441 H   0  0  0  0  0  0
  -21.0845   -8.8732   19.8939 H   0  0  0  0  0  0
  -22.3606  -10.9675   19.6185 H   0  0  0  0  0  0
  -21.1926   -7.6102   23.9688 H   0  0  0  0  0  0
  -21.1513   -6.0490   25.9079 H   0  0  0  0  0  0
  -22.0595   -2.7575   23.2837 H   0  0  0  0  0  0
  -22.3887  -11.9975   22.4976 H   0  0  0  0  0  0
  -21.0961  -13.1312   22.2438 H   0  0  0  0  0  0
  -24.6893  -15.8688   20.5869 H   0  0  0  0  0  0
  -26.2727  -15.6168   20.0670 H   0  0  0  0  0  0
  -26.7295  -32.5269   23.0978 H   0  0  0  0  0  0
  -25.0036  -33.9611   25.0265 H   0  0  0  0  0  0
  -22.7503  -31.2882   21.3845 H   0  0  0  0  0  0
  -23.3761  -35.9558   23.3281 H   0  0  0  0  0  0
  -24.3579  -36.8895   22.2061 H   0  0  0  0  0  0
  -23.7249  -37.6420   23.6707 H   0  0  0  0  0  0
  -26.1617  -31.4654   20.6143 H   0  0  0  0  0  0
  -26.8734  -30.7602   22.0270 H   0  0  0  0  0  0
  -28.1252  -28.7761   21.2449 H   0  0  0  0  0  0
  -25.9076  -25.8191   19.0185 H   0  0  0  0  0  0
  -23.9863  -27.3035   18.9574 H   0  0  0  0  0  0
  -23.7999  -30.5689   19.3983 H   0  0  0  0  0  0
  -22.7833  -29.2342   19.8449 H   0  0  0  0  0  0
  -25.1328  -36.1817   25.0792 H   0  0  0  0  0  0
  -20.9994  -28.3276   24.1371 H   0  0  0  0  0  0
  -20.5657  -26.2301   23.3627 H   0  0  0  0  0  0
  -21.6636  -26.7411   22.1214 H   0  0  0  0  0  0
  -19.6909  -25.6282   21.1256 H   0  0  0  0  0  0
  -19.6700  -27.3175   20.6742 H   0  0  0  0  0  0
  -17.4202  -26.6673   21.4025 H   0  0  0  0  0  0
  -18.0324  -26.0074   22.9021 H   0  0  0  0  0  0
  -19.7940  -30.7290   24.2231 H   0  0  0  0  0  0
  -17.5015  -31.6270   24.5156 H   0  0  0  0  0  0
  -15.5350  -30.2984   23.7681 H   0  0  0  0  0  0
  -15.8664  -28.0817   22.7101 H   0  0  0  0  0  0
  -24.5904  -30.7070   25.7673 H   0  0  0  0  0  0
  -24.8855  -32.2918   26.4726 H   0  0  0  0  0  0
  -25.7967  -30.8954   27.0198 H   0  0  0  0  0  0
  -26.2980  -29.6672   24.1293 H   0  0  0  0  0  0
  -27.4000  -29.7255   25.4843 H   0  0  0  0  0  0
  -27.8892  -30.4177   23.9572 H   0  0  0  0  0  0
  -27.2671  -33.3655   26.1976 H   0  0  0  0  0  0
  -28.3905  -32.6814   25.0316 H   0  0  0  0  0  0
  -28.0689  -31.8483   26.5448 H   0  0  0  0  0  0
  -28.2570  -38.0077   24.7520 H   0  0  0  0  0  0
  -28.1085  -36.2607   24.6277 H   0  0  0  0  0  0
  -27.2287  -37.1387   25.8860 H   0  0  0  0  0  0
  -20.9441  -29.8744   21.6807 H   0  0  0  0  0  0
  -26.0132  -38.2786   24.1436 H   0  0  0  0  0  0
  -29.9142  -20.4014   16.8365 H   0  0  0  0  0  0
  -29.9536  -18.2970   18.0892 H   0  0  0  0  0  0
  -28.8144  -23.3734   17.4496 H   0  0  0  0  0  0
  -30.2982  -22.7322   16.8441 H   0  0  0  0  0  0
  -30.3495  -24.9906   18.2452 H   0  0  0  0  0  0
  -31.6519  -23.8495   18.3596 H   0  0  0  0  0  0
  -30.5851  -24.8582   20.5815 H   0  0  0  0  0  0
  -31.2361  -23.2463   20.5217 H   0  0  0  0  0  0
  -29.8187  -22.6354   22.4875 H   0  0  0  0  0  0
  -28.0637  -22.7278   22.3782 H   0  0  0  0  0  0
  -29.0143  -24.1994   22.5143 H   0  0  0  0  0  0
  -29.7472  -17.9299   21.8256 H   0  0  0  0  0  0
  -31.1218  -17.8526   20.7909 H   0  0  0  0  0  0
  -27.0584  -24.3181   20.5680 H   0  0  0  0  0  0
  -27.7909  -24.4321   19.0256 H   0  0  0  0  0  0
  -28.7408  -16.0643   20.4687 H   0  0  0  0  0  0
  1 25  1  0  0  0
  1 30  2  0  0  0
  1 84  1  0  0  0
  2  3  1  0  0  0
  2 25  1  0  0  0
  2 85  1  0  0  0
  2 86  1  0  0  0
  3  4  1  0  0  0
  3 87  1  0  0  0
  3 88  1  0  0  0
  4  5  1  0  0  0
  4 89  1  0  0  0
  4 90  1  0  0  0
  5  6  1  0  0  0
  5 26  1  0  0  0
  5 91  1  0  0  0
  6 25  1  0  0  0
  6 92  1  0  0  0
  6 93  1  0  0  0
  7  8  2  0  0  0
  7 26  1  0  0  0
  7 29  1  0  0  0
  8  9  1  0  0  0
  8 22  1  0  0  0
  9 10  1  0  0  0
  9 27  2  0  0  0
 10 11  2  0  0  0
 10 15  1  0  0  0
 11 12  1  0  0  0
 11 94  1  0  0  0
 12 13  2  0  0  0
 12 95  1  0  0  0
 13 14  1  0  0  0
 13 31  1  0  0  0
 14 15  2  0  0  0
 14 96  1  0  0  0
 15 97  1  0  0  0
 16 17  2  0  0  0
 16 21  1  0  0  0
 16 31  1  0  0  0
 17 18  1  0  0  0
 17 98  1  0  0  0
 18 19  2  0  0  0
 18 99  1  0  0  0
 19 20  1  0  0  0
 19 24  1  0  0  0
 20 21  2  0  0  0
 20100  1  0  0  0
 21 23  1  0  0  0
 22 28  1  0  0  0
 22 32  2  0  0  0
 26 27  1  0  0  0
 28101  1  0  0  0
 28102  1  0  0  0
 29103  1  0  0  0
 29104  1  0  0  0
 33 34  1  0  0  0
 33 66  1  0  0  0
 33 70  2  0  0  0
 34 36  1  0  0  0
 34 59  1  0  0  0
 34105  1  0  0  0
 35 44  2  0  0  0
 35 45  1  0  0  0
 35 68  1  0  0  0
 36 56  1  0  0  0
 36106  1  0  0  0
 37 39  1  0  0  0
 37 47  1  0  0  0
 37 66  1  0  0  0
 37107  1  0  0  0
 38 43  2  0  0  0
 38 46  1  0  0  0
 38 47  1  0  0  0
 39 64  1  0  0  0
 39 67  2  0  0  0
 40 52  1  0  0  0
 40 53  2  0  0  0
 40 58  1  0  0  0
 41108  1  0  0  0
 41109  1  0  0  0
 41110  1  0  0  0
 41 48  1  0  0  0
 42 43  1  0  0  0
 42 66  1  0  0  0
 42111  1  0  0  0
 42112  1  0  0  0
 43 44  1  0  0  0
 44113  1  0  0  0
 45 46  2  0  0  0
 45114  1  0  0  0
 46115  1  0  0  0
 47116  1  0  0  0
 47117  1  0  0  0
 48 56  1  0  0  0
 48 65  1  0  0  0
 48118  1  0  0  0
 49 50  1  0  0  0
 49 53  1  0  0  0
 49 64  1  0  0  0
 49119  1  0  0  0
 50 51  1  0  0  0
 50120  1  0  0  0
 50121  1  0  0  0
 51 52  1  0  0  0
 51122  1  0  0  0
 51123  1  0  0  0
 52124  1  0  0  0
 52125  1  0  0  0
 53 54  1  0  0  0
 54 55  2  0  0  0
 54126  1  0  0  0
 55 57  1  0  0  0
 55127  1  0  0  0
 56 69  2  0  0  0
 57 58  2  0  0  0
 57128  1  0  0  0
 58129  1  0  0  0
 59 60  1  0  0  0
 59 61  1  0  0  0
 59 62  1  0  0  0
 60130  1  0  0  0
 60131  1  0  0  0
 60132  1  0  0  0
 61133  1  0  0  0
 61134  1  0  0  0
 61135  1  0  0  0
 62136  1  0  0  0
 62137  1  0  0  0
 62138  1  0  0  0
 63 65  1  0  0  0
 63139  1  0  0  0
 63140  1  0  0  0
 63141  1  0  0  0
 64142  1  0  0  0
 65143  1  0  0  0
 68 82  1  0  0  0
 71 72  2  0  0  0
 71 73  1  0  0  0
 71144  1  0  0  0
 72 75  1  0  0  0
 72145  1  0  0  0
 73 74  2  0  0  0
 73 76  1  0  0  0
 74 79  1  0  0  0
 74 83  1  0  0  0
 75 81  1  0  0  0
 75 83  2  0  0  0
 76 77  1  0  0  0
 76146  1  0  0  0
 76147  1  0  0  0
 77 78  1  0  0  0
 77148  1  0  0  0
 77149  1  0  0  0
 78 79  1  0  0  0
 78150  1  0  0  0
 78151  1  0  0  0
 79 80  1  0  0  0
 79 82  1  0  0  0
 80152  1  0  0  0
 80153  1  0  0  0
 80154  1  0  0  0
 81 84  1  0  0  0
 81155  1  0  0  0
 81156  1  0  0  0
 82157  1  0  0  0
 82158  1  0  0  0
 84159  1  0  0  0
M  ISO  4   1 100  68 101  82 101  84 100
M  END
> <chiral flag>
0

> <version>
0

> <s_m_source_file>
/data/baiqing/PycharmProjects/Reinvent-master-3.2/result/LINK_invent/BTK/process_docking_weight1_custom_sum_contain_oxygen_bond_distance_aromatic_linkinvent_7_9_3/rearranged_h_0177.sdf

> <i_m_source_file_index>
56

> <r_mmod_Potential_Energy-OPLS-2005>
456.929962158203

> <r_mmod_Stretch_Energy-OPLS-2005>
321.166137695312

> <r_mmod_Bend_Energy-OPLS-2005>
309.663726806641

> <r_mmod_Torsional_Energy-OPLS-2005>
254.829788208008

> <r_mmod_Improper_Torsional_Energy-OPLS-2005>
9.99201011657715

> <r_mmod_Van_der_Waal_Energy-OPLS-2005>
136.593490600586

> <r_mmod_Electrostatic_Energy-OPLS-2005>
-598.152099609375

> <r_mmod_Solvation_Energy-OPLS-2005>
-227.221542358398

> <b_mmod_Minimization_Converged-OPLS-2005>
0

> <r_mmod_RMS_Derivative-OPLS-2005>
4.03200817108154

$$$$
56
                    3D
 Structure written by MMmdl.
154163  0  0  1  0            999 V2000
  -30.6813  -14.8325   20.4433 C   0  0  0  0  0  0
  -30.4069  -12.5257   19.4866 C   0  0  0  0  0  0
  -29.4981  -12.4938   18.2425 C   0  0  0  0  0  0
  -28.0370  -12.2807   18.6706 C   0  0  0  0  0  0
  -27.6197  -13.2276   19.8232 C   0  0  2  0  0  0
  -28.6668  -13.2951   20.9605 C   0  0  0  0  0  0
  -25.2442  -13.8166   20.5706 C   0  0  0  0  0  0
  -24.1754  -13.0415   20.9247 C   0  0  0  0  0  0
  -24.6353  -11.6897   20.8784 C   0  0  0  0  0  0
  -23.9043  -10.4278   21.0430 C   0  0  0  0  0  0
  -24.3605   -9.4193   21.9198 C   0  0  0  0  0  0
  -23.6285   -8.2226   22.0757 C   0  0  0  0  0  0
  -22.4268   -8.0269   21.3545 C   0  0  0  0  0  0
  -21.9901   -9.0242   20.4649 C   0  0  0  0  0  0
  -22.7224  -10.2123   20.3067 C   0  0  0  0  0  0
  -21.6848   -6.0728   22.5279 C   0  0  0  0  0  0
  -21.4011   -6.5635   23.8211 C   0  0  0  0  0  0
  -21.3658   -5.6790   24.9174 C   0  0  0  0  0  0
  -21.6044   -4.3052   24.7227 C   0  0  0  0  0  0
  -21.8819   -3.8143   23.4349 C   0  0  0  0  0  0
  -21.9191   -4.6957   22.3403 C   0  0  0  0  0  0
  -22.7781  -13.5205   21.1895 C   0  0  0  0  0  0
  -22.1661   -4.2143   21.0981 F   0  0  0  0  0  0
  -21.5630   -3.4537   25.7740 F   0  0  0  0  0  0
  -29.9504  -13.6548   20.3481 N   0  0  0  0  0  0
  -26.2832  -12.9359   20.3218 N   0  0  0  0  0  0
  -25.9272  -11.6515   20.5767 N   0  0  0  0  0  0
  -22.0428  -12.8199   22.0451 N   0  0  0  0  0  0
  -25.4099  -15.1887   20.4102 N   0  0  0  0  0  0
  -31.8872  -14.7435   20.1924 O   0  0  0  0  0  0
  -21.6633   -6.8867   21.4239 O   0  0  0  0  0  0
  -22.3474  -14.5510   20.6732 O   0  0  0  0  0  0
  -24.6357  -31.8513   23.1950 C   0  0  0  0  0  0
  -25.9164  -32.4731   23.8309 C   0  0  1  0  0  0
  -27.2170  -27.2173   20.1241 C   0  0  0  0  0  0
  -25.5942  -33.8535   24.2229 N   0  0  0  0  0  0
  -23.4340  -30.4742   21.5392 C   0  0  2  0  0  0
  -24.8802  -28.9171   20.1060 C   0  0  0  0  0  0
  -22.7525  -29.4583   22.4888 C   0  0  0  0  0  0
  -18.0297  -28.1390   22.8482 C   0  0  0  0  0  0
  -24.1491  -36.7272   23.2641 C   0  0  0  0  0  0
  -25.9842  -30.7498   21.3817 C   0  0  0  0  0  0
  -26.0539  -29.3698   20.7200 C   0  0  0  0  0  0
  -27.2202  -28.5314   20.7205 C   0  0  0  0  0  0
  -26.0097  -26.8395   19.4923 C   0  0  0  0  0  0
  -24.8660  -27.6618   19.4824 C   0  0  0  0  0  0
  -23.6538  -29.8095   20.1550 C   0  0  0  0  0  0
  -25.4120  -36.3055   24.0321 C   0  0  1  0  0  0
  -20.5904  -28.3706   23.1256 C   0  0  2  0  0  0
  -20.6783  -26.9418   22.5406 C   0  0  0  0  0  0
  -19.5757  -26.6382   21.5211 C   0  0  0  0  0  0
  -18.1938  -26.7930   22.1624 C   0  0  0  0  0  0
  -19.1552  -28.8865   23.2862 C   0  0  0  0  0  0
  -18.9471  -30.1464   23.8884 C   0  0  0  0  0  0
  -17.6469  -30.6588   24.0561 C   0  0  0  0  0  0
  -25.9065  -34.9427   23.5080 C   0  0  0  0  0  0
  -16.5360  -29.9084   23.6333 C   0  0  0  0  0  0
  -16.7283  -28.6502   23.0354 C   0  0  0  0  0  0
  -26.4513  -31.6575   25.0720 C   0  0  0  0  0  0
  -25.3719  -31.3741   26.1430 C   0  0  0  0  0  0
  -27.0371  -30.2983   24.6249 C   0  0  0  0  0  0
  -27.6054  -32.4330   25.7500 C   0  0  0  0  0  0
  -27.5577  -37.1793   24.8466 C   0  0  0  0  0  0
  -21.4227  -29.3045   22.3636 N   0  0  0  0  0  0
  -26.4290  -37.3759   23.9406 N   0  0  0  0  0  0
  -24.7040  -31.0442   22.0944 N   0  0  0  0  0  0
  -23.4207  -28.8125   23.3003 O   0  0  0  0  0  0
  -28.3013  -26.2971   20.2295 O   0  0  0  0  0  0
  -26.5643  -34.8911   22.4654 O   0  0  0  0  0  0
  -23.5496  -32.1355   23.7221 O   0  0  0  0  0  0
  -27.6970  -22.4492   19.6512 C   0  0  0  0  0  0
  -29.7512  -22.9671   20.6085 C   0  0  0  0  0  0
  -28.5835  -23.5047   20.0027 C   0  0  0  0  0  0
  -29.0881  -20.7088   20.3955 C   0  0  0  0  0  0
  -30.5932  -18.7161   21.1372 C   0  0  0  0  0  0
  -28.4943  -18.1658   20.0736 C   0  0  0  0  0  0
  -31.0866  -17.3226   20.5506 C   0  0  0  0  0  0
  -28.7624  -16.6927   20.6757 C   0  0  0  0  0  0
  -28.4033  -25.0107   19.4347 C   0  0  0  0  0  0
  -27.9410  -21.1065   19.8399 N   0  0  0  0  0  0
  -29.9856  -21.6186   20.8005 N   0  0  0  0  0  0
  -29.3731  -19.2791   20.5261 N   0  0  0  0  0  0
  -30.1519  -16.1442   20.5917 N   0  0  0  0  0  0
  -31.4470  -12.6174   19.1706 H   0  0  0  0  0  0
  -30.3517  -11.5815   20.0311 H   0  0  0  0  0  0
  -29.8091  -11.6974   17.5650 H   0  0  0  0  0  0
  -29.5927  -13.4279   17.6865 H   0  0  0  0  0  0
  -27.9373  -11.2430   18.9912 H   0  0  0  0  0  0
  -27.3687  -12.4010   17.8171 H   0  0  0  0  0  0
  -27.5633  -14.1985   19.3411 H   0  0  0  0  0  0
  -28.7396  -12.3411   21.4846 H   0  0  0  0  0  0
  -28.3784  -14.0367   21.7066 H   0  0  0  0  0  0
  -25.2748   -9.5671   22.4775 H   0  0  0  0  0  0
  -23.9995   -7.4614   22.7472 H   0  0  0  0  0  0
  -21.0834   -8.8759   19.8952 H   0  0  0  0  0  0
  -22.3683  -10.9666   19.6180 H   0  0  0  0  0  0
  -21.2002   -7.6143   23.9712 H   0  0  0  0  0  0
  -21.1481   -6.0522   25.9077 H   0  0  0  0  0  0
  -22.0601   -2.7605   23.2850 H   0  0  0  0  0  0
  -22.4048  -11.9865   22.4844 H   0  0  0  0  0  0
  -21.1045  -13.1223   22.2655 H   0  0  0  0  0  0
  -24.6392  -15.8382   20.5231 H   0  0  0  0  0  0
  -26.2509  -15.6283   20.0636 H   0  0  0  0  0  0
  -26.7228  -32.5360   23.1041 H   0  0  0  0  0  0
  -25.0075  -33.9663   25.0365 H   0  0  0  0  0  0
  -22.7325  -31.2980   21.3922 H   0  0  0  0  0  0
  -23.3755  -35.9603   23.3299 H   0  0  0  0  0  0
  -24.3577  -36.8905   22.2056 H   0  0  0  0  0  0
  -23.7244  -37.6470   23.6675 H   0  0  0  0  0  0
  -26.1317  -31.5101   20.6135 H   0  0  0  0  0  0
  -26.8583  -30.7955   22.0197 H   0  0  0  0  0  0
  -28.1151  -28.8711   21.2231 H   0  0  0  0  0  0
  -25.8852  -25.8689   19.0413 H   0  0  0  0  0  0
  -23.9625  -27.3038   19.0079 H   0  0  0  0  0  0
  -23.7824  -30.5867   19.4008 H   0  0  0  0  0  0
  -22.7702  -29.2473   19.8474 H   0  0  0  0  0  0
  -25.1306  -36.1893   25.0814 H   0  0  0  0  0  0
  -20.9998  -28.3290   24.1376 H   0  0  0  0  0  0
  -20.5679  -26.2318   23.3617 H   0  0  0  0  0  0
  -21.6650  -26.7434   22.1203 H   0  0  0  0  0  0
  -19.6918  -25.6289   21.1249 H   0  0  0  0  0  0
  -19.6693  -27.3185   20.6736 H   0  0  0  0  0  0
  -17.4207  -26.6674   21.4029 H   0  0  0  0  0  0
  -18.0340  -26.0075   22.9025 H   0  0  0  0  0  0
  -19.7946  -30.7283   24.2249 H   0  0  0  0  0  0
  -17.5022  -31.6267   24.5165 H   0  0  0  0  0  0
  -15.5360  -30.2981   23.7664 H   0  0  0  0  0  0
  -15.8683  -28.0816   22.7077 H   0  0  0  0  0  0
  -24.5900  -30.7085   25.7754 H   0  0  0  0  0  0
  -24.8905  -32.2916   26.4824 H   0  0  0  0  0  0
  -25.8021  -30.8937   27.0226 H   0  0  0  0  0  0
  -26.2971  -29.6716   24.1257 H   0  0  0  0  0  0
  -27.4013  -29.7265   25.4794 H   0  0  0  0  0  0
  -27.8866  -30.4240   23.9532 H   0  0  0  0  0  0
  -27.2650  -33.3639   26.2048 H   0  0  0  0  0  0
  -28.3880  -32.6877   25.0341 H   0  0  0  0  0  0
  -28.0705  -31.8477   26.5443 H   0  0  0  0  0  0
  -28.2593  -38.0091   24.7508 H   0  0  0  0  0  0
  -28.1075  -36.2621   24.6300 H   0  0  0  0  0  0
  -27.2293  -37.1450   25.8868 H   0  0  0  0  0  0
  -20.9420  -29.8767   21.6835 H   0  0  0  0  0  0
  -26.0164  -38.2831   24.1405 H   0  0  0  0  0  0
  -26.7824  -22.6774   19.1239 H   0  0  0  0  0  0
  -30.5633  -23.6243   20.8820 H   0  0  0  0  0  0
  -31.4033  -19.4395   21.0342 H   0  0  0  0  0  0
  -30.4182  -18.6189   22.2095 H   0  0  0  0  0  0
  -27.4604  -18.4451   20.2821 H   0  0  0  0  0  0
  -28.5699  -18.1208   18.9863 H   0  0  0  0  0  0
  -31.9998  -17.0678   21.0920 H   0  0  0  0  0  0
  -31.3930  -17.4644   19.5129 H   0  0  0  0  0  0
  -28.0851  -16.0186   20.1711 H   0  0  0  0  0  0
  -28.4685  -16.6760   21.7260 H   0  0  0  0  0  0
  -27.6623  -24.9663   18.6413 H   0  0  0  0  0  0
  -29.3206  -25.1648   18.8656 H   0  0  0  0  0  0
  1 25  1  0  0  0
  1 30  2  0  0  0
  1 83  1  0  0  0
  2  3  1  0  0  0
  2 25  1  0  0  0
  2 84  1  0  0  0
  2 85  1  0  0  0
  3  4  1  0  0  0
  3 86  1  0  0  0
  3 87  1  0  0  0
  4  5  1  0  0  0
  4 88  1  0  0  0
  4 89  1  0  0  0
  5  6  1  0  0  0
  5 26  1  0  0  0
  5 90  1  0  0  0
  6 25  1  0  0  0
  6 91  1  0  0  0
  6 92  1  0  0  0
  7  8  2  0  0  0
  7 26  1  0  0  0
  7 29  1  0  0  0
  8  9  1  0  0  0
  8 22  1  0  0  0
  9 10  1  0  0  0
  9 27  2  0  0  0
 10 11  2  0  0  0
 10 15  1  0  0  0
 11 12  1  0  0  0
 11 93  1  0  0  0
 12 13  2  0  0  0
 12 94  1  0  0  0
 13 14  1  0  0  0
 13 31  1  0  0  0
 14 15  2  0  0  0
 14 95  1  0  0  0
 15 96  1  0  0  0
 16 17  2  0  0  0
 16 21  1  0  0  0
 16 31  1  0  0  0
 17 18  1  0  0  0
 17 97  1  0  0  0
 18 19  2  0  0  0
 18 98  1  0  0  0
 19 20  1  0  0  0
 19 24  1  0  0  0
 20 21  2  0  0  0
 20 99  1  0  0  0
 21 23  1  0  0  0
 22 28  1  0  0  0
 22 32  2  0  0  0
 26 27  1  0  0  0
 28100  1  0  0  0
 28101  1  0  0  0
 29102  1  0  0  0
 29103  1  0  0  0
 33 34  1  0  0  0
 33 66  1  0  0  0
 33 70  2  0  0  0
 34 36  1  0  0  0
 34 59  1  0  0  0
 34104  1  0  0  0
 35 44  2  0  0  0
 35 45  1  0  0  0
 35 68  1  0  0  0
 36 56  1  0  0  0
 36105  1  0  0  0
 37 39  1  0  0  0
 37 47  1  0  0  0
 37 66  1  0  0  0
 37106  1  0  0  0
 38 43  2  0  0  0
 38 46  1  0  0  0
 38 47  1  0  0  0
 39 64  1  0  0  0
 39 67  2  0  0  0
 40 52  1  0  0  0
 40 53  2  0  0  0
 40 58  1  0  0  0
 41107  1  0  0  0
 41108  1  0  0  0
 41109  1  0  0  0
 41 48  1  0  0  0
 42 43  1  0  0  0
 42 66  1  0  0  0
 42110  1  0  0  0
 42111  1  0  0  0
 43 44  1  0  0  0
 44112  1  0  0  0
 45 46  2  0  0  0
 45113  1  0  0  0
 46114  1  0  0  0
 47115  1  0  0  0
 47116  1  0  0  0
 48 56  1  0  0  0
 48 65  1  0  0  0
 48117  1  0  0  0
 49 50  1  0  0  0
 49 53  1  0  0  0
 49 64  1  0  0  0
 49118  1  0  0  0
 50 51  1  0  0  0
 50119  1  0  0  0
 50120  1  0  0  0
 51 52  1  0  0  0
 51121  1  0  0  0
 51122  1  0  0  0
 52123  1  0  0  0
 52124  1  0  0  0
 53 54  1  0  0  0
 54 55  2  0  0  0
 54125  1  0  0  0
 55 57  1  0  0  0
 55126  1  0  0  0
 56 69  2  0  0  0
 57 58  2  0  0  0
 57127  1  0  0  0
 58128  1  0  0  0
 59 60  1  0  0  0
 59 61  1  0  0  0
 59 62  1  0  0  0
 60129  1  0  0  0
 60130  1  0  0  0
 60131  1  0  0  0
 61132  1  0  0  0
 61133  1  0  0  0
 61134  1  0  0  0
 62135  1  0  0  0
 62136  1  0  0  0
 62137  1  0  0  0
 63 65  1  0  0  0
 63138  1  0  0  0
 63139  1  0  0  0
 63140  1  0  0  0
 64141  1  0  0  0
 65142  1  0  0  0
 68 79  1  0  0  0
 71 73  2  0  0  0
 71 80  1  0  0  0
 71143  1  0  0  0
 72 73  1  0  0  0
 72 81  2  0  0  0
 72144  1  0  0  0
 73 79  1  0  0  0
 74 80  2  0  0  0
 74 81  1  0  0  0
 74 82  1  0  0  0
 75 77  1  0  0  0
 75 82  1  0  0  0
 75145  1  0  0  0
 75146  1  0  0  0
 76 78  1  0  0  0
 76 82  1  0  0  0
 76147  1  0  0  0
 76148  1  0  0  0
 77 83  1  0  0  0
 77149  1  0  0  0
 77150  1  0  0  0
 78 83  1  0  0  0
 78151  1  0  0  0
 78152  1  0  0  0
 79153  1  0  0  0
 79154  1  0  0  0
M  ISO  4   1 100  68 101  79 101  83 100
M  END
> <chiral flag>
0

> <version>
0

> <s_m_source_file>
/data/baiqing/PycharmProjects/Reinvent-master-3.2/result/LINK_invent/BTK/process_docking_weight1_custom_sum_contain_oxygen_bond_distance_aromatic_linkinvent_7_9_3/rearranged_h_0177.sdf

> <i_m_source_file_index>
57

> <r_mmod_Potential_Energy-OPLS-2005>
-42.3775787353516

> <r_mmod_Stretch_Energy-OPLS-2005>
143.66618347168

> <r_mmod_Bend_Energy-OPLS-2005>
248.999542236328

> <r_mmod_Torsional_Energy-OPLS-2005>
326.934112548828

> <r_mmod_Improper_Torsional_Energy-OPLS-2005>
7.51696586608887

> <r_mmod_Van_der_Waal_Energy-OPLS-2005>
164.306686401367

> <r_mmod_Electrostatic_Energy-OPLS-2005>
-818.894470214844

> <r_mmod_Solvation_Energy-OPLS-2005>
-245.939407348633

> <b_mmod_Minimization_Converged-OPLS-2005>
0

> <r_mmod_RMS_Derivative-OPLS-2005>
0.104264311492443

$$$$
57
                    3D
 Structure written by MMmdl.
162171  0  0  1  0            999 V2000
  -30.3481  -15.3263   20.4204 C   0  0  0  0  0  0
  -30.4298  -12.8803   19.5211 C   0  0  0  0  0  0
  -29.5299  -12.5943   18.2904 C   0  0  0  0  0  0
  -28.0830  -12.2909   18.7215 C   0  0  0  0  0  0
  -27.5955  -13.2710   19.8155 C   0  0  2  0  0  0
  -28.6201  -13.4547   20.9496 C   0  0  0  0  0  0
  -25.2297  -13.8208   20.5690 C   0  0  0  0  0  0
  -24.1691  -13.0451   20.9268 C   0  0  0  0  0  0
  -24.6296  -11.6882   20.8761 C   0  0  0  0  0  0
  -23.9005  -10.4281   21.0413 C   0  0  0  0  0  0
  -24.3596   -9.4209   21.9173 C   0  0  0  0  0  0
  -23.6292   -8.2236   22.0735 C   0  0  0  0  0  0
  -22.4268   -8.0253   21.3524 C   0  0  0  0  0  0
  -21.9901   -9.0226   20.4629 C   0  0  0  0  0  0
  -22.7205  -10.2110   20.3046 C   0  0  0  0  0  0
  -21.6842   -6.0718   22.5272 C   0  0  0  0  0  0
  -21.4023   -6.5635   23.8212 C   0  0  0  0  0  0
  -21.3669   -5.6786   24.9174 C   0  0  0  0  0  0
  -21.6036   -4.3047   24.7220 C   0  0  0  0  0  0
  -21.8822   -3.8136   23.4346 C   0  0  0  0  0  0
  -21.9205   -4.6948   22.3401 C   0  0  0  0  0  0
  -22.7709  -13.5188   21.1979 C   0  0  0  0  0  0
  -22.1653   -4.2135   21.0982 F   0  0  0  0  0  0
  -21.5638   -3.4528   25.7748 F   0  0  0  0  0  0
  -29.8266  -14.0055   20.3179 N   0  0  0  0  0  0
  -26.2691  -12.9459   20.3126 N   0  0  0  0  0  0
  -25.9228  -11.6570   20.5694 N   0  0  0  0  0  0
  -22.0348  -12.8157   22.0488 N   0  0  0  0  0  0
  -25.3965  -15.1973   20.4044 N   0  0  0  0  0  0
  -31.5859  -15.3510   20.3097 O   0  0  0  0  0  0
  -21.6630   -6.8849   21.4224 O   0  0  0  0  0  0
  -22.3376  -14.5495   20.6807 O   0  0  0  0  0  0
  -24.6475  -31.8272   23.1648 C   0  0  0  0  0  0
  -25.9195  -32.4635   23.8099 C   0  0  1  0  0  0
  -27.1982  -26.9500   20.2209 C   0  0  0  0  0  0
  -25.5851  -33.8434   24.2020 N   0  0  0  0  0  0
  -23.4639  -30.4331   21.5183 C   0  0  2  0  0  0
  -24.9266  -28.8357   20.0966 C   0  0  0  0  0  0
  -22.7561  -29.4447   22.4771 C   0  0  0  0  0  0
  -18.0326  -28.1465   22.8459 C   0  0  0  0  0  0
  -24.1420  -36.7283   23.2608 C   0  0  0  0  0  0
  -26.0277  -30.6533   21.3918 C   0  0  0  0  0  0
  -26.1021  -29.2431   20.7437 C   0  0  0  0  0  0
  -27.2300  -28.3188   20.7805 C   0  0  0  0  0  0
  -26.0072  -26.6916   19.5087 C   0  0  0  0  0  0
  -24.9010  -27.5837   19.4605 C   0  0  0  0  0  0
  -23.7052  -29.7550   20.1396 C   0  0  0  0  0  0
  -25.4049  -36.3001   24.0280 C   0  0  1  0  0  0
  -20.5923  -28.3784   23.1192 C   0  0  2  0  0  0
  -20.6736  -26.9418   22.5418 C   0  0  0  0  0  0
  -19.5674  -26.6374   21.5239 C   0  0  0  0  0  0
  -18.1876  -26.7963   22.1654 C   0  0  0  0  0  0
  -19.1570  -28.8912   23.2840 C   0  0  0  0  0  0
  -18.9467  -30.1506   23.8859 C   0  0  0  0  0  0
  -17.6468  -30.6607   24.0573 C   0  0  0  0  0  0
  -25.9024  -34.9401   23.4987 C   0  0  0  0  0  0
  -16.5387  -29.9083   23.6348 C   0  0  0  0  0  0
  -16.7304  -28.6541   23.0322 C   0  0  0  0  0  0
  -26.4529  -31.6534   25.0595 C   0  0  0  0  0  0
  -25.3599  -31.3841   26.1236 C   0  0  0  0  0  0
  -27.0373  -30.2869   24.6295 C   0  0  0  0  0  0
  -27.6040  -32.4288   25.7422 C   0  0  0  0  0  0
  -27.5528  -37.1802   24.8437 C   0  0  0  0  0  0
  -21.4191  -29.3108   22.3533 N   0  0  0  0  0  0
  -26.4189  -37.3740   23.9431 N   0  0  0  0  0  0
  -24.7319  -31.0017   22.0772 N   0  0  0  0  0  0
  -23.4117  -28.8048   23.3039 O   0  0  0  0  0  0
  -28.1926  -25.8606   20.4161 O   0  0  0  0  0  0
  -26.5717  -34.8899   22.4598 O   0  0  0  0  0  0
  -23.5585  -32.1289   23.6758 O   0  0  0  0  0  0
  -30.3908  -21.6408   20.5312 C   0  0  0  0  0  0
  -31.3801  -21.0091   19.7417 C   0  0  0  0  0  0
  -29.0672  -21.2005   20.4647 C   0  0  0  0  0  0
  -30.8950  -20.0608   18.7953 C   0  0  0  0  0  0
  -29.0198  -19.6794   20.0746 C   0  0  0  0  0  0
  -33.9285  -21.6678   18.8622 C   0  0  0  0  0  0
  -32.9756  -22.8275   18.9920 C   0  0  0  0  0  0
  -32.7613  -21.6167   19.8487 C   0  0  0  0  0  0
  -31.6607  -19.6686   17.5451 C   0  0  0  0  0  0
  -26.8616  -22.5289   21.3871 C   0  0  0  0  0  0
  -29.5074  -18.1960   20.8734 C   0  0  0  0  0  0
  -28.2891  -24.3109   19.8849 C   0  0  0  0  0  0
  -28.0182  -22.5949   20.3747 C   0  0  1  0  0  0
  -29.6669  -19.4885   18.9117 N   0  0  0  0  0  0
  -29.5105  -16.5601   20.4563 N   0  0  0  0  0  0
  -31.4313  -13.1469   19.1802 H   0  0  0  0  0  0
  -30.5476  -11.9922   20.1393 H   0  0  0  0  0  0
  -29.9335  -11.7655   17.7096 H   0  0  0  0  0  0
  -29.5252  -13.4639   17.6328 H   0  0  0  0  0  0
  -28.0551  -11.2717   19.1049 H   0  0  0  0  0  0
  -27.4125  -12.3063   17.8606 H   0  0  0  0  0  0
  -27.5016  -14.2325   19.3039 H   0  0  0  0  0  0
  -28.8117  -12.5142   21.4690 H   0  0  0  0  0  0
  -28.2311  -14.1511   21.6970 H   0  0  0  0  0  0
  -25.2724   -9.5695   22.4780 H   0  0  0  0  0  0
  -23.9997   -7.4609   22.7466 H   0  0  0  0  0  0
  -21.0832   -8.8741   19.8932 H   0  0  0  0  0  0
  -22.3650  -10.9655   19.6184 H   0  0  0  0  0  0
  -21.2002   -7.6138   23.9708 H   0  0  0  0  0  0
  -21.1488   -6.0514   25.9079 H   0  0  0  0  0  0
  -22.0594   -2.7595   23.2852 H   0  0  0  0  0  0
  -22.3990  -11.9819   22.4915 H   0  0  0  0  0  0
  -21.0945  -13.1173   22.2716 H   0  0  0  0  0  0
  -24.6230  -15.8457   20.4993 H   0  0  0  0  0  0
  -26.2173  -15.6127   19.9929 H   0  0  0  0  0  0
  -26.7214  -32.5180   23.0757 H   0  0  0  0  0  0
  -24.9765  -33.9463   25.0019 H   0  0  0  0  0  0
  -22.7737  -31.2616   21.3534 H   0  0  0  0  0  0
  -23.3636  -35.9659   23.3219 H   0  0  0  0  0  0
  -24.3479  -36.9025   22.2024 H   0  0  0  0  0  0
  -23.7215  -37.6455   23.6731 H   0  0  0  0  0  0
  -26.1950  -31.4022   20.6139 H   0  0  0  0  0  0
  -26.8877  -30.7084   22.0534 H   0  0  0  0  0  0
  -28.1011  -28.6286   21.3366 H   0  0  0  0  0  0
  -25.8812  -25.7230   19.0474 H   0  0  0  0  0  0
  -24.0057  -27.2546   18.9494 H   0  0  0  0  0  0
  -23.8553  -30.5430   19.3966 H   0  0  0  0  0  0
  -22.8244  -29.1993   19.8095 H   0  0  0  0  0  0
  -25.1195  -36.1799   25.0771 H   0  0  0  0  0  0
  -21.0057  -28.3424   24.1319 H   0  0  0  0  0  0
  -20.5549  -26.2388   23.3666 H   0  0  0  0  0  0
  -21.6581  -26.7364   22.1242 H   0  0  0  0  0  0
  -19.6805  -25.6264   21.1242 H   0  0  0  0  0  0
  -19.6621  -27.3171   20.6718 H   0  0  0  0  0  0
  -17.4135  -26.6702   21.4078 H   0  0  0  0  0  0
  -18.0305  -26.0220   22.9158 H   0  0  0  0  0  0
  -19.7982  -30.7330   24.2153 H   0  0  0  0  0  0
  -17.5046  -31.6267   24.5204 H   0  0  0  0  0  0
  -15.5356  -30.2976   23.7652 H   0  0  0  0  0  0
  -15.8732  -28.0844   22.7017 H   0  0  0  0  0  0
  -24.5844  -30.7115   25.7522 H   0  0  0  0  0  0
  -24.8720  -32.3077   26.4401 H   0  0  0  0  0  0
  -25.7725  -30.9133   27.0174 H   0  0  0  0  0  0
  -27.3768  -29.7260   25.5014 H   0  0  0  0  0  0
  -26.3021  -29.6536   24.1270 H   0  0  0  0  0  0
  -27.9082  -30.3981   23.9772 H   0  0  0  0  0  0
  -27.2644  -33.3647   26.1823 H   0  0  0  0  0  0
  -28.3848  -32.6755   25.0218 H   0  0  0  0  0  0
  -28.0648  -31.8452   26.5423 H   0  0  0  0  0  0
  -28.2520  -38.0124   24.7462 H   0  0  0  0  0  0
  -28.1022  -36.2651   24.6226 H   0  0  0  0  0  0
  -27.2261  -37.1437   25.8840 H   0  0  0  0  0  0
  -20.9302  -29.8969   21.6901 H   0  0  0  0  0  0
  -26.0032  -38.2769   24.1532 H   0  0  0  0  0  0
  -30.5975  -22.6143   20.9598 H   0  0  0  0  0  0
  -34.9419  -21.8549   19.2287 H   0  0  0  0  0  0
  -33.8999  -21.0369   17.9805 H   0  0  0  0  0  0
  -32.3615  -22.9975   18.1121 H   0  0  0  0  0  0
  -33.2177  -23.7028   19.5999 H   0  0  0  0  0  0
  -32.9891  -21.8048   20.8978 H   0  0  0  0  0  0
  -32.6077  -19.2115   17.8197 H   0  0  0  0  0  0
  -31.8512  -20.5586   16.9388 H   0  0  0  0  0  0
  -31.1239  -18.9683   16.9012 H   0  0  0  0  0  0
  -27.1951  -22.6324   22.4187 H   0  0  0  0  0  0
  -26.3172  -21.5865   21.2978 H   0  0  0  0  0  0
  -26.1340  -23.3219   21.2007 H   0  0  0  0  0  0
  -28.8084  -18.1862   21.7128 H   0  0  0  0  0  0
  -30.4565  -18.4107   21.3581 H   0  0  0  0  0  0
  -27.7108  -24.3949   18.9699 H   0  0  0  0  0  0
  -29.3115  -24.2774   19.5166 H   0  0  0  0  0  0
  -27.5214  -22.2923   19.4557 H   0  0  0  0  0  0
  -28.5520  -16.2884   20.2886 H   0  0  0  0  0  0
  1 25  1  0  0  0
  1 30  2  0  0  0
  1 85  1  0  0  0
  2  3  1  0  0  0
  2 25  1  0  0  0
  2 86  1  0  0  0
  2 87  1  0  0  0
  3  4  1  0  0  0
  3 88  1  0  0  0
  3 89  1  0  0  0
  4  5  1  0  0  0
  4 90  1  0  0  0
  4 91  1  0  0  0
  5  6  1  0  0  0
  5 26  1  0  0  0
  5 92  1  0  0  0
  6 25  1  0  0  0
  6 93  1  0  0  0
  6 94  1  0  0  0
  7  8  2  0  0  0
  7 26  1  0  0  0
  7 29  1  0  0  0
  8  9  1  0  0  0
  8 22  1  0  0  0
  9 10  1  0  0  0
  9 27  2  0  0  0
 10 11  2  0  0  0
 10 15  1  0  0  0
 11 12  1  0  0  0
 11 95  1  0  0  0
 12 13  2  0  0  0
 12 96  1  0  0  0
 13 14  1  0  0  0
 13 31  1  0  0  0
 14 15  2  0  0  0
 14 97  1  0  0  0
 15 98  1  0  0  0
 16 17  2  0  0  0
 16 21  1  0  0  0
 16 31  1  0  0  0
 17 18  1  0  0  0
 17 99  1  0  0  0
 18 19  2  0  0  0
 18100  1  0  0  0
 19 20  1  0  0  0
 19 24  1  0  0  0
 20 21  2  0  0  0
 20101  1  0  0  0
 21 23  1  0  0  0
 22 28  1  0  0  0
 22 32  2  0  0  0
 26 27  1  0  0  0
 28102  1  0  0  0
 28103  1  0  0  0
 29104  1  0  0  0
 29105  1  0  0  0
 33 34  1  0  0  0
 33 66  1  0  0  0
 33 70  2  0  0  0
 34 36  1  0  0  0
 34 59  1  0  0  0
 34106  1  0  0  0
 35 44  2  0  0  0
 35 45  1  0  0  0
 35 68  1  0  0  0
 36 56  1  0  0  0
 36107  1  0  0  0
 37 39  1  0  0  0
 37 47  1  0  0  0
 37 66  1  0  0  0
 37108  1  0  0  0
 38 43  2  0  0  0
 38 46  1  0  0  0
 38 47  1  0  0  0
 39 64  1  0  0  0
 39 67  2  0  0  0
 40 52  1  0  0  0
 40 53  2  0  0  0
 40 58  1  0  0  0
 41109  1  0  0  0
 41110  1  0  0  0
 41111  1  0  0  0
 41 48  1  0  0  0
 42 43  1  0  0  0
 42 66  1  0  0  0
 42112  1  0  0  0
 42113  1  0  0  0
 43 44  1  0  0  0
 44114  1  0  0  0
 45 46  2  0  0  0
 45115  1  0  0  0
 46116  1  0  0  0
 47117  1  0  0  0
 47118  1  0  0  0
 48 56  1  0  0  0
 48 65  1  0  0  0
 48119  1  0  0  0
 49 50  1  0  0  0
 49 53  1  0  0  0
 49 64  1  0  0  0
 49120  1  0  0  0
 50 51  1  0  0  0
 50121  1  0  0  0
 50122  1  0  0  0
 51 52  1  0  0  0
 51123  1  0  0  0
 51124  1  0  0  0
 52125  1  0  0  0
 52126  1  0  0  0
 53 54  1  0  0  0
 54 55  2  0  0  0
 54127  1  0  0  0
 55 57  1  0  0  0
 55128  1  0  0  0
 56 69  2  0  0  0
 57 58  2  0  0  0
 57129  1  0  0  0
 58130  1  0  0  0
 59 60  1  0  0  0
 59 61  1  0  0  0
 59 62  1  0  0  0
 60131  1  0  0  0
 60132  1  0  0  0
 60133  1  0  0  0
 61134  1  0  0  0
 61135  1  0  0  0
 61136  1  0  0  0
 62137  1  0  0  0
 62138  1  0  0  0
 62139  1  0  0  0
 63 65  1  0  0  0
 63140  1  0  0  0
 63141  1  0  0  0
 63142  1  0  0  0
 64143  1  0  0  0
 65144  1  0  0  0
 68 82  1  0  0  0
 71 72  2  0  0  0
 71 73  1  0  0  0
 71145  1  0  0  0
 72 74  1  0  0  0
 72 78  1  0  0  0
 73 75  2  0  0  0
 73 83  1  0  0  0
 74 79  1  0  0  0
 74 84  2  0  0  0
 75 81  1  0  0  0
 75 84  1  0  0  0
 76 77  1  0  0  0
 76 78  1  0  0  0
 76146  1  0  0  0
 76147  1  0  0  0
 77 78  1  0  0  0
 77148  1  0  0  0
 77149  1  0  0  0
 78150  1  0  0  0
 79151  1  0  0  0
 79152  1  0  0  0
 79153  1  0  0  0
 80154  1  0  0  0
 80155  1  0  0  0
 80156  1  0  0  0
 80 83  1  0  0  0
 81 85  1  0  0  0
 81157  1  0  0  0
 81158  1  0  0  0
 82 83  1  0  0  0
 82159  1  0  0  0
 82160  1  0  0  0
 83161  1  0  0  0
 85162  1  0  0  0
M  ISO  4   1 100  68 101  82 101  85 100
M  END
> <chiral flag>
0

> <version>
0

> <s_m_source_file>
/data/baiqing/PycharmProjects/Reinvent-master-3.2/result/LINK_invent/BTK/process_docking_weight1_custom_sum_contain_oxygen_bond_distance_aromatic_linkinvent_7_9_3/rearranged_h_0177.sdf

> <i_m_source_file_index>
58

> <r_mmod_Potential_Energy-OPLS-2005>
1459.30297851562

> <r_mmod_Stretch_Energy-OPLS-2005>
607.154602050781

> <r_mmod_Bend_Energy-OPLS-2005>
581.812927246094

> <r_mmod_Torsional_Energy-OPLS-2005>
442.139862060547

> <r_mmod_Improper_Torsional_Energy-OPLS-2005>
24.5414142608643

> <r_mmod_Van_der_Waal_Energy-OPLS-2005>
129.795669555664

> <r_mmod_Electrostatic_Energy-OPLS-2005>
-605.477233886719

> <r_mmod_Solvation_Energy-OPLS-2005>
-227.853775024414

> <b_mmod_Minimization_Converged-OPLS-2005>
0

> <r_mmod_RMS_Derivative-OPLS-2005>
11.5018701553345

$$$$
58
                    3D
 Structure written by MMmdl.
156165  0  0  1  0            999 V2000
  -30.4673  -15.1706   20.4116 C   0  0  0  0  0  0
  -30.4383  -12.7397   19.5500 C   0  0  0  0  0  0
  -29.5436  -12.5481   18.3016 C   0  0  0  0  0  0
  -28.0877  -12.2829   18.7211 C   0  0  0  0  0  0
  -27.6161  -13.2618   19.8264 C   0  0  2  0  0  0
  -28.6376  -13.4055   20.9726 C   0  0  0  0  0  0
  -25.2425  -13.8225   20.5713 C   0  0  0  0  0  0
  -24.1757  -13.0437   20.9199 C   0  0  0  0  0  0
  -24.6388  -11.6914   20.8724 C   0  0  0  0  0  0
  -23.9091  -10.4281   21.0393 C   0  0  0  0  0  0
  -24.3630   -9.4186   21.9179 C   0  0  0  0  0  0
  -23.6290   -8.2235   22.0760 C   0  0  0  0  0  0
  -22.4275   -8.0271   21.3541 C   0  0  0  0  0  0
  -21.9923   -9.0251   20.4634 C   0  0  0  0  0  0
  -22.7270  -10.2116   20.3034 C   0  0  0  0  0  0
  -21.6858   -6.0713   22.5267 C   0  0  0  0  0  0
  -21.4024   -6.5626   23.8196 C   0  0  0  0  0  0
  -21.3662   -5.6784   24.9163 C   0  0  0  0  0  0
  -21.6044   -4.3045   24.7223 C   0  0  0  0  0  0
  -21.8823   -3.8126   23.4345 C   0  0  0  0  0  0
  -21.9197   -4.6942   22.3396 C   0  0  0  0  0  0
  -22.7784  -13.5191   21.1845 C   0  0  0  0  0  0
  -22.1662   -4.2121   21.0973 F   0  0  0  0  0  0
  -21.5631   -3.4536   25.7739 F   0  0  0  0  0  0
  -29.8918  -13.8785   20.3671 N   0  0  0  0  0  0
  -26.2823  -12.9469   20.3186 N   0  0  0  0  0  0
  -25.9322  -11.6579   20.5703 N   0  0  0  0  0  0
  -22.0446  -12.8174   22.0392 N   0  0  0  0  0  0
  -25.4133  -15.1960   20.4190 N   0  0  0  0  0  0
  -31.6639  -15.1900   20.0870 O   0  0  0  0  0  0
  -21.6640   -6.8860   21.4228 O   0  0  0  0  0  0
  -22.3462  -14.5487   20.6675 O   0  0  0  0  0  0
  -24.6570  -31.8291   23.1728 C   0  0  0  0  0  0
  -25.9295  -32.4595   23.8142 C   0  0  1  0  0  0
  -27.2126  -26.9858   20.1739 C   0  0  0  0  0  0
  -25.6001  -33.8398   24.2086 N   0  0  0  0  0  0
  -23.4670  -30.4459   21.5193 C   0  0  2  0  0  0
  -24.9210  -28.8499   20.1019 C   0  0  0  0  0  0
  -22.7623  -29.4487   22.4738 C   0  0  0  0  0  0
  -18.0330  -28.1416   22.8438 C   0  0  0  0  0  0
  -24.1509  -36.7225   23.2648 C   0  0  0  0  0  0
  -26.0322  -30.6554   21.3938 C   0  0  0  0  0  0
  -26.1020  -29.2520   20.7398 C   0  0  0  0  0  0
  -27.2432  -28.3381   20.7607 C   0  0  0  0  0  0
  -26.0105  -26.7348   19.4723 C   0  0  0  0  0  0
  -24.8983  -27.6098   19.4491 C   0  0  0  0  0  0
  -23.7032  -29.7696   20.1410 C   0  0  0  0  0  0
  -25.4144  -36.2958   24.0293 C   0  0  1  0  0  0
  -20.5955  -28.3770   23.1161 C   0  0  2  0  0  0
  -20.6827  -26.9448   22.5376 C   0  0  0  0  0  0
  -19.5804  -26.6403   21.5185 C   0  0  0  0  0  0
  -18.1978  -26.7962   22.1580 C   0  0  0  0  0  0
  -19.1594  -28.8901   23.2797 C   0  0  0  0  0  0
  -18.9508  -30.1495   23.8833 C   0  0  0  0  0  0
  -17.6508  -30.6596   24.0575 C   0  0  0  0  0  0
  -25.9106  -34.9342   23.5004 C   0  0  0  0  0  0
  -16.5393  -29.9101   23.6349 C   0  0  0  0  0  0
  -16.7319  -28.6533   23.0327 C   0  0  0  0  0  0
  -26.4585  -31.6485   25.0616 C   0  0  0  0  0  0
  -25.3733  -31.3654   26.1276 C   0  0  0  0  0  0
  -27.0490  -30.2864   24.6281 C   0  0  0  0  0  0
  -27.6092  -32.4295   25.7394 C   0  0  0  0  0  0
  -27.5571  -37.1752   24.8474 C   0  0  0  0  0  0
  -21.4301  -29.3072   22.3494 N   0  0  0  0  0  0
  -26.4294  -37.3685   23.9401 N   0  0  0  0  0  0
  -24.7390  -31.0033   22.0825 N   0  0  0  0  0  0
  -23.4206  -28.8049   23.2941 O   0  0  0  0  0  0
  -28.1950  -25.8813   20.2806 O   0  0  0  0  0  0
  -26.5693  -34.8865   22.4584 O   0  0  0  0  0  0
  -23.5659  -32.1248   23.6870 O   0  0  0  0  0  0
  -27.8051  -21.7199   20.9811 C   0  0  0  0  0  0
  -28.1373  -20.2771   21.0184 C   0  0  0  0  0  0
  -28.5050  -22.7743   20.2686 C   0  0  0  0  0  0
  -29.2878  -19.6819   20.3555 C   0  0  0  0  0  0
  -29.6107  -22.0903   19.6201 C   0  0  0  0  0  0
  -30.4261  -17.9464   21.8168 C   0  0  0  0  0  0
  -29.5119  -16.7468   22.0447 C   0  0  0  0  0  0
  -29.9352  -18.0536   20.3635 C   0  0  2  0  0  0
  -27.1731  -19.3800   21.7778 C   0  0  0  0  0  0
  -30.4781  -22.9085   18.6857 C   0  0  0  0  0  0
  -27.8290  -24.3390   19.9589 C   0  0  0  0  0  0
  -29.9701  -20.7109   19.6961 N   0  0  0  0  0  0
  -29.7221  -16.4213   20.6366 N   0  0  0  0  0  0
  -31.4670  -12.9228   19.2364 H   0  0  0  0  0  0
  -30.4759  -11.8266   20.1474 H   0  0  0  0  0  0
  -29.9184  -11.7221   17.6952 H   0  0  0  0  0  0
  -29.5925  -13.4411   17.6764 H   0  0  0  0  0  0
  -28.0406  -11.2612   19.1004 H   0  0  0  0  0  0
  -27.4223  -12.3165   17.8586 H   0  0  0  0  0  0
  -27.5460  -14.2333   19.3370 H   0  0  0  0  0  0
  -28.7719  -12.4651   21.5095 H   0  0  0  0  0  0
  -28.2744  -14.1309   21.7040 H   0  0  0  0  0  0
  -25.2779   -9.5664   22.4752 H   0  0  0  0  0  0
  -23.9977   -7.4645   22.7502 H   0  0  0  0  0  0
  -21.0844   -8.8777   19.8944 H   0  0  0  0  0  0
  -22.3740  -10.9648   19.6123 H   0  0  0  0  0  0
  -21.2020   -7.6134   23.9687 H   0  0  0  0  0  0
  -21.1483   -6.0518   25.9063 H   0  0  0  0  0  0
  -22.0598   -2.7588   23.2858 H   0  0  0  0  0  0
  -22.4099  -11.9858   22.4797 H   0  0  0  0  0  0
  -21.1038  -13.1155   22.2551 H   0  0  0  0  0  0
  -24.6511  -15.8533   20.5420 H   0  0  0  0  0  0
  -26.2718  -15.6344   20.1136 H   0  0  0  0  0  0
  -26.7336  -32.5164   23.0826 H   0  0  0  0  0  0
  -25.0130  -33.9459   25.0227 H   0  0  0  0  0  0
  -22.7762  -31.2770   21.3533 H   0  0  0  0  0  0
  -23.3753  -35.9567   23.3275 H   0  0  0  0  0  0
  -24.3608  -36.8918   22.2072 H   0  0  0  0  0  0
  -23.7287  -37.6410   23.6740 H   0  0  0  0  0  0
  -26.2033  -31.3984   20.6134 H   0  0  0  0  0  0
  -26.8957  -30.7118   22.0433 H   0  0  0  0  0  0
  -28.1295  -28.6374   21.3022 H   0  0  0  0  0  0
  -25.8819  -25.7945   18.9591 H   0  0  0  0  0  0
  -24.0036  -27.2966   18.9289 H   0  0  0  0  0  0
  -23.8484  -30.5443   19.3863 H   0  0  0  0  0  0
  -22.8136  -29.2219   19.8267 H   0  0  0  0  0  0
  -25.1332  -36.1735   25.0779 H   0  0  0  0  0  0
  -21.0059  -28.3409   24.1289 H   0  0  0  0  0  0
  -20.5751  -26.2366   23.3613 H   0  0  0  0  0  0
  -21.6682  -26.7470   22.1150 H   0  0  0  0  0  0
  -19.6983  -25.6317   21.1219 H   0  0  0  0  0  0
  -19.6773  -27.3197   20.6708 H   0  0  0  0  0  0
  -17.4260  -26.6703   21.3973 H   0  0  0  0  0  0
  -18.0378  -26.0108   22.8978 H   0  0  0  0  0  0
  -19.7991  -30.7320   24.2165 H   0  0  0  0  0  0
  -17.5072  -31.6258   24.5204 H   0  0  0  0  0  0
  -15.5397  -30.2979   23.7731 H   0  0  0  0  0  0
  -15.8715  -28.0868   22.7029 H   0  0  0  0  0  0
  -24.6021  -30.6892   25.7568 H   0  0  0  0  0  0
  -24.8789  -32.2798   26.4552 H   0  0  0  0  0  0
  -25.8002  -30.8945   27.0141 H   0  0  0  0  0  0
  -26.3138  -29.6504   24.1338 H   0  0  0  0  0  0
  -27.4130  -29.7232   25.4886 H   0  0  0  0  0  0
  -27.9024  -30.4055   23.9599 H   0  0  0  0  0  0
  -27.2718  -33.3706   26.1733 H   0  0  0  0  0  0
  -28.3991  -32.6664   25.0258 H   0  0  0  0  0  0
  -28.0642  -31.8564   26.5483 H   0  0  0  0  0  0
  -28.2546  -38.0083   24.7517 H   0  0  0  0  0  0
  -28.1106  -36.2597   24.6313 H   0  0  0  0  0  0
  -27.2278  -37.1403   25.8876 H   0  0  0  0  0  0
  -20.9529  -29.8785   21.6660 H   0  0  0  0  0  0
  -26.0135  -38.2729   24.1440 H   0  0  0  0  0  0
  -26.9108  -22.0284   21.5032 H   0  0  0  0  0  0
  -31.4894  -17.7025   21.8714 H   0  0  0  0  0  0
  -30.2005  -18.7855   22.4743 H   0  0  0  0  0  0
  -28.4806  -16.9967   22.2901 H   0  0  0  0  0  0
  -29.9122  -16.0374   22.7732 H   0  0  0  0  0  0
  -28.8977  -18.0142   20.0284 H   0  0  0  0  0  0
  -26.2055  -19.8650   21.9179 H   0  0  0  0  0  0
  -27.5704  -19.1333   22.7627 H   0  0  0  0  0  0
  -26.9788  -18.4553   21.2351 H   0  0  0  0  0  0
  -30.7814  -23.8395   19.1668 H   0  0  0  0  0  0
  -29.9238  -23.1614   17.7804 H   0  0  0  0  0  0
  -31.3839  -22.3779   18.3923 H   0  0  0  0  0  0
  -26.8104  -24.2261   20.3302 H   0  0  0  0  0  0
  -27.7219  -24.3393   18.8747 H   0  0  0  0  0  0
  1 25  1  0  0  0
  1 30  2  0  0  0
  1 83  1  0  0  0
  2  3  1  0  0  0
  2 25  1  0  0  0
  2 84  1  0  0  0
  2 85  1  0  0  0
  3  4  1  0  0  0
  3 86  1  0  0  0
  3 87  1  0  0  0
  4  5  1  0  0  0
  4 88  1  0  0  0
  4 89  1  0  0  0
  5  6  1  0  0  0
  5 26  1  0  0  0
  5 90  1  0  0  0
  6 25  1  0  0  0
  6 91  1  0  0  0
  6 92  1  0  0  0
  7  8  2  0  0  0
  7 26  1  0  0  0
  7 29  1  0  0  0
  8  9  1  0  0  0
  8 22  1  0  0  0
  9 10  1  0  0  0
  9 27  2  0  0  0
 10 11  2  0  0  0
 10 15  1  0  0  0
 11 12  1  0  0  0
 11 93  1  0  0  0
 12 13  2  0  0  0
 12 94  1  0  0  0
 13 14  1  0  0  0
 13 31  1  0  0  0
 14 15  2  0  0  0
 14 95  1  0  0  0
 15 96  1  0  0  0
 16 17  2  0  0  0
 16 21  1  0  0  0
 16 31  1  0  0  0
 17 18  1  0  0  0
 17 97  1  0  0  0
 18 19  2  0  0  0
 18 98  1  0  0  0
 19 20  1  0  0  0
 19 24  1  0  0  0
 20 21  2  0  0  0
 20 99  1  0  0  0
 21 23  1  0  0  0
 22 28  1  0  0  0
 22 32  2  0  0  0
 26 27  1  0  0  0
 28100  1  0  0  0
 28101  1  0  0  0
 29102  1  0  0  0
 29103  1  0  0  0
 33 34  1  0  0  0
 33 66  1  0  0  0
 33 70  2  0  0  0
 34 36  1  0  0  0
 34 59  1  0  0  0
 34104  1  0  0  0
 35 44  2  0  0  0
 35 45  1  0  0  0
 35 68  1  0  0  0
 36 56  1  0  0  0
 36105  1  0  0  0
 37 39  1  0  0  0
 37 47  1  0  0  0
 37 66  1  0  0  0
 37106  1  0  0  0
 38 43  2  0  0  0
 38 46  1  0  0  0
 38 47  1  0  0  0
 39 64  1  0  0  0
 39 67  2  0  0  0
 40 52  1  0  0  0
 40 53  2  0  0  0
 40 58  1  0  0  0
 41107  1  0  0  0
 41108  1  0  0  0
 41109  1  0  0  0
 41 48  1  0  0  0
 42 43  1  0  0  0
 42 66  1  0  0  0
 42110  1  0  0  0
 42111  1  0  0  0
 43 44  1  0  0  0
 44112  1  0  0  0
 45 46  2  0  0  0
 45113  1  0  0  0
 46114  1  0  0  0
 47115  1  0  0  0
 47116  1  0  0  0
 48 56  1  0  0  0
 48 65  1  0  0  0
 48117  1  0  0  0
 49 50  1  0  0  0
 49 53  1  0  0  0
 49 64  1  0  0  0
 49118  1  0  0  0
 50 51  1  0  0  0
 50119  1  0  0  0
 50120  1  0  0  0
 51 52  1  0  0  0
 51121  1  0  0  0
 51122  1  0  0  0
 52123  1  0  0  0
 52124  1  0  0  0
 53 54  1  0  0  0
 54 55  2  0  0  0
 54125  1  0  0  0
 55 57  1  0  0  0
 55126  1  0  0  0
 56 69  2  0  0  0
 57 58  2  0  0  0
 57127  1  0  0  0
 58128  1  0  0  0
 59 60  1  0  0  0
 59 61  1  0  0  0
 59 62  1  0  0  0
 60129  1  0  0  0
 60130  1  0  0  0
 60131  1  0  0  0
 61132  1  0  0  0
 61133  1  0  0  0
 61134  1  0  0  0
 62135  1  0  0  0
 62136  1  0  0  0
 62137  1  0  0  0
 63 65  1  0  0  0
 63138  1  0  0  0
 63139  1  0  0  0
 63140  1  0  0  0
 64141  1  0  0  0
 65142  1  0  0  0
 68 81  1  0  0  0
 71 72  2  0  0  0
 71 73  1  0  0  0
 71143  1  0  0  0
 72 74  1  0  0  0
 72 79  1  0  0  0
 73 75  2  0  0  0
 73 81  1  0  0  0
 74 82  2  0  0  0
 74 78  1  0  0  0
 75 80  1  0  0  0
 75 82  1  0  0  0
 76 77  1  0  0  0
 76 78  1  0  0  0
 76144  1  0  0  0
 76145  1  0  0  0
 77 83  1  0  0  0
 77146  1  0  0  0
 77147  1  0  0  0
 78 83  1  0  0  0
 78148  1  0  0  0
 79149  1  0  0  0
 79150  1  0  0  0
 79151  1  0  0  0
 80152  1  0  0  0
 80153  1  0  0  0
 80154  1  0  0  0
 81155  1  0  0  0
 81156  1  0  0  0
M  ISO  4   1 100  68 101  81 101  83 100
M  END
> <chiral flag>
0

> <version>
0

> <s_m_source_file>
/data/baiqing/PycharmProjects/Reinvent-master-3.2/result/LINK_invent/BTK/process_docking_weight1_custom_sum_contain_oxygen_bond_distance_aromatic_linkinvent_7_9_3/rearranged_h_0177.sdf

> <i_m_source_file_index>
59

> <r_mmod_Potential_Energy-OPLS-2005>
1168.59460449219

> <r_mmod_Stretch_Energy-OPLS-2005>
457.938201904297

> <r_mmod_Bend_Energy-OPLS-2005>
639.158264160156

> <r_mmod_Torsional_Energy-OPLS-2005>
267.551177978516

> <r_mmod_Improper_Torsional_Energy-OPLS-2005>
14.3690977096558

> <r_mmod_Van_der_Waal_Energy-OPLS-2005>
138.440460205078

> <r_mmod_Electrostatic_Energy-OPLS-2005>
-504.984375

> <r_mmod_Solvation_Energy-OPLS-2005>
-221.05192565918

> <b_mmod_Minimization_Converged-OPLS-2005>
0

> <r_mmod_RMS_Derivative-OPLS-2005>
2.79894614219666

$$$$
59
                    3D
 Structure written by MMmdl.
162171  0  0  1  0            999 V2000
  -30.6073  -14.7361   20.4878 C   0  0  0  0  0  0
  -30.4382  -12.4630   19.4487 C   0  0  0  0  0  0
  -29.5009  -12.5078   18.2212 C   0  0  0  0  0  0
  -28.0294  -12.3290   18.6450 C   0  0  0  0  0  0
  -27.6395  -13.2279   19.8470 C   0  0  2  0  0  0
  -28.6902  -13.1480   20.9747 C   0  0  0  0  0  0
  -25.2493  -13.8181   20.5713 C   0  0  0  0  0  0
  -24.1786  -13.0431   20.9223 C   0  0  0  0  0  0
  -24.6381  -11.6906   20.8764 C   0  0  0  0  0  0
  -23.9073  -10.4285   21.0414 C   0  0  0  0  0  0
  -24.3625   -9.4204   21.9188 C   0  0  0  0  0  0
  -23.6298   -8.2238   22.0755 C   0  0  0  0  0  0
  -22.4275   -8.0277   21.3548 C   0  0  0  0  0  0
  -21.9919   -9.0249   20.4647 C   0  0  0  0  0  0
  -22.7252  -10.2129   20.3057 C   0  0  0  0  0  0
  -21.6845   -6.0735   22.5283 C   0  0  0  0  0  0
  -21.4007   -6.5644   23.8219 C   0  0  0  0  0  0
  -21.3658   -5.6793   24.9188 C   0  0  0  0  0  0
  -21.6046   -4.3055   24.7233 C   0  0  0  0  0  0
  -21.8813   -3.8151   23.4357 C   0  0  0  0  0  0
  -21.9193   -4.6963   22.3415 C   0  0  0  0  0  0
  -22.7812  -13.5205   21.1906 C   0  0  0  0  0  0
  -22.1658   -4.2147   21.0988 F   0  0  0  0  0  0
  -21.5637   -3.4542   25.7753 F   0  0  0  0  0  0
  -29.9873  -13.5122   20.3867 N   0  0  0  0  0  0
  -26.2919  -12.9385   20.3279 N   0  0  0  0  0  0
  -25.9306  -11.6536   20.5753 N   0  0  0  0  0  0
  -22.0467  -12.8170   22.0442 N   0  0  0  0  0  0
  -25.4160  -15.1918   20.4129 N   0  0  0  0  0  0
  -31.8039  -14.8588   20.2164 O   0  0  0  0  0  0
  -21.6639   -6.8879   21.4241 O   0  0  0  0  0  0
  -22.3499  -14.5526   20.6776 O   0  0  0  0  0  0
  -24.6324  -31.8561   23.1976 C   0  0  0  0  0  0
  -25.9130  -32.4778   23.8354 C   0  0  1  0  0  0
  -27.2279  -27.2593   20.1340 C   0  0  0  0  0  0
  -25.5909  -33.8578   24.2277 N   0  0  0  0  0  0
  -23.4304  -30.4783   21.5420 C   0  0  2  0  0  0
  -24.8814  -28.9243   20.1112 C   0  0  0  0  0  0
  -22.7528  -29.4598   22.4912 C   0  0  0  0  0  0
  -18.0303  -28.1392   22.8493 C   0  0  0  0  0  0
  -24.1474  -36.7284   23.2639 C   0  0  0  0  0  0
  -25.9783  -30.7679   21.3769 C   0  0  0  0  0  0
  -26.0534  -29.3896   20.7206 C   0  0  0  0  0  0
  -27.2298  -28.5714   20.7185 C   0  0  0  0  0  0
  -26.0280  -26.8593   19.5006 C   0  0  0  0  0  0
  -24.8756  -27.6694   19.4873 C   0  0  0  0  0  0
  -23.6490  -29.8093   20.1605 C   0  0  0  0  0  0
  -25.4101  -36.3092   24.0336 C   0  0  1  0  0  0
  -20.5913  -28.3691   23.1270 C   0  0  2  0  0  0
  -20.6786  -26.9403   22.5409 C   0  0  0  0  0  0
  -19.5756  -26.6386   21.5212 C   0  0  0  0  0  0
  -18.1932  -26.7934   22.1623 C   0  0  0  0  0  0
  -19.1558  -28.8857   23.2873 C   0  0  0  0  0  0
  -18.9471  -30.1452   23.8901 C   0  0  0  0  0  0
  -17.6470  -30.6593   24.0552 C   0  0  0  0  0  0
  -25.9050  -34.9460   23.5119 C   0  0  0  0  0  0
  -16.5363  -29.9086   23.6331 C   0  0  0  0  0  0
  -16.7288  -28.6499   23.0368 C   0  0  0  0  0  0
  -26.4486  -31.6614   25.0755 C   0  0  0  0  0  0
  -25.3676  -31.3703   26.1446 C   0  0  0  0  0  0
  -27.0333  -30.3056   24.6207 C   0  0  0  0  0  0
  -27.6061  -32.4350   25.7508 C   0  0  0  0  0  0
  -27.5581  -37.1786   24.8460 C   0  0  0  0  0  0
  -21.4235  -29.3035   22.3651 N   0  0  0  0  0  0
  -26.4284  -37.3798   23.9423 N   0  0  0  0  0  0
  -24.7000  -31.0517   22.0960 N   0  0  0  0  0  0
  -23.4235  -28.8127   23.2996 O   0  0  0  0  0  0
  -28.3264  -26.3662   20.1960 O   0  0  0  0  0  0
  -26.5638  -34.8921   22.4705 O   0  0  0  0  0  0
  -23.5468  -32.1385   23.7275 O   0  0  0  0  0  0
  -29.4428  -19.8610   20.8400 C   0  0  0  0  0  0
  -30.1289  -20.9572   18.7679 C   0  0  0  0  0  0
  -29.4977  -21.0853   20.0539 C   0  0  0  0  0  0
  -29.9374  -18.5786   20.3733 C   0  0  0  0  0  0
  -30.4827  -19.6401   18.3131 C   0  0  0  0  0  0
  -31.5026  -22.2933   16.8628 C   0  0  0  0  0  0
  -31.5683  -23.0815   18.1299 C   0  0  0  0  0  0
  -30.3722  -22.1704   17.8842 C   0  0  0  0  0  0
  -30.9381  -19.2988   16.9018 C   0  0  0  0  0  0
  -30.1147  -17.2439   21.2193 C   0  0  0  0  0  0
  -29.2289  -23.7884   20.4206 C   0  0  0  0  0  0
  -28.0759  -24.8830   20.1134 C   0  0  0  0  0  0
  -30.4003  -18.5571   19.1187 N   0  3  0  0  0  0
  -28.8521  -22.3124   20.5199 N   0  0  0  0  0  0
  -29.8053  -15.8426   20.7011 N   0  0  0  0  0  0
  -31.4718  -12.6120   19.1338 H   0  0  0  0  0  0
  -30.4068  -11.4831   19.9264 H   0  0  0  0  0  0
  -29.7787  -11.7335   17.5046 H   0  0  0  0  0  0
  -29.6182  -13.4599   17.7003 H   0  0  0  0  0  0
  -27.8913  -11.2809   18.9108 H   0  0  0  0  0  0
  -27.3656  -12.5171   17.8006 H   0  0  0  0  0  0
  -27.6343  -14.2501   19.4697 H   0  0  0  0  0  0
  -28.7278  -12.1428   21.3977 H   0  0  0  0  0  0
  -28.4263  -13.8137   21.7986 H   0  0  0  0  0  0
  -25.2763   -9.5672   22.4768 H   0  0  0  0  0  0
  -24.0007   -7.4623   22.7468 H   0  0  0  0  0  0
  -21.0861   -8.8768   19.8947 H   0  0  0  0  0  0
  -22.3715  -10.9666   19.6169 H   0  0  0  0  0  0
  -21.1981   -7.6144   23.9722 H   0  0  0  0  0  0
  -21.1487   -6.0527   25.9089 H   0  0  0  0  0  0
  -22.0591   -2.7609   23.2864 H   0  0  0  0  0  0
  -22.4088  -11.9802   22.4776 H   0  0  0  0  0  0
  -21.1081  -13.1172   22.2685 H   0  0  0  0  0  0
  -24.6435  -15.8397   20.5257 H   0  0  0  0  0  0
  -26.2539  -15.6367   20.0587 H   0  0  0  0  0  0
  -26.7197  -32.5432   23.1091 H   0  0  0  0  0  0
  -24.9992  -33.9701   25.0385 H   0  0  0  0  0  0
  -22.7270  -31.3003   21.3927 H   0  0  0  0  0  0
  -23.3769  -35.9579   23.3290 H   0  0  0  0  0  0
  -24.3554  -36.8948   22.2057 H   0  0  0  0  0  0
  -23.7184  -37.6461   23.6679 H   0  0  0  0  0  0
  -26.1113  -31.5232   20.6019 H   0  0  0  0  0  0
  -26.8590  -30.8276   22.0051 H   0  0  0  0  0  0
  -28.1276  -28.9198   21.2095 H   0  0  0  0  0  0
  -25.9451  -25.8971   19.0198 H   0  0  0  0  0  0
  -23.9787  -27.3100   19.0014 H   0  0  0  0  0  0
  -23.7671  -30.5834   19.4021 H   0  0  0  0  0  0
  -22.7704  -29.2370   19.8596 H   0  0  0  0  0  0
  -25.1268  -36.1947   25.0824 H   0  0  0  0  0  0
  -20.9997  -28.3274   24.1395 H   0  0  0  0  0  0
  -20.5687  -26.2284   23.3610 H   0  0  0  0  0  0
  -21.6644  -26.7426   22.1186 H   0  0  0  0  0  0
  -19.6908  -25.6292   21.1246 H   0  0  0  0  0  0
  -19.6714  -27.3189   20.6734 H   0  0  0  0  0  0
  -17.4203  -26.6700   21.4023 H   0  0  0  0  0  0
  -18.0323  -26.0067   22.9006 H   0  0  0  0  0  0
  -19.7943  -30.7257   24.2303 H   0  0  0  0  0  0
  -17.5023  -31.6279   24.5138 H   0  0  0  0  0  0
  -15.5358  -30.2981   23.7665 H   0  0  0  0  0  0
  -15.8684  -28.0808   22.7109 H   0  0  0  0  0  0
  -24.5943  -30.6963   25.7741 H   0  0  0  0  0  0
  -24.8713  -32.2810   26.4817 H   0  0  0  0  0  0
  -25.7972  -30.8945   27.0271 H   0  0  0  0  0  0
  -26.2917  -29.6807   24.1226 H   0  0  0  0  0  0
  -27.4048  -29.7313   25.4699 H   0  0  0  0  0  0
  -27.8770  -30.4383   23.9431 H   0  0  0  0  0  0
  -27.2768  -33.3737   26.1977 H   0  0  0  0  0  0
  -28.3917  -32.6784   25.0337 H   0  0  0  0  0  0
  -28.0665  -31.8523   26.5498 H   0  0  0  0  0  0
  -28.2567  -38.0114   24.7581 H   0  0  0  0  0  0
  -28.1122  -36.2659   24.6216 H   0  0  0  0  0  0
  -27.2302  -37.1349   25.8860 H   0  0  0  0  0  0
  -20.9432  -29.8761   21.6853 H   0  0  0  0  0  0
  -26.0179  -38.2869   24.1470 H   0  0  0  0  0  0
  -29.0280  -19.9015   21.8363 H   0  0  0  0  0  0
  -32.2787  -21.5384   16.7768 H   0  0  0  0  0  0
  -31.3104  -22.8595   15.9533 H   0  0  0  0  0  0
  -31.4408  -24.1575   18.0266 H   0  0  0  0  0  0
  -32.3016  -22.7692   18.8727 H   0  0  0  0  0  0
  -29.4284  -22.6539   17.6371 H   0  0  0  0  0  0
  -30.4923  -19.9582   16.1590 H   0  0  0  0  0  0
  -30.6268  -18.2892   16.6331 H   0  0  0  0  0  0
  -32.0236  -19.3347   16.8166 H   0  0  0  0  0  0
  -29.5007  -17.3676   22.1117 H   0  0  0  0  0  0
  -31.1406  -17.2442   21.5916 H   0  0  0  0  0  0
  -29.6630  -24.0519   21.3866 H   0  0  0  0  0  0
  -30.0341  -23.9523   19.7234 H   0  0  0  0  0  0
  -27.2425  -24.6623   20.7814 H   0  0  0  0  0  0
  -27.7194  -24.6674   19.1065 H   0  0  0  0  0  0
  -30.7345  -17.6620   18.7570 H   0  0  0  0  0  0
  -28.1723  -22.1456   21.2553 H   0  0  0  0  0  0
  -28.8235  -15.6162   20.7342 H   0  0  0  0  0  0
  1 25  1  0  0  0
  1 30  2  0  0  0
  1 85  1  0  0  0
  2  3  1  0  0  0
  2 25  1  0  0  0
  2 86  1  0  0  0
  2 87  1  0  0  0
  3  4  1  0  0  0
  3 88  1  0  0  0
  3 89  1  0  0  0
  4  5  1  0  0  0
  4 90  1  0  0  0
  4 91  1  0  0  0
  5  6  1  0  0  0
  5 26  1  0  0  0
  5 92  1  0  0  0
  6 25  1  0  0  0
  6 93  1  0  0  0
  6 94  1  0  0  0
  7  8  2  0  0  0
  7 26  1  0  0  0
  7 29  1  0  0  0
  8  9  1  0  0  0
  8 22  1  0  0  0
  9 10  1  0  0  0
  9 27  2  0  0  0
 10 11  2  0  0  0
 10 15  1  0  0  0
 11 12  1  0  0  0
 11 95  1  0  0  0
 12 13  2  0  0  0
 12 96  1  0  0  0
 13 14  1  0  0  0
 13 31  1  0  0  0
 14 15  2  0  0  0
 14 97  1  0  0  0
 15 98  1  0  0  0
 16 17  2  0  0  0
 16 21  1  0  0  0
 16 31  1  0  0  0
 17 18  1  0  0  0
 17 99  1  0  0  0
 18 19  2  0  0  0
 18100  1  0  0  0
 19 20  1  0  0  0
 19 24  1  0  0  0
 20 21  2  0  0  0
 20101  1  0  0  0
 21 23  1  0  0  0
 22 28  1  0  0  0
 22 32  2  0  0  0
 26 27  1  0  0  0
 28102  1  0  0  0
 28103  1  0  0  0
 29104  1  0  0  0
 29105  1  0  0  0
 33 34  1  0  0  0
 33 66  1  0  0  0
 33 70  2  0  0  0
 34 36  1  0  0  0
 34 59  1  0  0  0
 34106  1  0  0  0
 35 44  2  0  0  0
 35 45  1  0  0  0
 35 68  1  0  0  0
 36 56  1  0  0  0
 36107  1  0  0  0
 37 39  1  0  0  0
 37 47  1  0  0  0
 37 66  1  0  0  0
 37108  1  0  0  0
 38 43  2  0  0  0
 38 46  1  0  0  0
 38 47  1  0  0  0
 39 64  1  0  0  0
 39 67  2  0  0  0
 40 52  1  0  0  0
 40 53  2  0  0  0
 40 58  1  0  0  0
 41109  1  0  0  0
 41110  1  0  0  0
 41111  1  0  0  0
 41 48  1  0  0  0
 42 43  1  0  0  0
 42 66  1  0  0  0
 42112  1  0  0  0
 42113  1  0  0  0
 43 44  1  0  0  0
 44114  1  0  0  0
 45 46  2  0  0  0
 45115  1  0  0  0
 46116  1  0  0  0
 47117  1  0  0  0
 47118  1  0  0  0
 48 56  1  0  0  0
 48 65  1  0  0  0
 48119  1  0  0  0
 49 50  1  0  0  0
 49 53  1  0  0  0
 49 64  1  0  0  0
 49120  1  0  0  0
 50 51  1  0  0  0
 50121  1  0  0  0
 50122  1  0  0  0
 51 52  1  0  0  0
 51123  1  0  0  0
 51124  1  0  0  0
 52125  1  0  0  0
 52126  1  0  0  0
 53 54  1  0  0  0
 54 55  2  0  0  0
 54127  1  0  0  0
 55 57  1  0  0  0
 55128  1  0  0  0
 56 69  2  0  0  0
 57 58  2  0  0  0
 57129  1  0  0  0
 58130  1  0  0  0
 59 60  1  0  0  0
 59 61  1  0  0  0
 59 62  1  0  0  0
 60131  1  0  0  0
 60132  1  0  0  0
 60133  1  0  0  0
 61134  1  0  0  0
 61135  1  0  0  0
 61136  1  0  0  0
 62137  1  0  0  0
 62138  1  0  0  0
 62139  1  0  0  0
 63 65  1  0  0  0
 63140  1  0  0  0
 63141  1  0  0  0
 63142  1  0  0  0
 64143  1  0  0  0
 65144  1  0  0  0
 68 82  1  0  0  0
 71 73  2  0  0  0
 71 74  1  0  0  0
 71145  1  0  0  0
 72 73  1  0  0  0
 72 75  2  0  0  0
 72 78  1  0  0  0
 73 84  1  0  0  0
 74 80  1  0  0  0
 74 83  2  0  0  0
 75 79  1  0  0  0
 75 83  1  0  0  0
 76 77  1  0  0  0
 76 78  1  0  0  0
 76146  1  0  0  0
 76147  1  0  0  0
 77 78  1  0  0  0
 77148  1  0  0  0
 77149  1  0  0  0
 78150  1  0  0  0
 79151  1  0  0  0
 79152  1  0  0  0
 79153  1  0  0  0
 80 85  1  0  0  0
 80154  1  0  0  0
 80155  1  0  0  0
 81 82  1  0  0  0
 81 84  1  0  0  0
 81156  1  0  0  0
 81157  1  0  0  0
 82158  1  0  0  0
 82159  1  0  0  0
 83160  1  0  0  0
 84161  1  0  0  0
 85162  1  0  0  0
M  CHG  1  83   1
M  ISO  4   1 100  68 101  82 101  85 100
M  END
> <chiral flag>
0

> <version>
0

> <s_m_source_file>
/data/baiqing/PycharmProjects/Reinvent-master-3.2/result/LINK_invent/BTK/process_docking_weight1_custom_sum_contain_oxygen_bond_distance_aromatic_linkinvent_7_9_3/rearranged_h_0177.sdf

> <i_m_source_file_index>
60

> <r_mmod_Potential_Energy-OPLS-2005>
70.6707229614258

> <r_mmod_Stretch_Energy-OPLS-2005>
125.77677154541

> <r_mmod_Bend_Energy-OPLS-2005>
193.338226318359

> <r_mmod_Torsional_Energy-OPLS-2005>
249.000396728516

> <r_mmod_Improper_Torsional_Energy-OPLS-2005>
6.50736522674561

> <r_mmod_Van_der_Waal_Energy-OPLS-2005>
147.67707824707

> <r_mmod_Electrostatic_Energy-OPLS-2005>
-319.439819335938

> <r_mmod_Solvation_Energy-OPLS-2005>
-418.132873535156

> <b_mmod_Minimization_Converged-OPLS-2005>
0

> <r_mmod_RMS_Derivative-OPLS-2005>
2.56951904296875

$$$$
60
                    3D
 Structure written by MMmdl.
163172  0  0  1  0            999 V2000
  -30.6512  -14.5058   20.5162 C   0  0  0  0  0  0
  -30.4407  -12.3066   19.4199 C   0  0  0  0  0  0
  -29.5001  -12.4638   18.2038 C   0  0  0  0  0  0
  -28.0151  -12.3609   18.6157 C   0  0  0  0  0  0
  -27.6658  -13.1981   19.8746 C   0  0  2  0  0  0
  -28.7121  -12.9692   20.9895 C   0  0  0  0  0  0
  -25.2628  -13.8149   20.5704 C   0  0  0  0  0  0
  -24.1860  -13.0443   20.9182 C   0  0  0  0  0  0
  -24.6382  -11.6905   20.8735 C   0  0  0  0  0  0
  -23.9039  -10.4292   21.0406 C   0  0  0  0  0  0
  -24.3605   -9.4205   21.9178 C   0  0  0  0  0  0
  -23.6284   -8.2240   22.0751 C   0  0  0  0  0  0
  -22.4254   -8.0285   21.3550 C   0  0  0  0  0  0
  -21.9884   -9.0251   20.4651 C   0  0  0  0  0  0
  -22.7208  -10.2134   20.3054 C   0  0  0  0  0  0
  -21.6835   -6.0729   22.5268 C   0  0  0  0  0  0
  -21.4017   -6.5631   23.8204 C   0  0  0  0  0  0
  -21.3655   -5.6780   24.9169 C   0  0  0  0  0  0
  -21.6043   -4.3037   24.7212 C   0  0  0  0  0  0
  -21.8812   -3.8143   23.4322 C   0  0  0  0  0  0
  -21.9198   -4.6968   22.3390 C   0  0  0  0  0  0
  -22.7878  -13.5269   21.1807 C   0  0  0  0  0  0
  -22.1663   -4.2153   21.0967 F   0  0  0  0  0  0
  -21.5631   -3.4522   25.7722 F   0  0  0  0  0  0
  -30.0390  -13.2919   20.4343 N   0  0  0  0  0  0
  -26.3047  -12.9303   20.3378 N   0  0  0  0  0  0
  -25.9313  -11.6467   20.5768 N   0  0  0  0  0  0
  -22.0495  -12.8308   22.0374 N   0  0  0  0  0  0
  -25.4385  -15.1858   20.4094 N   0  0  0  0  0  0
  -31.8025  -14.6999   20.1066 O   0  0  0  0  0  0
  -21.6632   -6.8870   21.4227 O   0  0  0  0  0  0
  -22.3593  -14.5575   20.6630 O   0  0  0  0  0  0
  -24.6130  -31.8647   23.2070 C   0  0  0  0  0  0
  -25.9018  -32.4794   23.8362 C   0  0  1  0  0  0
  -27.2576  -27.4380   20.0777 C   0  0  0  0  0  0
  -25.5860  -33.8597   24.2285 N   0  0  0  0  0  0
  -23.4022  -30.4848   21.5457 C   0  0  2  0  0  0
  -24.8546  -28.9485   20.1081 C   0  0  0  0  0  0
  -22.7391  -29.4631   22.4973 C   0  0  0  0  0  0
  -18.0259  -28.1384   22.8482 C   0  0  0  0  0  0
  -24.1477  -36.7316   23.2641 C   0  0  0  0  0  0
  -25.9294  -30.8245   21.3627 C   0  0  0  0  0  0
  -26.0092  -29.4582   20.7129 C   0  0  0  0  0  0
  -27.2043  -28.7034   20.7106 C   0  0  0  0  0  0
  -26.0806  -26.9371   19.4756 C   0  0  0  0  0  0
  -24.8860  -27.6868   19.4888 C   0  0  0  0  0  0
  -23.6117  -29.8111   20.1605 C   0  0  0  0  0  0
  -25.4097  -36.3097   24.0335 C   0  0  1  0  0  0
  -20.5845  -28.3669   23.1316 C   0  0  2  0  0  0
  -20.6738  -26.9406   22.5423 C   0  0  0  0  0  0
  -19.5732  -26.6392   21.5203 C   0  0  0  0  0  0
  -18.1910  -26.7922   22.1616 C   0  0  0  0  0  0
  -19.1516  -28.8843   23.2890 C   0  0  0  0  0  0
  -18.9446  -30.1441   23.8915 C   0  0  0  0  0  0
  -17.6463  -30.6589   24.0578 C   0  0  0  0  0  0
  -25.9036  -34.9467   23.5116 C   0  0  0  0  0  0
  -16.5348  -29.9106   23.6328 C   0  0  0  0  0  0
  -16.7255  -28.6516   23.0348 C   0  0  0  0  0  0
  -26.4468  -31.6582   25.0692 C   0  0  0  0  0  0
  -25.3746  -31.3683   26.1448 C   0  0  0  0  0  0
  -27.0303  -30.3025   24.6062 C   0  0  0  0  0  0
  -27.6036  -32.4320   25.7442 C   0  0  0  0  0  0
  -27.5574  -37.1799   24.8462 C   0  0  0  0  0  0
  -21.4124  -29.3026   22.3720 N   0  0  0  0  0  0
  -26.4278  -37.3786   23.9424 N   0  0  0  0  0  0
  -24.6656  -31.0733   22.0971 N   0  0  0  0  0  0
  -23.4176  -28.8182   23.3021 O   0  0  0  0  0  0
  -28.4332  -26.7115   20.1350 O   0  0  0  0  0  0
  -26.5625  -34.8937   22.4701 O   0  0  0  0  0  0
  -23.5324  -32.1407   23.7479 O   0  0  0  0  0  0
  -29.2569  -19.0648   21.3950 C   0  0  0  0  0  0
  -29.2285  -19.5905   20.0932 C   0  0  0  0  0  0
  -29.4759  -18.7266   19.0358 C   0  0  0  0  0  0
  -29.7565  -17.3549   19.2634 C   0  0  0  0  0  0
  -29.7856  -16.8897   20.6177 C   0  0  0  0  0  0
  -29.2549  -19.4198   17.7120 C   0  0  0  0  0  0
  -29.0158  -20.9013   18.0864 C   0  0  0  0  0  0
  -28.7432  -20.9665   19.6145 C   0  0  2  0  0  0
  -29.9159  -16.4182   18.0686 C   0  0  0  0  0  0
  -28.6082  -23.4616   19.9422 C   0  0  0  0  0  0
  -28.8590  -25.9209   19.0136 C   0  0  0  0  0  0
  -29.5479  -24.5959   19.4578 C   0  0  1  0  0  0
  -29.5326  -17.7565   21.6366 N   0  0  0  0  0  0
  -29.8474  -15.4987   20.9511 N   0  0  0  0  0  0
  -29.3383  -22.1893   20.2324 N   0  3  0  0  0  0
  -30.5293  -24.9029   20.4353 O   0  0  0  0  0  0
  -31.4815  -12.4239   19.1113 H   0  0  0  0  0  0
  -30.3695  -11.2990   19.8305 H   0  0  0  0  0  0
  -29.7244  -11.6963   17.4605 H   0  0  0  0  0  0
  -29.6844  -13.4165   17.7103 H   0  0  0  0  0  0
  -27.7946  -11.3086   18.7990 H   0  0  0  0  0  0
  -27.3765  -12.6618   17.7846 H   0  0  0  0  0  0
  -27.7101  -14.2461   19.5756 H   0  0  0  0  0  0
  -28.6965  -11.9275   21.3146 H   0  0  0  0  0  0
  -28.4786  -13.5522   21.8814 H   0  0  0  0  0  0
  -25.2747   -9.5688   22.4756 H   0  0  0  0  0  0
  -23.9978   -7.4632   22.7481 H   0  0  0  0  0  0
  -21.0796   -8.8771   19.8960 H   0  0  0  0  0  0
  -22.3658  -10.9674   19.6166 H   0  0  0  0  0  0
  -21.2008   -7.6143   23.9701 H   0  0  0  0  0  0
  -21.1484   -6.0518   25.9069 H   0  0  0  0  0  0
  -22.0602   -2.7606   23.2820 H   0  0  0  0  0  0
  -22.4094  -11.9996   22.4805 H   0  0  0  0  0  0
  -21.1116  -13.1375   22.2544 H   0  0  0  0  0  0
  -24.6700  -15.8397   20.5117 H   0  0  0  0  0  0
  -26.2886  -15.6190   20.0737 H   0  0  0  0  0  0
  -26.7082  -32.5509   23.1118 H   0  0  0  0  0  0
  -24.9918  -33.9735   25.0360 H   0  0  0  0  0  0
  -22.6895  -31.2998   21.4022 H   0  0  0  0  0  0
  -23.3722  -35.9665   23.3304 H   0  0  0  0  0  0
  -24.3559  -36.8932   22.2051 H   0  0  0  0  0  0
  -23.7250  -37.6526   23.6670 H   0  0  0  0  0  0
  -26.0387  -31.5857   20.5892 H   0  0  0  0  0  0
  -26.8169  -30.8829   21.9805 H   0  0  0  0  0  0
  -28.0920  -29.0901   21.1939 H   0  0  0  0  0  0
  -26.0611  -25.9629   19.0114 H   0  0  0  0  0  0
  -23.9999  -27.2857   19.0180 H   0  0  0  0  0  0
  -23.7110  -30.5778   19.3921 H   0  0  0  0  0  0
  -22.7389  -29.2219   19.8749 H   0  0  0  0  0  0
  -25.1278  -36.1940   25.0824 H   0  0  0  0  0  0
  -20.9935  -28.3249   24.1438 H   0  0  0  0  0  0
  -20.5610  -26.2299   23.3614 H   0  0  0  0  0  0
  -21.6619  -26.7429   22.1256 H   0  0  0  0  0  0
  -19.6904  -25.6307   21.1226 H   0  0  0  0  0  0
  -19.6667  -27.3208   20.6735 H   0  0  0  0  0  0
  -17.4171  -26.6651   21.4019 H   0  0  0  0  0  0
  -18.0332  -26.0059   22.9016 H   0  0  0  0  0  0
  -19.7927  -30.7232   24.2309 H   0  0  0  0  0  0
  -17.5027  -31.6277   24.5169 H   0  0  0  0  0  0
  -15.5361  -30.3037   23.7624 H   0  0  0  0  0  0
  -15.8633  -28.0853   22.7069 H   0  0  0  0  0  0
  -24.5895  -30.7059   25.7780 H   0  0  0  0  0  0
  -24.8973  -32.2844   26.4940 H   0  0  0  0  0  0
  -25.8114  -30.8807   27.0170 H   0  0  0  0  0  0
  -26.2838  -29.6758   24.1165 H   0  0  0  0  0  0
  -27.4118  -29.7286   25.4514 H   0  0  0  0  0  0
  -27.8658  -30.4328   23.9177 H   0  0  0  0  0  0
  -27.2628  -33.3596   26.2053 H   0  0  0  0  0  0
  -28.3816  -32.6914   25.0251 H   0  0  0  0  0  0
  -28.0741  -31.8427   26.5315 H   0  0  0  0  0  0
  -28.2596  -38.0090   24.7521 H   0  0  0  0  0  0
  -28.1059  -36.2627   24.6273 H   0  0  0  0  0  0
  -27.2303  -37.1447   25.8865 H   0  0  0  0  0  0
  -20.9296  -29.8764   21.6938 H   0  0  0  0  0  0
  -26.0155  -38.2861   24.1428 H   0  0  0  0  0  0
  -29.0077  -19.6746   22.2518 H   0  0  0  0  0  0
  -28.3696  -19.0001   17.2339 H   0  0  0  0  0  0
  -30.1050  -19.3005   17.0402 H   0  0  0  0  0  0
  -28.2254  -21.3607   17.4920 H   0  0  0  0  0  0
  -29.9321  -21.4466   17.8589 H   0  0  0  0  0  0
  -27.6646  -20.9814   19.7861 H   0  0  0  0  0  0
  -29.7717  -16.9154   17.1096 H   0  0  0  0  0  0
  -29.1799  -15.6193   18.1224 H   0  0  0  0  0  0
  -30.9104  -15.9757   18.0379 H   0  0  0  0  0  0
  -27.8568  -23.2903   19.1715 H   0  0  0  0  0  0
  -28.0597  -23.7645   20.8341 H   0  0  0  0  0  0
  -28.0723  -25.7095   18.2932 H   0  0  0  0  0  0
  -29.5874  -26.5225   18.4677 H   0  0  0  0  0  0
  -30.0792  -24.2162   18.5836 H   0  0  0  0  0  0
  -29.0512  -15.1667   21.4702 H   0  0  0  0  0  0
  -30.2960  -22.3025   19.9448 H   0  0  0  0  0  0
  -29.3487  -22.0969   21.2337 H   0  0  0  0  0  0
  -30.1625  -25.5984   20.9796 H   0  0  0  0  0  0
  1 25  1  0  0  0
  1 30  2  0  0  0
  1 84  1  0  0  0
  2  3  1  0  0  0
  2 25  1  0  0  0
  2 87  1  0  0  0
  2 88  1  0  0  0
  3  4  1  0  0  0
  3 89  1  0  0  0
  3 90  1  0  0  0
  4  5  1  0  0  0
  4 91  1  0  0  0
  4 92  1  0  0  0
  5  6  1  0  0  0
  5 26  1  0  0  0
  5 93  1  0  0  0
  6 25  1  0  0  0
  6 94  1  0  0  0
  6 95  1  0  0  0
  7  8  2  0  0  0
  7 26  1  0  0  0
  7 29  1  0  0  0
  8  9  1  0  0  0
  8 22  1  0  0  0
  9 10  1  0  0  0
  9 27  2  0  0  0
 10 11  2  0  0  0
 10 15  1  0  0  0
 11 12  1  0  0  0
 11 96  1  0  0  0
 12 13  2  0  0  0
 12 97  1  0  0  0
 13 14  1  0  0  0
 13 31  1  0  0  0
 14 15  2  0  0  0
 14 98  1  0  0  0
 15 99  1  0  0  0
 16 17  2  0  0  0
 16 21  1  0  0  0
 16 31  1  0  0  0
 17 18  1  0  0  0
 17100  1  0  0  0
 18 19  2  0  0  0
 18101  1  0  0  0
 19 20  1  0  0  0
 19 24  1  0  0  0
 20 21  2  0  0  0
 20102  1  0  0  0
 21 23  1  0  0  0
 22 28  1  0  0  0
 22 32  2  0  0  0
 26 27  1  0  0  0
 28103  1  0  0  0
 28104  1  0  0  0
 29105  1  0  0  0
 29106  1  0  0  0
 33 34  1  0  0  0
 33 66  1  0  0  0
 33 70  2  0  0  0
 34 36  1  0  0  0
 34 59  1  0  0  0
 34107  1  0  0  0
 35 44  2  0  0  0
 35 45  1  0  0  0
 35 68  1  0  0  0
 36 56  1  0  0  0
 36108  1  0  0  0
 37 39  1  0  0  0
 37 47  1  0  0  0
 37 66  1  0  0  0
 37109  1  0  0  0
 38 43  2  0  0  0
 38 46  1  0  0  0
 38 47  1  0  0  0
 39 64  1  0  0  0
 39 67  2  0  0  0
 40 52  1  0  0  0
 40 53  2  0  0  0
 40 58  1  0  0  0
 41110  1  0  0  0
 41111  1  0  0  0
 41112  1  0  0  0
 41 48  1  0  0  0
 42 43  1  0  0  0
 42 66  1  0  0  0
 42113  1  0  0  0
 42114  1  0  0  0
 43 44  1  0  0  0
 44115  1  0  0  0
 45 46  2  0  0  0
 45116  1  0  0  0
 46117  1  0  0  0
 47118  1  0  0  0
 47119  1  0  0  0
 48 56  1  0  0  0
 48 65  1  0  0  0
 48120  1  0  0  0
 49 50  1  0  0  0
 49 53  1  0  0  0
 49 64  1  0  0  0
 49121  1  0  0  0
 50 51  1  0  0  0
 50122  1  0  0  0
 50123  1  0  0  0
 51 52  1  0  0  0
 51124  1  0  0  0
 51125  1  0  0  0
 52126  1  0  0  0
 52127  1  0  0  0
 53 54  1  0  0  0
 54 55  2  0  0  0
 54128  1  0  0  0
 55 57  1  0  0  0
 55129  1  0  0  0
 56 69  2  0  0  0
 57 58  2  0  0  0
 57130  1  0  0  0
 58131  1  0  0  0
 59 60  1  0  0  0
 59 61  1  0  0  0
 59 62  1  0  0  0
 60132  1  0  0  0
 60133  1  0  0  0
 60134  1  0  0  0
 61135  1  0  0  0
 61136  1  0  0  0
 61137  1  0  0  0
 62138  1  0  0  0
 62139  1  0  0  0
 62140  1  0  0  0
 63 65  1  0  0  0
 63141  1  0  0  0
 63142  1  0  0  0
 63143  1  0  0  0
 64144  1  0  0  0
 65145  1  0  0  0
 68 81  1  0  0  0
 71 72  2  0  0  0
 71 83  1  0  0  0
 71146  1  0  0  0
 72 73  1  0  0  0
 72 78  1  0  0  0
 73 74  2  0  0  0
 73 76  1  0  0  0
 74 75  1  0  0  0
 74 79  1  0  0  0
 75 83  2  0  0  0
 75 84  1  0  0  0
 76 77  1  0  0  0
 76147  1  0  0  0
 76148  1  0  0  0
 77 78  1  0  0  0
 77149  1  0  0  0
 77150  1  0  0  0
 78 85  1  0  0  0
 78151  1  0  0  0
 79152  1  0  0  0
 79153  1  0  0  0
 79154  1  0  0  0
 80 82  1  0  0  0
 80 85  1  0  0  0
 80155  1  0  0  0
 80156  1  0  0  0
 81 82  1  0  0  0
 81157  1  0  0  0
 81158  1  0  0  0
 82 86  1  0  0  0
 82159  1  0  0  0
 84160  1  0  0  0
 85161  1  0  0  0
 85162  1  0  0  0
 86163  1  0  0  0
M  CHG  1  85   1
M  ISO  4   1 100  68 101  81 101  84 100
M  END
> <chiral flag>
0

> <version>
0

> <s_m_source_file>
/data/baiqing/PycharmProjects/Reinvent-master-3.2/result/LINK_invent/BTK/process_docking_weight1_custom_sum_contain_oxygen_bond_distance_aromatic_linkinvent_7_9_3/rearranged_h_0177.sdf

> <i_m_source_file_index>
61

> <r_mmod_Potential_Energy-OPLS-2005>
-300.408203125

> <r_mmod_Stretch_Energy-OPLS-2005>
44.1926422119141

> <r_mmod_Bend_Energy-OPLS-2005>
163.412521362305

> <r_mmod_Torsional_Energy-OPLS-2005>
294.970764160156

> <r_mmod_Improper_Torsional_Energy-OPLS-2005>
6.80250644683838

> <r_mmod_Van_der_Waal_Energy-OPLS-2005>
143.943344116211

> <r_mmod_Electrostatic_Energy-OPLS-2005>
-486.319061279297

> <r_mmod_Solvation_Energy-OPLS-2005>
-484.293029785156

> <b_mmod_Minimization_Converged-OPLS-2005>
0

> <r_mmod_RMS_Derivative-OPLS-2005>
3.50214862823486

$$$$
61
                    3D
 Structure written by MMmdl.
153162  0  0  1  0            999 V2000
  -30.5078  -15.1157   20.3723 C   0  0  0  0  0  0
  -30.4320  -12.7014   19.5277 C   0  0  0  0  0  0
  -29.5299  -12.5553   18.2804 C   0  0  0  0  0  0
  -28.0718  -12.3048   18.7005 C   0  0  0  0  0  0
  -27.6155  -13.2719   19.8246 C   0  0  2  0  0  0
  -28.6484  -13.3955   20.9634 C   0  0  0  0  0  0
  -25.2408  -13.8271   20.5734 C   0  0  0  0  0  0
  -24.1737  -13.0470   20.9206 C   0  0  0  0  0  0
  -24.6378  -11.6964   20.8727 C   0  0  0  0  0  0
  -23.9077  -10.4319   21.0369 C   0  0  0  0  0  0
  -24.3625   -9.4237   21.9144 C   0  0  0  0  0  0
  -23.6292   -8.2276   22.0730 C   0  0  0  0  0  0
  -22.4274   -8.0297   21.3517 C   0  0  0  0  0  0
  -21.9898   -9.0273   20.4631 C   0  0  0  0  0  0
  -22.7243  -10.2145   20.3021 C   0  0  0  0  0  0
  -21.6868   -6.0740   22.5262 C   0  0  0  0  0  0
  -21.4051   -6.5638   23.8199 C   0  0  0  0  0  0
  -21.3662   -5.6778   24.9144 C   0  0  0  0  0  0
  -21.6042   -4.3041   24.7186 C   0  0  0  0  0  0
  -21.8832   -3.8134   23.4307 C   0  0  0  0  0  0
  -21.9206   -4.6965   22.3372 C   0  0  0  0  0  0
  -22.7757  -13.5230   21.1856 C   0  0  0  0  0  0
  -22.1667   -4.2158   21.0946 F   0  0  0  0  0  0
  -21.5602   -3.4530   25.7698 F   0  0  0  0  0  0
  -29.9055  -13.8418   20.3486 N   0  0  0  0  0  0
  -26.2820  -12.9540   20.3203 N   0  0  0  0  0  0
  -25.9305  -11.6653   20.5666 N   0  0  0  0  0  0
  -22.0410  -12.8248   22.0435 N   0  0  0  0  0  0
  -25.4095  -15.2006   20.4229 N   0  0  0  0  0  0
  -31.7242  -15.1062   20.1351 O   0  0  0  0  0  0
  -21.6641   -6.8883   21.4218 O   0  0  0  0  0  0
  -22.3441  -14.5507   20.6658 O   0  0  0  0  0  0
  -24.6557  -31.8318   23.1792 C   0  0  0  0  0  0
  -25.9276  -32.4629   23.8208 C   0  0  1  0  0  0
  -27.2037  -27.0158   20.1561 C   0  0  0  0  0  0
  -25.5981  -33.8444   24.2123 N   0  0  0  0  0  0
  -23.4642  -30.4500   21.5293 C   0  0  2  0  0  0
  -24.9105  -28.8577   20.1098 C   0  0  0  0  0  0
  -22.7627  -29.4479   22.4827 C   0  0  0  0  0  0
  -18.0329  -28.1416   22.8495 C   0  0  0  0  0  0
  -24.1485  -36.7223   23.2644 C   0  0  0  0  0  0
  -26.0271  -30.6671   21.3938 C   0  0  0  0  0  0
  -26.0929  -29.2668   20.7385 C   0  0  0  0  0  0
  -27.2399  -28.3634   20.7427 C   0  0  0  0  0  0
  -25.9936  -26.7463   19.4799 C   0  0  0  0  0  0
  -24.8787  -27.6150   19.4624 C   0  0  0  0  0  0
  -23.6961  -29.7780   20.1484 C   0  0  0  0  0  0
  -25.4118  -36.2998   24.0302 C   0  0  1  0  0  0
  -20.5946  -28.3737   23.1233 C   0  0  2  0  0  0
  -20.6809  -26.9434   22.5418 C   0  0  0  0  0  0
  -19.5774  -26.6395   21.5233 C   0  0  0  0  0  0
  -18.1953  -26.7950   22.1645 C   0  0  0  0  0  0
  -19.1585  -28.8895   23.2847 C   0  0  0  0  0  0
  -18.9488  -30.1490   23.8870 C   0  0  0  0  0  0
  -17.6479  -30.6610   24.0557 C   0  0  0  0  0  0
  -25.9076  -34.9374   23.5023 C   0  0  0  0  0  0
  -16.5375  -29.9098   23.6347 C   0  0  0  0  0  0
  -16.7297  -28.6520   23.0360 C   0  0  0  0  0  0
  -26.4560  -31.6540   25.0695 C   0  0  0  0  0  0
  -25.3705  -31.3775   26.1358 C   0  0  0  0  0  0
  -27.0426  -30.2913   24.6354 C   0  0  0  0  0  0
  -27.6064  -32.4330   25.7494 C   0  0  0  0  0  0
  -27.5560  -37.1766   24.8465 C   0  0  0  0  0  0
  -21.4309  -29.3039   22.3585 N   0  0  0  0  0  0
  -26.4277  -37.3716   23.9408 N   0  0  0  0  0  0
  -24.7370  -31.0070   22.0890 N   0  0  0  0  0  0
  -23.4210  -28.8022   23.3011 O   0  0  0  0  0  0
  -28.2167  -25.9498   20.1713 O   0  0  0  0  0  0
  -26.5682  -34.8913   22.4605 O   0  0  0  0  0  0
  -23.5653  -32.1285   23.6937 O   0  0  0  0  0  0
  -28.5815  -21.5517   20.4651 C   0  0  0  0  0  0
  -29.7806  -23.0514   19.0324 C   0  0  0  0  0  0
  -28.7599  -22.9840   20.0011 C   0  0  0  0  0  0
  -29.3642  -20.3434   20.0064 C   0  0  0  0  0  0
  -30.4874  -21.8988   18.6050 C   0  0  0  0  0  0
  -29.2133  -17.3491   19.4925 C   0  0  0  0  0  0
  -30.4308  -17.7038   21.0375 C   0  0  0  0  0  0
  -29.3164  -18.6766   20.4077 C   0  0  0  0  0  0
  -31.5242  -22.0349   17.5065 C   0  0  0  0  0  0
  -27.8581  -24.3871   20.3338 C   0  0  0  0  0  0
  -30.3027  -20.6291   19.0709 N   0  0  0  0  0  0
  -29.8052  -16.3866   20.5409 N   0  0  0  0  0  0
  -31.4641  -12.8618   19.2092 H   0  0  0  0  0  0
  -30.4472  -11.7803   20.1123 H   0  0  0  0  0  0
  -29.8846  -11.7428   17.6467 H   0  0  0  0  0  0
  -29.5804  -13.4637   17.6779 H   0  0  0  0  0  0
  -28.0063  -11.2740   19.0555 H   0  0  0  0  0  0
  -27.4062  -12.3776   17.8388 H   0  0  0  0  0  0
  -27.5531  -14.2546   19.3528 H   0  0  0  0  0  0
  -28.3115  -14.1319   21.6949 H   0  0  0  0  0  0
  -28.7683  -12.4511   21.4982 H   0  0  0  0  0  0
  -25.2754   -9.5759   22.4706 H   0  0  0  0  0  0
  -24.0025   -7.4691   22.7460 H   0  0  0  0  0  0
  -21.0827   -8.8796   19.8945 H   0  0  0  0  0  0
  -22.3673  -10.9681   19.6133 H   0  0  0  0  0  0
  -21.2078   -7.6145   23.9734 H   0  0  0  0  0  0
  -21.1457   -6.0467   25.9056 H   0  0  0  0  0  0
  -22.0607   -2.7601   23.2778 H   0  0  0  0  0  0
  -22.4023  -11.9941   22.4876 H   0  0  0  0  0  0
  -21.1011  -13.1258   22.2581 H   0  0  0  0  0  0
  -24.6507  -15.8609   20.5517 H   0  0  0  0  0  0
  -26.2731  -15.6408   20.1300 H   0  0  0  0  0  0
  -26.7322  -32.5200   23.0911 H   0  0  0  0  0  0
  -25.0119  -33.9511   25.0272 H   0  0  0  0  0  0
  -22.7756  -31.2814   21.3697 H   0  0  0  0  0  0
  -23.3759  -35.9539   23.3282 H   0  0  0  0  0  0
  -24.3590  -36.8876   22.2061 H   0  0  0  0  0  0
  -23.7226  -37.6409   23.6702 H   0  0  0  0  0  0
  -26.1961  -31.4144   20.6175 H   0  0  0  0  0  0
  -26.8920  -30.7218   22.0436 H   0  0  0  0  0  0
  -28.1364  -28.6742   21.2590 H   0  0  0  0  0  0
  -25.8744  -25.8153   18.9486 H   0  0  0  0  0  0
  -23.9814  -27.3078   18.9428 H   0  0  0  0  0  0
  -23.8464  -30.5529   19.3950 H   0  0  0  0  0  0
  -22.8056  -29.2321   19.8342 H   0  0  0  0  0  0
  -25.1314  -36.1792   25.0796 H   0  0  0  0  0  0
  -21.0040  -28.3313   24.1350 H   0  0  0  0  0  0
  -20.5726  -26.2331   23.3634 H   0  0  0  0  0  0
  -21.6660  -26.7443   22.1187 H   0  0  0  0  0  0
  -19.6925  -25.6300   21.1279 H   0  0  0  0  0  0
  -19.6707  -27.3192   20.6751 H   0  0  0  0  0  0
  -17.4224  -26.6707   21.4045 H   0  0  0  0  0  0
  -18.0329  -26.0109   22.9056 H   0  0  0  0  0  0
  -19.7942  -30.7326   24.2230 H   0  0  0  0  0  0
  -17.5018  -31.6291   24.5161 H   0  0  0  0  0  0
  -15.5365  -30.2977   23.7692 H   0  0  0  0  0  0
  -15.8701  -28.0824   22.7085 H   0  0  0  0  0  0
  -24.5915  -30.7082   25.7697 H   0  0  0  0  0  0
  -24.8864  -32.2966   26.4657 H   0  0  0  0  0  0
  -25.7963  -30.9055   27.0212 H   0  0  0  0  0  0
  -26.3063  -29.6621   24.1342 H   0  0  0  0  0  0
  -27.3969  -29.7252   25.4976 H   0  0  0  0  0  0
  -27.9004  -30.4129   23.9740 H   0  0  0  0  0  0
  -27.2644  -33.3675   26.1955 H   0  0  0  0  0  0
  -28.3944  -32.6789   25.0367 H   0  0  0  0  0  0
  -28.0643  -31.8518   26.5509 H   0  0  0  0  0  0
  -28.2567  -38.0074   24.7526 H   0  0  0  0  0  0
  -28.1079  -36.2606   24.6287 H   0  0  0  0  0  0
  -27.2298  -37.1399   25.8877 H   0  0  0  0  0  0
  -20.9542  -29.8729   21.6734 H   0  0  0  0  0  0
  -26.0129  -38.2778   24.1426 H   0  0  0  0  0  0
  -27.8013  -21.3751   21.1944 H   0  0  0  0  0  0
  -29.9941  -24.0069   18.5708 H   0  0  0  0  0  0
  -29.8246  -17.4208   18.5909 H   0  0  0  0  0  0
  -28.1866  -17.1226   19.2037 H   0  0  0  0  0  0
  -31.4172  -17.8828   20.6077 H   0  0  0  0  0  0
  -30.4981  -17.7953   22.1211 H   0  0  0  0  0  0
  -28.4662  -18.6357   21.0891 H   0  0  0  0  0  0
  -31.5112  -21.1677   16.8453 H   0  0  0  0  0  0
  -32.5238  -22.1278   17.9335 H   0  0  0  0  0  0
  -31.3329  -22.9168   16.8904 H   0  0  0  0  0  0
  -26.9489  -24.2043   19.7640 H   0  0  0  0  0  0
  -27.5439  -24.2785   21.3717 H   0  0  0  0  0  0
  1 25  1  0  0  0
  1 30  2  0  0  0
  1 82  1  0  0  0
  2  3  1  0  0  0
  2 25  1  0  0  0
  2 83  1  0  0  0
  2 84  1  0  0  0
  3  4  1  0  0  0
  3 85  1  0  0  0
  3 86  1  0  0  0
  4  5  1  0  0  0
  4 87  1  0  0  0
  4 88  1  0  0  0
  5  6  1  0  0  0
  5 26  1  0  0  0
  5 89  1  0  0  0
  6 25  1  0  0  0
  6 90  1  0  0  0
  6 91  1  0  0  0
  7  8  2  0  0  0
  7 26  1  0  0  0
  7 29  1  0  0  0
  8  9  1  0  0  0
  8 22  1  0  0  0
  9 10  1  0  0  0
  9 27  2  0  0  0
 10 11  2  0  0  0
 10 15  1  0  0  0
 11 12  1  0  0  0
 11 92  1  0  0  0
 12 13  2  0  0  0
 12 93  1  0  0  0
 13 14  1  0  0  0
 13 31  1  0  0  0
 14 15  2  0  0  0
 14 94  1  0  0  0
 15 95  1  0  0  0
 16 17  2  0  0  0
 16 21  1  0  0  0
 16 31  1  0  0  0
 17 18  1  0  0  0
 17 96  1  0  0  0
 18 19  2  0  0  0
 18 97  1  0  0  0
 19 20  1  0  0  0
 19 24  1  0  0  0
 20 21  2  0  0  0
 20 98  1  0  0  0
 21 23  1  0  0  0
 22 28  1  0  0  0
 22 32  2  0  0  0
 26 27  1  0  0  0
 28 99  1  0  0  0
 28100  1  0  0  0
 29101  1  0  0  0
 29102  1  0  0  0
 33 34  1  0  0  0
 33 66  1  0  0  0
 33 70  2  0  0  0
 34 36  1  0  0  0
 34 59  1  0  0  0
 34103  1  0  0  0
 35 44  2  0  0  0
 35 45  1  0  0  0
 35 68  1  0  0  0
 36 56  1  0  0  0
 36104  1  0  0  0
 37 39  1  0  0  0
 37 47  1  0  0  0
 37 66  1  0  0  0
 37105  1  0  0  0
 38 43  2  0  0  0
 38 46  1  0  0  0
 38 47  1  0  0  0
 39 64  1  0  0  0
 39 67  2  0  0  0
 40 52  1  0  0  0
 40 53  2  0  0  0
 40 58  1  0  0  0
 41106  1  0  0  0
 41107  1  0  0  0
 41108  1  0  0  0
 41 48  1  0  0  0
 42 43  1  0  0  0
 42 66  1  0  0  0
 42109  1  0  0  0
 42110  1  0  0  0
 43 44  1  0  0  0
 44111  1  0  0  0
 45 46  2  0  0  0
 45112  1  0  0  0
 46113  1  0  0  0
 47114  1  0  0  0
 47115  1  0  0  0
 48 56  1  0  0  0
 48 65  1  0  0  0
 48116  1  0  0  0
 49 50  1  0  0  0
 49 53  1  0  0  0
 49 64  1  0  0  0
 49117  1  0  0  0
 50 51  1  0  0  0
 50118  1  0  0  0
 50119  1  0  0  0
 51 52  1  0  0  0
 51120  1  0  0  0
 51121  1  0  0  0
 52122  1  0  0  0
 52123  1  0  0  0
 53 54  1  0  0  0
 54 55  2  0  0  0
 54124  1  0  0  0
 55 57  1  0  0  0
 55125  1  0  0  0
 56 69  2  0  0  0
 57 58  2  0  0  0
 57126  1  0  0  0
 58127  1  0  0  0
 59 60  1  0  0  0
 59 61  1  0  0  0
 59 62  1  0  0  0
 60128  1  0  0  0
 60129  1  0  0  0
 60130  1  0  0  0
 61131  1  0  0  0
 61132  1  0  0  0
 61133  1  0  0  0
 62134  1  0  0  0
 62135  1  0  0  0
 62136  1  0  0  0
 63 65  1  0  0  0
 63137  1  0  0  0
 63138  1  0  0  0
 63139  1  0  0  0
 64140  1  0  0  0
 65141  1  0  0  0
 68 80  1  0  0  0
 71 73  2  0  0  0
 71 74  1  0  0  0
 71142  1  0  0  0
 72 73  1  0  0  0
 72 75  2  0  0  0
 72143  1  0  0  0
 73 80  1  0  0  0
 74 81  2  0  0  0
 74 78  1  0  0  0
 75 79  1  0  0  0
 75 81  1  0  0  0
 76 78  1  0  0  0
 76 82  1  0  0  0
 76144  1  0  0  0
 76145  1  0  0  0
 77 78  1  0  0  0
 77 82  1  0  0  0
 77146  1  0  0  0
 77147  1  0  0  0
 78148  1  0  0  0
 79149  1  0  0  0
 79150  1  0  0  0
 79151  1  0  0  0
 80152  1  0  0  0
 80153  1  0  0  0
M  ISO  4   1 100  68 101  80 101  82 100
M  END
> <chiral flag>
0

> <version>
0

> <s_m_source_file>
/data/baiqing/PycharmProjects/Reinvent-master-3.2/result/LINK_invent/BTK/process_docking_weight1_custom_sum_contain_oxygen_bond_distance_aromatic_linkinvent_7_9_3/rearranged_h_0177.sdf

> <i_m_source_file_index>
62

> <r_mmod_Potential_Energy-OPLS-2005>
739.82080078125

> <r_mmod_Stretch_Energy-OPLS-2005>
370.143463134766

> <r_mmod_Bend_Energy-OPLS-2005>
329.396697998047

> <r_mmod_Torsional_Energy-OPLS-2005>
270.213806152344

> <r_mmod_Improper_Torsional_Energy-OPLS-2005>
9.95406341552734

> <r_mmod_Van_der_Waal_Energy-OPLS-2005>
128.755569458008

> <r_mmod_Electrostatic_Energy-OPLS-2005>
-469.371887207031

> <r_mmod_Solvation_Energy-OPLS-2005>
-222.49446105957

> <b_mmod_Minimization_Converged-OPLS-2005>
0

> <r_mmod_RMS_Derivative-OPLS-2005>
3.89441871643066

$$$$
62
                    3D
 Structure written by MMmdl.
152161  0  0  1  0            999 V2000
  -30.6060  -14.9946   20.4138 C   0  0  0  0  0  0
  -30.4141  -12.6314   19.5014 C   0  0  0  0  0  0
  -29.5072  -12.5201   18.2580 C   0  0  0  0  0  0
  -28.0472  -12.3047   18.6873 C   0  0  0  0  0  0
  -27.6158  -13.2654   19.8264 C   0  0  2  0  0  0
  -28.6569  -13.3716   20.9607 C   0  0  0  0  0  0
  -25.2410  -13.8257   20.5755 C   0  0  0  0  0  0
  -24.1747  -13.0457   20.9253 C   0  0  0  0  0  0
  -24.6388  -11.6956   20.8774 C   0  0  0  0  0  0
  -23.9090  -10.4309   21.0417 C   0  0  0  0  0  0
  -24.3647   -9.4218   21.9187 C   0  0  0  0  0  0
  -23.6314   -8.2250   22.0758 C   0  0  0  0  0  0
  -22.4296   -8.0293   21.3550 C   0  0  0  0  0  0
  -21.9926   -9.0270   20.4650 C   0  0  0  0  0  0
  -22.7258  -10.2143   20.3059 C   0  0  0  0  0  0
  -21.6853   -6.0752   22.5284 C   0  0  0  0  0  0
  -21.4011   -6.5661   23.8225 C   0  0  0  0  0  0
  -21.3652   -5.6812   24.9178 C   0  0  0  0  0  0
  -21.6032   -4.3065   24.7233 C   0  0  0  0  0  0
  -21.8814   -3.8165   23.4353 C   0  0  0  0  0  0
  -21.9193   -4.6982   22.3398 C   0  0  0  0  0  0
  -22.7764  -13.5211   21.1911 C   0  0  0  0  0  0
  -22.1662   -4.2160   21.0975 F   0  0  0  0  0  0
  -21.5617   -3.4547   25.7740 F   0  0  0  0  0  0
  -29.9192  -13.7768   20.3327 N   0  0  0  0  0  0
  -26.2833  -12.9522   20.3265 N   0  0  0  0  0  0
  -25.9324  -11.6634   20.5762 N   0  0  0  0  0  0
  -22.0440  -12.8179   22.0454 N   0  0  0  0  0  0
  -25.4078  -15.1985   20.4194 N   0  0  0  0  0  0
  -31.8198  -14.9240   20.1945 O   0  0  0  0  0  0
  -21.6645   -6.8903   21.4246 O   0  0  0  0  0  0
  -22.3435  -14.5513   20.6747 O   0  0  0  0  0  0
  -24.6480  -31.8421   23.1880 C   0  0  0  0  0  0
  -25.9246  -32.4681   23.8265 C   0  0  1  0  0  0
  -27.1982  -27.0938   20.1739 C   0  0  0  0  0  0
  -25.6010  -33.8495   24.2209 N   0  0  0  0  0  0
  -23.4520  -30.4637   21.5332 C   0  0  2  0  0  0
  -24.9001  -28.8907   20.1081 C   0  0  0  0  0  0
  -22.7580  -29.4558   22.4838 C   0  0  0  0  0  0
  -18.0287  -28.1441   22.8487 C   0  0  0  0  0  0
  -24.1475  -36.7224   23.2648 C   0  0  0  0  0  0
  -26.0103  -30.7023   21.3936 C   0  0  0  0  0  0
  -26.0784  -29.3092   20.7406 C   0  0  0  0  0  0
  -27.2285  -28.4273   20.7580 C   0  0  0  0  0  0
  -26.0045  -26.7999   19.4764 C   0  0  0  0  0  0
  -24.8801  -27.6499   19.4568 C   0  0  0  0  0  0
  -23.6801  -29.7991   20.1505 C   0  0  0  0  0  0
  -25.4111  -36.3021   24.0333 C   0  0  1  0  0  0
  -20.5903  -28.3752   23.1223 C   0  0  2  0  0  0
  -20.6807  -26.9455   22.5422 C   0  0  0  0  0  0
  -19.5784  -26.6412   21.5231 C   0  0  0  0  0  0
  -18.1941  -26.7992   22.1606 C   0  0  0  0  0  0
  -19.1552  -28.8912   23.2846 C   0  0  0  0  0  0
  -18.9475  -30.1512   23.8869 C   0  0  0  0  0  0
  -17.6478  -30.6636   24.0572 C   0  0  0  0  0  0
  -25.9062  -34.9407   23.5068 C   0  0  0  0  0  0
  -16.5356  -29.9127   23.6364 C   0  0  0  0  0  0
  -16.7273  -28.6558   23.0379 C   0  0  0  0  0  0
  -26.4550  -31.6563   25.0710 C   0  0  0  0  0  0
  -25.3732  -31.3847   26.1422 C   0  0  0  0  0  0
  -27.0400  -30.2937   24.6353 C   0  0  0  0  0  0
  -27.6132  -32.4305   25.7445 C   0  0  0  0  0  0
  -27.5564  -37.1758   24.8471 C   0  0  0  0  0  0
  -21.4262  -29.3067   22.3587 N   0  0  0  0  0  0
  -26.4262  -37.3747   23.9434 N   0  0  0  0  0  0
  -24.7233  -31.0258   22.0928 N   0  0  0  0  0  0
  -23.4207  -28.8098   23.2997 O   0  0  0  0  0  0
  -28.2047  -26.0502   20.2338 O   0  0  0  0  0  0
  -26.5621  -34.8919   22.4622 O   0  0  0  0  0  0
  -23.5592  -32.1311   23.7077 O   0  0  0  0  0  0
  -28.2221  -20.7670   19.6883 C   0  0  0  0  0  0
  -29.1787  -20.1531   20.5758 C   0  0  0  0  0  0
  -29.4709  -22.4747   21.3444 C   0  0  0  0  0  0
  -28.5033  -23.0866   20.4557 C   0  0  0  0  0  0
  -28.7517  -17.1168   20.6112 C   0  0  0  0  0  0
  -30.7025  -17.6461   20.0966 C   0  0  0  0  0  0
  -29.5491  -18.5146   20.7462 C   0  0  0  0  0  0
  -30.1603  -23.3141   22.4072 C   0  0  0  0  0  0
  -27.7731  -24.5894   20.6301 C   0  0  0  0  0  0
  -27.9089  -22.1376   19.6356 N   0  0  0  0  0  0
  -29.7955  -21.1029   21.3792 N   0  0  0  0  0  0
  -30.0363  -16.3228   20.4378 N   0  0  0  0  0  0
  -31.4482  -12.7533   19.1791 H   0  0  0  0  0  0
  -30.3993  -11.7048   20.0767 H   0  0  0  0  0  0
  -29.8349  -11.6963   17.6239 H   0  0  0  0  0  0
  -29.5863  -13.4257   17.6550 H   0  0  0  0  0  0
  -27.9583  -11.2716   19.0251 H   0  0  0  0  0  0
  -27.3772  -12.4043   17.8330 H   0  0  0  0  0  0
  -27.5562  -14.2508   19.3623 H   0  0  0  0  0  0
  -28.7618  -12.4296   21.5001 H   0  0  0  0  0  0
  -28.3464  -14.1209   21.6912 H   0  0  0  0  0  0
  -25.2809   -9.5672   22.4748 H   0  0  0  0  0  0
  -24.0019   -7.4631   22.7472 H   0  0  0  0  0  0
  -21.0860   -8.8795   19.8958 H   0  0  0  0  0  0
  -22.3741  -10.9681   19.6156 H   0  0  0  0  0  0
  -21.2013   -7.6176   23.9724 H   0  0  0  0  0  0
  -21.1459   -6.0545   25.9078 H   0  0  0  0  0  0
  -22.0595   -2.7628   23.2842 H   0  0  0  0  0  0
  -22.4083  -11.9832   22.4804 H   0  0  0  0  0  0
  -21.1053  -13.1159   22.2704 H   0  0  0  0  0  0
  -24.6428  -15.8542   20.5346 H   0  0  0  0  0  0
  -26.2635  -15.6365   20.1057 H   0  0  0  0  0  0
  -26.7297  -32.5269   23.0977 H   0  0  0  0  0  0
  -25.0274  -33.9606   25.0430 H   0  0  0  0  0  0
  -22.7576  -31.2919   21.3803 H   0  0  0  0  0  0
  -23.3769  -35.9527   23.3328 H   0  0  0  0  0  0
  -24.3559  -36.8814   22.2056 H   0  0  0  0  0  0
  -23.7181  -37.6420   23.6639 H   0  0  0  0  0  0
  -26.1777  -31.4529   20.6200 H   0  0  0  0  0  0
  -26.8792  -30.7469   22.0399 H   0  0  0  0  0  0
  -28.1201  -28.7449   21.2811 H   0  0  0  0  0  0
  -25.9139  -25.8649   18.9462 H   0  0  0  0  0  0
  -23.9871  -27.3343   18.9328 H   0  0  0  0  0  0
  -23.8220  -30.5782   19.3998 H   0  0  0  0  0  0
  -22.7925  -29.2486   19.8319 H   0  0  0  0  0  0
  -25.1290  -36.1853   25.0826 H   0  0  0  0  0  0
  -20.9963  -28.3342   24.1356 H   0  0  0  0  0  0
  -20.5733  -26.2363   23.3645 H   0  0  0  0  0  0
  -21.6659  -26.7502   22.1183 H   0  0  0  0  0  0
  -19.6952  -25.6315   21.1289 H   0  0  0  0  0  0
  -19.6750  -27.3205   20.6748 H   0  0  0  0  0  0
  -17.4239  -26.6769   21.3982 H   0  0  0  0  0  0
  -18.0292  -26.0138   22.8989 H   0  0  0  0  0  0
  -19.7947  -30.7344   24.2232 H   0  0  0  0  0  0
  -17.5035  -31.6313   24.5192 H   0  0  0  0  0  0
  -15.5368  -30.3039   23.7749 H   0  0  0  0  0  0
  -15.8653  -28.0876   22.7121 H   0  0  0  0  0  0
  -24.5887  -30.7198   25.7779 H   0  0  0  0  0  0
  -24.8954  -32.3087   26.4699 H   0  0  0  0  0  0
  -25.7990  -30.9123   27.0280 H   0  0  0  0  0  0
  -26.3023  -29.6656   24.1356 H   0  0  0  0  0  0
  -27.3981  -29.7249   25.4940 H   0  0  0  0  0  0
  -27.8949  -30.4167   23.9702 H   0  0  0  0  0  0
  -27.2816  -33.3726   26.1840 H   0  0  0  0  0  0
  -28.4013  -32.6661   25.0265 H   0  0  0  0  0  0
  -28.0723  -31.8524   26.5482 H   0  0  0  0  0  0
  -28.2591  -38.0041   24.7499 H   0  0  0  0  0  0
  -28.1029  -36.2578   24.6285 H   0  0  0  0  0  0
  -27.2312  -37.1385   25.8880 H   0  0  0  0  0  0
  -20.9486  -29.8731   21.6709 H   0  0  0  0  0  0
  -26.0136  -38.2811   24.1473 H   0  0  0  0  0  0
  -27.6602  -20.1418   19.0093 H   0  0  0  0  0  0
  -28.1068  -17.0776   19.7305 H   0  0  0  0  0  0
  -28.1766  -16.8581   21.5030 H   0  0  0  0  0  0
  -31.6729  -17.8060   20.5688 H   0  0  0  0  0  0
  -30.7897  -17.8110   19.0208 H   0  0  0  0  0  0
  -29.8138  -18.5266   21.8048 H   0  0  0  0  0  0
  -29.4469  -23.6185   23.1750 H   0  0  0  0  0  0
  -30.5994  -24.2148   21.9755 H   0  0  0  0  0  0
  -30.9631  -22.7579   22.8953 H   0  0  0  0  0  0
  -27.5951  -24.6718   21.7032 H   0  0  0  0  0  0
  -26.7730  -24.4182   20.2391 H   0  0  0  0  0  0
  1 25  1  0  0  0
  1 30  2  0  0  0
  1 82  1  0  0  0
  2  3  1  0  0  0
  2 25  1  0  0  0
  2 83  1  0  0  0
  2 84  1  0  0  0
  3  4  1  0  0  0
  3 85  1  0  0  0
  3 86  1  0  0  0
  4  5  1  0  0  0
  4 87  1  0  0  0
  4 88  1  0  0  0
  5  6  1  0  0  0
  5 26  1  0  0  0
  5 89  1  0  0  0
  6 25  1  0  0  0
  6 90  1  0  0  0
  6 91  1  0  0  0
  7  8  2  0  0  0
  7 26  1  0  0  0
  7 29  1  0  0  0
  8  9  1  0  0  0
  8 22  1  0  0  0
  9 10  1  0  0  0
  9 27  2  0  0  0
 10 11  2  0  0  0
 10 15  1  0  0  0
 11 12  1  0  0  0
 11 92  1  0  0  0
 12 13  2  0  0  0
 12 93  1  0  0  0
 13 14  1  0  0  0
 13 31  1  0  0  0
 14 15  2  0  0  0
 14 94  1  0  0  0
 15 95  1  0  0  0
 16 17  2  0  0  0
 16 21  1  0  0  0
 16 31  1  0  0  0
 17 18  1  0  0  0
 17 96  1  0  0  0
 18 19  2  0  0  0
 18 97  1  0  0  0
 19 20  1  0  0  0
 19 24  1  0  0  0
 20 21  2  0  0  0
 20 98  1  0  0  0
 21 23  1  0  0  0
 22 28  1  0  0  0
 22 32  2  0  0  0
 26 27  1  0  0  0
 28 99  1  0  0  0
 28100  1  0  0  0
 29101  1  0  0  0
 29102  1  0  0  0
 33 34  1  0  0  0
 33 66  1  0  0  0
 33 70  2  0  0  0
 34 36  1  0  0  0
 34 59  1  0  0  0
 34103  1  0  0  0
 35 44  2  0  0  0
 35 45  1  0  0  0
 35 68  1  0  0  0
 36 56  1  0  0  0
 36104  1  0  0  0
 37 39  1  0  0  0
 37 47  1  0  0  0
 37 66  1  0  0  0
 37105  1  0  0  0
 38 43  2  0  0  0
 38 46  1  0  0  0
 38 47  1  0  0  0
 39 64  1  0  0  0
 39 67  2  0  0  0
 40 52  1  0  0  0
 40 53  2  0  0  0
 40 58  1  0  0  0
 41106  1  0  0  0
 41107  1  0  0  0
 41108  1  0  0  0
 41 48  1  0  0  0
 42 43  1  0  0  0
 42 66  1  0  0  0
 42109  1  0  0  0
 42110  1  0  0  0
 43 44  1  0  0  0
 44111  1  0  0  0
 45 46  2  0  0  0
 45112  1  0  0  0
 46113  1  0  0  0
 47114  1  0  0  0
 47115  1  0  0  0
 48 56  1  0  0  0
 48 65  1  0  0  0
 48116  1  0  0  0
 49 50  1  0  0  0
 49 53  1  0  0  0
 49 64  1  0  0  0
 49117  1  0  0  0
 50 51  1  0  0  0
 50118  1  0  0  0
 50119  1  0  0  0
 51 52  1  0  0  0
 51120  1  0  0  0
 51121  1  0  0  0
 52122  1  0  0  0
 52123  1  0  0  0
 53 54  1  0  0  0
 54 55  2  0  0  0
 54124  1  0  0  0
 55 57  1  0  0  0
 55125  1  0  0  0
 56 69  2  0  0  0
 57 58  2  0  0  0
 57126  1  0  0  0
 58127  1  0  0  0
 59 60  1  0  0  0
 59 61  1  0  0  0
 59 62  1  0  0  0
 60128  1  0  0  0
 60129  1  0  0  0
 60130  1  0  0  0
 61131  1  0  0  0
 61132  1  0  0  0
 61133  1  0  0  0
 62134  1  0  0  0
 62135  1  0  0  0
 62136  1  0  0  0
 63 65  1  0  0  0
 63137  1  0  0  0
 63138  1  0  0  0
 63139  1  0  0  0
 64140  1  0  0  0
 65141  1  0  0  0
 68 79  1  0  0  0
 71 72  2  0  0  0
 71 80  1  0  0  0
 71142  1  0  0  0
 72 81  1  0  0  0
 72 77  1  0  0  0
 73 74  1  0  0  0
 73 78  1  0  0  0
 73 81  2  0  0  0
 74 79  1  0  0  0
 74 80  2  0  0  0
 75 77  1  0  0  0
 75 82  1  0  0  0
 75143  1  0  0  0
 75144  1  0  0  0
 76 77  1  0  0  0
 76 82  1  0  0  0
 76145  1  0  0  0
 76146  1  0  0  0
 77147  1  0  0  0
 78148  1  0  0  0
 78149  1  0  0  0
 78150  1  0  0  0
 79151  1  0  0  0
 79152  1  0  0  0
M  ISO  4   1 100  68 101  79 101  82 100
M  END
> <chiral flag>
0

> <version>
0

> <s_m_source_file>
/data/baiqing/PycharmProjects/Reinvent-master-3.2/result/LINK_invent/BTK/process_docking_weight1_custom_sum_contain_oxygen_bond_distance_aromatic_linkinvent_7_9_3/rearranged_h_0177.sdf

> <i_m_source_file_index>
63

> <r_mmod_Potential_Energy-OPLS-2005>
789.526184082031

> <r_mmod_Stretch_Energy-OPLS-2005>
273.151824951172

> <r_mmod_Bend_Energy-OPLS-2005>
347.813751220703

> <r_mmod_Torsional_Energy-OPLS-2005>
271.799468994141

> <r_mmod_Improper_Torsional_Energy-OPLS-2005>
9.86605739593506

> <r_mmod_Van_der_Waal_Energy-OPLS-2005>
131.73014831543

> <r_mmod_Electrostatic_Energy-OPLS-2005>
-255.206130981445

> <r_mmod_Solvation_Energy-OPLS-2005>
-228.188705444336

> <b_mmod_Minimization_Converged-OPLS-2005>
0

> <r_mmod_RMS_Derivative-OPLS-2005>
3.45877480506897

$$$$
63
                    3D
 Structure written by MMmdl.
160169  0  0  1  0            999 V2000
  -30.5409  -15.0438   20.3530 C   0  0  0  0  0  0
  -30.4430  -12.6463   19.4893 C   0  0  0  0  0  0
  -29.5191  -12.4896   18.2577 C   0  0  0  0  0  0
  -28.0534  -12.2847   18.6881 C   0  0  0  0  0  0
  -27.6161  -13.2420   19.8257 C   0  0  2  0  0  0
  -28.6707  -13.3585   20.9466 C   0  0  0  0  0  0
  -25.2456  -13.8179   20.5780 C   0  0  0  0  0  0
  -24.1754  -13.0416   20.9244 C   0  0  0  0  0  0
  -24.6358  -11.6899   20.8784 C   0  0  0  0  0  0
  -23.9045  -10.4282   21.0423 C   0  0  0  0  0  0
  -24.3599   -9.4198   21.9198 C   0  0  0  0  0  0
  -23.6277   -8.2233   22.0760 C   0  0  0  0  0  0
  -22.4269   -8.0266   21.3539 C   0  0  0  0  0  0
  -21.9900   -9.0241   20.4645 C   0  0  0  0  0  0
  -22.7224  -10.2124   20.3066 C   0  0  0  0  0  0
  -21.6847   -6.0725   22.5271 C   0  0  0  0  0  0
  -21.4007   -6.5629   23.8205 C   0  0  0  0  0  0
  -21.3661   -5.6780   24.9164 C   0  0  0  0  0  0
  -21.6048   -4.3044   24.7218 C   0  0  0  0  0  0
  -21.8819   -3.8138   23.4338 C   0  0  0  0  0  0
  -21.9189   -4.6954   22.3392 C   0  0  0  0  0  0
  -22.7782  -13.5208   21.1882 C   0  0  0  0  0  0
  -22.1665   -4.2140   21.0972 F   0  0  0  0  0  0
  -21.5630   -3.4530   25.7735 F   0  0  0  0  0  0
  -29.9288  -13.7804   20.3134 N   0  0  0  0  0  0
  -26.2847  -12.9377   20.3309 N   0  0  0  0  0  0
  -25.9294  -11.6518   20.5804 N   0  0  0  0  0  0
  -22.0425  -12.8203   22.0425 N   0  0  0  0  0  0
  -25.4172  -15.1908   20.4264 N   0  0  0  0  0  0
  -31.7752  -15.0428   20.2746 O   0  0  0  0  0  0
  -21.6630   -6.8868   21.4238 O   0  0  0  0  0  0
  -22.3489  -14.5518   20.6717 O   0  0  0  0  0  0
  -24.6481  -31.8415   23.1831 C   0  0  0  0  0  0
  -25.9231  -32.4686   23.8249 C   0  0  1  0  0  0
  -27.2226  -27.0853   20.1602 C   0  0  0  0  0  0
  -25.5956  -33.8496   24.2162 N   0  0  0  0  0  0
  -23.4554  -30.4579   21.5303 C   0  0  2  0  0  0
  -24.9102  -28.8802   20.1099 C   0  0  0  0  0  0
  -22.7607  -29.4529   22.4838 C   0  0  0  0  0  0
  -18.0315  -28.1405   22.8472 C   0  0  0  0  0  0
  -24.1500  -36.7252   23.2642 C   0  0  0  0  0  0
  -26.0172  -30.6971   21.3930 C   0  0  0  0  0  0
  -26.0895  -29.3038   20.7349 C   0  0  0  0  0  0
  -27.2455  -28.4245   20.7427 C   0  0  0  0  0  0
  -26.0148  -26.7853   19.4857 C   0  0  0  0  0  0
  -24.8897  -27.6361   19.4682 C   0  0  0  0  0  0
  -23.6875  -29.7854   20.1518 C   0  0  0  0  0  0
  -25.4133  -36.3022   24.0313 C   0  0  1  0  0  0
  -20.5934  -28.3740   23.1229 C   0  0  2  0  0  0
  -20.6804  -26.9437   22.5400 C   0  0  0  0  0  0
  -19.5772  -26.6377   21.5219 C   0  0  0  0  0  0
  -18.1949  -26.7942   22.1620 C   0  0  0  0  0  0
  -19.1574  -28.8891   23.2839 C   0  0  0  0  0  0
  -18.9490  -30.1485   23.8867 C   0  0  0  0  0  0
  -17.6487  -30.6596   24.0563 C   0  0  0  0  0  0
  -25.9086  -34.9404   23.5046 C   0  0  0  0  0  0
  -16.5379  -29.9090   23.6341 C   0  0  0  0  0  0
  -16.7299  -28.6512   23.0355 C   0  0  0  0  0  0
  -26.4527  -31.6568   25.0708 C   0  0  0  0  0  0
  -25.3682  -31.3760   26.1378 C   0  0  0  0  0  0
  -27.0403  -30.2965   24.6307 C   0  0  0  0  0  0
  -27.6066  -32.4345   25.7481 C   0  0  0  0  0  0
  -27.5585  -37.1770   24.8461 C   0  0  0  0  0  0
  -21.4291  -29.3060   22.3603 N   0  0  0  0  0  0
  -26.4283  -37.3746   23.9419 N   0  0  0  0  0  0
  -24.7271  -31.0219   22.0897 N   0  0  0  0  0  0
  -23.4228  -28.8065   23.2999 O   0  0  0  0  0  0
  -28.2443  -26.0465   20.2512 O   0  0  0  0  0  0
  -26.5672  -34.8912   22.4626 O   0  0  0  0  0  0
  -23.5586  -32.1321   23.7006 O   0  0  0  0  0  0
  -28.6765  -23.0874   20.3077 C   0  0  0  0  0  0
  -28.2318  -21.7250   20.1838 C   0  0  0  0  0  0
  -30.2617  -21.5439   20.8021 C   0  0  0  0  0  0
  -29.7444  -17.3795   18.0159 C   0  0  0  0  0  0
  -30.7372  -18.1128   18.9069 C   0  0  0  0  0  0
  -29.0615  -16.3345   18.9180 C   0  0  0  0  0  0
  -30.1872  -17.8400   20.3004 C   0  0  1  0  0  0
  -26.8562  -21.2896   19.7967 C   0  0  0  0  0  0
  -31.5702  -20.9962   21.2638 C   0  0  0  0  0  0
  -27.8555  -24.5299   20.0562 C   0  0  0  0  0  0
  -29.0847  -19.1022   20.6459 C   0  0  0  0  0  0
  -30.0141  -22.8855   20.6978 N   0  0  0  0  0  0
  -29.2338  -20.7054   20.4978 N   0  0  0  0  0  0
  -29.7938  -16.2819   20.1964 N   0  0  0  0  0  0
  -31.4670  -12.8222   19.1559 H   0  0  0  0  0  0
  -30.4707  -11.7259   20.0759 H   0  0  0  0  0  0
  -29.8453  -11.6422   17.6532 H   0  0  0  0  0  0
  -29.6019  -13.3625   17.6100 H   0  0  0  0  0  0
  -27.9589  -11.2532   19.0289 H   0  0  0  0  0  0
  -27.3859  -12.3799   17.8308 H   0  0  0  0  0  0
  -27.5246  -14.2152   19.3549 H   0  0  0  0  0  0
  -28.7899  -12.4145   21.4803 H   0  0  0  0  0  0
  -28.3593  -14.1009   21.6835 H   0  0  0  0  0  0
  -25.2742   -9.5664   22.4780 H   0  0  0  0  0  0
  -23.9973   -7.4624   22.7488 H   0  0  0  0  0  0
  -21.0823   -8.8754   19.8951 H   0  0  0  0  0  0
  -22.3679  -10.9661   19.6174 H   0  0  0  0  0  0
  -21.1999   -7.6139   23.9700 H   0  0  0  0  0  0
  -21.1488   -6.0516   25.9065 H   0  0  0  0  0  0
  -22.0600   -2.7599   23.2835 H   0  0  0  0  0  0
  -22.4029  -11.9850   22.4795 H   0  0  0  0  0  0
  -21.1054  -13.1250   22.2653 H   0  0  0  0  0  0
  -24.6577  -15.8508   20.5546 H   0  0  0  0  0  0
  -26.2863  -15.6319   20.1559 H   0  0  0  0  0  0
  -26.7292  -32.5286   23.0973 H   0  0  0  0  0  0
  -25.0094  -33.9612   25.0299 H   0  0  0  0  0  0
  -22.7592  -31.2839   21.3693 H   0  0  0  0  0  0
  -23.3788  -35.9555   23.3250 H   0  0  0  0  0  0
  -24.3588  -36.8940   22.2065 H   0  0  0  0  0  0
  -23.7231  -37.6415   23.6726 H   0  0  0  0  0  0
  -26.1772  -31.4472   20.6168 H   0  0  0  0  0  0
  -26.8870  -30.7515   22.0363 H   0  0  0  0  0  0
  -28.1378  -28.7422   21.2637 H   0  0  0  0  0  0
  -25.8867  -25.8394   18.9835 H   0  0  0  0  0  0
  -23.9926  -27.3068   18.9623 H   0  0  0  0  0  0
  -23.8261  -30.5581   19.3954 H   0  0  0  0  0  0
  -22.8029  -29.2271   19.8389 H   0  0  0  0  0  0
  -25.1316  -36.1831   25.0803 H   0  0  0  0  0  0
  -21.0022  -28.3326   24.1355 H   0  0  0  0  0  0
  -20.5717  -26.2350   23.3622 H   0  0  0  0  0  0
  -21.6665  -26.7442   22.1181 H   0  0  0  0  0  0
  -19.6941  -25.6279   21.1264 H   0  0  0  0  0  0
  -19.6713  -27.3174   20.6742 H   0  0  0  0  0  0
  -17.4222  -26.6709   21.4012 H   0  0  0  0  0  0
  -18.0334  -26.0083   22.9017 H   0  0  0  0  0  0
  -19.7965  -30.7310   24.2218 H   0  0  0  0  0  0
  -17.5035  -31.6270   24.5174 H   0  0  0  0  0  0
  -15.5376  -30.2982   23.7676 H   0  0  0  0  0  0
  -15.8700  -28.0818   22.7093 H   0  0  0  0  0  0
  -24.5892  -30.7088   25.7660 H   0  0  0  0  0  0
  -24.8838  -32.2941   26.4721 H   0  0  0  0  0  0
  -25.7926  -30.8965   27.0207 H   0  0  0  0  0  0
  -26.3026  -29.6674   24.1312 H   0  0  0  0  0  0
  -27.4016  -29.7276   25.4882 H   0  0  0  0  0  0
  -27.8926  -30.4206   23.9627 H   0  0  0  0  0  0
  -27.2700  -33.3727   26.1909 H   0  0  0  0  0  0
  -28.3935  -32.6772   25.0324 H   0  0  0  0  0  0
  -28.0660  -31.8559   26.5503 H   0  0  0  0  0  0
  -28.2544  -38.0118   24.7558 H   0  0  0  0  0  0
  -28.1137  -36.2652   24.6218 H   0  0  0  0  0  0
  -27.2308  -37.1317   25.8859 H   0  0  0  0  0  0
  -20.9531  -29.8780   21.6766 H   0  0  0  0  0  0
  -26.0146  -38.2802   24.1451 H   0  0  0  0  0  0
  -30.2538  -16.9147   17.1700 H   0  0  0  0  0  0
  -29.0007  -18.0677   17.6110 H   0  0  0  0  0  0
  -30.8177  -19.1739   18.6639 H   0  0  0  0  0  0
  -31.7327  -17.6752   18.8073 H   0  0  0  0  0  0
  -29.0337  -15.3933   18.3731 H   0  0  0  0  0  0
  -28.0262  -16.6156   19.1152 H   0  0  0  0  0  0
  -31.0057  -17.9177   21.0170 H   0  0  0  0  0  0
  -26.2201  -22.1422   19.5589 H   0  0  0  0  0  0
  -26.3813  -20.7363   20.6075 H   0  0  0  0  0  0
  -26.8858  -20.6431   18.9190 H   0  0  0  0  0  0
  -32.1923  -21.7835   21.6895 H   0  0  0  0  0  0
  -32.1035  -20.5434   20.4289 H   0  0  0  0  0  0
  -31.4126  -20.2366   22.0297 H   0  0  0  0  0  0
  -26.9319  -24.4292   20.6289 H   0  0  0  0  0  0
  -27.5379  -24.4775   19.0157 H   0  0  0  0  0  0
  -28.7842  -18.9468   21.6817 H   0  0  0  0  0  0
  -28.1865  -18.8569   20.0827 H   0  0  0  0  0  0
  1 25  1  0  0  0
  1 30  2  0  0  0
  1 84  1  0  0  0
  2  3  1  0  0  0
  2 25  1  0  0  0
  2 85  1  0  0  0
  2 86  1  0  0  0
  3  4  1  0  0  0
  3 87  1  0  0  0
  3 88  1  0  0  0
  4  5  1  0  0  0
  4 89  1  0  0  0
  4 90  1  0  0  0
  5  6  1  0  0  0
  5 26  1  0  0  0
  5 91  1  0  0  0
  6 25  1  0  0  0
  6 92  1  0  0  0
  6 93  1  0  0  0
  7  8  2  0  0  0
  7 26  1  0  0  0
  7 29  1  0  0  0
  8  9  1  0  0  0
  8 22  1  0  0  0
  9 10  1  0  0  0
  9 27  2  0  0  0
 10 11  2  0  0  0
 10 15  1  0  0  0
 11 12  1  0  0  0
 11 94  1  0  0  0
 12 13  2  0  0  0
 12 95  1  0  0  0
 13 14  1  0  0  0
 13 31  1  0  0  0
 14 15  2  0  0  0
 14 96  1  0  0  0
 15 97  1  0  0  0
 16 17  2  0  0  0
 16 21  1  0  0  0
 16 31  1  0  0  0
 17 18  1  0  0  0
 17 98  1  0  0  0
 18 19  2  0  0  0
 18 99  1  0  0  0
 19 20  1  0  0  0
 19 24  1  0  0  0
 20 21  2  0  0  0
 20100  1  0  0  0
 21 23  1  0  0  0
 22 28  1  0  0  0
 22 32  2  0  0  0
 26 27  1  0  0  0
 28101  1  0  0  0
 28102  1  0  0  0
 29103  1  0  0  0
 29104  1  0  0  0
 33 34  1  0  0  0
 33 66  1  0  0  0
 33 70  2  0  0  0
 34 36  1  0  0  0
 34 59  1  0  0  0
 34105  1  0  0  0
 35 44  2  0  0  0
 35 45  1  0  0  0
 35 68  1  0  0  0
 36 56  1  0  0  0
 36106  1  0  0  0
 37 39  1  0  0  0
 37 47  1  0  0  0
 37 66  1  0  0  0
 37107  1  0  0  0
 38 43  2  0  0  0
 38 46  1  0  0  0
 38 47  1  0  0  0
 39 64  1  0  0  0
 39 67  2  0  0  0
 40 52  1  0  0  0
 40 53  2  0  0  0
 40 58  1  0  0  0
 41108  1  0  0  0
 41109  1  0  0  0
 41110  1  0  0  0
 41 48  1  0  0  0
 42 43  1  0  0  0
 42 66  1  0  0  0
 42111  1  0  0  0
 42112  1  0  0  0
 43 44  1  0  0  0
 44113  1  0  0  0
 45 46  2  0  0  0
 45114  1  0  0  0
 46115  1  0  0  0
 47116  1  0  0  0
 47117  1  0  0  0
 48 56  1  0  0  0
 48 65  1  0  0  0
 48118  1  0  0  0
 49 50  1  0  0  0
 49 53  1  0  0  0
 49 64  1  0  0  0
 49119  1  0  0  0
 50 51  1  0  0  0
 50120  1  0  0  0
 50121  1  0  0  0
 51 52  1  0  0  0
 51122  1  0  0  0
 51123  1  0  0  0
 52124  1  0  0  0
 52125  1  0  0  0
 53 54  1  0  0  0
 54 55  2  0  0  0
 54126  1  0  0  0
 55 57  1  0  0  0
 55127  1  0  0  0
 56 69  2  0  0  0
 57 58  2  0  0  0
 57128  1  0  0  0
 58129  1  0  0  0
 59 60  1  0  0  0
 59 61  1  0  0  0
 59 62  1  0  0  0
 60130  1  0  0  0
 60131  1  0  0  0
 60132  1  0  0  0
 61133  1  0  0  0
 61134  1  0  0  0
 61135  1  0  0  0
 62136  1  0  0  0
 62137  1  0  0  0
 62138  1  0  0  0
 63 65  1  0  0  0
 63139  1  0  0  0
 63140  1  0  0  0
 63141  1  0  0  0
 64142  1  0  0  0
 65143  1  0  0  0
 68 80  1  0  0  0
 71 72  2  0  0  0
 71 80  1  0  0  0
 71 82  1  0  0  0
 72 78  1  0  0  0
 72 83  1  0  0  0
 73 79  1  0  0  0
 73 82  2  0  0  0
 73 83  1  0  0  0
 74 75  1  0  0  0
 74 76  1  0  0  0
 74144  1  0  0  0
 74145  1  0  0  0
 75 77  1  0  0  0
 75146  1  0  0  0
 75147  1  0  0  0
 76 84  1  0  0  0
 76148  1  0  0  0
 76149  1  0  0  0
 77 81  1  0  0  0
 77 84  1  0  0  0
 77150  1  0  0  0
 78151  1  0  0  0
 78152  1  0  0  0
 78153  1  0  0  0
 79154  1  0  0  0
 79155  1  0  0  0
 79156  1  0  0  0
 80157  1  0  0  0
 80158  1  0  0  0
 81 83  1  0  0  0
 81159  1  0  0  0
 81160  1  0  0  0
M  ISO  4   1 100  68 101  80 101  84 100
M  END
> <chiral flag>
0

> <version>
0

> <s_m_source_file>
/data/baiqing/PycharmProjects/Reinvent-master-3.2/result/LINK_invent/BTK/process_docking_weight1_custom_sum_contain_oxygen_bond_distance_aromatic_linkinvent_7_9_3/rearranged_h_0177.sdf

> <i_m_source_file_index>
64

> <r_mmod_Potential_Energy-OPLS-2005>
934.026794433594

> <r_mmod_Stretch_Energy-OPLS-2005>
324.421691894531

> <r_mmod_Bend_Energy-OPLS-2005>
350.798950195312

> <r_mmod_Torsional_Energy-OPLS-2005>
359.294525146484

> <r_mmod_Improper_Torsional_Energy-OPLS-2005>
12.8009939193726

> <r_mmod_Van_der_Waal_Energy-OPLS-2005>
105.909568786621

> <r_mmod_Electrostatic_Energy-OPLS-2005>
-257.292175292969

> <r_mmod_Solvation_Energy-OPLS-2005>
-226.227813720703

> <b_mmod_Minimization_Converged-OPLS-2005>
0

> <r_mmod_RMS_Derivative-OPLS-2005>
1.69019317626953

$$$$
64
                    3D
 Structure written by MMmdl.
161170  0  0  1  0            999 V2000
  -30.5030  -14.9489   20.4209 C   0  0  0  0  0  0
  -30.4513  -12.5845   19.4943 C   0  0  0  0  0  0
  -29.5256  -12.5355   18.2544 C   0  0  0  0  0  0
  -28.0557  -12.3252   18.6680 C   0  0  0  0  0  0
  -27.6349  -13.2426   19.8448 C   0  0  2  0  0  0
  -28.6792  -13.2393   20.9821 C   0  0  0  0  0  0
  -25.2487  -13.8198   20.5713 C   0  0  0  0  0  0
  -24.1798  -13.0433   20.9247 C   0  0  0  0  0  0
  -24.6404  -11.6916   20.8760 C   0  0  0  0  0  0
  -23.9083  -10.4291   21.0409 C   0  0  0  0  0  0
  -24.3630   -9.4201   21.9189 C   0  0  0  0  0  0
  -23.6302   -8.2236   22.0750 C   0  0  0  0  0  0
  -22.4285   -8.0278   21.3538 C   0  0  0  0  0  0
  -21.9925   -9.0257   20.4640 C   0  0  0  0  0  0
  -22.7258  -10.2133   20.3056 C   0  0  0  0  0  0
  -21.6853   -6.0740   22.5280 C   0  0  0  0  0  0
  -21.4011   -6.5645   23.8216 C   0  0  0  0  0  0
  -21.3659   -5.6793   24.9177 C   0  0  0  0  0  0
  -21.6045   -4.3055   24.7224 C   0  0  0  0  0  0
  -21.8821   -3.8153   23.4344 C   0  0  0  0  0  0
  -21.9192   -4.6967   22.3402 C   0  0  0  0  0  0
  -22.7817  -13.5206   21.1896 C   0  0  0  0  0  0
  -22.1660   -4.2156   21.0976 F   0  0  0  0  0  0
  -21.5625   -3.4534   25.7736 F   0  0  0  0  0  0
  -29.9575  -13.6649   20.3936 N   0  0  0  0  0  0
  -26.2907  -12.9416   20.3250 N   0  0  0  0  0  0
  -25.9334  -11.6553   20.5745 N   0  0  0  0  0  0
  -22.0458  -12.8187   22.0438 N   0  0  0  0  0  0
  -25.4155  -15.1924   20.4106 N   0  0  0  0  0  0
  -31.7007  -15.0595   20.1239 O   0  0  0  0  0  0
  -21.6633   -6.8884   21.4243 O   0  0  0  0  0  0
  -22.3502  -14.5512   20.6743 O   0  0  0  0  0  0
  -24.6422  -31.8445   23.1883 C   0  0  0  0  0  0
  -25.9202  -32.4696   23.8264 C   0  0  1  0  0  0
  -27.2219  -27.1390   20.1466 C   0  0  0  0  0  0
  -25.5968  -33.8501   24.2183 N   0  0  0  0  0  0
  -23.4460  -30.4631   21.5333 C   0  0  2  0  0  0
  -24.8971  -28.8854   20.1114 C   0  0  0  0  0  0
  -22.7559  -29.4550   22.4861 C   0  0  0  0  0  0
  -18.0307  -28.1403   22.8496 C   0  0  0  0  0  0
  -24.1484  -36.7235   23.2645 C   0  0  0  0  0  0
  -26.0006  -30.7155   21.3890 C   0  0  0  0  0  0
  -26.0717  -29.3240   20.7359 C   0  0  0  0  0  0
  -27.2323  -28.4632   20.7452 C   0  0  0  0  0  0
  -26.0248  -26.8031   19.4788 C   0  0  0  0  0  0
  -24.8843  -27.6363   19.4703 C   0  0  0  0  0  0
  -23.6737  -29.7881   20.1534 C   0  0  0  0  0  0
  -25.4120  -36.3022   24.0318 C   0  0  1  0  0  0
  -20.5919  -28.3714   23.1254 C   0  0  2  0  0  0
  -20.6787  -26.9420   22.5417 C   0  0  0  0  0  0
  -19.5752  -26.6388   21.5229 C   0  0  0  0  0  0
  -18.1934  -26.7950   22.1630 C   0  0  0  0  0  0
  -19.1565  -28.8875   23.2868 C   0  0  0  0  0  0
  -18.9479  -30.1485   23.8874 C   0  0  0  0  0  0
  -17.6473  -30.6599   24.0563 C   0  0  0  0  0  0
  -25.9073  -34.9408   23.5051 C   0  0  0  0  0  0
  -16.5365  -29.9088   23.6354 C   0  0  0  0  0  0
  -16.7294  -28.6513   23.0369 C   0  0  0  0  0  0
  -26.4526  -31.6572   25.0706 C   0  0  0  0  0  0
  -25.3716  -31.3787   26.1408 C   0  0  0  0  0  0
  -27.0381  -30.2964   24.6291 C   0  0  0  0  0  0
  -27.6047  -32.4345   25.7496 C   0  0  0  0  0  0
  -27.5566  -37.1776   24.8466 C   0  0  0  0  0  0
  -21.4251  -29.3042   22.3619 N   0  0  0  0  0  0
  -26.4267  -37.3746   23.9419 N   0  0  0  0  0  0
  -24.7159  -31.0296   22.0918 N   0  0  0  0  0  0
  -23.4206  -28.8112   23.3022 O   0  0  0  0  0  0
  -28.2893  -26.1688   20.1602 O   0  0  0  0  0  0
  -26.5635  -34.8910   22.4618 O   0  0  0  0  0  0
  -23.5550  -32.1320   23.7114 O   0  0  0  0  0  0
  -28.0883  -19.6471   20.7418 C   0  0  0  0  0  0
  -28.3085  -18.2180   20.7505 C   0  0  0  0  0  0
  -29.1162  -20.6153   20.5132 C   0  0  0  0  0  0
  -30.3550  -19.9111   20.2487 C   0  0  0  0  0  0
  -29.5712  -17.5855   20.5156 C   0  0  0  0  0  0
  -28.8531  -23.5524   19.7744 C   0  0  0  0  0  0
  -27.7506  -24.2540   21.6790 C   0  0  0  0  0  0
  -28.9031  -22.2521   20.7893 C   0  0  1  0  0  0
  -27.7316  -22.6883   21.6959 C   0  0  1  0  0  0
  -27.7912  -22.1222   23.1223 C   0  0  0  0  0  0
  -31.7792  -20.9609   18.4357 C   0  0  0  0  0  0
  -31.6156  -20.7026   19.9386 C   0  0  0  0  0  0
  -30.5527  -18.5166   20.2388 N   0  0  0  0  0  0
  -27.8740  -24.6335   20.2751 N   0  0  0  0  0  0
  -29.6262  -16.0517   20.6123 N   0  0  0  0  0  0
  -31.4818  -12.7607   19.1816 H   0  0  0  0  0  0
  -30.4572  -11.6249   20.0135 H   0  0  0  0  0  0
  -29.8434  -11.7430   17.5755 H   0  0  0  0  0  0
  -29.6168  -13.4686   17.6955 H   0  0  0  0  0  0
  -27.9411  -11.2808   18.9590 H   0  0  0  0  0  0
  -27.3959  -12.4787   17.8133 H   0  0  0  0  0  0
  -27.6055  -14.2516   19.4325 H   0  0  0  0  0  0
  -28.7659  -12.2489   21.4314 H   0  0  0  0  0  0
  -28.3783  -13.9123   21.7860 H   0  0  0  0  0  0
  -25.2772   -9.5668   22.4766 H   0  0  0  0  0  0
  -24.0009   -7.4615   22.7458 H   0  0  0  0  0  0
  -21.0862   -8.8785   19.8933 H   0  0  0  0  0  0
  -22.3730  -10.9676   19.6162 H   0  0  0  0  0  0
  -21.2006   -7.6152   23.9724 H   0  0  0  0  0  0
  -21.1477   -6.0518   25.9082 H   0  0  0  0  0  0
  -22.0601   -2.7616   23.2835 H   0  0  0  0  0  0
  -22.4077  -11.9836   22.4804 H   0  0  0  0  0  0
  -21.1074  -13.1201   22.2652 H   0  0  0  0  0  0
  -24.6372  -15.8349   20.5104 H   0  0  0  0  0  0
  -26.2283  -15.6206   19.9891 H   0  0  0  0  0  0
  -26.7266  -32.5306   23.0993 H   0  0  0  0  0  0
  -25.0159  -33.9621   25.0359 H   0  0  0  0  0  0
  -22.7487  -31.2886   21.3777 H   0  0  0  0  0  0
  -23.3758  -35.9551   23.3294 H   0  0  0  0  0  0
  -24.3577  -36.8875   22.2062 H   0  0  0  0  0  0
  -23.7216  -37.6424   23.6678 H   0  0  0  0  0  0
  -26.1565  -31.4683   20.6145 H   0  0  0  0  0  0
  -26.8706  -30.7684   22.0317 H   0  0  0  0  0  0
  -28.1287  -28.7948   21.2504 H   0  0  0  0  0  0
  -25.9527  -25.8482   18.9775 H   0  0  0  0  0  0
  -23.9891  -27.2963   18.9676 H   0  0  0  0  0  0
  -23.8083  -30.5589   19.3937 H   0  0  0  0  0  0
  -22.7880  -29.2284   19.8463 H   0  0  0  0  0  0
  -25.1316  -36.1838   25.0808 H   0  0  0  0  0  0
  -21.0021  -28.3290   24.1369 H   0  0  0  0  0  0
  -20.5688  -26.2325   23.3632 H   0  0  0  0  0  0
  -21.6655  -26.7430   22.1203 H   0  0  0  0  0  0
  -19.6899  -25.6294   21.1270 H   0  0  0  0  0  0
  -19.6696  -27.3192   20.6755 H   0  0  0  0  0  0
  -17.4223  -26.6744   21.4012 H   0  0  0  0  0  0
  -18.0293  -26.0086   22.9014 H   0  0  0  0  0  0
  -19.7954  -30.7323   24.2208 H   0  0  0  0  0  0
  -17.5032  -31.6276   24.5168 H   0  0  0  0  0  0
  -15.5365  -30.2976   23.7696 H   0  0  0  0  0  0
  -15.8700  -28.0827   22.7075 H   0  0  0  0  0  0
  -24.5902  -30.7111   25.7767 H   0  0  0  0  0  0
  -24.8894  -32.2979   26.4737 H   0  0  0  0  0  0
  -25.8017  -30.9051   27.0239 H   0  0  0  0  0  0
  -26.2993  -29.6701   24.1274 H   0  0  0  0  0  0
  -27.3964  -29.7257   25.4867 H   0  0  0  0  0  0
  -27.8922  -30.4201   23.9628 H   0  0  0  0  0  0
  -27.2628  -33.3678   26.1982 H   0  0  0  0  0  0
  -28.3905  -32.6849   25.0358 H   0  0  0  0  0  0
  -28.0648  -31.8524   26.5491 H   0  0  0  0  0  0
  -28.2571  -38.0083   24.7519 H   0  0  0  0  0  0
  -28.1062  -36.2612   24.6268 H   0  0  0  0  0  0
  -27.2295  -37.1408   25.8871 H   0  0  0  0  0  0
  -20.9448  -29.8756   21.6806 H   0  0  0  0  0  0
  -26.0124  -38.2805   24.1442 H   0  0  0  0  0  0
  -27.0934  -19.9970   20.9758 H   0  0  0  0  0  0
  -27.4528  -17.5967   20.9750 H   0  0  0  0  0  0
  -28.5248  -23.2418   18.7821 H   0  0  0  0  0  0
  -29.8525  -23.9725   19.6557 H   0  0  0  0  0  0
  -28.6106  -24.6301   22.2366 H   0  0  0  0  0  0
  -26.8506  -24.6827   22.1213 H   0  0  0  0  0  0
  -29.7823  -22.4691   21.3961 H   0  0  0  0  0  0
  -26.7971  -22.3612   21.2368 H   0  0  0  0  0  0
  -28.7152  -22.4092   23.6252 H   0  0  0  0  0  0
  -27.7350  -21.0348   23.1294 H   0  0  0  0  0  0
  -26.9581  -22.4944   23.7190 H   0  0  0  0  0  0
  -32.6855  -21.5330   18.2354 H   0  0  0  0  0  0
  -30.9333  -21.5232   18.0399 H   0  0  0  0  0  0
  -31.8474  -20.0231   17.8834 H   0  0  0  0  0  0
  -32.4832  -20.1542   20.3074 H   0  0  0  0  0  0
  -31.6188  -21.6473   20.4793 H   0  0  0  0  0  0
  -28.7226  -15.6824   20.8554 H   0  0  0  0  0  0
  1 25  1  0  0  0
  1 30  2  0  0  0
  1 85  1  0  0  0
  2  3  1  0  0  0
  2 25  1  0  0  0
  2 86  1  0  0  0
  2 87  1  0  0  0
  3  4  1  0  0  0
  3 88  1  0  0  0
  3 89  1  0  0  0
  4  5  1  0  0  0
  4 90  1  0  0  0
  4 91  1  0  0  0
  5  6  1  0  0  0
  5 26  1  0  0  0
  5 92  1  0  0  0
  6 25  1  0  0  0
  6 93  1  0  0  0
  6 94  1  0  0  0
  7  8  2  0  0  0
  7 26  1  0  0  0
  7 29  1  0  0  0
  8  9  1  0  0  0
  8 22  1  0  0  0
  9 10  1  0  0  0
  9 27  2  0  0  0
 10 11  2  0  0  0
 10 15  1  0  0  0
 11 12  1  0  0  0
 11 95  1  0  0  0
 12 13  2  0  0  0
 12 96  1  0  0  0
 13 14  1  0  0  0
 13 31  1  0  0  0
 14 15  2  0  0  0
 14 97  1  0  0  0
 15 98  1  0  0  0
 16 17  2  0  0  0
 16 21  1  0  0  0
 16 31  1  0  0  0
 17 18  1  0  0  0
 17 99  1  0  0  0
 18 19  2  0  0  0
 18100  1  0  0  0
 19 20  1  0  0  0
 19 24  1  0  0  0
 20 21  2  0  0  0
 20101  1  0  0  0
 21 23  1  0  0  0
 22 28  1  0  0  0
 22 32  2  0  0  0
 26 27  1  0  0  0
 28102  1  0  0  0
 28103  1  0  0  0
 29104  1  0  0  0
 29105  1  0  0  0
 33 34  1  0  0  0
 33 66  1  0  0  0
 33 70  2  0  0  0
 34 36  1  0  0  0
 34 59  1  0  0  0
 34106  1  0  0  0
 35 44  2  0  0  0
 35 45  1  0  0  0
 35 68  1  0  0  0
 36 56  1  0  0  0
 36107  1  0  0  0
 37 39  1  0  0  0
 37 47  1  0  0  0
 37 66  1  0  0  0
 37108  1  0  0  0
 38 43  2  0  0  0
 38 46  1  0  0  0
 38 47  1  0  0  0
 39 64  1  0  0  0
 39 67  2  0  0  0
 40 52  1  0  0  0
 40 53  2  0  0  0
 40 58  1  0  0  0
 41109  1  0  0  0
 41110  1  0  0  0
 41111  1  0  0  0
 41 48  1  0  0  0
 42 43  1  0  0  0
 42 66  1  0  0  0
 42112  1  0  0  0
 42113  1  0  0  0
 43 44  1  0  0  0
 44114  1  0  0  0
 45 46  2  0  0  0
 45115  1  0  0  0
 46116  1  0  0  0
 47117  1  0  0  0
 47118  1  0  0  0
 48 56  1  0  0  0
 48 65  1  0  0  0
 48119  1  0  0  0
 49 50  1  0  0  0
 49 53  1  0  0  0
 49 64  1  0  0  0
 49120  1  0  0  0
 50 51  1  0  0  0
 50121  1  0  0  0
 50122  1  0  0  0
 51 52  1  0  0  0
 51123  1  0  0  0
 51124  1  0  0  0
 52125  1  0  0  0
 52126  1  0  0  0
 53 54  1  0  0  0
 54 55  2  0  0  0
 54127  1  0  0  0
 55 57  1  0  0  0
 55128  1  0  0  0
 56 69  2  0  0  0
 57 58  2  0  0  0
 57129  1  0  0  0
 58130  1  0  0  0
 59 60  1  0  0  0
 59 61  1  0  0  0
 59 62  1  0  0  0
 60131  1  0  0  0
 60132  1  0  0  0
 60133  1  0  0  0
 61134  1  0  0  0
 61135  1  0  0  0
 61136  1  0  0  0
 62137  1  0  0  0
 62138  1  0  0  0
 62139  1  0  0  0
 63 65  1  0  0  0
 63140  1  0  0  0
 63141  1  0  0  0
 63142  1  0  0  0
 64143  1  0  0  0
 65144  1  0  0  0
 68 84  1  0  0  0
 71 72  2  0  0  0
 71 73  1  0  0  0
 71145  1  0  0  0
 72 75  1  0  0  0
 72146  1  0  0  0
 73 74  2  0  0  0
 73 78  1  0  0  0
 74 82  1  0  0  0
 74 83  1  0  0  0
 75 83  2  0  0  0
 75 85  1  0  0  0
 76 78  1  0  0  0
 76 84  1  0  0  0
 76147  1  0  0  0
 76148  1  0  0  0
 77 79  1  0  0  0
 77 84  1  0  0  0
 77149  1  0  0  0
 77150  1  0  0  0
 78 79  1  0  0  0
 78151  1  0  0  0
 79 80  1  0  0  0
 79152  1  0  0  0
 80153  1  0  0  0
 80154  1  0  0  0
 80155  1  0  0  0
 81 82  1  0  0  0
 81156  1  0  0  0
 81157  1  0  0  0
 81158  1  0  0  0
 82159  1  0  0  0
 82160  1  0  0  0
 85161  1  0  0  0
M  ISO  4   1 100  68 101  84 101  85 100
M  END
> <chiral flag>
0

> <version>
0

> <s_m_source_file>
/data/baiqing/PycharmProjects/Reinvent-master-3.2/result/LINK_invent/BTK/process_docking_weight1_custom_sum_contain_oxygen_bond_distance_aromatic_linkinvent_7_9_3/rearranged_h_0177.sdf

> <i_m_source_file_index>
65

> <r_mmod_Potential_Energy-OPLS-2005>
372.409362792969

> <r_mmod_Stretch_Energy-OPLS-2005>
229.50651550293

> <r_mmod_Bend_Energy-OPLS-2005>
311.769592285156

> <r_mmod_Torsional_Energy-OPLS-2005>
263.352386474609

> <r_mmod_Improper_Torsional_Energy-OPLS-2005>
5.54842472076416

> <r_mmod_Van_der_Waal_Energy-OPLS-2005>
125.489883422852

> <r_mmod_Electrostatic_Energy-OPLS-2005>
-518.018981933594

> <r_mmod_Solvation_Energy-OPLS-2005>
-233.300903320312

> <b_mmod_Minimization_Converged-OPLS-2005>
0

> <r_mmod_RMS_Derivative-OPLS-2005>
1.54709839820862

$$$$
65
                    3D
 Structure written by MMmdl.
159169  0  0  1  0            999 V2000
  -30.5658  -15.0012   20.4245 C   0  0  0  0  0  0
  -30.4283  -12.6287   19.5212 C   0  0  0  0  0  0
  -29.5247  -12.5383   18.2710 C   0  0  0  0  0  0
  -28.0591  -12.3125   18.6834 C   0  0  0  0  0  0
  -27.6198  -13.2624   19.8296 C   0  0  2  0  0  0
  -28.6558  -13.3436   20.9713 C   0  0  0  0  0  0
  -25.2403  -13.8225   20.5717 C   0  0  0  0  0  0
  -24.1748  -13.0426   20.9245 C   0  0  0  0  0  0
  -24.6386  -11.6929   20.8743 C   0  0  0  0  0  0
  -23.9078  -10.4297   21.0394 C   0  0  0  0  0  0
  -24.3633   -9.4208   21.9168 C   0  0  0  0  0  0
  -23.6310   -8.2241   22.0742 C   0  0  0  0  0  0
  -22.4294   -8.0281   21.3541 C   0  0  0  0  0  0
  -21.9931   -9.0241   20.4631 C   0  0  0  0  0  0
  -22.7255  -10.2119   20.3031 C   0  0  0  0  0  0
  -21.6842   -6.0739   22.5280 C   0  0  0  0  0  0
  -21.4012   -6.5650   23.8216 C   0  0  0  0  0  0
  -21.3661   -5.6792   24.9180 C   0  0  0  0  0  0
  -21.6044   -4.3054   24.7225 C   0  0  0  0  0  0
  -21.8822   -3.8149   23.4340 C   0  0  0  0  0  0
  -21.9196   -4.6966   22.3396 C   0  0  0  0  0  0
  -22.7764  -13.5186   21.1895 C   0  0  0  0  0  0
  -22.1666   -4.2153   21.0964 F   0  0  0  0  0  0
  -21.5626   -3.4536   25.7735 F   0  0  0  0  0  0
  -29.9304  -13.7549   20.3717 N   0  0  0  0  0  0
  -26.2840  -12.9487   20.3217 N   0  0  0  0  0  0
  -25.9320  -11.6610   20.5715 N   0  0  0  0  0  0
  -22.0426  -12.8167   22.0443 N   0  0  0  0  0  0
  -25.4025  -15.1949   20.4150 N   0  0  0  0  0  0
  -31.7711  -14.9956   20.1516 O   0  0  0  0  0  0
  -21.6643   -6.8887   21.4246 O   0  0  0  0  0  0
  -22.3443  -14.5488   20.6724 O   0  0  0  0  0  0
  -24.6498  -31.8370   23.1862 C   0  0  0  0  0  0
  -25.9263  -32.4669   23.8267 C   0  0  1  0  0  0
  -27.2251  -27.0800   20.1445 C   0  0  0  0  0  0
  -25.6001  -33.8480   24.2174 N   0  0  0  0  0  0
  -23.4586  -30.4560   21.5332 C   0  0  2  0  0  0
  -24.9108  -28.8797   20.1076 C   0  0  0  0  0  0
  -22.7618  -29.4508   22.4859 C   0  0  0  0  0  0
  -18.0300  -28.1411   22.8470 C   0  0  0  0  0  0
  -24.1488  -36.7228   23.2641 C   0  0  0  0  0  0
  -26.0205  -30.6913   21.3953 C   0  0  0  0  0  0
  -26.0897  -29.2984   20.7347 C   0  0  0  0  0  0
  -27.2421  -28.4146   20.7399 C   0  0  0  0  0  0
  -26.0204  -26.7934   19.4594 C   0  0  0  0  0  0
  -24.8929  -27.6421   19.4541 C   0  0  0  0  0  0
  -23.6883  -29.7836   20.1536 C   0  0  0  0  0  0
  -25.4133  -36.3013   24.0305 C   0  0  1  0  0  0
  -20.5917  -28.3727   23.1225 C   0  0  2  0  0  0
  -20.6784  -26.9424   22.5399 C   0  0  0  0  0  0
  -19.5762  -26.6383   21.5208 C   0  0  0  0  0  0
  -18.1939  -26.7960   22.1607 C   0  0  0  0  0  0
  -19.1559  -28.8899   23.2836 C   0  0  0  0  0  0
  -18.9478  -30.1498   23.8859 C   0  0  0  0  0  0
  -17.6472  -30.6601   24.0548 C   0  0  0  0  0  0
  -25.9087  -34.9401   23.5053 C   0  0  0  0  0  0
  -16.5365  -29.9084   23.6333 C   0  0  0  0  0  0
  -16.7281  -28.6500   23.0356 C   0  0  0  0  0  0
  -26.4555  -31.6581   25.0741 C   0  0  0  0  0  0
  -25.3700  -31.3797   26.1394 C   0  0  0  0  0  0
  -27.0424  -30.2972   24.6389 C   0  0  0  0  0  0
  -27.6092  -32.4349   25.7511 C   0  0  0  0  0  0
  -27.5571  -37.1772   24.8464 C   0  0  0  0  0  0
  -21.4295  -29.3052   22.3615 N   0  0  0  0  0  0
  -26.4286  -37.3739   23.9409 N   0  0  0  0  0  0
  -24.7309  -31.0171   22.0922 N   0  0  0  0  0  0
  -23.4233  -28.8036   23.3025 O   0  0  0  0  0  0
  -28.2546  -26.0475   20.2589 O   0  0  0  0  0  0
  -26.5652  -34.8903   22.4611 O   0  0  0  0  0  0
  -23.5604  -32.1267   23.7036 O   0  0  0  0  0  0
  -29.9253  -21.0166   19.6970 C   0  0  0  0  0  0
  -29.1523  -20.1209   20.5263 C   0  0  0  0  0  0
  -27.9118  -22.1684   21.0420 C   0  0  0  0  0  0
  -28.6637  -23.0753   20.2038 C   0  0  0  0  0  0
  -31.4015  -20.7722   17.4943 C   0  0  0  0  0  0
  -30.8116  -19.4372   17.8569 C   0  0  0  0  0  0
  -28.9709  -17.1550   19.9345 C   0  0  0  0  0  0
  -30.6544  -17.5688   21.0012 C   0  0  0  0  0  0
  -31.0935  -20.4550   18.9429 C   0  0  0  0  0  0
  -29.3711  -18.4651   20.7644 C   0  0  0  0  0  0
  -26.6851  -22.6787   21.7672 C   0  0  0  0  0  0
  -28.1077  -24.5799   19.6866 C   0  0  0  0  0  0
  -28.1489  -20.7926   21.1980 N   0  0  0  0  0  0
  -29.6880  -22.4020   19.5428 N   0  0  0  0  0  0
  -29.9226  -16.2575   20.7201 N   0  0  0  0  0  0
  -31.4661  -12.7715   19.2160 H   0  0  0  0  0  0
  -30.4149  -11.6923   20.0809 H   0  0  0  0  0  0
  -29.8620  -11.7341   17.6170 H   0  0  0  0  0  0
  -29.6092  -13.4594   17.6921 H   0  0  0  0  0  0
  -27.9667  -11.2760   19.0072 H   0  0  0  0  0  0
  -27.3993  -12.4200   17.8200 H   0  0  0  0  0  0
  -27.5653  -14.2541   19.3784 H   0  0  0  0  0  0
  -28.7515  -12.3873   21.4869 H   0  0  0  0  0  0
  -28.3406  -14.0717   21.7214 H   0  0  0  0  0  0
  -25.2769   -9.5688   22.4755 H   0  0  0  0  0  0
  -24.0017   -7.4621   22.7459 H   0  0  0  0  0  0
  -21.0863   -8.8736   19.8931 H   0  0  0  0  0  0
  -22.3700  -10.9645   19.6137 H   0  0  0  0  0  0
  -21.2001   -7.6163   23.9732 H   0  0  0  0  0  0
  -21.1481   -6.0518   25.9084 H   0  0  0  0  0  0
  -22.0602   -2.7614   23.2824 H   0  0  0  0  0  0
  -22.4062  -11.9830   22.4812 H   0  0  0  0  0  0
  -21.1022  -13.1141   22.2623 H   0  0  0  0  0  0
  -24.6280  -15.8426   20.5171 H   0  0  0  0  0  0
  -26.2481  -15.6367   20.0804 H   0  0  0  0  0  0
  -26.7328  -32.5226   23.0990 H   0  0  0  0  0  0
  -25.0176  -33.9605   25.0341 H   0  0  0  0  0  0
  -22.7637  -31.2818   21.3739 H   0  0  0  0  0  0
  -23.3767  -35.9541   23.3304 H   0  0  0  0  0  0
  -24.3562  -36.8846   22.2053 H   0  0  0  0  0  0
  -23.7230  -37.6431   23.6661 H   0  0  0  0  0  0
  -26.1911  -31.4436   20.6238 H   0  0  0  0  0  0
  -26.8890  -30.7397   22.0420 H   0  0  0  0  0  0
  -28.1348  -28.7330   21.2600 H   0  0  0  0  0  0
  -25.8789  -25.8650   18.9326 H   0  0  0  0  0  0
  -23.9963  -27.3192   18.9435 H   0  0  0  0  0  0
  -23.8282  -30.5562   19.3969 H   0  0  0  0  0  0
  -22.8027  -29.2278   19.8394 H   0  0  0  0  0  0
  -25.1318  -36.1826   25.0794 H   0  0  0  0  0  0
  -20.9993  -28.3286   24.1352 H   0  0  0  0  0  0
  -20.5695  -26.2323   23.3620 H   0  0  0  0  0  0
  -21.6639  -26.7425   22.1180 H   0  0  0  0  0  0
  -19.6924  -25.6291   21.1243 H   0  0  0  0  0  0
  -19.6712  -27.3179   20.6730 H   0  0  0  0  0  0
  -17.4217  -26.6716   21.4006 H   0  0  0  0  0  0
  -18.0326  -26.0115   22.9010 H   0  0  0  0  0  0
  -19.7953  -30.7326   24.2218 H   0  0  0  0  0  0
  -17.5013  -31.6280   24.5167 H   0  0  0  0  0  0
  -15.5364  -30.2964   23.7722 H   0  0  0  0  0  0
  -15.8668  -28.0806   22.7101 H   0  0  0  0  0  0
  -24.5915  -30.7109   25.7703 H   0  0  0  0  0  0
  -24.8842  -32.2981   26.4697 H   0  0  0  0  0  0
  -25.7933  -30.9048   27.0244 H   0  0  0  0  0  0
  -26.3064  -29.6699   24.1354 H   0  0  0  0  0  0
  -27.3966  -29.7278   25.4989 H   0  0  0  0  0  0
  -27.8991  -30.4208   23.9766 H   0  0  0  0  0  0
  -27.2732  -33.3711   26.1971 H   0  0  0  0  0  0
  -28.3963  -32.6811   25.0374 H   0  0  0  0  0  0
  -28.0700  -31.8550   26.5512 H   0  0  0  0  0  0
  -28.2568  -38.0087   24.7521 H   0  0  0  0  0  0
  -28.1080  -36.2619   24.6264 H   0  0  0  0  0  0
  -27.2282  -37.1364   25.8863 H   0  0  0  0  0  0
  -20.9548  -29.8752   21.6758 H   0  0  0  0  0  0
  -26.0133  -38.2788   24.1444 H   0  0  0  0  0  0
  -30.7626  -21.4830   16.9761 H   0  0  0  0  0  0
  -32.4456  -20.7696   17.1870 H   0  0  0  0  0  0
  -31.4559  -18.5608   17.8086 H   0  0  0  0  0  0
  -29.7736  -19.2704   17.5732 H   0  0  0  0  0  0
  -29.2173  -17.2278   18.8740 H   0  0  0  0  0  0
  -27.9170  -16.8994   20.0465 H   0  0  0  0  0  0
  -31.0501  -17.6536   22.0139 H   0  0  0  0  0  0
  -31.4491  -17.7801   20.2836 H   0  0  0  0  0  0
  -31.9232  -20.2373   19.6140 H   0  0  0  0  0  0
  -28.8138  -18.3597   21.6979 H   0  0  0  0  0  0
  -25.8099  -22.5816   21.1246 H   0  0  0  0  0  0
  -26.7936  -23.7308   22.0329 H   0  0  0  0  0  0
  -26.5044  -22.1189   22.6842 H   0  0  0  0  0  0
  -27.0505  -24.3662   19.5805 H   0  0  0  0  0  0
  -28.4640  -24.6654   18.6597 H   0  0  0  0  0  0
  1 25  1  0  0  0
  1 30  2  0  0  0
  1 85  1  0  0  0
  2  3  1  0  0  0
  2 25  1  0  0  0
  2 86  1  0  0  0
  2 87  1  0  0  0
  3  4  1  0  0  0
  3 88  1  0  0  0
  3 89  1  0  0  0
  4  5  1  0  0  0
  4 90  1  0  0  0
  4 91  1  0  0  0
  5  6  1  0  0  0
  5 26  1  0  0  0
  5 92  1  0  0  0
  6 25  1  0  0  0
  6 93  1  0  0  0
  6 94  1  0  0  0
  7  8  2  0  0  0
  7 26  1  0  0  0
  7 29  1  0  0  0
  8  9  1  0  0  0
  8 22  1  0  0  0
  9 10  1  0  0  0
  9 27  2  0  0  0
 10 11  2  0  0  0
 10 15  1  0  0  0
 11 12  1  0  0  0
 11 95  1  0  0  0
 12 13  2  0  0  0
 12 96  1  0  0  0
 13 14  1  0  0  0
 13 31  1  0  0  0
 14 15  2  0  0  0
 14 97  1  0  0  0
 15 98  1  0  0  0
 16 17  2  0  0  0
 16 21  1  0  0  0
 16 31  1  0  0  0
 17 18  1  0  0  0
 17 99  1  0  0  0
 18 19  2  0  0  0
 18100  1  0  0  0
 19 20  1  0  0  0
 19 24  1  0  0  0
 20 21  2  0  0  0
 20101  1  0  0  0
 21 23  1  0  0  0
 22 28  1  0  0  0
 22 32  2  0  0  0
 26 27  1  0  0  0
 28102  1  0  0  0
 28103  1  0  0  0
 29104  1  0  0  0
 29105  1  0  0  0
 33 34  1  0  0  0
 33 66  1  0  0  0
 33 70  2  0  0  0
 34 36  1  0  0  0
 34 59  1  0  0  0
 34106  1  0  0  0
 35 44  2  0  0  0
 35 45  1  0  0  0
 35 68  1  0  0  0
 36 56  1  0  0  0
 36107  1  0  0  0
 37 39  1  0  0  0
 37 47  1  0  0  0
 37 66  1  0  0  0
 37108  1  0  0  0
 38 43  2  0  0  0
 38 46  1  0  0  0
 38 47  1  0  0  0
 39 64  1  0  0  0
 39 67  2  0  0  0
 40 52  1  0  0  0
 40 53  2  0  0  0
 40 58  1  0  0  0
 41109  1  0  0  0
 41110  1  0  0  0
 41111  1  0  0  0
 41 48  1  0  0  0
 42 43  1  0  0  0
 42 66  1  0  0  0
 42112  1  0  0  0
 42113  1  0  0  0
 43 44  1  0  0  0
 44114  1  0  0  0
 45 46  2  0  0  0
 45115  1  0  0  0
 46116  1  0  0  0
 47117  1  0  0  0
 47118  1  0  0  0
 48 56  1  0  0  0
 48 65  1  0  0  0
 48119  1  0  0  0
 49 50  1  0  0  0
 49 53  1  0  0  0
 49 64  1  0  0  0
 49120  1  0  0  0
 50 51  1  0  0  0
 50121  1  0  0  0
 50122  1  0  0  0
 51 52  1  0  0  0
 51123  1  0  0  0
 51124  1  0  0  0
 52125  1  0  0  0
 52126  1  0  0  0
 53 54  1  0  0  0
 54 55  2  0  0  0
 54127  1  0  0  0
 55 57  1  0  0  0
 55128  1  0  0  0
 56 69  2  0  0  0
 57 58  2  0  0  0
 57129  1  0  0  0
 58130  1  0  0  0
 59 60  1  0  0  0
 59 61  1  0  0  0
 59 62  1  0  0  0
 60131  1  0  0  0
 60132  1  0  0  0
 60133  1  0  0  0
 61134  1  0  0  0
 61135  1  0  0  0
 61136  1  0  0  0
 62137  1  0  0  0
 62138  1  0  0  0
 62139  1  0  0  0
 63 65  1  0  0  0
 63140  1  0  0  0
 63141  1  0  0  0
 63142  1  0  0  0
 64143  1  0  0  0
 65144  1  0  0  0
 68 82  1  0  0  0
 71 72  1  0  0  0
 71 84  2  0  0  0
 71 79  1  0  0  0
 72 83  2  0  0  0
 72 80  1  0  0  0
 73 74  2  0  0  0
 73 81  1  0  0  0
 73 83  1  0  0  0
 74 82  1  0  0  0
 74 84  1  0  0  0
 75 76  1  0  0  0
 75 79  1  0  0  0
 75145  1  0  0  0
 75146  1  0  0  0
 76 79  1  0  0  0
 76147  1  0  0  0
 76148  1  0  0  0
 77 80  1  0  0  0
 77 85  1  0  0  0
 77149  1  0  0  0
 77150  1  0  0  0
 78 80  1  0  0  0
 78 85  1  0  0  0
 78151  1  0  0  0
 78152  1  0  0  0
 79153  1  0  0  0
 80154  1  0  0  0
 81155  1  0  0  0
 81156  1  0  0  0
 81157  1  0  0  0
 82158  1  0  0  0
 82159  1  0  0  0
M  ISO  4   1 100  68 101  82 101  85 100
M  END
> <chiral flag>
0

> <version>
0

> <s_m_source_file>
/data/baiqing/PycharmProjects/Reinvent-master-3.2/result/LINK_invent/BTK/process_docking_weight1_custom_sum_contain_oxygen_bond_distance_aromatic_linkinvent_7_9_3/rearranged_h_0177.sdf

> <i_m_source_file_index>
66

> <r_mmod_Potential_Energy-OPLS-2005>
796.698364257812

> <r_mmod_Stretch_Energy-OPLS-2005>
284.351226806641

> <r_mmod_Bend_Energy-OPLS-2005>
327.390441894531

> <r_mmod_Torsional_Energy-OPLS-2005>
291.176940917969

> <r_mmod_Improper_Torsional_Energy-OPLS-2005>
11.800332069397

> <r_mmod_Van_der_Waal_Energy-OPLS-2005>
128.774780273438

> <r_mmod_Electrostatic_Energy-OPLS-2005>
-264.955780029297

> <r_mmod_Solvation_Energy-OPLS-2005>
-223.449325561523

> <b_mmod_Minimization_Converged-OPLS-2005>
0

> <r_mmod_RMS_Derivative-OPLS-2005>
3.46447896957397

$$$$
66
                    3D
 Structure written by MMmdl.
159168  0  0  1  0            999 V2000
  -30.5740  -14.9659   20.4305 C   0  0  0  0  0  0
  -30.4197  -12.6054   19.5122 C   0  0  0  0  0  0
  -29.5184  -12.5444   18.2596 C   0  0  0  0  0  0
  -28.0481  -12.3303   18.6621 C   0  0  0  0  0  0
  -27.6201  -13.2580   19.8296 C   0  0  2  0  0  0
  -28.6543  -13.3306   20.9710 C   0  0  0  0  0  0
  -25.2417  -13.8250   20.5676 C   0  0  0  0  0  0
  -24.1752  -13.0460   20.9228 C   0  0  0  0  0  0
  -24.6382  -11.6946   20.8733 C   0  0  0  0  0  0
  -23.9094  -10.4298   21.0369 C   0  0  0  0  0  0
  -24.3644   -9.4214   21.9157 C   0  0  0  0  0  0
  -23.6316   -8.2259   22.0754 C   0  0  0  0  0  0
  -22.4293   -8.0299   21.3565 C   0  0  0  0  0  0
  -21.9921   -9.0264   20.4652 C   0  0  0  0  0  0
  -22.7250  -10.2148   20.3024 C   0  0  0  0  0  0
  -21.6850   -6.0748   22.5293 C   0  0  0  0  0  0
  -21.4021   -6.5651   23.8221 C   0  0  0  0  0  0
  -21.3637   -5.6799   24.9179 C   0  0  0  0  0  0
  -21.6048   -4.3067   24.7226 C   0  0  0  0  0  0
  -21.8820   -3.8168   23.4343 C   0  0  0  0  0  0
  -21.9194   -4.6983   22.3402 C   0  0  0  0  0  0
  -22.7774  -13.5229   21.1873 C   0  0  0  0  0  0
  -22.1643   -4.2162   21.0982 F   0  0  0  0  0  0
  -21.5610   -3.4537   25.7740 F   0  0  0  0  0  0
  -29.9335  -13.7253   20.3732 N   0  0  0  0  0  0
  -26.2837  -12.9487   20.3206 N   0  0  0  0  0  0
  -25.9319  -11.6620   20.5718 N   0  0  0  0  0  0
  -22.0423  -12.8258   22.0461 N   0  0  0  0  0  0
  -25.4144  -15.1970   20.4027 N   0  0  0  0  0  0
  -31.7725  -14.9608   20.1114 O   0  0  0  0  0  0
  -21.6655   -6.8899   21.4272 O   0  0  0  0  0  0
  -22.3463  -14.5502   20.6661 O   0  0  0  0  0  0
  -24.6410  -31.8431   23.1873 C   0  0  0  0  0  0
  -25.9196  -32.4681   23.8274 C   0  0  1  0  0  0
  -27.2061  -27.1406   20.1421 C   0  0  0  0  0  0
  -25.5944  -33.8493   24.2185 N   0  0  0  0  0  0
  -23.4428  -30.4619   21.5336 C   0  0  2  0  0  0
  -24.8881  -28.8913   20.1041 C   0  0  0  0  0  0
  -22.7535  -29.4535   22.4868 C   0  0  0  0  0  0
  -18.0275  -28.1390   22.8445 C   0  0  0  0  0  0
  -24.1479  -36.7265   23.2652 C   0  0  0  0  0  0
  -25.9977  -30.7189   21.3832 C   0  0  0  0  0  0
  -26.0638  -29.3292   20.7268 C   0  0  0  0  0  0
  -27.2229  -28.4673   20.7341 C   0  0  0  0  0  0
  -26.0097  -26.8070   19.4734 C   0  0  0  0  0  0
  -24.8735  -27.6446   19.4630 C   0  0  0  0  0  0
  -23.6661  -29.7949   20.1490 C   0  0  0  0  0  0
  -25.4115  -36.3033   24.0316 C   0  0  1  0  0  0
  -20.5886  -28.3700   23.1237 C   0  0  2  0  0  0
  -20.6752  -26.9411   22.5396 C   0  0  0  0  0  0
  -19.5735  -26.6368   21.5192 C   0  0  0  0  0  0
  -18.1916  -26.7923   22.1597 C   0  0  0  0  0  0
  -19.1534  -28.8859   23.2821 C   0  0  0  0  0  0
  -18.9469  -30.1453   23.8850 C   0  0  0  0  0  0
  -17.6475  -30.6573   24.0555 C   0  0  0  0  0  0
  -25.9070  -34.9406   23.5058 C   0  0  0  0  0  0
  -16.5361  -29.9074   23.6331 C   0  0  0  0  0  0
  -16.7267  -28.6499   23.0332 C   0  0  0  0  0  0
  -26.4537  -31.6532   25.0696 C   0  0  0  0  0  0
  -25.3752  -31.3693   26.1412 C   0  0  0  0  0  0
  -27.0392  -30.2932   24.6253 C   0  0  0  0  0  0
  -27.6063  -32.4306   25.7473 C   0  0  0  0  0  0
  -27.5563  -37.1788   24.8465 C   0  0  0  0  0  0
  -21.4220  -29.3050   22.3635 N   0  0  0  0  0  0
  -26.4270  -37.3751   23.9412 N   0  0  0  0  0  0
  -24.7144  -31.0289   22.0899 N   0  0  0  0  0  0
  -23.4183  -28.8099   23.3034 O   0  0  0  0  0  0
  -28.2547  -26.1555   20.2121 O   0  0  0  0  0  0
  -26.5655  -34.8913   22.4645 O   0  0  0  0  0  0
  -23.5531  -32.1330   23.7091 O   0  0  0  0  0  0
  -29.1081  -20.7946   21.3615 C   0  0  0  0  0  0
  -29.2564  -19.3585   21.1462 C   0  0  0  0  0  0
  -29.2050  -18.8105   19.8553 C   0  0  0  0  0  0
  -28.8854  -21.7460   20.2922 C   0  0  0  0  0  0
  -28.9016  -19.7951   18.8512 C   0  0  0  0  0  0
  -29.4016  -18.3072   22.2521 C   0  0  0  0  0  0
  -29.4194  -17.2143   19.6120 C   0  0  0  0  0  0
  -30.2821  -17.0261   21.9171 C   0  0  2  0  0  0
  -28.6190  -19.3609   17.4269 C   0  0  0  0  0  0
  -31.7751  -17.4343   21.9381 C   0  0  0  0  0  0
  -29.0333  -23.3900   20.4459 C   0  0  0  0  0  0
  -27.9901  -24.6307   20.0101 C   0  0  0  0  0  0
  -28.7906  -21.1659   19.0539 N   0  0  0  0  0  0
  -29.9101  -16.2163   20.6942 N   0  0  0  0  0  0
  -31.4571  -12.7423   19.2056 H   0  0  0  0  0  0
  -30.3979  -11.6599   20.0549 H   0  0  0  0  0  0
  -29.8483  -11.7477   17.5940 H   0  0  0  0  0  0
  -29.6158  -13.4735   17.6975 H   0  0  0  0  0  0
  -27.9259  -11.2831   18.9450 H   0  0  0  0  0  0
  -27.3974  -12.4873   17.7986 H   0  0  0  0  0  0
  -27.5699  -14.2554   19.3928 H   0  0  0  0  0  0
  -28.7361  -12.3777   21.4935 H   0  0  0  0  0  0
  -28.3405  -14.0675   21.7123 H   0  0  0  0  0  0
  -25.2760   -9.5698   22.4788 H   0  0  0  0  0  0
  -24.0005   -7.4630   22.7462 H   0  0  0  0  0  0
  -21.0850   -8.8773   19.8959 H   0  0  0  0  0  0
  -22.3659  -10.9702   19.6162 H   0  0  0  0  0  0
  -21.2024   -7.6151   23.9745 H   0  0  0  0  0  0
  -21.1447   -6.0518   25.9089 H   0  0  0  0  0  0
  -22.0627   -2.7632   23.2849 H   0  0  0  0  0  0
  -22.3953  -11.9870   22.4825 H   0  0  0  0  0  0
  -21.1048  -13.1308   22.2609 H   0  0  0  0  0  0
  -24.6580  -15.8658   20.5033 H   0  0  0  0  0  0
  -26.2731  -15.6277   20.0849 H   0  0  0  0  0  0
  -26.7259  -32.5288   23.0992 H   0  0  0  0  0  0
  -25.0060  -33.9620   25.0320 H   0  0  0  0  0  0
  -22.7467  -31.2890   21.3788 H   0  0  0  0  0  0
  -23.3732  -35.9594   23.3281 H   0  0  0  0  0  0
  -24.3595  -36.8943   22.2073 H   0  0  0  0  0  0
  -23.7230  -37.6458   23.6711 H   0  0  0  0  0  0
  -26.1497  -31.4734   20.6090 H   0  0  0  0  0  0
  -26.8712  -30.7689   22.0231 H   0  0  0  0  0  0
  -28.1163  -28.7914   21.2500 H   0  0  0  0  0  0
  -25.9212  -25.8600   18.9676 H   0  0  0  0  0  0
  -23.9813  -27.3000   18.9588 H   0  0  0  0  0  0
  -23.7993  -30.5720   19.3941 H   0  0  0  0  0  0
  -22.7796  -29.2404   19.8379 H   0  0  0  0  0  0
  -25.1303  -36.1854   25.0803 H   0  0  0  0  0  0
  -20.9956  -28.3273   24.1371 H   0  0  0  0  0  0
  -20.5581  -26.2353   23.3626 H   0  0  0  0  0  0
  -21.6628  -26.7383   22.1254 H   0  0  0  0  0  0
  -19.6897  -25.6268   21.1235 H   0  0  0  0  0  0
  -19.6652  -27.3157   20.6703 H   0  0  0  0  0  0
  -17.4188  -26.6625   21.4006 H   0  0  0  0  0  0
  -18.0317  -26.0086   22.9006 H   0  0  0  0  0  0
  -19.7963  -30.7235   24.2233 H   0  0  0  0  0  0
  -17.5050  -31.6251   24.5140 H   0  0  0  0  0  0
  -15.5369  -30.2968   23.7691 H   0  0  0  0  0  0
  -15.8667  -28.0805   22.7098 H   0  0  0  0  0  0
  -24.5936  -30.7017   25.7760 H   0  0  0  0  0  0
  -24.8930  -32.2855   26.4819 H   0  0  0  0  0  0
  -25.8098  -30.8894   27.0193 H   0  0  0  0  0  0
  -26.2987  -29.6641   24.1289 H   0  0  0  0  0  0
  -27.4059  -29.7235   25.4805 H   0  0  0  0  0  0
  -27.8887  -30.4173   23.9538 H   0  0  0  0  0  0
  -27.2652  -33.3645   26.1957 H   0  0  0  0  0  0
  -28.3930  -32.6802   25.0338 H   0  0  0  0  0  0
  -28.0657  -31.8477   26.5468 H   0  0  0  0  0  0
  -28.2572  -38.0091   24.7527 H   0  0  0  0  0  0
  -28.1068  -36.2629   24.6258 H   0  0  0  0  0  0
  -27.2300  -37.1408   25.8874 H   0  0  0  0  0  0
  -20.9422  -29.8857   21.6893 H   0  0  0  0  0  0
  -26.0122  -38.2820   24.1403 H   0  0  0  0  0  0
  -29.1963  -21.1739   22.3719 H   0  0  0  0  0  0
  -28.3901  -17.9720   22.4877 H   0  0  0  0  0  0
  -29.7557  -18.7943   23.1611 H   0  0  0  0  0  0
  -30.0903  -17.1138   18.7563 H   0  0  0  0  0  0
  -28.4551  -16.8274   19.2729 H   0  0  0  0  0  0
  -30.1394  -16.3604   22.7702 H   0  0  0  0  0  0
  -29.5386  -19.0758   16.9175 H   0  0  0  0  0  0
  -28.1435  -20.1638   16.8605 H   0  0  0  0  0  0
  -27.9340  -18.5111   17.4218 H   0  0  0  0  0  0
  -32.0834  -17.8714   20.9880 H   0  0  0  0  0  0
  -32.4294  -16.5863   22.1458 H   0  0  0  0  0  0
  -31.9774  -18.1752   22.7125 H   0  0  0  0  0  0
  -29.9839  -23.6263   19.9648 H   0  0  0  0  0  0
  -29.2323  -23.5487   21.5057 H   0  0  0  0  0  0
  -27.0350  -24.4152   20.4917 H   0  0  0  0  0  0
  -27.8107  -24.5019   18.9425 H   0  0  0  0  0  0
  1 25  1  0  0  0
  1 30  2  0  0  0
  1 84  1  0  0  0
  2  3  1  0  0  0
  2 25  1  0  0  0
  2 85  1  0  0  0
  2 86  1  0  0  0
  3  4  1  0  0  0
  3 87  1  0  0  0
  3 88  1  0  0  0
  4  5  1  0  0  0
  4 89  1  0  0  0
  4 90  1  0  0  0
  5  6  1  0  0  0
  5 26  1  0  0  0
  5 91  1  0  0  0
  6 25  1  0  0  0
  6 92  1  0  0  0
  6 93  1  0  0  0
  7  8  2  0  0  0
  7 26  1  0  0  0
  7 29  1  0  0  0
  8  9  1  0  0  0
  8 22  1  0  0  0
  9 10  1  0  0  0
  9 27  2  0  0  0
 10 11  2  0  0  0
 10 15  1  0  0  0
 11 12  1  0  0  0
 11 94  1  0  0  0
 12 13  2  0  0  0
 12 95  1  0  0  0
 13 14  1  0  0  0
 13 31  1  0  0  0
 14 15  2  0  0  0
 14 96  1  0  0  0
 15 97  1  0  0  0
 16 17  2  0  0  0
 16 21  1  0  0  0
 16 31  1  0  0  0
 17 18  1  0  0  0
 17 98  1  0  0  0
 18 19  2  0  0  0
 18 99  1  0  0  0
 19 20  1  0  0  0
 19 24  1  0  0  0
 20 21  2  0  0  0
 20100  1  0  0  0
 21 23  1  0  0  0
 22 28  1  0  0  0
 22 32  2  0  0  0
 26 27  1  0  0  0
 28101  1  0  0  0
 28102  1  0  0  0
 29103  1  0  0  0
 29104  1  0  0  0
 33 34  1  0  0  0
 33 66  1  0  0  0
 33 70  2  0  0  0
 34 36  1  0  0  0
 34 59  1  0  0  0
 34105  1  0  0  0
 35 44  2  0  0  0
 35 45  1  0  0  0
 35 68  1  0  0  0
 36 56  1  0  0  0
 36106  1  0  0  0
 37 39  1  0  0  0
 37 47  1  0  0  0
 37 66  1  0  0  0
 37107  1  0  0  0
 38 43  2  0  0  0
 38 46  1  0  0  0
 38 47  1  0  0  0
 39 64  1  0  0  0
 39 67  2  0  0  0
 40 52  1  0  0  0
 40 53  2  0  0  0
 40 58  1  0  0  0
 41108  1  0  0  0
 41109  1  0  0  0
 41110  1  0  0  0
 41 48  1  0  0  0
 42 43  1  0  0  0
 42 66  1  0  0  0
 42111  1  0  0  0
 42112  1  0  0  0
 43 44  1  0  0  0
 44113  1  0  0  0
 45 46  2  0  0  0
 45114  1  0  0  0
 46115  1  0  0  0
 47116  1  0  0  0
 47117  1  0  0  0
 48 56  1  0  0  0
 48 65  1  0  0  0
 48118  1  0  0  0
 49 50  1  0  0  0
 49 53  1  0  0  0
 49 64  1  0  0  0
 49119  1  0  0  0
 50 51  1  0  0  0
 50120  1  0  0  0
 50121  1  0  0  0
 51 52  1  0  0  0
 51122  1  0  0  0
 51123  1  0  0  0
 52124  1  0  0  0
 52125  1  0  0  0
 53 54  1  0  0  0
 54 55  2  0  0  0
 54126  1  0  0  0
 55 57  1  0  0  0
 55127  1  0  0  0
 56 69  2  0  0  0
 57 58  2  0  0  0
 57128  1  0  0  0
 58129  1  0  0  0
 59 60  1  0  0  0
 59 61  1  0  0  0
 59 62  1  0  0  0
 60130  1  0  0  0
 60131  1  0  0  0
 60132  1  0  0  0
 61133  1  0  0  0
 61134  1  0  0  0
 61135  1  0  0  0
 62136  1  0  0  0
 62137  1  0  0  0
 62138  1  0  0  0
 63 65  1  0  0  0
 63139  1  0  0  0
 63140  1  0  0  0
 63141  1  0  0  0
 64142  1  0  0  0
 65143  1  0  0  0
 68 82  1  0  0  0
 71 72  2  0  0  0
 71 74  1  0  0  0
 71144  1  0  0  0
 72 73  1  0  0  0
 72 76  1  0  0  0
 73 75  2  0  0  0
 73 77  1  0  0  0
 74 81  1  0  0  0
 74 83  2  0  0  0
 75 79  1  0  0  0
 75 83  1  0  0  0
 76 78  1  0  0  0
 76145  1  0  0  0
 76146  1  0  0  0
 77 84  1  0  0  0
 77147  1  0  0  0
 77148  1  0  0  0
 78 80  1  0  0  0
 78 84  1  0  0  0
 78149  1  0  0  0
 79150  1  0  0  0
 79151  1  0  0  0
 79152  1  0  0  0
 80153  1  0  0  0
 80154  1  0  0  0
 80155  1  0  0  0
 81 82  1  0  0  0
 81156  1  0  0  0
 81157  1  0  0  0
 82158  1  0  0  0
 82159  1  0  0  0
M  ISO  4   1 100  68 101  82 101  84 100
M  END
> <chiral flag>
0

> <version>
0

> <s_m_source_file>
/data/baiqing/PycharmProjects/Reinvent-master-3.2/result/LINK_invent/BTK/process_docking_weight1_custom_sum_contain_oxygen_bond_distance_aromatic_linkinvent_7_9_3/rearranged_h_0177.sdf

> <i_m_source_file_index>
67

> <r_mmod_Potential_Energy-OPLS-2005>
545.661193847656

> <r_mmod_Stretch_Energy-OPLS-2005>
235.162261962891

> <r_mmod_Bend_Energy-OPLS-2005>
257.847900390625

> <r_mmod_Torsional_Energy-OPLS-2005>
310.198577880859

> <r_mmod_Improper_Torsional_Energy-OPLS-2005>
6.8988676071167

> <r_mmod_Van_der_Waal_Energy-OPLS-2005>
133.976470947266

> <r_mmod_Electrostatic_Energy-OPLS-2005>
-382.156402587891

> <r_mmod_Solvation_Energy-OPLS-2005>
-213.229583740234

> <b_mmod_Minimization_Converged-OPLS-2005>
0

> <r_mmod_RMS_Derivative-OPLS-2005>
4.53604221343994

$$$$
67
                    3D
 Structure written by MMmdl.
169178  0  0  1  0            999 V2000
  -30.7185  -14.5527   20.5564 C   0  0  0  0  0  0
  -30.4293  -12.3640   19.4312 C   0  0  0  0  0  0
  -29.5040  -12.5147   18.2079 C   0  0  0  0  0  0
  -28.0244  -12.3583   18.6152 C   0  0  0  0  0  0
  -27.6606  -13.1912   19.8721 C   0  0  2  0  0  0
  -28.7177  -13.0165   20.9912 C   0  0  0  0  0  0
  -25.2644  -13.8031   20.5797 C   0  0  0  0  0  0
  -24.1899  -13.0341   20.9277 C   0  0  0  0  0  0
  -24.6459  -11.6799   20.8836 C   0  0  0  0  0  0
  -23.9117  -10.4209   21.0472 C   0  0  0  0  0  0
  -24.3643   -9.4099   21.9240 C   0  0  0  0  0  0
  -23.6307   -8.2147   22.0766 C   0  0  0  0  0  0
  -22.4275   -8.0234   21.3551 C   0  0  0  0  0  0
  -21.9956   -9.0226   20.4643 C   0  0  0  0  0  0
  -22.7306  -10.2100   20.3100 C   0  0  0  0  0  0
  -21.6800   -6.0740   22.5318 C   0  0  0  0  0  0
  -21.3957   -6.5644   23.8256 C   0  0  0  0  0  0
  -21.3664   -5.6806   24.9219 C   0  0  0  0  0  0
  -21.6054   -4.3076   24.7274 C   0  0  0  0  0  0
  -21.8799   -3.8164   23.4384 C   0  0  0  0  0  0
  -21.9155   -4.6979   22.3445 C   0  0  0  0  0  0
  -22.7918  -13.5165   21.1845 C   0  0  0  0  0  0
  -22.1618   -4.2175   21.1019 F   0  0  0  0  0  0
  -21.5670   -3.4559   25.7776 F   0  0  0  0  0  0
  -30.0242  -13.3773   20.4279 N   0  0  0  0  0  0
  -26.3075  -12.9188   20.3424 N   0  0  0  0  0  0
  -25.9383  -11.6353   20.5844 N   0  0  0  0  0  0
  -22.0498  -12.8183   22.0360 N   0  0  0  0  0  0
  -25.4283  -15.1748   20.4194 N   0  0  0  0  0  0
  -31.8622  -14.6393   20.1000 O   0  0  0  0  0  0
  -21.6578   -6.8886   21.4277 O   0  0  0  0  0  0
  -22.3632  -14.5475   20.6648 O   0  0  0  0  0  0
  -24.6183  -31.8658   23.2095 C   0  0  0  0  0  0
  -25.9040  -32.4817   23.8388 C   0  0  1  0  0  0
  -27.2224  -27.3706   20.1125 C   0  0  0  0  0  0
  -25.5864  -33.8613   24.2324 N   0  0  0  0  0  0
  -23.4089  -30.4907   21.5512 C   0  0  2  0  0  0
  -24.8558  -28.9589   20.1099 C   0  0  0  0  0  0
  -22.7427  -29.4644   22.4969 C   0  0  0  0  0  0
  -18.0276  -28.1392   22.8492 C   0  0  0  0  0  0
  -24.1469  -36.7286   23.2643 C   0  0  0  0  0  0
  -25.9455  -30.8124   21.3748 C   0  0  0  0  0  0
  -26.0191  -29.4440   20.7172 C   0  0  0  0  0  0
  -27.2043  -28.6592   20.7142 C   0  0  0  0  0  0
  -26.0389  -26.9294   19.4753 C   0  0  0  0  0  0
  -24.8655  -27.7059   19.4797 C   0  0  0  0  0  0
  -23.6181  -29.8301   20.1645 C   0  0  0  0  0  0
  -25.4105  -36.3111   24.0339 C   0  0  1  0  0  0
  -20.5868  -28.3674   23.1304 C   0  0  2  0  0  0
  -20.6770  -26.9399   22.5434 C   0  0  0  0  0  0
  -19.5750  -26.6388   21.5226 C   0  0  0  0  0  0
  -18.1919  -26.7952   22.1614 C   0  0  0  0  0  0
  -19.1530  -28.8848   23.2901 C   0  0  0  0  0  0
  -18.9456  -30.1452   23.8909 C   0  0  0  0  0  0
  -17.6463  -30.6597   24.0569 C   0  0  0  0  0  0
  -25.9036  -34.9480   23.5145 C   0  0  0  0  0  0
  -16.5350  -29.9102   23.6338 C   0  0  0  0  0  0
  -16.7272  -28.6518   23.0360 C   0  0  0  0  0  0
  -26.4465  -31.6596   25.0715 C   0  0  0  0  0  0
  -25.3711  -31.3651   26.1429 C   0  0  0  0  0  0
  -27.0309  -30.3047   24.6099 C   0  0  0  0  0  0
  -27.6063  -32.4295   25.7461 C   0  0  0  0  0  0
  -27.5599  -37.1785   24.8456 C   0  0  0  0  0  0
  -21.4151  -29.3023   22.3692 N   0  0  0  0  0  0
  -26.4291  -37.3810   23.9436 N   0  0  0  0  0  0
  -24.6758  -31.0707   22.1022 N   0  0  0  0  0  0
  -23.4177  -28.8191   23.3026 O   0  0  0  0  0  0
  -28.3602  -26.5640   20.1803 O   0  0  0  0  0  0
  -26.5625  -34.8919   22.4730 O   0  0  0  0  0  0
  -23.5353  -32.1427   23.7450 O   0  0  0  0  0  0
  -27.8414  -20.5730   20.4133 C   0  0  0  0  0  0
  -31.0352  -16.7436   21.6566 C   0  0  0  0  0  0
  -28.8156  -16.1927   20.8302 C   0  0  0  0  0  0
  -28.2270  -21.9315   21.0746 C   0  0  0  0  0  0
  -30.8547  -18.0452   20.8121 C   0  0  0  0  0  0
  -28.5011  -17.6338   21.3453 C   0  0  0  0  0  0
  -30.3708  -21.9478   19.9707 C   0  0  0  0  0  0
  -30.0449  -20.6333   19.2039 C   0  0  2  0  0  0
  -29.0338  -19.6672   19.9366 C   0  0  1  0  0  0
  -31.2662  -20.0388   18.4748 C   0  0  0  0  0  0
  -29.3061  -24.1816   20.5557 C   0  0  0  0  0  0
  -28.1871  -25.1240   19.9875 C   0  0  0  0  0  0
  -30.1569  -15.6522   21.1689 N   0  0  0  0  0  0
  -29.5172  -18.6823   20.9975 N   0  3  0  0  0  0
  -29.1193  -22.7276   20.1862 N   0  3  2  0  0  0
  -31.4714  -12.4611   19.1219 H   0  0  0  0  0  0
  -30.3525  -11.3596   19.8525 H   0  0  0  0  0  0
  -29.7625  -11.7816   17.4425 H   0  0  0  0  0  0
  -29.6586  -13.4976   17.7559 H   0  0  0  0  0  0
  -27.8282  -11.3005   18.7915 H   0  0  0  0  0  0
  -27.3850  -12.6529   17.7835 H   0  0  0  0  0  0
  -27.6690  -14.2209   19.5255 H   0  0  0  0  0  0
  -28.7382  -11.9761   21.3205 H   0  0  0  0  0  0
  -28.4861  -13.5864   21.8901 H   0  0  0  0  0  0
  -25.2793   -9.5492   22.4847 H   0  0  0  0  0  0
  -23.9978   -7.4484   22.7463 H   0  0  0  0  0  0
  -21.0899   -8.8780   19.8929 H   0  0  0  0  0  0
  -22.3825  -10.9665   19.6215 H   0  0  0  0  0  0
  -21.1895   -7.6139   23.9759 H   0  0  0  0  0  0
  -21.1521   -6.0550   25.9128 H   0  0  0  0  0  0
  -22.0564   -2.7632   23.2912 H   0  0  0  0  0  0
  -22.4091  -11.9901   22.4861 H   0  0  0  0  0  0
  -21.1067  -13.1180   22.2380 H   0  0  0  0  0  0
  -24.6530  -15.8158   20.5520 H   0  0  0  0  0  0
  -26.2515  -15.6174   20.0390 H   0  0  0  0  0  0
  -26.7103  -32.5525   23.1129 H   0  0  0  0  0  0
  -24.9961  -33.9791   25.0430 H   0  0  0  0  0  0
  -22.6997  -31.3104   21.4152 H   0  0  0  0  0  0
  -23.3788  -35.9559   23.3250 H   0  0  0  0  0  0
  -24.3580  -36.8969   22.2075 H   0  0  0  0  0  0
  -23.7127  -37.6422   23.6705 H   0  0  0  0  0  0
  -26.0635  -31.5798   20.6093 H   0  0  0  0  0  0
  -26.8298  -30.8653   21.9968 H   0  0  0  0  0  0
  -28.0950  -29.0201   21.2077 H   0  0  0  0  0  0
  -25.9859  -25.9741   18.9738 H   0  0  0  0  0  0
  -23.9749  -27.3326   18.9933 H   0  0  0  0  0  0
  -23.7182  -30.6096   19.4074 H   0  0  0  0  0  0
  -22.7411  -29.2507   19.8690 H   0  0  0  0  0  0
  -25.1287  -36.1987   25.0832 H   0  0  0  0  0  0
  -20.9968  -28.3260   24.1416 H   0  0  0  0  0  0
  -20.5679  -26.2278   23.3623 H   0  0  0  0  0  0
  -21.6645  -26.7431   22.1227 H   0  0  0  0  0  0
  -19.6918  -25.6294   21.1266 H   0  0  0  0  0  0
  -19.6735  -27.3204   20.6761 H   0  0  0  0  0  0
  -17.4206  -26.6707   21.4001 H   0  0  0  0  0  0
  -18.0306  -26.0087   22.8991 H   0  0  0  0  0  0
  -19.7919  -30.7286   24.2286 H   0  0  0  0  0  0
  -17.5000  -31.6288   24.5159 H   0  0  0  0  0  0
  -15.5355  -30.3015   23.7656 H   0  0  0  0  0  0
  -15.8663  -28.0864   22.7071 H   0  0  0  0  0  0
  -24.5900  -30.7016   25.7684 H   0  0  0  0  0  0
  -24.8874  -32.2776   26.4925 H   0  0  0  0  0  0
  -25.8028  -30.8734   27.0154 H   0  0  0  0  0  0
  -26.2853  -29.6786   24.1173 H   0  0  0  0  0  0
  -27.4102  -29.7303   25.4560 H   0  0  0  0  0  0
  -27.8682  -30.4380   23.9240 H   0  0  0  0  0  0
  -27.2748  -33.3634   26.2005 H   0  0  0  0  0  0
  -28.3874  -32.6772   25.0261 H   0  0  0  0  0  0
  -28.0701  -31.8404   26.5376 H   0  0  0  0  0  0
  -28.2553  -38.0145   24.7625 H   0  0  0  0  0  0
  -28.1155  -36.2685   24.6149 H   0  0  0  0  0  0
  -27.2322  -37.1280   25.8849 H   0  0  0  0  0  0
  -20.9316  -29.8689   21.6866 H   0  0  0  0  0  0
  -26.0176  -38.2866   24.1528 H   0  0  0  0  0  0
  -27.2461  -20.8150   19.5316 H   0  0  0  0  0  0
  -27.1480  -20.0463   21.0652 H   0  0  0  0  0  0
  -30.8171  -16.9268   22.7095 H   0  0  0  0  0  0
  -32.0883  -16.4569   21.6553 H   0  0  0  0  0  0
  -28.7090  -16.1891   19.7439 H   0  0  0  0  0  0
  -28.0353  -15.5614   21.2422 H   0  0  0  0  0  0
  -28.7133  -21.7570   22.0374 H   0  0  0  0  0  0
  -27.3232  -22.4995   21.2991 H   0  0  0  0  0  0
  -30.9816  -17.7687   19.7663 H   0  0  0  0  0  0
  -31.6319  -18.7656   21.0613 H   0  0  0  0  0  0
  -28.4411  -17.6011   22.4351 H   0  0  0  0  0  0
  -27.4955  -17.9092   21.0268 H   0  0  0  0  0  0
  -31.0818  -22.5416   19.3937 H   0  0  0  0  0  0
  -30.8591  -21.7267   20.9226 H   0  0  0  0  0  0
  -29.4543  -20.9774   18.3497 H   0  0  0  0  0  0
  -28.6381  -19.0134   19.1552 H   0  0  0  0  0  0
  -32.1106  -19.8401   19.1330 H   0  0  0  0  0  0
  -31.6242  -20.7449   17.7225 H   0  0  0  0  0  0
  -31.0050  -19.1271   17.9363 H   0  0  0  0  0  0
  -29.3801  -24.2834   21.6394 H   0  0  0  0  0  0
  -30.2621  -24.5239   20.1568 H   0  0  0  0  0  0
  -27.2471  -24.8019   20.4386 H   0  0  0  0  0  0
  -28.0957  -24.9494   18.9153 H   0  0  0  0  0  0
  -29.6150  -19.2209   21.8465 H   0  0  0  0  0  0
  -28.6725  -22.7613   19.2811 H   0  0  0  0  0  0
  1 25  1  0  0  0
  1 30  2  0  0  0
  1 83  1  0  0  0
  2  3  1  0  0  0
  2 25  1  0  0  0
  2 86  1  0  0  0
  2 87  1  0  0  0
  3  4  1  0  0  0
  3 88  1  0  0  0
  3 89  1  0  0  0
  4  5  1  0  0  0
  4 90  1  0  0  0
  4 91  1  0  0  0
  5  6  1  0  0  0
  5 26  1  0  0  0
  5 92  1  0  0  0
  6 25  1  0  0  0
  6 93  1  0  0  0
  6 94  1  0  0  0
  7  8  2  0  0  0
  7 26  1  0  0  0
  7 29  1  0  0  0
  8  9  1  0  0  0
  8 22  1  0  0  0
  9 10  1  0  0  0
  9 27  2  0  0  0
 10 11  2  0  0  0
 10 15  1  0  0  0
 11 12  1  0  0  0
 11 95  1  0  0  0
 12 13  2  0  0  0
 12 96  1  0  0  0
 13 14  1  0  0  0
 13 31  1  0  0  0
 14 15  2  0  0  0
 14 97  1  0  0  0
 15 98  1  0  0  0
 16 17  2  0  0  0
 16 21  1  0  0  0
 16 31  1  0  0  0
 17 18  1  0  0  0
 17 99  1  0  0  0
 18 19  2  0  0  0
 18100  1  0  0  0
 19 20  1  0  0  0
 19 24  1  0  0  0
 20 21  2  0  0  0
 20101  1  0  0  0
 21 23  1  0  0  0
 22 28  1  0  0  0
 22 32  2  0  0  0
 26 27  1  0  0  0
 28102  1  0  0  0
 28103  1  0  0  0
 29104  1  0  0  0
 29105  1  0  0  0
 33 34  1  0  0  0
 33 66  1  0  0  0
 33 70  2  0  0  0
 34 36  1  0  0  0
 34 59  1  0  0  0
 34106  1  0  0  0
 35 44  2  0  0  0
 35 45  1  0  0  0
 35 68  1  0  0  0
 36 56  1  0  0  0
 36107  1  0  0  0
 37 39  1  0  0  0
 37 47  1  0  0  0
 37 66  1  0  0  0
 37108  1  0  0  0
 38 43  2  0  0  0
 38 46  1  0  0  0
 38 47  1  0  0  0
 39 64  1  0  0  0
 39 67  2  0  0  0
 40 52  1  0  0  0
 40 53  2  0  0  0
 40 58  1  0  0  0
 41109  1  0  0  0
 41110  1  0  0  0
 41111  1  0  0  0
 41 48  1  0  0  0
 42 43  1  0  0  0
 42 66  1  0  0  0
 42112  1  0  0  0
 42113  1  0  0  0
 43 44  1  0  0  0
 44114  1  0  0  0
 45 46  2  0  0  0
 45115  1  0  0  0
 46116  1  0  0  0
 47117  1  0  0  0
 47118  1  0  0  0
 48 56  1  0  0  0
 48 65  1  0  0  0
 48119  1  0  0  0
 49 50  1  0  0  0
 49 53  1  0  0  0
 49 64  1  0  0  0
 49120  1  0  0  0
 50 51  1  0  0  0
 50121  1  0  0  0
 50122  1  0  0  0
 51 52  1  0  0  0
 51123  1  0  0  0
 51124  1  0  0  0
 52125  1  0  0  0
 52126  1  0  0  0
 53 54  1  0  0  0
 54 55  2  0  0  0
 54127  1  0  0  0
 55 57  1  0  0  0
 55128  1  0  0  0
 56 69  2  0  0  0
 57 58  2  0  0  0
 57129  1  0  0  0
 58130  1  0  0  0
 59 60  1  0  0  0
 59 61  1  0  0  0
 59 62  1  0  0  0
 60131  1  0  0  0
 60132  1  0  0  0
 60133  1  0  0  0
 61134  1  0  0  0
 61135  1  0  0  0
 61136  1  0  0  0
 62137  1  0  0  0
 62138  1  0  0  0
 62139  1  0  0  0
 63 65  1  0  0  0
 63140  1  0  0  0
 63141  1  0  0  0
 63142  1  0  0  0
 64143  1  0  0  0
 65144  1  0  0  0
 68 82  1  0  0  0
 71 74  1  0  0  0
 71145  1  0  0  0
 71146  1  0  0  0
 71 79  1  0  0  0
 72 75  1  0  0  0
 72 83  1  0  0  0
 72147  1  0  0  0
 72148  1  0  0  0
 73 76  1  0  0  0
 73 83  1  0  0  0
 73149  1  0  0  0
 73150  1  0  0  0
 74 85  1  0  0  0
 74151  1  0  0  0
 74152  1  0  0  0
 75153  1  0  0  0
 75154  1  0  0  0
 75 84  1  0  0  0
 76 84  1  0  0  0
 76155  1  0  0  0
 76156  1  0  0  0
 77 78  1  0  0  0
 77 85  1  0  0  0
 77157  1  0  0  0
 77158  1  0  0  0
 78 79  1  0  0  0
 78 80  1  0  0  0
 78159  1  0  0  0
 79 84  1  0  0  0
 79160  1  0  0  0
 80161  1  0  0  0
 80162  1  0  0  0
 80163  1  0  0  0
 81 82  1  0  0  0
 81164  1  0  0  0
 81165  1  0  0  0
 81 85  1  0  0  0
 82166  1  0  0  0
 82167  1  0  0  0
 84168  1  0  0  0
 85169  1  0  0  0
M  CHG  2  84   1  85   1
M  ISO  4   1 100  68 101  82 101  83 100
M  END
> <chiral flag>
0

> <version>
0

> <s_m_source_file>
/data/baiqing/PycharmProjects/Reinvent-master-3.2/result/LINK_invent/BTK/process_docking_weight1_custom_sum_contain_oxygen_bond_distance_aromatic_linkinvent_7_9_3/rearranged_h_0177.sdf

> <i_m_source_file_index>
68

> <r_mmod_Potential_Energy-OPLS-2005>
131.239028930664

> <r_mmod_Stretch_Energy-OPLS-2005>
66.6950531005859

> <r_mmod_Bend_Energy-OPLS-2005>
169.954696655273

> <r_mmod_Torsional_Energy-OPLS-2005>
435.685668945312

> <r_mmod_Improper_Torsional_Energy-OPLS-2005>
4.10901880264282

> <r_mmod_Van_der_Waal_Energy-OPLS-2005>
166.035781860352

> <r_mmod_Electrostatic_Energy-OPLS-2005>
206.053359985352

> <r_mmod_Solvation_Energy-OPLS-2005>
-945.283996582031

> <b_mmod_Minimization_Converged-OPLS-2005>
0

> <r_mmod_RMS_Derivative-OPLS-2005>
4.36585855484009

$$$$
68
                    3D
 Structure written by MMmdl.
159168  0  0  1  0            999 V2000
  -30.5697  -14.9232   20.4598 C   0  0  0  0  0  0
  -30.4406  -12.5844   19.4862 C   0  0  0  0  0  0
  -29.5165  -12.5139   18.2497 C   0  0  0  0  0  0
  -28.0531  -12.2976   18.6804 C   0  0  0  0  0  0
  -27.6276  -13.2415   19.8341 C   0  0  2  0  0  0
  -28.6722  -13.2862   20.9676 C   0  0  0  0  0  0
  -25.2465  -13.8194   20.5718 C   0  0  0  0  0  0
  -24.1772  -13.0440   20.9235 C   0  0  0  0  0  0
  -24.6372  -11.6922   20.8763 C   0  0  0  0  0  0
  -23.9054  -10.4303   21.0434 C   0  0  0  0  0  0
  -24.3607   -9.4221   21.9217 C   0  0  0  0  0  0
  -23.6287   -8.2253   22.0786 C   0  0  0  0  0  0
  -22.4270   -8.0290   21.3571 C   0  0  0  0  0  0
  -21.9894   -9.0260   20.4674 C   0  0  0  0  0  0
  -22.7218  -10.2147   20.3089 C   0  0  0  0  0  0
  -21.6847   -6.0732   22.5274 C   0  0  0  0  0  0
  -21.4015   -6.5640   23.8208 C   0  0  0  0  0  0
  -21.3660   -5.6793   24.9168 C   0  0  0  0  0  0
  -21.6043   -4.3059   24.7214 C   0  0  0  0  0  0
  -21.8819   -3.8148   23.4337 C   0  0  0  0  0  0
  -21.9197   -4.6962   22.3392 C   0  0  0  0  0  0
  -22.7805  -13.5252   21.1856 C   0  0  0  0  0  0
  -22.1668   -4.2155   21.0967 F   0  0  0  0  0  0
  -21.5631   -3.4544   25.7722 F   0  0  0  0  0  0
  -29.9417  -13.6884   20.3521 N   0  0  0  0  0  0
  -26.2878  -12.9418   20.3249 N   0  0  0  0  0  0
  -25.9305  -11.6558   20.5753 N   0  0  0  0  0  0
  -22.0407  -12.8285   22.0405 N   0  0  0  0  0  0
  -25.4136  -15.1917   20.4115 N   0  0  0  0  0  0
  -31.7888  -14.9458   20.2485 O   0  0  0  0  0  0
  -21.6646   -6.8881   21.4244 O   0  0  0  0  0  0
  -22.3522  -14.5557   20.6682 O   0  0  0  0  0  0
  -24.6423  -31.8469   23.1901 C   0  0  0  0  0  0
  -25.9208  -32.4703   23.8279 C   0  0  1  0  0  0
  -27.2089  -27.1543   20.1565 C   0  0  0  0  0  0
  -25.5972  -33.8504   24.2210 N   0  0  0  0  0  0
  -23.4423  -30.4695   21.5347 C   0  0  2  0  0  0
  -24.8886  -28.8934   20.1134 C   0  0  0  0  0  0
  -22.7535  -29.4600   22.4861 C   0  0  0  0  0  0
  -18.0291  -28.1405   22.8459 C   0  0  0  0  0  0
  -24.1478  -36.7260   23.2639 C   0  0  0  0  0  0
  -25.9951  -30.7263   21.3824 C   0  0  0  0  0  0
  -26.0644  -29.3385   20.7289 C   0  0  0  0  0  0
  -27.2292  -28.4862   20.7304 C   0  0  0  0  0  0
  -26.0113  -26.8048   19.4990 C   0  0  0  0  0  0
  -24.8735  -27.6393   19.4830 C   0  0  0  0  0  0
  -23.6677  -29.7989   20.1534 C   0  0  0  0  0  0
  -25.4111  -36.3038   24.0321 C   0  0  1  0  0  0
  -20.5898  -28.3747   23.1210 C   0  0  2  0  0  0
  -20.6780  -26.9452   22.5382 C   0  0  0  0  0  0
  -19.5765  -26.6392   21.5181 C   0  0  0  0  0  0
  -18.1946  -26.7941   22.1597 C   0  0  0  0  0  0
  -19.1544  -28.8888   23.2831 C   0  0  0  0  0  0
  -18.9479  -30.1478   23.8874 C   0  0  0  0  0  0
  -17.6483  -30.6602   24.0561 C   0  0  0  0  0  0
  -25.9071  -34.9408   23.5067 C   0  0  0  0  0  0
  -16.5369  -29.9105   23.6331 C   0  0  0  0  0  0
  -16.7280  -28.6516   23.0357 C   0  0  0  0  0  0
  -26.4530  -31.6567   25.0713 C   0  0  0  0  0  0
  -25.3748  -31.3775   26.1445 C   0  0  0  0  0  0
  -27.0381  -30.2956   24.6286 C   0  0  0  0  0  0
  -27.6041  -32.4344   25.7523 C   0  0  0  0  0  0
  -27.5568  -37.1792   24.8466 C   0  0  0  0  0  0
  -21.4234  -29.3078   22.3583 N   0  0  0  0  0  0
  -26.4270  -37.3754   23.9419 N   0  0  0  0  0  0
  -24.7134  -31.0351   22.0916 N   0  0  0  0  0  0
  -23.4178  -28.8142   23.3009 O   0  0  0  0  0  0
  -28.2768  -26.1953   20.1819 O   0  0  0  0  0  0
  -26.5629  -34.8907   22.4635 O   0  0  0  0  0  0
  -23.5550  -32.1330   23.7152 O   0  0  0  0  0  0
  -29.0194  -21.8272   20.3373 C   0  0  0  0  0  0
  -30.0754  -19.9425   21.6978 C   0  0  0  0  0  0
  -29.6647  -18.8761   20.8139 C   0  0  0  0  0  0
  -29.7613  -21.3480   21.4637 C   0  0  0  0  0  0
  -28.5926  -20.7100   19.5137 C   0  0  0  0  0  0
  -30.1134  -17.4745   21.1308 C   0  0  0  0  0  0
  -31.1570  -18.3992   23.0080 C   0  0  0  0  0  0
  -27.7874  -20.9667   18.2546 C   0  0  0  0  0  0
  -31.9852  -18.1335   24.2475 C   0  0  0  0  0  0
  -28.9616  -23.4291   19.9073 C   0  0  0  0  0  0
  -28.0445  -24.6923   20.5023 C   0  0  0  0  0  0
  -30.8071  -19.6556   22.7967 N   0  0  0  0  0  0
  -30.8605  -17.3516   22.2495 N   0  0  0  0  0  0
  -28.9076  -19.3636   19.7676 N   0  3  0  0  0  0
  -30.2592  -22.2850   22.3797 N   0  0  0  0  0  0
  -29.8191  -16.1340   20.4814 N   0  0  0  0  0  0
  -31.4737  -12.7413   19.1704 H   0  0  0  0  0  0
  -30.4387  -11.6403   20.0336 H   0  0  0  0  0  0
  -29.8340  -11.7086   17.5860 H   0  0  0  0  0  0
  -29.5970  -13.4376   17.6744 H   0  0  0  0  0  0
  -27.9603  -11.2613   19.0089 H   0  0  0  0  0  0
  -27.3819  -12.4122   17.8291 H   0  0  0  0  0  0
  -27.5866  -14.2377   19.3932 H   0  0  0  0  0  0
  -28.7602  -12.3200   21.4651 H   0  0  0  0  0  0
  -28.3773  -14.0076   21.7327 H   0  0  0  0  0  0
  -25.2734   -9.5705   22.4807 H   0  0  0  0  0  0
  -23.9984   -7.4648   22.7518 H   0  0  0  0  0  0
  -21.0812   -8.8774   19.8980 H   0  0  0  0  0  0
  -22.3656  -10.9696   19.6212 H   0  0  0  0  0  0
  -21.2009   -7.6151   23.9704 H   0  0  0  0  0  0
  -21.1485   -6.0528   25.9069 H   0  0  0  0  0  0
  -22.0596   -2.7610   23.2821 H   0  0  0  0  0  0
  -22.3960  -11.9939   22.4828 H   0  0  0  0  0  0
  -21.1046  -13.1397   22.2606 H   0  0  0  0  0  0
  -24.6339  -15.8329   20.5041 H   0  0  0  0  0  0
  -26.2390  -15.6245   20.0210 H   0  0  0  0  0  0
  -26.7264  -32.5311   23.0999 H   0  0  0  0  0  0
  -25.0152  -33.9611   25.0381 H   0  0  0  0  0  0
  -22.7449  -31.2973   21.3821 H   0  0  0  0  0  0
  -23.3739  -35.9592   23.3291 H   0  0  0  0  0  0
  -24.3556  -36.8898   22.2052 H   0  0  0  0  0  0
  -23.7215  -37.6454   23.6672 H   0  0  0  0  0  0
  -26.1419  -31.4793   20.6077 H   0  0  0  0  0  0
  -26.8681  -30.7796   22.0213 H   0  0  0  0  0  0
  -28.1304  -28.8258   21.2204 H   0  0  0  0  0  0
  -25.9394  -25.8521   18.9931 H   0  0  0  0  0  0
  -23.9776  -27.2997   18.9821 H   0  0  0  0  0  0
  -23.8114  -30.5746   19.3998 H   0  0  0  0  0  0
  -22.7810  -29.2494   19.8360 H   0  0  0  0  0  0
  -25.1286  -36.1868   25.0807 H   0  0  0  0  0  0
  -20.9984  -28.3358   24.1338 H   0  0  0  0  0  0
  -20.5648  -26.2387   23.3619 H   0  0  0  0  0  0
  -21.6660  -26.7465   22.1212 H   0  0  0  0  0  0
  -19.6941  -25.6294   21.1253 H   0  0  0  0  0  0
  -19.6694  -27.3169   20.6687 H   0  0  0  0  0  0
  -17.4212  -26.6654   21.4012 H   0  0  0  0  0  0
  -18.0374  -26.0083   22.9000 H   0  0  0  0  0  0
  -19.7964  -30.7273   24.2248 H   0  0  0  0  0  0
  -17.5054  -31.6280   24.5176 H   0  0  0  0  0  0
  -15.5378  -30.3018   23.7673 H   0  0  0  0  0  0
  -15.8668  -28.0834   22.7112 H   0  0  0  0  0  0
  -24.5926  -30.7092   25.7825 H   0  0  0  0  0  0
  -24.8947  -32.2974   26.4811 H   0  0  0  0  0  0
  -25.8087  -30.9031   27.0259 H   0  0  0  0  0  0
  -26.2996  -29.6695   24.1269 H   0  0  0  0  0  0
  -27.3955  -29.7235   25.4857 H   0  0  0  0  0  0
  -27.8914  -30.4165   23.9606 H   0  0  0  0  0  0
  -27.2599  -33.3657   26.2041 H   0  0  0  0  0  0
  -28.3912  -32.6896   25.0414 H   0  0  0  0  0  0
  -28.0641  -31.8516   26.5520 H   0  0  0  0  0  0
  -28.2587  -38.0089   24.7514 H   0  0  0  0  0  0
  -28.1060  -36.2619   24.6285 H   0  0  0  0  0  0
  -27.2293  -37.1443   25.8872 H   0  0  0  0  0  0
  -20.9449  -29.8796   21.6755 H   0  0  0  0  0  0
  -26.0138  -38.2819   24.1438 H   0  0  0  0  0  0
  -28.3971  -21.4704   17.5054 H   0  0  0  0  0  0
  -26.9319  -21.6011   18.4839 H   0  0  0  0  0  0
  -27.4125  -20.0412   17.8164 H   0  0  0  0  0  0
  -32.1588  -17.0671   24.3964 H   0  0  0  0  0  0
  -31.4807  -18.5117   25.1365 H   0  0  0  0  0  0
  -32.9515  -18.6300   24.1656 H   0  0  0  0  0  0
  -28.8128  -23.4461   18.8276 H   0  0  0  0  0  0
  -29.9947  -23.7559   20.0209 H   0  0  0  0  0  0
  -28.1310  -24.6433   21.5869 H   0  0  0  0  0  0
  -27.0041  -24.4406   20.3075 H   0  0  0  0  0  0
  -28.5651  -18.6798   19.0883 H   0  0  0  0  0  0
  -30.6602  -21.7630   23.1570 H   0  0  0  0  0  0
  -29.5679  -22.9398   22.7194 H   0  0  0  0  0  0
  -28.8588  -16.0200   20.2061 H   0  0  0  0  0  0
  1 25  1  0  0  0
  1 30  2  0  0  0
  1 86  1  0  0  0
  2  3  1  0  0  0
  2 25  1  0  0  0
  2 87  1  0  0  0
  2 88  1  0  0  0
  3  4  1  0  0  0
  3 89  1  0  0  0
  3 90  1  0  0  0
  4  5  1  0  0  0
  4 91  1  0  0  0
  4 92  1  0  0  0
  5  6  1  0  0  0
  5 26  1  0  0  0
  5 93  1  0  0  0
  6 25  1  0  0  0
  6 94  1  0  0  0
  6 95  1  0  0  0
  7  8  2  0  0  0
  7 26  1  0  0  0
  7 29  1  0  0  0
  8  9  1  0  0  0
  8 22  1  0  0  0
  9 10  1  0  0  0
  9 27  2  0  0  0
 10 11  2  0  0  0
 10 15  1  0  0  0
 11 12  1  0  0  0
 11 96  1  0  0  0
 12 13  2  0  0  0
 12 97  1  0  0  0
 13 14  1  0  0  0
 13 31  1  0  0  0
 14 15  2  0  0  0
 14 98  1  0  0  0
 15 99  1  0  0  0
 16 17  2  0  0  0
 16 21  1  0  0  0
 16 31  1  0  0  0
 17 18  1  0  0  0
 17100  1  0  0  0
 18 19  2  0  0  0
 18101  1  0  0  0
 19 20  1  0  0  0
 19 24  1  0  0  0
 20 21  2  0  0  0
 20102  1  0  0  0
 21 23  1  0  0  0
 22 28  1  0  0  0
 22 32  2  0  0  0
 26 27  1  0  0  0
 28103  1  0  0  0
 28104  1  0  0  0
 29105  1  0  0  0
 29106  1  0  0  0
 33 34  1  0  0  0
 33 66  1  0  0  0
 33 70  2  0  0  0
 34 36  1  0  0  0
 34 59  1  0  0  0
 34107  1  0  0  0
 35 44  2  0  0  0
 35 45  1  0  0  0
 35 68  1  0  0  0
 36 56  1  0  0  0
 36108  1  0  0  0
 37 39  1  0  0  0
 37 47  1  0  0  0
 37 66  1  0  0  0
 37109  1  0  0  0
 38 43  2  0  0  0
 38 46  1  0  0  0
 38 47  1  0  0  0
 39 64  1  0  0  0
 39 67  2  0  0  0
 40 52  1  0  0  0
 40 53  2  0  0  0
 40 58  1  0  0  0
 41110  1  0  0  0
 41111  1  0  0  0
 41112  1  0  0  0
 41 48  1  0  0  0
 42 43  1  0  0  0
 42 66  1  0  0  0
 42113  1  0  0  0
 42114  1  0  0  0
 43 44  1  0  0  0
 44115  1  0  0  0
 45 46  2  0  0  0
 45116  1  0  0  0
 46117  1  0  0  0
 47118  1  0  0  0
 47119  1  0  0  0
 48 56  1  0  0  0
 48 65  1  0  0  0
 48120  1  0  0  0
 49 50  1  0  0  0
 49 53  1  0  0  0
 49 64  1  0  0  0
 49121  1  0  0  0
 50 51  1  0  0  0
 50122  1  0  0  0
 50123  1  0  0  0
 51 52  1  0  0  0
 51124  1  0  0  0
 51125  1  0  0  0
 52126  1  0  0  0
 52127  1  0  0  0
 53 54  1  0  0  0
 54 55  2  0  0  0
 54128  1  0  0  0
 55 57  1  0  0  0
 55129  1  0  0  0
 56 69  2  0  0  0
 57 58  2  0  0  0
 57130  1  0  0  0
 58131  1  0  0  0
 59 60  1  0  0  0
 59 61  1  0  0  0
 59 62  1  0  0  0
 60132  1  0  0  0
 60133  1  0  0  0
 60134  1  0  0  0
 61135  1  0  0  0
 61136  1  0  0  0
 61137  1  0  0  0
 62138  1  0  0  0
 62139  1  0  0  0
 62140  1  0  0  0
 63 65  1  0  0  0
 63141  1  0  0  0
 63142  1  0  0  0
 63143  1  0  0  0
 64144  1  0  0  0
 65145  1  0  0  0
 68 81  1  0  0  0
 71 74  2  0  0  0
 71 75  1  0  0  0
 71 80  1  0  0  0
 72 73  2  0  0  0
 72 74  1  0  0  0
 72 82  1  0  0  0
 73 76  1  0  0  0
 73 84  1  0  0  0
 74 85  1  0  0  0
 75 78  1  0  0  0
 75 84  2  0  0  0
 76 83  2  0  0  0
 76 86  1  0  0  0
 77 79  1  0  0  0
 77 82  2  0  0  0
 77 83  1  0  0  0
 78146  1  0  0  0
 78147  1  0  0  0
 78148  1  0  0  0
 79149  1  0  0  0
 79150  1  0  0  0
 79151  1  0  0  0
 80 81  1  0  0  0
 80152  1  0  0  0
 80153  1  0  0  0
 81154  1  0  0  0
 81155  1  0  0  0
 84156  1  0  0  0
 85157  1  0  0  0
 85158  1  0  0  0
 86159  1  0  0  0
M  CHG  1  84   1
M  ISO  4   1 100  68 101  81 101  86 100
M  END
> <chiral flag>
0

> <version>
0

> <s_m_source_file>
/data/baiqing/PycharmProjects/Reinvent-master-3.2/result/LINK_invent/BTK/process_docking_weight1_custom_sum_contain_oxygen_bond_distance_aromatic_linkinvent_7_9_3/rearranged_h_0177.sdf

> <i_m_source_file_index>
69

> <r_mmod_Potential_Energy-OPLS-2005>
83.5702667236328

> <r_mmod_Stretch_Energy-OPLS-2005>
224.479904174805

> <r_mmod_Bend_Energy-OPLS-2005>
262.027618408203

> <r_mmod_Torsional_Energy-OPLS-2005>
251.725173950195

> <r_mmod_Improper_Torsional_Energy-OPLS-2005>
16.7512264251709

> <r_mmod_Van_der_Waal_Energy-OPLS-2005>
163.9140625

> <r_mmod_Electrostatic_Energy-OPLS-2005>
-570.420104980469

> <r_mmod_Solvation_Energy-OPLS-2005>
-440.870239257812

> <b_mmod_Minimization_Converged-OPLS-2005>
0

> <r_mmod_RMS_Derivative-OPLS-2005>
2.51713562011719

$$$$
69
                    3D
 Structure written by MMmdl.
164173  0  0  1  0            999 V2000
  -30.5906  -14.9007   20.4267 C   0  0  0  0  0  0
  -30.4251  -12.5580   19.4986 C   0  0  0  0  0  0
  -29.5130  -12.5251   18.2527 C   0  0  0  0  0  0
  -28.0430  -12.3277   18.6685 C   0  0  0  0  0  0
  -27.6280  -13.2545   19.8427 C   0  0  2  0  0  0
  -28.6710  -13.2797   20.9799 C   0  0  0  0  0  0
  -25.2448  -13.8235   20.5722 C   0  0  0  0  0  0
  -24.1775  -13.0447   20.9241 C   0  0  0  0  0  0
  -24.6401  -11.6935   20.8772 C   0  0  0  0  0  0
  -23.9090  -10.4293   21.0401 C   0  0  0  0  0  0
  -24.3631   -9.4203   21.9182 C   0  0  0  0  0  0
  -23.6308   -8.2236   22.0744 C   0  0  0  0  0  0
  -22.4296   -8.0282   21.3541 C   0  0  0  0  0  0
  -21.9931   -9.0256   20.4640 C   0  0  0  0  0  0
  -22.7262  -10.2133   20.3045 C   0  0  0  0  0  0
  -21.6857   -6.0735   22.5276 C   0  0  0  0  0  0
  -21.4008   -6.5635   23.8214 C   0  0  0  0  0  0
  -21.3662   -5.6791   24.9179 C   0  0  0  0  0  0
  -21.6053   -4.3055   24.7226 C   0  0  0  0  0  0
  -21.8821   -3.8140   23.4346 C   0  0  0  0  0  0
  -21.9190   -4.6962   22.3403 C   0  0  0  0  0  0
  -22.7795  -13.5210   21.1892 C   0  0  0  0  0  0
  -22.1666   -4.2138   21.0986 F   0  0  0  0  0  0
  -21.5633   -3.4542   25.7738 F   0  0  0  0  0  0
  -29.9476  -13.6679   20.3719 N   0  0  0  0  0  0
  -26.2883  -12.9476   20.3283 N   0  0  0  0  0  0
  -25.9334  -11.6601   20.5766 N   0  0  0  0  0  0
  -22.0442  -12.8193   22.0445 N   0  0  0  0  0  0
  -25.4138  -15.1958   20.4127 N   0  0  0  0  0  0
  -31.7944  -14.9045   20.1442 O   0  0  0  0  0  0
  -21.6645   -6.8889   21.4241 O   0  0  0  0  0  0
  -22.3482  -14.5517   20.6751 O   0  0  0  0  0  0
  -24.6428  -31.8471   23.1912 C   0  0  0  0  0  0
  -25.9203  -32.4709   23.8299 C   0  0  1  0  0  0
  -27.2083  -27.1524   20.1315 C   0  0  0  0  0  0
  -25.5964  -33.8516   24.2218 N   0  0  0  0  0  0
  -23.4444  -30.4690   21.5385 C   0  0  2  0  0  0
  -24.8909  -28.9051   20.1069 C   0  0  0  0  0  0
  -22.7566  -29.4557   22.4871 C   0  0  0  0  0  0
  -18.0307  -28.1398   22.8483 C   0  0  0  0  0  0
  -24.1490  -36.7255   23.2642 C   0  0  0  0  0  0
  -26.0013  -30.7228   21.3904 C   0  0  0  0  0  0
  -26.0702  -29.3382   20.7274 C   0  0  0  0  0  0
  -27.2304  -28.4763   20.7259 C   0  0  0  0  0  0
  -26.0030  -26.8267   19.4663 C   0  0  0  0  0  0
  -24.8696  -27.6628   19.4621 C   0  0  0  0  0  0
  -23.6693  -29.8076   20.1546 C   0  0  0  0  0  0
  -25.4118  -36.3043   24.0326 C   0  0  1  0  0  0
  -20.5923  -28.3723   23.1242 C   0  0  2  0  0  0
  -20.6795  -26.9427   22.5408 C   0  0  0  0  0  0
  -19.5764  -26.6386   21.5222 C   0  0  0  0  0  0
  -18.1945  -26.7939   22.1631 C   0  0  0  0  0  0
  -19.1563  -28.8880   23.2856 C   0  0  0  0  0  0
  -18.9475  -30.1475   23.8878 C   0  0  0  0  0  0
  -17.6468  -30.6592   24.0566 C   0  0  0  0  0  0
  -25.9077  -34.9416   23.5076 C   0  0  0  0  0  0
  -16.5362  -29.9085   23.6335 C   0  0  0  0  0  0
  -16.7290  -28.6509   23.0352 C   0  0  0  0  0  0
  -26.4533  -31.6564   25.0731 C   0  0  0  0  0  0
  -25.3718  -31.3733   26.1422 C   0  0  0  0  0  0
  -27.0393  -30.2962   24.6295 C   0  0  0  0  0  0
  -27.6075  -32.4315   25.7506 C   0  0  0  0  0  0
  -27.5580  -37.1775   24.8457 C   0  0  0  0  0  0
  -21.4261  -29.3041   22.3614 N   0  0  0  0  0  0
  -26.4278  -37.3757   23.9426 N   0  0  0  0  0  0
  -24.7158  -31.0335   22.0956 N   0  0  0  0  0  0
  -23.4226  -28.8105   23.3009 O   0  0  0  0  0  0
  -28.2454  -26.1538   20.2036 O   0  0  0  0  0  0
  -26.5653  -34.8909   22.4656 O   0  0  0  0  0  0
  -23.5545  -32.1341   23.7143 O   0  0  0  0  0  0
  -30.1779  -23.5728   20.6422 C   0  0  0  0  0  0
  -28.8378  -23.3557   20.2757 C   0  0  0  0  0  0
  -28.4793  -21.9135   20.1645 C   0  0  0  0  0  0
  -31.0442  -22.4854   20.8828 C   0  0  0  0  0  0
  -29.4418  -20.8169   20.4188 C   0  0  0  0  0  0
  -30.2546  -18.6435   19.4303 C   0  0  0  0  0  0
  -29.2644  -18.4908   21.5137 C   0  0  0  0  0  0
  -30.0395  -17.0788   19.1665 C   0  0  0  0  0  0
  -29.0926  -16.8801   21.3629 C   0  0  0  0  0  0
  -32.4882  -22.7409   21.2634 C   0  0  0  0  0  0
  -26.9328  -20.9645   18.3534 C   0  0  0  0  0  0
  -27.8883  -24.6601   19.9833 C   0  0  0  0  0  0
  -27.0478  -21.5540   19.7637 C   0  0  1  0  0  0
  -30.6934  -21.1800   20.7788 N   0  0  0  0  0  0
  -29.2660  -19.3459   20.2882 N   0  0  0  0  0  0
  -29.8749  -16.1301   20.3199 N   0  0  0  0  0  0
  -26.5316  -20.6945   20.6420 F   0  0  0  0  0  0
  -31.4631  -12.6880   19.1899 H   0  0  0  0  0  0
  -30.3942  -11.6060   20.0319 H   0  0  0  0  0  0
  -29.8234  -11.7278   17.5766 H   0  0  0  0  0  0
  -29.6179  -13.4596   17.6973 H   0  0  0  0  0  0
  -27.9225  -11.2851   18.9648 H   0  0  0  0  0  0
  -27.3815  -12.4761   17.8141 H   0  0  0  0  0  0
  -27.5953  -14.2617   19.4263 H   0  0  0  0  0  0
  -28.7472  -12.3089   21.4711 H   0  0  0  0  0  0
  -28.3821  -13.9982   21.7490 H   0  0  0  0  0  0
  -25.2754   -9.5689   22.4784 H   0  0  0  0  0  0
  -24.0016   -7.4616   22.7459 H   0  0  0  0  0  0
  -21.0857   -8.8772   19.8957 H   0  0  0  0  0  0
  -22.3702  -10.9675   19.6162 H   0  0  0  0  0  0
  -21.1996   -7.6140   23.9720 H   0  0  0  0  0  0
  -21.1493   -6.0516   25.9089 H   0  0  0  0  0  0
  -22.0601   -2.7602   23.2841 H   0  0  0  0  0  0
  -22.4059  -11.9851   22.4822 H   0  0  0  0  0  0
  -21.1056  -13.1214   22.2642 H   0  0  0  0  0  0
  -24.6510  -15.8536   20.5308 H   0  0  0  0  0  0
  -26.2663  -15.6304   20.0833 H   0  0  0  0  0  0
  -26.7271  -32.5319   23.1033 H   0  0  0  0  0  0
  -25.0097  -33.9636   25.0354 H   0  0  0  0  0  0
  -22.7466  -31.2954   21.3894 H   0  0  0  0  0  0
  -23.3773  -35.9563   23.3266 H   0  0  0  0  0  0
  -24.3588  -36.8917   22.2064 H   0  0  0  0  0  0
  -23.7208  -37.6429   23.6695 H   0  0  0  0  0  0
  -26.1576  -31.4797   20.6204 H   0  0  0  0  0  0
  -26.8722  -30.7700   22.0321 H   0  0  0  0  0  0
  -28.1266  -28.7993   21.2373 H   0  0  0  0  0  0
  -25.8914  -25.8854   18.9526 H   0  0  0  0  0  0
  -23.9712  -27.3304   18.9594 H   0  0  0  0  0  0
  -23.8080  -30.5872   19.4042 H   0  0  0  0  0  0
  -22.7830  -29.2542   19.8405 H   0  0  0  0  0  0
  -25.1299  -36.1876   25.0814 H   0  0  0  0  0  0
  -21.0016  -28.3302   24.1363 H   0  0  0  0  0  0
  -20.5706  -26.2329   23.3624 H   0  0  0  0  0  0
  -21.6651  -26.7442   22.1185 H   0  0  0  0  0  0
  -19.6918  -25.6295   21.1254 H   0  0  0  0  0  0
  -19.6694  -27.3197   20.6753 H   0  0  0  0  0  0
  -17.4216  -26.6691   21.4029 H   0  0  0  0  0  0
  -18.0330  -26.0087   22.9029 H   0  0  0  0  0  0
  -19.7951  -30.7298   24.2234 H   0  0  0  0  0  0
  -17.5023  -31.6267   24.5173 H   0  0  0  0  0  0
  -15.5360  -30.2975   23.7674 H   0  0  0  0  0  0
  -15.8695  -28.0824   22.7059 H   0  0  0  0  0  0
  -24.5904  -30.7087   25.7725 H   0  0  0  0  0  0
  -24.8902  -32.2905   26.4819 H   0  0  0  0  0  0
  -25.8003  -30.8913   27.0220 H   0  0  0  0  0  0
  -26.3003  -29.6676   24.1318 H   0  0  0  0  0  0
  -27.4029  -29.7268   25.4860 H   0  0  0  0  0  0
  -27.8907  -30.4199   23.9597 H   0  0  0  0  0  0
  -27.2694  -33.3638   26.2036 H   0  0  0  0  0  0
  -28.3910  -32.6830   25.0349 H   0  0  0  0  0  0
  -28.0720  -31.8466   26.5454 H   0  0  0  0  0  0
  -28.2557  -38.0113   24.7569 H   0  0  0  0  0  0
  -28.1119  -36.2649   24.6205 H   0  0  0  0  0  0
  -27.2318  -37.1320   25.8861 H   0  0  0  0  0  0
  -20.9476  -29.8751   21.6791 H   0  0  0  0  0  0
  -26.0148  -38.2819   24.1465 H   0  0  0  0  0  0
  -30.5418  -24.5881   20.7323 H   0  0  0  0  0  0
  -30.2805  -19.1562   18.4677 H   0  0  0  0  0  0
  -31.2472  -18.7841   19.8605 H   0  0  0  0  0  0
  -30.1987  -18.6824   22.0432 H   0  0  0  0  0  0
  -28.4830  -18.8632   22.1770 H   0  0  0  0  0  0
  -30.8564  -16.7337   18.5314 H   0  0  0  0  0  0
  -29.1460  -16.9640   18.5527 H   0  0  0  0  0  0
  -28.0423  -16.6833   21.1469 H   0  0  0  0  0  0
  -29.2740  -16.4152   22.3334 H   0  0  0  0  0  0
  -32.6264  -23.7592   21.6281 H   0  0  0  0  0  0
  -33.1359  -22.6010   20.3981 H   0  0  0  0  0  0
  -32.8149  -22.0575   22.0474 H   0  0  0  0  0  0
  -27.3252  -21.6519   17.6043 H   0  0  0  0  0  0
  -25.8893  -20.7684   18.1051 H   0  0  0  0  0  0
  -27.4712  -20.0209   18.2602 H   0  0  0  0  0  0
  -26.9688  -24.4821   20.5411 H   0  0  0  0  0  0
  -27.6316  -24.5627   18.9281 H   0  0  0  0  0  0
  -26.4014  -22.4275   19.8262 H   0  0  0  0  0  0
  1 25  1  0  0  0
  1 30  2  0  0  0
  1 86  1  0  0  0
  2  3  1  0  0  0
  2 25  1  0  0  0
  2 88  1  0  0  0
  2 89  1  0  0  0
  3  4  1  0  0  0
  3 90  1  0  0  0
  3 91  1  0  0  0
  4  5  1  0  0  0
  4 92  1  0  0  0
  4 93  1  0  0  0
  5  6  1  0  0  0
  5 26  1  0  0  0
  5 94  1  0  0  0
  6 25  1  0  0  0
  6 95  1  0  0  0
  6 96  1  0  0  0
  7  8  2  0  0  0
  7 26  1  0  0  0
  7 29  1  0  0  0
  8  9  1  0  0  0
  8 22  1  0  0  0
  9 10  1  0  0  0
  9 27  2  0  0  0
 10 11  2  0  0  0
 10 15  1  0  0  0
 11 12  1  0  0  0
 11 97  1  0  0  0
 12 13  2  0  0  0
 12 98  1  0  0  0
 13 14  1  0  0  0
 13 31  1  0  0  0
 14 15  2  0  0  0
 14 99  1  0  0  0
 15100  1  0  0  0
 16 17  2  0  0  0
 16 21  1  0  0  0
 16 31  1  0  0  0
 17 18  1  0  0  0
 17101  1  0  0  0
 18 19  2  0  0  0
 18102  1  0  0  0
 19 20  1  0  0  0
 19 24  1  0  0  0
 20 21  2  0  0  0
 20103  1  0  0  0
 21 23  1  0  0  0
 22 28  1  0  0  0
 22 32  2  0  0  0
 26 27  1  0  0  0
 28104  1  0  0  0
 28105  1  0  0  0
 29106  1  0  0  0
 29107  1  0  0  0
 33 34  1  0  0  0
 33 66  1  0  0  0
 33 70  2  0  0  0
 34 36  1  0  0  0
 34 59  1  0  0  0
 34108  1  0  0  0
 35 44  2  0  0  0
 35 45  1  0  0  0
 35 68  1  0  0  0
 36 56  1  0  0  0
 36109  1  0  0  0
 37 39  1  0  0  0
 37 47  1  0  0  0
 37 66  1  0  0  0
 37110  1  0  0  0
 38 43  2  0  0  0
 38 46  1  0  0  0
 38 47  1  0  0  0
 39 64  1  0  0  0
 39 67  2  0  0  0
 40 52  1  0  0  0
 40 53  2  0  0  0
 40 58  1  0  0  0
 41111  1  0  0  0
 41112  1  0  0  0
 41113  1  0  0  0
 41 48  1  0  0  0
 42 43  1  0  0  0
 42 66  1  0  0  0
 42114  1  0  0  0
 42115  1  0  0  0
 43 44  1  0  0  0
 44116  1  0  0  0
 45 46  2  0  0  0
 45117  1  0  0  0
 46118  1  0  0  0
 47119  1  0  0  0
 47120  1  0  0  0
 48 56  1  0  0  0
 48 65  1  0  0  0
 48121  1  0  0  0
 49 50  1  0  0  0
 49 53  1  0  0  0
 49 64  1  0  0  0
 49122  1  0  0  0
 50 51  1  0  0  0
 50123  1  0  0  0
 50124  1  0  0  0
 51 52  1  0  0  0
 51125  1  0  0  0
 51126  1  0  0  0
 52127  1  0  0  0
 52128  1  0  0  0
 53 54  1  0  0  0
 54 55  2  0  0  0
 54129  1  0  0  0
 55 57  1  0  0  0
 55130  1  0  0  0
 56 69  2  0  0  0
 57 58  2  0  0  0
 57131  1  0  0  0
 58132  1  0  0  0
 59 60  1  0  0  0
 59 61  1  0  0  0
 59 62  1  0  0  0
 60133  1  0  0  0
 60134  1  0  0  0
 60135  1  0  0  0
 61136  1  0  0  0
 61137  1  0  0  0
 61138  1  0  0  0
 62139  1  0  0  0
 62140  1  0  0  0
 62141  1  0  0  0
 63 65  1  0  0  0
 63142  1  0  0  0
 63143  1  0  0  0
 63144  1  0  0  0
 64145  1  0  0  0
 65146  1  0  0  0
 68 82  1  0  0  0
 71 72  2  0  0  0
 71 74  1  0  0  0
 71147  1  0  0  0
 72 73  1  0  0  0
 72 82  1  0  0  0
 73 75  2  0  0  0
 73 83  1  0  0  0
 74 80  1  0  0  0
 74 84  2  0  0  0
 75 84  1  0  0  0
 75 85  1  0  0  0
 76 78  1  0  0  0
 76 85  1  0  0  0
 76148  1  0  0  0
 76149  1  0  0  0
 77 79  1  0  0  0
 77 85  1  0  0  0
 77150  1  0  0  0
 77151  1  0  0  0
 78 86  1  0  0  0
 78152  1  0  0  0
 78153  1  0  0  0
 79 86  1  0  0  0
 79154  1  0  0  0
 79155  1  0  0  0
 80156  1  0  0  0
 80157  1  0  0  0
 80158  1  0  0  0
 81159  1  0  0  0
 81160  1  0  0  0
 81161  1  0  0  0
 81 83  1  0  0  0
 82162  1  0  0  0
 82163  1  0  0  0
 83 87  1  0  0  0
 83164  1  0  0  0
M  ISO  4   1 100  68 101  82 101  86 100
M  END
> <chiral flag>
0

> <version>
0

> <s_m_source_file>
/data/baiqing/PycharmProjects/Reinvent-master-3.2/result/LINK_invent/BTK/process_docking_weight1_custom_sum_contain_oxygen_bond_distance_aromatic_linkinvent_7_9_3/rearranged_h_0177.sdf

> <i_m_source_file_index>
70

> <r_mmod_Potential_Energy-OPLS-2005>
419.672088623047

> <r_mmod_Stretch_Energy-OPLS-2005>
204.677429199219

> <r_mmod_Bend_Energy-OPLS-2005>
238.863647460938

> <r_mmod_Torsional_Energy-OPLS-2005>
369.474060058594

> <r_mmod_Improper_Torsional_Energy-OPLS-2005>
21.23903465271

> <r_mmod_Van_der_Waal_Energy-OPLS-2005>
138.294128417969

> <r_mmod_Electrostatic_Energy-OPLS-2005>
-507.905883789062

> <r_mmod_Solvation_Energy-OPLS-2005>
-215.889404296875

> <b_mmod_Minimization_Converged-OPLS-2005>
0

> <r_mmod_RMS_Derivative-OPLS-2005>
1.77127814292908

$$$$
70
                    3D
 Structure written by MMmdl.
164173  0  0  1  0            999 V2000
  -30.6391  -14.7280   20.4435 C   0  0  0  0  0  0
  -30.4203  -12.4426   19.4753 C   0  0  0  0  0  0
  -29.5055  -12.5012   18.2351 C   0  0  0  0  0  0
  -28.0332  -12.3234   18.6515 C   0  0  0  0  0  0
  -27.6364  -13.2345   19.8450 C   0  0  2  0  0  0
  -28.6810  -13.1895   20.9807 C   0  0  0  0  0  0
  -25.2501  -13.8212   20.5723 C   0  0  0  0  0  0
  -24.1798  -13.0448   20.9229 C   0  0  0  0  0  0
  -24.6389  -11.6924   20.8765 C   0  0  0  0  0  0
  -23.9082  -10.4295   21.0428 C   0  0  0  0  0  0
  -24.3628   -9.4201   21.9199 C   0  0  0  0  0  0
  -23.6305   -8.2234   22.0763 C   0  0  0  0  0  0
  -22.4285   -8.0277   21.3555 C   0  0  0  0  0  0
  -21.9921   -9.0258   20.4656 C   0  0  0  0  0  0
  -22.7258  -10.2137   20.3072 C   0  0  0  0  0  0
  -21.6843   -6.0736   22.5288 C   0  0  0  0  0  0
  -21.4008   -6.5640   23.8222 C   0  0  0  0  0  0
  -21.3664   -5.6796   24.9185 C   0  0  0  0  0  0
  -21.6038   -4.3057   24.7237 C   0  0  0  0  0  0
  -21.8816   -3.8145   23.4355 C   0  0  0  0  0  0
  -21.9196   -4.6964   22.3409 C   0  0  0  0  0  0
  -22.7819  -13.5231   21.1872 C   0  0  0  0  0  0
  -22.1664   -4.2145   21.0988 F   0  0  0  0  0  0
  -21.5626   -3.4543   25.7753 F   0  0  0  0  0  0
  -29.9824  -13.5194   20.3936 N   0  0  0  0  0  0
  -26.2914  -12.9419   20.3283 N   0  0  0  0  0  0
  -25.9313  -11.6556   20.5746 N   0  0  0  0  0  0
  -22.0471  -12.8219   22.0426 N   0  0  0  0  0  0
  -25.4198  -15.1937   20.4133 N   0  0  0  0  0  0
  -31.8377  -14.7787   20.1568 O   0  0  0  0  0  0
  -21.6634   -6.8883   21.4258 O   0  0  0  0  0  0
  -22.3510  -14.5549   20.6735 O   0  0  0  0  0  0
  -24.6296  -31.8581   23.1983 C   0  0  0  0  0  0
  -25.9141  -32.4757   23.8321 C   0  0  1  0  0  0
  -27.2265  -27.2950   20.1162 C   0  0  0  0  0  0
  -25.5962  -33.8560   24.2258 N   0  0  0  0  0  0
  -23.4217  -30.4818   21.5419 C   0  0  2  0  0  0
  -24.8688  -28.9194   20.1221 C   0  0  0  0  0  0
  -22.7483  -29.4634   22.4920 C   0  0  0  0  0  0
  -18.0291  -28.1402   22.8498 C   0  0  0  0  0  0
  -24.1493  -36.7273   23.2636 C   0  0  0  0  0  0
  -25.9656  -30.7796   21.3727 C   0  0  0  0  0  0
  -26.0404  -29.4008   20.7205 C   0  0  0  0  0  0
  -27.2274  -28.6036   20.7000 C   0  0  0  0  0  0
  -26.0304  -26.8579   19.5182 C   0  0  0  0  0  0
  -24.8657  -27.6533   19.5152 C   0  0  0  0  0  0
  -23.6400  -29.8098   20.1617 C   0  0  0  0  0  0
  -25.4117  -36.3068   24.0322 C   0  0  1  0  0  0
  -20.5888  -28.3711   23.1287 C   0  0  2  0  0  0
  -20.6780  -26.9434   22.5412 C   0  0  0  0  0  0
  -19.5759  -26.6406   21.5212 C   0  0  0  0  0  0
  -18.1935  -26.7950   22.1631 C   0  0  0  0  0  0
  -19.1542  -28.8881   23.2886 C   0  0  0  0  0  0
  -18.9461  -30.1478   23.8910 C   0  0  0  0  0  0
  -17.6464  -30.6604   24.0579 C   0  0  0  0  0  0
  -25.9061  -34.9444   23.5090 C   0  0  0  0  0  0
  -16.5354  -29.9107   23.6340 C   0  0  0  0  0  0
  -16.7279  -28.6522   23.0363 C   0  0  0  0  0  0
  -26.4513  -31.6580   25.0711 C   0  0  0  0  0  0
  -25.3751  -31.3729   26.1449 C   0  0  0  0  0  0
  -27.0335  -30.2997   24.6168 C   0  0  0  0  0  0
  -27.6064  -32.4320   25.7493 C   0  0  0  0  0  0
  -27.5571  -37.1796   24.8467 C   0  0  0  0  0  0
  -21.4195  -29.3054   22.3667 N   0  0  0  0  0  0
  -26.4294  -37.3766   23.9409 N   0  0  0  0  0  0
  -24.6908  -31.0576   22.0934 N   0  0  0  0  0  0
  -23.4202  -28.8172   23.3013 O   0  0  0  0  0  0
  -28.3528  -26.4632   20.0281 O   0  0  0  0  0  0
  -26.5616  -34.8919   22.4647 O   0  0  0  0  0  0
  -23.5462  -32.1413   23.7297 O   0  0  0  0  0  0
  -28.6008  -19.1670   20.7873 C   0  0  0  0  0  0
  -29.8918  -18.7633   20.3532 C   0  0  0  0  0  0
  -30.6736  -19.8922   19.9676 C   0  0  0  0  0  0
  -29.0541  -21.4756   20.5594 C   0  0  0  0  0  0
  -27.5969  -23.8598   20.4279 C   0  0  0  0  0  0
  -29.5817  -24.2020   20.5015 C   0  0  0  0  0  0
  -28.3869  -25.1722   20.7589 C   0  0  1  0  0  0
  -28.7539  -22.9696   21.0628 C   0  0  2  0  0  0
  -32.0545  -19.7261   19.3597 C   0  0  0  0  0  0
  -31.2138  -23.0579   23.2120 C   0  0  0  0  0  0
  -30.5327  -17.2878   20.2819 C   0  0  0  0  0  0
  -28.6848  -22.8642   22.6218 C   0  0  0  0  0  0
  -29.9054  -22.2736   23.3673 C   0  0  0  0  0  0
  -28.2036  -20.4810   20.8713 N   0  0  0  0  0  0
  -30.2729  -21.1901   20.0982 N   0  0  0  0  0  0
  -29.9215  -15.9145   20.5648 N   0  0  0  0  0  0
  -31.4636  -12.5452   19.1728 H   0  0  0  0  0  0
  -30.3457  -11.4716   19.9683 H   0  0  0  0  0  0
  -29.7846  -11.7281   17.5177 H   0  0  0  0  0  0
  -29.6344  -13.4550   17.7229 H   0  0  0  0  0  0
  -27.8966  -11.2778   18.9312 H   0  0  0  0  0  0
  -27.3750  -12.4964   17.8000 H   0  0  0  0  0  0
  -27.6237  -14.2503   19.4497 H   0  0  0  0  0  0
  -28.7097  -12.2050   21.4513 H   0  0  0  0  0  0
  -28.4231  -13.8996   21.7665 H   0  0  0  0  0  0
  -25.2774   -9.5664   22.4773 H   0  0  0  0  0  0
  -24.0005   -7.4619   22.7466 H   0  0  0  0  0  0
  -21.0851   -8.8790   19.8960 H   0  0  0  0  0  0
  -22.3730  -10.9682   19.6171 H   0  0  0  0  0  0
  -21.1989   -7.6148   23.9732 H   0  0  0  0  0  0
  -21.1494   -6.0519   25.9090 H   0  0  0  0  0  0
  -22.0589   -2.7607   23.2863 H   0  0  0  0  0  0
  -22.4081  -11.9879   22.4827 H   0  0  0  0  0  0
  -21.1096  -13.1262   22.2632 H   0  0  0  0  0  0
  -24.6486  -15.8450   20.5105 H   0  0  0  0  0  0
  -26.2586  -15.6309   20.0556 H   0  0  0  0  0  0
  -26.7217  -32.5422   23.1070 H   0  0  0  0  0  0
  -25.0131  -33.9703   25.0418 H   0  0  0  0  0  0
  -22.7139  -31.3004   21.3963 H   0  0  0  0  0  0
  -23.3767  -35.9599   23.3311 H   0  0  0  0  0  0
  -24.3577  -36.8886   22.2051 H   0  0  0  0  0  0
  -23.7253  -37.6475   23.6657 H   0  0  0  0  0  0
  -26.1028  -31.5420   20.6042 H   0  0  0  0  0  0
  -26.8422  -30.8286   22.0071 H   0  0  0  0  0  0
  -28.1369  -28.9802   21.1467 H   0  0  0  0  0  0
  -25.9969  -25.8881   19.0408 H   0  0  0  0  0  0
  -23.9661  -27.2817   19.0454 H   0  0  0  0  0  0
  -23.7654  -30.5852   19.4045 H   0  0  0  0  0  0
  -22.7554  -29.2465   19.8572 H   0  0  0  0  0  0
  -25.1306  -36.1898   25.0816 H   0  0  0  0  0  0
  -20.9984  -28.3305   24.1408 H   0  0  0  0  0  0
  -20.5697  -26.2320   23.3606 H   0  0  0  0  0  0
  -21.6649  -26.7472   22.1197 H   0  0  0  0  0  0
  -19.6916  -25.6311   21.1253 H   0  0  0  0  0  0
  -19.6706  -27.3206   20.6728 H   0  0  0  0  0  0
  -17.4201  -26.6710   21.4032 H   0  0  0  0  0  0
  -18.0351  -26.0071   22.9011 H   0  0  0  0  0  0
  -19.7932  -30.7290   24.2289 H   0  0  0  0  0  0
  -17.5017  -31.6288   24.5171 H   0  0  0  0  0  0
  -15.5358  -30.3021   23.7652 H   0  0  0  0  0  0
  -15.8673  -28.0843   22.7086 H   0  0  0  0  0  0
  -24.5930  -30.7062   25.7805 H   0  0  0  0  0  0
  -24.8940  -32.2895   26.4873 H   0  0  0  0  0  0
  -25.8099  -30.8932   27.0228 H   0  0  0  0  0  0
  -26.2900  -29.6772   24.1179 H   0  0  0  0  0  0
  -27.4009  -29.7242   25.4672 H   0  0  0  0  0  0
  -27.8792  -30.4272   23.9407 H   0  0  0  0  0  0
  -27.2665  -33.3619   26.2074 H   0  0  0  0  0  0
  -28.3882  -32.6887   25.0328 H   0  0  0  0  0  0
  -28.0732  -31.8445   26.5411 H   0  0  0  0  0  0
  -28.2598  -38.0077   24.7487 H   0  0  0  0  0  0
  -28.1053  -36.2608   24.6331 H   0  0  0  0  0  0
  -27.2285  -37.1497   25.8869 H   0  0  0  0  0  0
  -20.9376  -29.8741   21.6844 H   0  0  0  0  0  0
  -26.0166  -38.2843   24.1406 H   0  0  0  0  0  0
  -27.8753  -18.4320   21.1010 H   0  0  0  0  0  0
  -27.4634  -23.6946   19.3560 H   0  0  0  0  0  0
  -26.6415  -23.7708   20.9446 H   0  0  0  0  0  0
  -30.4835  -24.4671   21.0454 H   0  0  0  0  0  0
  -29.8248  -24.0941   19.4399 H   0  0  0  0  0  0
  -28.3149  -25.4326   21.8138 H   0  0  0  0  0  0
  -31.9750  -19.2531   18.3812 H   0  0  0  0  0  0
  -32.7010  -19.1151   19.9900 H   0  0  0  0  0  0
  -32.5478  -20.6874   19.2193 H   0  0  0  0  0  0
  -31.6339  -22.9386   22.2132 H   0  0  0  0  0  0
  -31.9620  -22.6926   23.9160 H   0  0  0  0  0  0
  -31.0744  -24.1227   23.4074 H   0  0  0  0  0  0
  -31.4037  -17.3435   20.9370 H   0  0  0  0  0  0
  -30.9456  -17.2062   19.2757 H   0  0  0  0  0  0
  -27.8257  -22.2462   22.8850 H   0  0  0  0  0  0
  -28.4558  -23.8161   23.0915 H   0  0  0  0  0  0
  -29.6629  -22.2315   24.4293 H   0  0  0  0  0  0
  -30.0659  -21.2374   23.0673 H   0  0  0  0  0  0
  -28.9301  -15.8426   20.7325 H   0  0  0  0  0  0
  1 25  1  0  0  0
  1 30  2  0  0  0
  1 86  1  0  0  0
  2  3  1  0  0  0
  2 25  1  0  0  0
  2 87  1  0  0  0
  2 88  1  0  0  0
  3  4  1  0  0  0
  3 89  1  0  0  0
  3 90  1  0  0  0
  4  5  1  0  0  0
  4 91  1  0  0  0
  4 92  1  0  0  0
  5  6  1  0  0  0
  5 26  1  0  0  0
  5 93  1  0  0  0
  6 25  1  0  0  0
  6 94  1  0  0  0
  6 95  1  0  0  0
  7  8  2  0  0  0
  7 26  1  0  0  0
  7 29  1  0  0  0
  8  9  1  0  0  0
  8 22  1  0  0  0
  9 10  1  0  0  0
  9 27  2  0  0  0
 10 11  2  0  0  0
 10 15  1  0  0  0
 11 12  1  0  0  0
 11 96  1  0  0  0
 12 13  2  0  0  0
 12 97  1  0  0  0
 13 14  1  0  0  0
 13 31  1  0  0  0
 14 15  2  0  0  0
 14 98  1  0  0  0
 15 99  1  0  0  0
 16 17  2  0  0  0
 16 21  1  0  0  0
 16 31  1  0  0  0
 17 18  1  0  0  0
 17100  1  0  0  0
 18 19  2  0  0  0
 18101  1  0  0  0
 19 20  1  0  0  0
 19 24  1  0  0  0
 20 21  2  0  0  0
 20102  1  0  0  0
 21 23  1  0  0  0
 22 28  1  0  0  0
 22 32  2  0  0  0
 26 27  1  0  0  0
 28103  1  0  0  0
 28104  1  0  0  0
 29105  1  0  0  0
 29106  1  0  0  0
 33 34  1  0  0  0
 33 66  1  0  0  0
 33 70  2  0  0  0
 34 36  1  0  0  0
 34 59  1  0  0  0
 34107  1  0  0  0
 35 44  2  0  0  0
 35 45  1  0  0  0
 35 68  1  0  0  0
 36 56  1  0  0  0
 36108  1  0  0  0
 37 39  1  0  0  0
 37 47  1  0  0  0
 37 66  1  0  0  0
 37109  1  0  0  0
 38 43  2  0  0  0
 38 46  1  0  0  0
 38 47  1  0  0  0
 39 64  1  0  0  0
 39 67  2  0  0  0
 40 52  1  0  0  0
 40 53  2  0  0  0
 40 58  1  0  0  0
 41110  1  0  0  0
 41111  1  0  0  0
 41112  1  0  0  0
 41 48  1  0  0  0
 42 43  1  0  0  0
 42 66  1  0  0  0
 42113  1  0  0  0
 42114  1  0  0  0
 43 44  1  0  0  0
 44115  1  0  0  0
 45 46  2  0  0  0
 45116  1  0  0  0
 46117  1  0  0  0
 47118  1  0  0  0
 47119  1  0  0  0
 48 56  1  0  0  0
 48 65  1  0  0  0
 48120  1  0  0  0
 49 50  1  0  0  0
 49 53  1  0  0  0
 49 64  1  0  0  0
 49121  1  0  0  0
 50 51  1  0  0  0
 50122  1  0  0  0
 50123  1  0  0  0
 51 52  1  0  0  0
 51124  1  0  0  0
 51125  1  0  0  0
 52126  1  0  0  0
 52127  1  0  0  0
 53 54  1  0  0  0
 54 55  2  0  0  0
 54128  1  0  0  0
 55 57  1  0  0  0
 55129  1  0  0  0
 56 69  2  0  0  0
 57 58  2  0  0  0
 57130  1  0  0  0
 58131  1  0  0  0
 59 60  1  0  0  0
 59 61  1  0  0  0
 59 62  1  0  0  0
 60132  1  0  0  0
 60133  1  0  0  0
 60134  1  0  0  0
 61135  1  0  0  0
 61136  1  0  0  0
 61137  1  0  0  0
 62138  1  0  0  0
 62139  1  0  0  0
 62140  1  0  0  0
 63 65  1  0  0  0
 63141  1  0  0  0
 63142  1  0  0  0
 63143  1  0  0  0
 64144  1  0  0  0
 65145  1  0  0  0
 68 77  1  0  0  0
 71 72  2  0  0  0
 71 84  1  0  0  0
 71146  1  0  0  0
 72 73  1  0  0  0
 72 81  1  0  0  0
 73 79  1  0  0  0
 73 85  2  0  0  0
 74 78  1  0  0  0
 74 84  2  0  0  0
 74 85  1  0  0  0
 75 77  1  0  0  0
 75 78  1  0  0  0
 75147  1  0  0  0
 75148  1  0  0  0
 76 77  1  0  0  0
 76 78  1  0  0  0
 76149  1  0  0  0
 76150  1  0  0  0
 77151  1  0  0  0
 78 82  1  0  0  0
 79152  1  0  0  0
 79153  1  0  0  0
 79154  1  0  0  0
 80 83  1  0  0  0
 80155  1  0  0  0
 80156  1  0  0  0
 80157  1  0  0  0
 81 86  1  0  0  0
 81158  1  0  0  0
 81159  1  0  0  0
 82 83  1  0  0  0
 82160  1  0  0  0
 82161  1  0  0  0
 83162  1  0  0  0
 83163  1  0  0  0
 86164  1  0  0  0
M  ISO  4   1 100  68 101  77 101  86 100
M  END
> <chiral flag>
0

> <version>
0

> <s_m_source_file>
/data/baiqing/PycharmProjects/Reinvent-master-3.2/result/LINK_invent/BTK/process_docking_weight1_custom_sum_contain_oxygen_bond_distance_aromatic_linkinvent_7_9_3/rearranged_h_0177.sdf

> <i_m_source_file_index>
71

> <r_mmod_Potential_Energy-OPLS-2005>
-153.394470214844

> <r_mmod_Stretch_Energy-OPLS-2005>
108.553726196289

> <r_mmod_Bend_Energy-OPLS-2005>
238.292007446289

> <r_mmod_Torsional_Energy-OPLS-2005>
227.896820068359

> <r_mmod_Improper_Torsional_Energy-OPLS-2005>
8.11036014556885

> <r_mmod_Van_der_Waal_Energy-OPLS-2005>
148.224822998047

> <r_mmod_Electrostatic_Energy-OPLS-2005>
-729.275024414062

> <r_mmod_Solvation_Energy-OPLS-2005>
-225.973754882812

> <b_mmod_Minimization_Converged-OPLS-2005>
0

> <r_mmod_RMS_Derivative-OPLS-2005>
3.39035320281982

$$$$
71
                    3D
 Structure written by MMmdl.
165174  0  0  1  0            999 V2000
  -30.4182  -15.3068   20.3264 C   0  0  0  0  0  0
  -30.4463  -12.8289   19.5386 C   0  0  0  0  0  0
  -29.5460  -12.5735   18.3022 C   0  0  0  0  0  0
  -28.0889  -12.2947   18.7178 C   0  0  0  0  0  0
  -27.6050  -13.2603   19.8250 C   0  0  2  0  0  0
  -28.6391  -13.4816   20.9464 C   0  0  0  0  0  0
  -25.2394  -13.8201   20.5790 C   0  0  0  0  0  0
  -24.1706  -13.0425   20.9219 C   0  0  0  0  0  0
  -24.6344  -11.6912   20.8746 C   0  0  0  0  0  0
  -23.9037  -10.4290   21.0393 C   0  0  0  0  0  0
  -24.3603   -9.4223   21.9150 C   0  0  0  0  0  0
  -23.6291   -8.2243   22.0732 C   0  0  0  0  0  0
  -22.4276   -8.0264   21.3531 C   0  0  0  0  0  0
  -21.9908   -9.0223   20.4609 C   0  0  0  0  0  0
  -22.7219  -10.2106   20.3021 C   0  0  0  0  0  0
  -21.6877   -6.0711   22.5240 C   0  0  0  0  0  0
  -21.4021   -6.5618   23.8171 C   0  0  0  0  0  0
  -21.3670   -5.6764   24.9127 C   0  0  0  0  0  0
  -21.6073   -4.3030   24.7182 C   0  0  0  0  0  0
  -21.8838   -3.8128   23.4306 C   0  0  0  0  0  0
  -21.9199   -4.6943   22.3366 C   0  0  0  0  0  0
  -22.7721  -13.5175   21.1840 C   0  0  0  0  0  0
  -22.1677   -4.2130   21.0946 F   0  0  0  0  0  0
  -21.5634   -3.4524   25.7706 F   0  0  0  0  0  0
  -29.8754  -13.9843   20.3213 N   0  0  0  0  0  0
  -26.2795  -12.9425   20.3311 N   0  0  0  0  0  0
  -25.9287  -11.6554   20.5756 N   0  0  0  0  0  0
  -22.0396  -12.8177   22.0443 N   0  0  0  0  0  0
  -25.4087  -15.1933   20.4282 N   0  0  0  0  0  0
  -31.6555  -15.2988   20.2317 O   0  0  0  0  0  0
  -21.6655   -6.8860   21.4212 O   0  0  0  0  0  0
  -22.3382  -14.5424   20.6603 O   0  0  0  0  0  0
  -24.6634  -31.8257   23.1717 C   0  0  0  0  0  0
  -25.9324  -32.4607   23.8187 C   0  0  1  0  0  0
  -27.2205  -26.9377   20.1817 C   0  0  0  0  0  0
  -25.6005  -33.8423   24.2103 N   0  0  0  0  0  0
  -23.4781  -30.4356   21.5221 C   0  0  2  0  0  0
  -24.9301  -28.8246   20.1139 C   0  0  0  0  0  0
  -22.7676  -29.4423   22.4788 C   0  0  0  0  0  0
  -18.0320  -28.1403   22.8453 C   0  0  0  0  0  0
  -24.1503  -36.7217   23.2643 C   0  0  0  0  0  0
  -26.0472  -30.6356   21.3993 C   0  0  0  0  0  0
  -26.1168  -29.2258   20.7423 C   0  0  0  0  0  0
  -27.2604  -28.3080   20.7410 C   0  0  0  0  0  0
  -26.0054  -26.6854   19.5072 C   0  0  0  0  0  0
  -24.9008  -27.5753   19.4731 C   0  0  0  0  0  0
  -23.7182  -29.7552   20.1479 C   0  0  0  0  0  0
  -25.4139  -36.2983   24.0302 C   0  0  1  0  0  0
  -20.5945  -28.3740   23.1196 C   0  0  2  0  0  0
  -20.6796  -26.9424   22.5393 C   0  0  0  0  0  0
  -19.5765  -26.6367   21.5212 C   0  0  0  0  0  0
  -18.1952  -26.7930   22.1621 C   0  0  0  0  0  0
  -19.1578  -28.8893   23.2815 C   0  0  0  0  0  0
  -18.9491  -30.1487   23.8841 C   0  0  0  0  0  0
  -17.6485  -30.6596   24.0550 C   0  0  0  0  0  0
  -25.9092  -34.9361   23.5013 C   0  0  0  0  0  0
  -16.5374  -29.9076   23.6346 C   0  0  0  0  0  0
  -16.7299  -28.6502   23.0345 C   0  0  0  0  0  0
  -26.4568  -31.6541   25.0710 C   0  0  0  0  0  0
  -25.3687  -31.3790   26.1367 C   0  0  0  0  0  0
  -27.0460  -30.2907   24.6428 C   0  0  0  0  0  0
  -27.6071  -32.4338   25.7511 C   0  0  0  0  0  0
  -27.5579  -37.1763   24.8458 C   0  0  0  0  0  0
  -21.4344  -29.3048   22.3557 N   0  0  0  0  0  0
  -26.4287  -37.3709   23.9404 N   0  0  0  0  0  0
  -24.7512  -30.9912   22.0861 N   0  0  0  0  0  0
  -23.4223  -28.7987   23.3025 O   0  0  0  0  0  0
  -28.2438  -25.8535   20.1949 O   0  0  0  0  0  0
  -26.5688  -34.8891   22.4602 O   0  0  0  0  0  0
  -23.5712  -32.1239   23.6806 O   0  0  0  0  0  0
  -28.5946  -16.7240   19.1036 C   0  0  0  0  0  0
  -28.0034  -19.1258   19.2383 C   0  0  0  0  0  0
  -27.7982  -17.8244   18.7138 C   0  0  0  0  0  0
  -29.5964  -16.7683   20.0978 C   0  0  0  0  0  0
  -29.0321  -19.4147   20.1562 C   0  0  0  0  0  0
  -30.3307  -23.1328   19.8748 C   0  0  0  0  0  0
  -29.1448  -21.0769   20.6873 C   0  0  2  0  0  0
  -30.9008  -22.5939   21.1793 C   0  0  2  0  0  0
  -28.8616  -22.7128   19.9291 C   0  0  2  0  0  0
  -32.4232  -22.7273   21.3082 C   0  0  0  0  0  0
  -28.3126  -22.4870   18.5117 C   0  0  0  0  0  0
  -25.5291  -18.3069   17.9197 C   0  0  0  0  0  0
  -28.0380  -24.2355   20.4664 C   0  0  0  0  0  0
  -29.7683  -18.1789   20.5421 N   0  3  0  0  0  0
  -30.5215  -21.1913   21.1712 N   0  0  0  0  0  0
  -26.7879  -17.5876   17.7690 N   0  0  0  0  0  0
  -31.4632  -13.0440   19.2066 H   0  0  0  0  0  0
  -30.5249  -11.9368   20.1622 H   0  0  0  0  0  0
  -29.9392  -11.7394   17.7206 H   0  0  0  0  0  0
  -29.5779  -13.4443   17.6458 H   0  0  0  0  0  0
  -28.0327  -11.2680   19.0795 H   0  0  0  0  0  0
  -27.4291  -12.3548   17.8505 H   0  0  0  0  0  0
  -27.4777  -14.2044   19.3139 H   0  0  0  0  0  0
  -28.8173  -12.5697   21.5181 H   0  0  0  0  0  0
  -28.2656  -14.2182   21.6599 H   0  0  0  0  0  0
  -25.2744   -9.5723   22.4708 H   0  0  0  0  0  0
  -24.0013   -7.4662   22.7474 H   0  0  0  0  0  0
  -21.0826   -8.8726   19.8931 H   0  0  0  0  0  0
  -22.3667  -10.9629   19.6119 H   0  0  0  0  0  0
  -21.2032   -7.6125   23.9665 H   0  0  0  0  0  0
  -21.1476   -6.0488   25.9027 H   0  0  0  0  0  0
  -22.0621   -2.7591   23.2782 H   0  0  0  0  0  0
  -22.4031  -11.9830   22.4806 H   0  0  0  0  0  0
  -21.1013  -13.1200   22.2638 H   0  0  0  0  0  0
  -24.6239  -15.8334   20.4553 H   0  0  0  0  0  0
  -26.2766  -15.6499   20.1899 H   0  0  0  0  0  0
  -26.7390  -32.5140   23.0903 H   0  0  0  0  0  0
  -25.0141  -33.9502   25.0248 H   0  0  0  0  0  0
  -22.7913  -31.2681   21.3541 H   0  0  0  0  0  0
  -23.3783  -35.9526   23.3260 H   0  0  0  0  0  0
  -24.3593  -36.8909   22.2068 H   0  0  0  0  0  0
  -23.7235  -37.6384   23.6724 H   0  0  0  0  0  0
  -26.2272  -31.3826   20.6239 H   0  0  0  0  0  0
  -26.9088  -30.6886   22.0550 H   0  0  0  0  0  0
  -28.1690  -28.6231   21.2336 H   0  0  0  0  0  0
  -25.8892  -25.7366   19.0026 H   0  0  0  0  0  0
  -24.0041  -27.2670   18.9526 H   0  0  0  0  0  0
  -23.8813  -30.5302   19.3972 H   0  0  0  0  0  0
  -22.8254  -29.2170   19.8227 H   0  0  0  0  0  0
  -25.1330  -36.1786   25.0786 H   0  0  0  0  0  0
  -21.0032  -28.3336   24.1323 H   0  0  0  0  0  0
  -20.5699  -26.2342   23.3622 H   0  0  0  0  0  0
  -21.6651  -26.7403   22.1192 H   0  0  0  0  0  0
  -19.6925  -25.6272   21.1266 H   0  0  0  0  0  0
  -19.6718  -27.3148   20.6721 H   0  0  0  0  0  0
  -17.4221  -26.6673   21.4027 H   0  0  0  0  0  0
  -18.0347  -26.0089   22.9036 H   0  0  0  0  0  0
  -19.7960  -30.7312   24.2191 H   0  0  0  0  0  0
  -17.5027  -31.6264   24.5165 H   0  0  0  0  0  0
  -15.5360  -30.2958   23.7696 H   0  0  0  0  0  0
  -15.8699  -28.0808   22.7076 H   0  0  0  0  0  0
  -24.5858  -30.7165   25.7667 H   0  0  0  0  0  0
  -24.8890  -32.2987   26.4712 H   0  0  0  0  0  0
  -25.7909  -30.8995   27.0201 H   0  0  0  0  0  0
  -26.3116  -29.6575   24.1437 H   0  0  0  0  0  0
  -27.4003  -29.7288   25.5076 H   0  0  0  0  0  0
  -27.9052  -30.4104   23.9830 H   0  0  0  0  0  0
  -27.2649  -33.3660   26.2013 H   0  0  0  0  0  0
  -28.3917  -32.6863   25.0370 H   0  0  0  0  0  0
  -28.0697  -31.8515   26.5486 H   0  0  0  0  0  0
  -28.2555  -38.0101   24.7534 H   0  0  0  0  0  0
  -28.1121  -36.2623   24.6248 H   0  0  0  0  0  0
  -27.2297  -37.1353   25.8862 H   0  0  0  0  0  0
  -20.9592  -29.8761   21.6710 H   0  0  0  0  0  0
  -26.0143  -38.2767   24.1428 H   0  0  0  0  0  0
  -28.4681  -15.8000   18.5725 H   0  0  0  0  0  0
  -27.3661  -19.9340   18.9196 H   0  0  0  0  0  0
  -30.8417  -22.6773   19.0254 H   0  0  0  0  0  0
  -30.4655  -24.2124   19.7892 H   0  0  0  0  0  0
  -28.5035  -21.0978   21.5707 H   0  0  0  0  0  0
  -30.4211  -23.0987   22.0195 H   0  0  0  0  0  0
  -32.9555  -22.1158   20.5784 H   0  0  0  0  0  0
  -32.7605  -22.4296   22.3025 H   0  0  0  0  0  0
  -32.7328  -23.7612   21.1599 H   0  0  0  0  0  0
  -28.8711  -21.7233   17.9704 H   0  0  0  0  0  0
  -28.3481  -23.4042   17.9205 H   0  0  0  0  0  0
  -27.2679  -22.1762   18.5478 H   0  0  0  0  0  0
  -24.7244  -17.7654   17.4203 H   0  0  0  0  0  0
  -25.5913  -19.3005   17.4744 H   0  0  0  0  0  0
  -25.2522  -18.4120   18.9706 H   0  0  0  0  0  0
  -28.0726  -24.1871   21.5543 H   0  0  0  0  0  0
  -26.9822  -24.0672   20.2513 H   0  0  0  0  0  0
  -30.5122  -18.3205   21.2275 H   0  0  0  0  0  0
  -31.0954  -20.7089   20.4854 H   0  0  0  0  0  0
  -26.7090  -16.6433   17.4026 H   0  0  0  0  0  0
  1 25  1  0  0  0
  1 30  2  0  0  0
  1 74  1  0  0  0
  2  3  1  0  0  0
  2 25  1  0  0  0
  2 87  1  0  0  0
  2 88  1  0  0  0
  3  4  1  0  0  0
  3 89  1  0  0  0
  3 90  1  0  0  0
  4  5  1  0  0  0
  4 91  1  0  0  0
  4 92  1  0  0  0
  5  6  1  0  0  0
  5 26  1  0  0  0
  5 93  1  0  0  0
  6 25  1  0  0  0
  6 94  1  0  0  0
  6 95  1  0  0  0
  7  8  2  0  0  0
  7 26  1  0  0  0
  7 29  1  0  0  0
  8  9  1  0  0  0
  8 22  1  0  0  0
  9 10  1  0  0  0
  9 27  2  0  0  0
 10 11  2  0  0  0
 10 15  1  0  0  0
 11 12  1  0  0  0
 11 96  1  0  0  0
 12 13  2  0  0  0
 12 97  1  0  0  0
 13 14  1  0  0  0
 13 31  1  0  0  0
 14 15  2  0  0  0
 14 98  1  0  0  0
 15 99  1  0  0  0
 16 17  2  0  0  0
 16 21  1  0  0  0
 16 31  1  0  0  0
 17 18  1  0  0  0
 17100  1  0  0  0
 18 19  2  0  0  0
 18101  1  0  0  0
 19 20  1  0  0  0
 19 24  1  0  0  0
 20 21  2  0  0  0
 20102  1  0  0  0
 21 23  1  0  0  0
 22 28  1  0  0  0
 22 32  2  0  0  0
 26 27  1  0  0  0
 28103  1  0  0  0
 28104  1  0  0  0
 29105  1  0  0  0
 29106  1  0  0  0
 33 34  1  0  0  0
 33 66  1  0  0  0
 33 70  2  0  0  0
 34 36  1  0  0  0
 34 59  1  0  0  0
 34107  1  0  0  0
 35 44  2  0  0  0
 35 45  1  0  0  0
 35 68  1  0  0  0
 36 56  1  0  0  0
 36108  1  0  0  0
 37 39  1  0  0  0
 37 47  1  0  0  0
 37 66  1  0  0  0
 37109  1  0  0  0
 38 43  2  0  0  0
 38 46  1  0  0  0
 38 47  1  0  0  0
 39 64  1  0  0  0
 39 67  2  0  0  0
 40 52  1  0  0  0
 40 53  2  0  0  0
 40 58  1  0  0  0
 41110  1  0  0  0
 41111  1  0  0  0
 41112  1  0  0  0
 41 48  1  0  0  0
 42 43  1  0  0  0
 42 66  1  0  0  0
 42113  1  0  0  0
 42114  1  0  0  0
 43 44  1  0  0  0
 44115  1  0  0  0
 45 46  2  0  0  0
 45116  1  0  0  0
 46117  1  0  0  0
 47118  1  0  0  0
 47119  1  0  0  0
 48 56  1  0  0  0
 48 65  1  0  0  0
 48120  1  0  0  0
 49 50  1  0  0  0
 49 53  1  0  0  0
 49 64  1  0  0  0
 49121  1  0  0  0
 50 51  1  0  0  0
 50122  1  0  0  0
 50123  1  0  0  0
 51 52  1  0  0  0
 51124  1  0  0  0
 51125  1  0  0  0
 52126  1  0  0  0
 52127  1  0  0  0
 53 54  1  0  0  0
 54 55  2  0  0  0
 54128  1  0  0  0
 55 57  1  0  0  0
 55129  1  0  0  0
 56 69  2  0  0  0
 57 58  2  0  0  0
 57130  1  0  0  0
 58131  1  0  0  0
 59 60  1  0  0  0
 59 61  1  0  0  0
 59 62  1  0  0  0
 60132  1  0  0  0
 60133  1  0  0  0
 60134  1  0  0  0
 61135  1  0  0  0
 61136  1  0  0  0
 61137  1  0  0  0
 62138  1  0  0  0
 62139  1  0  0  0
 62140  1  0  0  0
 63 65  1  0  0  0
 63141  1  0  0  0
 63142  1  0  0  0
 63143  1  0  0  0
 64144  1  0  0  0
 65145  1  0  0  0
 68 83  1  0  0  0
 71 73  2  0  0  0
 71 74  1  0  0  0
 71146  1  0  0  0
 72 73  1  0  0  0
 72 75  2  0  0  0
 72147  1  0  0  0
 73 86  1  0  0  0
 74 84  2  0  0  0
 75 84  1  0  0  0
 75 77  1  0  0  0
 76 78  1  0  0  0
 76 79  1  0  0  0
 76148  1  0  0  0
 76149  1  0  0  0
 77 79  1  0  0  0
 77 85  1  0  0  0
 77150  1  0  0  0
 78 80  1  0  0  0
 78 85  1  0  0  0
 78151  1  0  0  0
 79 81  1  0  0  0
 79 83  1  0  0  0
 80152  1  0  0  0
 80153  1  0  0  0
 80154  1  0  0  0
 81155  1  0  0  0
 81156  1  0  0  0
 81157  1  0  0  0
 82 86  1  0  0  0
 82158  1  0  0  0
 82159  1  0  0  0
 82160  1  0  0  0
 83161  1  0  0  0
 83162  1  0  0  0
 84163  1  0  0  0
 85164  1  0  0  0
 86165  1  0  0  0
M  CHG  1  84   1
M  ISO  4   1 100  68 101  74 100  83 101
M  END
> <chiral flag>
0

> <version>
0

> <s_m_source_file>
/data/baiqing/PycharmProjects/Reinvent-master-3.2/result/LINK_invent/BTK/process_docking_weight1_custom_sum_contain_oxygen_bond_distance_aromatic_linkinvent_7_9_3/rearranged_h_0177.sdf

> <i_m_source_file_index>
72

> <r_mmod_Potential_Energy-OPLS-2005>
1264.31921386719

> <r_mmod_Stretch_Energy-OPLS-2005>
613.395141601562

> <r_mmod_Bend_Energy-OPLS-2005>
467.245056152344

> <r_mmod_Torsional_Energy-OPLS-2005>
293.038299560547

> <r_mmod_Improper_Torsional_Energy-OPLS-2005>
11.8381824493408

> <r_mmod_Van_der_Waal_Energy-OPLS-2005>
118.000694274902

> <r_mmod_Electrostatic_Energy-OPLS-2005>
-300.857727050781

> <r_mmod_Solvation_Energy-OPLS-2005>
-413.101043701172

> <b_mmod_Minimization_Converged-OPLS-2005>
0

> <r_mmod_RMS_Derivative-OPLS-2005>
3.93493795394897

$$$$
72
                    3D
 Structure written by MMmdl.
178187  0  0  1  0            999 V2000
  -30.4302  -15.2636   20.3693 C   0  0  0  0  0  0
  -30.4372  -12.8056   19.5366 C   0  0  0  0  0  0
  -29.5380  -12.5842   18.2940 C   0  0  0  0  0  0
  -28.0853  -12.3077   18.7160 C   0  0  0  0  0  0
  -27.6121  -13.2781   19.8266 C   0  0  2  0  0  0
  -28.6417  -13.4466   20.9648 C   0  0  0  0  0  0
  -25.2380  -13.8256   20.5737 C   0  0  0  0  0  0
  -24.1737  -13.0441   20.9257 C   0  0  0  0  0  0
  -24.6398  -11.6939   20.8758 C   0  0  0  0  0  0
  -23.9095  -10.4297   21.0404 C   0  0  0  0  0  0
  -24.3640   -9.4210   21.9180 C   0  0  0  0  0  0
  -23.6307   -8.2247   22.0750 C   0  0  0  0  0  0
  -22.4288   -8.0284   21.3543 C   0  0  0  0  0  0
  -21.9929   -9.0260   20.4643 C   0  0  0  0  0  0
  -22.7265  -10.2136   20.3052 C   0  0  0  0  0  0
  -21.6858   -6.0738   22.5277 C   0  0  0  0  0  0
  -21.4020   -6.5640   23.8211 C   0  0  0  0  0  0
  -21.3662   -5.6788   24.9170 C   0  0  0  0  0  0
  -21.6044   -4.3052   24.7219 C   0  0  0  0  0  0
  -21.8819   -3.8146   23.4339 C   0  0  0  0  0  0
  -21.9194   -4.6966   22.3399 C   0  0  0  0  0  0
  -22.7752  -13.5187   21.1903 C   0  0  0  0  0  0
  -22.1659   -4.2151   21.0975 F   0  0  0  0  0  0
  -21.5630   -3.4534   25.7731 F   0  0  0  0  0  0
  -29.8782  -13.9511   20.3471 N   0  0  0  0  0  0
  -26.2810  -12.9535   20.3212 N   0  0  0  0  0  0
  -25.9335  -11.6638   20.5716 N   0  0  0  0  0  0
  -22.0409  -12.8174   22.0459 N   0  0  0  0  0  0
  -25.4006  -15.1990   20.4168 N   0  0  0  0  0  0
  -31.6448  -15.2699   20.1226 O   0  0  0  0  0  0
  -21.6645   -6.8886   21.4241 O   0  0  0  0  0  0
  -22.3428  -14.5484   20.6736 O   0  0  0  0  0  0
  -24.6629  -31.8225   23.1697 C   0  0  0  0  0  0
  -25.9309  -32.4581   23.8164 C   0  0  1  0  0  0
  -27.2182  -26.9227   20.1877 C   0  0  0  0  0  0
  -25.5977  -33.8396   24.2068 N   0  0  0  0  0  0
  -23.4779  -30.4331   21.5188 C   0  0  2  0  0  0
  -24.9319  -28.8180   20.1111 C   0  0  0  0  0  0
  -22.7667  -29.4430   22.4780 C   0  0  0  0  0  0
  -18.0322  -28.1409   22.8465 C   0  0  0  0  0  0
  -24.1493  -36.7205   23.2647 C   0  0  0  0  0  0
  -26.0465  -30.6274   21.4004 C   0  0  0  0  0  0
  -26.1145  -29.2164   20.7459 C   0  0  0  0  0  0
  -27.2517  -28.2899   20.7591 C   0  0  0  0  0  0
  -26.0080  -26.6776   19.5004 C   0  0  0  0  0  0
  -24.9045  -27.5699   19.4672 C   0  0  0  0  0  0
  -23.7181  -29.7465   20.1453 C   0  0  0  0  0  0
  -25.4135  -36.2962   24.0298 C   0  0  1  0  0  0
  -20.5946  -28.3750   23.1189 C   0  0  2  0  0  0
  -20.6795  -26.9430   22.5404 C   0  0  0  0  0  0
  -19.5771  -26.6375   21.5213 C   0  0  0  0  0  0
  -18.1953  -26.7942   22.1620 C   0  0  0  0  0  0
  -19.1583  -28.8901   23.2813 C   0  0  0  0  0  0
  -18.9493  -30.1493   23.8846 C   0  0  0  0  0  0
  -17.6486  -30.6596   24.0554 C   0  0  0  0  0  0
  -25.9101  -34.9345   23.5006 C   0  0  0  0  0  0
  -16.5376  -29.9082   23.6344 C   0  0  0  0  0  0
  -16.7303  -28.6504   23.0359 C   0  0  0  0  0  0
  -26.4561  -31.6531   25.0697 C   0  0  0  0  0  0
  -25.3688  -31.3785   26.1356 C   0  0  0  0  0  0
  -27.0461  -30.2896   24.6439 C   0  0  0  0  0  0
  -27.6048  -32.4346   25.7502 C   0  0  0  0  0  0
  -27.5569  -37.1759   24.8464 C   0  0  0  0  0  0
  -21.4336  -29.3038   22.3536 N   0  0  0  0  0  0
  -26.4278  -37.3700   23.9409 N   0  0  0  0  0  0
  -24.7504  -30.9883   22.0834 N   0  0  0  0  0  0
  -23.4216  -28.8005   23.3025 O   0  0  0  0  0  0
  -28.2224  -25.8207   20.2828 O   0  0  0  0  0  0
  -26.5712  -34.8881   22.4603 O   0  0  0  0  0  0
  -23.5699  -32.1197   23.6788 O   0  0  0  0  0  0
  -31.1830  -19.3324   18.2956 C   0  0  0  0  0  0
  -31.0472  -20.2535   20.8280 C   0  0  0  0  0  0
  -28.6157  -20.8754   18.6691 C   0  0  0  0  0  0
  -28.5780  -19.3834   18.1970 C   0  0  2  0  0  0
  -29.8148  -18.1525   20.0459 C   0  0  1  0  0  0
  -29.8605  -18.5207   18.5445 C   0  0  2  0  0  0
  -31.8506  -20.1667   19.4697 C   0  0  0  0  0  0
  -29.5703  -19.7683   20.7900 C   0  0  1  0  0  0
  -28.2114  -19.3788   16.6954 C   0  0  0  0  0  0
  -29.9060  -17.2387   17.6718 C   0  0  0  0  0  0
  -33.2211  -19.5196   19.7925 C   0  0  0  0  0  0
  -32.1962  -21.5842   18.9591 C   0  0  0  0  0  0
  -29.7332  -18.6889   23.2046 C   0  0  0  0  0  0
  -28.9716  -19.5867   22.2109 C   0  0  0  0  0  0
  -28.9594  -22.7105   20.5082 C   0  0  0  0  0  0
  -28.0131  -24.1893   20.0677 C   0  0  0  0  0  0
  -29.6522  -16.5281   20.4552 N   0  0  0  0  0  0
  -28.7726  -21.0768   20.1297 N   0  3  1  0  0  0
  -31.4587  -13.0055   19.2100 H   0  0  0  0  0  0
  -30.4973  -11.8974   20.1384 H   0  0  0  0  0  0
  -29.9190  -11.7598   17.6896 H   0  0  0  0  0  0
  -29.5709  -13.4720   17.6607 H   0  0  0  0  0  0
  -28.0393  -11.2822   19.0836 H   0  0  0  0  0  0
  -27.4196  -12.3553   17.8535 H   0  0  0  0  0  0
  -27.5300  -14.2472   19.3331 H   0  0  0  0  0  0
  -28.8042  -12.5094   21.4990 H   0  0  0  0  0  0
  -28.2796  -14.1662   21.7010 H   0  0  0  0  0  0
  -25.2784   -9.5679   22.4757 H   0  0  0  0  0  0
  -24.0012   -7.4637   22.7470 H   0  0  0  0  0  0
  -21.0858   -8.8783   19.8952 H   0  0  0  0  0  0
  -22.3723  -10.9673   19.6162 H   0  0  0  0  0  0
  -21.2015   -7.6148   23.9716 H   0  0  0  0  0  0
  -21.1483   -6.0517   25.9074 H   0  0  0  0  0  0
  -22.0598   -2.7609   23.2836 H   0  0  0  0  0  0
  -22.4040  -11.9853   22.4866 H   0  0  0  0  0  0
  -21.1014  -13.1175   22.2650 H   0  0  0  0  0  0
  -24.6262  -15.8452   20.5245 H   0  0  0  0  0  0
  -26.2335  -15.6382   20.0485 H   0  0  0  0  0  0
  -26.7380  -32.5116   23.0879 H   0  0  0  0  0  0
  -25.0068  -33.9471   25.0181 H   0  0  0  0  0  0
  -22.7913  -31.2646   21.3469 H   0  0  0  0  0  0
  -23.3765  -35.9524   23.3275 H   0  0  0  0  0  0
  -24.3571  -36.8888   22.2069 H   0  0  0  0  0  0
  -23.7238  -37.6379   23.6728 H   0  0  0  0  0  0
  -26.2263  -31.3675   20.6195 H   0  0  0  0  0  0
  -26.9069  -30.6860   22.0552 H   0  0  0  0  0  0
  -28.1459  -28.5916   21.2862 H   0  0  0  0  0  0
  -25.8789  -25.7244   19.0087 H   0  0  0  0  0  0
  -24.0058  -27.2602   18.9515 H   0  0  0  0  0  0
  -23.8734  -30.5139   19.3862 H   0  0  0  0  0  0
  -22.8277  -29.2004   19.8286 H   0  0  0  0  0  0
  -25.1333  -36.1756   25.0788 H   0  0  0  0  0  0
  -21.0032  -28.3356   24.1314 H   0  0  0  0  0  0
  -20.5670  -26.2368   23.3644 H   0  0  0  0  0  0
  -21.6660  -26.7402   22.1214 H   0  0  0  0  0  0
  -19.6928  -25.6273   21.1275 H   0  0  0  0  0  0
  -19.6714  -27.3157   20.6722 H   0  0  0  0  0  0
  -17.4223  -26.6684   21.4024 H   0  0  0  0  0  0
  -18.0347  -26.0096   22.9028 H   0  0  0  0  0  0
  -19.7969  -30.7324   24.2191 H   0  0  0  0  0  0
  -17.5036  -31.6271   24.5166 H   0  0  0  0  0  0
  -15.5374  -30.2965   23.7700 H   0  0  0  0  0  0
  -15.8704  -28.0807   22.7100 H   0  0  0  0  0  0
  -24.5882  -30.7121   25.7668 H   0  0  0  0  0  0
  -24.8863  -32.2987   26.4660 H   0  0  0  0  0  0
  -25.7919  -30.9033   27.0214 H   0  0  0  0  0  0
  -26.3129  -29.6567   24.1426 H   0  0  0  0  0  0
  -27.3968  -29.7269   25.5101 H   0  0  0  0  0  0
  -27.9080  -30.4077   23.9869 H   0  0  0  0  0  0
  -27.2613  -33.3691   26.1951 H   0  0  0  0  0  0
  -28.3927  -32.6837   25.0382 H   0  0  0  0  0  0
  -28.0642  -31.8560   26.5527 H   0  0  0  0  0  0
  -28.2563  -38.0076   24.7514 H   0  0  0  0  0  0
  -28.1088  -36.2602   24.6289 H   0  0  0  0  0  0
  -27.2287  -37.1396   25.8867 H   0  0  0  0  0  0
  -20.9591  -29.8728   21.6664 H   0  0  0  0  0  0
  -26.0124  -38.2757   24.1419 H   0  0  0  0  0  0
  -31.0419  -19.9680   17.4208 H   0  0  0  0  0  0
  -31.9337  -18.6265   17.9364 H   0  0  0  0  0  0
  -31.1182  -21.2495   21.2627 H   0  0  0  0  0  0
  -31.5764  -19.6461   21.5602 H   0  0  0  0  0  0
  -27.6825  -21.3658   18.3901 H   0  0  0  0  0  0
  -29.3861  -21.4188   18.1298 H   0  0  0  0  0  0
  -27.7298  -18.9116   18.6975 H   0  0  0  0  0  0
  -30.8614  -17.9833   20.2873 H   0  0  0  0  0  0
  -29.0361  -19.7319   16.0761 H   0  0  0  0  0  0
  -27.3545  -20.0229   16.4942 H   0  0  0  0  0  0
  -27.9253  -18.3870   16.3451 H   0  0  0  0  0  0
  -30.0274  -17.4683   16.6133 H   0  0  0  0  0  0
  -29.0003  -16.6404   17.7797 H   0  0  0  0  0  0
  -30.7559  -16.6069   17.9260 H   0  0  0  0  0  0
  -33.1158  -18.4919   20.1426 H   0  0  0  0  0  0
  -33.7524  -20.0725   20.5690 H   0  0  0  0  0  0
  -33.8746  -19.4920   18.9192 H   0  0  0  0  0  0
  -31.3273  -22.1519   18.6424 H   0  0  0  0  0  0
  -32.8651  -21.5415   18.0981 H   0  0  0  0  0  0
  -32.7025  -22.1738   19.7248 H   0  0  0  0  0  0
  -29.1550  -18.5708   24.1215 H   0  0  0  0  0  0
  -30.6908  -19.1191   23.4966 H   0  0  0  0  0  0
  -29.9169  -17.6904   22.8138 H   0  0  0  0  0  0
  -27.9616  -19.1893   22.1025 H   0  0  0  0  0  0
  -28.8531  -20.5628   22.6818 H   0  0  0  0  0  0
  -29.0034  -22.7277   21.5964 H   0  0  0  0  0  0
  -29.9746  -22.9527   20.2049 H   0  0  0  0  0  0
  -27.0189  -24.0054   20.4752 H   0  0  0  0  0  0
  -27.8721  -24.1065   18.9901 H   0  0  0  0  0  0
  -28.6978  -16.3249   20.7119 H   0  0  0  0  0  0
  -27.8336  -20.8953   20.4541 H   0  0  0  0  0  0
  1 25  1  0  0  0
  1 30  2  0  0  0
  1 87  1  0  0  0
  2  3  1  0  0  0
  2 25  1  0  0  0
  2 89  1  0  0  0
  2 90  1  0  0  0
  3  4  1  0  0  0
  3 91  1  0  0  0
  3 92  1  0  0  0
  4  5  1  0  0  0
  4 93  1  0  0  0
  4 94  1  0  0  0
  5  6  1  0  0  0
  5 26  1  0  0  0
  5 95  1  0  0  0
  6 25  1  0  0  0
  6 96  1  0  0  0
  6 97  1  0  0  0
  7  8  2  0  0  0
  7 26  1  0  0  0
  7 29  1  0  0  0
  8  9  1  0  0  0
  8 22  1  0  0  0
  9 10  1  0  0  0
  9 27  2  0  0  0
 10 11  2  0  0  0
 10 15  1  0  0  0
 11 12  1  0  0  0
 11 98  1  0  0  0
 12 13  2  0  0  0
 12 99  1  0  0  0
 13 14  1  0  0  0
 13 31  1  0  0  0
 14 15  2  0  0  0
 14100  1  0  0  0
 15101  1  0  0  0
 16 17  2  0  0  0
 16 21  1  0  0  0
 16 31  1  0  0  0
 17 18  1  0  0  0
 17102  1  0  0  0
 18 19  2  0  0  0
 18103  1  0  0  0
 19 20  1  0  0  0
 19 24  1  0  0  0
 20 21  2  0  0  0
 20104  1  0  0  0
 21 23  1  0  0  0
 22 28  1  0  0  0
 22 32  2  0  0  0
 26 27  1  0  0  0
 28105  1  0  0  0
 28106  1  0  0  0
 29107  1  0  0  0
 29108  1  0  0  0
 33 34  1  0  0  0
 33 66  1  0  0  0
 33 70  2  0  0  0
 34 36  1  0  0  0
 34 59  1  0  0  0
 34109  1  0  0  0
 35 44  2  0  0  0
 35 45  1  0  0  0
 35 68  1  0  0  0
 36 56  1  0  0  0
 36110  1  0  0  0
 37 39  1  0  0  0
 37 47  1  0  0  0
 37 66  1  0  0  0
 37111  1  0  0  0
 38 43  2  0  0  0
 38 46  1  0  0  0
 38 47  1  0  0  0
 39 64  1  0  0  0
 39 67  2  0  0  0
 40 52  1  0  0  0
 40 53  2  0  0  0
 40 58  1  0  0  0
 41112  1  0  0  0
 41113  1  0  0  0
 41114  1  0  0  0
 41 48  1  0  0  0
 42 43  1  0  0  0
 42 66  1  0  0  0
 42115  1  0  0  0
 42116  1  0  0  0
 43 44  1  0  0  0
 44117  1  0  0  0
 45 46  2  0  0  0
 45118  1  0  0  0
 46119  1  0  0  0
 47120  1  0  0  0
 47121  1  0  0  0
 48 56  1  0  0  0
 48 65  1  0  0  0
 48122  1  0  0  0
 49 50  1  0  0  0
 49 53  1  0  0  0
 49 64  1  0  0  0
 49123  1  0  0  0
 50 51  1  0  0  0
 50124  1  0  0  0
 50125  1  0  0  0
 51 52  1  0  0  0
 51126  1  0  0  0
 51127  1  0  0  0
 52128  1  0  0  0
 52129  1  0  0  0
 53 54  1  0  0  0
 54 55  2  0  0  0
 54130  1  0  0  0
 55 57  1  0  0  0
 55131  1  0  0  0
 56 69  2  0  0  0
 57 58  2  0  0  0
 57132  1  0  0  0
 58133  1  0  0  0
 59 60  1  0  0  0
 59 61  1  0  0  0
 59 62  1  0  0  0
 60134  1  0  0  0
 60135  1  0  0  0
 60136  1  0  0  0
 61137  1  0  0  0
 61138  1  0  0  0
 61139  1  0  0  0
 62140  1  0  0  0
 62141  1  0  0  0
 62142  1  0  0  0
 63 65  1  0  0  0
 63143  1  0  0  0
 63144  1  0  0  0
 63145  1  0  0  0
 64146  1  0  0  0
 65147  1  0  0  0
 68 86  1  0  0  0
 71 76  1  0  0  0
 71 77  1  0  0  0
 71148  1  0  0  0
 71149  1  0  0  0
 72 77  1  0  0  0
 72 78  1  0  0  0
 72150  1  0  0  0
 72151  1  0  0  0
 73 74  1  0  0  0
 73 88  1  0  0  0
 73152  1  0  0  0
 73153  1  0  0  0
 74 76  1  0  0  0
 74 79  1  0  0  0
 74154  1  0  0  0
 75 76  1  0  0  0
 75 78  1  0  0  0
 75 87  1  0  0  0
 75155  1  0  0  0
 76 80  1  0  0  0
 77 81  1  0  0  0
 77 82  1  0  0  0
 78 84  1  0  0  0
 78 88  1  0  0  0
 79156  1  0  0  0
 79157  1  0  0  0
 79158  1  0  0  0
 80159  1  0  0  0
 80160  1  0  0  0
 80161  1  0  0  0
 81162  1  0  0  0
 81163  1  0  0  0
 81164  1  0  0  0
 82165  1  0  0  0
 82166  1  0  0  0
 82167  1  0  0  0
 83 84  1  0  0  0
 83168  1  0  0  0
 83169  1  0  0  0
 83170  1  0  0  0
 84171  1  0  0  0
 84172  1  0  0  0
 85 86  1  0  0  0
 85173  1  0  0  0
 85174  1  0  0  0
 85 88  1  0  0  0
 86175  1  0  0  0
 86176  1  0  0  0
 87177  1  0  0  0
 88178  1  0  0  0
M  CHG  1  88   1
M  ISO  4   1 100  68 101  86 101  87 100
M  END
> <chiral flag>
0

> <version>
0

> <s_m_source_file>
/data/baiqing/PycharmProjects/Reinvent-master-3.2/result/LINK_invent/BTK/process_docking_weight1_custom_sum_contain_oxygen_bond_distance_aromatic_linkinvent_7_9_3/rearranged_h_0177.sdf

> <i_m_source_file_index>
73

> <r_mmod_Potential_Energy-OPLS-2005>
1452.90771484375

> <r_mmod_Stretch_Energy-OPLS-2005>
637.210388183594

> <r_mmod_Bend_Energy-OPLS-2005>
555.439086914062

> <r_mmod_Torsional_Energy-OPLS-2005>
358.853607177734

> <r_mmod_Improper_Torsional_Energy-OPLS-2005>
4.68923377990723

> <r_mmod_Van_der_Waal_Energy-OPLS-2005>
138.858169555664

> <r_mmod_Electrostatic_Energy-OPLS-2005>
-288.075469970703

> <r_mmod_Solvation_Energy-OPLS-2005>
-414.671905517578

> <b_mmod_Minimization_Converged-OPLS-2005>
0

> <r_mmod_RMS_Derivative-OPLS-2005>
0.530869960784912

$$$$
73
                    3D
 Structure written by MMmdl.
156165  0  0  1  0            999 V2000
  -30.4550  -15.3290   20.3740 C   0  0  0  0  0  0
  -30.4396  -12.8688   19.5193 C   0  0  0  0  0  0
  -29.5423  -12.5839   18.2920 C   0  0  0  0  0  0
  -28.1007  -12.2884   18.7330 C   0  0  0  0  0  0
  -27.6129  -13.2771   19.8190 C   0  0  2  0  0  0
  -28.6454  -13.5003   20.9460 C   0  0  0  0  0  0
  -25.2412  -13.8259   20.5713 C   0  0  0  0  0  0
  -24.1756  -13.0450   20.9224 C   0  0  0  0  0  0
  -24.6417  -11.6940   20.8765 C   0  0  0  0  0  0
  -23.9110  -10.4300   21.0397 C   0  0  0  0  0  0
  -24.3651   -9.4210   21.9182 C   0  0  0  0  0  0
  -23.6300   -8.2256   22.0774 C   0  0  0  0  0  0
  -22.4270   -8.0297   21.3562 C   0  0  0  0  0  0
  -21.9920   -9.0278   20.4655 C   0  0  0  0  0  0
  -22.7285  -10.2140   20.3042 C   0  0  0  0  0  0
  -21.6861   -6.0737   22.5274 C   0  0  0  0  0  0
  -21.4011   -6.5651   23.8201 C   0  0  0  0  0  0
  -21.3657   -5.6791   24.9170 C   0  0  0  0  0  0
  -21.6025   -4.3051   24.7210 C   0  0  0  0  0  0
  -21.8830   -3.8151   23.4336 C   0  0  0  0  0  0
  -21.9183   -4.6960   22.3401 C   0  0  0  0  0  0
  -22.7763  -13.5207   21.1860 C   0  0  0  0  0  0
  -22.1642   -4.2152   21.0969 F   0  0  0  0  0  0
  -21.5633   -3.4534   25.7726 F   0  0  0  0  0  0
  -29.8577  -14.0297   20.2959 N   0  0  0  0  0  0
  -26.2844  -12.9533   20.3211 N   0  0  0  0  0  0
  -25.9369  -11.6636   20.5729 N   0  0  0  0  0  0
  -22.0405  -12.8208   22.0394 N   0  0  0  0  0  0
  -25.4092  -15.1992   20.4164 N   0  0  0  0  0  0
  -31.6843  -15.2565   20.2075 O   0  0  0  0  0  0
  -21.6637   -6.8888   21.4246 O   0  0  0  0  0  0
  -22.3433  -14.5491   20.6667 O   0  0  0  0  0  0
  -24.6629  -31.8212   23.1665 C   0  0  0  0  0  0
  -25.9306  -32.4602   23.8149 C   0  0  1  0  0  0
  -27.2235  -26.8936   20.1894 C   0  0  0  0  0  0
  -25.6030  -33.8409   24.2084 N   0  0  0  0  0  0
  -23.4826  -30.4327   21.5121 C   0  0  2  0  0  0
  -24.9413  -28.8173   20.1030 C   0  0  0  0  0  0
  -22.7687  -29.4423   22.4685 C   0  0  0  0  0  0
  -18.0332  -28.1419   22.8484 C   0  0  0  0  0  0
  -24.1460  -36.7147   23.2653 C   0  0  0  0  0  0
  -26.0505  -30.6189   21.4013 C   0  0  0  0  0  0
  -26.1205  -29.2039   20.7534 C   0  0  0  0  0  0
  -27.2503  -28.2594   20.7797 C   0  0  0  0  0  0
  -26.0185  -26.6787   19.4805 C   0  0  0  0  0  0
  -24.9205  -27.5781   19.4436 C   0  0  0  0  0  0
  -23.7278  -29.7495   20.1361 C   0  0  0  0  0  0
  -25.4087  -36.2923   24.0318 C   0  0  1  0  0  0
  -20.5976  -28.3770   23.1167 C   0  0  2  0  0  0
  -20.6801  -26.9446   22.5390 C   0  0  0  0  0  0
  -19.5761  -26.6373   21.5222 C   0  0  0  0  0  0
  -18.1943  -26.7966   22.1608 C   0  0  0  0  0  0
  -19.1609  -28.8903   23.2824 C   0  0  0  0  0  0
  -18.9516  -30.1498   23.8856 C   0  0  0  0  0  0
  -17.6509  -30.6611   24.0562 C   0  0  0  0  0  0
  -25.9081  -34.9357   23.4980 C   0  0  0  0  0  0
  -16.5393  -29.9099   23.6364 C   0  0  0  0  0  0
  -16.7318  -28.6518   23.0387 C   0  0  0  0  0  0
  -26.4577  -31.6549   25.0682 C   0  0  0  0  0  0
  -25.3712  -31.3841   26.1349 C   0  0  0  0  0  0
  -27.0503  -30.2923   24.6413 C   0  0  0  0  0  0
  -27.6092  -32.4353   25.7466 C   0  0  0  0  0  0
  -27.5522  -37.1714   24.8470 C   0  0  0  0  0  0
  -21.4338  -29.3086   22.3528 N   0  0  0  0  0  0
  -26.4195  -37.3704   23.9483 N   0  0  0  0  0  0
  -24.7544  -30.9856   22.0818 N   0  0  0  0  0  0
  -23.4234  -28.7977   23.2920 O   0  0  0  0  0  0
  -28.1982  -25.7513   20.3060 O   0  0  0  0  0  0
  -26.5623  -34.8915   22.4546 O   0  0  0  0  0  0
  -23.5683  -32.1185   23.6747 O   0  0  0  0  0  0
  -29.1153  -20.5883   21.9403 C   0  0  0  0  0  0
  -29.2952  -19.5236   20.9767 C   0  0  0  0  0  0
  -28.8006  -21.9991   21.6500 C   0  0  0  0  0  0
  -29.1277  -20.0706   19.6915 C   0  0  0  0  0  0
  -28.6177  -22.5507   20.3230 C   0  0  0  0  0  0
  -29.5941  -17.8834   21.2957 C   0  0  0  0  0  0
  -30.0439  -17.5262   19.0282 C   0  0  0  0  0  0
  -29.2219  -18.9008   18.6373 C   0  0  2  0  0  0
  -28.6101  -22.9129   22.8510 C   0  0  0  0  0  0
  -29.7890  -19.4171   17.3010 C   0  0  0  0  0  0
  -27.9412  -24.1500   19.9166 C   0  0  0  0  0  0
  -28.7856  -21.4584   19.3977 N   0  0  0  0  0  0
  -29.7763  -16.6735   20.2617 N   0  0  0  0  0  0
  -31.4497  -13.0812   19.1681 H   0  0  0  0  0  0
  -30.5347  -11.9831   20.1495 H   0  0  0  0  0  0
  -29.9447  -11.7506   17.7136 H   0  0  0  0  0  0
  -29.5499  -13.4508   17.6293 H   0  0  0  0  0  0
  -28.0837  -11.2734   19.1309 H   0  0  0  0  0  0
  -27.4265  -12.2863   17.8776 H   0  0  0  0  0  0
  -27.5151  -14.2294   19.2978 H   0  0  0  0  0  0
  -28.8447  -12.5814   21.4983 H   0  0  0  0  0  0
  -28.2682  -14.2270   21.6669 H   0  0  0  0  0  0
  -25.2804   -9.5658   22.4746 H   0  0  0  0  0  0
  -23.9990   -7.4642   22.7510 H   0  0  0  0  0  0
  -21.0852   -8.8806   19.8968 H   0  0  0  0  0  0
  -22.3771  -10.9660   19.6122 H   0  0  0  0  0  0
  -21.2011   -7.6156   23.9707 H   0  0  0  0  0  0
  -21.1454   -6.0516   25.9054 H   0  0  0  0  0  0
  -22.0608   -2.7612   23.2826 H   0  0  0  0  0  0
  -22.4004  -11.9891   22.4809 H   0  0  0  0  0  0
  -21.1021  -13.1230   22.2575 H   0  0  0  0  0  0
  -24.6504  -15.8594   20.5453 H   0  0  0  0  0  0
  -26.2665  -15.6402   20.1100 H   0  0  0  0  0  0
  -26.7376  -32.5125   23.0844 H   0  0  0  0  0  0
  -25.0410  -33.9545   25.0396 H   0  0  0  0  0  0
  -22.7998  -31.2670   21.3351 H   0  0  0  0  0  0
  -23.3770  -35.9434   23.3245 H   0  0  0  0  0  0
  -24.3587  -36.8835   22.2092 H   0  0  0  0  0  0
  -23.7153  -37.6298   23.6727 H   0  0  0  0  0  0
  -26.2226  -31.3526   20.6124 H   0  0  0  0  0  0
  -26.9153  -30.6911   22.0506 H   0  0  0  0  0  0
  -28.1281  -28.5486   21.3421 H   0  0  0  0  0  0
  -25.8830  -25.7372   18.9717 H   0  0  0  0  0  0
  -24.0320  -27.2863   18.9032 H   0  0  0  0  0  0
  -23.8872  -30.5190   19.3776 H   0  0  0  0  0  0
  -22.8405  -29.2045   19.8101 H   0  0  0  0  0  0
  -25.1274  -36.1678   25.0809 H   0  0  0  0  0  0
  -21.0079  -28.3332   24.1275 H   0  0  0  0  0  0
  -20.5669  -26.2395   23.3638 H   0  0  0  0  0  0
  -21.6658  -26.7408   22.1183 H   0  0  0  0  0  0
  -19.6925  -25.6265   21.1280 H   0  0  0  0  0  0
  -19.6687  -27.3173   20.6738 H   0  0  0  0  0  0
  -17.4221  -26.6769   21.3993 H   0  0  0  0  0  0
  -18.0286  -26.0099   22.8982 H   0  0  0  0  0  0
  -19.7998  -30.7342   24.2173 H   0  0  0  0  0  0
  -17.5080  -31.6309   24.5137 H   0  0  0  0  0  0
  -15.5398  -30.3001   23.7748 H   0  0  0  0  0  0
  -15.8698  -28.0843   22.7121 H   0  0  0  0  0  0
  -24.5859  -30.7239   25.7648 H   0  0  0  0  0  0
  -24.8957  -32.3088   26.4646 H   0  0  0  0  0  0
  -25.7927  -30.9060   27.0192 H   0  0  0  0  0  0
  -26.3193  -29.6600   24.1357 H   0  0  0  0  0  0
  -27.4015  -29.7298   25.5062 H   0  0  0  0  0  0
  -27.9130  -30.4172   23.9871 H   0  0  0  0  0  0
  -27.2711  -33.3767   26.1816 H   0  0  0  0  0  0
  -28.4010  -32.6703   25.0348 H   0  0  0  0  0  0
  -28.0614  -31.8598   26.5543 H   0  0  0  0  0  0
  -28.2445  -38.0094   24.7585 H   0  0  0  0  0  0
  -28.1059  -36.2611   24.6112 H   0  0  0  0  0  0
  -27.2297  -37.1164   25.8888 H   0  0  0  0  0  0
  -20.9549  -29.8869   21.6754 H   0  0  0  0  0  0
  -25.9973  -38.2714   24.1619 H   0  0  0  0  0  0
  -29.1885  -20.3052   22.9792 H   0  0  0  0  0  0
  -28.7769  -17.5723   21.9458 H   0  0  0  0  0  0
  -30.4755  -17.8603   21.9389 H   0  0  0  0  0  0
  -31.0988  -17.8039   19.0914 H   0  0  0  0  0  0
  -29.9808  -16.8451   18.1769 H   0  0  0  0  0  0
  -28.1901  -18.6058   18.4441 H   0  0  0  0  0  0
  -29.3592  -22.7016   23.6145 H   0  0  0  0  0  0
  -27.6264  -22.7607   23.2986 H   0  0  0  0  0  0
  -28.7125  -23.9651   22.5876 H   0  0  0  0  0  0
  -30.8204  -19.7548   17.4045 H   0  0  0  0  0  0
  -29.2084  -20.2539   16.9163 H   0  0  0  0  0  0
  -29.7643  -18.6408   16.5342 H   0  0  0  0  0  0
  -26.8851  -24.0108   20.1400 H   0  0  0  0  0  0
  -27.9834  -24.1619   18.8276 H   0  0  0  0  0  0
  1 25  1  0  0  0
  1 30  2  0  0  0
  1 83  1  0  0  0
  2  3  1  0  0  0
  2 25  1  0  0  0
  2 84  1  0  0  0
  2 85  1  0  0  0
  3  4  1  0  0  0
  3 86  1  0  0  0
  3 87  1  0  0  0
  4  5  1  0  0  0
  4 88  1  0  0  0
  4 89  1  0  0  0
  5  6  1  0  0  0
  5 26  1  0  0  0
  5 90  1  0  0  0
  6 25  1  0  0  0
  6 91  1  0  0  0
  6 92  1  0  0  0
  7  8  2  0  0  0
  7 26  1  0  0  0
  7 29  1  0  0  0
  8  9  1  0  0  0
  8 22  1  0  0  0
  9 10  1  0  0  0
  9 27  2  0  0  0
 10 11  2  0  0  0
 10 15  1  0  0  0
 11 12  1  0  0  0
 11 93  1  0  0  0
 12 13  2  0  0  0
 12 94  1  0  0  0
 13 14  1  0  0  0
 13 31  1  0  0  0
 14 15  2  0  0  0
 14 95  1  0  0  0
 15 96  1  0  0  0
 16 17  2  0  0  0
 16 21  1  0  0  0
 16 31  1  0  0  0
 17 18  1  0  0  0
 17 97  1  0  0  0
 18 19  2  0  0  0
 18 98  1  0  0  0
 19 20  1  0  0  0
 19 24  1  0  0  0
 20 21  2  0  0  0
 20 99  1  0  0  0
 21 23  1  0  0  0
 22 28  1  0  0  0
 22 32  2  0  0  0
 26 27  1  0  0  0
 28100  1  0  0  0
 28101  1  0  0  0
 29102  1  0  0  0
 29103  1  0  0  0
 33 34  1  0  0  0
 33 66  1  0  0  0
 33 70  2  0  0  0
 34 36  1  0  0  0
 34 59  1  0  0  0
 34104  1  0  0  0
 35 44  2  0  0  0
 35 45  1  0  0  0
 35 68  1  0  0  0
 36 56  1  0  0  0
 36105  1  0  0  0
 37 39  1  0  0  0
 37 47  1  0  0  0
 37 66  1  0  0  0
 37106  1  0  0  0
 38 43  2  0  0  0
 38 46  1  0  0  0
 38 47  1  0  0  0
 39 64  1  0  0  0
 39 67  2  0  0  0
 40 52  1  0  0  0
 40 53  2  0  0  0
 40 58  1  0  0  0
 41107  1  0  0  0
 41108  1  0  0  0
 41109  1  0  0  0
 41 48  1  0  0  0
 42 43  1  0  0  0
 42 66  1  0  0  0
 42110  1  0  0  0
 42111  1  0  0  0
 43 44  1  0  0  0
 44112  1  0  0  0
 45 46  2  0  0  0
 45113  1  0  0  0
 46114  1  0  0  0
 47115  1  0  0  0
 47116  1  0  0  0
 48 56  1  0  0  0
 48 65  1  0  0  0
 48117  1  0  0  0
 49 50  1  0  0  0
 49 53  1  0  0  0
 49 64  1  0  0  0
 49118  1  0  0  0
 50 51  1  0  0  0
 50119  1  0  0  0
 50120  1  0  0  0
 51 52  1  0  0  0
 51121  1  0  0  0
 51122  1  0  0  0
 52123  1  0  0  0
 52124  1  0  0  0
 53 54  1  0  0  0
 54 55  2  0  0  0
 54125  1  0  0  0
 55 57  1  0  0  0
 55126  1  0  0  0
 56 69  2  0  0  0
 57 58  2  0  0  0
 57127  1  0  0  0
 58128  1  0  0  0
 59 60  1  0  0  0
 59 61  1  0  0  0
 59 62  1  0  0  0
 60129  1  0  0  0
 60130  1  0  0  0
 60131  1  0  0  0
 61132  1  0  0  0
 61133  1  0  0  0
 61134  1  0  0  0
 62135  1  0  0  0
 62136  1  0  0  0
 62137  1  0  0  0
 63 65  1  0  0  0
 63138  1  0  0  0
 63139  1  0  0  0
 63140  1  0  0  0
 64141  1  0  0  0
 65142  1  0  0  0
 68 81  1  0  0  0
 71 72  2  0  0  0
 71 73  1  0  0  0
 71143  1  0  0  0
 72 74  1  0  0  0
 72 76  1  0  0  0
 73 75  2  0  0  0
 73 79  1  0  0  0
 74 78  1  0  0  0
 74 82  2  0  0  0
 75 81  1  0  0  0
 75 82  1  0  0  0
 76 83  1  0  0  0
 76144  1  0  0  0
 76145  1  0  0  0
 77 78  1  0  0  0
 77 83  1  0  0  0
 77146  1  0  0  0
 77147  1  0  0  0
 78 80  1  0  0  0
 78148  1  0  0  0
 79149  1  0  0  0
 79150  1  0  0  0
 79151  1  0  0  0
 80152  1  0  0  0
 80153  1  0  0  0
 80154  1  0  0  0
 81155  1  0  0  0
 81156  1  0  0  0
M  ISO  4   1 100  68 101  81 101  83 100
M  END
> <chiral flag>
0

> <version>
0

> <s_m_source_file>
/data/baiqing/PycharmProjects/Reinvent-master-3.2/result/LINK_invent/BTK/process_docking_weight1_custom_sum_contain_oxygen_bond_distance_aromatic_linkinvent_7_9_3/rearranged_h_0177.sdf

> <i_m_source_file_index>
74

> <r_mmod_Potential_Energy-OPLS-2005>
1370.65344238281

> <r_mmod_Stretch_Energy-OPLS-2005>
557.753845214844

> <r_mmod_Bend_Energy-OPLS-2005>
475.688293457031

> <r_mmod_Torsional_Energy-OPLS-2005>
302.972930908203

> <r_mmod_Improper_Torsional_Energy-OPLS-2005>
17.0618724822998

> <r_mmod_Van_der_Waal_Energy-OPLS-2005>
130.127777099609

> <r_mmod_Electrostatic_Energy-OPLS-2005>
-420.1591796875

> <r_mmod_Solvation_Energy-OPLS-2005>
-216.040328979492

> <b_mmod_Minimization_Converged-OPLS-2005>
0

> <r_mmod_RMS_Derivative-OPLS-2005>
5.01586627960205

$$$$
74
                    3D
 Structure written by MMmdl.
167176  0  0  1  0            999 V2000
  -30.7132  -14.5042   20.5102 C   0  0  0  0  0  0
  -30.4060  -12.3091   19.4415 C   0  0  0  0  0  0
  -29.4901  -12.4763   18.2123 C   0  0  0  0  0  0
  -28.0092  -12.3500   18.6219 C   0  0  0  0  0  0
  -27.6444  -13.2118   19.8619 C   0  0  2  0  0  0
  -28.6909  -13.0653   20.9889 C   0  0  0  0  0  0
  -25.2512  -13.8148   20.5709 C   0  0  0  0  0  0
  -24.1782  -13.0417   20.9208 C   0  0  0  0  0  0
  -24.6348  -11.6886   20.8748 C   0  0  0  0  0  0
  -23.9018  -10.4283   21.0403 C   0  0  0  0  0  0
  -24.3587   -9.4203   21.9178 C   0  0  0  0  0  0
  -23.6274   -8.2232   22.0749 C   0  0  0  0  0  0
  -22.4256   -8.0269   21.3548 C   0  0  0  0  0  0
  -21.9886   -9.0236   20.4642 C   0  0  0  0  0  0
  -22.7198  -10.2121   20.3043 C   0  0  0  0  0  0
  -21.6852   -6.0732   22.5296 C   0  0  0  0  0  0
  -21.4013   -6.5643   23.8232 C   0  0  0  0  0  0
  -21.3658   -5.6798   24.9198 C   0  0  0  0  0  0
  -21.6039   -4.3060   24.7242 C   0  0  0  0  0  0
  -21.8812   -3.8149   23.4363 C   0  0  0  0  0  0
  -21.9189   -4.6963   22.3419 C   0  0  0  0  0  0
  -22.7807  -13.5208   21.1897 C   0  0  0  0  0  0
  -22.1651   -4.2150   21.0997 F   0  0  0  0  0  0
  -21.5624   -3.4542   25.7753 F   0  0  0  0  0  0
  -30.0142  -13.3405   20.4143 N   0  0  0  0  0  0
  -26.2932  -12.9322   20.3343 N   0  0  0  0  0  0
  -25.9266  -11.6475   20.5753 N   0  0  0  0  0  0
  -22.0451  -12.8185   22.0445 N   0  0  0  0  0  0
  -25.4235  -15.1872   20.4145 N   0  0  0  0  0  0
  -31.8987  -14.5850   20.1735 O   0  0  0  0  0  0
  -21.6628   -6.8861   21.4250 O   0  0  0  0  0  0
  -22.3485  -14.5527   20.6779 O   0  0  0  0  0  0
  -24.6154  -31.8669   23.2065 C   0  0  0  0  0  0
  -25.9053  -32.4806   23.8368 C   0  0  1  0  0  0
  -27.2374  -27.4183   20.1091 C   0  0  0  0  0  0
  -25.5917  -33.8608   24.2308 N   0  0  0  0  0  0
  -23.4033  -30.4882   21.5458 C   0  0  2  0  0  0
  -24.8500  -28.9477   20.1110 C   0  0  0  0  0  0
  -22.7410  -29.4660   22.4977 C   0  0  0  0  0  0
  -18.0273  -28.1378   22.8488 C   0  0  0  0  0  0
  -24.1494  -36.7298   23.2639 C   0  0  0  0  0  0
  -25.9307  -30.8270   21.3608 C   0  0  0  0  0  0
  -26.0059  -29.4587   20.7116 C   0  0  0  0  0  0
  -27.1969  -28.7001   20.7075 C   0  0  0  0  0  0
  -26.0643  -26.9229   19.4971 C   0  0  0  0  0  0
  -24.8751  -27.6805   19.5001 C   0  0  0  0  0  0
  -23.6104  -29.8143   20.1611 C   0  0  0  0  0  0
  -25.4114  -36.3102   24.0337 C   0  0  1  0  0  0
  -20.5865  -28.3669   23.1306 C   0  0  2  0  0  0
  -20.6768  -26.9404   22.5414 C   0  0  0  0  0  0
  -19.5748  -26.6385   21.5212 C   0  0  0  0  0  0
  -18.1923  -26.7927   22.1614 C   0  0  0  0  0  0
  -19.1525  -28.8838   23.2896 C   0  0  0  0  0  0
  -18.9457  -30.1446   23.8905 C   0  0  0  0  0  0
  -17.6462  -30.6586   24.0564 C   0  0  0  0  0  0
  -25.9044  -34.9472   23.5119 C   0  0  0  0  0  0
  -16.5348  -29.9088   23.6333 C   0  0  0  0  0  0
  -16.7265  -28.6504   23.0350 C   0  0  0  0  0  0
  -26.4477  -31.6593   25.0704 C   0  0  0  0  0  0
  -25.3735  -31.3687   26.1442 C   0  0  0  0  0  0
  -27.0317  -30.3043   24.6084 C   0  0  0  0  0  0
  -27.6065  -32.4306   25.7455 C   0  0  0  0  0  0
  -27.5583  -37.1800   24.8463 C   0  0  0  0  0  0
  -21.4140  -29.3038   22.3712 N   0  0  0  0  0  0
  -26.4295  -37.3791   23.9411 N   0  0  0  0  0  0
  -24.6678  -31.0766   22.0960 N   0  0  0  0  0  0
  -23.4182  -28.8225   23.3039 O   0  0  0  0  0  0
  -28.4280  -26.7185   20.1629 O   0  0  0  0  0  0
  -26.5605  -34.8925   22.4676 O   0  0  0  0  0  0
  -23.5347  -32.1424   23.7464 O   0  0  0  0  0  0
  -29.9315  -20.9642   19.8330 C   0  0  0  0  0  0
  -29.2824  -22.3327   19.5447 C   0  0  0  0  0  0
  -27.7705  -21.8580   21.5357 C   0  0  0  0  0  0
  -28.8510  -17.6560   19.6242 C   0  0  0  0  0  0
  -27.8250  -20.4388   20.8914 C   0  0  0  0  0  0
  -29.6581  -16.3481   19.4549 C   0  0  0  0  0  0
  -30.5609  -16.5716   21.7447 C   0  0  0  0  0  0
  -28.6257  -22.9379   20.8053 C   0  0  2  0  0  0
  -29.7829  -17.9089   21.9565 C   0  0  1  0  0  0
  -29.5977  -18.5964   20.5768 C   0  0  2  0  0  0
  -28.5033  -17.6648   22.7804 C   0  0  0  0  0  0
  -27.8432  -24.2748   20.5692 C   0  0  0  0  0  0
  -28.5477  -25.3608   19.7036 C   0  0  0  0  0  0
  -29.1870  -20.0357   20.4955 N   0  0  0  0  0  0
  -30.0031  -15.6492   20.7194 N   0  0  0  0  0  0
  -31.0785  -20.7643   19.4201 O   0  0  0  0  0  0
  -31.4543  -12.3813   19.1468 H   0  0  0  0  0  0
  -30.2876  -11.3166   19.8796 H   0  0  0  0  0  0
  -29.7327  -11.7252   17.4594 H   0  0  0  0  0  0
  -29.6662  -13.4455   17.7435 H   0  0  0  0  0  0
  -27.8166  -11.2978   18.8328 H   0  0  0  0  0  0
  -27.3632  -12.6093   17.7824 H   0  0  0  0  0  0
  -27.6525  -14.2464   19.5301 H   0  0  0  0  0  0
  -28.6691  -12.0559   21.4025 H   0  0  0  0  0  0
  -28.4650  -13.7419   21.8149 H   0  0  0  0  0  0
  -25.2737   -9.5697   22.4743 H   0  0  0  0  0  0
  -24.0010   -7.4620   22.7446 H   0  0  0  0  0  0
  -21.0833   -8.8728   19.8933 H   0  0  0  0  0  0
  -22.3649  -10.9650   19.6142 H   0  0  0  0  0  0
  -21.1996   -7.6152   23.9737 H   0  0  0  0  0  0
  -21.1485   -6.0529   25.9101 H   0  0  0  0  0  0
  -22.0582   -2.7608   23.2868 H   0  0  0  0  0  0
  -22.4060  -11.9830   22.4814 H   0  0  0  0  0  0
  -21.1046  -13.1175   22.2638 H   0  0  0  0  0  0
  -24.6628  -15.8463   20.5371 H   0  0  0  0  0  0
  -26.2929  -15.6285   20.1443 H   0  0  0  0  0  0
  -26.7125  -32.5505   23.1132 H   0  0  0  0  0  0
  -25.0120  -33.9772   25.0487 H   0  0  0  0  0  0
  -22.6930  -31.3055   21.4039 H   0  0  0  0  0  0
  -23.3764  -35.9624   23.3307 H   0  0  0  0  0  0
  -24.3591  -36.8903   22.2053 H   0  0  0  0  0  0
  -23.7238  -37.6500   23.6647 H   0  0  0  0  0  0
  -26.0471  -31.5915   20.5911 H   0  0  0  0  0  0
  -26.8180  -30.8799   21.9800 H   0  0  0  0  0  0
  -28.0889  -29.0912   21.1769 H   0  0  0  0  0  0
  -26.0517  -25.9558   19.0181 H   0  0  0  0  0  0
  -23.9863  -27.2824   19.0302 H   0  0  0  0  0  0
  -23.7110  -30.5851   19.3958 H   0  0  0  0  0  0
  -22.7346  -29.2296   19.8718 H   0  0  0  0  0  0
  -25.1293  -36.1962   25.0831 H   0  0  0  0  0  0
  -20.9961  -28.3245   24.1424 H   0  0  0  0  0  0
  -20.5676  -26.2284   23.3610 H   0  0  0  0  0  0
  -21.6638  -26.7452   22.1201 H   0  0  0  0  0  0
  -19.6915  -25.6299   21.1238 H   0  0  0  0  0  0
  -19.6685  -27.3199   20.6747 H   0  0  0  0  0  0
  -17.4198  -26.6689   21.4009 H   0  0  0  0  0  0
  -18.0311  -26.0058   22.8996 H   0  0  0  0  0  0
  -19.7938  -30.7264   24.2268 H   0  0  0  0  0  0
  -17.5018  -31.6268   24.5166 H   0  0  0  0  0  0
  -15.5353  -30.2995   23.7655 H   0  0  0  0  0  0
  -15.8663  -28.0835   22.7055 H   0  0  0  0  0  0
  -24.5942  -30.6996   25.7767 H   0  0  0  0  0  0
  -24.8877  -32.2828   26.4870 H   0  0  0  0  0  0
  -25.8083  -30.8876   27.0212 H   0  0  0  0  0  0
  -26.2858  -29.6787   24.1167 H   0  0  0  0  0  0
  -27.4128  -29.7295   25.4535 H   0  0  0  0  0  0
  -27.8672  -30.4370   23.9208 H   0  0  0  0  0  0
  -27.2717  -33.3617   26.2038 H   0  0  0  0  0  0
  -28.3867  -32.6844   25.0265 H   0  0  0  0  0  0
  -28.0745  -31.8421   26.5356 H   0  0  0  0  0  0
  -28.2599  -38.0103   24.7537 H   0  0  0  0  0  0
  -28.1086  -36.2638   24.6259 H   0  0  0  0  0  0
  -27.2304  -37.1409   25.8868 H   0  0  0  0  0  0
  -20.9315  -29.8732   21.6898 H   0  0  0  0  0  0
  -26.0184  -38.2868   24.1418 H   0  0  0  0  0  0
  -28.5444  -22.2065   18.7515 H   0  0  0  0  0  0
  -30.0483  -23.0010   19.1516 H   0  0  0  0  0  0
  -28.1091  -21.7883   22.5708 H   0  0  0  0  0  0
  -26.7284  -22.1752   21.5978 H   0  0  0  0  0  0
  -27.8410  -17.4506   19.9794 H   0  0  0  0  0  0
  -28.7363  -18.1287   18.6471 H   0  0  0  0  0  0
  -27.2104  -20.4350   19.9896 H   0  0  0  0  0  0
  -27.3544  -19.7133   21.5471 H   0  0  0  0  0  0
  -30.5844  -16.5836   18.9248 H   0  0  0  0  0  0
  -29.1159  -15.6819   18.7843 H   0  0  0  0  0  0
  -30.6410  -16.0393   22.6951 H   0  0  0  0  0  0
  -31.5891  -16.8177   21.4689 H   0  0  0  0  0  0
  -29.4533  -23.1849   21.4734 H   0  0  0  0  0  0
  -30.4212  -18.5543   22.5626 H   0  0  0  0  0  0
  -30.6177  -18.5820   20.1899 H   0  0  0  0  0  0
  -27.7141  -17.1902   22.1995 H   0  0  0  0  0  0
  -28.1166  -18.5890   23.2042 H   0  0  0  0  0  0
  -28.7050  -17.0108   23.6295 H   0  0  0  0  0  0
  -27.6122  -24.7034   21.5453 H   0  0  0  0  0  0
  -26.8780  -24.0535   20.1150 H   0  0  0  0  0  0
  -28.2554  -25.2761   18.6562 H   0  0  0  0  0  0
  -29.6209  -25.1726   19.7178 H   0  0  0  0  0  0
  1 25  1  0  0  0
  1 30  2  0  0  0
  1 85  1  0  0  0
  2  3  1  0  0  0
  2 25  1  0  0  0
  2 87  1  0  0  0
  2 88  1  0  0  0
  3  4  1  0  0  0
  3 89  1  0  0  0
  3 90  1  0  0  0
  4  5  1  0  0  0
  4 91  1  0  0  0
  4 92  1  0  0  0
  5  6  1  0  0  0
  5 26  1  0  0  0
  5 93  1  0  0  0
  6 25  1  0  0  0
  6 94  1  0  0  0
  6 95  1  0  0  0
  7  8  2  0  0  0
  7 26  1  0  0  0
  7 29  1  0  0  0
  8  9  1  0  0  0
  8 22  1  0  0  0
  9 10  1  0  0  0
  9 27  2  0  0  0
 10 11  2  0  0  0
 10 15  1  0  0  0
 11 12  1  0  0  0
 11 96  1  0  0  0
 12 13  2  0  0  0
 12 97  1  0  0  0
 13 14  1  0  0  0
 13 31  1  0  0  0
 14 15  2  0  0  0
 14 98  1  0  0  0
 15 99  1  0  0  0
 16 17  2  0  0  0
 16 21  1  0  0  0
 16 31  1  0  0  0
 17 18  1  0  0  0
 17100  1  0  0  0
 18 19  2  0  0  0
 18101  1  0  0  0
 19 20  1  0  0  0
 19 24  1  0  0  0
 20 21  2  0  0  0
 20102  1  0  0  0
 21 23  1  0  0  0
 22 28  1  0  0  0
 22 32  2  0  0  0
 26 27  1  0  0  0
 28103  1  0  0  0
 28104  1  0  0  0
 29105  1  0  0  0
 29106  1  0  0  0
 33 34  1  0  0  0
 33 66  1  0  0  0
 33 70  2  0  0  0
 34 36  1  0  0  0
 34 59  1  0  0  0
 34107  1  0  0  0
 35 44  2  0  0  0
 35 45  1  0  0  0
 35 68  1  0  0  0
 36 56  1  0  0  0
 36108  1  0  0  0
 37 39  1  0  0  0
 37 47  1  0  0  0
 37 66  1  0  0  0
 37109  1  0  0  0
 38 43  2  0  0  0
 38 46  1  0  0  0
 38 47  1  0  0  0
 39 64  1  0  0  0
 39 67  2  0  0  0
 40 52  1  0  0  0
 40 53  2  0  0  0
 40 58  1  0  0  0
 41110  1  0  0  0
 41111  1  0  0  0
 41112  1  0  0  0
 41 48  1  0  0  0
 42 43  1  0  0  0
 42 66  1  0  0  0
 42113  1  0  0  0
 42114  1  0  0  0
 43 44  1  0  0  0
 44115  1  0  0  0
 45 46  2  0  0  0
 45116  1  0  0  0
 46117  1  0  0  0
 47118  1  0  0  0
 47119  1  0  0  0
 48 56  1  0  0  0
 48 65  1  0  0  0
 48120  1  0  0  0
 49 50  1  0  0  0
 49 53  1  0  0  0
 49 64  1  0  0  0
 49121  1  0  0  0
 50 51  1  0  0  0
 50122  1  0  0  0
 50123  1  0  0  0
 51 52  1  0  0  0
 51124  1  0  0  0
 51125  1  0  0  0
 52126  1  0  0  0
 52127  1  0  0  0
 53 54  1  0  0  0
 54 55  2  0  0  0
 54128  1  0  0  0
 55 57  1  0  0  0
 55129  1  0  0  0
 56 69  2  0  0  0
 57 58  2  0  0  0
 57130  1  0  0  0
 58131  1  0  0  0
 59 60  1  0  0  0
 59 61  1  0  0  0
 59 62  1  0  0  0
 60132  1  0  0  0
 60133  1  0  0  0
 60134  1  0  0  0
 61135  1  0  0  0
 61136  1  0  0  0
 61137  1  0  0  0
 62138  1  0  0  0
 62139  1  0  0  0
 62140  1  0  0  0
 63 65  1  0  0  0
 63141  1  0  0  0
 63142  1  0  0  0
 63143  1  0  0  0
 64144  1  0  0  0
 65145  1  0  0  0
 68 83  1  0  0  0
 71 72  1  0  0  0
 71 84  1  0  0  0
 71 86  2  0  0  0
 72 78  1  0  0  0
 72146  1  0  0  0
 72147  1  0  0  0
 73 75  1  0  0  0
 73 78  1  0  0  0
 73148  1  0  0  0
 73149  1  0  0  0
 74 76  1  0  0  0
 74 80  1  0  0  0
 74150  1  0  0  0
 74151  1  0  0  0
 75 84  1  0  0  0
 75152  1  0  0  0
 75153  1  0  0  0
 76 85  1  0  0  0
 76154  1  0  0  0
 76155  1  0  0  0
 77 79  1  0  0  0
 77 85  1  0  0  0
 77156  1  0  0  0
 77157  1  0  0  0
 78 82  1  0  0  0
 78158  1  0  0  0
 79 80  1  0  0  0
 79 81  1  0  0  0
 79159  1  0  0  0
 80 84  1  0  0  0
 80160  1  0  0  0
 81161  1  0  0  0
 81162  1  0  0  0
 81163  1  0  0  0
 82 83  1  0  0  0
 82164  1  0  0  0
 82165  1  0  0  0
 83166  1  0  0  0
 83167  1  0  0  0
M  ISO  4   1 100  68 101  83 101  85 100
M  END
> <chiral flag>
0

> <version>
0

> <s_m_source_file>
/data/baiqing/PycharmProjects/Reinvent-master-3.2/result/LINK_invent/BTK/process_docking_weight1_custom_sum_contain_oxygen_bond_distance_aromatic_linkinvent_7_9_3/rearranged_h_0177.sdf

> <i_m_source_file_index>
75

> <r_mmod_Potential_Energy-OPLS-2005>
308.90087890625

> <r_mmod_Stretch_Energy-OPLS-2005>
50.2764854431152

> <r_mmod_Bend_Energy-OPLS-2005>
152.438171386719

> <r_mmod_Torsional_Energy-OPLS-2005>
401.175354003906

> <r_mmod_Improper_Torsional_Energy-OPLS-2005>
11.4085683822632

> <r_mmod_Van_der_Waal_Energy-OPLS-2005>
152.563049316406

> <r_mmod_Electrostatic_Energy-OPLS-2005>
-275.896789550781

> <r_mmod_Solvation_Energy-OPLS-2005>
-205.987457275391

> <b_mmod_Minimization_Converged-OPLS-2005>
0

> <r_mmod_RMS_Derivative-OPLS-2005>
1.57589995861053

$$$$
75
                    3D
 Structure written by MMmdl.
159168  0  0  1  0            999 V2000
  -30.3875  -15.4306   20.3657 C   0  0  0  0  0  0
  -30.4432  -12.9403   19.5249 C   0  0  0  0  0  0
  -29.5440  -12.6263   18.2986 C   0  0  0  0  0  0
  -28.0975  -12.3219   18.7239 C   0  0  0  0  0  0
  -27.6169  -13.2829   19.8380 C   0  0  2  0  0  0
  -28.6600  -13.4628   20.9627 C   0  0  0  0  0  0
  -25.2413  -13.8245   20.5787 C   0  0  0  0  0  0
  -24.1751  -13.0437   20.9255 C   0  0  0  0  0  0
  -24.6419  -11.6934   20.8762 C   0  0  0  0  0  0
  -23.9115  -10.4295   21.0414 C   0  0  0  0  0  0
  -24.3648   -9.4213   21.9203 C   0  0  0  0  0  0
  -23.6311   -8.2256   22.0787 C   0  0  0  0  0  0
  -22.4295   -8.0295   21.3566 C   0  0  0  0  0  0
  -21.9934   -9.0267   20.4667 C   0  0  0  0  0  0
  -22.7280  -10.2144   20.3074 C   0  0  0  0  0  0
  -21.6878   -6.0730   22.5271 C   0  0  0  0  0  0
  -21.4033   -6.5627   23.8204 C   0  0  0  0  0  0
  -21.3672   -5.6779   24.9164 C   0  0  0  0  0  0
  -21.6048   -4.3040   24.7212 C   0  0  0  0  0  0
  -21.8843   -3.8143   23.4332 C   0  0  0  0  0  0
  -21.9208   -4.6959   22.3388 C   0  0  0  0  0  0
  -22.7779  -13.5214   21.1886 C   0  0  0  0  0  0
  -22.1677   -4.2140   21.0969 F   0  0  0  0  0  0
  -21.5632   -3.4535   25.7733 F   0  0  0  0  0  0
  -29.8425  -14.0888   20.3254 N   0  0  0  0  0  0
  -26.2862  -12.9542   20.3330 N   0  0  0  0  0  0
  -25.9371  -11.6636   20.5775 N   0  0  0  0  0  0
  -22.0426  -12.8196   22.0435 N   0  0  0  0  0  0
  -25.4054  -15.1982   20.4239 N   0  0  0  0  0  0
  -31.5995  -15.3875   20.0928 O   0  0  0  0  0  0
  -21.6671   -6.8884   21.4242 O   0  0  0  0  0  0
  -22.3468  -14.5519   20.6742 O   0  0  0  0  0  0
  -24.6730  -31.8127   23.1602 C   0  0  0  0  0  0
  -25.9370  -32.4528   23.8118 C   0  0  1  0  0  0
  -27.2299  -26.8473   20.1729 C   0  0  0  0  0  0
  -25.6006  -33.8354   24.2050 N   0  0  0  0  0  0
  -23.4910  -30.4197   21.5104 C   0  0  2  0  0  0
  -24.9452  -28.7878   20.1027 C   0  0  0  0  0  0
  -22.7712  -29.4382   22.4740 C   0  0  0  0  0  0
  -18.0339  -28.1412   22.8469 C   0  0  0  0  0  0
  -24.1478  -36.7166   23.2664 C   0  0  0  0  0  0
  -26.0633  -30.5890   21.4000 C   0  0  0  0  0  0
  -26.1288  -29.1704   20.7461 C   0  0  0  0  0  0
  -27.2563  -28.2183   20.7645 C   0  0  0  0  0  0
  -26.0185  -26.6384   19.4725 C   0  0  0  0  0  0
  -24.9189  -27.5425   19.4478 C   0  0  0  0  0  0
  -23.7316  -29.7248   20.1393 C   0  0  0  0  0  0
  -25.4117  -36.2944   24.0330 C   0  0  1  0  0  0
  -20.5967  -28.3758   23.1175 C   0  0  2  0  0  0
  -20.6799  -26.9428   22.5398 C   0  0  0  0  0  0
  -19.5769  -26.6375   21.5208 C   0  0  0  0  0  0
  -18.1957  -26.7955   22.1612 C   0  0  0  0  0  0
  -19.1599  -28.8905   23.2807 C   0  0  0  0  0  0
  -18.9505  -30.1501   23.8835 C   0  0  0  0  0  0
  -17.6493  -30.6602   24.0555 C   0  0  0  0  0  0
  -25.9097  -34.9330   23.5012 C   0  0  0  0  0  0
  -16.5383  -29.9074   23.6362 C   0  0  0  0  0  0
  -16.7318  -28.6496   23.0375 C   0  0  0  0  0  0
  -26.4591  -31.6502   25.0680 C   0  0  0  0  0  0
  -25.3682  -31.3695   26.1295 C   0  0  0  0  0  0
  -27.0545  -30.2888   24.6456 C   0  0  0  0  0  0
  -27.6087  -32.4317   25.7454 C   0  0  0  0  0  0
  -27.5569  -37.1728   24.8485 C   0  0  0  0  0  0
  -21.4372  -29.3023   22.3500 N   0  0  0  0  0  0
  -26.4257  -37.3692   23.9459 N   0  0  0  0  0  0
  -24.7652  -30.9714   22.0763 N   0  0  0  0  0  0
  -23.4223  -28.7977   23.3031 O   0  0  0  0  0  0
  -28.2158  -25.7050   20.3207 O   0  0  0  0  0  0
  -26.5707  -34.8896   22.4616 O   0  0  0  0  0  0
  -23.5784  -32.1128   23.6638 O   0  0  0  0  0  0
  -27.0951  -20.6326   21.4360 C   0  0  0  0  0  0
  -27.9301  -19.5551   21.0253 C   0  0  0  0  0  0
  -27.3086  -22.0095   21.1071 C   0  0  0  0  0  0
  -29.0710  -19.8187   20.2737 C   0  0  0  0  0  0
  -28.3990  -22.4461   20.3086 C   0  0  0  0  0  0
  -27.5480  -18.0885   21.3238 C   0  0  0  0  0  0
  -28.6762  -17.0003   21.5284 C   0  0  0  0  0  0
  -29.9928  -18.3579   19.9631 C   0  0  2  0  0  0
  -26.2741  -23.0219   21.5713 C   0  0  0  0  0  0
  -29.5057  -17.5807   17.5158 C   0  0  0  0  0  0
  -28.3419  -24.1366   19.6983 C   0  0  0  0  0  0
  -30.4406  -18.3346   18.4797 C   0  0  0  0  0  0
  -29.2533  -21.2697   19.9361 N   0  0  0  0  0  0
  -29.6611  -16.7763   20.4394 N   0  0  0  0  0  0
  -31.4405  -13.1880   19.1635 H   0  0  0  0  0  0
  -30.5897  -12.0523   20.1426 H   0  0  0  0  0  0
  -29.9536  -11.7887   17.7333 H   0  0  0  0  0  0
  -29.5454  -13.4853   17.6250 H   0  0  0  0  0  0
  -28.0642  -11.2933   19.0844 H   0  0  0  0  0  0
  -27.4279  -12.3680   17.8639 H   0  0  0  0  0  0
  -27.5246  -14.2518   19.3466 H   0  0  0  0  0  0
  -28.8989  -12.5033   21.4252 H   0  0  0  0  0  0
  -28.2725  -14.0601   21.7824 H   0  0  0  0  0  0
  -25.2781   -9.5697   22.4789 H   0  0  0  0  0  0
  -24.0015   -7.4645   22.7504 H   0  0  0  0  0  0
  -21.0878   -8.8773   19.8954 H   0  0  0  0  0  0
  -22.3732  -10.9677   19.6181 H   0  0  0  0  0  0
  -21.2038   -7.6139   23.9702 H   0  0  0  0  0  0
  -21.1474   -6.0513   25.9060 H   0  0  0  0  0  0
  -22.0625   -2.7607   23.2833 H   0  0  0  0  0  0
  -22.4037  -11.9820   22.4734 H   0  0  0  0  0  0
  -21.1080  -13.1282   22.2706 H   0  0  0  0  0  0
  -24.6366  -15.8493   20.5412 H   0  0  0  0  0  0
  -26.2432  -15.6311   20.0563 H   0  0  0  0  0  0
  -26.7466  -32.5040   23.0854 H   0  0  0  0  0  0
  -25.0180  -33.9395   25.0226 H   0  0  0  0  0  0
  -22.8120  -31.2556   21.3335 H   0  0  0  0  0  0
  -23.3789  -35.9438   23.3230 H   0  0  0  0  0  0
  -24.3579  -36.8888   22.2096 H   0  0  0  0  0  0
  -23.7156  -37.6306   23.6754 H   0  0  0  0  0  0
  -26.2573  -31.3208   20.6141 H   0  0  0  0  0  0
  -26.9208  -30.6497   22.0581 H   0  0  0  0  0  0
  -28.1420  -28.5017   21.3150 H   0  0  0  0  0  0
  -25.8731  -25.6874   18.9817 H   0  0  0  0  0  0
  -24.0192  -27.2472   18.9263 H   0  0  0  0  0  0
  -23.8835  -30.4890   19.3767 H   0  0  0  0  0  0
  -22.8379  -29.1813   19.8263 H   0  0  0  0  0  0
  -25.1297  -36.1735   25.0814 H   0  0  0  0  0  0
  -21.0069  -28.3358   24.1293 H   0  0  0  0  0  0
  -20.5668  -26.2364   23.3637 H   0  0  0  0  0  0
  -21.6665  -26.7382   22.1203 H   0  0  0  0  0  0
  -19.6917  -25.6267   21.1276 H   0  0  0  0  0  0
  -19.6726  -27.3151   20.6707 H   0  0  0  0  0  0
  -17.4228  -26.6738   21.4005 H   0  0  0  0  0  0
  -18.0338  -26.0099   22.9004 H   0  0  0  0  0  0
  -19.7969  -30.7357   24.2155 H   0  0  0  0  0  0
  -17.5024  -31.6272   24.5173 H   0  0  0  0  0  0
  -15.5371  -30.2937   23.7716 H   0  0  0  0  0  0
  -15.8728  -28.0780   22.7115 H   0  0  0  0  0  0
  -24.5965  -30.6950   25.7554 H   0  0  0  0  0  0
  -24.8744  -32.2836   26.4584 H   0  0  0  0  0  0
  -25.7898  -30.8955   27.0165 H   0  0  0  0  0  0
  -26.3259  -29.6513   24.1442 H   0  0  0  0  0  0
  -27.4071  -29.7302   25.5137 H   0  0  0  0  0  0
  -27.9176  -30.4109   23.9910 H   0  0  0  0  0  0
  -27.2746  -33.3761   26.1753 H   0  0  0  0  0  0
  -28.4011  -32.6625   25.0320 H   0  0  0  0  0  0
  -28.0617  -31.8600   26.5561 H   0  0  0  0  0  0
  -28.2525  -38.0085   24.7626 H   0  0  0  0  0  0
  -28.1127  -36.2629   24.6185 H   0  0  0  0  0  0
  -27.2317  -37.1208   25.8890 H   0  0  0  0  0  0
  -20.9642  -29.8697   21.6610 H   0  0  0  0  0  0
  -26.0103  -38.2742   24.1498 H   0  0  0  0  0  0
  -26.2116  -20.3820   22.0063 H   0  0  0  0  0  0
  -26.8894  -17.7665   20.5171 H   0  0  0  0  0  0
  -26.9198  -18.0915   22.2168 H   0  0  0  0  0  0
  -28.1466  -16.0814   21.7448 H   0  0  0  0  0  0
  -29.2390  -17.2312   22.4346 H   0  0  0  0  0  0
  -30.9048  -18.5745   20.5221 H   0  0  0  0  0  0
  -25.6241  -22.6053   22.3427 H   0  0  0  0  0  0
  -25.6473  -23.3354   20.7352 H   0  0  0  0  0  0
  -26.7527  -23.9074   21.9896 H   0  0  0  0  0  0
  -29.8831  -17.6417   16.4940 H   0  0  0  0  0  0
  -28.4968  -17.9958   17.5230 H   0  0  0  0  0  0
  -29.4336  -16.5199   17.7565 H   0  0  0  0  0  0
  -27.5833  -24.1036   18.9167 H   0  0  0  0  0  0
  -29.2736  -24.1946   19.1359 H   0  0  0  0  0  0
  -31.4206  -17.8586   18.4182 H   0  0  0  0  0  0
  -30.5997  -19.3542   18.1257 H   0  0  0  0  0  0
  1 25  1  0  0  0
  1 30  2  0  0  0
  1 84  1  0  0  0
  2  3  1  0  0  0
  2 25  1  0  0  0
  2 85  1  0  0  0
  2 86  1  0  0  0
  3  4  1  0  0  0
  3 87  1  0  0  0
  3 88  1  0  0  0
  4  5  1  0  0  0
  4 89  1  0  0  0
  4 90  1  0  0  0
  5  6  1  0  0  0
  5 26  1  0  0  0
  5 91  1  0  0  0
  6 25  1  0  0  0
  6 92  1  0  0  0
  6 93  1  0  0  0
  7  8  2  0  0  0
  7 26  1  0  0  0
  7 29  1  0  0  0
  8  9  1  0  0  0
  8 22  1  0  0  0
  9 10  1  0  0  0
  9 27  2  0  0  0
 10 11  2  0  0  0
 10 15  1  0  0  0
 11 12  1  0  0  0
 11 94  1  0  0  0
 12 13  2  0  0  0
 12 95  1  0  0  0
 13 14  1  0  0  0
 13 31  1  0  0  0
 14 15  2  0  0  0
 14 96  1  0  0  0
 15 97  1  0  0  0
 16 17  2  0  0  0
 16 21  1  0  0  0
 16 31  1  0  0  0
 17 18  1  0  0  0
 17 98  1  0  0  0
 18 19  2  0  0  0
 18 99  1  0  0  0
 19 20  1  0  0  0
 19 24  1  0  0  0
 20 21  2  0  0  0
 20100  1  0  0  0
 21 23  1  0  0  0
 22 28  1  0  0  0
 22 32  2  0  0  0
 26 27  1  0  0  0
 28101  1  0  0  0
 28102  1  0  0  0
 29103  1  0  0  0
 29104  1  0  0  0
 33 34  1  0  0  0
 33 66  1  0  0  0
 33 70  2  0  0  0
 34 36  1  0  0  0
 34 59  1  0  0  0
 34105  1  0  0  0
 35 44  2  0  0  0
 35 45  1  0  0  0
 35 68  1  0  0  0
 36 56  1  0  0  0
 36106  1  0  0  0
 37 39  1  0  0  0
 37 47  1  0  0  0
 37 66  1  0  0  0
 37107  1  0  0  0
 38 43  2  0  0  0
 38 46  1  0  0  0
 38 47  1  0  0  0
 39 64  1  0  0  0
 39 67  2  0  0  0
 40 52  1  0  0  0
 40 53  2  0  0  0
 40 58  1  0  0  0
 41108  1  0  0  0
 41109  1  0  0  0
 41110  1  0  0  0
 41 48  1  0  0  0
 42 43  1  0  0  0
 42 66  1  0  0  0
 42111  1  0  0  0
 42112  1  0  0  0
 43 44  1  0  0  0
 44113  1  0  0  0
 45 46  2  0  0  0
 45114  1  0  0  0
 46115  1  0  0  0
 47116  1  0  0  0
 47117  1  0  0  0
 48 56  1  0  0  0
 48 65  1  0  0  0
 48118  1  0  0  0
 49 50  1  0  0  0
 49 53  1  0  0  0
 49 64  1  0  0  0
 49119  1  0  0  0
 50 51  1  0  0  0
 50120  1  0  0  0
 50121  1  0  0  0
 51 52  1  0  0  0
 51122  1  0  0  0
 51123  1  0  0  0
 52124  1  0  0  0
 52125  1  0  0  0
 53 54  1  0  0  0
 54 55  2  0  0  0
 54126  1  0  0  0
 55 57  1  0  0  0
 55127  1  0  0  0
 56 69  2  0  0  0
 57 58  2  0  0  0
 57128  1  0  0  0
 58129  1  0  0  0
 59 60  1  0  0  0
 59 61  1  0  0  0
 59 62  1  0  0  0
 60130  1  0  0  0
 60131  1  0  0  0
 60132  1  0  0  0
 61133  1  0  0  0
 61134  1  0  0  0
 61135  1  0  0  0
 62136  1  0  0  0
 62137  1  0  0  0
 62138  1  0  0  0
 63 65  1  0  0  0
 63139  1  0  0  0
 63140  1  0  0  0
 63141  1  0  0  0
 64142  1  0  0  0
 65143  1  0  0  0
 68 81  1  0  0  0
 71 72  2  0  0  0
 71 73  1  0  0  0
 71144  1  0  0  0
 72 74  1  0  0  0
 72 76  1  0  0  0
 73 75  2  0  0  0
 73 79  1  0  0  0
 74 78  1  0  0  0
 74 83  2  0  0  0
 75 81  1  0  0  0
 75 83  1  0  0  0
 76 77  1  0  0  0
 76145  1  0  0  0
 76146  1  0  0  0
 77 84  1  0  0  0
 77147  1  0  0  0
 77148  1  0  0  0
 78 82  1  0  0  0
 78 84  1  0  0  0
 78149  1  0  0  0
 79150  1  0  0  0
 79151  1  0  0  0
 79152  1  0  0  0
 80 82  1  0  0  0
 80153  1  0  0  0
 80154  1  0  0  0
 80155  1  0  0  0
 81156  1  0  0  0
 81157  1  0  0  0
 82158  1  0  0  0
 82159  1  0  0  0
M  ISO  4   1 100  68 101  81 101  84 100
M  END
> <chiral flag>
0

> <version>
0

> <s_m_source_file>
/data/baiqing/PycharmProjects/Reinvent-master-3.2/result/LINK_invent/BTK/process_docking_weight1_custom_sum_contain_oxygen_bond_distance_aromatic_linkinvent_7_9_3/rearranged_h_0177.sdf

> <i_m_source_file_index>
76

> <r_mmod_Potential_Energy-OPLS-2005>
1606.08178710938

> <r_mmod_Stretch_Energy-OPLS-2005>
718.096374511719

> <r_mmod_Bend_Energy-OPLS-2005>
522.661437988281

> <r_mmod_Torsional_Energy-OPLS-2005>
291.758911132812

> <r_mmod_Improper_Torsional_Energy-OPLS-2005>
9.90614318847656

> <r_mmod_Van_der_Waal_Energy-OPLS-2005>
120.858909606934

> <r_mmod_Electrostatic_Energy-OPLS-2005>
-447.896209716797

> <r_mmod_Solvation_Energy-OPLS-2005>
-220.693405151367

> <b_mmod_Minimization_Converged-OPLS-2005>
0

> <r_mmod_RMS_Derivative-OPLS-2005>
2.98452425003052

$$$$
76
                    3D
 Structure written by MMmdl.
153162  0  0  1  0            999 V2000
  -30.5780  -15.1470   20.4058 C   0  0  0  0  0  0
  -30.4101  -12.7390   19.5146 C   0  0  0  0  0  0
  -29.5138  -12.5679   18.2697 C   0  0  0  0  0  0
  -28.0590  -12.3222   18.6951 C   0  0  0  0  0  0
  -27.6074  -13.2819   19.8255 C   0  0  2  0  0  0
  -28.6493  -13.4518   20.9542 C   0  0  0  0  0  0
  -25.2334  -13.8254   20.5778 C   0  0  0  0  0  0
  -24.1692  -13.0422   20.9274 C   0  0  0  0  0  0
  -24.6379  -11.6942   20.8781 C   0  0  0  0  0  0
  -23.9094  -10.4289   21.0434 C   0  0  0  0  0  0
  -24.3641   -9.4199   21.9209 C   0  0  0  0  0  0
  -23.6309   -8.2225   22.0760 C   0  0  0  0  0  0
  -22.4278   -8.0278   21.3550 C   0  0  0  0  0  0
  -21.9933   -9.0250   20.4639 C   0  0  0  0  0  0
  -22.7270  -10.2132   20.3069 C   0  0  0  0  0  0
  -21.6840   -6.0730   22.5285 C   0  0  0  0  0  0
  -21.4014   -6.5645   23.8218 C   0  0  0  0  0  0
  -21.3664   -5.6812   24.9188 C   0  0  0  0  0  0
  -21.6039   -4.3069   24.7242 C   0  0  0  0  0  0
  -21.8818   -3.8147   23.4368 C   0  0  0  0  0  0
  -21.9180   -4.6955   22.3413 C   0  0  0  0  0  0
  -22.7719  -13.5172   21.1898 C   0  0  0  0  0  0
  -22.1644   -4.2142   21.0986 F   0  0  0  0  0  0
  -21.5621   -3.4555   25.7755 F   0  0  0  0  0  0
  -29.8899  -13.9107   20.3112 N   0  0  0  0  0  0
  -26.2786  -12.9553   20.3272 N   0  0  0  0  0  0
  -25.9325  -11.6651   20.5763 N   0  0  0  0  0  0
  -22.0390  -12.8150   22.0465 N   0  0  0  0  0  0
  -25.3946  -15.1972   20.4206 N   0  0  0  0  0  0
  -31.7943  -15.0121   20.2155 O   0  0  0  0  0  0
  -21.6629   -6.8875   21.4250 O   0  0  0  0  0  0
  -22.3396  -14.5474   20.6758 O   0  0  0  0  0  0
  -24.6558  -31.8316   23.1778 C   0  0  0  0  0  0
  -25.9275  -32.4629   23.8209 C   0  0  1  0  0  0
  -27.2172  -27.0113   20.1673 C   0  0  0  0  0  0
  -25.5984  -33.8438   24.2116 N   0  0  0  0  0  0
  -23.4653  -30.4452   21.5268 C   0  0  2  0  0  0
  -24.9174  -28.8527   20.1107 C   0  0  0  0  0  0
  -22.7627  -29.4479   22.4830 C   0  0  0  0  0  0
  -18.0314  -28.1399   22.8478 C   0  0  0  0  0  0
  -24.1487  -36.7214   23.2638 C   0  0  0  0  0  0
  -26.0299  -30.6649   21.3961 C   0  0  0  0  0  0
  -26.0996  -29.2637   20.7391 C   0  0  0  0  0  0
  -27.2476  -28.3614   20.7489 C   0  0  0  0  0  0
  -26.0085  -26.7388   19.4875 C   0  0  0  0  0  0
  -24.8923  -27.6076   19.4677 C   0  0  0  0  0  0
  -23.6977  -29.7662   20.1510 C   0  0  0  0  0  0
  -25.4127  -36.2990   24.0303 C   0  0  1  0  0  0
  -20.5934  -28.3738   23.1216 C   0  0  2  0  0  0
  -20.6789  -26.9427   22.5409 C   0  0  0  0  0  0
  -19.5760  -26.6374   21.5216 C   0  0  0  0  0  0
  -18.1942  -26.7939   22.1628 C   0  0  0  0  0  0
  -19.1571  -28.8888   23.2828 C   0  0  0  0  0  0
  -18.9489  -30.1485   23.8848 C   0  0  0  0  0  0
  -17.6482  -30.6595   24.0553 C   0  0  0  0  0  0
  -25.9092  -34.9371   23.5027 C   0  0  0  0  0  0
  -16.5370  -29.9082   23.6352 C   0  0  0  0  0  0
  -16.7297  -28.6501   23.0374 C   0  0  0  0  0  0
  -26.4557  -31.6545   25.0707 C   0  0  0  0  0  0
  -25.3704  -31.3778   26.1383 C   0  0  0  0  0  0
  -27.0441  -30.2923   24.6378 C   0  0  0  0  0  0
  -27.6058  -32.4347   25.7504 C   0  0  0  0  0  0
  -27.5585  -37.1753   24.8453 C   0  0  0  0  0  0
  -21.4301  -29.3043   22.3567 N   0  0  0  0  0  0
  -26.4270  -37.3731   23.9426 N   0  0  0  0  0  0
  -24.7374  -31.0053   22.0876 N   0  0  0  0  0  0
  -23.4212  -28.8039   23.3033 O   0  0  0  0  0  0
  -28.2188  -25.9322   20.2542 O   0  0  0  0  0  0
  -26.5680  -34.8896   22.4615 O   0  0  0  0  0  0
  -23.5654  -32.1249   23.6928 O   0  0  0  0  0  0
  -28.0868  -21.5265   20.1803 C   0  0  0  0  0  0
  -30.7423  -21.6558   20.4252 C   0  0  0  0  0  0
  -28.8160  -20.2198   20.2316 C   0  0  0  0  0  0
  -30.2110  -20.3220   20.3196 C   0  0  0  0  0  0
  -28.6838  -22.8932   20.2446 C   0  0  0  0  0  0
  -28.2349  -18.7186   19.9781 C   0  0  0  0  0  0
  -31.1070  -19.0352   20.0893 C   0  0  0  0  0  0
  -28.6856  -17.2266   20.6352 C   0  0  0  0  0  0
  -30.9659  -17.6859   20.9576 C   0  0  0  0  0  0
  -27.8595  -24.3805   20.0025 C   0  0  0  0  0  0
  -30.0425  -22.8545   20.3907 N   0  0  0  0  0  0
  -30.0619  -16.5322   20.5256 N   0  0  0  0  0  0
  -31.4434  -12.8757   19.1900 H   0  0  0  0  0  0
  -30.4113  -11.8264   20.1130 H   0  0  0  0  0  0
  -29.8670  -11.7458   17.6457 H   0  0  0  0  0  0
  -29.5735  -13.4678   17.6546 H   0  0  0  0  0  0
  -27.9846  -11.2884   19.0331 H   0  0  0  0  0  0
  -27.3950  -12.4184   17.8347 H   0  0  0  0  0  0
  -27.5260  -14.2537   19.3392 H   0  0  0  0  0  0
  -28.7934  -12.5248   21.5113 H   0  0  0  0  0  0
  -28.3122  -14.1985   21.6757 H   0  0  0  0  0  0
  -25.2793   -9.5663   22.4787 H   0  0  0  0  0  0
  -24.0023   -7.4620   22.7483 H   0  0  0  0  0  0
  -21.0870   -8.8773   19.8940 H   0  0  0  0  0  0
  -22.3744  -10.9672   19.6172 H   0  0  0  0  0  0
  -21.2026   -7.6160   23.9715 H   0  0  0  0  0  0
  -21.1489   -6.0549   25.9089 H   0  0  0  0  0  0
  -22.0596   -2.7602   23.2888 H   0  0  0  0  0  0
  -22.4049  -11.9834   22.4863 H   0  0  0  0  0  0
  -21.0974  -13.1109   22.2651 H   0  0  0  0  0  0
  -24.6273  -15.8488   20.5383 H   0  0  0  0  0  0
  -26.2409  -15.6338   20.0808 H   0  0  0  0  0  0
  -26.7340  -32.5187   23.0923 H   0  0  0  0  0  0
  -25.0132  -33.9512   25.0270 H   0  0  0  0  0  0
  -22.7745  -31.2761   21.3630 H   0  0  0  0  0  0
  -23.3785  -35.9509   23.3238 H   0  0  0  0  0  0
  -24.3573  -36.8924   22.2068 H   0  0  0  0  0  0
  -23.7200  -37.6364   23.6733 H   0  0  0  0  0  0
  -26.1994  -31.4101   20.6177 H   0  0  0  0  0  0
  -26.8933  -30.7179   22.0468 H   0  0  0  0  0  0
  -28.1396  -28.6718   21.2748 H   0  0  0  0  0  0
  -25.8816  -25.7906   18.9874 H   0  0  0  0  0  0
  -23.9930  -27.2850   18.9599 H   0  0  0  0  0  0
  -23.8392  -30.5339   19.3899 H   0  0  0  0  0  0
  -22.8101  -29.2112   19.8428 H   0  0  0  0  0  0
  -25.1317  -36.1786   25.0791 H   0  0  0  0  0  0
  -21.0014  -28.3342   24.1336 H   0  0  0  0  0  0
  -20.5687  -26.2350   23.3638 H   0  0  0  0  0  0
  -21.6654  -26.7416   22.1207 H   0  0  0  0  0  0
  -19.6913  -25.6278   21.1271 H   0  0  0  0  0  0
  -19.6692  -27.3167   20.6733 H   0  0  0  0  0  0
  -17.4214  -26.6698   21.4023 H   0  0  0  0  0  0
  -18.0318  -26.0084   22.9023 H   0  0  0  0  0  0
  -19.7958  -30.7324   24.2184 H   0  0  0  0  0  0
  -17.5032  -31.6273   24.5163 H   0  0  0  0  0  0
  -15.5367  -30.2971   23.7689 H   0  0  0  0  0  0
  -15.8697  -28.0794   22.7125 H   0  0  0  0  0  0
  -24.5906  -30.7092   25.7722 H   0  0  0  0  0  0
  -24.8868  -32.2971   26.4692 H   0  0  0  0  0  0
  -25.7969  -30.9047   27.0236 H   0  0  0  0  0  0
  -26.3099  -29.6624   24.1344 H   0  0  0  0  0  0
  -27.3966  -29.7254   25.5002 H   0  0  0  0  0  0
  -27.9039  -30.4126   23.9783 H   0  0  0  0  0  0
  -27.2636  -33.3705   26.1929 H   0  0  0  0  0  0
  -28.3943  -32.6809   25.0380 H   0  0  0  0  0  0
  -28.0634  -31.8568   26.5537 H   0  0  0  0  0  0
  -28.2525  -38.0126   24.7610 H   0  0  0  0  0  0
  -28.1157  -36.2663   24.6148 H   0  0  0  0  0  0
  -27.2308  -37.1235   25.8849 H   0  0  0  0  0  0
  -20.9537  -29.8737   21.6700 H   0  0  0  0  0  0
  -26.0118  -38.2771   24.1517 H   0  0  0  0  0  0
  -27.0150  -21.4822   20.0280 H   0  0  0  0  0  0
  -31.8160  -21.7802   20.4800 H   0  0  0  0  0  0
  -28.2617  -18.5964   18.8952 H   0  0  0  0  0  0
  -27.1711  -18.8138   20.1996 H   0  0  0  0  0  0
  -32.1358  -19.3801   20.2179 H   0  0  0  0  0  0
  -31.0452  -18.7757   19.0305 H   0  0  0  0  0  0
  -27.9767  -16.5026   20.2365 H   0  0  0  0  0  0
  -28.4511  -17.2650   21.7015 H   0  0  0  0  0  0
  -30.7335  -17.9646   21.9888 H   0  0  0  0  0  0
  -31.9820  -17.2944   21.0425 H   0  0  0  0  0  0
  -26.8872  -24.2271   20.4712 H   0  0  0  0  0  0
  -27.6574  -24.3489   18.9319 H   0  0  0  0  0  0
  1 25  1  0  0  0
  1 30  2  0  0  0
  1 82  1  0  0  0
  2  3  1  0  0  0
  2 25  1  0  0  0
  2 83  1  0  0  0
  2 84  1  0  0  0
  3  4  1  0  0  0
  3 85  1  0  0  0
  3 86  1  0  0  0
  4  5  1  0  0  0
  4 87  1  0  0  0
  4 88  1  0  0  0
  5  6  1  0  0  0
  5 26  1  0  0  0
  5 89  1  0  0  0
  6 25  1  0  0  0
  6 90  1  0  0  0
  6 91  1  0  0  0
  7  8  2  0  0  0
  7 26  1  0  0  0
  7 29  1  0  0  0
  8  9  1  0  0  0
  8 22  1  0  0  0
  9 10  1  0  0  0
  9 27  2  0  0  0
 10 11  2  0  0  0
 10 15  1  0  0  0
 11 12  1  0  0  0
 11 92  1  0  0  0
 12 13  2  0  0  0
 12 93  1  0  0  0
 13 14  1  0  0  0
 13 31  1  0  0  0
 14 15  2  0  0  0
 14 94  1  0  0  0
 15 95  1  0  0  0
 16 17  2  0  0  0
 16 21  1  0  0  0
 16 31  1  0  0  0
 17 18  1  0  0  0
 17 96  1  0  0  0
 18 19  2  0  0  0
 18 97  1  0  0  0
 19 20  1  0  0  0
 19 24  1  0  0  0
 20 21  2  0  0  0
 20 98  1  0  0  0
 21 23  1  0  0  0
 22 28  1  0  0  0
 22 32  2  0  0  0
 26 27  1  0  0  0
 28 99  1  0  0  0
 28100  1  0  0  0
 29101  1  0  0  0
 29102  1  0  0  0
 33 34  1  0  0  0
 33 66  1  0  0  0
 33 70  2  0  0  0
 34 36  1  0  0  0
 34 59  1  0  0  0
 34103  1  0  0  0
 35 44  2  0  0  0
 35 45  1  0  0  0
 35 68  1  0  0  0
 36 56  1  0  0  0
 36104  1  0  0  0
 37 39  1  0  0  0
 37 47  1  0  0  0
 37 66  1  0  0  0
 37105  1  0  0  0
 38 43  2  0  0  0
 38 46  1  0  0  0
 38 47  1  0  0  0
 39 64  1  0  0  0
 39 67  2  0  0  0
 40 52  1  0  0  0
 40 53  2  0  0  0
 40 58  1  0  0  0
 41106  1  0  0  0
 41107  1  0  0  0
 41108  1  0  0  0
 41 48  1  0  0  0
 42 43  1  0  0  0
 42 66  1  0  0  0
 42109  1  0  0  0
 42110  1  0  0  0
 43 44  1  0  0  0
 44111  1  0  0  0
 45 46  2  0  0  0
 45112  1  0  0  0
 46113  1  0  0  0
 47114  1  0  0  0
 47115  1  0  0  0
 48 56  1  0  0  0
 48 65  1  0  0  0
 48116  1  0  0  0
 49 50  1  0  0  0
 49 53  1  0  0  0
 49 64  1  0  0  0
 49117  1  0  0  0
 50 51  1  0  0  0
 50118  1  0  0  0
 50119  1  0  0  0
 51 52  1  0  0  0
 51120  1  0  0  0
 51121  1  0  0  0
 52122  1  0  0  0
 52123  1  0  0  0
 53 54  1  0  0  0
 54 55  2  0  0  0
 54124  1  0  0  0
 55 57  1  0  0  0
 55125  1  0  0  0
 56 69  2  0  0  0
 57 58  2  0  0  0
 57126  1  0  0  0
 58127  1  0  0  0
 59 60  1  0  0  0
 59 61  1  0  0  0
 59 62  1  0  0  0
 60128  1  0  0  0
 60129  1  0  0  0
 60130  1  0  0  0
 61131  1  0  0  0
 61132  1  0  0  0
 61133  1  0  0  0
 62134  1  0  0  0
 62135  1  0  0  0
 62136  1  0  0  0
 63 65  1  0  0  0
 63137  1  0  0  0
 63138  1  0  0  0
 63139  1  0  0  0
 64140  1  0  0  0
 65141  1  0  0  0
 68 80  1  0  0  0
 71 73  2  0  0  0
 71 75  1  0  0  0
 71142  1  0  0  0
 72 74  2  0  0  0
 72 81  1  0  0  0
 72143  1  0  0  0
 73 74  1  0  0  0
 73 76  1  0  0  0
 74 77  1  0  0  0
 75 80  1  0  0  0
 75 81  2  0  0  0
 76 78  1  0  0  0
 76144  1  0  0  0
 76145  1  0  0  0
 77 79  1  0  0  0
 77146  1  0  0  0
 77147  1  0  0  0
 78 82  1  0  0  0
 78148  1  0  0  0
 78149  1  0  0  0
 79 82  1  0  0  0
 79150  1  0  0  0
 79151  1  0  0  0
 80152  1  0  0  0
 80153  1  0  0  0
M  ISO  4   1 100  68 101  80 101  82 100
M  END
> <chiral flag>
0

> <version>
0

> <s_m_source_file>
/data/baiqing/PycharmProjects/Reinvent-master-3.2/result/LINK_invent/BTK/process_docking_weight1_custom_sum_contain_oxygen_bond_distance_aromatic_linkinvent_7_9_3/rearranged_h_0177.sdf

> <i_m_source_file_index>
77

> <r_mmod_Potential_Energy-OPLS-2005>
944.417541503906

> <r_mmod_Stretch_Energy-OPLS-2005>
380.222869873047

> <r_mmod_Bend_Energy-OPLS-2005>
414.104278564453

> <r_mmod_Torsional_Energy-OPLS-2005>
304.165924072266

> <r_mmod_Improper_Torsional_Energy-OPLS-2005>
6.60592126846313

> <r_mmod_Van_der_Waal_Energy-OPLS-2005>
137.693588256836

> <r_mmod_Electrostatic_Energy-OPLS-2005>
-409.393524169922

> <r_mmod_Solvation_Energy-OPLS-2005>
-232.873199462891

> <b_mmod_Minimization_Converged-OPLS-2005>
0

> <r_mmod_RMS_Derivative-OPLS-2005>
2.94445848464966

$$$$
77
                    3D
 Structure written by MMmdl.
156165  0  0  1  0            999 V2000
  -30.4287  -15.2038   20.3794 C   0  0  0  0  0  0
  -30.4474  -12.7591   19.5275 C   0  0  0  0  0  0
  -29.5379  -12.5725   18.2858 C   0  0  0  0  0  0
  -28.0812  -12.3076   18.7070 C   0  0  0  0  0  0
  -27.6202  -13.2668   19.8327 C   0  0  2  0  0  0
  -28.6555  -13.3901   20.9718 C   0  0  0  0  0  0
  -25.2421  -13.8233   20.5734 C   0  0  0  0  0  0
  -24.1762  -13.0434   20.9250 C   0  0  0  0  0  0
  -24.6404  -11.6928   20.8759 C   0  0  0  0  0  0
  -23.9092  -10.4291   21.0406 C   0  0  0  0  0  0
  -24.3636   -9.4206   21.9185 C   0  0  0  0  0  0
  -23.6303   -8.2245   22.0756 C   0  0  0  0  0  0
  -22.4285   -8.0284   21.3545 C   0  0  0  0  0  0
  -21.9926   -9.0260   20.4648 C   0  0  0  0  0  0
  -22.7262  -10.2135   20.3056 C   0  0  0  0  0  0
  -21.6855   -6.0739   22.5279 C   0  0  0  0  0  0
  -21.4016   -6.5641   23.8213 C   0  0  0  0  0  0
  -21.3660   -5.6793   24.9174 C   0  0  0  0  0  0
  -21.6043   -4.3056   24.7224 C   0  0  0  0  0  0
  -21.8819   -3.8148   23.4345 C   0  0  0  0  0  0
  -21.9194   -4.6966   22.3401 C   0  0  0  0  0  0
  -22.7781  -13.5197   21.1896 C   0  0  0  0  0  0
  -22.1662   -4.2151   21.0979 F   0  0  0  0  0  0
  -21.5628   -3.4539   25.7737 F   0  0  0  0  0  0
  -29.9012  -13.8856   20.3643 N   0  0  0  0  0  0
  -26.2850  -12.9493   20.3231 N   0  0  0  0  0  0
  -25.9340  -11.6606   20.5725 N   0  0  0  0  0  0
  -22.0435  -12.8180   22.0447 N   0  0  0  0  0  0
  -25.4060  -15.1967   20.4157 N   0  0  0  0  0  0
  -31.6354  -15.2550   20.0936 O   0  0  0  0  0  0
  -21.6645   -6.8884   21.4241 O   0  0  0  0  0  0
  -22.3464  -14.5500   20.6736 O   0  0  0  0  0  0
  -24.6584  -31.8266   23.1727 C   0  0  0  0  0  0
  -25.9284  -32.4600   23.8182 C   0  0  1  0  0  0
  -27.2235  -26.9696   20.1802 C   0  0  0  0  0  0
  -25.5968  -33.8414   24.2088 N   0  0  0  0  0  0
  -23.4716  -30.4378   21.5206 C   0  0  2  0  0  0
  -24.9259  -28.8309   20.1100 C   0  0  0  0  0  0
  -22.7647  -29.4450   22.4794 C   0  0  0  0  0  0
  -18.0319  -28.1401   22.8467 C   0  0  0  0  0  0
  -24.1496  -36.7214   23.2647 C   0  0  0  0  0  0
  -26.0373  -30.6465   21.3969 C   0  0  0  0  0  0
  -26.1064  -29.2401   20.7419 C   0  0  0  0  0  0
  -27.2493  -28.3287   20.7542 C   0  0  0  0  0  0
  -26.0169  -26.7016   19.4969 C   0  0  0  0  0  0
  -24.9042  -27.5814   19.4679 C   0  0  0  0  0  0
  -23.7089  -29.7527   20.1463 C   0  0  0  0  0  0
  -25.4134  -36.2972   24.0300 C   0  0  1  0  0  0
  -20.5940  -28.3742   23.1196 C   0  0  2  0  0  0
  -20.6794  -26.9427   22.5402 C   0  0  0  0  0  0
  -19.5771  -26.6374   21.5210 C   0  0  0  0  0  0
  -18.1953  -26.7936   22.1619 C   0  0  0  0  0  0
  -19.1579  -28.8892   23.2819 C   0  0  0  0  0  0
  -18.9490  -30.1483   23.8853 C   0  0  0  0  0  0
  -17.6485  -30.6592   24.0552 C   0  0  0  0  0  0
  -25.9095  -34.9355   23.5013 C   0  0  0  0  0  0
  -16.5376  -29.9079   23.6339 C   0  0  0  0  0  0
  -16.7302  -28.6498   23.0360 C   0  0  0  0  0  0
  -26.4554  -31.6537   25.0697 C   0  0  0  0  0  0
  -25.3690  -31.3773   26.1358 C   0  0  0  0  0  0
  -27.0446  -30.2909   24.6403 C   0  0  0  0  0  0
  -27.6050  -32.4347   25.7496 C   0  0  0  0  0  0
  -27.5571  -37.1763   24.8465 C   0  0  0  0  0  0
  -21.4321  -29.3037   22.3548 N   0  0  0  0  0  0
  -26.4282  -37.3705   23.9406 N   0  0  0  0  0  0
  -24.7432  -30.9967   22.0839 N   0  0  0  0  0  0
  -23.4212  -28.8024   23.3025 O   0  0  0  0  0  0
  -28.2453  -25.9010   20.2821 O   0  0  0  0  0  0
  -26.5705  -34.8884   22.4609 O   0  0  0  0  0  0
  -23.5666  -32.1222   23.6845 O   0  0  0  0  0  0
  -28.9006  -18.7688   21.5594 C   0  0  0  0  0  0
  -29.6265  -20.3337   19.5167 C   0  0  0  0  0  0
  -28.6863  -20.2290   21.5954 C   0  0  0  0  0  0
  -29.0019  -21.1791   20.5388 C   0  0  0  0  0  0
  -29.5375  -17.9993   20.5147 C   0  0  0  0  0  0
  -28.1953  -20.8054   22.9059 C   0  0  0  0  0  0
  -28.9488  -22.0949   23.2415 C   0  0  0  0  0  0
  -28.6247  -23.2014   22.2303 C   0  0  0  0  0  0
  -28.9834  -22.9277   20.7410 C   0  0  1  0  0  0
  -30.4548  -23.3212   20.5215 C   0  0  0  0  0  0
  -28.0975  -24.2925   20.0167 C   0  0  0  0  0  0
  -29.8660  -18.9165   19.5048 N   0  0  0  0  0  0
  -29.5908  -16.3945   20.5921 N   0  0  0  0  0  0
  -31.4692  -12.9599   19.2028 H   0  0  0  0  0  0
  -30.5027  -11.8372   20.1090 H   0  0  0  0  0  0
  -29.9048  -11.7540   17.6651 H   0  0  0  0  0  0
  -29.5807  -13.4700   17.6668 H   0  0  0  0  0  0
  -28.0226  -11.2769   19.0587 H   0  0  0  0  0  0
  -27.4148  -12.3759   17.8463 H   0  0  0  0  0  0
  -27.5514  -14.2467   19.3588 H   0  0  0  0  0  0
  -28.8041  -12.4354   21.4786 H   0  0  0  0  0  0
  -28.3053  -14.0900   21.7321 H   0  0  0  0  0  0
  -25.2778   -9.5681   22.4766 H   0  0  0  0  0  0
  -24.0007   -7.4637   22.7478 H   0  0  0  0  0  0
  -21.0856   -8.8784   19.8953 H   0  0  0  0  0  0
  -22.3720  -10.9677   19.6168 H   0  0  0  0  0  0
  -21.2010   -7.6150   23.9716 H   0  0  0  0  0  0
  -21.1481   -6.0524   25.9077 H   0  0  0  0  0  0
  -22.0597   -2.7610   23.2844 H   0  0  0  0  0  0
  -22.4064  -11.9847   22.4837 H   0  0  0  0  0  0
  -21.1048  -13.1192   22.2651 H   0  0  0  0  0  0
  -24.6294  -15.8406   20.5204 H   0  0  0  0  0  0
  -26.2317  -15.6357   20.0307 H   0  0  0  0  0  0
  -26.7351  -32.5151   23.0898 H   0  0  0  0  0  0
  -25.0064  -33.9500   25.0204 H   0  0  0  0  0  0
  -22.7826  -31.2676   21.3512 H   0  0  0  0  0  0
  -23.3765  -35.9538   23.3280 H   0  0  0  0  0  0
  -24.3575  -36.8888   22.2068 H   0  0  0  0  0  0
  -23.7249  -37.6392   23.6722 H   0  0  0  0  0  0
  -26.2129  -31.3898   20.6182 H   0  0  0  0  0  0
  -26.8993  -30.7030   22.0497 H   0  0  0  0  0  0
  -28.1427  -28.6375   21.2785 H   0  0  0  0  0  0
  -25.9022  -25.7457   19.0068 H   0  0  0  0  0  0
  -24.0069  -27.2630   18.9554 H   0  0  0  0  0  0
  -23.8584  -30.5207   19.3865 H   0  0  0  0  0  0
  -22.8205  -29.2021   19.8325 H   0  0  0  0  0  0
  -25.1333  -36.1770   25.0792 H   0  0  0  0  0  0
  -21.0030  -28.3345   24.1318 H   0  0  0  0  0  0
  -20.5670  -26.2360   23.3638 H   0  0  0  0  0  0
  -21.6658  -26.7400   22.1212 H   0  0  0  0  0  0
  -19.6929  -25.6273   21.1267 H   0  0  0  0  0  0
  -19.6710  -27.3159   20.6720 H   0  0  0  0  0  0
  -17.4221  -26.6678   21.4023 H   0  0  0  0  0  0
  -18.0347  -26.0088   22.9023 H   0  0  0  0  0  0
  -19.7967  -30.7309   24.2203 H   0  0  0  0  0  0
  -17.5036  -31.6267   24.5162 H   0  0  0  0  0  0
  -15.5373  -30.2965   23.7688 H   0  0  0  0  0  0
  -15.8704  -28.0800   22.7101 H   0  0  0  0  0  0
  -24.5890  -30.7102   25.7669 H   0  0  0  0  0  0
  -24.8856  -32.2967   26.4671 H   0  0  0  0  0  0
  -25.7931  -30.9017   27.0210 H   0  0  0  0  0  0
  -26.3102  -29.6590   24.1396 H   0  0  0  0  0  0
  -27.3977  -29.7266   25.5045 H   0  0  0  0  0  0
  -27.9044  -30.4099   23.9807 H   0  0  0  0  0  0
  -27.2617  -33.3691   26.1951 H   0  0  0  0  0  0
  -28.3920  -32.6842   25.0365 H   0  0  0  0  0  0
  -28.0652  -31.8555   26.5512 H   0  0  0  0  0  0
  -28.2566  -38.0079   24.7509 H   0  0  0  0  0  0
  -28.1089  -36.2602   24.6296 H   0  0  0  0  0  0
  -27.2286  -37.1406   25.8868 H   0  0  0  0  0  0
  -20.9568  -29.8727   21.6681 H   0  0  0  0  0  0
  -26.0130  -38.2762   24.1414 H   0  0  0  0  0  0
  -28.5812  -18.2075   22.4271 H   0  0  0  0  0  0
  -30.0283  -20.8340   18.6482 H   0  0  0  0  0  0
  -28.3432  -20.0859   23.7122 H   0  0  0  0  0  0
  -27.1215  -20.9851   22.8425 H   0  0  0  0  0  0
  -30.0231  -21.9090   23.2748 H   0  0  0  0  0  0
  -28.6620  -22.4276   24.2395 H   0  0  0  0  0  0
  -29.0630  -24.1455   22.5585 H   0  0  0  0  0  0
  -27.5473  -23.3596   22.3017 H   0  0  0  0  0  0
  -31.1257  -22.7444   21.1586 H   0  0  0  0  0  0
  -30.6281  -24.3759   20.7393 H   0  0  0  0  0  0
  -30.7550  -23.1534   19.4871 H   0  0  0  0  0  0
  -27.0400  -24.0762   20.1685 H   0  0  0  0  0  0
  -28.2313  -24.1923   18.9394 H   0  0  0  0  0  0
  -28.7092  -16.0556   20.9418 H   0  0  0  0  0  0
  1 25  1  0  0  0
  1 30  2  0  0  0
  1 83  1  0  0  0
  2  3  1  0  0  0
  2 25  1  0  0  0
  2 84  1  0  0  0
  2 85  1  0  0  0
  3  4  1  0  0  0
  3 86  1  0  0  0
  3 87  1  0  0  0
  4  5  1  0  0  0
  4 88  1  0  0  0
  4 89  1  0  0  0
  5  6  1  0  0  0
  5 26  1  0  0  0
  5 90  1  0  0  0
  6 25  1  0  0  0
  6 91  1  0  0  0
  6 92  1  0  0  0
  7  8  2  0  0  0
  7 26  1  0  0  0
  7 29  1  0  0  0
  8  9  1  0  0  0
  8 22  1  0  0  0
  9 10  1  0  0  0
  9 27  2  0  0  0
 10 11  2  0  0  0
 10 15  1  0  0  0
 11 12  1  0  0  0
 11 93  1  0  0  0
 12 13  2  0  0  0
 12 94  1  0  0  0
 13 14  1  0  0  0
 13 31  1  0  0  0
 14 15  2  0  0  0
 14 95  1  0  0  0
 15 96  1  0  0  0
 16 17  2  0  0  0
 16 21  1  0  0  0
 16 31  1  0  0  0
 17 18  1  0  0  0
 17 97  1  0  0  0
 18 19  2  0  0  0
 18 98  1  0  0  0
 19 20  1  0  0  0
 19 24  1  0  0  0
 20 21  2  0  0  0
 20 99  1  0  0  0
 21 23  1  0  0  0
 22 28  1  0  0  0
 22 32  2  0  0  0
 26 27  1  0  0  0
 28100  1  0  0  0
 28101  1  0  0  0
 29102  1  0  0  0
 29103  1  0  0  0
 33 34  1  0  0  0
 33 66  1  0  0  0
 33 70  2  0  0  0
 34 36  1  0  0  0
 34 59  1  0  0  0
 34104  1  0  0  0
 35 44  2  0  0  0
 35 45  1  0  0  0
 35 68  1  0  0  0
 36 56  1  0  0  0
 36105  1  0  0  0
 37 39  1  0  0  0
 37 47  1  0  0  0
 37 66  1  0  0  0
 37106  1  0  0  0
 38 43  2  0  0  0
 38 46  1  0  0  0
 38 47  1  0  0  0
 39 64  1  0  0  0
 39 67  2  0  0  0
 40 52  1  0  0  0
 40 53  2  0  0  0
 40 58  1  0  0  0
 41107  1  0  0  0
 41108  1  0  0  0
 41109  1  0  0  0
 41 48  1  0  0  0
 42 43  1  0  0  0
 42 66  1  0  0  0
 42110  1  0  0  0
 42111  1  0  0  0
 43 44  1  0  0  0
 44112  1  0  0  0
 45 46  2  0  0  0
 45113  1  0  0  0
 46114  1  0  0  0
 47115  1  0  0  0
 47116  1  0  0  0
 48 56  1  0  0  0
 48 65  1  0  0  0
 48117  1  0  0  0
 49 50  1  0  0  0
 49 53  1  0  0  0
 49 64  1  0  0  0
 49118  1  0  0  0
 50 51  1  0  0  0
 50119  1  0  0  0
 50120  1  0  0  0
 51 52  1  0  0  0
 51121  1  0  0  0
 51122  1  0  0  0
 52123  1  0  0  0
 52124  1  0  0  0
 53 54  1  0  0  0
 54 55  2  0  0  0
 54125  1  0  0  0
 55 57  1  0  0  0
 55126  1  0  0  0
 56 69  2  0  0  0
 57 58  2  0  0  0
 57127  1  0  0  0
 58128  1  0  0  0
 59 60  1  0  0  0
 59 61  1  0  0  0
 59 62  1  0  0  0
 60129  1  0  0  0
 60130  1  0  0  0
 60131  1  0  0  0
 61132  1  0  0  0
 61133  1  0  0  0
 61134  1  0  0  0
 62135  1  0  0  0
 62136  1  0  0  0
 62137  1  0  0  0
 63 65  1  0  0  0
 63138  1  0  0  0
 63139  1  0  0  0
 63140  1  0  0  0
 64141  1  0  0  0
 65142  1  0  0  0
 68 81  1  0  0  0
 71 73  2  0  0  0
 71 75  1  0  0  0
 71143  1  0  0  0
 72 74  2  0  0  0
 72 82  1  0  0  0
 72144  1  0  0  0
 73 74  1  0  0  0
 73 76  1  0  0  0
 74 79  1  0  0  0
 75 82  2  0  0  0
 75 83  1  0  0  0
 76 77  1  0  0  0
 76145  1  0  0  0
 76146  1  0  0  0
 77 78  1  0  0  0
 77147  1  0  0  0
 77148  1  0  0  0
 78 79  1  0  0  0
 78149  1  0  0  0
 78150  1  0  0  0
 79 80  1  0  0  0
 79 81  1  0  0  0
 80151  1  0  0  0
 80152  1  0  0  0
 80153  1  0  0  0
 81154  1  0  0  0
 81155  1  0  0  0
 83156  1  0  0  0
M  ISO  4   1 100  68 101  81 101  83 100
M  END
> <chiral flag>
0

> <version>
0

> <s_m_source_file>
/data/baiqing/PycharmProjects/Reinvent-master-3.2/result/LINK_invent/BTK/process_docking_weight1_custom_sum_contain_oxygen_bond_distance_aromatic_linkinvent_7_9_3/rearranged_h_0177.sdf

> <i_m_source_file_index>
78

> <r_mmod_Potential_Energy-OPLS-2005>
985.213317871094

> <r_mmod_Stretch_Energy-OPLS-2005>
482.507781982422

> <r_mmod_Bend_Energy-OPLS-2005>
437.261962890625

> <r_mmod_Torsional_Energy-OPLS-2005>
243.649124145508

> <r_mmod_Improper_Torsional_Energy-OPLS-2005>
7.11244201660156

> <r_mmod_Van_der_Waal_Energy-OPLS-2005>
136.215560913086

> <r_mmod_Electrostatic_Energy-OPLS-2005>
-487.899230957031

> <r_mmod_Solvation_Energy-OPLS-2005>
-229.55207824707

> <b_mmod_Minimization_Converged-OPLS-2005>
0

> <r_mmod_RMS_Derivative-OPLS-2005>
0.352366387844086

$$$$
78
                    3D
 Structure written by MMmdl.
158167  0  0  1  0            999 V2000
  -30.6202  -14.9133   20.4210 C   0  0  0  0  0  0
  -30.4183  -12.5763   19.4836 C   0  0  0  0  0  0
  -29.5034  -12.5175   18.2426 C   0  0  0  0  0  0
  -28.0392  -12.3126   18.6694 C   0  0  0  0  0  0
  -27.6224  -13.2501   19.8337 C   0  0  2  0  0  0
  -28.6723  -13.2897   20.9641 C   0  0  0  0  0  0
  -25.2429  -13.8218   20.5732 C   0  0  0  0  0  0
  -24.1755  -13.0437   20.9252 C   0  0  0  0  0  0
  -24.6378  -11.6926   20.8776 C   0  0  0  0  0  0
  -23.9070  -10.4292   21.0416 C   0  0  0  0  0  0
  -24.3621   -9.4205   21.9189 C   0  0  0  0  0  0
  -23.6297   -8.2239   22.0753 C   0  0  0  0  0  0
  -22.4279   -8.0279   21.3543 C   0  0  0  0  0  0
  -21.9916   -9.0254   20.4647 C   0  0  0  0  0  0
  -22.7244  -10.2133   20.3063 C   0  0  0  0  0  0
  -21.6854   -6.0733   22.5278 C   0  0  0  0  0  0
  -21.4014   -6.5637   23.8211 C   0  0  0  0  0  0
  -21.3660   -5.6790   24.9173 C   0  0  0  0  0  0
  -21.6045   -4.3052   24.7225 C   0  0  0  0  0  0
  -21.8818   -3.8144   23.4346 C   0  0  0  0  0  0
  -21.9193   -4.6961   22.3401 C   0  0  0  0  0  0
  -22.7776  -13.5209   21.1894 C   0  0  0  0  0  0
  -22.1663   -4.2145   21.0980 F   0  0  0  0  0  0
  -21.5630   -3.4537   25.7738 F   0  0  0  0  0  0
  -29.9363  -13.7003   20.3412 N   0  0  0  0  0  0
  -26.2852  -12.9459   20.3266 N   0  0  0  0  0  0
  -25.9310  -11.6587   20.5766 N   0  0  0  0  0  0
  -22.0424  -12.8198   22.0447 N   0  0  0  0  0  0
  -25.4076  -15.1941   20.4128 N   0  0  0  0  0  0
  -31.8351  -14.8471   20.2033 O   0  0  0  0  0  0
  -21.6642   -6.8877   21.4241 O   0  0  0  0  0  0
  -22.3465  -14.5513   20.6732 O   0  0  0  0  0  0
  -24.6409  -31.8459   23.1901 C   0  0  0  0  0  0
  -25.9194  -32.4702   23.8280 C   0  0  1  0  0  0
  -27.2137  -27.1562   20.1363 C   0  0  0  0  0  0
  -25.5952  -33.8508   24.2199 N   0  0  0  0  0  0
  -23.4422  -30.4671   21.5355 C   0  0  2  0  0  0
  -24.8885  -28.8978   20.1084 C   0  0  0  0  0  0
  -22.7550  -29.4557   22.4867 C   0  0  0  0  0  0
  -18.0301  -28.1393   22.8476 C   0  0  0  0  0  0
  -24.1495  -36.7262   23.2646 C   0  0  0  0  0  0
  -25.9967  -30.7255   21.3855 C   0  0  0  0  0  0
  -26.0650  -29.3391   20.7253 C   0  0  0  0  0  0
  -27.2257  -28.4828   20.7259 C   0  0  0  0  0  0
  -26.0054  -26.8093   19.4911 C   0  0  0  0  0  0
  -24.8695  -27.6452   19.4786 C   0  0  0  0  0  0
  -23.6657  -29.7989   20.1534 C   0  0  0  0  0  0
  -25.4128  -36.3036   24.0316 C   0  0  1  0  0  0
  -20.5911  -28.3715   23.1243 C   0  0  2  0  0  0
  -20.6784  -26.9422   22.5405 C   0  0  0  0  0  0
  -19.5760  -26.6379   21.5211 C   0  0  0  0  0  0
  -18.1942  -26.7932   22.1621 C   0  0  0  0  0  0
  -19.1557  -28.8871   23.2853 C   0  0  0  0  0  0
  -18.9474  -30.1468   23.8876 C   0  0  0  0  0  0
  -17.6471  -30.6589   24.0558 C   0  0  0  0  0  0
  -25.9070  -34.9409   23.5064 C   0  0  0  0  0  0
  -16.5362  -29.9081   23.6337 C   0  0  0  0  0  0
  -16.7286  -28.6502   23.0354 C   0  0  0  0  0  0
  -26.4523  -31.6565   25.0715 C   0  0  0  0  0  0
  -25.3717  -31.3750   26.1417 C   0  0  0  0  0  0
  -27.0392  -30.2965   24.6288 C   0  0  0  0  0  0
  -27.6054  -32.4334   25.7499 C   0  0  0  0  0  0
  -27.5567  -37.1801   24.8475 C   0  0  0  0  0  0
  -21.4246  -29.3045   22.3617 N   0  0  0  0  0  0
  -26.4299  -37.3737   23.9388 N   0  0  0  0  0  0
  -24.7132  -31.0338   22.0922 N   0  0  0  0  0  0
  -23.4209  -28.8101   23.3001 O   0  0  0  0  0  0
  -28.2883  -26.2013   20.2235 O   0  0  0  0  0  0
  -26.5652  -34.8902   22.4640 O   0  0  0  0  0  0
  -23.5537  -32.1328   23.7138 O   0  0  0  0  0  0
  -28.6794  -23.6232   20.6944 C   0  0  0  0  0  0
  -28.7067  -22.2526   20.1614 C   0  0  0  0  0  0
  -28.2584  -24.7722   19.8916 C   0  0  0  0  0  0
  -27.9665  -23.2071   18.1908 C   0  0  0  0  0  0
  -28.7036  -16.7639   20.8169 C   0  0  0  0  0  0
  -30.6568  -17.3399   19.5536 C   0  0  0  0  0  0
  -28.5788  -18.3291   21.2376 C   0  0  0  0  0  0
  -30.5461  -18.8699   20.0372 C   0  0  0  0  0  0
  -27.5497  -22.9853   16.7529 C   0  0  0  0  0  0
  -29.1305  -20.8850   20.9491 C   0  0  0  0  0  0
  -28.3223  -22.1134   18.8774 N   0  0  0  0  0  0
  -27.9308  -24.4750   18.6170 N   0  0  0  0  0  0
  -30.0092  -16.2106   20.3251 N   0  0  0  0  0  0
  -29.1817  -19.4153   20.3609 N   0  3  0  0  0  0
  -31.4537  -12.7006   19.1625 H   0  0  0  0  0  0
  -30.3945  -11.6317   20.0296 H   0  0  0  0  0  0
  -29.8169  -11.7121   17.5768 H   0  0  0  0  0  0
  -29.5951  -13.4427   17.6715 H   0  0  0  0  0  0
  -27.9335  -11.2726   18.9805 H   0  0  0  0  0  0
  -27.3717  -12.4429   17.8168 H   0  0  0  0  0  0
  -27.5806  -14.2487   19.3993 H   0  0  0  0  0  0
  -28.7673  -12.3149   21.4450 H   0  0  0  0  0  0
  -28.3780  -13.9836   21.7495 H   0  0  0  0  0  0
  -25.2762   -9.5685   22.4767 H   0  0  0  0  0  0
  -24.0005   -7.4632   22.7471 H   0  0  0  0  0  0
  -21.0846   -8.8777   19.8954 H   0  0  0  0  0  0
  -22.3700  -10.9676   19.6178 H   0  0  0  0  0  0
  -21.2007   -7.6145   23.9712 H   0  0  0  0  0  0
  -21.1484   -6.0520   25.9075 H   0  0  0  0  0  0
  -22.0598   -2.7607   23.2844 H   0  0  0  0  0  0
  -22.4044  -11.9867   22.4846 H   0  0  0  0  0  0
  -21.1036  -13.1214   22.2645 H   0  0  0  0  0  0
  -24.6315  -15.8397   20.5099 H   0  0  0  0  0  0
  -26.2385  -15.6258   20.0337 H   0  0  0  0  0  0
  -26.7254  -32.5310   23.1005 H   0  0  0  0  0  0
  -25.0081  -33.9627   25.0333 H   0  0  0  0  0  0
  -22.7435  -31.2926   21.3840 H   0  0  0  0  0  0
  -23.3740  -35.9616   23.3349 H   0  0  0  0  0  0
  -24.3564  -36.8849   22.2051 H   0  0  0  0  0  0
  -23.7284  -37.6486   23.6655 H   0  0  0  0  0  0
  -26.1513  -31.4820   20.6150 H   0  0  0  0  0  0
  -26.8678  -30.7728   22.0272 H   0  0  0  0  0  0
  -28.1226  -28.8152   21.2296 H   0  0  0  0  0  0
  -25.8969  -25.8477   19.0148 H   0  0  0  0  0  0
  -23.9679  -27.3000   18.9914 H   0  0  0  0  0  0
  -23.8013  -30.5745   19.3989 H   0  0  0  0  0  0
  -22.7802  -29.2414   19.8433 H   0  0  0  0  0  0
  -25.1324  -36.1872   25.0811 H   0  0  0  0  0  0
  -21.0005  -28.3303   24.1363 H   0  0  0  0  0  0
  -20.5678  -26.2327   23.3621 H   0  0  0  0  0  0
  -21.6650  -26.7429   22.1204 H   0  0  0  0  0  0
  -19.6922  -25.6286   21.1253 H   0  0  0  0  0  0
  -19.6698  -27.3177   20.6732 H   0  0  0  0  0  0
  -17.4211  -26.6674   21.4026 H   0  0  0  0  0  0
  -18.0343  -26.0081   22.9025 H   0  0  0  0  0  0
  -19.7950  -30.7290   24.2236 H   0  0  0  0  0  0
  -17.5024  -31.6268   24.5163 H   0  0  0  0  0  0
  -15.5361  -30.2973   23.7676 H   0  0  0  0  0  0
  -15.8688  -28.0814   22.7077 H   0  0  0  0  0  0
  -24.5887  -30.7111   25.7734 H   0  0  0  0  0  0
  -24.8919  -32.2935   26.4809 H   0  0  0  0  0  0
  -25.8005  -30.8937   27.0215 H   0  0  0  0  0  0
  -26.3007  -29.6680   24.1297 H   0  0  0  0  0  0
  -27.4012  -29.7268   25.4856 H   0  0  0  0  0  0
  -27.8910  -30.4203   23.9597 H   0  0  0  0  0  0
  -27.2641  -33.3643   26.2037 H   0  0  0  0  0  0
  -28.3884  -32.6883   25.0345 H   0  0  0  0  0  0
  -28.0704  -31.8492   26.5448 H   0  0  0  0  0  0
  -28.2628  -38.0051   24.7441 H   0  0  0  0  0  0
  -28.1018  -36.2577   24.6413 H   0  0  0  0  0  0
  -27.2269  -37.1584   25.8877 H   0  0  0  0  0  0
  -20.9448  -29.8762   21.6804 H   0  0  0  0  0  0
  -26.0171  -38.2819   24.1336 H   0  0  0  0  0  0
  -28.9930  -23.7962   21.7149 H   0  0  0  0  0  0
  -27.9801  -16.5760   20.0242 H   0  0  0  0  0  0
  -28.3692  -16.1720   21.6672 H   0  0  0  0  0  0
  -31.7205  -17.1407   19.4200 H   0  0  0  0  0  0
  -30.2448  -17.2834   18.5452 H   0  0  0  0  0  0
  -29.0346  -18.4314   22.2238 H   0  0  0  0  0  0
  -27.5238  -18.5628   21.3870 H   0  0  0  0  0  0
  -30.9967  -19.5145   19.2813 H   0  0  0  0  0  0
  -31.1708  -18.9821   20.9246 H   0  0  0  0  0  0
  -27.8704  -22.0083   16.3914 H   0  0  0  0  0  0
  -27.9881  -23.7422   16.1025 H   0  0  0  0  0  0
  -26.4653  -23.0428   16.6625 H   0  0  0  0  0  0
  -28.4321  -20.8488   21.7850 H   0  0  0  0  0  0
  -30.0927  -21.0854   21.4199 H   0  0  0  0  0  0
  -28.6471  -19.4672   19.5062 H   0  0  0  0  0  0
  1 25  1  0  0  0
  1 30  2  0  0  0
  1 83  1  0  0  0
  2  3  1  0  0  0
  2 25  1  0  0  0
  2 85  1  0  0  0
  2 86  1  0  0  0
  3  4  1  0  0  0
  3 87  1  0  0  0
  3 88  1  0  0  0
  4  5  1  0  0  0
  4 89  1  0  0  0
  4 90  1  0  0  0
  5  6  1  0  0  0
  5 26  1  0  0  0
  5 91  1  0  0  0
  6 25  1  0  0  0
  6 92  1  0  0  0
  6 93  1  0  0  0
  7  8  2  0  0  0
  7 26  1  0  0  0
  7 29  1  0  0  0
  8  9  1  0  0  0
  8 22  1  0  0  0
  9 10  1  0  0  0
  9 27  2  0  0  0
 10 11  2  0  0  0
 10 15  1  0  0  0
 11 12  1  0  0  0
 11 94  1  0  0  0
 12 13  2  0  0  0
 12 95  1  0  0  0
 13 14  1  0  0  0
 13 31  1  0  0  0
 14 15  2  0  0  0
 14 96  1  0  0  0
 15 97  1  0  0  0
 16 17  2  0  0  0
 16 21  1  0  0  0
 16 31  1  0  0  0
 17 18  1  0  0  0
 17 98  1  0  0  0
 18 19  2  0  0  0
 18 99  1  0  0  0
 19 20  1  0  0  0
 19 24  1  0  0  0
 20 21  2  0  0  0
 20100  1  0  0  0
 21 23  1  0  0  0
 22 28  1  0  0  0
 22 32  2  0  0  0
 26 27  1  0  0  0
 28101  1  0  0  0
 28102  1  0  0  0
 29103  1  0  0  0
 29104  1  0  0  0
 33 34  1  0  0  0
 33 66  1  0  0  0
 33 70  2  0  0  0
 34 36  1  0  0  0
 34 59  1  0  0  0
 34105  1  0  0  0
 35 44  2  0  0  0
 35 45  1  0  0  0
 35 68  1  0  0  0
 36 56  1  0  0  0
 36106  1  0  0  0
 37 39  1  0  0  0
 37 47  1  0  0  0
 37 66  1  0  0  0
 37107  1  0  0  0
 38 43  2  0  0  0
 38 46  1  0  0  0
 38 47  1  0  0  0
 39 64  1  0  0  0
 39 67  2  0  0  0
 40 52  1  0  0  0
 40 53  2  0  0  0
 40 58  1  0  0  0
 41108  1  0  0  0
 41109  1  0  0  0
 41110  1  0  0  0
 41 48  1  0  0  0
 42 43  1  0  0  0
 42 66  1  0  0  0
 42111  1  0  0  0
 42112  1  0  0  0
 43 44  1  0  0  0
 44113  1  0  0  0
 45 46  2  0  0  0
 45114  1  0  0  0
 46115  1  0  0  0
 47116  1  0  0  0
 47117  1  0  0  0
 48 56  1  0  0  0
 48 65  1  0  0  0
 48118  1  0  0  0
 49 50  1  0  0  0
 49 53  1  0  0  0
 49 64  1  0  0  0
 49119  1  0  0  0
 50 51  1  0  0  0
 50120  1  0  0  0
 50121  1  0  0  0
 51 52  1  0  0  0
 51122  1  0  0  0
 51123  1  0  0  0
 52124  1  0  0  0
 52125  1  0  0  0
 53 54  1  0  0  0
 54 55  2  0  0  0
 54126  1  0  0  0
 55 57  1  0  0  0
 55127  1  0  0  0
 56 69  2  0  0  0
 57 58  2  0  0  0
 57128  1  0  0  0
 58129  1  0  0  0
 59 60  1  0  0  0
 59 61  1  0  0  0
 59 62  1  0  0  0
 60130  1  0  0  0
 60131  1  0  0  0
 60132  1  0  0  0
 61133  1  0  0  0
 61134  1  0  0  0
 61135  1  0  0  0
 62136  1  0  0  0
 62137  1  0  0  0
 62138  1  0  0  0
 63 65  1  0  0  0
 63139  1  0  0  0
 63140  1  0  0  0
 63141  1  0  0  0
 64142  1  0  0  0
 65143  1  0  0  0
 68 73  1  0  0  0
 71 72  2  0  0  0
 71 73  1  0  0  0
 71144  1  0  0  0
 72 80  1  0  0  0
 72 81  1  0  0  0
 73 82  2  0  0  0
 74 79  1  0  0  0
 74 81  2  0  0  0
 74 82  1  0  0  0
 75 77  1  0  0  0
 75 83  1  0  0  0
 75145  1  0  0  0
 75146  1  0  0  0
 76 78  1  0  0  0
 76 83  1  0  0  0
 76147  1  0  0  0
 76148  1  0  0  0
 77 84  1  0  0  0
 77149  1  0  0  0
 77150  1  0  0  0
 78 84  1  0  0  0
 78151  1  0  0  0
 78152  1  0  0  0
 79153  1  0  0  0
 79154  1  0  0  0
 79155  1  0  0  0
 80156  1  0  0  0
 80157  1  0  0  0
 80 84  1  0  0  0
 84158  1  0  0  0
M  CHG  1  84   1
M  ISO  4   1 100  68 101  73 101  83 100
M  END
> <chiral flag>
0

> <version>
0

> <s_m_source_file>
/data/baiqing/PycharmProjects/Reinvent-master-3.2/result/LINK_invent/BTK/process_docking_weight1_custom_sum_contain_oxygen_bond_distance_aromatic_linkinvent_7_9_3/rearranged_h_0177.sdf

> <i_m_source_file_index>
79

> <r_mmod_Potential_Energy-OPLS-2005>
-32.862964630127

> <r_mmod_Stretch_Energy-OPLS-2005>
192.716613769531

> <r_mmod_Bend_Energy-OPLS-2005>
267.769104003906

> <r_mmod_Torsional_Energy-OPLS-2005>
372.801635742188

> <r_mmod_Improper_Torsional_Energy-OPLS-2005>
12.5252113342285

> <r_mmod_Van_der_Waal_Energy-OPLS-2005>
148.56608581543

> <r_mmod_Electrostatic_Energy-OPLS-2005>
-728.465209960938

> <r_mmod_Solvation_Energy-OPLS-2005>
-469.082946777344

> <b_mmod_Minimization_Converged-OPLS-2005>
0

> <r_mmod_RMS_Derivative-OPLS-2005>
0.37553533911705

$$$$
79
                    3D
 Structure written by MMmdl.
162172  0  0  1  0            999 V2000
  -30.5397  -14.9574   20.3968 C   0  0  0  0  0  0
  -30.4351  -12.5808   19.5129 C   0  0  0  0  0  0
  -29.5243  -12.5151   18.2651 C   0  0  0  0  0  0
  -28.0531  -12.3174   18.6755 C   0  0  0  0  0  0
  -27.6294  -13.2492   19.8435 C   0  0  2  0  0  0
  -28.6714  -13.2791   20.9821 C   0  0  0  0  0  0
  -25.2458  -13.8213   20.5746 C   0  0  0  0  0  0
  -24.1778  -13.0437   20.9263 C   0  0  0  0  0  0
  -24.6378  -11.6927   20.8754 C   0  0  0  0  0  0
  -23.9051  -10.4303   21.0401 C   0  0  0  0  0  0
  -24.3601   -9.4215   21.9180 C   0  0  0  0  0  0
  -23.6290   -8.2232   22.0736 C   0  0  0  0  0  0
  -22.4267   -8.0260   21.3543 C   0  0  0  0  0  0
  -21.9911   -9.0226   20.4631 C   0  0  0  0  0  0
  -22.7221  -10.2127   20.3044 C   0  0  0  0  0  0
  -21.6859   -6.0717   22.5267 C   0  0  0  0  0  0
  -21.4015   -6.5623   23.8200 C   0  0  0  0  0  0
  -21.3672   -5.6776   24.9169 C   0  0  0  0  0  0
  -21.6057   -4.3038   24.7224 C   0  0  0  0  0  0
  -21.8824   -3.8128   23.4342 C   0  0  0  0  0  0
  -21.9199   -4.6944   22.3395 C   0  0  0  0  0  0
  -22.7792  -13.5211   21.1899 C   0  0  0  0  0  0
  -22.1668   -4.2130   21.0973 F   0  0  0  0  0  0
  -21.5634   -3.4521   25.7738 F   0  0  0  0  0  0
  -29.9443  -13.6928   20.3821 N   0  0  0  0  0  0
  -26.2876  -12.9446   20.3259 N   0  0  0  0  0  0
  -25.9310  -11.6583   20.5752 N   0  0  0  0  0  0
  -22.0422  -12.8213   22.0448 N   0  0  0  0  0  0
  -25.4174  -15.1938   20.4208 N   0  0  0  0  0  0
  -31.7373  -15.0028   20.0986 O   0  0  0  0  0  0
  -21.6649   -6.8848   21.4227 O   0  0  0  0  0  0
  -22.3492  -14.5512   20.6718 O   0  0  0  0  0  0
  -24.6478  -31.8380   23.1826 C   0  0  0  0  0  0
  -25.9210  -32.4660   23.8254 C   0  0  1  0  0  0
  -27.2259  -27.0884   20.1786 C   0  0  0  0  0  0
  -25.5936  -33.8479   24.2163 N   0  0  0  0  0  0
  -23.4558  -30.4524   21.5299 C   0  0  2  0  0  0
  -24.9089  -28.8640   20.1200 C   0  0  0  0  0  0
  -22.7591  -29.4502   22.4845 C   0  0  0  0  0  0
  -18.0326  -28.1425   22.8484 C   0  0  0  0  0  0
  -24.1485  -36.7247   23.2651 C   0  0  0  0  0  0
  -26.0141  -30.6953   21.3906 C   0  0  0  0  0  0
  -26.0858  -29.2977   20.7461 C   0  0  0  0  0  0
  -27.2483  -28.4273   20.7532 C   0  0  0  0  0  0
  -26.0222  -26.7617   19.5197 C   0  0  0  0  0  0
  -24.8904  -27.6096   19.4904 C   0  0  0  0  0  0
  -23.6870  -29.7717   20.1523 C   0  0  0  0  0  0
  -25.4123  -36.3019   24.0305 C   0  0  1  0  0  0
  -20.5935  -28.3733   23.1245 C   0  0  2  0  0  0
  -20.6775  -26.9424   22.5441 C   0  0  0  0  0  0
  -19.5755  -26.6417   21.5215 C   0  0  0  0  0  0
  -18.1950  -26.7959   22.1629 C   0  0  0  0  0  0
  -19.1584  -28.8900   23.2861 C   0  0  0  0  0  0
  -18.9490  -30.1507   23.8874 C   0  0  0  0  0  0
  -17.6490  -30.6625   24.0558 C   0  0  0  0  0  0
  -25.9067  -34.9387   23.5045 C   0  0  0  0  0  0
  -16.5381  -29.9114   23.6339 C   0  0  0  0  0  0
  -16.7310  -28.6535   23.0360 C   0  0  0  0  0  0
  -26.4533  -31.6540   25.0704 C   0  0  0  0  0  0
  -25.3713  -31.3720   26.1372 C   0  0  0  0  0  0
  -27.0387  -30.2930   24.6308 C   0  0  0  0  0  0
  -27.6067  -32.4310   25.7486 C   0  0  0  0  0  0
  -27.5582  -37.1786   24.8473 C   0  0  0  0  0  0
  -21.4276  -29.3034   22.3595 N   0  0  0  0  0  0
  -26.4291  -37.3722   23.9403 N   0  0  0  0  0  0
  -24.7252  -31.0193   22.0888 N   0  0  0  0  0  0
  -23.4199  -28.8031   23.3012 O   0  0  0  0  0  0
  -28.2738  -26.0817   20.1438 O   0  0  0  0  0  0
  -26.5691  -34.8894   22.4643 O   0  0  0  0  0  0
  -23.5582  -32.1287   23.7020 O   0  0  0  0  0  0
  -29.1225  -21.9400   21.0233 C   0  0  0  0  0  0
  -28.1608  -22.4860   19.1619 C   0  0  0  0  0  0
  -28.5285  -23.1256   20.3268 C   0  0  0  0  0  0
  -29.0255  -20.6721   20.3732 C   0  0  0  0  0  0
  -30.3611  -18.8835   21.8910 C   0  0  0  0  0  0
  -26.5786  -20.3477   17.6200 C   0  0  0  0  0  0
  -26.9291  -19.1750   18.5019 C   0  0  0  0  0  0
  -31.2923  -18.1795   20.8925 C   0  0  0  0  0  0
  -29.3085  -19.0697   20.7836 C   0  0  2  0  0  0
  -27.9980  -20.1773   18.1210 C   0  0  0  0  0  0
  -30.0588  -17.6844   20.1292 C   0  0  2  0  0  0
  -28.8764  -24.9267   22.1926 C   0  0  0  0  0  0
  -28.1508  -24.6899   20.8586 C   0  0  1  0  0  0
  -28.3836  -21.0818   19.1962 N   0  0  0  0  0  0
  -29.7723  -16.1596   20.5250 N   0  0  0  0  0  0
  -31.4700  -12.7258   19.2017 H   0  0  0  0  0  0
  -30.4200  -11.6306   20.0505 H   0  0  0  0  0  0
  -29.8393  -11.7019   17.6103 H   0  0  0  0  0  0
  -29.6289  -13.4353   17.6894 H   0  0  0  0  0  0
  -27.9364  -11.2752   18.9779 H   0  0  0  0  0  0
  -27.3939  -12.4583   17.8181 H   0  0  0  0  0  0
  -27.5933  -14.2528   19.4219 H   0  0  0  0  0  0
  -28.7571  -12.3003   21.4545 H   0  0  0  0  0  0
  -28.3711  -13.9733   21.7676 H   0  0  0  0  0  0
  -25.2736   -9.5713   22.4778 H   0  0  0  0  0  0
  -24.0006   -7.4625   22.7447 H   0  0  0  0  0  0
  -21.0841   -8.8730   19.8931 H   0  0  0  0  0  0
  -22.3645  -10.9662   19.6164 H   0  0  0  0  0  0
  -21.1993   -7.6131   23.9711 H   0  0  0  0  0  0
  -21.1508   -6.0500   25.9081 H   0  0  0  0  0  0
  -22.0607   -2.7590   23.2840 H   0  0  0  0  0  0
  -22.4034  -11.9887   22.4864 H   0  0  0  0  0  0
  -21.1014  -13.1230   22.2601 H   0  0  0  0  0  0
  -24.6550  -15.8477   20.5505 H   0  0  0  0  0  0
  -26.2610  -15.6352   20.0767 H   0  0  0  0  0  0
  -26.7269  -32.5262   23.0982 H   0  0  0  0  0  0
  -25.0013  -33.9596   25.0263 H   0  0  0  0  0  0
  -22.7636  -31.2801   21.3657 H   0  0  0  0  0  0
  -23.3742  -35.9585   23.3297 H   0  0  0  0  0  0
  -24.3586  -36.8904   22.2075 H   0  0  0  0  0  0
  -23.7225  -37.6438   23.6695 H   0  0  0  0  0  0
  -26.1732  -31.4382   20.6085 H   0  0  0  0  0  0
  -26.8853  -30.7564   22.0309 H   0  0  0  0  0  0
  -28.1486  -28.7635   21.2505 H   0  0  0  0  0  0
  -25.9459  -25.8012   19.0294 H   0  0  0  0  0  0
  -23.9953  -27.2720   18.9855 H   0  0  0  0  0  0
  -23.8284  -30.5421   19.3928 H   0  0  0  0  0  0
  -22.8011  -29.2172   19.8400 H   0  0  0  0  0  0
  -25.1313  -36.1854   25.0800 H   0  0  0  0  0  0
  -21.0084  -28.3335   24.1347 H   0  0  0  0  0  0
  -20.5608  -26.2337   23.3648 H   0  0  0  0  0  0
  -21.6662  -26.7362   22.1310 H   0  0  0  0  0  0
  -19.6915  -25.6310   21.1271 H   0  0  0  0  0  0
  -19.6681  -27.3211   20.6721 H   0  0  0  0  0  0
  -17.4220  -26.6708   21.4033 H   0  0  0  0  0  0
  -18.0347  -26.0107   22.9051 H   0  0  0  0  0  0
  -19.7949  -30.7330   24.2268 H   0  0  0  0  0  0
  -17.5045  -31.6281   24.5206 H   0  0  0  0  0  0
  -15.5381  -30.3008   23.7698 H   0  0  0  0  0  0
  -15.8725  -28.0822   22.7102 H   0  0  0  0  0  0
  -24.5925  -30.7029   25.7688 H   0  0  0  0  0  0
  -24.8858  -32.2892   26.4732 H   0  0  0  0  0  0
  -25.8003  -30.8945   27.0190 H   0  0  0  0  0  0
  -26.3006  -29.6649   24.1311 H   0  0  0  0  0  0
  -27.3972  -29.7226   25.4896 H   0  0  0  0  0  0
  -27.8924  -30.4145   23.9631 H   0  0  0  0  0  0
  -27.2662  -33.3646   26.1979 H   0  0  0  0  0  0
  -28.3913  -32.6812   25.0327 H   0  0  0  0  0  0
  -28.0676  -31.8474   26.5467 H   0  0  0  0  0  0
  -28.2591  -38.0101   24.7522 H   0  0  0  0  0  0
  -28.1081  -36.2620   24.6278 H   0  0  0  0  0  0
  -27.2305  -37.1419   25.8885 H   0  0  0  0  0  0
  -20.9486  -29.8774   21.6795 H   0  0  0  0  0  0
  -26.0144  -38.2792   24.1400 H   0  0  0  0  0  0
  -29.5305  -22.0050   22.0232 H   0  0  0  0  0  0
  -27.6516  -22.9049   18.3029 H   0  0  0  0  0  0
  -30.7793  -19.8011   22.3067 H   0  0  0  0  0  0
  -30.0272  -18.2106   22.6834 H   0  0  0  0  0  0
  -25.9455  -21.1127   18.0622 H   0  0  0  0  0  0
  -26.3736  -20.1284   16.5736 H   0  0  0  0  0  0
  -26.9611  -18.1969   18.0287 H   0  0  0  0  0  0
  -26.5306  -19.1896   19.5148 H   0  0  0  0  0  0
  -31.9254  -17.4057   21.3315 H   0  0  0  0  0  0
  -31.8856  -18.8844   20.3073 H   0  0  0  0  0  0
  -28.3512  -18.7160   21.1637 H   0  0  0  0  0  0
  -28.8099  -19.9081   17.4477 H   0  0  0  0  0  0
  -30.1918  -17.7912   19.0507 H   0  0  0  0  0  0
  -28.5216  -25.8307   22.6848 H   0  0  0  0  0  0
  -29.9519  -25.0378   22.0377 H   0  0  0  0  0  0
  -28.7222  -24.0984   22.8833 H   0  0  0  0  0  0
  -27.0907  -24.5993   21.0989 H   0  0  0  0  0  0
  -28.8110  -15.9833   20.7763 H   0  0  0  0  0  0
  1 25  1  0  0  0
  1 30  2  0  0  0
  1 85  1  0  0  0
  2  3  1  0  0  0
  2 25  1  0  0  0
  2 86  1  0  0  0
  2 87  1  0  0  0
  3  4  1  0  0  0
  3 88  1  0  0  0
  3 89  1  0  0  0
  4  5  1  0  0  0
  4 90  1  0  0  0
  4 91  1  0  0  0
  5  6  1  0  0  0
  5 26  1  0  0  0
  5 92  1  0  0  0
  6 25  1  0  0  0
  6 93  1  0  0  0
  6 94  1  0  0  0
  7  8  2  0  0  0
  7 26  1  0  0  0
  7 29  1  0  0  0
  8  9  1  0  0  0
  8 22  1  0  0  0
  9 10  1  0  0  0
  9 27  2  0  0  0
 10 11  2  0  0  0
 10 15  1  0  0  0
 11 12  1  0  0  0
 11 95  1  0  0  0
 12 13  2  0  0  0
 12 96  1  0  0  0
 13 14  1  0  0  0
 13 31  1  0  0  0
 14 15  2  0  0  0
 14 97  1  0  0  0
 15 98  1  0  0  0
 16 17  2  0  0  0
 16 21  1  0  0  0
 16 31  1  0  0  0
 17 18  1  0  0  0
 17 99  1  0  0  0
 18 19  2  0  0  0
 18100  1  0  0  0
 19 20  1  0  0  0
 19 24  1  0  0  0
 20 21  2  0  0  0
 20101  1  0  0  0
 21 23  1  0  0  0
 22 28  1  0  0  0
 22 32  2  0  0  0
 26 27  1  0  0  0
 28102  1  0  0  0
 28103  1  0  0  0
 29104  1  0  0  0
 29105  1  0  0  0
 33 34  1  0  0  0
 33 66  1  0  0  0
 33 70  2  0  0  0
 34 36  1  0  0  0
 34 59  1  0  0  0
 34106  1  0  0  0
 35 44  2  0  0  0
 35 45  1  0  0  0
 35 68  1  0  0  0
 36 56  1  0  0  0
 36107  1  0  0  0
 37 39  1  0  0  0
 37 47  1  0  0  0
 37 66  1  0  0  0
 37108  1  0  0  0
 38 43  2  0  0  0
 38 46  1  0  0  0
 38 47  1  0  0  0
 39 64  1  0  0  0
 39 67  2  0  0  0
 40 52  1  0  0  0
 40 53  2  0  0  0
 40 58  1  0  0  0
 41109  1  0  0  0
 41110  1  0  0  0
 41111  1  0  0  0
 41 48  1  0  0  0
 42 43  1  0  0  0
 42 66  1  0  0  0
 42112  1  0  0  0
 42113  1  0  0  0
 43 44  1  0  0  0
 44114  1  0  0  0
 45 46  2  0  0  0
 45115  1  0  0  0
 46116  1  0  0  0
 47117  1  0  0  0
 47118  1  0  0  0
 48 56  1  0  0  0
 48 65  1  0  0  0
 48119  1  0  0  0
 49 50  1  0  0  0
 49 53  1  0  0  0
 49 64  1  0  0  0
 49120  1  0  0  0
 50 51  1  0  0  0
 50121  1  0  0  0
 50122  1  0  0  0
 51 52  1  0  0  0
 51123  1  0  0  0
 51124  1  0  0  0
 52125  1  0  0  0
 52126  1  0  0  0
 53 54  1  0  0  0
 54 55  2  0  0  0
 54127  1  0  0  0
 55 57  1  0  0  0
 55128  1  0  0  0
 56 69  2  0  0  0
 57 58  2  0  0  0
 57129  1  0  0  0
 58130  1  0  0  0
 59 60  1  0  0  0
 59 61  1  0  0  0
 59 62  1  0  0  0
 60131  1  0  0  0
 60132  1  0  0  0
 60133  1  0  0  0
 61134  1  0  0  0
 61135  1  0  0  0
 61136  1  0  0  0
 62137  1  0  0  0
 62138  1  0  0  0
 62139  1  0  0  0
 63 65  1  0  0  0
 63140  1  0  0  0
 63141  1  0  0  0
 63142  1  0  0  0
 64143  1  0  0  0
 65144  1  0  0  0
 68 83  1  0  0  0
 71 73  1  0  0  0
 71 74  2  0  0  0
 71145  1  0  0  0
 72 73  2  0  0  0
 72 84  1  0  0  0
 72146  1  0  0  0
 73 83  1  0  0  0
 74 84  1  0  0  0
 74 79  1  0  0  0
 75 78  1  0  0  0
 75 79  1  0  0  0
 75147  1  0  0  0
 75148  1  0  0  0
 76 77  1  0  0  0
 76 80  1  0  0  0
 76149  1  0  0  0
 76150  1  0  0  0
 77 80  1  0  0  0
 77151  1  0  0  0
 77152  1  0  0  0
 78 81  1  0  0  0
 78153  1  0  0  0
 78154  1  0  0  0
 79 81  1  0  0  0
 79155  1  0  0  0
 80 84  1  0  0  0
 80156  1  0  0  0
 81 85  1  0  0  0
 81157  1  0  0  0
 82158  1  0  0  0
 82159  1  0  0  0
 82160  1  0  0  0
 82 83  1  0  0  0
 83161  1  0  0  0
 85162  1  0  0  0
M  ISO  4   1 100  68 101  83 101  85 100
M  END
> <chiral flag>
0

> <version>
0

> <s_m_source_file>
/data/baiqing/PycharmProjects/Reinvent-master-3.2/result/LINK_invent/BTK/process_docking_weight1_custom_sum_contain_oxygen_bond_distance_aromatic_linkinvent_7_9_3/rearranged_h_0177.sdf

> <i_m_source_file_index>
80

> <r_mmod_Potential_Energy-OPLS-2005>
675.667907714844

> <r_mmod_Stretch_Energy-OPLS-2005>
302.769989013672

> <r_mmod_Bend_Energy-OPLS-2005>
309.080780029297

> <r_mmod_Torsional_Energy-OPLS-2005>
332.509887695312

> <r_mmod_Improper_Torsional_Energy-OPLS-2005>
7.93182325363159

> <r_mmod_Van_der_Waal_Energy-OPLS-2005>
100.818511962891

> <r_mmod_Electrostatic_Energy-OPLS-2005>
-384.302947998047

> <r_mmod_Solvation_Energy-OPLS-2005>
-205.664810180664

> <b_mmod_Minimization_Converged-OPLS-2005>
0

> <r_mmod_RMS_Derivative-OPLS-2005>
3.66522431373596

$$$$
80
                    3D
 Structure written by MMmdl.
165175  0  0  1  0            999 V2000
  -30.7430  -14.5647   20.5564 C   0  0  0  0  0  0
  -30.3910  -12.3763   19.4379 C   0  0  0  0  0  0
  -29.4915  -12.5400   18.1974 C   0  0  0  0  0  0
  -28.0077  -12.3953   18.5953 C   0  0  0  0  0  0
  -27.6404  -13.2242   19.8541 C   0  0  2  0  0  0
  -28.6841  -13.0652   20.9791 C   0  0  0  0  0  0
  -25.2509  -13.8180   20.5652 C   0  0  0  0  0  0
  -24.1781  -13.0437   20.9137 C   0  0  0  0  0  0
  -24.6358  -11.6907   20.8707 C   0  0  0  0  0  0
  -23.9016  -10.4290   21.0362 C   0  0  0  0  0  0
  -24.3576   -9.4230   21.9157 C   0  0  0  0  0  0
  -23.6268   -8.2248   22.0734 C   0  0  0  0  0  0
  -22.4225   -8.0289   21.3563 C   0  0  0  0  0  0
  -21.9866   -9.0235   20.4637 C   0  0  0  0  0  0
  -22.7178  -10.2119   20.3025 C   0  0  0  0  0  0
  -21.6834   -6.0697   22.5268 C   0  0  0  0  0  0
  -21.4026   -6.5590   23.8216 C   0  0  0  0  0  0
  -21.3667   -5.6730   24.9162 C   0  0  0  0  0  0
  -21.6061   -4.3009   24.7192 C   0  0  0  0  0  0
  -21.8839   -3.8105   23.4316 C   0  0  0  0  0  0
  -21.9220   -4.6936   22.3390 C   0  0  0  0  0  0
  -22.7830  -13.5290   21.1824 C   0  0  0  0  0  0
  -22.1673   -4.2115   21.0963 F   0  0  0  0  0  0
  -21.5642   -3.4509   25.7715 F   0  0  0  0  0  0
  -29.9867  -13.4256   20.4077 N   0  0  0  0  0  0
  -26.2906  -12.9383   20.3220 N   0  0  0  0  0  0
  -25.9276  -11.6532   20.5643 N   0  0  0  0  0  0
  -22.0403  -12.8327   22.0367 N   0  0  0  0  0  0
  -25.4197  -15.1894   20.4039 N   0  0  0  0  0  0
  -31.9328  -14.5002   20.2280 O   0  0  0  0  0  0
  -21.6634   -6.8842   21.4220 O   0  0  0  0  0  0
  -22.3554  -14.5612   20.6678 O   0  0  0  0  0  0
  -24.6259  -31.8620   23.2030 C   0  0  0  0  0  0
  -25.9116  -32.4795   23.8348 C   0  0  1  0  0  0
  -27.2013  -27.3039   20.1385 C   0  0  0  0  0  0
  -25.5989  -33.8599   24.2295 N   0  0  0  0  0  0
  -23.4194  -30.4888   21.5429 C   0  0  2  0  0  0
  -24.8658  -28.9497   20.1030 C   0  0  0  0  0  0
  -22.7486  -29.4627   22.4879 C   0  0  0  0  0  0
  -18.0292  -28.1432   22.8443 C   0  0  0  0  0  0
  -24.1524  -36.7327   23.2618 C   0  0  0  0  0  0
  -25.9604  -30.7867   21.3811 C   0  0  0  0  0  0
  -26.0305  -29.4123   20.7294 C   0  0  0  0  0  0
  -27.2022  -28.5966   20.7455 C   0  0  0  0  0  0
  -26.0299  -26.9172   19.4479 C   0  0  0  0  0  0
  -24.8704  -27.7127   19.4458 C   0  0  0  0  0  0
  -23.6372  -29.8333   20.1539 C   0  0  0  0  0  0
  -25.4138  -36.3092   24.0306 C   0  0  1  0  0  0
  -20.5890  -28.3738   23.1279 C   0  0  2  0  0  0
  -20.6819  -26.9465   22.5406 C   0  0  0  0  0  0
  -19.5801  -26.6404   21.5217 C   0  0  0  0  0  0
  -18.1967  -26.7981   22.1593 C   0  0  0  0  0  0
  -19.1536  -28.8888   23.2874 C   0  0  0  0  0  0
  -18.9456  -30.1488   23.8896 C   0  0  0  0  0  0
  -17.6457  -30.6615   24.0574 C   0  0  0  0  0  0
  -25.9044  -34.9458   23.5067 C   0  0  0  0  0  0
  -16.5347  -29.9113   23.6338 C   0  0  0  0  0  0
  -16.7279  -28.6548   23.0312 C   0  0  0  0  0  0
  -26.4492  -31.6595   25.0712 C   0  0  0  0  0  0
  -25.3712  -31.3767   26.1431 C   0  0  0  0  0  0
  -27.0285  -30.3003   24.6164 C   0  0  0  0  0  0
  -27.6077  -32.4293   25.7494 C   0  0  0  0  0  0
  -27.5615  -37.1815   24.8425 C   0  0  0  0  0  0
  -21.4178  -29.3098   22.3667 N   0  0  0  0  0  0
  -26.4321  -37.3788   23.9375 N   0  0  0  0  0  0
  -24.6868  -31.0617   22.1015 N   0  0  0  0  0  0
  -23.4206  -28.8158   23.2962 O   0  0  0  0  0  0
  -28.2800  -26.4080   20.2084 O   0  0  0  0  0  0
  -26.5572  -34.8916   22.4608 O   0  0  0  0  0  0
  -23.5420  -32.1417   23.7379 O   0  0  0  0  0  0
  -30.7255  -21.6701   20.0712 C   0  0  0  0  0  0
  -31.0704  -22.9511   19.6157 C   0  0  0  0  0  0
  -30.2156  -24.0248   19.7987 C   0  0  0  0  0  0
  -28.9789  -23.8411   20.4484 C   0  0  0  0  0  0
  -29.5098  -21.4890   20.7591 C   0  0  0  0  0  0
  -32.3665  -23.3449   18.9710 C   0  0  0  0  0  0
  -30.8343  -25.2989   19.2777 C   0  0  0  0  0  0
  -32.2040  -24.8545   18.6977 C   0  0  0  0  0  0
  -28.7773  -17.7521   21.8417 C   0  0  0  0  0  0
  -30.5911  -18.3525   20.2320 C   0  0  0  0  0  0
  -28.8976  -16.2513   21.3684 C   0  0  0  0  0  0
  -31.1468  -16.9811   20.7050 C   0  0  0  0  0  0
  -29.2485  -18.8549   20.8416 C   0  0  0  0  0  0
  -27.9401  -25.0118   20.6135 C   0  0  0  0  0  0
  -28.6659  -22.5721   20.9346 N   0  0  0  0  0  0
  -30.2059  -15.8294   20.7960 N   0  0  0  0  0  0
  -29.2184  -20.2454   21.4069 N   0  0  0  0  0  0
  -31.4403  -12.4284   19.1398 H   0  0  0  0  0  0
  -30.2629  -11.3756   19.8580 H   0  0  0  0  0  0
  -29.7573  -11.8093   17.4291 H   0  0  0  0  0  0
  -29.6654  -13.5241   17.7526 H   0  0  0  0  0  0
  -27.8107  -11.3375   18.7670 H   0  0  0  0  0  0
  -27.3742  -12.6950   17.7580 H   0  0  0  0  0  0
  -27.6605  -14.2600   19.5285 H   0  0  0  0  0  0
  -28.7030  -12.0328   21.3374 H   0  0  0  0  0  0
  -28.4256  -13.6487   21.8544 H   0  0  0  0  0  0
  -25.2711   -9.5751   22.4715 H   0  0  0  0  0  0
  -23.9992   -7.4669   22.7497 H   0  0  0  0  0  0
  -21.0773   -8.8742   19.8989 H   0  0  0  0  0  0
  -22.3617  -10.9627   19.6122 H   0  0  0  0  0  0
  -21.1979   -7.6089   23.9713 H   0  0  0  0  0  0
  -21.1485   -6.0438   25.9074 H   0  0  0  0  0  0
  -22.0619   -2.7568   23.2809 H   0  0  0  0  0  0
  -22.3899  -11.9942   22.4775 H   0  0  0  0  0  0
  -21.1058  -13.1501   22.2536 H   0  0  0  0  0  0
  -24.6610  -15.8487   20.5369 H   0  0  0  0  0  0
  -26.2658  -15.6285   20.0670 H   0  0  0  0  0  0
  -26.7182  -32.5466   23.1095 H   0  0  0  0  0  0
  -25.0296  -33.9764   25.0550 H   0  0  0  0  0  0
  -22.7126  -31.3101   21.4044 H   0  0  0  0  0  0
  -23.3777  -35.9665   23.3230 H   0  0  0  0  0  0
  -24.3636  -36.8997   22.2043 H   0  0  0  0  0  0
  -23.7288  -37.6518   23.6674 H   0  0  0  0  0  0
  -26.0855  -31.5436   20.6052 H   0  0  0  0  0  0
  -26.8452  -30.8425   22.0043 H   0  0  0  0  0  0
  -28.0874  -28.9301   21.2703 H   0  0  0  0  0  0
  -25.9890  -25.9895   18.8962 H   0  0  0  0  0  0
  -23.9894  -27.3710   18.9169 H   0  0  0  0  0  0
  -23.7642  -30.6144   19.4037 H   0  0  0  0  0  0
  -22.7568  -29.2674   19.8440 H   0  0  0  0  0  0
  -25.1328  -36.1926   25.0803 H   0  0  0  0  0  0
  -20.9980  -28.3346   24.1406 H   0  0  0  0  0  0
  -20.5793  -26.2344   23.3605 H   0  0  0  0  0  0
  -21.6693  -26.7574   22.1171 H   0  0  0  0  0  0
  -19.6990  -25.6297   21.1307 H   0  0  0  0  0  0
  -19.6793  -27.3165   20.6712 H   0  0  0  0  0  0
  -17.4269  -26.6715   21.3976 H   0  0  0  0  0  0
  -18.0363  -26.0145   22.9001 H   0  0  0  0  0  0
  -19.7915  -30.7318   24.2290 H   0  0  0  0  0  0
  -17.4991  -31.6288   24.5193 H   0  0  0  0  0  0
  -15.5344  -30.3007   23.7673 H   0  0  0  0  0  0
  -15.8681  -28.0888   22.6991 H   0  0  0  0  0  0
  -24.5888  -30.7123   25.7750 H   0  0  0  0  0  0
  -24.8903  -32.2951   26.4815 H   0  0  0  0  0  0
  -25.8006  -30.8961   27.0229 H   0  0  0  0  0  0
  -26.2818  -29.6797   24.1199 H   0  0  0  0  0  0
  -27.3958  -29.7240   25.4665 H   0  0  0  0  0  0
  -27.8725  -30.4253   23.9377 H   0  0  0  0  0  0
  -27.2710  -33.3577   26.2129 H   0  0  0  0  0  0
  -28.3886  -32.6872   25.0323 H   0  0  0  0  0  0
  -28.0757  -31.8367   26.5372 H   0  0  0  0  0  0
  -28.2560  -38.0187   24.7539 H   0  0  0  0  0  0
  -28.1187  -36.2708   24.6155 H   0  0  0  0  0  0
  -27.2339  -37.1347   25.8831 H   0  0  0  0  0  0
  -20.9344  -29.8807   21.6864 H   0  0  0  0  0  0
  -26.0187  -38.2854   24.1386 H   0  0  0  0  0  0
  -31.4639  -20.8979   19.9417 H   0  0  0  0  0  0
  -32.5329  -22.7808   18.0554 H   0  0  0  0  0  0
  -33.1937  -23.1495   19.6520 H   0  0  0  0  0  0
  -30.9695  -26.0099   20.0966 H   0  0  0  0  0  0
  -30.2107  -25.7680   18.5140 H   0  0  0  0  0  0
  -32.2281  -25.0347   17.6222 H   0  0  0  0  0  0
  -33.0245  -25.4298   19.1323 H   0  0  0  0  0  0
  -29.3423  -17.8503   22.7696 H   0  0  0  0  0  0
  -27.7373  -17.9314   22.1252 H   0  0  0  0  0  0
  -30.5079  -18.3542   19.1434 H   0  0  0  0  0  0
  -31.4003  -19.0212   20.4815 H   0  0  0  0  0  0
  -28.1201  -16.0556   20.6350 H   0  0  0  0  0  0
  -28.6747  -15.6502   22.2474 H   0  0  0  0  0  0
  -31.5980  -17.1054   21.6902 H   0  0  0  0  0  0
  -31.9863  -16.7970   20.0324 H   0  0  0  0  0  0
  -28.5181  -18.8480   20.0274 H   0  0  0  0  0  0
  -27.6550  -25.0440   21.6645 H   0  0  0  0  0  0
  -27.0560  -24.6513   20.0929 H   0  0  0  0  0  0
  -28.6154  -20.3367   22.2236 H   0  0  0  0  0  0
  1 25  1  0  0  0
  1 30  2  0  0  0
  1 86  1  0  0  0
  2  3  1  0  0  0
  2 25  1  0  0  0
  2 88  1  0  0  0
  2 89  1  0  0  0
  3  4  1  0  0  0
  3 90  1  0  0  0
  3 91  1  0  0  0
  4  5  1  0  0  0
  4 92  1  0  0  0
  4 93  1  0  0  0
  5  6  1  0  0  0
  5 26  1  0  0  0
  5 94  1  0  0  0
  6 25  1  0  0  0
  6 95  1  0  0  0
  6 96  1  0  0  0
  7  8  2  0  0  0
  7 26  1  0  0  0
  7 29  1  0  0  0
  8  9  1  0  0  0
  8 22  1  0  0  0
  9 10  1  0  0  0
  9 27  2  0  0  0
 10 11  2  0  0  0
 10 15  1  0  0  0
 11 12  1  0  0  0
 11 97  1  0  0  0
 12 13  2  0  0  0
 12 98  1  0  0  0
 13 14  1  0  0  0
 13 31  1  0  0  0
 14 15  2  0  0  0
 14 99  1  0  0  0
 15100  1  0  0  0
 16 17  2  0  0  0
 16 21  1  0  0  0
 16 31  1  0  0  0
 17 18  1  0  0  0
 17101  1  0  0  0
 18 19  2  0  0  0
 18102  1  0  0  0
 19 20  1  0  0  0
 19 24  1  0  0  0
 20 21  2  0  0  0
 20103  1  0  0  0
 21 23  1  0  0  0
 22 28  1  0  0  0
 22 32  2  0  0  0
 26 27  1  0  0  0
 28104  1  0  0  0
 28105  1  0  0  0
 29106  1  0  0  0
 29107  1  0  0  0
 33 34  1  0  0  0
 33 66  1  0  0  0
 33 70  2  0  0  0
 34 36  1  0  0  0
 34 59  1  0  0  0
 34108  1  0  0  0
 35 44  2  0  0  0
 35 45  1  0  0  0
 35 68  1  0  0  0
 36 56  1  0  0  0
 36109  1  0  0  0
 37 39  1  0  0  0
 37 47  1  0  0  0
 37 66  1  0  0  0
 37110  1  0  0  0
 38 43  2  0  0  0
 38 46  1  0  0  0
 38 47  1  0  0  0
 39 64  1  0  0  0
 39 67  2  0  0  0
 40 52  1  0  0  0
 40 53  2  0  0  0
 40 58  1  0  0  0
 41111  1  0  0  0
 41112  1  0  0  0
 41113  1  0  0  0
 41 48  1  0  0  0
 42 43  1  0  0  0
 42 66  1  0  0  0
 42114  1  0  0  0
 42115  1  0  0  0
 43 44  1  0  0  0
 44116  1  0  0  0
 45 46  2  0  0  0
 45117  1  0  0  0
 46118  1  0  0  0
 47119  1  0  0  0
 47120  1  0  0  0
 48 56  1  0  0  0
 48 65  1  0  0  0
 48121  1  0  0  0
 49 50  1  0  0  0
 49 53  1  0  0  0
 49 64  1  0  0  0
 49122  1  0  0  0
 50 51  1  0  0  0
 50123  1  0  0  0
 50124  1  0  0  0
 51 52  1  0  0  0
 51125  1  0  0  0
 51126  1  0  0  0
 52127  1  0  0  0
 52128  1  0  0  0
 53 54  1  0  0  0
 54 55  2  0  0  0
 54129  1  0  0  0
 55 57  1  0  0  0
 55130  1  0  0  0
 56 69  2  0  0  0
 57 58  2  0  0  0
 57131  1  0  0  0
 58132  1  0  0  0
 59 60  1  0  0  0
 59 61  1  0  0  0
 59 62  1  0  0  0
 60133  1  0  0  0
 60134  1  0  0  0
 60135  1  0  0  0
 61136  1  0  0  0
 61137  1  0  0  0
 61138  1  0  0  0
 62139  1  0  0  0
 62140  1  0  0  0
 62141  1  0  0  0
 63 65  1  0  0  0
 63142  1  0  0  0
 63143  1  0  0  0
 63144  1  0  0  0
 64145  1  0  0  0
 65146  1  0  0  0
 68 84  1  0  0  0
 71 72  2  0  0  0
 71 75  1  0  0  0
 71147  1  0  0  0
 72 73  1  0  0  0
 72 76  1  0  0  0
 73 74  2  0  0  0
 73 77  1  0  0  0
 74 84  1  0  0  0
 74 85  1  0  0  0
 75 85  2  0  0  0
 75 87  1  0  0  0
 76 78  1  0  0  0
 76148  1  0  0  0
 76149  1  0  0  0
 77 78  1  0  0  0
 77150  1  0  0  0
 77151  1  0  0  0
 78152  1  0  0  0
 78153  1  0  0  0
 79 81  1  0  0  0
 79 83  1  0  0  0
 79154  1  0  0  0
 79155  1  0  0  0
 80 82  1  0  0  0
 80 83  1  0  0  0
 80156  1  0  0  0
 80157  1  0  0  0
 81 86  1  0  0  0
 81158  1  0  0  0
 81159  1  0  0  0
 82 86  1  0  0  0
 82160  1  0  0  0
 82161  1  0  0  0
 83 87  1  0  0  0
 83162  1  0  0  0
 84163  1  0  0  0
 84164  1  0  0  0
 87165  1  0  0  0
M  ISO  4   1 100  68 101  84 101  86 100
M  END
> <chiral flag>
0

> <version>
0

> <s_m_source_file>
/data/baiqing/PycharmProjects/Reinvent-master-3.2/result/LINK_invent/BTK/process_docking_weight1_custom_sum_contain_oxygen_bond_distance_aromatic_linkinvent_7_9_3/rearranged_h_0177.sdf

> <i_m_source_file_index>
81

> <r_mmod_Potential_Energy-OPLS-2005>
211.803573608398

> <r_mmod_Stretch_Energy-OPLS-2005>
90.3914108276367

> <r_mmod_Bend_Energy-OPLS-2005>
236.744171142578

> <r_mmod_Torsional_Energy-OPLS-2005>
356.934875488281

> <r_mmod_Improper_Torsional_Energy-OPLS-2005>
8.3653678894043

> <r_mmod_Van_der_Waal_Energy-OPLS-2005>
170.895202636719

> <r_mmod_Electrostatic_Energy-OPLS-2005>
-480.483093261719

> <r_mmod_Solvation_Energy-OPLS-2005>
-227.266937255859

> <b_mmod_Minimization_Converged-OPLS-2005>
0

> <r_mmod_RMS_Derivative-OPLS-2005>
9.09138584136963

$$$$
81
                    3D
 Structure written by MMmdl.
160169  0  0  1  0            999 V2000
  -30.0562  -16.3471   20.4070 C   0  0  0  0  0  0
  -30.4005  -13.5326   19.6429 C   0  0  0  0  0  0
  -29.6062  -12.8915   18.4331 C   0  0  0  0  0  0
  -28.2202  -12.3933   18.8512 C   0  0  0  0  0  0
  -27.6112  -13.4018   19.8349 C   0  0  2  0  0  0
  -28.5783  -13.9150   20.9525 C   0  0  0  0  0  0
  -25.2321  -13.8446   20.5893 C   0  0  0  0  0  0
  -24.1776  -13.0494   20.9298 C   0  0  0  0  0  0
  -24.6596  -11.7037   20.8722 C   0  0  0  0  0  0
  -23.9281  -10.4348   21.0359 C   0  0  0  0  0  0
  -24.3755   -9.4236   21.9154 C   0  0  0  0  0  0
  -23.6372   -8.2293   22.0749 C   0  0  0  0  0  0
  -22.4342   -8.0326   21.3551 C   0  0  0  0  0  0
  -22.0027   -9.0324   20.4647 C   0  0  0  0  0  0
  -22.7419  -10.2180   20.3032 C   0  0  0  0  0  0
  -21.6885   -6.0762   22.5267 C   0  0  0  0  0  0
  -21.4039   -6.5655   23.8200 C   0  0  0  0  0  0
  -21.3658   -5.6800   24.9154 C   0  0  0  0  0  0
  -21.6043   -4.3063   24.7208 C   0  0  0  0  0  0
  -21.8825   -3.8163   23.4326 C   0  0  0  0  0  0
  -21.9207   -4.6985   22.3383 C   0  0  0  0  0  0
  -22.7748  -13.5113   21.1961 C   0  0  0  0  0  0
  -22.1669   -4.2152   21.0965 F   0  0  0  0  0  0
  -21.5619   -3.4545   25.7729 F   0  0  0  0  0  0
  -29.7198  -14.7761   20.3926 N   0  0  0  0  0  0
  -26.2929  -12.9985   20.3346 N   0  0  0  0  0  0
  -25.9588  -11.6955   20.5642 N   0  0  0  0  0  0
  -22.0419  -12.8068   22.0501 N   0  0  0  0  0  0
  -25.3781  -15.2206   20.4367 N   0  0  0  0  0  0
  -31.0446  -16.0885   19.6259 O   0  0  0  0  0  0
  -21.6681   -6.8922   21.4240 O   0  0  0  0  0  0
  -22.3400  -14.5400   20.6793 O   0  0  0  0  0  0
  -24.7310  -31.7450   23.1120 C   0  0  0  0  0  0
  -25.9651  -32.4208   23.7869 C   0  0  1  0  0  0
  -27.2528  -26.2074   20.3032 C   0  0  0  0  0  0
  -25.6029  -33.8055   24.1706 N   0  0  0  0  0  0
  -23.5772  -30.3225   21.4751 C   0  0  2  0  0  0
  -25.0355  -28.5473   20.1474 C   0  0  0  0  0  0
  -22.7956  -29.4066   22.4580 C   0  0  0  0  0  0
  -18.0381  -28.1455   22.8415 C   0  0  0  0  0  0
  -24.1467  -36.7017   23.2666 C   0  0  0  0  0  0
  -26.1724  -30.3057   21.4561 C   0  0  0  0  0  0
  -26.2300  -28.8128   20.8264 C   0  0  0  0  0  0
  -27.2990  -27.6948   20.8541 C   0  0  0  0  0  0
  -26.0237  -26.2767   19.5449 C   0  0  0  0  0  0
  -24.9993  -27.3022   19.4814 C   0  0  0  0  0  0
  -23.8583  -29.5696   20.1331 C   0  0  0  0  0  0
  -25.4143  -36.2734   24.0251 C   0  0  1  0  0  0
  -20.6025  -28.3850   23.1036 C   0  0  2  0  0  0
  -20.6815  -26.9462   22.5402 C   0  0  0  0  0  0
  -19.5799  -26.6353   21.5216 C   0  0  0  0  0  0
  -18.1979  -26.7971   22.1605 C   0  0  0  0  0  0
  -19.1648  -28.8994   23.2688 C   0  0  0  0  0  0
  -18.9559  -30.1556   23.8756 C   0  0  0  0  0  0
  -17.6540  -30.6636   24.0543 C   0  0  0  0  0  0
  -25.9166  -34.9144   23.4862 C   0  0  0  0  0  0
  -16.5432  -29.9098   23.6366 C   0  0  0  0  0  0
  -16.7342  -28.6525   23.0369 C   0  0  0  0  0  0
  -26.4672  -31.6456   25.0706 C   0  0  0  0  0  0
  -25.3614  -31.3901   26.1237 C   0  0  0  0  0  0
  -27.0729  -30.2755   24.6995 C   0  0  0  0  0  0
  -27.6027  -32.4446   25.7559 C   0  0  0  0  0  0
  -27.5536  -37.1658   24.8475 C   0  0  0  0  0  0
  -21.4568  -29.3015   22.3304 N   0  0  0  0  0  0
  -26.4217  -37.3564   23.9439 N   0  0  0  0  0  0
  -24.8575  -30.8381   22.0661 N   0  0  0  0  0  0
  -23.4176  -28.7729   23.3139 O   0  0  0  0  0  0
  -28.1987  -24.7956   20.3058 O   0  0  0  0  0  0
  -26.5872  -34.8821   22.4528 O   0  0  0  0  0  0
  -23.6242  -32.0774   23.5770 O   0  0  0  0  0  0
  -29.5860  -16.1421   22.6310 C   0  0  0  0  0  0
  -28.3737  -17.3133   21.7190 C   0  0  0  0  0  0
  -31.5058  -16.7023   22.1454 C   0  0  0  0  0  0
  -28.2434  -17.7325   24.2609 C   0  0  0  0  0  0
  -27.8753  -19.5178   22.7654 C   0  0  0  0  0  0
  -29.8083  -18.0742   24.1595 C   0  0  0  0  0  0
  -29.4517  -19.6951   22.8548 C   0  0  0  0  0  0
  -27.5642  -18.0012   22.8417 C   0  0  0  0  0  0
  -32.8491  -16.0985   22.4407 C   0  0  0  0  0  0
  -28.9643  -20.7050   20.0766 C   0  0  0  0  0  0
  -28.2965  -22.7908   20.5854 C   0  0  0  0  0  0
  -31.3271  -18.2485   20.8311 N   0  0  0  0  0  0
  -29.3823  -18.7349   20.5627 N   0  0  0  0  0  0
  -30.0941  -18.2832   22.6141 N   0  0  0  0  0  0
  -31.3800  -13.8059   19.2517 H   0  0  0  0  0  0
  -30.6518  -12.7440   20.3567 H   0  0  0  0  0  0
  -30.1800  -12.0678   18.0009 H   0  0  0  0  0  0
  -29.4985  -13.6404   17.6459 H   0  0  0  0  0  0
  -28.3428  -11.4326   19.3509 H   0  0  0  0  0  0
  -27.5747  -12.2228   17.9885 H   0  0  0  0  0  0
  -27.4216  -14.2800   19.2157 H   0  0  0  0  0  0
  -28.9314  -13.1040   21.5911 H   0  0  0  0  0  0
  -27.9675  -14.5250   21.6123 H   0  0  0  0  0  0
  -25.2883   -9.5664   22.4775 H   0  0  0  0  0  0
  -24.0034   -7.4670   22.7488 H   0  0  0  0  0  0
  -21.0942   -8.8886   19.8956 H   0  0  0  0  0  0
  -22.3873  -10.9730   19.6150 H   0  0  0  0  0  0
  -21.2048   -7.6160   23.9700 H   0  0  0  0  0  0
  -21.1467   -6.0527   25.9052 H   0  0  0  0  0  0
  -22.0610   -2.7622   23.2833 H   0  0  0  0  0  0
  -22.4076  -11.9736   22.4887 H   0  0  0  0  0  0
  -21.0993  -13.1013   22.2674 H   0  0  0  0  0  0
  -24.6005  -15.8577   20.5676 H   0  0  0  0  0  0
  -26.2132  -15.6769   20.1032 H   0  0  0  0  0  0
  -26.7808  -32.4554   23.0639 H   0  0  0  0  0  0
  -25.0012  -33.9017   24.9747 H   0  0  0  0  0  0
  -22.9323  -31.1727   21.2478 H   0  0  0  0  0  0
  -23.3791  -35.9282   23.3229 H   0  0  0  0  0  0
  -24.3515  -36.8817   22.2104 H   0  0  0  0  0  0
  -23.7147  -37.6112   23.6857 H   0  0  0  0  0  0
  -26.4305  -30.9900   20.6486 H   0  0  0  0  0  0
  -27.0039  -30.3943   22.1389 H   0  0  0  0  0  0
  -28.1951  -27.9337   21.4096 H   0  0  0  0  0  0
  -25.7807  -25.3756   18.9948 H   0  0  0  0  0  0
  -24.1144  -27.0796   18.8989 H   0  0  0  0  0  0
  -24.0870  -30.3135   19.3687 H   0  0  0  0  0  0
  -22.9474  -29.0718   19.7913 H   0  0  0  0  0  0
  -25.1367  -36.1441   25.0733 H   0  0  0  0  0  0
  -21.0100  -28.3518   24.1164 H   0  0  0  0  0  0
  -20.5663  -26.2480   23.3702 H   0  0  0  0  0  0
  -21.6658  -26.7331   22.1229 H   0  0  0  0  0  0
  -19.6955  -25.6228   21.1320 H   0  0  0  0  0  0
  -19.6758  -27.3089   20.6689 H   0  0  0  0  0  0
  -17.4245  -26.6685   21.4021 H   0  0  0  0  0  0
  -18.0389  -26.0168   22.9061 H   0  0  0  0  0  0
  -19.8037  -30.7403   24.2048 H   0  0  0  0  0  0
  -17.5102  -31.6296   24.5179 H   0  0  0  0  0  0
  -15.5421  -30.2968   23.7799 H   0  0  0  0  0  0
  -15.8728  -28.0812   22.7159 H   0  0  0  0  0  0
  -24.5753  -30.7362   25.7456 H   0  0  0  0  0  0
  -24.8893  -32.3187   26.4452 H   0  0  0  0  0  0
  -25.7658  -30.9108   27.0164 H   0  0  0  0  0  0
  -26.3581  -29.6176   24.2064 H   0  0  0  0  0  0
  -27.4045  -29.7455   25.5933 H   0  0  0  0  0  0
  -27.9581  -30.3806   24.0731 H   0  0  0  0  0  0
  -27.2498  -33.3869   26.1766 H   0  0  0  0  0  0
  -28.4025  -32.6814   25.0531 H   0  0  0  0  0  0
  -28.0497  -31.8831   26.5776 H   0  0  0  0  0  0
  -28.2480  -38.0023   24.7575 H   0  0  0  0  0  0
  -28.1107  -36.2549   24.6240 H   0  0  0  0  0  0
  -27.2267  -37.1206   25.8876 H   0  0  0  0  0  0
  -20.9998  -29.8552   21.6182 H   0  0  0  0  0  0
  -26.0013  -38.2589   24.1493 H   0  0  0  0  0  0
  -29.3247  -15.3816   23.3519 H   0  0  0  0  0  0
  -27.7795  -18.3212   25.0572 H   0  0  0  0  0  0
  -28.0836  -16.7021   24.5868 H   0  0  0  0  0  0
  -27.4278  -19.9394   21.8752 H   0  0  0  0  0  0
  -27.3864  -20.0464   23.5844 H   0  0  0  0  0  0
  -30.3981  -17.2504   24.5722 H   0  0  0  0  0  0
  -30.1466  -18.8088   24.8950 H   0  0  0  0  0  0
  -29.8957  -20.4456   22.2157 H   0  0  0  0  0  0
  -29.6527  -20.2793   23.7514 H   0  0  0  0  0  0
  -26.4996  -17.7556   22.8147 H   0  0  0  0  0  0
  -33.5648  -16.8501   22.7718 H   0  0  0  0  0  0
  -33.2442  -15.6536   21.5246 H   0  0  0  0  0  0
  -32.7865  -15.3050   23.1882 H   0  0  0  0  0  0
  -29.9433  -20.9701   19.6808 H   0  0  0  0  0  0
  -28.3672  -20.5737   19.1725 H   0  0  0  0  0  0
  -28.8909  -22.8772   21.4945 H   0  0  0  0  0  0
  -27.2904  -22.5871   20.9584 H   0  0  0  0  0  0
  1 25  1  0  0  0
  1 30  2  0  0  0
  1 84  1  0  0  0
  2  3  1  0  0  0
  2 25  1  0  0  0
  2 85  1  0  0  0
  2 86  1  0  0  0
  3  4  1  0  0  0
  3 87  1  0  0  0
  3 88  1  0  0  0
  4  5  1  0  0  0
  4 89  1  0  0  0
  4 90  1  0  0  0
  5  6  1  0  0  0
  5 26  1  0  0  0
  5 91  1  0  0  0
  6 25  1  0  0  0
  6 92  1  0  0  0
  6 93  1  0  0  0
  7  8  2  0  0  0
  7 26  1  0  0  0
  7 29  1  0  0  0
  8  9  1  0  0  0
  8 22  1  0  0  0
  9 10  1  0  0  0
  9 27  2  0  0  0
 10 11  2  0  0  0
 10 15  1  0  0  0
 11 12  1  0  0  0
 11 94  1  0  0  0
 12 13  2  0  0  0
 12 95  1  0  0  0
 13 14  1  0  0  0
 13 31  1  0  0  0
 14 15  2  0  0  0
 14 96  1  0  0  0
 15 97  1  0  0  0
 16 17  2  0  0  0
 16 21  1  0  0  0
 16 31  1  0  0  0
 17 18  1  0  0  0
 17 98  1  0  0  0
 18 19  2  0  0  0
 18 99  1  0  0  0
 19 20  1  0  0  0
 19 24  1  0  0  0
 20 21  2  0  0  0
 20100  1  0  0  0
 21 23  1  0  0  0
 22 28  1  0  0  0
 22 32  2  0  0  0
 26 27  1  0  0  0
 28101  1  0  0  0
 28102  1  0  0  0
 29103  1  0  0  0
 29104  1  0  0  0
 33 34  1  0  0  0
 33 66  1  0  0  0
 33 70  2  0  0  0
 34 36  1  0  0  0
 34 59  1  0  0  0
 34105  1  0  0  0
 35 44  2  0  0  0
 35 45  1  0  0  0
 35 68  1  0  0  0
 36 56  1  0  0  0
 36106  1  0  0  0
 37 39  1  0  0  0
 37 47  1  0  0  0
 37 66  1  0  0  0
 37107  1  0  0  0
 38 43  2  0  0  0
 38 46  1  0  0  0
 38 47  1  0  0  0
 39 64  1  0  0  0
 39 67  2  0  0  0
 40 52  1  0  0  0
 40 53  2  0  0  0
 40 58  1  0  0  0
 41108  1  0  0  0
 41109  1  0  0  0
 41110  1  0  0  0
 41 48  1  0  0  0
 42 43  1  0  0  0
 42 66  1  0  0  0
 42111  1  0  0  0
 42112  1  0  0  0
 43 44  1  0  0  0
 44113  1  0  0  0
 45 46  2  0  0  0
 45114  1  0  0  0
 46115  1  0  0  0
 47116  1  0  0  0
 47117  1  0  0  0
 48 56  1  0  0  0
 48 65  1  0  0  0
 48118  1  0  0  0
 49 50  1  0  0  0
 49 53  1  0  0  0
 49 64  1  0  0  0
 49119  1  0  0  0
 50 51  1  0  0  0
 50120  1  0  0  0
 50121  1  0  0  0
 51 52  1  0  0  0
 51122  1  0  0  0
 51123  1  0  0  0
 52124  1  0  0  0
 52125  1  0  0  0
 53 54  1  0  0  0
 54 55  2  0  0  0
 54126  1  0  0  0
 55 57  1  0  0  0
 55127  1  0  0  0
 56 69  2  0  0  0
 57 58  2  0  0  0
 57128  1  0  0  0
 58129  1  0  0  0
 59 60  1  0  0  0
 59 61  1  0  0  0
 59 62  1  0  0  0
 60130  1  0  0  0
 60131  1  0  0  0
 60132  1  0  0  0
 61133  1  0  0  0
 61134  1  0  0  0
 61135  1  0  0  0
 62136  1  0  0  0
 62137  1  0  0  0
 62138  1  0  0  0
 63 65  1  0  0  0
 63139  1  0  0  0
 63140  1  0  0  0
 63141  1  0  0  0
 64142  1  0  0  0
 65143  1  0  0  0
 68 81  1  0  0  0
 71 72  2  0  0  0
 71 73  1  0  0  0
 71144  1  0  0  0
 72 83  1  0  0  0
 72 78  1  0  0  0
 73 79  1  0  0  0
 73 82  2  0  0  0
 74 76  1  0  0  0
 74 78  1  0  0  0
 74145  1  0  0  0
 74146  1  0  0  0
 75 77  1  0  0  0
 75 78  1  0  0  0
 75147  1  0  0  0
 75148  1  0  0  0
 76 84  1  0  0  0
 76149  1  0  0  0
 76150  1  0  0  0
 77 84  1  0  0  0
 77151  1  0  0  0
 77152  1  0  0  0
 78153  1  0  0  0
 79154  1  0  0  0
 79155  1  0  0  0
 79156  1  0  0  0
 80 81  1  0  0  0
 80 83  1  0  0  0
 80157  1  0  0  0
 80158  1  0  0  0
 81159  1  0  0  0
 81160  1  0  0  0
 82 83  1  0  0  0
M  ISO  4   1 100  68 101  81 101  84 100
M  END
> <chiral flag>
0

> <version>
0

> <s_m_source_file>
/data/baiqing/PycharmProjects/Reinvent-master-3.2/result/LINK_invent/BTK/process_docking_weight1_custom_sum_contain_oxygen_bond_distance_aromatic_linkinvent_7_9_3/rearranged_h_0177.sdf

> <i_m_source_file_index>
82

> <r_mmod_Potential_Energy-OPLS-2005>
18448.0078125

> <r_mmod_Stretch_Energy-OPLS-2005>
11578.658203125

> <r_mmod_Bend_Energy-OPLS-2005>
1163.51354980469

> <r_mmod_Torsional_Energy-OPLS-2005>
474.039886474609

> <r_mmod_Improper_Torsional_Energy-OPLS-2005>
99.8391189575195

> <r_mmod_Van_der_Waal_Energy-OPLS-2005>
3465.88891601562

> <r_mmod_Electrostatic_Energy-OPLS-2005>
-299.512268066406

> <r_mmod_Solvation_Energy-OPLS-2005>
-231.056549072266

> <b_mmod_Minimization_Converged-OPLS-2005>
0

> <r_mmod_RMS_Derivative-OPLS-2005>
11.9408979415894

$$$$
82
                    3D
 Structure written by MMmdl.
156165  0  0  1  0            999 V2000
  -30.5877  -14.7830   20.4208 C   0  0  0  0  0  0
  -30.4354  -12.4729   19.4668 C   0  0  0  0  0  0
  -29.5078  -12.4949   18.2314 C   0  0  0  0  0  0
  -28.0376  -12.3085   18.6556 C   0  0  0  0  0  0
  -27.6386  -13.2264   19.8420 C   0  0  2  0  0  0
  -28.6868  -13.1816   20.9742 C   0  0  0  0  0  0
  -25.2519  -13.8171   20.5691 C   0  0  0  0  0  0
  -24.1806  -13.0428   20.9214 C   0  0  0  0  0  0
  -24.6390  -11.6902   20.8765 C   0  0  0  0  0  0
  -23.9064  -10.4286   21.0416 C   0  0  0  0  0  0
  -24.3613   -9.4202   21.9195 C   0  0  0  0  0  0
  -23.6292   -8.2236   22.0758 C   0  0  0  0  0  0
  -22.4279   -8.0276   21.3546 C   0  0  0  0  0  0
  -21.9910   -9.0245   20.4642 C   0  0  0  0  0  0
  -22.7238  -10.2129   20.3057 C   0  0  0  0  0  0
  -21.6848   -6.0735   22.5284 C   0  0  0  0  0  0
  -21.4005   -6.5640   23.8216 C   0  0  0  0  0  0
  -21.3659   -5.6795   24.9173 C   0  0  0  0  0  0
  -21.6040   -4.3056   24.7223 C   0  0  0  0  0  0
  -21.8819   -3.8146   23.4346 C   0  0  0  0  0  0
  -21.9193   -4.6965   22.3404 C   0  0  0  0  0  0
  -22.7833  -13.5225   21.1863 C   0  0  0  0  0  0
  -22.1662   -4.2154   21.0982 F   0  0  0  0  0  0
  -21.5629   -3.4539   25.7733 F   0  0  0  0  0  0
  -29.9777  -13.5464   20.3781 N   0  0  0  0  0  0
  -26.2927  -12.9369   20.3266 N   0  0  0  0  0  0
  -25.9320  -11.6522   20.5759 N   0  0  0  0  0  0
  -22.0473  -12.8213   22.0414 N   0  0  0  0  0  0
  -25.4206  -15.1889   20.4068 N   0  0  0  0  0  0
  -31.7885  -14.8758   20.1540 O   0  0  0  0  0  0
  -21.6641   -6.8876   21.4247 O   0  0  0  0  0  0
  -22.3530  -14.5542   20.6725 O   0  0  0  0  0  0
  -24.6343  -31.8536   23.1940 C   0  0  0  0  0  0
  -25.9160  -32.4753   23.8302 C   0  0  1  0  0  0
  -27.2181  -27.2361   20.1327 C   0  0  0  0  0  0
  -25.5954  -33.8550   24.2245 N   0  0  0  0  0  0
  -23.4324  -30.4756   21.5380 C   0  0  2  0  0  0
  -24.8800  -28.9135   20.1119 C   0  0  0  0  0  0
  -22.7523  -29.4602   22.4893 C   0  0  0  0  0  0
  -18.0295  -28.1398   22.8482 C   0  0  0  0  0  0
  -24.1488  -36.7249   23.2633 C   0  0  0  0  0  0
  -25.9804  -30.7578   21.3755 C   0  0  0  0  0  0
  -26.0549  -29.3765   20.7210 C   0  0  0  0  0  0
  -27.2315  -28.5523   20.7155 C   0  0  0  0  0  0
  -26.0218  -26.8440   19.5000 C   0  0  0  0  0  0
  -24.8708  -27.6563   19.4885 C   0  0  0  0  0  0
  -23.6529  -29.8060   20.1566 C   0  0  0  0  0  0
  -25.4101  -36.3053   24.0341 C   0  0  1  0  0  0
  -20.5904  -28.3707   23.1257 C   0  0  2  0  0  0
  -20.6789  -26.9425   22.5395 C   0  0  0  0  0  0
  -19.5764  -26.6388   21.5207 C   0  0  0  0  0  0
  -18.1940  -26.7939   22.1620 C   0  0  0  0  0  0
  -19.1553  -28.8866   23.2875 C   0  0  0  0  0  0
  -18.9482  -30.1460   23.8898 C   0  0  0  0  0  0
  -17.6487  -30.6598   24.0561 C   0  0  0  0  0  0
  -25.9061  -34.9437   23.5093 C   0  0  0  0  0  0
  -16.5373  -29.9097   23.6344 C   0  0  0  0  0  0
  -16.7285  -28.6514   23.0360 C   0  0  0  0  0  0
  -26.4520  -31.6570   25.0689 C   0  0  0  0  0  0
  -25.3744  -31.3714   26.1408 C   0  0  0  0  0  0
  -27.0368  -30.2996   24.6141 C   0  0  0  0  0  0
  -27.6082  -32.4300   25.7464 C   0  0  0  0  0  0
  -27.5594  -37.1734   24.8442 C   0  0  0  0  0  0
  -21.4227  -29.3061   22.3648 N   0  0  0  0  0  0
  -26.4250  -37.3783   23.9476 N   0  0  0  0  0  0
  -24.7022  -31.0485   22.0923 N   0  0  0  0  0  0
  -23.4220  -28.8154   23.3003 O   0  0  0  0  0  0
  -28.2845  -26.3029   20.1266 O   0  0  0  0  0  0
  -26.5637  -34.8935   22.4658 O   0  0  0  0  0  0
  -23.5489  -32.1358   23.7228 O   0  0  0  0  0  0
  -28.9351  -22.3751   21.1066 C   0  0  0  0  0  0
  -28.5201  -23.5304   20.3172 C   0  0  0  0  0  0
  -29.0409  -21.2414   20.3015 C   0  0  0  0  0  0
  -30.0762  -17.9794   22.0262 C   0  0  0  0  0  0
  -29.9984  -19.5244   21.9152 C   0  0  0  0  0  0
  -29.3338  -18.5653   19.8374 C   0  0  0  0  0  0
  -30.1757  -17.4155   20.5993 C   0  0  2  0  0  0
  -28.5933  -21.0518   17.7792 C   0  0  0  0  0  0
  -28.0556  -24.9830   20.8294 C   0  0  0  0  0  0
  -28.3839  -23.0992   19.0616 N   0  0  0  0  0  0
  -28.6840  -21.7488   19.0479 N   0  0  0  0  0  0
  -29.4223  -19.8550   20.6184 N   0  0  0  0  0  0
  -29.7954  -15.9219   20.5517 N   0  0  0  0  0  0
  -31.4749  -12.6048   19.1613 H   0  0  0  0  0  0
  -30.3910  -11.5032   19.9658 H   0  0  0  0  0  0
  -29.7945  -11.7100   17.5304 H   0  0  0  0  0  0
  -29.6194  -13.4400   17.6970 H   0  0  0  0  0  0
  -27.9140  -11.2640   18.9450 H   0  0  0  0  0  0
  -27.3700  -12.4674   17.8081 H   0  0  0  0  0  0
  -27.6252  -14.2411   19.4442 H   0  0  0  0  0  0
  -28.7367  -12.1855   21.4165 H   0  0  0  0  0  0
  -28.4215  -13.8641   21.7834 H   0  0  0  0  0  0
  -25.2753   -9.5681   22.4775 H   0  0  0  0  0  0
  -23.9998   -7.4626   22.7477 H   0  0  0  0  0  0
  -21.0846   -8.8759   19.8946 H   0  0  0  0  0  0
  -22.3697  -10.9667   19.6165 H   0  0  0  0  0  0
  -21.1993   -7.6146   23.9722 H   0  0  0  0  0  0
  -21.1478   -6.0519   25.9077 H   0  0  0  0  0  0
  -22.0599   -2.7612   23.2845 H   0  0  0  0  0  0
  -22.4082  -11.9858   22.4771 H   0  0  0  0  0  0
  -21.1088  -13.1242   22.2617 H   0  0  0  0  0  0
  -24.6479  -15.8373   20.5041 H   0  0  0  0  0  0
  -26.2537  -15.6234   20.0312 H   0  0  0  0  0  0
  -26.7217  -32.5398   23.1036 H   0  0  0  0  0  0
  -25.0155  -33.9689   25.0428 H   0  0  0  0  0  0
  -22.7285  -31.2972   21.3873 H   0  0  0  0  0  0
  -23.3802  -35.9527   23.3227 H   0  0  0  0  0  0
  -24.3604  -36.8925   22.2062 H   0  0  0  0  0  0
  -23.7167  -37.6403   23.6683 H   0  0  0  0  0  0
  -26.1151  -31.5141   20.6011 H   0  0  0  0  0  0
  -26.8607  -30.8122   22.0049 H   0  0  0  0  0  0
  -28.1327  -28.9042   21.1965 H   0  0  0  0  0  0
  -25.9709  -25.8740   19.0247 H   0  0  0  0  0  0
  -23.9740  -27.2954   19.0042 H   0  0  0  0  0  0
  -23.7785  -30.5812   19.3991 H   0  0  0  0  0  0
  -22.7704  -29.2419   19.8518 H   0  0  0  0  0  0
  -25.1259  -36.1872   25.0828 H   0  0  0  0  0  0
  -20.9986  -28.3280   24.1384 H   0  0  0  0  0  0
  -20.5684  -26.2326   23.3604 H   0  0  0  0  0  0
  -21.6653  -26.7446   22.1183 H   0  0  0  0  0  0
  -19.6940  -25.6303   21.1228 H   0  0  0  0  0  0
  -19.6710  -27.3207   20.6748 H   0  0  0  0  0  0
  -17.4210  -26.6702   21.4024 H   0  0  0  0  0  0
  -18.0335  -26.0074   22.9004 H   0  0  0  0  0  0
  -19.7967  -30.7263   24.2279 H   0  0  0  0  0  0
  -17.5053  -31.6286   24.5148 H   0  0  0  0  0  0
  -15.5375  -30.3008   23.7673 H   0  0  0  0  0  0
  -15.8680  -28.0829   22.7092 H   0  0  0  0  0  0
  -24.5953  -30.7023   25.7729 H   0  0  0  0  0  0
  -24.8907  -32.2883   26.4782 H   0  0  0  0  0  0
  -25.8066  -30.8930   27.0207 H   0  0  0  0  0  0
  -26.2939  -29.6738   24.1178 H   0  0  0  0  0  0
  -27.4107  -29.7238   25.4618 H   0  0  0  0  0  0
  -27.8787  -30.4304   23.9341 H   0  0  0  0  0  0
  -27.2708  -33.3616   26.2009 H   0  0  0  0  0  0
  -28.3910  -32.6817   25.0298 H   0  0  0  0  0  0
  -28.0726  -31.8434   26.5401 H   0  0  0  0  0  0
  -28.2456  -38.0184   24.7705 H   0  0  0  0  0  0
  -28.1245  -36.2732   24.5964 H   0  0  0  0  0  0
  -27.2372  -37.0983   25.8846 H   0  0  0  0  0  0
  -20.9405  -29.8789   21.6861 H   0  0  0  0  0  0
  -26.0119  -38.2819   24.1631 H   0  0  0  0  0  0
  -29.0949  -22.3810   22.1743 H   0  0  0  0  0  0
  -29.1584  -17.6192   22.4933 H   0  0  0  0  0  0
  -30.9034  -17.6580   22.6602 H   0  0  0  0  0  0
  -30.9966  -19.9594   21.9713 H   0  0  0  0  0  0
  -29.4075  -19.9468   22.7287 H   0  0  0  0  0  0
  -28.2839  -18.2781   19.7672 H   0  0  0  0  0  0
  -29.7021  -18.6933   18.8189 H   0  0  0  0  0  0
  -31.2140  -17.5102   20.2747 H   0  0  0  0  0  0
  -29.5925  -20.7803   17.4391 H   0  0  0  0  0  0
  -28.1216  -21.6836   17.0250 H   0  0  0  0  0  0
  -27.9916  -20.1510   17.8940 H   0  0  0  0  0  0
  -28.5287  -25.1268   21.8003 H   0  0  0  0  0  0
  -26.9981  -24.9046   21.0795 H   0  0  0  0  0  0
  -28.8158  -15.7289   20.6930 H   0  0  0  0  0  0
  1 25  1  0  0  0
  1 30  2  0  0  0
  1 83  1  0  0  0
  2  3  1  0  0  0
  2 25  1  0  0  0
  2 84  1  0  0  0
  2 85  1  0  0  0
  3  4  1  0  0  0
  3 86  1  0  0  0
  3 87  1  0  0  0
  4  5  1  0  0  0
  4 88  1  0  0  0
  4 89  1  0  0  0
  5  6  1  0  0  0
  5 26  1  0  0  0
  5 90  1  0  0  0
  6 25  1  0  0  0
  6 91  1  0  0  0
  6 92  1  0  0  0
  7  8  2  0  0  0
  7 26  1  0  0  0
  7 29  1  0  0  0
  8  9  1  0  0  0
  8 22  1  0  0  0
  9 10  1  0  0  0
  9 27  2  0  0  0
 10 11  2  0  0  0
 10 15  1  0  0  0
 11 12  1  0  0  0
 11 93  1  0  0  0
 12 13  2  0  0  0
 12 94  1  0  0  0
 13 14  1  0  0  0
 13 31  1  0  0  0
 14 15  2  0  0  0
 14 95  1  0  0  0
 15 96  1  0  0  0
 16 17  2  0  0  0
 16 21  1  0  0  0
 16 31  1  0  0  0
 17 18  1  0  0  0
 17 97  1  0  0  0
 18 19  2  0  0  0
 18 98  1  0  0  0
 19 20  1  0  0  0
 19 24  1  0  0  0
 20 21  2  0  0  0
 20 99  1  0  0  0
 21 23  1  0  0  0
 22 28  1  0  0  0
 22 32  2  0  0  0
 26 27  1  0  0  0
 28100  1  0  0  0
 28101  1  0  0  0
 29102  1  0  0  0
 29103  1  0  0  0
 33 34  1  0  0  0
 33 66  1  0  0  0
 33 70  2  0  0  0
 34 36  1  0  0  0
 34 59  1  0  0  0
 34104  1  0  0  0
 35 44  2  0  0  0
 35 45  1  0  0  0
 35 68  1  0  0  0
 36 56  1  0  0  0
 36105  1  0  0  0
 37 39  1  0  0  0
 37 47  1  0  0  0
 37 66  1  0  0  0
 37106  1  0  0  0
 38 43  2  0  0  0
 38 46  1  0  0  0
 38 47  1  0  0  0
 39 64  1  0  0  0
 39 67  2  0  0  0
 40 52  1  0  0  0
 40 53  2  0  0  0
 40 58  1  0  0  0
 41107  1  0  0  0
 41108  1  0  0  0
 41109  1  0  0  0
 41 48  1  0  0  0
 42 43  1  0  0  0
 42 66  1  0  0  0
 42110  1  0  0  0
 42111  1  0  0  0
 43 44  1  0  0  0
 44112  1  0  0  0
 45 46  2  0  0  0
 45113  1  0  0  0
 46114  1  0  0  0
 47115  1  0  0  0
 47116  1  0  0  0
 48 56  1  0  0  0
 48 65  1  0  0  0
 48117  1  0  0  0
 49 50  1  0  0  0
 49 53  1  0  0  0
 49 64  1  0  0  0
 49118  1  0  0  0
 50 51  1  0  0  0
 50119  1  0  0  0
 50120  1  0  0  0
 51 52  1  0  0  0
 51121  1  0  0  0
 51122  1  0  0  0
 52123  1  0  0  0
 52124  1  0  0  0
 53 54  1  0  0  0
 54 55  2  0  0  0
 54125  1  0  0  0
 55 57  1  0  0  0
 55126  1  0  0  0
 56 69  2  0  0  0
 57 58  2  0  0  0
 57127  1  0  0  0
 58128  1  0  0  0
 59 60  1  0  0  0
 59 61  1  0  0  0
 59 62  1  0  0  0
 60129  1  0  0  0
 60130  1  0  0  0
 60131  1  0  0  0
 61132  1  0  0  0
 61133  1  0  0  0
 61134  1  0  0  0
 62135  1  0  0  0
 62136  1  0  0  0
 62137  1  0  0  0
 63 65  1  0  0  0
 63138  1  0  0  0
 63139  1  0  0  0
 63140  1  0  0  0
 64141  1  0  0  0
 65142  1  0  0  0
 68 79  1  0  0  0
 71 72  1  0  0  0
 71 73  2  0  0  0
 71143  1  0  0  0
 72 79  1  0  0  0
 72 80  2  0  0  0
 73 81  1  0  0  0
 73 82  1  0  0  0
 74 75  1  0  0  0
 74 77  1  0  0  0
 74144  1  0  0  0
 74145  1  0  0  0
 75 82  1  0  0  0
 75146  1  0  0  0
 75147  1  0  0  0
 76 77  1  0  0  0
 76 82  1  0  0  0
 76148  1  0  0  0
 76149  1  0  0  0
 77 83  1  0  0  0
 77150  1  0  0  0
 78 81  1  0  0  0
 78151  1  0  0  0
 78152  1  0  0  0
 78153  1  0  0  0
 79154  1  0  0  0
 79155  1  0  0  0
 80 81  1  0  0  0
 83156  1  0  0  0
M  ISO  4   1 100  68 101  79 101  83 100
M  END
> <chiral flag>
0

> <version>
0

> <s_m_source_file>
/data/baiqing/PycharmProjects/Reinvent-master-3.2/result/LINK_invent/BTK/process_docking_weight1_custom_sum_contain_oxygen_bond_distance_aromatic_linkinvent_7_9_3/rearranged_h_0177.sdf

> <i_m_source_file_index>
83

> <r_mmod_Potential_Energy-OPLS-2005>
206.923950195312

> <r_mmod_Stretch_Energy-OPLS-2005>
129.375198364258

> <r_mmod_Bend_Energy-OPLS-2005>
222.95295715332

> <r_mmod_Torsional_Energy-OPLS-2005>
287.883148193359

> <r_mmod_Improper_Torsional_Energy-OPLS-2005>
5.6556453704834

> <r_mmod_Van_der_Waal_Energy-OPLS-2005>
109.426010131836

> <r_mmod_Electrostatic_Energy-OPLS-2005>
-409.252777099609

> <r_mmod_Solvation_Energy-OPLS-2005>
-243.897644042969

> <b_mmod_Minimization_Converged-OPLS-2005>
0

> <r_mmod_RMS_Derivative-OPLS-2005>
2.12048363685608

$$$$
83
                    3D
 Structure written by MMmdl.
162171  0  0  1  0            999 V2000
  -30.5496  -14.7169   20.6271 C   0  0  0  0  0  0
  -30.4298  -12.4820   19.5043 C   0  0  0  0  0  0
  -29.5132  -12.5903   18.2584 C   0  0  0  0  0  0
  -28.0298  -12.4060   18.6320 C   0  0  0  0  0  0
  -27.6363  -13.2441   19.8775 C   0  0  2  0  0  0
  -28.6565  -13.0977   21.0276 C   0  0  0  0  0  0
  -25.2411  -13.8270   20.5616 C   0  0  0  0  0  0
  -24.1678  -13.0479   20.9136 C   0  0  0  0  0  0
  -24.6306  -11.7007   20.8683 C   0  0  0  0  0  0
  -23.9004  -10.4356   21.0325 C   0  0  0  0  0  0
  -24.3582   -9.4309   21.9122 C   0  0  0  0  0  0
  -23.6284   -8.2315   22.0765 C   0  0  0  0  0  0
  -22.4286   -8.0272   21.3546 C   0  0  0  0  0  0
  -21.9878   -9.0244   20.4672 C   0  0  0  0  0  0
  -22.7176  -10.2151   20.3024 C   0  0  0  0  0  0
  -21.6854   -6.0713   22.5250 C   0  0  0  0  0  0
  -21.4056   -6.5626   23.8188 C   0  0  0  0  0  0
  -21.3680   -5.6777   24.9145 C   0  0  0  0  0  0
  -21.6029   -4.3032   24.7182 C   0  0  0  0  0  0
  -21.8846   -3.8137   23.4304 C   0  0  0  0  0  0
  -21.9229   -4.6949   22.3372 C   0  0  0  0  0  0
  -22.7726  -13.5314   21.1711 C   0  0  0  0  0  0
  -22.1663   -4.2136   21.0952 F   0  0  0  0  0  0
  -21.5641   -3.4534   25.7702 F   0  0  0  0  0  0
  -29.9821  -13.4693   20.5159 N   0  0  0  0  0  0
  -26.2812  -12.9458   20.3271 N   0  0  0  0  0  0
  -25.9234  -11.6594   20.5701 N   0  0  0  0  0  0
  -22.0288  -12.8400   22.0310 N   0  0  0  0  0  0
  -25.4163  -15.1979   20.4168 N   0  0  0  0  0  0
  -31.6297  -14.9565   20.0760 O   0  0  0  0  0  0
  -21.6661   -6.8845   21.4218 O   0  0  0  0  0  0
  -22.3419  -14.5523   20.6409 O   0  0  0  0  0  0
  -24.6318  -31.8568   23.1991 C   0  0  0  0  0  0
  -25.9124  -32.4825   23.8371 C   0  0  1  0  0  0
  -27.2156  -27.2282   20.2330 C   0  0  0  0  0  0
  -25.5920  -33.8618   24.2332 N   0  0  0  0  0  0
  -23.4423  -30.4767   21.5303 C   0  0  2  0  0  0
  -24.8974  -28.9199   20.1183 C   0  0  0  0  0  0
  -22.7581  -29.4601   22.4785 C   0  0  0  0  0  0
  -18.0330  -28.1438   22.8515 C   0  0  0  0  0  0
  -24.1479  -36.7285   23.2657 C   0  0  0  0  0  0
  -25.9810  -30.7720   21.3858 C   0  0  0  0  0  0
  -26.0526  -29.3795   20.7595 C   0  0  0  0  0  0
  -27.2108  -28.5414   20.8192 C   0  0  0  0  0  0
  -26.0577  -26.8616   19.5203 C   0  0  0  0  0  0
  -24.9056  -27.6712   19.4798 C   0  0  0  0  0  0
  -23.6782  -29.8152   20.1424 C   0  0  0  0  0  0
  -25.4099  -36.3136   24.0364 C   0  0  1  0  0  0
  -20.5954  -28.3765   23.1238 C   0  0  2  0  0  0
  -20.6829  -26.9480   22.5402 C   0  0  0  0  0  0
  -19.5767  -26.6438   21.5244 C   0  0  0  0  0  0
  -18.1938  -26.7987   22.1640 C   0  0  0  0  0  0
  -19.1588  -28.8917   23.2872 C   0  0  0  0  0  0
  -18.9493  -30.1511   23.8919 C   0  0  0  0  0  0
  -17.6479  -30.6611   24.0626 C   0  0  0  0  0  0
  -25.9009  -34.9491   23.5132 C   0  0  0  0  0  0
  -16.5378  -29.9127   23.6350 C   0  0  0  0  0  0
  -16.7315  -28.6558   23.0348 C   0  0  0  0  0  0
  -26.4481  -31.6669   25.0751 C   0  0  0  0  0  0
  -25.3698  -31.3847   26.1482 C   0  0  0  0  0  0
  -27.0404  -30.3141   24.6213 C   0  0  0  0  0  0
  -27.6064  -32.4399   25.7503 C   0  0  0  0  0  0
  -27.5561  -37.1812   24.8461 C   0  0  0  0  0  0
  -21.4278  -29.3078   22.3587 N   0  0  0  0  0  0
  -26.4275  -37.3809   23.9407 N   0  0  0  0  0  0
  -24.7011  -31.0551   22.0941 N   0  0  0  0  0  0
  -23.4228  -28.8139   23.2915 O   0  0  0  0  0  0
  -28.3016  -26.3262   20.3082 O   0  0  0  0  0  0
  -26.5542  -34.8950   22.4677 O   0  0  0  0  0  0
  -23.5436  -32.1333   23.7231 O   0  0  0  0  0  0
  -29.0025  -24.3057   21.6550 C   0  0  0  0  0  0
  -27.3860  -22.7310   20.1288 C   0  0  0  0  0  0
  -28.9673  -22.8885   21.8985 C   0  0  0  0  0  0
  -28.1151  -22.0332   21.1348 C   0  0  0  0  0  0
  -28.2082  -24.9241   20.6448 C   0  0  0  0  0  0
  -30.5040  -18.0213   20.1679 C   0  0  0  0  0  0
  -29.8064  -19.4050   20.1521 C   0  0  0  0  0  0
  -29.0253  -18.1551   22.0482 C   0  0  0  0  0  0
  -29.4930  -17.1450   20.9283 C   0  0  1  0  0  0
  -29.8760  -22.2843   22.9683 C   0  0  0  0  0  0
  -26.6936  -19.7690   20.7609 C   0  0  0  0  0  0
  -27.9007  -20.4739   21.4733 C   0  0  1  0  0  0
  -27.4338  -24.0897   19.8900 N   0  0  0  0  0  0
  -29.8071  -15.6921   21.2714 N   0  0  0  0  0  0
  -29.1258  -19.5603   21.4658 N   0  3  2  0  0  0
  -31.4712  -12.6438   19.2245 H   0  0  0  0  0  0
  -30.3882  -11.4793   19.9246 H   0  0  0  0  0  0
  -29.8082  -11.8681   17.4970 H   0  0  0  0  0  0
  -29.6491  -13.5769   17.8131 H   0  0  0  0  0  0
  -27.8451  -11.3453   18.7997 H   0  0  0  0  0  0
  -27.3991  -12.6952   17.7864 H   0  0  0  0  0  0
  -27.6467  -14.2859   19.5558 H   0  0  0  0  0  0
  -28.6712  -12.0768   21.4051 H   0  0  0  0  0  0
  -28.3491  -13.7172   21.8734 H   0  0  0  0  0  0
  -25.2729   -9.5808   22.4696 H   0  0  0  0  0  0
  -24.0026   -7.4737   22.7518 H   0  0  0  0  0  0
  -21.0791   -8.8714   19.9002 H   0  0  0  0  0  0
  -22.3558  -10.9645   19.6133 H   0  0  0  0  0  0
  -21.2032   -7.6148   23.9670 H   0  0  0  0  0  0
  -21.1463   -6.0504   25.9036 H   0  0  0  0  0  0
  -22.0603   -2.7592   23.2792 H   0  0  0  0  0  0
  -22.3857  -12.0260   22.5070 H   0  0  0  0  0  0
  -21.0853  -13.1463   22.2237 H   0  0  0  0  0  0
  -24.6517  -15.8632   20.4876 H   0  0  0  0  0  0
  -26.2959  -15.6406   20.1733 H   0  0  0  0  0  0
  -26.7198  -32.5543   23.1129 H   0  0  0  0  0  0
  -25.0259  -33.9767   25.0622 H   0  0  0  0  0  0
  -22.7418  -31.2973   21.3759 H   0  0  0  0  0  0
  -23.3762  -35.9591   23.3349 H   0  0  0  0  0  0
  -24.3589  -36.8841   22.2062 H   0  0  0  0  0  0
  -23.7173  -37.6488   23.6613 H   0  0  0  0  0  0
  -26.0978  -31.5238   20.6030 H   0  0  0  0  0  0
  -26.8659  -30.8483   22.0056 H   0  0  0  0  0  0
  -28.0880  -28.8891   21.3474 H   0  0  0  0  0  0
  -26.0409  -25.9163   19.0005 H   0  0  0  0  0  0
  -24.0384  -27.3175   18.9433 H   0  0  0  0  0  0
  -23.8308  -30.5967   19.3960 H   0  0  0  0  0  0
  -22.8033  -29.2536   19.8178 H   0  0  0  0  0  0
  -25.1277  -36.2008   25.0851 H   0  0  0  0  0  0
  -21.0050  -28.3351   24.1348 H   0  0  0  0  0  0
  -20.5818  -26.2362   23.3607 H   0  0  0  0  0  0
  -21.6669  -26.7523   22.1121 H   0  0  0  0  0  0
  -19.6900  -25.6353   21.1246 H   0  0  0  0  0  0
  -19.6671  -27.3290   20.6797 H   0  0  0  0  0  0
  -17.4218  -26.6804   21.4022 H   0  0  0  0  0  0
  -18.0264  -26.0126   22.9016 H   0  0  0  0  0  0
  -19.7979  -30.7354   24.2233 H   0  0  0  0  0  0
  -17.5043  -31.6292   24.5242 H   0  0  0  0  0  0
  -15.5381  -30.3028   23.7683 H   0  0  0  0  0  0
  -15.8723  -28.0924   22.6969 H   0  0  0  0  0  0
  -24.5816  -30.7255   25.7808 H   0  0  0  0  0  0
  -24.8943  -32.3058   26.4896 H   0  0  0  0  0  0
  -25.7975  -30.9024   27.0283 H   0  0  0  0  0  0
  -26.3044  -29.6850   24.1199 H   0  0  0  0  0  0
  -27.4143  -29.7420   25.4708 H   0  0  0  0  0  0
  -27.8860  -30.4549   23.9478 H   0  0  0  0  0  0
  -27.2726  -33.3711   26.2093 H   0  0  0  0  0  0
  -28.3868  -32.6922   25.0317 H   0  0  0  0  0  0
  -28.0746  -31.8508   26.5400 H   0  0  0  0  0  0
  -28.2598  -38.0098   24.7550 H   0  0  0  0  0  0
  -28.1037  -36.2628   24.6264 H   0  0  0  0  0  0
  -27.2287  -37.1471   25.8869 H   0  0  0  0  0  0
  -20.9409  -29.8899   21.6927 H   0  0  0  0  0  0
  -26.0183  -38.2882   24.1429 H   0  0  0  0  0  0
  -29.6603  -24.9192   22.2625 H   0  0  0  0  0  0
  -26.7147  -22.1793   19.4841 H   0  0  0  0  0  0
  -31.4654  -18.1031   20.6861 H   0  0  0  0  0  0
  -30.6936  -17.6758   19.1526 H   0  0  0  0  0  0
  -29.0544  -19.3829   19.3640 H   0  0  0  0  0  0
  -30.4682  -20.2395   19.9126 H   0  0  0  0  0  0
  -28.0500  -17.8982   22.4697 H   0  0  0  0  0  0
  -29.6937  -18.1038   22.9040 H   0  0  0  0  0  0
  -28.6147  -17.0679   20.2814 H   0  0  0  0  0  0
  -29.3024  -21.8049   23.7639 H   0  0  0  0  0  0
  -30.5154  -23.0429   23.4196 H   0  0  0  0  0  0
  -30.5377  -21.5327   22.5321 H   0  0  0  0  0  0
  -26.8154  -19.6234   19.6817 H   0  0  0  0  0  0
  -25.7628  -20.3071   20.9296 H   0  0  0  0  0  0
  -26.5007  -18.7727   21.1733 H   0  0  0  0  0  0
  -27.6106  -20.5061   22.5297 H   0  0  0  0  0  0
  -29.1285  -15.2951   21.9083 H   0  0  0  0  0  0
  -29.7753  -20.0283   22.0822 H   0  0  0  0  0  0
  1 25  1  0  0  0
  1 30  2  0  0  0
  1 84  1  0  0  0
  2  3  1  0  0  0
  2 25  1  0  0  0
  2 86  1  0  0  0
  2 87  1  0  0  0
  3  4  1  0  0  0
  3 88  1  0  0  0
  3 89  1  0  0  0
  4  5  1  0  0  0
  4 90  1  0  0  0
  4 91  1  0  0  0
  5  6  1  0  0  0
  5 26  1  0  0  0
  5 92  1  0  0  0
  6 25  1  0  0  0
  6 93  1  0  0  0
  6 94  1  0  0  0
  7  8  2  0  0  0
  7 26  1  0  0  0
  7 29  1  0  0  0
  8  9  1  0  0  0
  8 22  1  0  0  0
  9 10  1  0  0  0
  9 27  2  0  0  0
 10 11  2  0  0  0
 10 15  1  0  0  0
 11 12  1  0  0  0
 11 95  1  0  0  0
 12 13  2  0  0  0
 12 96  1  0  0  0
 13 14  1  0  0  0
 13 31  1  0  0  0
 14 15  2  0  0  0
 14 97  1  0  0  0
 15 98  1  0  0  0
 16 17  2  0  0  0
 16 21  1  0  0  0
 16 31  1  0  0  0
 17 18  1  0  0  0
 17 99  1  0  0  0
 18 19  2  0  0  0
 18100  1  0  0  0
 19 20  1  0  0  0
 19 24  1  0  0  0
 20 21  2  0  0  0
 20101  1  0  0  0
 21 23  1  0  0  0
 22 28  1  0  0  0
 22 32  2  0  0  0
 26 27  1  0  0  0
 28102  1  0  0  0
 28103  1  0  0  0
 29104  1  0  0  0
 29105  1  0  0  0
 33 34  1  0  0  0
 33 66  1  0  0  0
 33 70  2  0  0  0
 34 36  1  0  0  0
 34 59  1  0  0  0
 34106  1  0  0  0
 35 44  2  0  0  0
 35 45  1  0  0  0
 35 68  1  0  0  0
 36 56  1  0  0  0
 36107  1  0  0  0
 37 39  1  0  0  0
 37 47  1  0  0  0
 37 66  1  0  0  0
 37108  1  0  0  0
 38 43  2  0  0  0
 38 46  1  0  0  0
 38 47  1  0  0  0
 39 64  1  0  0  0
 39 67  2  0  0  0
 40 52  1  0  0  0
 40 53  2  0  0  0
 40 58  1  0  0  0
 41109  1  0  0  0
 41110  1  0  0  0
 41111  1  0  0  0
 41 48  1  0  0  0
 42 43  1  0  0  0
 42 66  1  0  0  0
 42112  1  0  0  0
 42113  1  0  0  0
 43 44  1  0  0  0
 44114  1  0  0  0
 45 46  2  0  0  0
 45115  1  0  0  0
 46116  1  0  0  0
 47117  1  0  0  0
 47118  1  0  0  0
 48 56  1  0  0  0
 48 65  1  0  0  0
 48119  1  0  0  0
 49 50  1  0  0  0
 49 53  1  0  0  0
 49 64  1  0  0  0
 49120  1  0  0  0
 50 51  1  0  0  0
 50121  1  0  0  0
 50122  1  0  0  0
 51 52  1  0  0  0
 51123  1  0  0  0
 51124  1  0  0  0
 52125  1  0  0  0
 52126  1  0  0  0
 53 54  1  0  0  0
 54 55  2  0  0  0
 54127  1  0  0  0
 55 57  1  0  0  0
 55128  1  0  0  0
 56 69  2  0  0  0
 57 58  2  0  0  0
 57129  1  0  0  0
 58130  1  0  0  0
 59 60  1  0  0  0
 59 61  1  0  0  0
 59 62  1  0  0  0
 60131  1  0  0  0
 60132  1  0  0  0
 60133  1  0  0  0
 61134  1  0  0  0
 61135  1  0  0  0
 61136  1  0  0  0
 62137  1  0  0  0
 62138  1  0  0  0
 62139  1  0  0  0
 63 65  1  0  0  0
 63140  1  0  0  0
 63141  1  0  0  0
 63142  1  0  0  0
 64143  1  0  0  0
 65144  1  0  0  0
 68 75  1  0  0  0
 71 73  2  0  0  0
 71 75  1  0  0  0
 71145  1  0  0  0
 72 74  2  0  0  0
 72 83  1  0  0  0
 72146  1  0  0  0
 73 74  1  0  0  0
 73 80  1  0  0  0
 74 82  1  0  0  0
 75 83  2  0  0  0
 76 77  1  0  0  0
 76 79  1  0  0  0
 76147  1  0  0  0
 76148  1  0  0  0
 77149  1  0  0  0
 77150  1  0  0  0
 77 85  1  0  0  0
 78 79  1  0  0  0
 78 85  1  0  0  0
 78151  1  0  0  0
 78152  1  0  0  0
 79 84  1  0  0  0
 79153  1  0  0  0
 80154  1  0  0  0
 80155  1  0  0  0
 80156  1  0  0  0
 81157  1  0  0  0
 81158  1  0  0  0
 81159  1  0  0  0
 81 82  1  0  0  0
 82 85  1  0  0  0
 82160  1  0  0  0
 84161  1  0  0  0
 85162  1  0  0  0
M  CHG  1  85   1
M  ISO  4   1 100  68 101  75 101  84 100
M  END
> <chiral flag>
0

> <version>
0

> <s_m_source_file>
/data/baiqing/PycharmProjects/Reinvent-master-3.2/result/LINK_invent/BTK/process_docking_weight1_custom_sum_contain_oxygen_bond_distance_aromatic_linkinvent_7_9_3/rearranged_h_0177.sdf

> <i_m_source_file_index>
84

> <r_mmod_Potential_Energy-OPLS-2005>
24.4300346374512

> <r_mmod_Stretch_Energy-OPLS-2005>
108.695617675781

> <r_mmod_Bend_Energy-OPLS-2005>
205.341064453125

> <r_mmod_Torsional_Energy-OPLS-2005>
281.480834960938

> <r_mmod_Improper_Torsional_Energy-OPLS-2005>
4.91586446762085

> <r_mmod_Van_der_Waal_Energy-OPLS-2005>
136.720291137695

> <r_mmod_Electrostatic_Energy-OPLS-2005>
-340.469635009766

> <r_mmod_Solvation_Energy-OPLS-2005>
-473.556488037109

> <b_mmod_Minimization_Converged-OPLS-2005>
0

> <r_mmod_RMS_Derivative-OPLS-2005>
11.6505880355835

$$$$
84
                    3D
 Structure written by MMmdl.
157166  0  0  1  0            999 V2000
  -30.5932  -14.8198   20.3409 C   0  0  0  0  0  0
  -30.4403  -12.4799   19.4713 C   0  0  0  0  0  0
  -29.5192  -12.5196   18.2304 C   0  0  0  0  0  0
  -28.0441  -12.3429   18.6458 C   0  0  0  0  0  0
  -27.6480  -13.2401   19.8510 C   0  0  2  0  0  0
  -28.7049  -13.2128   20.9808 C   0  0  0  0  0  0
  -25.2562  -13.8164   20.5771 C   0  0  0  0  0  0
  -24.1843  -13.0443   20.9223 C   0  0  0  0  0  0
  -24.6430  -11.6931   20.8729 C   0  0  0  0  0  0
  -23.9100  -10.4302   21.0396 C   0  0  0  0  0  0
  -24.3653   -9.4212   21.9184 C   0  0  0  0  0  0
  -23.6329   -8.2248   22.0735 C   0  0  0  0  0  0
  -22.4303   -8.0296   21.3545 C   0  0  0  0  0  0
  -21.9943   -9.0265   20.4632 C   0  0  0  0  0  0
  -22.7250  -10.2155   20.3035 C   0  0  0  0  0  0
  -21.6854   -6.0745   22.5277 C   0  0  0  0  0  0
  -21.4005   -6.5640   23.8208 C   0  0  0  0  0  0
  -21.3664   -5.6779   24.9176 C   0  0  0  0  0  0
  -21.6053   -4.3044   24.7207 C   0  0  0  0  0  0
  -21.8823   -3.8145   23.4327 C   0  0  0  0  0  0
  -21.9203   -4.6975   22.3397 C   0  0  0  0  0  0
  -22.7864  -13.5258   21.1876 C   0  0  0  0  0  0
  -22.1681   -4.2193   21.0954 F   0  0  0  0  0  0
  -21.5645   -3.4516   25.7700 F   0  0  0  0  0  0
  -29.9990  -13.5694   20.3788 N   0  0  0  0  0  0
  -26.3024  -12.9444   20.3324 N   0  0  0  0  0  0
  -25.9376  -11.6587   20.5781 N   0  0  0  0  0  0
  -22.0503  -12.8233   22.0383 N   0  0  0  0  0  0
  -25.4203  -15.1902   20.4220 N   0  0  0  0  0  0
  -31.7813  -14.9091   20.0229 O   0  0  0  0  0  0
  -21.6663   -6.8889   21.4246 O   0  0  0  0  0  0
  -22.3576  -14.5587   20.6709 O   0  0  0  0  0  0
  -24.6349  -31.8537   23.1871 C   0  0  0  0  0  0
  -25.9169  -32.4723   23.8240 C   0  0  1  0  0  0
  -27.2398  -27.2431   20.0747 C   0  0  0  0  0  0
  -25.5985  -33.8527   24.2178 N   0  0  0  0  0  0
  -23.4320  -30.4634   21.5342 C   0  0  2  0  0  0
  -24.8815  -28.8987   20.0997 C   0  0  0  0  0  0
  -22.7509  -29.4581   22.4935 C   0  0  0  0  0  0
  -18.0292  -28.1393   22.8489 C   0  0  0  0  0  0
  -24.1451  -36.7192   23.2570 C   0  0  0  0  0  0
  -25.9765  -30.7492   21.3701 C   0  0  0  0  0  0
  -26.0506  -29.3672   20.7103 C   0  0  0  0  0  0
  -27.2241  -28.5429   20.7015 C   0  0  0  0  0  0
  -26.0462  -26.8413   19.4449 C   0  0  0  0  0  0
  -24.8840  -27.6442   19.4646 C   0  0  0  0  0  0
  -23.6447  -29.7800   20.1549 C   0  0  0  0  0  0
  -25.4036  -36.2999   24.0332 C   0  0  1  0  0  0
  -20.5924  -28.3721   23.1246 C   0  0  2  0  0  0
  -20.6803  -26.9430   22.5394 C   0  0  0  0  0  0
  -19.5764  -26.6407   21.5208 C   0  0  0  0  0  0
  -18.1944  -26.7947   22.1606 C   0  0  0  0  0  0
  -19.1556  -28.8866   23.2866 C   0  0  0  0  0  0
  -18.9485  -30.1471   23.8871 C   0  0  0  0  0  0
  -17.6486  -30.6584   24.0569 C   0  0  0  0  0  0
  -25.9101  -34.9430   23.5053 C   0  0  0  0  0  0
  -16.5387  -29.9075   23.6349 C   0  0  0  0  0  0
  -16.7285  -28.6520   23.0350 C   0  0  0  0  0  0
  -26.4531  -31.6555   25.0643 C   0  0  0  0  0  0
  -25.3761  -31.3729   26.1381 C   0  0  0  0  0  0
  -27.0363  -30.2972   24.6121 C   0  0  0  0  0  0
  -27.6115  -32.4258   25.7411 C   0  0  0  0  0  0
  -27.5697  -37.1495   24.8252 C   0  0  0  0  0  0
  -21.4230  -29.3053   22.3639 N   0  0  0  0  0  0
  -26.4065  -37.3885   23.9766 N   0  0  0  0  0  0
  -24.7000  -31.0443   22.0851 N   0  0  0  0  0  0
  -23.4208  -28.8164   23.3059 O   0  0  0  0  0  0
  -28.3486  -26.3617   20.1421 O   0  0  0  0  0  0
  -26.5704  -34.8945   22.4639 O   0  0  0  0  0  0
  -23.5495  -32.1378   23.7149 O   0  0  0  0  0  0
  -29.1263  -22.4720   19.5891 C   0  0  0  0  0  0
  -28.2217  -23.6163   19.5986 C   0  0  0  0  0  0
  -28.6245  -21.1236   19.7372 C   0  0  0  0  0  0
  -26.5069  -22.0698   19.7228 C   0  0  0  0  0  0
  -31.0758  -18.1298   19.4712 C   0  0  0  0  0  0
  -30.6217  -19.5856   19.0892 C   0  0  0  0  0  0
  -28.8855  -18.5333   20.3106 C   0  0  0  0  0  0
  -29.7697  -17.3392   19.7112 C   0  0  2  0  0  0
  -25.0132  -21.8141   19.6021 C   0  0  0  0  0  0
  -28.6026  -25.1489   19.2656 C   0  0  0  0  0  0
  -26.8989  -23.3422   19.6534 N   0  0  0  0  0  0
  -27.2876  -20.9885   19.8048 N   0  0  0  0  0  0
  -29.3770  -19.8674   19.8064 N   0  0  0  0  0  0
  -29.7712  -15.9476   20.4062 N   0  0  0  0  0  0
  -31.4839  -12.5905   19.1715 H   0  0  0  0  0  0
  -30.3729  -11.5093   19.9691 H   0  0  0  0  0  0
  -29.8095  -11.7458   17.5175 H   0  0  0  0  0  0
  -29.6357  -13.4706   17.7043 H   0  0  0  0  0  0
  -27.8985  -11.2926   18.8951 H   0  0  0  0  0  0
  -27.3854  -12.5436   17.8036 H   0  0  0  0  0  0
  -27.6250  -14.2609   19.4680 H   0  0  0  0  0  0
  -28.7553  -12.2283   21.4521 H   0  0  0  0  0  0
  -28.4472  -13.9201   21.7717 H   0  0  0  0  0  0
  -25.2826   -9.5725   22.4764 H   0  0  0  0  0  0
  -24.0059   -7.4639   22.7440 H   0  0  0  0  0  0
  -21.0887   -8.8768   19.8937 H   0  0  0  0  0  0
  -22.3702  -10.9711   19.6152 H   0  0  0  0  0  0
  -21.1959   -7.6147   23.9760 H   0  0  0  0  0  0
  -21.1498   -6.0475   25.9083 H   0  0  0  0  0  0
  -22.0597   -2.7622   23.2789 H   0  0  0  0  0  0
  -22.4091  -11.9868   22.4764 H   0  0  0  0  0  0
  -21.1129  -13.1282   22.2563 H   0  0  0  0  0  0
  -24.6446  -15.8308   20.5466 H   0  0  0  0  0  0
  -26.2557  -15.6465   20.0859 H   0  0  0  0  0  0
  -26.7252  -32.5349   23.0987 H   0  0  0  0  0  0
  -25.0167  -33.9667   25.0356 H   0  0  0  0  0  0
  -22.7347  -31.2886   21.3799 H   0  0  0  0  0  0
  -23.3979  -35.9233   23.2573 H   0  0  0  0  0  0
  -24.3766  -36.9492   22.2161 H   0  0  0  0  0  0
  -23.6746  -37.5970   23.7003 H   0  0  0  0  0  0
  -26.1120  -31.5047   20.5957 H   0  0  0  0  0  0
  -26.8588  -30.8107   21.9963 H   0  0  0  0  0  0
  -28.1170  -28.8933   21.2045 H   0  0  0  0  0  0
  -25.9848  -25.8767   18.9596 H   0  0  0  0  0  0
  -23.9846  -27.2766   18.9918 H   0  0  0  0  0  0
  -23.7531  -30.5486   19.3889 H   0  0  0  0  0  0
  -22.7640  -29.2009   19.8635 H   0  0  0  0  0  0
  -25.1084  -36.1676   25.0775 H   0  0  0  0  0  0
  -20.9996  -28.3270   24.1383 H   0  0  0  0  0  0
  -20.5692  -26.2327   23.3626 H   0  0  0  0  0  0
  -21.6667  -26.7437   22.1170 H   0  0  0  0  0  0
  -19.6930  -25.6319   21.1252 H   0  0  0  0  0  0
  -19.6682  -27.3220   20.6750 H   0  0  0  0  0  0
  -17.4214  -26.6680   21.4019 H   0  0  0  0  0  0
  -18.0316  -26.0083   22.8986 H   0  0  0  0  0  0
  -19.7962  -30.7298   24.2209 H   0  0  0  0  0  0
  -17.5037  -31.6279   24.5176 H   0  0  0  0  0  0
  -15.5385  -30.2970   23.7707 H   0  0  0  0  0  0
  -15.8676  -28.0829   22.7062 H   0  0  0  0  0  0
  -24.5867  -30.7188   25.7673 H   0  0  0  0  0  0
  -24.9053  -32.2923   26.4868 H   0  0  0  0  0  0
  -25.8049  -30.8801   27.0116 H   0  0  0  0  0  0
  -26.2927  -29.6707   24.1186 H   0  0  0  0  0  0
  -27.4121  -29.7241   25.4604 H   0  0  0  0  0  0
  -27.8773  -30.4247   23.9301 H   0  0  0  0  0  0
  -27.2773  -33.3563   26.1999 H   0  0  0  0  0  0
  -28.3922  -32.6796   25.0230 H   0  0  0  0  0  0
  -28.0796  -31.8370   26.5307 H   0  0  0  0  0  0
  -28.1772  -38.0527   24.8874 H   0  0  0  0  0  0
  -28.2019  -36.3594   24.4201 H   0  0  0  0  0  0
  -27.2822  -36.8697   25.8395 H   0  0  0  0  0  0
  -20.9452  -29.8707   21.6775 H   0  0  0  0  0  0
  -25.9837  -38.2664   24.2667 H   0  0  0  0  0  0
  -30.1851  -22.6404   19.4619 H   0  0  0  0  0  0
  -31.6771  -18.1544   20.3806 H   0  0  0  0  0  0
  -31.6948  -17.6994   18.6816 H   0  0  0  0  0  0
  -30.4078  -19.6248   18.0181 H   0  0  0  0  0  0
  -31.3959  -20.3265   19.2911 H   0  0  0  0  0  0
  -29.0035  -18.5581   21.3947 H   0  0  0  0  0  0
  -27.8269  -18.3892   20.0945 H   0  0  0  0  0  0
  -29.3712  -17.1355   18.7154 H   0  0  0  0  0  0
  -24.4342  -22.7356   19.6410 H   0  0  0  0  0  0
  -24.6528  -21.1698   20.4050 H   0  0  0  0  0  0
  -24.7851  -21.3370   18.6454 H   0  0  0  0  0  0
  -28.2431  -25.3700   18.2602 H   0  0  0  0  0  0
  -29.6870  -25.1358   19.1439 H   0  0  0  0  0  0
  -28.8569  -15.7001   20.7570 H   0  0  0  0  0  0
  1 25  1  0  0  0
  1 30  2  0  0  0
  1 84  1  0  0  0
  2  3  1  0  0  0
  2 25  1  0  0  0
  2 85  1  0  0  0
  2 86  1  0  0  0
  3  4  1  0  0  0
  3 87  1  0  0  0
  3 88  1  0  0  0
  4  5  1  0  0  0
  4 89  1  0  0  0
  4 90  1  0  0  0
  5  6  1  0  0  0
  5 26  1  0  0  0
  5 91  1  0  0  0
  6 25  1  0  0  0
  6 92  1  0  0  0
  6 93  1  0  0  0
  7  8  2  0  0  0
  7 26  1  0  0  0
  7 29  1  0  0  0
  8  9  1  0  0  0
  8 22  1  0  0  0
  9 10  1  0  0  0
  9 27  2  0  0  0
 10 11  2  0  0  0
 10 15  1  0  0  0
 11 12  1  0  0  0
 11 94  1  0  0  0
 12 13  2  0  0  0
 12 95  1  0  0  0
 13 14  1  0  0  0
 13 31  1  0  0  0
 14 15  2  0  0  0
 14 96  1  0  0  0
 15 97  1  0  0  0
 16 17  2  0  0  0
 16 21  1  0  0  0
 16 31  1  0  0  0
 17 18  1  0  0  0
 17 98  1  0  0  0
 18 19  2  0  0  0
 18 99  1  0  0  0
 19 20  1  0  0  0
 19 24  1  0  0  0
 20 21  2  0  0  0
 20100  1  0  0  0
 21 23  1  0  0  0
 22 28  1  0  0  0
 22 32  2  0  0  0
 26 27  1  0  0  0
 28101  1  0  0  0
 28102  1  0  0  0
 29103  1  0  0  0
 29104  1  0  0  0
 33 34  1  0  0  0
 33 66  1  0  0  0
 33 70  2  0  0  0
 34 36  1  0  0  0
 34 59  1  0  0  0
 34105  1  0  0  0
 35 44  2  0  0  0
 35 45  1  0  0  0
 35 68  1  0  0  0
 36 56  1  0  0  0
 36106  1  0  0  0
 37 39  1  0  0  0
 37 47  1  0  0  0
 37 66  1  0  0  0
 37107  1  0  0  0
 38 43  2  0  0  0
 38 46  1  0  0  0
 38 47  1  0  0  0
 39 64  1  0  0  0
 39 67  2  0  0  0
 40 52  1  0  0  0
 40 53  2  0  0  0
 40 58  1  0  0  0
 41108  1  0  0  0
 41109  1  0  0  0
 41110  1  0  0  0
 41 48  1  0  0  0
 42 43  1  0  0  0
 42 66  1  0  0  0
 42111  1  0  0  0
 42112  1  0  0  0
 43 44  1  0  0  0
 44113  1  0  0  0
 45 46  2  0  0  0
 45114  1  0  0  0
 46115  1  0  0  0
 47116  1  0  0  0
 47117  1  0  0  0
 48 56  1  0  0  0
 48 65  1  0  0  0
 48118  1  0  0  0
 49 50  1  0  0  0
 49 53  1  0  0  0
 49 64  1  0  0  0
 49119  1  0  0  0
 50 51  1  0  0  0
 50120  1  0  0  0
 50121  1  0  0  0
 51 52  1  0  0  0
 51122  1  0  0  0
 51123  1  0  0  0
 52124  1  0  0  0
 52125  1  0  0  0
 53 54  1  0  0  0
 54 55  2  0  0  0
 54126  1  0  0  0
 55 57  1  0  0  0
 55127  1  0  0  0
 56 69  2  0  0  0
 57 58  2  0  0  0
 57128  1  0  0  0
 58129  1  0  0  0
 59 60  1  0  0  0
 59 61  1  0  0  0
 59 62  1  0  0  0
 60130  1  0  0  0
 60131  1  0  0  0
 60132  1  0  0  0
 61133  1  0  0  0
 61134  1  0  0  0
 61135  1  0  0  0
 62136  1  0  0  0
 62137  1  0  0  0
 62138  1  0  0  0
 63 65  1  0  0  0
 63139  1  0  0  0
 63140  1  0  0  0
 63141  1  0  0  0
 64142  1  0  0  0
 65143  1  0  0  0
 68 80  1  0  0  0
 71 72  2  0  0  0
 71 73  1  0  0  0
 71144  1  0  0  0
 72 80  1  0  0  0
 72 81  1  0  0  0
 73 82  2  0  0  0
 73 83  1  0  0  0
 74 79  1  0  0  0
 74 81  2  0  0  0
 74 82  1  0  0  0
 75 76  1  0  0  0
 75 78  1  0  0  0
 75145  1  0  0  0
 75146  1  0  0  0
 76 83  1  0  0  0
 76147  1  0  0  0
 76148  1  0  0  0
 77 78  1  0  0  0
 77 83  1  0  0  0
 77149  1  0  0  0
 77150  1  0  0  0
 78 84  1  0  0  0
 78151  1  0  0  0
 79152  1  0  0  0
 79153  1  0  0  0
 79154  1  0  0  0
 80155  1  0  0  0
 80156  1  0  0  0
 84157  1  0  0  0
M  ISO  4   1 100  68 101  80 101  84 100
M  END
> <chiral flag>
0

> <version>
0

> <s_m_source_file>
/data/baiqing/PycharmProjects/Reinvent-master-3.2/result/LINK_invent/BTK/process_docking_weight1_custom_sum_contain_oxygen_bond_distance_aromatic_linkinvent_7_9_3/rearranged_h_0177.sdf

> <i_m_source_file_index>
85

> <r_mmod_Potential_Energy-OPLS-2005>
-233.683837890625

> <r_mmod_Stretch_Energy-OPLS-2005>
139.59782409668

> <r_mmod_Bend_Energy-OPLS-2005>
265.432556152344

> <r_mmod_Torsional_Energy-OPLS-2005>
263.386444091797

> <r_mmod_Improper_Torsional_Energy-OPLS-2005>
9.6679162979126

> <r_mmod_Van_der_Waal_Energy-OPLS-2005>
130.334289550781

> <r_mmod_Electrostatic_Energy-OPLS-2005>
-899.203918457031

> <r_mmod_Solvation_Energy-OPLS-2005>
-255.626037597656

> <b_mmod_Minimization_Converged-OPLS-2005>
0

> <r_mmod_RMS_Derivative-OPLS-2005>
6.89359283447266

$$$$
85
                    3D
 Structure written by MMmdl.
176186  0  0  1  0            999 V2000
  -30.5418  -14.9944   20.4287 C   0  0  0  0  0  0
  -30.4437  -12.6352   19.5127 C   0  0  0  0  0  0
  -29.5268  -12.5541   18.2718 C   0  0  0  0  0  0
  -28.0715  -12.3030   18.6993 C   0  0  0  0  0  0
  -27.6274  -13.2489   19.8446 C   0  0  2  0  0  0
  -28.6653  -13.3145   20.9864 C   0  0  0  0  0  0
  -25.2496  -13.8200   20.5784 C   0  0  0  0  0  0
  -24.1811  -13.0435   20.9342 C   0  0  0  0  0  0
  -24.6433  -11.6940   20.8850 C   0  0  0  0  0  0
  -23.9122  -10.4286   21.0423 C   0  0  0  0  0  0
  -24.3626   -9.4157   21.9208 C   0  0  0  0  0  0
  -23.6284   -8.2207   22.0757 C   0  0  0  0  0  0
  -22.4262   -8.0268   21.3549 C   0  0  0  0  0  0
  -21.9954   -9.0261   20.4627 C   0  0  0  0  0  0
  -22.7302  -10.2151   20.3076 C   0  0  0  0  0  0
  -21.6807   -6.0741   22.5302 C   0  0  0  0  0  0
  -21.3976   -6.5616   23.8255 C   0  0  0  0  0  0
  -21.3703   -5.6770   24.9213 C   0  0  0  0  0  0
  -21.6073   -4.3031   24.7255 C   0  0  0  0  0  0
  -21.8797   -3.8152   23.4356 C   0  0  0  0  0  0
  -21.9157   -4.6989   22.3413 C   0  0  0  0  0  0
  -22.7808  -13.5204   21.1938 C   0  0  0  0  0  0
  -22.1646   -4.2189   21.0995 F   0  0  0  0  0  0
  -21.5652   -3.4489   25.7762 F   0  0  0  0  0  0
  -29.9391  -13.7358   20.3860 N   0  0  0  0  0  0
  -26.2894  -12.9452   20.3304 N   0  0  0  0  0  0
  -25.9347  -11.6584   20.5768 N   0  0  0  0  0  0
  -22.0461  -12.8257   22.0548 N   0  0  0  0  0  0
  -25.4077  -15.1908   20.4060 N   0  0  0  0  0  0
  -31.7424  -15.0336   20.1390 O   0  0  0  0  0  0
  -21.6582   -6.8892   21.4252 O   0  0  0  0  0  0
  -22.3464  -14.5439   20.6682 O   0  0  0  0  0  0
  -24.6393  -31.8434   23.1902 C   0  0  0  0  0  0
  -25.9174  -32.4642   23.8303 C   0  0  1  0  0  0
  -27.2051  -27.1004   20.1848 C   0  0  0  0  0  0
  -25.6001  -33.8464   24.2245 N   0  0  0  0  0  0
  -23.4438  -30.4654   21.5327 C   0  0  2  0  0  0
  -24.8950  -28.8865   20.1082 C   0  0  0  0  0  0
  -22.7524  -29.4572   22.4841 C   0  0  0  0  0  0
  -18.0291  -28.1407   22.8498 C   0  0  0  0  0  0
  -24.1524  -36.7152   23.2647 C   0  0  0  0  0  0
  -25.9961  -30.7115   21.3904 C   0  0  0  0  0  0
  -26.0672  -29.3163   20.7380 C   0  0  0  0  0  0
  -27.2178  -28.4368   20.7628 C   0  0  0  0  0  0
  -26.0141  -26.7860   19.4944 C   0  0  0  0  0  0
  -24.8838  -27.6364   19.4701 C   0  0  0  0  0  0
  -23.6697  -29.7928   20.1507 C   0  0  0  0  0  0
  -25.4156  -36.2967   24.0325 C   0  0  1  0  0  0
  -20.5909  -28.3731   23.1220 C   0  0  2  0  0  0
  -20.6804  -26.9458   22.5356 C   0  0  0  0  0  0
  -19.5749  -26.6411   21.5195 C   0  0  0  0  0  0
  -18.1950  -26.7940   22.1666 C   0  0  0  0  0  0
  -19.1554  -28.8883   23.2848 C   0  0  0  0  0  0
  -18.9492  -30.1474   23.8872 C   0  0  0  0  0  0
  -17.6499  -30.6623   24.0557 C   0  0  0  0  0  0
  -25.9091  -34.9347   23.5095 C   0  0  0  0  0  0
  -16.5375  -29.9119   23.6348 C   0  0  0  0  0  0
  -16.7278  -28.6523   23.0389 C   0  0  0  0  0  0
  -26.4532  -31.6451   25.0700 C   0  0  0  0  0  0
  -25.3748  -31.3526   26.1390 C   0  0  0  0  0  0
  -27.0429  -30.2878   24.6195 C   0  0  0  0  0  0
  -27.6052  -32.4203   25.7518 C   0  0  0  0  0  0
  -27.5580  -37.1737   24.8509 C   0  0  0  0  0  0
  -21.4219  -29.3057   22.3578 N   0  0  0  0  0  0
  -26.4306  -37.3685   23.9433 N   0  0  0  0  0  0
  -24.7130  -31.0278   22.0933 N   0  0  0  0  0  0
  -23.4147  -28.8110   23.2999 O   0  0  0  0  0  0
  -28.2658  -26.1172   20.3149 O   0  0  0  0  0  0
  -26.5649  -34.8837   22.4647 O   0  0  0  0  0  0
  -23.5521  -32.1324   23.7112 O   0  0  0  0  0  0
  -29.4161  -20.5069   20.4587 C   0  0  0  0  0  0
  -27.7483  -18.7333   20.5663 C   0  0  0  0  0  0
  -28.4026  -21.5977   20.5786 C   0  0  0  0  0  0
  -27.1105  -21.1125   20.8017 C   0  0  0  0  0  0
  -29.1247  -19.0337   20.4877 C   0  0  0  0  0  0
  -26.7591  -19.7374   20.7230 C   0  0  0  0  0  0
  -26.2091  -22.1953   21.3396 C   0  0  0  0  0  0
  -29.1228  -22.8910   23.2329 C   0  0  0  0  0  0
  -27.1604  -23.3157   21.8429 C   0  0  2  0  0  0
  -28.4486  -23.2259   20.9630 C   0  0  2  0  0  0
  -27.6331  -23.2776   23.3330 C   0  0  0  0  0  0
  -25.3208  -19.2808   20.8857 C   0  0  0  0  0  0
  -26.8868  -22.2771   24.2397 C   0  0  0  0  0  0
  -27.4901  -24.6769   23.9800 C   0  0  0  0  0  0
  -31.2948  -18.0203   21.5023 C   0  0  0  0  0  0
  -30.4009  -24.5657   21.9013 C   0  0  0  0  0  0
  -28.2555  -24.5822   19.9329 C   0  0  0  0  0  0
  -30.1806  -17.7455   20.4757 C   0  0  2  0  0  0
  -29.7919  -16.2048   20.5894 N   0  0  0  0  0  0
  -29.5991  -23.3191   21.8977 N   0  3  1  0  0  0
  -31.4688  -12.8173   19.1856 H   0  0  0  0  0  0
  -30.4610  -11.6937   20.0625 H   0  0  0  0  0  0
  -29.8631  -11.7720   17.5892 H   0  0  0  0  0  0
  -29.5954  -13.4919   17.7204 H   0  0  0  0  0  0
  -28.0075  -11.2673   19.0417 H   0  0  0  0  0  0
  -27.4021  -12.3794   17.8432 H   0  0  0  0  0  0
  -27.5774  -14.2399   19.3977 H   0  0  0  0  0  0
  -28.7730  -12.3440   21.4765 H   0  0  0  0  0  0
  -28.3547  -14.0303   21.7526 H   0  0  0  0  0  0
  -25.2748   -9.5602   22.4820 H   0  0  0  0  0  0
  -23.9958   -7.4571   22.7466 H   0  0  0  0  0  0
  -21.0936   -8.8773   19.8852 H   0  0  0  0  0  0
  -22.3799  -10.9708   19.6173 H   0  0  0  0  0  0
  -21.1940   -7.6119   23.9755 H   0  0  0  0  0  0
  -21.1570   -6.0502   25.9125 H   0  0  0  0  0  0
  -22.0536   -2.7597   23.2866 H   0  0  0  0  0  0
  -22.4092  -12.0056   22.5122 H   0  0  0  0  0  0
  -21.1071  -13.1290   22.2748 H   0  0  0  0  0  0
  -26.2121  -15.5908   19.9470 H   0  0  0  0  0  0
  -24.6057  -15.8117   20.4391 H   0  0  0  0  0  0
  -26.7230  -32.5257   23.1020 H   0  0  0  0  0  0
  -25.0250  -33.9618   25.0468 H   0  0  0  0  0  0
  -22.7446  -31.2902   21.3823 H   0  0  0  0  0  0
  -23.3824  -35.9445   23.3294 H   0  0  0  0  0  0
  -24.3608  -36.8782   22.2064 H   0  0  0  0  0  0
  -23.7251  -37.6330   23.6681 H   0  0  0  0  0  0
  -26.1513  -31.4679   20.6185 H   0  0  0  0  0  0
  -26.8693  -30.7673   22.0329 H   0  0  0  0  0  0
  -28.1004  -28.7606   21.2936 H   0  0  0  0  0  0
  -25.9093  -25.8420   18.9846 H   0  0  0  0  0  0
  -23.9874  -27.3055   18.9657 H   0  0  0  0  0  0
  -23.8039  -30.5717   19.3990 H   0  0  0  0  0  0
  -22.7854  -29.2340   19.8397 H   0  0  0  0  0  0
  -25.1360  -36.1776   25.0815 H   0  0  0  0  0  0
  -21.0009  -28.3334   24.1336 H   0  0  0  0  0  0
  -20.5796  -26.2336   23.3562 H   0  0  0  0  0  0
  -21.6661  -26.7541   22.1088 H   0  0  0  0  0  0
  -19.6932  -25.6317   21.1245 H   0  0  0  0  0  0
  -19.6658  -27.3210   20.6717 H   0  0  0  0  0  0
  -17.4186  -26.6609   21.4107 H   0  0  0  0  0  0
  -18.0416  -26.0097   22.9105 H   0  0  0  0  0  0
  -19.7964  -30.7295   24.2231 H   0  0  0  0  0  0
  -17.5060  -31.6318   24.5151 H   0  0  0  0  0  0
  -15.5382  -30.3043   23.7687 H   0  0  0  0  0  0
  -15.8661  -28.0841   22.7157 H   0  0  0  0  0  0
  -24.5870  -30.6987   25.7612 H   0  0  0  0  0  0
  -24.9038  -32.2679   26.4984 H   0  0  0  0  0  0
  -25.8056  -30.8493   27.0062 H   0  0  0  0  0  0
  -26.3063  -29.6620   24.1149 H   0  0  0  0  0  0
  -27.4045  -29.7099   25.4711 H   0  0  0  0  0  0
  -27.8956  -30.4157   23.9524 H   0  0  0  0  0  0
  -27.2579  -33.3423   26.2183 H   0  0  0  0  0  0
  -28.3835  -32.6885   25.0359 H   0  0  0  0  0  0
  -28.0754  -31.8288   26.5383 H   0  0  0  0  0  0
  -28.2610  -38.0023   24.7569 H   0  0  0  0  0  0
  -28.1080  -36.2565   24.6379 H   0  0  0  0  0  0
  -27.2278  -37.1393   25.8902 H   0  0  0  0  0  0
  -20.9387  -29.8672   21.6716 H   0  0  0  0  0  0
  -26.0160  -38.2733   24.1488 H   0  0  0  0  0  0
  -30.4560  -20.7970   20.4218 H   0  0  0  0  0  0
  -27.4350  -17.6978   20.5670 H   0  0  0  0  0  0
  -25.5224  -21.8282   22.1012 H   0  0  0  0  0  0
  -25.5994  -22.5666   20.5132 H   0  0  0  0  0  0
  -29.2094  -21.8021   23.2653 H   0  0  0  0  0  0
  -29.7360  -23.2624   24.0553 H   0  0  0  0  0  0
  -26.6314  -24.2636   21.7112 H   0  0  0  0  0  0
  -25.2008  -18.7698   21.8426 H   0  0  0  0  0  0
  -25.0635  -18.5799   20.0881 H   0  0  0  0  0  0
  -24.6158  -20.1123   20.8342 H   0  0  0  0  0  0
  -26.9335  -21.2610   23.8496 H   0  0  0  0  0  0
  -25.8321  -22.5410   24.3435 H   0  0  0  0  0  0
  -27.3280  -22.2471   25.2372 H   0  0  0  0  0  0
  -28.0532  -25.4450   23.4552 H   0  0  0  0  0  0
  -27.8252  -24.6712   25.0200 H   0  0  0  0  0  0
  -26.4506  -25.0040   23.9784 H   0  0  0  0  0  0
  -30.9179  -17.9610   22.5234 H   0  0  0  0  0  0
  -31.7430  -19.0063   21.3772 H   0  0  0  0  0  0
  -32.1053  -17.2985   21.4105 H   0  0  0  0  0  0
  -31.2956  -24.4251   22.5085 H   0  0  0  0  0  0
  -29.8576  -25.4178   22.3007 H   0  0  0  0  0  0
  -30.7437  -24.8183   20.8992 H   0  0  0  0  0  0
  -27.3575  -24.3826   19.3530 H   0  0  0  0  0  0
  -29.0519  -24.5001   19.1971 H   0  0  0  0  0  0
  -30.6585  -17.8048   19.4947 H   0  0  0  0  0  0
  -28.8169  -16.0511   20.7986 H   0  0  0  0  0  0
  -30.2447  -22.6112   21.5804 H   0  0  0  0  0  0
  1 25  1  0  0  0
  1 30  2  0  0  0
  1 89  1  0  0  0
  2  3  1  0  0  0
  2 25  1  0  0  0
  2 91  1  0  0  0
  2 92  1  0  0  0
  3  4  1  0  0  0
  3 93  1  0  0  0
  3 94  1  0  0  0
  4  5  1  0  0  0
  4 95  1  0  0  0
  4 96  1  0  0  0
  5  6  1  0  0  0
  5 26  1  0  0  0
  5 97  1  0  0  0
  6 25  1  0  0  0
  6 98  1  0  0  0
  6 99  1  0  0  0
  7  8  2  0  0  0
  7 26  1  0  0  0
  7 29  1  0  0  0
  8  9  1  0  0  0
  8 22  1  0  0  0
  9 10  1  0  0  0
  9 27  2  0  0  0
 10 11  2  0  0  0
 10 15  1  0  0  0
 11 12  1  0  0  0
 11100  1  0  0  0
 12 13  2  0  0  0
 12101  1  0  0  0
 13 14  1  0  0  0
 13 31  1  0  0  0
 14 15  2  0  0  0
 14102  1  0  0  0
 15103  1  0  0  0
 16 17  2  0  0  0
 16 21  1  0  0  0
 16 31  1  0  0  0
 17 18  1  0  0  0
 17104  1  0  0  0
 18 19  2  0  0  0
 18105  1  0  0  0
 19 20  1  0  0  0
 19 24  1  0  0  0
 20 21  2  0  0  0
 20106  1  0  0  0
 21 23  1  0  0  0
 22 28  1  0  0  0
 22 32  2  0  0  0
 26 27  1  0  0  0
 28107  1  0  0  0
 28108  1  0  0  0
 29109  1  0  0  0
 29110  1  0  0  0
 33 34  1  0  0  0
 33 66  1  0  0  0
 33 70  2  0  0  0
 34 36  1  0  0  0
 34 59  1  0  0  0
 34111  1  0  0  0
 35 44  2  0  0  0
 35 45  1  0  0  0
 35 68  1  0  0  0
 36 56  1  0  0  0
 36112  1  0  0  0
 37 39  1  0  0  0
 37 47  1  0  0  0
 37 66  1  0  0  0
 37113  1  0  0  0
 38 43  2  0  0  0
 38 46  1  0  0  0
 38 47  1  0  0  0
 39 64  1  0  0  0
 39 67  2  0  0  0
 40 52  1  0  0  0
 40 53  2  0  0  0
 40 58  1  0  0  0
 41114  1  0  0  0
 41115  1  0  0  0
 41116  1  0  0  0
 41 48  1  0  0  0
 42 43  1  0  0  0
 42 66  1  0  0  0
 42117  1  0  0  0
 42118  1  0  0  0
 43 44  1  0  0  0
 44119  1  0  0  0
 45 46  2  0  0  0
 45120  1  0  0  0
 46121  1  0  0  0
 47122  1  0  0  0
 47123  1  0  0  0
 48 56  1  0  0  0
 48 65  1  0  0  0
 48124  1  0  0  0
 49 50  1  0  0  0
 49 53  1  0  0  0
 49 64  1  0  0  0
 49125  1  0  0  0
 50 51  1  0  0  0
 50126  1  0  0  0
 50127  1  0  0  0
 51 52  1  0  0  0
 51128  1  0  0  0
 51129  1  0  0  0
 52130  1  0  0  0
 52131  1  0  0  0
 53 54  1  0  0  0
 54 55  2  0  0  0
 54132  1  0  0  0
 55 57  1  0  0  0
 55133  1  0  0  0
 56 69  2  0  0  0
 57 58  2  0  0  0
 57134  1  0  0  0
 58135  1  0  0  0
 59 60  1  0  0  0
 59 61  1  0  0  0
 59 62  1  0  0  0
 60136  1  0  0  0
 60137  1  0  0  0
 60138  1  0  0  0
 61139  1  0  0  0
 61140  1  0  0  0
 61141  1  0  0  0
 62142  1  0  0  0
 62143  1  0  0  0
 62144  1  0  0  0
 63 65  1  0  0  0
 63145  1  0  0  0
 63146  1  0  0  0
 63147  1  0  0  0
 64148  1  0  0  0
 65149  1  0  0  0
 68 87  1  0  0  0
 71 73  2  0  0  0
 71 75  1  0  0  0
 71150  1  0  0  0
 72 75  2  0  0  0
 72 76  1  0  0  0
 72151  1  0  0  0
 73 74  1  0  0  0
 73 80  1  0  0  0
 74 76  2  0  0  0
 74 77  1  0  0  0
 75 88  1  0  0  0
 76 82  1  0  0  0
 77152  1  0  0  0
 77153  1  0  0  0
 77 79  1  0  0  0
 78 81  1  0  0  0
 78 90  1  0  0  0
 78154  1  0  0  0
 78155  1  0  0  0
 79 80  1  0  0  0
 79 81  1  0  0  0
 79156  1  0  0  0
 80 87  1  0  0  0
 80 90  1  0  0  0
 81 83  1  0  0  0
 81 84  1  0  0  0
 82157  1  0  0  0
 82158  1  0  0  0
 82159  1  0  0  0
 83160  1  0  0  0
 83161  1  0  0  0
 83162  1  0  0  0
 84163  1  0  0  0
 84164  1  0  0  0
 84165  1  0  0  0
 85166  1  0  0  0
 85167  1  0  0  0
 85168  1  0  0  0
 85 88  1  0  0  0
 86169  1  0  0  0
 86170  1  0  0  0
 86171  1  0  0  0
 86 90  1  0  0  0
 87172  1  0  0  0
 87173  1  0  0  0
 88 89  1  0  0  0
 88174  1  0  0  0
 89175  1  0  0  0
 90176  1  0  0  0
M  CHG  1  90   1
M  ISO  4   1 100  68 101  87 101  89 100
M  END
> <chiral flag>
0

> <version>
0

> <s_m_source_file>
/data/baiqing/PycharmProjects/Reinvent-master-3.2/result/LINK_invent/BTK/process_docking_weight1_custom_sum_contain_oxygen_bond_distance_aromatic_linkinvent_7_9_3/rearranged_h_0177.sdf

> <i_m_source_file_index>
86

> <r_mmod_Potential_Energy-OPLS-2005>
627.287170410156

> <r_mmod_Stretch_Energy-OPLS-2005>
305.224914550781

> <r_mmod_Bend_Energy-OPLS-2005>
364.027770996094

> <r_mmod_Torsional_Energy-OPLS-2005>
319.859283447266

> <r_mmod_Improper_Torsional_Energy-OPLS-2005>
10.9428977966309

> <r_mmod_Van_der_Waal_Energy-OPLS-2005>
123.870468139648

> <r_mmod_Electrostatic_Energy-OPLS-2005>
-323.515441894531

> <r_mmod_Solvation_Energy-OPLS-2005>
-399.612396240234

> <b_mmod_Minimization_Converged-OPLS-2005>
0

> <r_mmod_RMS_Derivative-OPLS-2005>
6.37883567810059

$$$$
86
                    3D
 Structure written by MMmdl.
157166  0  0  1  0            999 V2000
  -30.5924  -14.9099   20.4240 C   0  0  0  0  0  0
  -30.4283  -12.5634   19.4982 C   0  0  0  0  0  0
  -29.5162  -12.5217   18.2530 C   0  0  0  0  0  0
  -28.0483  -12.3191   18.6710 C   0  0  0  0  0  0
  -27.6292  -13.2518   19.8389 C   0  0  2  0  0  0
  -28.6722  -13.2872   20.9758 C   0  0  0  0  0  0
  -25.2468  -13.8229   20.5728 C   0  0  0  0  0  0
  -24.1780  -13.0448   20.9222 C   0  0  0  0  0  0
  -24.6398  -11.6935   20.8746 C   0  0  0  0  0  0
  -23.9084  -10.4302   21.0397 C   0  0  0  0  0  0
  -24.3625   -9.4215   21.9176 C   0  0  0  0  0  0
  -23.6307   -8.2248   22.0746 C   0  0  0  0  0  0
  -22.4289   -8.0280   21.3538 C   0  0  0  0  0  0
  -21.9925   -9.0257   20.4640 C   0  0  0  0  0  0
  -22.7252  -10.2138   20.3051 C   0  0  0  0  0  0
  -21.6858   -6.0736   22.5277 C   0  0  0  0  0  0
  -21.4015   -6.5639   23.8210 C   0  0  0  0  0  0
  -21.3664   -5.6791   24.9171 C   0  0  0  0  0  0
  -21.6046   -4.3055   24.7219 C   0  0  0  0  0  0
  -21.8819   -3.8147   23.4341 C   0  0  0  0  0  0
  -21.9194   -4.6962   22.3398 C   0  0  0  0  0  0
  -22.7801  -13.5222   21.1875 C   0  0  0  0  0  0
  -22.1662   -4.2148   21.0975 F   0  0  0  0  0  0
  -21.5634   -3.4539   25.7732 F   0  0  0  0  0  0
  -29.9491  -13.6762   20.3677 N   0  0  0  0  0  0
  -26.2893  -12.9466   20.3267 N   0  0  0  0  0  0
  -25.9331  -11.6591   20.5742 N   0  0  0  0  0  0
  -22.0449  -12.8212   22.0428 N   0  0  0  0  0  0
  -25.4158  -15.1956   20.4174 N   0  0  0  0  0  0
  -31.7961  -14.9146   20.1399 O   0  0  0  0  0  0
  -21.6646   -6.8880   21.4241 O   0  0  0  0  0  0
  -22.3483  -14.5525   20.6719 O   0  0  0  0  0  0
  -24.6433  -31.8460   23.1906 C   0  0  0  0  0  0
  -25.9210  -32.4704   23.8289 C   0  0  1  0  0  0
  -27.2061  -27.1455   20.1389 C   0  0  0  0  0  0
  -25.5963  -33.8510   24.2207 N   0  0  0  0  0  0
  -23.4452  -30.4686   21.5369 C   0  0  2  0  0  0
  -24.8915  -28.9017   20.1080 C   0  0  0  0  0  0
  -22.7568  -29.4562   22.4869 C   0  0  0  0  0  0
  -18.0302  -28.1400   22.8478 C   0  0  0  0  0  0
  -24.1492  -36.7266   23.2641 C   0  0  0  0  0  0
  -26.0021  -30.7220   21.3886 C   0  0  0  0  0  0
  -26.0708  -29.3355   20.7268 C   0  0  0  0  0  0
  -27.2305  -28.4729   20.7277 C   0  0  0  0  0  0
  -26.0011  -26.8184   19.4752 C   0  0  0  0  0  0
  -24.8692  -27.6563   19.4675 C   0  0  0  0  0  0
  -23.6697  -29.8039   20.1540 C   0  0  0  0  0  0
  -25.4123  -36.3041   24.0318 C   0  0  1  0  0  0
  -20.5916  -28.3726   23.1239 C   0  0  2  0  0  0
  -20.6790  -26.9432   22.5402 C   0  0  0  0  0  0
  -19.5760  -26.6384   21.5216 C   0  0  0  0  0  0
  -18.1942  -26.7937   22.1625 C   0  0  0  0  0  0
  -19.1559  -28.8880   23.2851 C   0  0  0  0  0  0
  -18.9478  -30.1476   23.8876 C   0  0  0  0  0  0
  -17.6474  -30.6595   24.0559 C   0  0  0  0  0  0
  -25.9072  -34.9413   23.5070 C   0  0  0  0  0  0
  -16.5364  -29.9089   23.6335 C   0  0  0  0  0  0
  -16.7286  -28.6507   23.0355 C   0  0  0  0  0  0
  -26.4521  -31.6568   25.0731 C   0  0  0  0  0  0
  -25.3702  -31.3765   26.1428 C   0  0  0  0  0  0
  -27.0378  -30.2961   24.6310 C   0  0  0  0  0  0
  -27.6050  -32.4332   25.7517 C   0  0  0  0  0  0
  -27.5580  -37.1787   24.8461 C   0  0  0  0  0  0
  -21.4263  -29.3054   22.3616 N   0  0  0  0  0  0
  -26.4284  -37.3757   23.9410 N   0  0  0  0  0  0
  -24.7167  -31.0326   22.0938 N   0  0  0  0  0  0
  -23.4219  -28.8108   23.3011 O   0  0  0  0  0  0
  -28.2408  -26.1449   20.2184 O   0  0  0  0  0  0
  -26.5657  -34.8905   22.4645 O   0  0  0  0  0  0
  -23.5551  -32.1340   23.7129 O   0  0  0  0  0  0
  -28.4816  -21.9148   20.1281 C   0  0  0  0  0  0
  -28.8186  -23.3356   20.3285 C   0  0  0  0  0  0
  -29.4027  -20.8340   20.4734 C   0  0  0  0  0  0
  -30.8335  -22.5407   21.1349 C   0  0  0  0  0  0
  -30.1708  -18.6744   19.4035 C   0  0  0  0  0  0
  -29.3650  -18.5145   21.5579 C   0  0  0  0  0  0
  -29.9978  -17.0901   19.1772 C   0  0  0  0  0  0
  -29.1891  -16.9041   21.4383 C   0  0  0  0  0  0
  -32.1940  -22.8864   21.6979 C   0  0  0  0  0  0
  -27.8854  -24.6462   20.0007 C   0  0  0  0  0  0
  -30.0389  -23.5764   20.8461 N   0  0  0  0  0  0
  -30.5809  -21.2348   20.9807 N   0  0  0  0  0  0
  -29.2360  -19.3630   20.3331 N   0  0  0  0  0  0
  -29.8763  -16.1420   20.3404 N   0  0  0  0  0  0
  -31.4666  -12.6914   19.1892 H   0  0  0  0  0  0
  -30.3970  -11.6137   20.0350 H   0  0  0  0  0  0
  -29.8307  -11.7225   17.5803 H   0  0  0  0  0  0
  -29.6144  -13.4529   17.6919 H   0  0  0  0  0  0
  -27.9377  -11.2784   18.9771 H   0  0  0  0  0  0
  -27.3858  -12.4555   17.8154 H   0  0  0  0  0  0
  -27.5934  -14.2548   19.4126 H   0  0  0  0  0  0
  -28.7497  -12.3200   21.4746 H   0  0  0  0  0  0
  -28.3799  -14.0102   21.7388 H   0  0  0  0  0  0
  -25.2761   -9.5703   22.4759 H   0  0  0  0  0  0
  -24.0019   -7.4640   22.7470 H   0  0  0  0  0  0
  -21.0852   -8.8778   19.8953 H   0  0  0  0  0  0
  -22.3699  -10.9678   19.6173 H   0  0  0  0  0  0
  -21.2005   -7.6146   23.9714 H   0  0  0  0  0  0
  -21.1492   -6.0516   25.9076 H   0  0  0  0  0  0
  -22.0596   -2.7610   23.2832 H   0  0  0  0  0  0
  -22.4068  -11.9888   22.4840 H   0  0  0  0  0  0
  -21.1061  -13.1232   22.2614 H   0  0  0  0  0  0
  -24.6531  -15.8525   20.5391 H   0  0  0  0  0  0
  -26.2718  -15.6356   20.1033 H   0  0  0  0  0  0
  -26.7283  -32.5314   23.1024 H   0  0  0  0  0  0
  -25.0070  -33.9624   25.0326 H   0  0  0  0  0  0
  -22.7471  -31.2951   21.3862 H   0  0  0  0  0  0
  -23.3759  -35.9592   23.3281 H   0  0  0  0  0  0
  -24.3584  -36.8918   22.2061 H   0  0  0  0  0  0
  -23.7235  -37.6452   23.6688 H   0  0  0  0  0  0
  -26.1585  -31.4782   20.6181 H   0  0  0  0  0  0
  -26.8730  -30.7692   22.0306 H   0  0  0  0  0  0
  -28.1273  -28.7971   21.2369 H   0  0  0  0  0  0
  -25.8861  -25.8720   18.9701 H   0  0  0  0  0  0
  -23.9689  -27.3210   18.9701 H   0  0  0  0  0  0
  -23.8080  -30.5814   19.4015 H   0  0  0  0  0  0
  -22.7834  -29.2490   19.8417 H   0  0  0  0  0  0
  -25.1305  -36.1871   25.0809 H   0  0  0  0  0  0
  -21.0002  -28.3314   24.1363 H   0  0  0  0  0  0
  -20.5692  -26.2344   23.3621 H   0  0  0  0  0  0
  -21.6656  -26.7446   22.1196 H   0  0  0  0  0  0
  -19.6922  -25.6290   21.1261 H   0  0  0  0  0  0
  -19.6691  -27.3180   20.6733 H   0  0  0  0  0  0
  -17.4213  -26.6681   21.4026 H   0  0  0  0  0  0
  -18.0339  -26.0086   22.9028 H   0  0  0  0  0  0
  -19.7956  -30.7296   24.2238 H   0  0  0  0  0  0
  -17.5028  -31.6270   24.5169 H   0  0  0  0  0  0
  -15.5365  -30.2981   23.7670 H   0  0  0  0  0  0
  -15.8688  -28.0816   22.7079 H   0  0  0  0  0  0
  -24.5865  -30.7134   25.7749 H   0  0  0  0  0  0
  -24.8908  -32.2952   26.4820 H   0  0  0  0  0  0
  -25.7976  -30.8951   27.0233 H   0  0  0  0  0  0
  -26.2992  -29.6690   24.1305 H   0  0  0  0  0  0
  -27.3975  -29.7257   25.4884 H   0  0  0  0  0  0
  -27.8911  -30.4195   23.9637 H   0  0  0  0  0  0
  -27.2635  -33.3638   26.2064 H   0  0  0  0  0  0
  -28.3876  -32.6889   25.0361 H   0  0  0  0  0  0
  -28.0705  -31.8485   26.5461 H   0  0  0  0  0  0
  -28.2577  -38.0102   24.7527 H   0  0  0  0  0  0
  -28.1091  -36.2633   24.6255 H   0  0  0  0  0  0
  -27.2304  -37.1402   25.8863 H   0  0  0  0  0  0
  -20.9477  -29.8780   21.6805 H   0  0  0  0  0  0
  -26.0152  -38.2822   24.1417 H   0  0  0  0  0  0
  -27.5151  -21.6637   19.7120 H   0  0  0  0  0  0
  -30.0998  -19.1727   18.4354 H   0  0  0  0  0  0
  -31.1898  -18.8631   19.7459 H   0  0  0  0  0  0
  -30.3473  -18.7146   21.9909 H   0  0  0  0  0  0
  -28.6552  -18.8895   22.2962 H   0  0  0  0  0  0
  -30.8105  -16.7543   18.5303 H   0  0  0  0  0  0
  -29.0956  -16.9397   18.5833 H   0  0  0  0  0  0
  -28.1250  -16.6909   21.3327 H   0  0  0  0  0  0
  -29.4743  -16.4572   22.3922 H   0  0  0  0  0  0
  -32.2575  -23.9398   21.9724 H   0  0  0  0  0  0
  -32.9687  -22.6811   20.9598 H   0  0  0  0  0  0
  -32.4012  -22.2955   22.5894 H   0  0  0  0  0  0
  -26.9583  -24.4621   20.5447 H   0  0  0  0  0  0
  -27.6361  -24.5404   18.9447 H   0  0  0  0  0  0
  1 25  1  0  0  0
  1 30  2  0  0  0
  1 84  1  0  0  0
  2  3  1  0  0  0
  2 25  1  0  0  0
  2 85  1  0  0  0
  2 86  1  0  0  0
  3  4  1  0  0  0
  3 87  1  0  0  0
  3 88  1  0  0  0
  4  5  1  0  0  0
  4 89  1  0  0  0
  4 90  1  0  0  0
  5  6  1  0  0  0
  5 26  1  0  0  0
  5 91  1  0  0  0
  6 25  1  0  0  0
  6 92  1  0  0  0
  6 93  1  0  0  0
  7  8  2  0  0  0
  7 26  1  0  0  0
  7 29  1  0  0  0
  8  9  1  0  0  0
  8 22  1  0  0  0
  9 10  1  0  0  0
  9 27  2  0  0  0
 10 11  2  0  0  0
 10 15  1  0  0  0
 11 12  1  0  0  0
 11 94  1  0  0  0
 12 13  2  0  0  0
 12 95  1  0  0  0
 13 14  1  0  0  0
 13 31  1  0  0  0
 14 15  2  0  0  0
 14 96  1  0  0  0
 15 97  1  0  0  0
 16 17  2  0  0  0
 16 21  1  0  0  0
 16 31  1  0  0  0
 17 18  1  0  0  0
 17 98  1  0  0  0
 18 19  2  0  0  0
 18 99  1  0  0  0
 19 20  1  0  0  0
 19 24  1  0  0  0
 20 21  2  0  0  0
 20100  1  0  0  0
 21 23  1  0  0  0
 22 28  1  0  0  0
 22 32  2  0  0  0
 26 27  1  0  0  0
 28101  1  0  0  0
 28102  1  0  0  0
 29103  1  0  0  0
 29104  1  0  0  0
 33 34  1  0  0  0
 33 66  1  0  0  0
 33 70  2  0  0  0
 34 36  1  0  0  0
 34 59  1  0  0  0
 34105  1  0  0  0
 35 44  2  0  0  0
 35 45  1  0  0  0
 35 68  1  0  0  0
 36 56  1  0  0  0
 36106  1  0  0  0
 37 39  1  0  0  0
 37 47  1  0  0  0
 37 66  1  0  0  0
 37107  1  0  0  0
 38 43  2  0  0  0
 38 46  1  0  0  0
 38 47  1  0  0  0
 39 64  1  0  0  0
 39 67  2  0  0  0
 40 52  1  0  0  0
 40 53  2  0  0  0
 40 58  1  0  0  0
 41108  1  0  0  0
 41109  1  0  0  0
 41110  1  0  0  0
 41 48  1  0  0  0
 42 43  1  0  0  0
 42 66  1  0  0  0
 42111  1  0  0  0
 42112  1  0  0  0
 43 44  1  0  0  0
 44113  1  0  0  0
 45 46  2  0  0  0
 45114  1  0  0  0
 46115  1  0  0  0
 47116  1  0  0  0
 47117  1  0  0  0
 48 56  1  0  0  0
 48 65  1  0  0  0
 48118  1  0  0  0
 49 50  1  0  0  0
 49 53  1  0  0  0
 49 64  1  0  0  0
 49119  1  0  0  0
 50 51  1  0  0  0
 50120  1  0  0  0
 50121  1  0  0  0
 51 52  1  0  0  0
 51122  1  0  0  0
 51123  1  0  0  0
 52124  1  0  0  0
 52125  1  0  0  0
 53 54  1  0  0  0
 54 55  2  0  0  0
 54126  1  0  0  0
 55 57  1  0  0  0
 55127  1  0  0  0
 56 69  2  0  0  0
 57 58  2  0  0  0
 57128  1  0  0  0
 58129  1  0  0  0
 59 60  1  0  0  0
 59 61  1  0  0  0
 59 62  1  0  0  0
 60130  1  0  0  0
 60131  1  0  0  0
 60132  1  0  0  0
 61133  1  0  0  0
 61134  1  0  0  0
 61135  1  0  0  0
 62136  1  0  0  0
 62137  1  0  0  0
 62138  1  0  0  0
 63 65  1  0  0  0
 63139  1  0  0  0
 63140  1  0  0  0
 63141  1  0  0  0
 64142  1  0  0  0
 65143  1  0  0  0
 68 80  1  0  0  0
 71 72  2  0  0  0
 71 73  1  0  0  0
 71144  1  0  0  0
 72 80  1  0  0  0
 72 81  1  0  0  0
 73 82  2  0  0  0
 73 83  1  0  0  0
 74 79  1  0  0  0
 74 81  2  0  0  0
 74 82  1  0  0  0
 75 77  1  0  0  0
 75 83  1  0  0  0
 75145  1  0  0  0
 75146  1  0  0  0
 76 78  1  0  0  0
 76 83  1  0  0  0
 76147  1  0  0  0
 76148  1  0  0  0
 77 84  1  0  0  0
 77149  1  0  0  0
 77150  1  0  0  0
 78 84  1  0  0  0
 78151  1  0  0  0
 78152  1  0  0  0
 79153  1  0  0  0
 79154  1  0  0  0
 79155  1  0  0  0
 80156  1  0  0  0
 80157  1  0  0  0
M  ISO  4   1 100  68 101  80 101  84 100
M  END
> <chiral flag>
0

> <version>
0

> <s_m_source_file>
/data/baiqing/PycharmProjects/Reinvent-master-3.2/result/LINK_invent/BTK/process_docking_weight1_custom_sum_contain_oxygen_bond_distance_aromatic_linkinvent_7_9_3/rearranged_h_0177.sdf

> <i_m_source_file_index>
87

> <r_mmod_Potential_Energy-OPLS-2005>
86.1469268798828

> <r_mmod_Stretch_Energy-OPLS-2005>
198.10188293457

> <r_mmod_Bend_Energy-OPLS-2005>
242.389770507812

> <r_mmod_Torsional_Energy-OPLS-2005>
363.217712402344

> <r_mmod_Improper_Torsional_Energy-OPLS-2005>
20.4750194549561

> <r_mmod_Van_der_Waal_Energy-OPLS-2005>
147.790512084961

> <r_mmod_Electrostatic_Energy-OPLS-2005>
-819.910583496094

> <r_mmod_Solvation_Energy-OPLS-2005>
-243.180969238281

> <b_mmod_Minimization_Converged-OPLS-2005>
0

> <r_mmod_RMS_Derivative-OPLS-2005>
1.05898225307465

$$$$
87
                    3D
 Structure written by MMmdl.
163173  0  0  1  0            999 V2000
  -30.5224  -15.0589   20.3948 C   0  0  0  0  0  0
  -30.4323  -12.6610   19.5127 C   0  0  0  0  0  0
  -29.5221  -12.5420   18.2680 C   0  0  0  0  0  0
  -28.0606  -12.3090   18.6892 C   0  0  0  0  0  0
  -27.6197  -13.2608   19.8309 C   0  0  2  0  0  0
  -28.6591  -13.3517   20.9683 C   0  0  0  0  0  0
  -25.2412  -13.8227   20.5726 C   0  0  0  0  0  0
  -24.1754  -13.0438   20.9260 C   0  0  0  0  0  0
  -24.6389  -11.6928   20.8771 C   0  0  0  0  0  0
  -23.9080  -10.4291   21.0414 C   0  0  0  0  0  0
  -24.3628   -9.4204   21.9188 C   0  0  0  0  0  0
  -23.6300   -8.2240   22.0753 C   0  0  0  0  0  0
  -22.4282   -8.0280   21.3543 C   0  0  0  0  0  0
  -21.9922   -9.0254   20.4645 C   0  0  0  0  0  0
  -22.7254  -10.2132   20.3058 C   0  0  0  0  0  0
  -21.6854   -6.0735   22.5277 C   0  0  0  0  0  0
  -21.4015   -6.5639   23.8211 C   0  0  0  0  0  0
  -21.3660   -5.6791   24.9173 C   0  0  0  0  0  0
  -21.6046   -4.3054   24.7225 C   0  0  0  0  0  0
  -21.8819   -3.8146   23.4345 C   0  0  0  0  0  0
  -21.9193   -4.6962   22.3401 C   0  0  0  0  0  0
  -22.7775  -13.5202   21.1907 C   0  0  0  0  0  0
  -22.1661   -4.2149   21.0977 F   0  0  0  0  0  0
  -21.5628   -3.4537   25.7736 F   0  0  0  0  0  0
  -29.9210  -13.7889   20.3572 N   0  0  0  0  0  0
  -26.2840  -12.9485   20.3232 N   0  0  0  0  0  0
  -25.9323  -11.6604   20.5743 N   0  0  0  0  0  0
  -22.0429  -12.8182   22.0457 N   0  0  0  0  0  0
  -25.4052  -15.1947   20.4106 N   0  0  0  0  0  0
  -31.7370  -15.0528   20.1576 O   0  0  0  0  0  0
  -21.6642   -6.8880   21.4239 O   0  0  0  0  0  0
  -22.3459  -14.5506   20.6748 O   0  0  0  0  0  0
  -24.6508  -31.8364   23.1817 C   0  0  0  0  0  0
  -25.9252  -32.4649   23.8228 C   0  0  1  0  0  0
  -27.2137  -27.0600   20.1666 C   0  0  0  0  0  0
  -25.5973  -33.8459   24.2141 N   0  0  0  0  0  0
  -23.4579  -30.4535   21.5286 C   0  0  2  0  0  0
  -24.9078  -28.8651   20.1113 C   0  0  0  0  0  0
  -22.7603  -29.4509   22.4830 C   0  0  0  0  0  0
  -18.0312  -28.1400   22.8466 C   0  0  0  0  0  0
  -24.1497  -36.7235   23.2644 C   0  0  0  0  0  0
  -26.0187  -30.6870   21.3910 C   0  0  0  0  0  0
  -26.0884  -29.2905   20.7335 C   0  0  0  0  0  0
  -27.2416  -28.4067   20.7382 C   0  0  0  0  0  0
  -26.0047  -26.7525   19.5050 C   0  0  0  0  0  0
  -24.8830  -27.6125   19.4795 C   0  0  0  0  0  0
  -23.6891  -29.7781   20.1503 C   0  0  0  0  0  0
  -25.4131  -36.3001   24.0306 C   0  0  1  0  0  0
  -20.5928  -28.3734   23.1213 C   0  0  2  0  0  0
  -20.6798  -26.9430   22.5399 C   0  0  0  0  0  0
  -19.5775  -26.6378   21.5208 C   0  0  0  0  0  0
  -18.1953  -26.7936   22.1616 C   0  0  0  0  0  0
  -19.1570  -28.8885   23.2828 C   0  0  0  0  0  0
  -18.9486  -30.1478   23.8859 C   0  0  0  0  0  0
  -17.6482  -30.6594   24.0552 C   0  0  0  0  0  0
  -25.9087  -34.9382   23.5034 C   0  0  0  0  0  0
  -16.5371  -29.9083   23.6337 C   0  0  0  0  0  0
  -16.7295  -28.6505   23.0350 C   0  0  0  0  0  0
  -26.4549  -31.6551   25.0703 C   0  0  0  0  0  0
  -25.3710  -31.3763   26.1383 C   0  0  0  0  0  0
  -27.0436  -30.2937   24.6346 C   0  0  0  0  0  0
  -27.6060  -32.4335   25.7502 C   0  0  0  0  0  0
  -27.5575  -37.1775   24.8464 C   0  0  0  0  0  0
  -21.4287  -29.3050   22.3582 N   0  0  0  0  0  0
  -26.4286  -37.3725   23.9406 N   0  0  0  0  0  0
  -24.7295  -31.0157   22.0884 N   0  0  0  0  0  0
  -23.4211  -28.8063   23.3014 O   0  0  0  0  0  0
  -28.2502  -26.0343   20.2322 O   0  0  0  0  0  0
  -26.5676  -34.8897   22.4618 O   0  0  0  0  0  0
  -23.5611  -32.1280   23.6995 O   0  0  0  0  0  0
  -31.4295  -18.1805   20.0348 C   0  0  0  0  0  0
  -29.2230  -19.0743   20.4468 C   0  0  0  0  0  0
  -27.8426  -19.4323   20.7255 C   0  0  0  0  0  0
  -30.0918  -17.8303   20.3423 C   0  0  0  0  0  0
  -27.6640  -20.8251   20.6726 C   0  0  0  0  0  0
  -31.8749  -19.5127   19.8552 C   0  0  0  0  0  0
  -29.8018  -20.4341   20.2399 C   0  0  0  0  0  0
  -26.7202  -18.4879   21.0451 C   0  0  0  0  0  0
  -26.3618  -21.5130   20.9429 C   0  0  0  0  0  0
  -25.5507  -19.2105   21.7403 C   0  0  0  0  0  0
  -25.1792  -20.5278   21.0317 C   0  0  0  0  0  0
  -33.3318  -19.7634   19.5222 C   0  0  0  0  0  0
  -29.0754  -23.1474   20.3381 C   0  0  0  0  0  0
  -27.9723  -24.4660   20.1776 C   0  0  0  0  0  0
  -31.1189  -20.6296   19.9545 N   0  0  0  0  0  0
  -28.8405  -21.5378   20.3829 N   0  0  0  0  0  0
  -29.7695  -16.2976   20.4998 N   0  0  0  0  0  0
  -31.4637  -12.8197   19.1954 H   0  0  0  0  0  0
  -30.4399  -11.7281   20.0786 H   0  0  0  0  0  0
  -29.8611  -11.7298   17.6237 H   0  0  0  0  0  0
  -29.5913  -13.4550   17.6748 H   0  0  0  0  0  0
  -27.9775  -11.2742   19.0230 H   0  0  0  0  0  0
  -27.3949  -12.4073   17.8310 H   0  0  0  0  0  0
  -27.5624  -14.2486   19.3726 H   0  0  0  0  0  0
  -28.7730  -12.3952   21.4807 H   0  0  0  0  0  0
  -28.3386  -14.0726   21.7218 H   0  0  0  0  0  0
  -25.2768   -9.5679   22.4767 H   0  0  0  0  0  0
  -24.0005   -7.4631   22.7472 H   0  0  0  0  0  0
  -21.0853   -8.8780   19.8948 H   0  0  0  0  0  0
  -22.3714  -10.9675   19.6170 H   0  0  0  0  0  0
  -21.2009   -7.6147   23.9715 H   0  0  0  0  0  0
  -21.1482   -6.0520   25.9076 H   0  0  0  0  0  0
  -22.0599   -2.7608   23.2845 H   0  0  0  0  0  0
  -22.4057  -11.9844   22.4839 H   0  0  0  0  0  0
  -21.1042  -13.1191   22.2664 H   0  0  0  0  0  0
  -24.6262  -15.8367   20.5036 H   0  0  0  0  0  0
  -26.2286  -15.6243   20.0128 H   0  0  0  0  0  0
  -26.7313  -32.5234   23.0946 H   0  0  0  0  0  0
  -25.0091  -33.9554   25.0270 H   0  0  0  0  0  0
  -22.7643  -31.2817   21.3689 H   0  0  0  0  0  0
  -23.3762  -35.9563   23.3283 H   0  0  0  0  0  0
  -24.3576  -36.8898   22.2062 H   0  0  0  0  0  0
  -23.7253  -37.6420   23.6707 H   0  0  0  0  0  0
  -26.1834  -31.4376   20.6169 H   0  0  0  0  0  0
  -26.8846  -30.7382   22.0393 H   0  0  0  0  0  0
  -28.1402  -28.7294   21.2451 H   0  0  0  0  0  0
  -25.8918  -25.7955   19.0191 H   0  0  0  0  0  0
  -23.9824  -27.2806   18.9811 H   0  0  0  0  0  0
  -23.8347  -30.5510   19.3948 H   0  0  0  0  0  0
  -22.8017  -29.2258   19.8361 H   0  0  0  0  0  0
  -25.1325  -36.1810   25.0796 H   0  0  0  0  0  0
  -21.0012  -28.3339   24.1338 H   0  0  0  0  0  0
  -20.5692  -26.2352   23.3630 H   0  0  0  0  0  0
  -21.6664  -26.7431   22.1201 H   0  0  0  0  0  0
  -19.6935  -25.6278   21.1266 H   0  0  0  0  0  0
  -19.6715  -27.3168   20.6721 H   0  0  0  0  0  0
  -17.4224  -26.6672   21.4018 H   0  0  0  0  0  0
  -18.0346  -26.0089   22.9022 H   0  0  0  0  0  0
  -19.7965  -30.7297   24.2217 H   0  0  0  0  0  0
  -17.5038  -31.6271   24.5163 H   0  0  0  0  0  0
  -15.5370  -30.2969   23.7692 H   0  0  0  0  0  0
  -15.8697  -28.0816   22.7078 H   0  0  0  0  0  0
  -24.5903  -30.7096   25.7701 H   0  0  0  0  0  0
  -24.8886  -32.2952   26.4721 H   0  0  0  0  0  0
  -25.7975  -30.8995   27.0217 H   0  0  0  0  0  0
  -26.3081  -29.6626   24.1344 H   0  0  0  0  0  0
  -27.4009  -29.7275   25.4958 H   0  0  0  0  0  0
  -27.9000  -30.4146   23.9709 H   0  0  0  0  0  0
  -27.2636  -33.3664   26.1991 H   0  0  0  0  0  0
  -28.3921  -32.6846   25.0369 H   0  0  0  0  0  0
  -28.0668  -31.8516   26.5493 H   0  0  0  0  0  0
  -28.2575  -38.0087   24.7508 H   0  0  0  0  0  0
  -28.1085  -36.2612   24.6292 H   0  0  0  0  0  0
  -27.2284  -37.1416   25.8865 H   0  0  0  0  0  0
  -20.9517  -29.8756   21.6743 H   0  0  0  0  0  0
  -26.0139  -38.2786   24.1415 H   0  0  0  0  0  0
  -32.1739  -17.4044   19.9218 H   0  0  0  0  0  0
  -27.0678  -17.6667   21.6737 H   0  0  0  0  0  0
  -26.3594  -18.0315   20.1226 H   0  0  0  0  0  0
  -26.1531  -22.2511   20.1685 H   0  0  0  0  0  0
  -26.4425  -22.0620   21.8818 H   0  0  0  0  0  0
  -25.8277  -19.4340   22.7718 H   0  0  0  0  0  0
  -24.6853  -18.5484   21.7953 H   0  0  0  0  0  0
  -24.8516  -20.2835   20.0205 H   0  0  0  0  0  0
  -24.3283  -21.0055   21.5188 H   0  0  0  0  0  0
  -33.7198  -18.9830   18.8673 H   0  0  0  0  0  0
  -33.9318  -19.7733   20.4320 H   0  0  0  0  0  0
  -33.4691  -20.7188   19.0137 H   0  0  0  0  0  0
  -29.6339  -23.3597   21.2494 H   0  0  0  0  0  0
  -29.8099  -23.2944   19.5463 H   0  0  0  0  0  0
  -27.2039  -24.3078   20.9342 H   0  0  0  0  0  0
  -27.4711  -24.2911   19.2266 H   0  0  0  0  0  0
  -28.7933  -16.1186   20.6786 H   0  0  0  0  0  0
  1 25  1  0  0  0
  1 30  2  0  0  0
  1 87  1  0  0  0
  2  3  1  0  0  0
  2 25  1  0  0  0
  2 88  1  0  0  0
  2 89  1  0  0  0
  3  4  1  0  0  0
  3 90  1  0  0  0
  3 91  1  0  0  0
  4  5  1  0  0  0
  4 92  1  0  0  0
  4 93  1  0  0  0
  5  6  1  0  0  0
  5 26  1  0  0  0
  5 94  1  0  0  0
  6 25  1  0  0  0
  6 95  1  0  0  0
  6 96  1  0  0  0
  7  8  2  0  0  0
  7 26  1  0  0  0
  7 29  1  0  0  0
  8  9  1  0  0  0
  8 22  1  0  0  0
  9 10  1  0  0  0
  9 27  2  0  0  0
 10 11  2  0  0  0
 10 15  1  0  0  0
 11 12  1  0  0  0
 11 97  1  0  0  0
 12 13  2  0  0  0
 12 98  1  0  0  0
 13 14  1  0  0  0
 13 31  1  0  0  0
 14 15  2  0  0  0
 14 99  1  0  0  0
 15100  1  0  0  0
 16 17  2  0  0  0
 16 21  1  0  0  0
 16 31  1  0  0  0
 17 18  1  0  0  0
 17101  1  0  0  0
 18 19  2  0  0  0
 18102  1  0  0  0
 19 20  1  0  0  0
 19 24  1  0  0  0
 20 21  2  0  0  0
 20103  1  0  0  0
 21 23  1  0  0  0
 22 28  1  0  0  0
 22 32  2  0  0  0
 26 27  1  0  0  0
 28104  1  0  0  0
 28105  1  0  0  0
 29106  1  0  0  0
 29107  1  0  0  0
 33 34  1  0  0  0
 33 66  1  0  0  0
 33 70  2  0  0  0
 34 36  1  0  0  0
 34 59  1  0  0  0
 34108  1  0  0  0
 35 44  2  0  0  0
 35 45  1  0  0  0
 35 68  1  0  0  0
 36 56  1  0  0  0
 36109  1  0  0  0
 37 39  1  0  0  0
 37 47  1  0  0  0
 37 66  1  0  0  0
 37110  1  0  0  0
 38 43  2  0  0  0
 38 46  1  0  0  0
 38 47  1  0  0  0
 39 64  1  0  0  0
 39 67  2  0  0  0
 40 52  1  0  0  0
 40 53  2  0  0  0
 40 58  1  0  0  0
 41111  1  0  0  0
 41112  1  0  0  0
 41113  1  0  0  0
 41 48  1  0  0  0
 42 43  1  0  0  0
 42 66  1  0  0  0
 42114  1  0  0  0
 42115  1  0  0  0
 43 44  1  0  0  0
 44116  1  0  0  0
 45 46  2  0  0  0
 45117  1  0  0  0
 46118  1  0  0  0
 47119  1  0  0  0
 47120  1  0  0  0
 48 56  1  0  0  0
 48 65  1  0  0  0
 48121  1  0  0  0
 49 50  1  0  0  0
 49 53  1  0  0  0
 49 64  1  0  0  0
 49122  1  0  0  0
 50 51  1  0  0  0
 50123  1  0  0  0
 50124  1  0  0  0
 51 52  1  0  0  0
 51125  1  0  0  0
 51126  1  0  0  0
 52127  1  0  0  0
 52128  1  0  0  0
 53 54  1  0  0  0
 54 55  2  0  0  0
 54129  1  0  0  0
 55 57  1  0  0  0
 55130  1  0  0  0
 56 69  2  0  0  0
 57 58  2  0  0  0
 57131  1  0  0  0
 58132  1  0  0  0
 59 60  1  0  0  0
 59 61  1  0  0  0
 59 62  1  0  0  0
 60133  1  0  0  0
 60134  1  0  0  0
 60135  1  0  0  0
 61136  1  0  0  0
 61137  1  0  0  0
 61138  1  0  0  0
 62139  1  0  0  0
 62140  1  0  0  0
 62141  1  0  0  0
 63 65  1  0  0  0
 63142  1  0  0  0
 63143  1  0  0  0
 63144  1  0  0  0
 64145  1  0  0  0
 65146  1  0  0  0
 68 84  1  0  0  0
 71 74  2  0  0  0
 71 76  1  0  0  0
 71147  1  0  0  0
 72 73  1  0  0  0
 72 74  1  0  0  0
 72 77  2  0  0  0
 73 75  2  0  0  0
 73 78  1  0  0  0
 74 87  1  0  0  0
 75 79  1  0  0  0
 75 86  1  0  0  0
 76 82  1  0  0  0
 76 85  2  0  0  0
 77 85  1  0  0  0
 77 86  1  0  0  0
 78 80  1  0  0  0
 78148  1  0  0  0
 78149  1  0  0  0
 79 81  1  0  0  0
 79150  1  0  0  0
 79151  1  0  0  0
 80 81  1  0  0  0
 80152  1  0  0  0
 80153  1  0  0  0
 81154  1  0  0  0
 81155  1  0  0  0
 82156  1  0  0  0
 82157  1  0  0  0
 82158  1  0  0  0
 83 84  1  0  0  0
 83 86  1  0  0  0
 83159  1  0  0  0
 83160  1  0  0  0
 84161  1  0  0  0
 84162  1  0  0  0
 87163  1  0  0  0
M  ISO  4   1 100  68 101  84 101  87 100
M  END
> <chiral flag>
0

> <version>
0

> <s_m_source_file>
/data/baiqing/PycharmProjects/Reinvent-master-3.2/result/LINK_invent/BTK/process_docking_weight1_custom_sum_contain_oxygen_bond_distance_aromatic_linkinvent_7_9_3/rearranged_h_0177.sdf

> <i_m_source_file_index>
88

> <r_mmod_Potential_Energy-OPLS-2005>
638.374938964844

> <r_mmod_Stretch_Energy-OPLS-2005>
340.965911865234

> <r_mmod_Bend_Energy-OPLS-2005>
303.860748291016

> <r_mmod_Torsional_Energy-OPLS-2005>
232.889068603516

> <r_mmod_Improper_Torsional_Energy-OPLS-2005>
4.57564687728882

> <r_mmod_Van_der_Waal_Energy-OPLS-2005>
126.94718170166

> <r_mmod_Electrostatic_Energy-OPLS-2005>
-422.389862060547

> <r_mmod_Solvation_Energy-OPLS-2005>
-218.753433227539

> <b_mmod_Minimization_Converged-OPLS-2005>
0

> <r_mmod_RMS_Derivative-OPLS-2005>
0.582819879055023

$$$$
88
                    3D
 Structure written by MMmdl.
156165  0  0  1  0            999 V2000
  -30.6129  -14.8307   20.4796 C   0  0  0  0  0  0
  -30.4336  -12.5230   19.4788 C   0  0  0  0  0  0
  -29.5107  -12.5231   18.2393 C   0  0  0  0  0  0
  -28.0386  -12.3252   18.6519 C   0  0  0  0  0  0
  -27.6345  -13.2291   19.8448 C   0  0  2  0  0  0
  -28.6839  -13.1734   20.9772 C   0  0  0  0  0  0
  -25.2421  -13.8153   20.5638 C   0  0  0  0  0  0
  -24.1754  -13.0396   20.9219 C   0  0  0  0  0  0
  -24.6375  -11.6889   20.8769 C   0  0  0  0  0  0
  -23.9062  -10.4270   21.0422 C   0  0  0  0  0  0
  -24.3616   -9.4186   21.9196 C   0  0  0  0  0  0
  -23.6289   -8.2224   22.0761 C   0  0  0  0  0  0
  -22.4270   -8.0271   21.3548 C   0  0  0  0  0  0
  -21.9904   -9.0246   20.4652 C   0  0  0  0  0  0
  -22.7237  -10.2122   20.3064 C   0  0  0  0  0  0
  -21.6846   -6.0730   22.5280 C   0  0  0  0  0  0
  -21.4013   -6.5637   23.8213 C   0  0  0  0  0  0
  -21.3659   -5.6790   24.9175 C   0  0  0  0  0  0
  -21.6044   -4.3053   24.7225 C   0  0  0  0  0  0
  -21.8818   -3.8144   23.4347 C   0  0  0  0  0  0
  -21.9190   -4.6959   22.3403 C   0  0  0  0  0  0
  -22.7776  -13.5183   21.1882 C   0  0  0  0  0  0
  -22.1657   -4.2147   21.0979 F   0  0  0  0  0  0
  -21.5630   -3.4536   25.7738 F   0  0  0  0  0  0
  -29.9648  -13.6010   20.3943 N   0  0  0  0  0  0
  -26.2882  -12.9381   20.3252 N   0  0  0  0  0  0
  -25.9303  -11.6527   20.5765 N   0  0  0  0  0  0
  -22.0431  -12.8185   22.0453 N   0  0  0  0  0  0
  -25.3939  -15.1870   20.3930 N   0  0  0  0  0  0
  -31.8013  -14.8664   20.1393 O   0  0  0  0  0  0
  -21.6633   -6.8871   21.4240 O   0  0  0  0  0  0
  -22.3457  -14.5489   20.6729 O   0  0  0  0  0  0
  -24.6352  -31.8508   23.1933 C   0  0  0  0  0  0
  -25.9165  -32.4724   23.8292 C   0  0  1  0  0  0
  -27.2239  -27.2246   20.1486 C   0  0  0  0  0  0
  -25.5946  -33.8528   24.2226 N   0  0  0  0  0  0
  -23.4336  -30.4714   21.5366 C   0  0  2  0  0  0
  -24.8834  -28.9039   20.1157 C   0  0  0  0  0  0
  -22.7518  -29.4591   22.4892 C   0  0  0  0  0  0
  -18.0301  -28.1388   22.8486 C   0  0  0  0  0  0
  -24.1492  -36.7267   23.2640 C   0  0  0  0  0  0
  -25.9808  -30.7551   21.3748 C   0  0  0  0  0  0
  -26.0567  -29.3706   20.7237 C   0  0  0  0  0  0
  -27.2330  -28.5472   20.7203 C   0  0  0  0  0  0
  -26.0277  -26.8266   19.5183 C   0  0  0  0  0  0
  -24.8759  -27.6415   19.4996 C   0  0  0  0  0  0
  -23.6554  -29.7964   20.1563 C   0  0  0  0  0  0
  -25.4121  -36.3047   24.0319 C   0  0  1  0  0  0
  -20.5906  -28.3709   23.1257 C   0  0  2  0  0  0
  -20.6783  -26.9421   22.5407 C   0  0  0  0  0  0
  -19.5758  -26.6385   21.5211 C   0  0  0  0  0  0
  -18.1943  -26.7929   22.1626 C   0  0  0  0  0  0
  -19.1554  -28.8867   23.2866 C   0  0  0  0  0  0
  -18.9471  -30.1466   23.8887 C   0  0  0  0  0  0
  -17.6467  -30.6589   24.0565 C   0  0  0  0  0  0
  -25.9064  -34.9420   23.5077 C   0  0  0  0  0  0
  -16.5361  -29.9084   23.6331 C   0  0  0  0  0  0
  -16.7286  -28.6502   23.0355 C   0  0  0  0  0  0
  -26.4522  -31.6555   25.0692 C   0  0  0  0  0  0
  -25.3736  -31.3714   26.1405 C   0  0  0  0  0  0
  -27.0368  -30.2963   24.6194 C   0  0  0  0  0  0
  -27.6069  -32.4295   25.7481 C   0  0  0  0  0  0
  -27.5575  -37.1790   24.8467 C   0  0  0  0  0  0
  -21.4222  -29.3047   22.3632 N   0  0  0  0  0  0
  -26.4288  -37.3753   23.9407 N   0  0  0  0  0  0
  -24.7025  -31.0448   22.0912 N   0  0  0  0  0  0
  -23.4200  -28.8144   23.3014 O   0  0  0  0  0  0
  -28.3121  -26.3141   20.1352 O   0  0  0  0  0  0
  -26.5646  -34.8906   22.4649 O   0  0  0  0  0  0
  -23.5497  -32.1339   23.7216 O   0  0  0  0  0  0
  -28.0516  -22.2127   18.3076 C   0  0  0  0  0  0
  -28.4583  -23.5322   20.0724 C   0  0  0  0  0  0
  -28.9717  -21.2472   20.0932 C   0  0  0  0  0  0
  -28.4668  -17.8650   21.5226 C   0  0  0  0  0  0
  -28.6865  -16.3287   21.3819 C   0  0  0  0  0  0
  -30.4100  -17.4626   20.2648 C   0  0  0  0  0  0
  -29.2414  -18.5624   20.3995 C   0  0  2  0  0  0
  -27.5100  -22.0668   16.9013 C   0  0  0  0  0  0
  -28.1738  -24.9502   20.7960 C   0  0  0  0  0  0
  -28.0025  -23.4384   18.8268 N   0  0  0  0  0  0
  -28.5034  -21.0926   18.8706 N   0  0  0  0  0  0
  -28.9760  -22.4449   20.7510 N   0  0  0  0  0  0
  -29.9225  -16.0600   20.6323 N   0  0  0  0  0  0
  -29.5184  -20.0467   20.6877 N   0  0  0  0  0  0
  -31.4700  -12.6579   19.1662 H   0  0  0  0  0  0
  -30.4076  -11.5532   19.9786 H   0  0  0  0  0  0
  -29.8124  -11.7412   17.5417 H   0  0  0  0  0  0
  -29.6179  -13.4676   17.7041 H   0  0  0  0  0  0
  -27.9097  -11.2771   18.9239 H   0  0  0  0  0  0
  -27.3788  -12.5010   17.8015 H   0  0  0  0  0  0
  -27.6182  -14.2403   19.4415 H   0  0  0  0  0  0
  -28.7588  -12.1586   21.3710 H   0  0  0  0  0  0
  -28.3917  -13.7809   21.8292 H   0  0  0  0  0  0
  -25.2760   -9.5662   22.4773 H   0  0  0  0  0  0
  -23.9997   -7.4608   22.7475 H   0  0  0  0  0  0
  -21.0837   -8.8771   19.8951 H   0  0  0  0  0  0
  -22.3703  -10.9668   19.6176 H   0  0  0  0  0  0
  -21.2009   -7.6145   23.9717 H   0  0  0  0  0  0
  -21.1480   -6.0520   25.9079 H   0  0  0  0  0  0
  -22.0598   -2.7607   23.2847 H   0  0  0  0  0  0
  -22.4048  -11.9856   22.4856 H   0  0  0  0  0  0
  -21.1055  -13.1216   22.2666 H   0  0  0  0  0  0
  -24.6147  -15.8277   20.4986 H   0  0  0  0  0  0
  -26.2257  -15.6324   20.0296 H   0  0  0  0  0  0
  -26.7230  -32.5372   23.1030 H   0  0  0  0  0  0
  -25.0083  -33.9646   25.0365 H   0  0  0  0  0  0
  -22.7319  -31.2943   21.3845 H   0  0  0  0  0  0
  -23.3750  -35.9604   23.3300 H   0  0  0  0  0  0
  -24.3582  -36.8895   22.2054 H   0  0  0  0  0  0
  -23.7247  -37.6466   23.6671 H   0  0  0  0  0  0
  -26.1192  -31.5111   20.6009 H   0  0  0  0  0  0
  -26.8576  -30.8098   22.0085 H   0  0  0  0  0  0
  -28.1359  -28.9069   21.1942 H   0  0  0  0  0  0
  -25.9795  -25.8568   19.0426 H   0  0  0  0  0  0
  -23.9783  -27.2793   19.0174 H   0  0  0  0  0  0
  -23.7825  -30.5671   19.3949 H   0  0  0  0  0  0
  -22.7726  -29.2307   19.8536 H   0  0  0  0  0  0
  -25.1304  -36.1882   25.0810 H   0  0  0  0  0  0
  -21.0008  -28.3297   24.1372 H   0  0  0  0  0  0
  -20.5676  -26.2325   23.3618 H   0  0  0  0  0  0
  -21.6652  -26.7432   22.1207 H   0  0  0  0  0  0
  -19.6918  -25.6294   21.1247 H   0  0  0  0  0  0
  -19.6691  -27.3191   20.6736 H   0  0  0  0  0  0
  -17.4210  -26.6680   21.4032 H   0  0  0  0  0  0
  -18.0347  -26.0070   22.9021 H   0  0  0  0  0  0
  -19.7946  -30.7292   24.2248 H   0  0  0  0  0  0
  -17.5019  -31.6267   24.5170 H   0  0  0  0  0  0
  -15.5360  -30.2983   23.7654 H   0  0  0  0  0  0
  -15.8689  -28.0816   22.7070 H   0  0  0  0  0  0
  -24.5940  -30.7025   25.7738 H   0  0  0  0  0  0
  -24.8897  -32.2882   26.4779 H   0  0  0  0  0  0
  -25.8053  -30.8937   27.0209 H   0  0  0  0  0  0
  -26.2952  -29.6698   24.1222 H   0  0  0  0  0  0
  -27.4040  -29.7237   25.4723 H   0  0  0  0  0  0
  -27.8836  -30.4218   23.9442 H   0  0  0  0  0  0
  -27.2679  -33.3612   26.2020 H   0  0  0  0  0  0
  -28.3914  -32.6814   25.0333 H   0  0  0  0  0  0
  -28.0694  -31.8432   26.5432 H   0  0  0  0  0  0
  -28.2591  -38.0088   24.7508 H   0  0  0  0  0  0
  -28.1072  -36.2615   24.6303 H   0  0  0  0  0  0
  -27.2294  -37.1450   25.8871 H   0  0  0  0  0  0
  -20.9418  -29.8752   21.6815 H   0  0  0  0  0  0
  -26.0158  -38.2822   24.1407 H   0  0  0  0  0  0
  -28.8615  -18.1802   22.4901 H   0  0  0  0  0  0
  -27.4071  -18.1253   21.5148 H   0  0  0  0  0  0
  -27.8512  -15.9055   20.8389 H   0  0  0  0  0  0
  -28.7187  -15.8695   22.3705 H   0  0  0  0  0  0
  -30.8243  -17.4632   19.2555 H   0  0  0  0  0  0
  -31.2321  -17.7084   20.9387 H   0  0  0  0  0  0
  -28.6375  -18.5087   19.4921 H   0  0  0  0  0  0
  -26.7436  -22.8137   16.6929 H   0  0  0  0  0  0
  -27.0609  -21.0840   16.7565 H   0  0  0  0  0  0
  -28.3116  -22.1854   16.1729 H   0  0  0  0  0  0
  -28.8270  -24.9818   21.6680 H   0  0  0  0  0  0
  -27.1685  -24.8762   21.2119 H   0  0  0  0  0  0
  -29.9272  -20.2201   21.5981 H   0  0  0  0  0  0
  1 25  1  0  0  0
  1 30  2  0  0  0
  1 83  1  0  0  0
  2  3  1  0  0  0
  2 25  1  0  0  0
  2 85  1  0  0  0
  2 86  1  0  0  0
  3  4  1  0  0  0
  3 87  1  0  0  0
  3 88  1  0  0  0
  4  5  1  0  0  0
  4 89  1  0  0  0
  4 90  1  0  0  0
  5  6  1  0  0  0
  5 26  1  0  0  0
  5 91  1  0  0  0
  6 25  1  0  0  0
  6 92  1  0  0  0
  6 93  1  0  0  0
  7  8  2  0  0  0
  7 26  1  0  0  0
  7 29  1  0  0  0
  8  9  1  0  0  0
  8 22  1  0  0  0
  9 10  1  0  0  0
  9 27  2  0  0  0
 10 11  2  0  0  0
 10 15  1  0  0  0
 11 12  1  0  0  0
 11 94  1  0  0  0
 12 13  2  0  0  0
 12 95  1  0  0  0
 13 14  1  0  0  0
 13 31  1  0  0  0
 14 15  2  0  0  0
 14 96  1  0  0  0
 15 97  1  0  0  0
 16 17  2  0  0  0
 16 21  1  0  0  0
 16 31  1  0  0  0
 17 18  1  0  0  0
 17 98  1  0  0  0
 18 19  2  0  0  0
 18 99  1  0  0  0
 19 20  1  0  0  0
 19 24  1  0  0  0
 20 21  2  0  0  0
 20100  1  0  0  0
 21 23  1  0  0  0
 22 28  1  0  0  0
 22 32  2  0  0  0
 26 27  1  0  0  0
 28101  1  0  0  0
 28102  1  0  0  0
 29103  1  0  0  0
 29104  1  0  0  0
 33 34  1  0  0  0
 33 66  1  0  0  0
 33 70  2  0  0  0
 34 36  1  0  0  0
 34 59  1  0  0  0
 34105  1  0  0  0
 35 44  2  0  0  0
 35 45  1  0  0  0
 35 68  1  0  0  0
 36 56  1  0  0  0
 36106  1  0  0  0
 37 39  1  0  0  0
 37 47  1  0  0  0
 37 66  1  0  0  0
 37107  1  0  0  0
 38 43  2  0  0  0
 38 46  1  0  0  0
 38 47  1  0  0  0
 39 64  1  0  0  0
 39 67  2  0  0  0
 40 52  1  0  0  0
 40 53  2  0  0  0
 40 58  1  0  0  0
 41108  1  0  0  0
 41109  1  0  0  0
 41110  1  0  0  0
 41 48  1  0  0  0
 42 43  1  0  0  0
 42 66  1  0  0  0
 42111  1  0  0  0
 42112  1  0  0  0
 43 44  1  0  0  0
 44113  1  0  0  0
 45 46  2  0  0  0
 45114  1  0  0  0
 46115  1  0  0  0
 47116  1  0  0  0
 47117  1  0  0  0
 48 56  1  0  0  0
 48 65  1  0  0  0
 48118  1  0  0  0
 49 50  1  0  0  0
 49 53  1  0  0  0
 49 64  1  0  0  0
 49119  1  0  0  0
 50 51  1  0  0  0
 50120  1  0  0  0
 50121  1  0  0  0
 51 52  1  0  0  0
 51122  1  0  0  0
 51123  1  0  0  0
 52124  1  0  0  0
 52125  1  0  0  0
 53 54  1  0  0  0
 54 55  2  0  0  0
 54126  1  0  0  0
 55 57  1  0  0  0
 55127  1  0  0  0
 56 69  2  0  0  0
 57 58  2  0  0  0
 57128  1  0  0  0
 58129  1  0  0  0
 59 60  1  0  0  0
 59 61  1  0  0  0
 59 62  1  0  0  0
 60130  1  0  0  0
 60131  1  0  0  0
 60132  1  0  0  0
 61133  1  0  0  0
 61134  1  0  0  0
 61135  1  0  0  0
 62136  1  0  0  0
 62137  1  0  0  0
 62138  1  0  0  0
 63 65  1  0  0  0
 63139  1  0  0  0
 63140  1  0  0  0
 63141  1  0  0  0
 64142  1  0  0  0
 65143  1  0  0  0
 68 79  1  0  0  0
 71 78  1  0  0  0
 71 80  2  0  0  0
 71 81  1  0  0  0
 72 79  1  0  0  0
 72 80  1  0  0  0
 72 82  2  0  0  0
 73 81  2  0  0  0
 73 82  1  0  0  0
 73 84  1  0  0  0
 74 75  1  0  0  0
 74 77  1  0  0  0
 74144  1  0  0  0
 74145  1  0  0  0
 75 83  1  0  0  0
 75146  1  0  0  0
 75147  1  0  0  0
 76 77  1  0  0  0
 76 83  1  0  0  0
 76148  1  0  0  0
 76149  1  0  0  0
 77 84  1  0  0  0
 77150  1  0  0  0
 78151  1  0  0  0
 78152  1  0  0  0
 78153  1  0  0  0
 79154  1  0  0  0
 79155  1  0  0  0
 84156  1  0  0  0
M  ISO  4   1 100  68 101  79 101  83 100
M  END
> <chiral flag>
0

> <version>
0

> <s_m_source_file>
/data/baiqing/PycharmProjects/Reinvent-master-3.2/result/LINK_invent/BTK/process_docking_weight1_custom_sum_contain_oxygen_bond_distance_aromatic_linkinvent_7_9_3/rearranged_h_0177.sdf

> <i_m_source_file_index>
89

> <r_mmod_Potential_Energy-OPLS-2005>
-339.990539550781

> <r_mmod_Stretch_Energy-OPLS-2005>
147.006683349609

> <r_mmod_Bend_Energy-OPLS-2005>
227.065582275391

> <r_mmod_Torsional_Energy-OPLS-2005>
320.4560546875

> <r_mmod_Improper_Torsional_Energy-OPLS-2005>
9.63319396972656

> <r_mmod_Van_der_Waal_Energy-OPLS-2005>
149.271484375

> <r_mmod_Electrostatic_Energy-OPLS-2005>
-1064.931640625

> <r_mmod_Solvation_Energy-OPLS-2005>
-240.221908569336

> <b_mmod_Minimization_Converged-OPLS-2005>
0

> <r_mmod_RMS_Derivative-OPLS-2005>
0.757814764976501

$$$$
89
                    3D
 Structure written by MMmdl.
169178  0  0  1  0            999 V2000
  -30.7185  -14.5527   20.5564 C   0  0  0  0  0  0
  -30.4293  -12.3640   19.4312 C   0  0  0  0  0  0
  -29.5040  -12.5147   18.2079 C   0  0  0  0  0  0
  -28.0244  -12.3583   18.6152 C   0  0  0  0  0  0
  -27.6606  -13.1912   19.8721 C   0  0  2  0  0  0
  -28.7177  -13.0165   20.9912 C   0  0  0  0  0  0
  -25.2644  -13.8031   20.5797 C   0  0  0  0  0  0
  -24.1899  -13.0341   20.9277 C   0  0  0  0  0  0
  -24.6459  -11.6799   20.8836 C   0  0  0  0  0  0
  -23.9117  -10.4209   21.0472 C   0  0  0  0  0  0
  -24.3643   -9.4099   21.9240 C   0  0  0  0  0  0
  -23.6307   -8.2147   22.0766 C   0  0  0  0  0  0
  -22.4275   -8.0234   21.3551 C   0  0  0  0  0  0
  -21.9956   -9.0226   20.4643 C   0  0  0  0  0  0
  -22.7306  -10.2100   20.3100 C   0  0  0  0  0  0
  -21.6800   -6.0740   22.5318 C   0  0  0  0  0  0
  -21.3957   -6.5644   23.8256 C   0  0  0  0  0  0
  -21.3664   -5.6806   24.9219 C   0  0  0  0  0  0
  -21.6054   -4.3076   24.7274 C   0  0  0  0  0  0
  -21.8799   -3.8164   23.4384 C   0  0  0  0  0  0
  -21.9155   -4.6979   22.3445 C   0  0  0  0  0  0
  -22.7918  -13.5165   21.1845 C   0  0  0  0  0  0
  -22.1618   -4.2175   21.1019 F   0  0  0  0  0  0
  -21.5670   -3.4559   25.7776 F   0  0  0  0  0  0
  -30.0242  -13.3773   20.4279 N   0  0  0  0  0  0
  -26.3075  -12.9188   20.3424 N   0  0  0  0  0  0
  -25.9383  -11.6353   20.5844 N   0  0  0  0  0  0
  -22.0498  -12.8183   22.0360 N   0  0  0  0  0  0
  -25.4283  -15.1748   20.4194 N   0  0  0  0  0  0
  -31.8622  -14.6393   20.1000 O   0  0  0  0  0  0
  -21.6578   -6.8886   21.4277 O   0  0  0  0  0  0
  -22.3632  -14.5475   20.6648 O   0  0  0  0  0  0
  -24.6183  -31.8658   23.2095 C   0  0  0  0  0  0
  -25.9040  -32.4817   23.8388 C   0  0  1  0  0  0
  -27.2224  -27.3706   20.1125 C   0  0  0  0  0  0
  -25.5864  -33.8613   24.2324 N   0  0  0  0  0  0
  -23.4089  -30.4907   21.5512 C   0  0  2  0  0  0
  -24.8558  -28.9589   20.1099 C   0  0  0  0  0  0
  -22.7427  -29.4644   22.4969 C   0  0  0  0  0  0
  -18.0276  -28.1392   22.8492 C   0  0  0  0  0  0
  -24.1469  -36.7286   23.2643 C   0  0  0  0  0  0
  -25.9455  -30.8124   21.3748 C   0  0  0  0  0  0
  -26.0191  -29.4440   20.7172 C   0  0  0  0  0  0
  -27.2043  -28.6592   20.7142 C   0  0  0  0  0  0
  -26.0389  -26.9294   19.4753 C   0  0  0  0  0  0
  -24.8655  -27.7059   19.4797 C   0  0  0  0  0  0
  -23.6181  -29.8301   20.1645 C   0  0  0  0  0  0
  -25.4105  -36.3111   24.0339 C   0  0  1  0  0  0
  -20.5868  -28.3674   23.1304 C   0  0  2  0  0  0
  -20.6770  -26.9399   22.5434 C   0  0  0  0  0  0
  -19.5750  -26.6388   21.5226 C   0  0  0  0  0  0
  -18.1919  -26.7952   22.1614 C   0  0  0  0  0  0
  -19.1530  -28.8848   23.2901 C   0  0  0  0  0  0
  -18.9456  -30.1452   23.8909 C   0  0  0  0  0  0
  -17.6463  -30.6597   24.0569 C   0  0  0  0  0  0
  -25.9036  -34.9480   23.5145 C   0  0  0  0  0  0
  -16.5350  -29.9102   23.6338 C   0  0  0  0  0  0
  -16.7272  -28.6518   23.0360 C   0  0  0  0  0  0
  -26.4465  -31.6596   25.0715 C   0  0  0  0  0  0
  -25.3711  -31.3651   26.1429 C   0  0  0  0  0  0
  -27.0309  -30.3047   24.6099 C   0  0  0  0  0  0
  -27.6063  -32.4295   25.7461 C   0  0  0  0  0  0
  -27.5599  -37.1785   24.8456 C   0  0  0  0  0  0
  -21.4151  -29.3023   22.3692 N   0  0  0  0  0  0
  -26.4291  -37.3810   23.9436 N   0  0  0  0  0  0
  -24.6758  -31.0707   22.1022 N   0  0  0  0  0  0
  -23.4177  -28.8191   23.3026 O   0  0  0  0  0  0
  -28.3602  -26.5640   20.1803 O   0  0  0  0  0  0
  -26.5625  -34.8919   22.4730 O   0  0  0  0  0  0
  -23.5353  -32.1427   23.7450 O   0  0  0  0  0  0
  -27.8414  -20.5730   20.4133 C   0  0  0  0  0  0
  -31.0352  -16.7436   21.6566 C   0  0  0  0  0  0
  -28.8156  -16.1927   20.8302 C   0  0  0  0  0  0
  -28.2270  -21.9315   21.0746 C   0  0  0  0  0  0
  -30.8547  -18.0452   20.8121 C   0  0  0  0  0  0
  -28.5011  -17.6338   21.3453 C   0  0  0  0  0  0
  -30.3708  -21.9478   19.9707 C   0  0  0  0  0  0
  -30.0449  -20.6333   19.2039 C   0  0  2  0  0  0
  -29.0338  -19.6672   19.9366 C   0  0  1  0  0  0
  -31.2662  -20.0388   18.4748 C   0  0  0  0  0  0
  -29.3061  -24.1816   20.5557 C   0  0  0  0  0  0
  -28.1871  -25.1240   19.9875 C   0  0  0  0  0  0
  -30.1569  -15.6522   21.1689 N   0  0  0  0  0  0
  -29.5172  -18.6823   20.9975 N   0  3  0  0  0  0
  -29.1193  -22.7276   20.1862 N   0  3  2  0  0  0
  -31.4714  -12.4611   19.1219 H   0  0  0  0  0  0
  -30.3525  -11.3596   19.8525 H   0  0  0  0  0  0
  -29.7625  -11.7816   17.4425 H   0  0  0  0  0  0
  -29.6586  -13.4976   17.7559 H   0  0  0  0  0  0
  -27.8282  -11.3005   18.7915 H   0  0  0  0  0  0
  -27.3850  -12.6529   17.7835 H   0  0  0  0  0  0
  -27.6690  -14.2209   19.5255 H   0  0  0  0  0  0
  -28.7382  -11.9761   21.3205 H   0  0  0  0  0  0
  -28.4861  -13.5864   21.8901 H   0  0  0  0  0  0
  -25.2793   -9.5492   22.4847 H   0  0  0  0  0  0
  -23.9978   -7.4484   22.7463 H   0  0  0  0  0  0
  -21.0899   -8.8780   19.8929 H   0  0  0  0  0  0
  -22.3825  -10.9665   19.6215 H   0  0  0  0  0  0
  -21.1895   -7.6139   23.9759 H   0  0  0  0  0  0
  -21.1521   -6.0550   25.9128 H   0  0  0  0  0  0
  -22.0564   -2.7632   23.2912 H   0  0  0  0  0  0
  -22.4091  -11.9901   22.4861 H   0  0  0  0  0  0
  -21.1067  -13.1180   22.2380 H   0  0  0  0  0  0
  -24.6530  -15.8158   20.5520 H   0  0  0  0  0  0
  -26.2515  -15.6174   20.0390 H   0  0  0  0  0  0
  -26.7103  -32.5525   23.1129 H   0  0  0  0  0  0
  -24.9961  -33.9791   25.0430 H   0  0  0  0  0  0
  -22.6997  -31.3104   21.4152 H   0  0  0  0  0  0
  -23.3788  -35.9559   23.3250 H   0  0  0  0  0  0
  -24.3580  -36.8969   22.2075 H   0  0  0  0  0  0
  -23.7127  -37.6422   23.6705 H   0  0  0  0  0  0
  -26.0635  -31.5798   20.6093 H   0  0  0  0  0  0
  -26.8298  -30.8653   21.9968 H   0  0  0  0  0  0
  -28.0950  -29.0201   21.2077 H   0  0  0  0  0  0
  -25.9859  -25.9741   18.9738 H   0  0  0  0  0  0
  -23.9749  -27.3326   18.9933 H   0  0  0  0  0  0
  -23.7182  -30.6096   19.4074 H   0  0  0  0  0  0
  -22.7411  -29.2507   19.8690 H   0  0  0  0  0  0
  -25.1287  -36.1987   25.0832 H   0  0  0  0  0  0
  -20.9968  -28.3260   24.1416 H   0  0  0  0  0  0
  -20.5679  -26.2278   23.3623 H   0  0  0  0  0  0
  -21.6645  -26.7431   22.1227 H   0  0  0  0  0  0
  -19.6918  -25.6294   21.1266 H   0  0  0  0  0  0
  -19.6735  -27.3204   20.6761 H   0  0  0  0  0  0
  -17.4206  -26.6707   21.4001 H   0  0  0  0  0  0
  -18.0306  -26.0087   22.8991 H   0  0  0  0  0  0
  -19.7919  -30.7286   24.2286 H   0  0  0  0  0  0
  -17.5000  -31.6288   24.5159 H   0  0  0  0  0  0
  -15.5355  -30.3015   23.7656 H   0  0  0  0  0  0
  -15.8663  -28.0864   22.7071 H   0  0  0  0  0  0
  -24.5900  -30.7016   25.7684 H   0  0  0  0  0  0
  -24.8874  -32.2776   26.4925 H   0  0  0  0  0  0
  -25.8028  -30.8734   27.0154 H   0  0  0  0  0  0
  -26.2853  -29.6786   24.1173 H   0  0  0  0  0  0
  -27.4102  -29.7303   25.4560 H   0  0  0  0  0  0
  -27.8682  -30.4380   23.9240 H   0  0  0  0  0  0
  -27.2748  -33.3634   26.2005 H   0  0  0  0  0  0
  -28.3874  -32.6772   25.0261 H   0  0  0  0  0  0
  -28.0701  -31.8404   26.5376 H   0  0  0  0  0  0
  -28.2553  -38.0145   24.7625 H   0  0  0  0  0  0
  -28.1155  -36.2685   24.6149 H   0  0  0  0  0  0
  -27.2322  -37.1280   25.8849 H   0  0  0  0  0  0
  -20.9316  -29.8689   21.6866 H   0  0  0  0  0  0
  -26.0176  -38.2866   24.1528 H   0  0  0  0  0  0
  -27.2461  -20.8150   19.5316 H   0  0  0  0  0  0
  -27.1480  -20.0463   21.0652 H   0  0  0  0  0  0
  -30.8171  -16.9268   22.7095 H   0  0  0  0  0  0
  -32.0883  -16.4569   21.6553 H   0  0  0  0  0  0
  -28.7090  -16.1891   19.7439 H   0  0  0  0  0  0
  -28.0353  -15.5614   21.2422 H   0  0  0  0  0  0
  -28.7133  -21.7570   22.0374 H   0  0  0  0  0  0
  -27.3232  -22.4995   21.2991 H   0  0  0  0  0  0
  -30.9816  -17.7687   19.7663 H   0  0  0  0  0  0
  -31.6319  -18.7656   21.0613 H   0  0  0  0  0  0
  -28.4411  -17.6011   22.4351 H   0  0  0  0  0  0
  -27.4955  -17.9092   21.0268 H   0  0  0  0  0  0
  -31.0818  -22.5416   19.3937 H   0  0  0  0  0  0
  -30.8591  -21.7267   20.9226 H   0  0  0  0  0  0
  -29.4543  -20.9774   18.3497 H   0  0  0  0  0  0
  -28.6381  -19.0134   19.1552 H   0  0  0  0  0  0
  -32.1106  -19.8401   19.1330 H   0  0  0  0  0  0
  -31.6242  -20.7449   17.7225 H   0  0  0  0  0  0
  -31.0050  -19.1271   17.9363 H   0  0  0  0  0  0
  -29.3801  -24.2834   21.6394 H   0  0  0  0  0  0
  -30.2621  -24.5239   20.1568 H   0  0  0  0  0  0
  -27.2471  -24.8019   20.4386 H   0  0  0  0  0  0
  -28.0957  -24.9494   18.9153 H   0  0  0  0  0  0
  -29.6150  -19.2209   21.8465 H   0  0  0  0  0  0
  -28.6725  -22.7613   19.2811 H   0  0  0  0  0  0
  1 25  1  0  0  0
  1 30  2  0  0  0
  1 83  1  0  0  0
  2  3  1  0  0  0
  2 25  1  0  0  0
  2 86  1  0  0  0
  2 87  1  0  0  0
  3  4  1  0  0  0
  3 88  1  0  0  0
  3 89  1  0  0  0
  4  5  1  0  0  0
  4 90  1  0  0  0
  4 91  1  0  0  0
  5  6  1  0  0  0
  5 26  1  0  0  0
  5 92  1  0  0  0
  6 25  1  0  0  0
  6 93  1  0  0  0
  6 94  1  0  0  0
  7  8  2  0  0  0
  7 26  1  0  0  0
  7 29  1  0  0  0
  8  9  1  0  0  0
  8 22  1  0  0  0
  9 10  1  0  0  0
  9 27  2  0  0  0
 10 11  2  0  0  0
 10 15  1  0  0  0
 11 12  1  0  0  0
 11 95  1  0  0  0
 12 13  2  0  0  0
 12 96  1  0  0  0
 13 14  1  0  0  0
 13 31  1  0  0  0
 14 15  2  0  0  0
 14 97  1  0  0  0
 15 98  1  0  0  0
 16 17  2  0  0  0
 16 21  1  0  0  0
 16 31  1  0  0  0
 17 18  1  0  0  0
 17 99  1  0  0  0
 18 19  2  0  0  0
 18100  1  0  0  0
 19 20  1  0  0  0
 19 24  1  0  0  0
 20 21  2  0  0  0
 20101  1  0  0  0
 21 23  1  0  0  0
 22 28  1  0  0  0
 22 32  2  0  0  0
 26 27  1  0  0  0
 28102  1  0  0  0
 28103  1  0  0  0
 29104  1  0  0  0
 29105  1  0  0  0
 33 34  1  0  0  0
 33 66  1  0  0  0
 33 70  2  0  0  0
 34 36  1  0  0  0
 34 59  1  0  0  0
 34106  1  0  0  0
 35 44  2  0  0  0
 35 45  1  0  0  0
 35 68  1  0  0  0
 36 56  1  0  0  0
 36107  1  0  0  0
 37 39  1  0  0  0
 37 47  1  0  0  0
 37 66  1  0  0  0
 37108  1  0  0  0
 38 43  2  0  0  0
 38 46  1  0  0  0
 38 47  1  0  0  0
 39 64  1  0  0  0
 39 67  2  0  0  0
 40 52  1  0  0  0
 40 53  2  0  0  0
 40 58  1  0  0  0
 41109  1  0  0  0
 41110  1  0  0  0
 41111  1  0  0  0
 41 48  1  0  0  0
 42 43  1  0  0  0
 42 66  1  0  0  0
 42112  1  0  0  0
 42113  1  0  0  0
 43 44  1  0  0  0
 44114  1  0  0  0
 45 46  2  0  0  0
 45115  1  0  0  0
 46116  1  0  0  0
 47117  1  0  0  0
 47118  1  0  0  0
 48 56  1  0  0  0
 48 65  1  0  0  0
 48119  1  0  0  0
 49 50  1  0  0  0
 49 53  1  0  0  0
 49 64  1  0  0  0
 49120  1  0  0  0
 50 51  1  0  0  0
 50121  1  0  0  0
 50122  1  0  0  0
 51 52  1  0  0  0
 51123  1  0  0  0
 51124  1  0  0  0
 52125  1  0  0  0
 52126  1  0  0  0
 53 54  1  0  0  0
 54 55  2  0  0  0
 54127  1  0  0  0
 55 57  1  0  0  0
 55128  1  0  0  0
 56 69  2  0  0  0
 57 58  2  0  0  0
 57129  1  0  0  0
 58130  1  0  0  0
 59 60  1  0  0  0
 59 61  1  0  0  0
 59 62  1  0  0  0
 60131  1  0  0  0
 60132  1  0  0  0
 60133  1  0  0  0
 61134  1  0  0  0
 61135  1  0  0  0
 61136  1  0  0  0
 62137  1  0  0  0
 62138  1  0  0  0
 62139  1  0  0  0
 63 65  1  0  0  0
 63140  1  0  0  0
 63141  1  0  0  0
 63142  1  0  0  0
 64143  1  0  0  0
 65144  1  0  0  0
 68 82  1  0  0  0
 71 74  1  0  0  0
 71145  1  0  0  0
 71146  1  0  0  0
 71 79  1  0  0  0
 72 75  1  0  0  0
 72 83  1  0  0  0
 72147  1  0  0  0
 72148  1  0  0  0
 73 76  1  0  0  0
 73 83  1  0  0  0
 73149  1  0  0  0
 73150  1  0  0  0
 74 85  1  0  0  0
 74151  1  0  0  0
 74152  1  0  0  0
 75153  1  0  0  0
 75154  1  0  0  0
 75 84  1  0  0  0
 76 84  1  0  0  0
 76155  1  0  0  0
 76156  1  0  0  0
 77 78  1  0  0  0
 77 85  1  0  0  0
 77157  1  0  0  0
 77158  1  0  0  0
 78 79  1  0  0  0
 78 80  1  0  0  0
 78159  1  0  0  0
 79 84  1  0  0  0
 79160  1  0  0  0
 80161  1  0  0  0
 80162  1  0  0  0
 80163  1  0  0  0
 81 82  1  0  0  0
 81164  1  0  0  0
 81165  1  0  0  0
 81 85  1  0  0  0
 82166  1  0  0  0
 82167  1  0  0  0
 84168  1  0  0  0
 85169  1  0  0  0
M  CHG  2  84   1  85   1
M  ISO  4   1 100  68 101  82 101  83 100
M  END
> <chiral flag>
0

> <version>
0

> <s_m_source_file>
/data/baiqing/PycharmProjects/Reinvent-master-3.2/result/LINK_invent/BTK/process_docking_weight1_custom_sum_contain_oxygen_bond_distance_aromatic_linkinvent_7_9_3/rearranged_h_0177.sdf

> <i_m_source_file_index>
90

> <r_mmod_Potential_Energy-OPLS-2005>
131.239028930664

> <r_mmod_Stretch_Energy-OPLS-2005>
66.6950531005859

> <r_mmod_Bend_Energy-OPLS-2005>
169.954696655273

> <r_mmod_Torsional_Energy-OPLS-2005>
435.685668945312

> <r_mmod_Improper_Torsional_Energy-OPLS-2005>
4.10901880264282

> <r_mmod_Van_der_Waal_Energy-OPLS-2005>
166.035781860352

> <r_mmod_Electrostatic_Energy-OPLS-2005>
206.053359985352

> <r_mmod_Solvation_Energy-OPLS-2005>
-945.283996582031

> <b_mmod_Minimization_Converged-OPLS-2005>
0

> <r_mmod_RMS_Derivative-OPLS-2005>
4.36585855484009

$$$$
90
                    3D
 Structure written by MMmdl.
168177  0  0  1  0            999 V2000
  -30.6847  -14.5788   20.4965 C   0  0  0  0  0  0
  -30.4149  -12.3568   19.4486 C   0  0  0  0  0  0
  -29.4947  -12.4877   18.2175 C   0  0  0  0  0  0
  -28.0182  -12.3443   18.6329 C   0  0  0  0  0  0
  -27.6451  -13.2200   19.8606 C   0  0  2  0  0  0
  -28.6917  -13.1027   20.9907 C   0  0  0  0  0  0
  -25.2526  -13.8162   20.5729 C   0  0  0  0  0  0
  -24.1801  -13.0430   20.9226 C   0  0  0  0  0  0
  -24.6374  -11.6900   20.8771 C   0  0  0  0  0  0
  -23.9046  -10.4282   21.0422 C   0  0  0  0  0  0
  -24.3604   -9.4201   21.9201 C   0  0  0  0  0  0
  -23.6281   -8.2233   22.0769 C   0  0  0  0  0  0
  -22.4268   -8.0267   21.3554 C   0  0  0  0  0  0
  -21.9911   -9.0240   20.4646 C   0  0  0  0  0  0
  -22.7222  -10.2130   20.3061 C   0  0  0  0  0  0
  -21.6849   -6.0725   22.5290 C   0  0  0  0  0  0
  -21.4004   -6.5635   23.8219 C   0  0  0  0  0  0
  -21.3655   -5.6797   24.9188 C   0  0  0  0  0  0
  -21.6044   -4.3058   24.7245 C   0  0  0  0  0  0
  -21.8822   -3.8142   23.4368 C   0  0  0  0  0  0
  -21.9191   -4.6949   22.3420 C   0  0  0  0  0  0
  -22.7827  -13.5234   21.1866 C   0  0  0  0  0  0
  -22.1666   -4.2124   21.0996 F   0  0  0  0  0  0
  -21.5630   -3.4550   25.7759 F   0  0  0  0  0  0
  -30.0064  -13.3974   20.4094 N   0  0  0  0  0  0
  -26.2949  -12.9348   20.3351 N   0  0  0  0  0  0
  -25.9300  -11.6503   20.5776 N   0  0  0  0  0  0
  -22.0471  -12.8232   22.0427 N   0  0  0  0  0  0
  -25.4231  -15.1879   20.4159 N   0  0  0  0  0  0
  -31.8749  -14.6642   20.1799 O   0  0  0  0  0  0
  -21.6629   -6.8868   21.4247 O   0  0  0  0  0  0
  -22.3523  -14.5541   20.6712 O   0  0  0  0  0  0
  -24.6237  -31.8637   23.2110 C   0  0  0  0  0  0
  -25.9101  -32.4791   23.8412 C   0  0  1  0  0  0
  -27.2051  -27.3488   20.1015 C   0  0  0  0  0  0
  -25.5943  -33.8598   24.2323 N   0  0  0  0  0  0
  -23.4134  -30.4939   21.5534 C   0  0  2  0  0  0
  -24.8547  -28.9648   20.1059 C   0  0  0  0  0  0
  -22.7463  -29.4642   22.4960 C   0  0  0  0  0  0
  -18.0280  -28.1394   22.8508 C   0  0  0  0  0  0
  -24.1482  -36.7289   23.2656 C   0  0  0  0  0  0
  -25.9555  -30.7993   21.3849 C   0  0  0  0  0  0
  -26.0233  -29.4343   20.7177 C   0  0  0  0  0  0
  -27.2025  -28.6356   20.7136 C   0  0  0  0  0  0
  -26.0206  -26.9458   19.4373 C   0  0  0  0  0  0
  -24.8530  -27.7244   19.4563 C   0  0  0  0  0  0
  -23.6239  -29.8429   20.1638 C   0  0  0  0  0  0
  -25.4111  -36.3091   24.0340 C   0  0  1  0  0  0
  -20.5881  -28.3693   23.1298 C   0  0  2  0  0  0
  -20.6760  -26.9424   22.5421 C   0  0  0  0  0  0
  -19.5721  -26.6388   21.5237 C   0  0  0  0  0  0
  -18.1904  -26.7940   22.1655 C   0  0  0  0  0  0
  -19.1536  -28.8861   23.2895 C   0  0  0  0  0  0
  -18.9460  -30.1475   23.8891 C   0  0  0  0  0  0
  -17.6461  -30.6606   24.0569 C   0  0  0  0  0  0
  -25.9047  -34.9459   23.5116 C   0  0  0  0  0  0
  -16.5345  -29.9100   23.6355 C   0  0  0  0  0  0
  -16.7272  -28.6520   23.0368 C   0  0  0  0  0  0
  -26.4504  -31.6605   25.0782 C   0  0  0  0  0  0
  -25.3743  -31.3695   26.1505 C   0  0  0  0  0  0
  -27.0401  -30.3048   24.6250 C   0  0  0  0  0  0
  -27.6038  -32.4375   25.7562 C   0  0  0  0  0  0
  -27.5573  -37.1799   24.8486 C   0  0  0  0  0  0
  -21.4177  -29.3036   22.3689 N   0  0  0  0  0  0
  -26.4288  -37.3788   23.9424 N   0  0  0  0  0  0
  -24.6822  -31.0682   22.1053 N   0  0  0  0  0  0
  -23.4217  -28.8165   23.3009 O   0  0  0  0  0  0
  -28.3058  -26.4866   20.1806 O   0  0  0  0  0  0
  -26.5606  -34.8913   22.4676 O   0  0  0  0  0  0
  -23.5410  -32.1440   23.7450 O   0  0  0  0  0  0
  -26.4408  -21.2075   21.3657 C   0  0  0  0  0  0
  -27.2735  -19.9310   21.4829 C   0  0  0  0  0  0
  -27.3090  -22.4481   21.6168 C   0  0  0  0  0  0
  -29.6927  -16.4584   19.3763 C   0  0  0  0  0  0
  -30.3778  -16.7040   21.6764 C   0  0  0  0  0  0
  -28.7986  -17.7260   19.5004 C   0  0  0  0  0  0
  -29.4957  -17.9926   21.8005 C   0  0  0  0  0  0
  -28.4820  -20.0013   20.5262 C   0  0  1  0  0  0
  -29.2755  -21.3694   20.7463 C   0  0  1  0  0  0
  -30.4544  -21.4818   19.7588 C   0  0  0  0  0  0
  -28.9441  -23.9501   20.6655 C   0  0  0  0  0  0
  -28.0200  -25.0527   20.0079 C   0  0  0  0  0  0
  -29.9507  -15.7300   20.6413 N   0  0  0  0  0  0
  -28.3678  -22.5627   20.5975 N   0  0  0  0  0  0
  -29.2949  -18.7098   20.5046 N   0  3  0  0  0  0
  -31.4596  -12.4510   19.1455 H   0  0  0  0  0  0
  -30.3191  -11.3674   19.8996 H   0  0  0  0  0  0
  -29.7476  -11.7296   17.4754 H   0  0  0  0  0  0
  -29.6522  -13.4534   17.7334 H   0  0  0  0  0  0
  -27.8440  -11.2925   18.8636 H   0  0  0  0  0  0
  -27.3646  -12.5787   17.7915 H   0  0  0  0  0  0
  -27.6531  -14.2521   19.5144 H   0  0  0  0  0  0
  -28.6863  -12.1030   21.4251 H   0  0  0  0  0  0
  -28.4550  -13.7909   21.8039 H   0  0  0  0  0  0
  -25.2750   -9.5679   22.4786 H   0  0  0  0  0  0
  -23.9973   -7.4636   22.7517 H   0  0  0  0  0  0
  -21.0840   -8.8774   19.8957 H   0  0  0  0  0  0
  -22.3682  -10.9684   19.6177 H   0  0  0  0  0  0
  -21.1998   -7.6145   23.9704 H   0  0  0  0  0  0
  -21.1470   -6.0538   25.9087 H   0  0  0  0  0  0
  -22.0601   -2.7602   23.2881 H   0  0  0  0  0  0
  -22.4081  -11.9872   22.4780 H   0  0  0  0  0  0
  -21.1100  -13.1264   22.2662 H   0  0  0  0  0  0
  -24.6545  -15.8404   20.5275 H   0  0  0  0  0  0
  -26.2801  -15.6268   20.1092 H   0  0  0  0  0  0
  -26.7170  -32.5465   23.1164 H   0  0  0  0  0  0
  -25.0101  -33.9767   25.0473 H   0  0  0  0  0  0
  -22.7037  -31.3134   21.4214 H   0  0  0  0  0  0
  -23.3759  -35.9605   23.3311 H   0  0  0  0  0  0
  -24.3556  -36.8935   22.2071 H   0  0  0  0  0  0
  -23.7226  -37.6482   23.6683 H   0  0  0  0  0  0
  -26.0975  -31.5694   20.6258 H   0  0  0  0  0  0
  -26.8317  -30.8325   22.0205 H   0  0  0  0  0  0
  -28.0938  -28.9822   21.2172 H   0  0  0  0  0  0
  -25.9572  -26.0102   18.9016 H   0  0  0  0  0  0
  -23.9618  -27.3677   18.9581 H   0  0  0  0  0  0
  -23.7406  -30.6270   19.4153 H   0  0  0  0  0  0
  -22.7414  -29.2763   19.8600 H   0  0  0  0  0  0
  -25.1287  -36.1943   25.0830 H   0  0  0  0  0  0
  -20.9984  -28.3277   24.1419 H   0  0  0  0  0  0
  -20.5697  -26.2306   23.3621 H   0  0  0  0  0  0
  -21.6616  -26.7467   22.1193 H   0  0  0  0  0  0
  -19.6866  -25.6307   21.1245 H   0  0  0  0  0  0
  -19.6632  -27.3198   20.6759 H   0  0  0  0  0  0
  -17.4189  -26.6748   21.4037 H   0  0  0  0  0  0
  -18.0254  -26.0074   22.9031 H   0  0  0  0  0  0
  -19.7940  -30.7285   24.2246 H   0  0  0  0  0  0
  -17.5025  -31.6275   24.5187 H   0  0  0  0  0  0
  -15.5340  -30.2982   23.7686 H   0  0  0  0  0  0
  -15.8688  -28.0817   22.7078 H   0  0  0  0  0  0
  -24.5930  -30.7035   25.7824 H   0  0  0  0  0  0
  -24.8907  -32.2836   26.4952 H   0  0  0  0  0  0
  -25.8091  -30.8871   27.0271 H   0  0  0  0  0  0
  -26.3007  -29.6756   24.1288 H   0  0  0  0  0  0
  -27.4136  -29.7340   25.4763 H   0  0  0  0  0  0
  -27.8841  -30.4360   23.9476 H   0  0  0  0  0  0
  -27.2601  -33.3649   26.2151 H   0  0  0  0  0  0
  -28.3827  -32.7001   25.0393 H   0  0  0  0  0  0
  -28.0733  -31.8525   26.5482 H   0  0  0  0  0  0
  -28.2602  -38.0090   24.7550 H   0  0  0  0  0  0
  -28.1067  -36.2623   24.6310 H   0  0  0  0  0  0
  -27.2286  -37.1456   25.8891 H   0  0  0  0  0  0
  -20.9345  -29.8793   21.6935 H   0  0  0  0  0  0
  -26.0175  -38.2864   24.1438 H   0  0  0  0  0  0
  -25.6238  -21.1791   22.0879 H   0  0  0  0  0  0
  -25.9751  -21.2726   20.3806 H   0  0  0  0  0  0
  -26.6472  -19.0670   21.2593 H   0  0  0  0  0  0
  -27.6028  -19.8267   22.5165 H   0  0  0  0  0  0
  -27.7486  -22.4094   22.6166 H   0  0  0  0  0  0
  -26.6440  -23.3084   21.6240 H   0  0  0  0  0  0
  -30.6481  -16.7494   18.9337 H   0  0  0  0  0  0
  -29.2294  -15.7812   18.6569 H   0  0  0  0  0  0
  -30.3923  -16.1996   22.6448 H   0  0  0  0  0  0
  -31.4105  -17.0022   21.4840 H   0  0  0  0  0  0
  -27.7832  -17.4272   19.7622 H   0  0  0  0  0  0
  -28.7304  -18.2026   18.5219 H   0  0  0  0  0  0
  -29.9331  -18.6750   22.5308 H   0  0  0  0  0  0
  -28.5282  -17.6886   22.2039 H   0  0  0  0  0  0
  -28.0644  -20.0990   19.5216 H   0  0  0  0  0  0
  -29.6878  -21.3694   21.7575 H   0  0  0  0  0  0
  -30.1140  -21.6683   18.7396 H   0  0  0  0  0  0
  -31.0597  -20.5762   19.7412 H   0  0  0  0  0  0
  -31.1413  -22.2795   20.0398 H   0  0  0  0  0  0
  -29.1496  -24.2067   21.7059 H   0  0  0  0  0  0
  -29.9003  -23.9999   20.1488 H   0  0  0  0  0  0
  -27.0207  -24.8692   20.3905 H   0  0  0  0  0  0
  -27.9705  -24.8542   18.9363 H   0  0  0  0  0  0
  -30.2092  -18.9909   20.1820 H   0  0  0  0  0  0
  1 25  1  0  0  0
  1 30  2  0  0  0
  1 83  1  0  0  0
  2  3  1  0  0  0
  2 25  1  0  0  0
  2 86  1  0  0  0
  2 87  1  0  0  0
  3  4  1  0  0  0
  3 88  1  0  0  0
  3 89  1  0  0  0
  4  5  1  0  0  0
  4 90  1  0  0  0
  4 91  1  0  0  0
  5  6  1  0  0  0
  5 26  1  0  0  0
  5 92  1  0  0  0
  6 25  1  0  0  0
  6 93  1  0  0  0
  6 94  1  0  0  0
  7  8  2  0  0  0
  7 26  1  0  0  0
  7 29  1  0  0  0
  8  9  1  0  0  0
  8 22  1  0  0  0
  9 10  1  0  0  0
  9 27  2  0  0  0
 10 11  2  0  0  0
 10 15  1  0  0  0
 11 12  1  0  0  0
 11 95  1  0  0  0
 12 13  2  0  0  0
 12 96  1  0  0  0
 13 14  1  0  0  0
 13 31  1  0  0  0
 14 15  2  0  0  0
 14 97  1  0  0  0
 15 98  1  0  0  0
 16 17  2  0  0  0
 16 21  1  0  0  0
 16 31  1  0  0  0
 17 18  1  0  0  0
 17 99  1  0  0  0
 18 19  2  0  0  0
 18100  1  0  0  0
 19 20  1  0  0  0
 19 24  1  0  0  0
 20 21  2  0  0  0
 20101  1  0  0  0
 21 23  1  0  0  0
 22 28  1  0  0  0
 22 32  2  0  0  0
 26 27  1  0  0  0
 28102  1  0  0  0
 28103  1  0  0  0
 29104  1  0  0  0
 29105  1  0  0  0
 33 34  1  0  0  0
 33 66  1  0  0  0
 33 70  2  0  0  0
 34 36  1  0  0  0
 34 59  1  0  0  0
 34106  1  0  0  0
 35 44  2  0  0  0
 35 45  1  0  0  0
 35 68  1  0  0  0
 36 56  1  0  0  0
 36107  1  0  0  0
 37 39  1  0  0  0
 37 47  1  0  0  0
 37 66  1  0  0  0
 37108  1  0  0  0
 38 43  2  0  0  0
 38 46  1  0  0  0
 38 47  1  0  0  0
 39 64  1  0  0  0
 39 67  2  0  0  0
 40 52  1  0  0  0
 40 53  2  0  0  0
 40 58  1  0  0  0
 41109  1  0  0  0
 41110  1  0  0  0
 41111  1  0  0  0
 41 48  1  0  0  0
 42 43  1  0  0  0
 42 66  1  0  0  0
 42112  1  0  0  0
 42113  1  0  0  0
 43 44  1  0  0  0
 44114  1  0  0  0
 45 46  2  0  0  0
 45115  1  0  0  0
 46116  1  0  0  0
 47117  1  0  0  0
 47118  1  0  0  0
 48 56  1  0  0  0
 48 65  1  0  0  0
 48119  1  0  0  0
 49 50  1  0  0  0
 49 53  1  0  0  0
 49 64  1  0  0  0
 49120  1  0  0  0
 50 51  1  0  0  0
 50121  1  0  0  0
 50122  1  0  0  0
 51 52  1  0  0  0
 51123  1  0  0  0
 51124  1  0  0  0
 52125  1  0  0  0
 52126  1  0  0  0
 53 54  1  0  0  0
 54 55  2  0  0  0
 54127  1  0  0  0
 55 57  1  0  0  0
 55128  1  0  0  0
 56 69  2  0  0  0
 57 58  2  0  0  0
 57129  1  0  0  0
 58130  1  0  0  0
 59 60  1  0  0  0
 59 61  1  0  0  0
 59 62  1  0  0  0
 60131  1  0  0  0
 60132  1  0  0  0
 60133  1  0  0  0
 61134  1  0  0  0
 61135  1  0  0  0
 61136  1  0  0  0
 62137  1  0  0  0
 62138  1  0  0  0
 62139  1  0  0  0
 63 65  1  0  0  0
 63140  1  0  0  0
 63141  1  0  0  0
 63142  1  0  0  0
 64143  1  0  0  0
 65144  1  0  0  0
 68 82  1  0  0  0
 71 72  1  0  0  0
 71 73  1  0  0  0
 71145  1  0  0  0
 71146  1  0  0  0
 72147  1  0  0  0
 72148  1  0  0  0
 72 78  1  0  0  0
 73 84  1  0  0  0
 73149  1  0  0  0
 73150  1  0  0  0
 74 76  1  0  0  0
 74 83  1  0  0  0
 74151  1  0  0  0
 74152  1  0  0  0
 75 77  1  0  0  0
 75 83  1  0  0  0
 75153  1  0  0  0
 75154  1  0  0  0
 76155  1  0  0  0
 76156  1  0  0  0
 76 85  1  0  0  0
 77 85  1  0  0  0
 77157  1  0  0  0
 77158  1  0  0  0
 78 79  1  0  0  0
 78 85  1  0  0  0
 78159  1  0  0  0
 79 80  1  0  0  0
 79 84  1  0  0  0
 79160  1  0  0  0
 80161  1  0  0  0
 80162  1  0  0  0
 80163  1  0  0  0
 81 82  1  0  0  0
 81 84  1  0  0  0
 81164  1  0  0  0
 81165  1  0  0  0
 82166  1  0  0  0
 82167  1  0  0  0
 85168  1  0  0  0
M  CHG  1  85   1
M  ISO  4   1 100  68 101  82 101  83 100
M  END
> <chiral flag>
0

> <version>
0

> <s_m_source_file>
/data/baiqing/PycharmProjects/Reinvent-master-3.2/result/LINK_invent/BTK/process_docking_weight1_custom_sum_contain_oxygen_bond_distance_aromatic_linkinvent_7_9_3/rearranged_h_0177.sdf

> <i_m_source_file_index>
91

> <r_mmod_Potential_Energy-OPLS-2005>
249.587951660156

> <r_mmod_Stretch_Energy-OPLS-2005>
74.496223449707

> <r_mmod_Bend_Energy-OPLS-2005>
145.584609985352

> <r_mmod_Torsional_Energy-OPLS-2005>
433.445129394531

> <r_mmod_Improper_Torsional_Energy-OPLS-2005>
12.1962738037109

> <r_mmod_Van_der_Waal_Energy-OPLS-2005>
154.27018737793

> <r_mmod_Electrostatic_Energy-OPLS-2005>
-183.286499023438

> <r_mmod_Solvation_Energy-OPLS-2005>
-429.967071533203

> <b_mmod_Minimization_Converged-OPLS-2005>
0

> <r_mmod_RMS_Derivative-OPLS-2005>
1.9853310585022

$$$$
91
                    3D
 Structure written by MMmdl.
163173  0  0  1  0            999 V2000
  -30.6396  -14.9022   20.3959 C   0  0  0  0  0  0
  -30.4051  -12.5671   19.4795 C   0  0  0  0  0  0
  -29.4867  -12.4795   18.2449 C   0  0  0  0  0  0
  -28.0356  -12.2574   18.6923 C   0  0  0  0  0  0
  -27.6102  -13.2284   19.8200 C   0  0  2  0  0  0
  -28.6591  -13.3350   20.9486 C   0  0  0  0  0  0
  -25.2407  -13.8181   20.5754 C   0  0  0  0  0  0
  -24.1703  -13.0424   20.9257 C   0  0  0  0  0  0
  -24.6303  -11.6907   20.8797 C   0  0  0  0  0  0
  -23.9008  -10.4275   21.0434 C   0  0  0  0  0  0
  -24.3581   -9.4186   21.9203 C   0  0  0  0  0  0
  -23.6267   -8.2209   22.0752 C   0  0  0  0  0  0
  -22.4253   -8.0250   21.3535 C   0  0  0  0  0  0
  -21.9879   -9.0225   20.4643 C   0  0  0  0  0  0
  -22.7187  -10.2120   20.3073 C   0  0  0  0  0  0
  -21.6837   -6.0705   22.5279 C   0  0  0  0  0  0
  -21.3995   -6.5618   23.8206 C   0  0  0  0  0  0
  -21.3670   -5.6785   24.9180 C   0  0  0  0  0  0
  -21.6053   -4.3046   24.7246 C   0  0  0  0  0  0
  -21.8817   -3.8126   23.4370 C   0  0  0  0  0  0
  -21.9187   -4.6933   22.3416 C   0  0  0  0  0  0
  -22.7737  -13.5217   21.1959 C   0  0  0  0  0  0
  -22.1660   -4.2107   21.0995 F   0  0  0  0  0  0
  -21.5646   -3.4543   25.7768 F   0  0  0  0  0  0
  -29.9294  -13.7075   20.3169 N   0  0  0  0  0  0
  -26.2771  -12.9368   20.3234 N   0  0  0  0  0  0
  -25.9219  -11.6525   20.5785 N   0  0  0  0  0  0
  -22.0384  -12.8173   22.0502 N   0  0  0  0  0  0
  -25.4107  -15.1900   20.4183 N   0  0  0  0  0  0
  -31.8570  -14.8068   20.2064 O   0  0  0  0  0  0
  -21.6622   -6.8846   21.4237 O   0  0  0  0  0  0
  -22.3414  -14.5534   20.6827 O   0  0  0  0  0  0
  -24.6395  -31.8467   23.1937 C   0  0  0  0  0  0
  -25.9179  -32.4714   23.8320 C   0  0  1  0  0  0
  -27.2081  -27.1829   20.1490 C   0  0  0  0  0  0
  -25.5943  -33.8524   24.2234 N   0  0  0  0  0  0
  -23.4413  -30.4660   21.5392 C   0  0  2  0  0  0
  -24.8866  -28.9027   20.1121 C   0  0  0  0  0  0
  -22.7544  -29.4539   22.4911 C   0  0  0  0  0  0
  -18.0292  -28.1347   22.8475 C   0  0  0  0  0  0
  -24.1498  -36.7261   23.2641 C   0  0  0  0  0  0
  -25.9948  -30.7364   21.3854 C   0  0  0  0  0  0
  -26.0642  -29.3531   20.7228 C   0  0  0  0  0  0
  -27.2315  -28.5105   20.7210 C   0  0  0  0  0  0
  -26.0101  -26.8218   19.4997 C   0  0  0  0  0  0
  -24.8694  -27.6475   19.4869 C   0  0  0  0  0  0
  -23.6611  -29.7968   20.1571 C   0  0  0  0  0  0
  -25.4122  -36.3046   24.0329 C   0  0  1  0  0  0
  -20.5907  -28.3668   23.1242 C   0  0  2  0  0  0
  -20.6777  -26.9378   22.5404 C   0  0  0  0  0  0
  -19.5754  -26.6357   21.5200 C   0  0  0  0  0  0
  -18.1933  -26.7892   22.1614 C   0  0  0  0  0  0
  -19.1554  -28.8830   23.2847 C   0  0  0  0  0  0
  -18.9464  -30.1433   23.8864 C   0  0  0  0  0  0
  -17.6461  -30.6559   24.0536 C   0  0  0  0  0  0
  -25.9065  -34.9413   23.5086 C   0  0  0  0  0  0
  -16.5348  -29.9040   23.6332 C   0  0  0  0  0  0
  -16.7279  -28.6451   23.0369 C   0  0  0  0  0  0
  -26.4522  -31.6572   25.0750 C   0  0  0  0  0  0
  -25.3715  -31.3733   26.1445 C   0  0  0  0  0  0
  -27.0371  -30.2957   24.6317 C   0  0  0  0  0  0
  -27.6057  -32.4331   25.7513 C   0  0  0  0  0  0
  -27.5582  -37.1783   24.8471 C   0  0  0  0  0  0
  -21.4247  -29.3000   22.3633 N   0  0  0  0  0  0
  -26.4303  -37.3738   23.9399 N   0  0  0  0  0  0
  -24.7112  -31.0370   22.0934 N   0  0  0  0  0  0
  -23.4209  -28.8099   23.3062 O   0  0  0  0  0  0
  -28.2656  -26.2248   20.1677 O   0  0  0  0  0  0
  -26.5651  -34.8888   22.4673 O   0  0  0  0  0  0
  -23.5526  -32.1327   23.7168 O   0  0  0  0  0  0
  -29.4206  -23.6455   18.7627 C   0  0  0  0  0  0
  -29.9724  -22.5202   18.1344 C   0  0  0  0  0  0
  -29.8593  -21.2406   18.6771 C   0  0  0  0  0  0
  -29.2017  -21.0085   19.9052 C   0  0  0  0  0  0
  -28.7155  -23.4685   19.9650 C   0  0  0  0  0  0
  -30.7401  -22.5157   16.8404 C   0  0  0  0  0  0
  -30.5356  -20.2327   17.7767 C   0  0  0  0  0  0
  -31.3417  -21.0963   16.7846 C   0  0  0  0  0  0
  -28.4898  -18.2892   19.7756 C   0  0  0  0  0  0
  -30.5520  -18.8541   20.9843 C   0  0  0  0  0  0
  -28.6902  -16.7728   20.3173 C   0  0  0  0  0  0
  -31.0077  -17.4191   20.4197 C   0  0  0  0  0  0
  -29.1835  -19.4916   20.5378 C   0  0  0  0  0  0
  -27.9732  -24.7736   20.5903 C   0  0  0  0  0  0
  -28.6310  -22.1552   20.5132 N   0  0  0  0  0  0
  -30.0848  -16.2259   20.4723 N   0  0  0  0  0  0
  -31.4390  -12.6831   19.1490 H   0  0  0  0  0  0
  -30.3806  -11.6375   20.0494 H   0  0  0  0  0  0
  -29.8022  -11.6625   17.5954 H   0  0  0  0  0  0
  -29.5576  -13.3946   17.6537 H   0  0  0  0  0  0
  -27.9590  -11.2308   19.0531 H   0  0  0  0  0  0
  -27.3552  -12.3291   17.8434 H   0  0  0  0  0  0
  -27.5414  -14.1886   19.3204 H   0  0  0  0  0  0
  -28.7482  -12.3991   21.4999 H   0  0  0  0  0  0
  -28.3578  -14.0958   21.6680 H   0  0  0  0  0  0
  -25.2716   -9.5671   22.4798 H   0  0  0  0  0  0
  -23.9971   -7.4596   22.7474 H   0  0  0  0  0  0
  -21.0805   -8.8741   19.8943 H   0  0  0  0  0  0
  -22.3625  -10.9674   19.6202 H   0  0  0  0  0  0
  -21.1948   -7.6120   23.9696 H   0  0  0  0  0  0
  -21.1513   -6.0520   25.9084 H   0  0  0  0  0  0
  -22.0582   -2.7582   23.2893 H   0  0  0  0  0  0
  -22.3993  -11.9799   22.4842 H   0  0  0  0  0  0
  -21.1010  -13.1189   22.2785 H   0  0  0  0  0  0
  -24.6485  -15.8480   20.5398 H   0  0  0  0  0  0
  -26.2667  -15.6279   20.1091 H   0  0  0  0  0  0
  -26.7259  -32.5303   23.1069 H   0  0  0  0  0  0
  -25.0070  -33.9664   25.0366 H   0  0  0  0  0  0
  -22.7411  -31.2898   21.3915 H   0  0  0  0  0  0
  -23.3767  -35.9591   23.3305 H   0  0  0  0  0  0
  -24.3590  -36.8880   22.2059 H   0  0  0  0  0  0
  -23.7251  -37.6458   23.6663 H   0  0  0  0  0  0
  -26.1524  -31.4969   20.6179 H   0  0  0  0  0  0
  -26.8643  -30.7760   22.0304 H   0  0  0  0  0  0
  -28.1349  -28.8517   21.2049 H   0  0  0  0  0  0
  -25.9356  -25.8652   19.0019 H   0  0  0  0  0  0
  -23.9665  -27.2977   19.0060 H   0  0  0  0  0  0
  -23.7843  -30.5706   19.3980 H   0  0  0  0  0  0
  -22.7794  -29.2280   19.8571 H   0  0  0  0  0  0
  -25.1310  -36.1897   25.0825 H   0  0  0  0  0  0
  -20.9992  -28.3232   24.1361 H   0  0  0  0  0  0
  -20.5641  -26.2265   23.3603 H   0  0  0  0  0  0
  -21.6641  -26.7361   22.1205 H   0  0  0  0  0  0
  -19.6904  -25.6267   21.1210 H   0  0  0  0  0  0
  -19.6687  -27.3183   20.6740 H   0  0  0  0  0  0
  -17.4201  -26.6634   21.4019 H   0  0  0  0  0  0
  -18.0329  -26.0029   22.9006 H   0  0  0  0  0  0
  -19.7938  -30.7259   24.2215 H   0  0  0  0  0  0
  -17.4999  -31.6236   24.5133 H   0  0  0  0  0  0
  -15.5337  -30.2919   23.7661 H   0  0  0  0  0  0
  -15.8681  -28.0738   22.7121 H   0  0  0  0  0  0
  -24.5923  -30.7056   25.7761 H   0  0  0  0  0  0
  -24.8888  -32.2906   26.4815 H   0  0  0  0  0  0
  -25.8019  -30.8945   27.0252 H   0  0  0  0  0  0
  -26.2980  -29.6686   24.1312 H   0  0  0  0  0  0
  -27.3965  -29.7241   25.4890 H   0  0  0  0  0  0
  -27.8908  -30.4189   23.9644 H   0  0  0  0  0  0
  -27.2662  -33.3646   26.2043 H   0  0  0  0  0  0
  -28.3874  -32.6856   25.0345 H   0  0  0  0  0  0
  -28.0717  -31.8491   26.5456 H   0  0  0  0  0  0
  -28.2601  -38.0073   24.7498 H   0  0  0  0  0  0
  -28.1073  -36.2601   24.6332 H   0  0  0  0  0  0
  -27.2290  -37.1475   25.8870 H   0  0  0  0  0  0
  -20.9445  -29.8708   21.6814 H   0  0  0  0  0  0
  -26.0180  -38.2814   24.1375 H   0  0  0  0  0  0
  -29.5122  -24.6308   18.3244 H   0  0  0  0  0  0
  -31.5084  -23.2883   16.8191 H   0  0  0  0  0  0
  -30.0510  -22.6811   16.0111 H   0  0  0  0  0  0
  -29.7724  -19.6647   17.2428 H   0  0  0  0  0  0
  -31.1730  -19.5391   18.3223 H   0  0  0  0  0  0
  -32.3672  -21.1567   17.1508 H   0  0  0  0  0  0
  -31.3902  -20.6813   15.7777 H   0  0  0  0  0  0
  -27.4231  -18.5075   19.7146 H   0  0  0  0  0  0
  -28.8343  -18.2964   18.7443 H   0  0  0  0  0  0
  -31.3453  -19.5706   20.7660 H   0  0  0  0  0  0
  -30.5425  -18.7981   22.0734 H   0  0  0  0  0  0
  -28.1740  -16.6564   21.2718 H   0  0  0  0  0  0
  -28.1723  -16.1423   19.6047 H   0  0  0  0  0  0
  -31.9358  -17.1715   20.9356 H   0  0  0  0  0  0
  -31.2855  -17.5290   19.3707 H   0  0  0  0  0  0
  -28.6015  -19.6103   21.4532 H   0  0  0  0  0  0
  -28.1631  -24.7435   21.6637 H   0  0  0  0  0  0
  -26.9059  -24.5736   20.5066 H   0  0  0  0  0  0
  1 25  1  0  0  0
  1 30  2  0  0  0
  1 86  1  0  0  0
  2  3  1  0  0  0
  2 25  1  0  0  0
  2 87  1  0  0  0
  2 88  1  0  0  0
  3  4  1  0  0  0
  3 89  1  0  0  0
  3 90  1  0  0  0
  4  5  1  0  0  0
  4 91  1  0  0  0
  4 92  1  0  0  0
  5  6  1  0  0  0
  5 26  1  0  0  0
  5 93  1  0  0  0
  6 25  1  0  0  0
  6 94  1  0  0  0
  6 95  1  0  0  0
  7  8  2  0  0  0
  7 26  1  0  0  0
  7 29  1  0  0  0
  8  9  1  0  0  0
  8 22  1  0  0  0
  9 10  1  0  0  0
  9 27  2  0  0  0
 10 11  2  0  0  0
 10 15  1  0  0  0
 11 12  1  0  0  0
 11 96  1  0  0  0
 12 13  2  0  0  0
 12 97  1  0  0  0
 13 14  1  0  0  0
 13 31  1  0  0  0
 14 15  2  0  0  0
 14 98  1  0  0  0
 15 99  1  0  0  0
 16 17  2  0  0  0
 16 21  1  0  0  0
 16 31  1  0  0  0
 17 18  1  0  0  0
 17100  1  0  0  0
 18 19  2  0  0  0
 18101  1  0  0  0
 19 20  1  0  0  0
 19 24  1  0  0  0
 20 21  2  0  0  0
 20102  1  0  0  0
 21 23  1  0  0  0
 22 28  1  0  0  0
 22 32  2  0  0  0
 26 27  1  0  0  0
 28103  1  0  0  0
 28104  1  0  0  0
 29105  1  0  0  0
 29106  1  0  0  0
 33 34  1  0  0  0
 33 66  1  0  0  0
 33 70  2  0  0  0
 34 36  1  0  0  0
 34 59  1  0  0  0
 34107  1  0  0  0
 35 44  2  0  0  0
 35 45  1  0  0  0
 35 68  1  0  0  0
 36 56  1  0  0  0
 36108  1  0  0  0
 37 39  1  0  0  0
 37 47  1  0  0  0
 37 66  1  0  0  0
 37109  1  0  0  0
 38 43  2  0  0  0
 38 46  1  0  0  0
 38 47  1  0  0  0
 39 64  1  0  0  0
 39 67  2  0  0  0
 40 52  1  0  0  0
 40 53  2  0  0  0
 40 58  1  0  0  0
 41110  1  0  0  0
 41111  1  0  0  0
 41112  1  0  0  0
 41 48  1  0  0  0
 42 43  1  0  0  0
 42 66  1  0  0  0
 42113  1  0  0  0
 42114  1  0  0  0
 43 44  1  0  0  0
 44115  1  0  0  0
 45 46  2  0  0  0
 45116  1  0  0  0
 46117  1  0  0  0
 47118  1  0  0  0
 47119  1  0  0  0
 48 56  1  0  0  0
 48 65  1  0  0  0
 48120  1  0  0  0
 49 50  1  0  0  0
 49 53  1  0  0  0
 49 64  1  0  0  0
 49121  1  0  0  0
 50 51  1  0  0  0
 50122  1  0  0  0
 50123  1  0  0  0
 51 52  1  0  0  0
 51124  1  0  0  0
 51125  1  0  0  0
 52126  1  0  0  0
 52127  1  0  0  0
 53 54  1  0  0  0
 54 55  2  0  0  0
 54128  1  0  0  0
 55 57  1  0  0  0
 55129  1  0  0  0
 56 69  2  0  0  0
 57 58  2  0  0  0
 57130  1  0  0  0
 58131  1  0  0  0
 59 60  1  0  0  0
 59 61  1  0  0  0
 59 62  1  0  0  0
 60132  1  0  0  0
 60133  1  0  0  0
 60134  1  0  0  0
 61135  1  0  0  0
 61136  1  0  0  0
 61137  1  0  0  0
 62138  1  0  0  0
 62139  1  0  0  0
 62140  1  0  0  0
 63 65  1  0  0  0
 63141  1  0  0  0
 63142  1  0  0  0
 63143  1  0  0  0
 64144  1  0  0  0
 65145  1  0  0  0
 68 84  1  0  0  0
 71 72  2  0  0  0
 71 75  1  0  0  0
 71146  1  0  0  0
 72 73  1  0  0  0
 72 76  1  0  0  0
 73 74  2  0  0  0
 73 77  1  0  0  0
 74 85  1  0  0  0
 74 83  1  0  0  0
 75 84  1  0  0  0
 75 85  2  0  0  0
 76 78  1  0  0  0
 76147  1  0  0  0
 76148  1  0  0  0
 77 78  1  0  0  0
 77149  1  0  0  0
 77150  1  0  0  0
 78151  1  0  0  0
 78152  1  0  0  0
 79 81  1  0  0  0
 79 83  1  0  0  0
 79153  1  0  0  0
 79154  1  0  0  0
 80 82  1  0  0  0
 80 83  1  0  0  0
 80155  1  0  0  0
 80156  1  0  0  0
 81 86  1  0  0  0
 81157  1  0  0  0
 81158  1  0  0  0
 82 86  1  0  0  0
 82159  1  0  0  0
 82160  1  0  0  0
 83161  1  0  0  0
 84162  1  0  0  0
 84163  1  0  0  0
M  ISO  4   1 100  68 101  84 101  86 100
M  END
> <chiral flag>
0

> <version>
0

> <s_m_source_file>
/data/baiqing/PycharmProjects/Reinvent-master-3.2/result/LINK_invent/BTK/process_docking_weight1_custom_sum_contain_oxygen_bond_distance_aromatic_linkinvent_7_9_3/rearranged_h_0177.sdf

> <i_m_source_file_index>
92

> <r_mmod_Potential_Energy-OPLS-2005>
526.270812988281

> <r_mmod_Stretch_Energy-OPLS-2005>
199.334732055664

> <r_mmod_Bend_Energy-OPLS-2005>
298.289825439453

> <r_mmod_Torsional_Energy-OPLS-2005>
344.842956542969

> <r_mmod_Improper_Torsional_Energy-OPLS-2005>
4.65324306488037

> <r_mmod_Van_der_Waal_Energy-OPLS-2005>
140.593276977539

> <r_mmod_Electrostatic_Energy-OPLS-2005>
-406.709838867188

> <r_mmod_Solvation_Energy-OPLS-2005>
-221.374862670898

> <b_mmod_Minimization_Converged-OPLS-2005>
0

> <r_mmod_RMS_Derivative-OPLS-2005>
3.46988463401794

$$$$
92
                    3D
 Structure written by MMmdl.
153162  0  0  1  0            999 V2000
  -30.6886  -14.6311   20.5531 C   0  0  0  0  0  0
  -30.4243  -12.4059   19.4569 C   0  0  0  0  0  0
  -29.5020  -12.5156   18.2247 C   0  0  0  0  0  0
  -28.0270  -12.3509   18.6367 C   0  0  0  0  0  0
  -27.6499  -13.2266   19.8612 C   0  0  2  0  0  0
  -28.6926  -13.1000   20.9918 C   0  0  0  0  0  0
  -25.2544  -13.8198   20.5704 C   0  0  0  0  0  0
  -24.1815  -13.0446   20.9181 C   0  0  0  0  0  0
  -24.6397  -11.6921   20.8729 C   0  0  0  0  0  0
  -23.9071  -10.4298   21.0397 C   0  0  0  0  0  0
  -24.3621   -9.4214   21.9178 C   0  0  0  0  0  0
  -23.6295   -8.2249   22.0752 C   0  0  0  0  0  0
  -22.4276   -8.0285   21.3543 C   0  0  0  0  0  0
  -21.9912   -9.0258   20.4645 C   0  0  0  0  0  0
  -22.7241  -10.2137   20.3051 C   0  0  0  0  0  0
  -21.6855   -6.0737   22.5278 C   0  0  0  0  0  0
  -21.4016   -6.5640   23.8212 C   0  0  0  0  0  0
  -21.3660   -5.6792   24.9174 C   0  0  0  0  0  0
  -21.6044   -4.3055   24.7224 C   0  0  0  0  0  0
  -21.8819   -3.8147   23.4346 C   0  0  0  0  0  0
  -21.9194   -4.6964   22.3402 C   0  0  0  0  0  0
  -22.7837  -13.5230   21.1850 C   0  0  0  0  0  0
  -22.1662   -4.2149   21.0979 F   0  0  0  0  0  0
  -21.5629   -3.4539   25.7737 F   0  0  0  0  0  0
  -30.0066  -13.4432   20.4269 N   0  0  0  0  0  0
  -26.2978  -12.9398   20.3326 N   0  0  0  0  0  0
  -25.9330  -11.6539   20.5752 N   0  0  0  0  0  0
  -22.0489  -12.8218   22.0411 N   0  0  0  0  0  0
  -25.4267  -15.1923   20.4168 N   0  0  0  0  0  0
  -31.8230  -14.7466   20.0810 O   0  0  0  0  0  0
  -21.6642   -6.8880   21.4241 O   0  0  0  0  0  0
  -22.3515  -14.5536   20.6705 O   0  0  0  0  0  0
  -24.6289  -31.8610   23.2067 C   0  0  0  0  0  0
  -25.9135  -32.4785   23.8385 C   0  0  1  0  0  0
  -27.2066  -27.2959   20.1060 C   0  0  0  0  0  0
  -25.5948  -33.8587   24.2301 N   0  0  0  0  0  0
  -23.4224  -30.4907   21.5503 C   0  0  2  0  0  0
  -24.8663  -28.9592   20.1058 C   0  0  0  0  0  0
  -22.7491  -29.4636   22.4927 C   0  0  0  0  0  0
  -18.0291  -28.1387   22.8486 C   0  0  0  0  0  0
  -24.1490  -36.7294   23.2636 C   0  0  0  0  0  0
  -25.9700  -30.7812   21.3883 C   0  0  0  0  0  0
  -26.0394  -29.4111   20.7239 C   0  0  0  0  0  0
  -27.2108  -28.5887   20.7249 C   0  0  0  0  0  0
  -26.0150  -26.9378   19.4229 C   0  0  0  0  0  0
  -24.8579  -27.7275   19.4467 C   0  0  0  0  0  0
  -23.6373  -29.8405   20.1614 C   0  0  0  0  0  0
  -25.4115  -36.3087   24.0329 C   0  0  1  0  0  0
  -20.5895  -28.3698   23.1271 C   0  0  2  0  0  0
  -20.6781  -26.9418   22.5404 C   0  0  0  0  0  0
  -19.5753  -26.6386   21.5211 C   0  0  0  0  0  0
  -18.1934  -26.7931   22.1625 C   0  0  0  0  0  0
  -19.1544  -28.8859   23.2875 C   0  0  0  0  0  0
  -18.9465  -30.1459   23.8893 C   0  0  0  0  0  0
  -17.6464  -30.6588   24.0564 C   0  0  0  0  0  0
  -25.9055  -34.9455   23.5110 C   0  0  0  0  0  0
  -16.5355  -29.9086   23.6332 C   0  0  0  0  0  0
  -16.7278  -28.6504   23.0353 C   0  0  0  0  0  0
  -26.4507  -31.6592   25.0757 C   0  0  0  0  0  0
  -25.3732  -31.3737   26.1478 C   0  0  0  0  0  0
  -27.0350  -30.3007   24.6237 C   0  0  0  0  0  0
  -27.6066  -32.4328   25.7523 C   0  0  0  0  0  0
  -27.5581  -37.1803   24.8464 C   0  0  0  0  0  0
  -21.4202  -29.3053   22.3666 N   0  0  0  0  0  0
  -26.4293  -37.3781   23.9409 N   0  0  0  0  0  0
  -24.6927  -31.0605   22.1041 N   0  0  0  0  0  0
  -23.4210  -28.8153   23.2993 O   0  0  0  0  0  0
  -28.2748  -26.3705   20.1972 O   0  0  0  0  0  0
  -26.5614  -34.8916   22.4671 O   0  0  0  0  0  0
  -23.5446  -32.1424   23.7376 O   0  0  0  0  0  0
  -29.9910  -23.2834   19.7919 C   0  0  0  0  0  0
  -28.4436  -21.4108   20.9743 C   0  0  0  0  0  0
  -28.7085  -23.6593   20.2718 C   0  0  0  0  0  0
  -29.7169  -21.0196   20.4696 C   0  0  0  0  0  0
  -29.6412  -18.4311   20.7026 C   0  0  0  0  0  0
  -30.7973  -17.0108   22.4921 C   0  0  0  0  0  0
  -29.7602  -15.8913   22.4649 C   0  0  0  0  0  0
  -30.5685  -17.1758   20.9910 C   0  0  1  0  0  0
  -27.9339  -24.9628   19.8339 C   0  0  0  0  0  0
  -27.9575  -22.6901   20.8825 N   0  0  0  0  0  0
  -30.4844  -22.0051   19.9075 N   0  0  0  0  0  0
  -30.0304  -15.7484   21.0256 N   0  0  0  0  0  0
  -30.2398  -19.6615   20.6054 N   0  0  0  0  0  0
  -28.4261  -18.2711   20.5670 O   0  0  0  0  0  0
  -31.4674  -12.5084   19.1534 H   0  0  0  0  0  0
  -30.3468  -11.4153   19.9077 H   0  0  0  0  0  0
  -29.7696  -11.7616   17.4831 H   0  0  0  0  0  0
  -29.6441  -13.4842   17.7426 H   0  0  0  0  0  0
  -27.8669  -11.2980   18.8722 H   0  0  0  0  0  0
  -27.3713  -12.5762   17.7948 H   0  0  0  0  0  0
  -27.6656  -14.2617   19.5183 H   0  0  0  0  0  0
  -28.7076  -12.0848   21.3909 H   0  0  0  0  0  0
  -28.4184  -13.7419   21.8269 H   0  0  0  0  0  0
  -25.2766   -9.5691   22.4752 H   0  0  0  0  0  0
  -24.0004   -7.4642   22.7473 H   0  0  0  0  0  0
  -21.0843   -8.8776   19.8953 H   0  0  0  0  0  0
  -22.3696  -10.9674   19.6159 H   0  0  0  0  0  0
  -21.2008   -7.6148   23.9715 H   0  0  0  0  0  0
  -21.1483   -6.0523   25.9077 H   0  0  0  0  0  0
  -22.0598   -2.7609   23.2845 H   0  0  0  0  0  0
  -22.4109  -11.9876   22.4791 H   0  0  0  0  0  0
  -21.1108  -13.1240   22.2625 H   0  0  0  0  0  0
  -24.6688  -15.8536   20.5456 H   0  0  0  0  0  0
  -26.2985  -15.6365   20.1537 H   0  0  0  0  0  0
  -26.7200  -32.5443   23.1127 H   0  0  0  0  0  0
  -25.0103  -33.9737   25.0450 H   0  0  0  0  0  0
  -22.7170  -31.3131   21.4139 H   0  0  0  0  0  0
  -23.3754  -35.9625   23.3299 H   0  0  0  0  0  0
  -24.3582  -36.8913   22.2050 H   0  0  0  0  0  0
  -23.7241  -37.6495   23.6656 H   0  0  0  0  0  0
  -26.1118  -31.5467   20.6241 H   0  0  0  0  0  0
  -26.8472  -30.8222   22.0222 H   0  0  0  0  0  0
  -28.1002  -28.9221   21.2411 H   0  0  0  0  0  0
  -25.9171  -26.0204   18.8635 H   0  0  0  0  0  0
  -23.9661  -27.3840   18.9402 H   0  0  0  0  0  0
  -23.7596  -30.6245   19.4132 H   0  0  0  0  0  0
  -22.7556  -29.2758   19.8530 H   0  0  0  0  0  0
  -25.1293  -36.1941   25.0822 H   0  0  0  0  0  0
  -20.9989  -28.3274   24.1391 H   0  0  0  0  0  0
  -20.5686  -26.2308   23.3608 H   0  0  0  0  0  0
  -21.6648  -26.7449   22.1195 H   0  0  0  0  0  0
  -19.6915  -25.6296   21.1242 H   0  0  0  0  0  0
  -19.6687  -27.3195   20.6740 H   0  0  0  0  0  0
  -17.4204  -26.6679   21.4028 H   0  0  0  0  0  0
  -18.0334  -26.0073   22.9022 H   0  0  0  0  0  0
  -19.7941  -30.7278   24.2260 H   0  0  0  0  0  0
  -17.5019  -31.6267   24.5168 H   0  0  0  0  0  0
  -15.5355  -30.2986   23.7659 H   0  0  0  0  0  0
  -15.8678  -28.0821   22.7069 H   0  0  0  0  0  0
  -24.5917  -30.7072   25.7810 H   0  0  0  0  0  0
  -24.8912  -32.2904   26.4885 H   0  0  0  0  0  0
  -25.8055  -30.8933   27.0265 H   0  0  0  0  0  0
  -26.2936  -29.6758   24.1244 H   0  0  0  0  0  0
  -27.4009  -29.7265   25.4758 H   0  0  0  0  0  0
  -27.8827  -30.4276   23.9501 H   0  0  0  0  0  0
  -27.2682  -33.3634   26.2089 H   0  0  0  0  0  0
  -28.3882  -32.6875   25.0353 H   0  0  0  0  0  0
  -28.0729  -31.8460   26.5448 H   0  0  0  0  0  0
  -28.2596  -38.0102   24.7516 H   0  0  0  0  0  0
  -28.1080  -36.2635   24.6284 H   0  0  0  0  0  0
  -27.2300  -37.1447   25.8867 H   0  0  0  0  0  0
  -20.9376  -29.8796   21.6896 H   0  0  0  0  0  0
  -26.0174  -38.2855   24.1413 H   0  0  0  0  0  0
  -30.5967  -23.9879   19.2406 H   0  0  0  0  0  0
  -27.8002  -20.6966   21.4669 H   0  0  0  0  0  0
  -31.8045  -16.6648   22.7310 H   0  0  0  0  0  0
  -30.5145  -17.8608   23.1155 H   0  0  0  0  0  0
  -28.7447  -16.2252   22.6862 H   0  0  0  0  0  0
  -30.0361  -15.0394   23.0901 H   0  0  0  0  0  0
  -31.5120  -17.2800   20.4526 H   0  0  0  0  0  0
  -26.9337  -24.7606   20.2188 H   0  0  0  0  0  0
  -27.8678  -24.9144   18.7462 H   0  0  0  0  0  0
  -31.2479  -19.6165   20.6166 H   0  0  0  0  0  0
  1 25  1  0  0  0
  1 30  2  0  0  0
  1 82  1  0  0  0
  2  3  1  0  0  0
  2 25  1  0  0  0
  2 85  1  0  0  0
  2 86  1  0  0  0
  3  4  1  0  0  0
  3 87  1  0  0  0
  3 88  1  0  0  0
  4  5  1  0  0  0
  4 89  1  0  0  0
  4 90  1  0  0  0
  5  6  1  0  0  0
  5 26  1  0  0  0
  5 91  1  0  0  0
  6 25  1  0  0  0
  6 92  1  0  0  0
  6 93  1  0  0  0
  7  8  2  0  0  0
  7 26  1  0  0  0
  7 29  1  0  0  0
  8  9  1  0  0  0
  8 22  1  0  0  0
  9 10  1  0  0  0
  9 27  2  0  0  0
 10 11  2  0  0  0
 10 15  1  0  0  0
 11 12  1  0  0  0
 11 94  1  0  0  0
 12 13  2  0  0  0
 12 95  1  0  0  0
 13 14  1  0  0  0
 13 31  1  0  0  0
 14 15  2  0  0  0
 14 96  1  0  0  0
 15 97  1  0  0  0
 16 17  2  0  0  0
 16 21  1  0  0  0
 16 31  1  0  0  0
 17 18  1  0  0  0
 17 98  1  0  0  0
 18 19  2  0  0  0
 18 99  1  0  0  0
 19 20  1  0  0  0
 19 24  1  0  0  0
 20 21  2  0  0  0
 20100  1  0  0  0
 21 23  1  0  0  0
 22 28  1  0  0  0
 22 32  2  0  0  0
 26 27  1  0  0  0
 28101  1  0  0  0
 28102  1  0  0  0
 29103  1  0  0  0
 29104  1  0  0  0
 33 34  1  0  0  0
 33 66  1  0  0  0
 33 70  2  0  0  0
 34 36  1  0  0  0
 34 59  1  0  0  0
 34105  1  0  0  0
 35 44  2  0  0  0
 35 45  1  0  0  0
 35 68  1  0  0  0
 36 56  1  0  0  0
 36106  1  0  0  0
 37 39  1  0  0  0
 37 47  1  0  0  0
 37 66  1  0  0  0
 37107  1  0  0  0
 38 43  2  0  0  0
 38 46  1  0  0  0
 38 47  1  0  0  0
 39 64  1  0  0  0
 39 67  2  0  0  0
 40 52  1  0  0  0
 40 53  2  0  0  0
 40 58  1  0  0  0
 41108  1  0  0  0
 41109  1  0  0  0
 41110  1  0  0  0
 41 48  1  0  0  0
 42 43  1  0  0  0
 42 66  1  0  0  0
 42111  1  0  0  0
 42112  1  0  0  0
 43 44  1  0  0  0
 44113  1  0  0  0
 45 46  2  0  0  0
 45114  1  0  0  0
 46115  1  0  0  0
 47116  1  0  0  0
 47117  1  0  0  0
 48 56  1  0  0  0
 48 65  1  0  0  0
 48118  1  0  0  0
 49 50  1  0  0  0
 49 53  1  0  0  0
 49 64  1  0  0  0
 49119  1  0  0  0
 50 51  1  0  0  0
 50120  1  0  0  0
 50121  1  0  0  0
 51 52  1  0  0  0
 51122  1  0  0  0
 51123  1  0  0  0
 52124  1  0  0  0
 52125  1  0  0  0
 53 54  1  0  0  0
 54 55  2  0  0  0
 54126  1  0  0  0
 55 57  1  0  0  0
 55127  1  0  0  0
 56 69  2  0  0  0
 57 58  2  0  0  0
 57128  1  0  0  0
 58129  1  0  0  0
 59 60  1  0  0  0
 59 61  1  0  0  0
 59 62  1  0  0  0
 60130  1  0  0  0
 60131  1  0  0  0
 60132  1  0  0  0
 61133  1  0  0  0
 61134  1  0  0  0
 61135  1  0  0  0
 62136  1  0  0  0
 62137  1  0  0  0
 62138  1  0  0  0
 63 65  1  0  0  0
 63139  1  0  0  0
 63140  1  0  0  0
 63141  1  0  0  0
 64142  1  0  0  0
 65143  1  0  0  0
 68 79  1  0  0  0
 71 73  2  0  0  0
 71 81  1  0  0  0
 71144  1  0  0  0
 72 74  1  0  0  0
 72 80  2  0  0  0
 72145  1  0  0  0
 73 79  1  0  0  0
 73 80  1  0  0  0
 74 81  2  0  0  0
 74 83  1  0  0  0
 75 83  1  0  0  0
 75 84  2  0  0  0
 75 78  1  0  0  0
 76 77  1  0  0  0
 76 78  1  0  0  0
 76146  1  0  0  0
 76147  1  0  0  0
 77 82  1  0  0  0
 77148  1  0  0  0
 77149  1  0  0  0
 78 82  1  0  0  0
 78150  1  0  0  0
 79151  1  0  0  0
 79152  1  0  0  0
 83153  1  0  0  0
M  ISO  4   1 100  68 101  79 101  82 100
M  END
> <chiral flag>
0

> <version>
0

> <s_m_source_file>
/data/baiqing/PycharmProjects/Reinvent-master-3.2/result/LINK_invent/BTK/process_docking_weight1_custom_sum_contain_oxygen_bond_distance_aromatic_linkinvent_7_9_3/rearranged_h_0177.sdf

> <i_m_source_file_index>
93

> <r_mmod_Potential_Energy-OPLS-2005>
185.67903137207

> <r_mmod_Stretch_Energy-OPLS-2005>
94.1717376708984

> <r_mmod_Bend_Energy-OPLS-2005>
171.698577880859

> <r_mmod_Torsional_Energy-OPLS-2005>
278.23046875

> <r_mmod_Improper_Torsional_Energy-OPLS-2005>
13.6232280731201

> <r_mmod_Van_der_Waal_Energy-OPLS-2005>
164.839401245117

> <r_mmod_Electrostatic_Energy-OPLS-2005>
-367.464874267578

> <r_mmod_Solvation_Energy-OPLS-2005>
-228.306304931641

> <b_mmod_Minimization_Converged-OPLS-2005>
0

> <r_mmod_RMS_Derivative-OPLS-2005>
0.18381555378437

$$$$
93
                    3D
 Structure written by MMmdl.
159168  0  0  1  0            999 V2000
  -30.4691  -14.9144   20.3552 C   0  0  0  0  0  0
  -30.4441  -12.5489   19.4691 C   0  0  0  0  0  0
  -29.5162  -12.5226   18.2302 C   0  0  0  0  0  0
  -28.0434  -12.3186   18.6457 C   0  0  0  0  0  0
  -27.6274  -13.2292   19.8293 C   0  0  2  0  0  0
  -28.6749  -13.2144   20.9619 C   0  0  0  0  0  0
  -25.2479  -13.8175   20.5709 C   0  0  0  0  0  0
  -24.1790  -13.0431   20.9242 C   0  0  0  0  0  0
  -24.6381  -11.6903   20.8765 C   0  0  0  0  0  0
  -23.9051  -10.4296   21.0437 C   0  0  0  0  0  0
  -24.3617   -9.4202   21.9190 C   0  0  0  0  0  0
  -23.6312   -8.2237   22.0779 C   0  0  0  0  0  0
  -22.4285   -8.0284   21.3580 C   0  0  0  0  0  0
  -21.9906   -9.0240   20.4653 C   0  0  0  0  0  0
  -22.7235  -10.2120   20.3065 C   0  0  0  0  0  0
  -21.6853   -6.0734   22.5288 C   0  0  0  0  0  0
  -21.4011   -6.5637   23.8211 C   0  0  0  0  0  0
  -21.3674   -5.6793   24.9173 C   0  0  0  0  0  0
  -21.6036   -4.3053   24.7213 C   0  0  0  0  0  0
  -21.8835   -3.8151   23.4348 C   0  0  0  0  0  0
  -21.9206   -4.6977   22.3403 C   0  0  0  0  0  0
  -22.7815  -13.5216   21.1862 C   0  0  0  0  0  0
  -22.1675   -4.2148   21.0993 F   0  0  0  0  0  0
  -21.5618   -3.4537   25.7734 F   0  0  0  0  0  0
  -29.9512  -13.6265   20.3636 N   0  0  0  0  0  0
  -26.2870  -12.9367   20.3190 N   0  0  0  0  0  0
  -25.9300  -11.6519   20.5703 N   0  0  0  0  0  0
  -22.0469  -12.8208   22.0421 N   0  0  0  0  0  0
  -25.4155  -15.1903   20.4129 N   0  0  0  0  0  0
  -31.6850  -15.0497   20.1528 O   0  0  0  0  0  0
  -21.6663   -6.8884   21.4261 O   0  0  0  0  0  0
  -22.3505  -14.5515   20.6706 O   0  0  0  0  0  0
  -24.6390  -31.8497   23.1907 C   0  0  0  0  0  0
  -25.9183  -32.4706   23.8302 C   0  0  1  0  0  0
  -27.2185  -27.1916   20.0950 C   0  0  0  0  0  0
  -25.5944  -33.8530   24.2198 N   0  0  0  0  0  0
  -23.4394  -30.4677   21.5385 C   0  0  2  0  0  0
  -24.8860  -28.9056   20.1063 C   0  0  0  0  0  0
  -22.7538  -29.4542   22.4876 C   0  0  0  0  0  0
  -18.0325  -28.1374   22.8499 C   0  0  0  0  0  0
  -24.1496  -36.7250   23.2637 C   0  0  0  0  0  0
  -25.9914  -30.7345   21.3840 C   0  0  0  0  0  0
  -26.0633  -29.3533   20.7154 C   0  0  0  0  0  0
  -27.2302  -28.5089   20.6997 C   0  0  0  0  0  0
  -26.0059  -26.8216   19.4770 C   0  0  0  0  0  0
  -24.8655  -27.6518   19.4775 C   0  0  0  0  0  0
  -23.6631  -29.8067   20.1561 C   0  0  0  0  0  0
  -25.4120  -36.3024   24.0305 C   0  0  1  0  0  0
  -20.5929  -28.3696   23.1267 C   0  0  2  0  0  0
  -20.6795  -26.9387   22.5425 C   0  0  0  0  0  0
  -19.5769  -26.6375   21.5227 C   0  0  0  0  0  0
  -18.1956  -26.7926   22.1632 C   0  0  0  0  0  0
  -19.1578  -28.8848   23.2861 C   0  0  0  0  0  0
  -18.9470  -30.1447   23.8857 C   0  0  0  0  0  0
  -17.6462  -30.6556   24.0566 C   0  0  0  0  0  0
  -25.9083  -34.9405   23.5047 C   0  0  0  0  0  0
  -16.5358  -29.9054   23.6333 C   0  0  0  0  0  0
  -16.7311  -28.6486   23.0357 C   0  0  0  0  0  0
  -26.4534  -31.6560   25.0718 C   0  0  0  0  0  0
  -25.3734  -31.3735   26.1424 C   0  0  0  0  0  0
  -27.0423  -30.2961   24.6263 C   0  0  0  0  0  0
  -27.6055  -32.4357   25.7497 C   0  0  0  0  0  0
  -27.5559  -37.1764   24.8453 C   0  0  0  0  0  0
  -21.4237  -29.3024   22.3629 N   0  0  0  0  0  0
  -26.4258  -37.3735   23.9434 N   0  0  0  0  0  0
  -24.7093  -31.0365   22.0933 N   0  0  0  0  0  0
  -23.4197  -28.8077   23.3008 O   0  0  0  0  0  0
  -28.3043  -26.2640   20.1560 O   0  0  0  0  0  0
  -26.5653  -34.8869   22.4620 O   0  0  0  0  0  0
  -23.5520  -32.1433   23.7087 O   0  0  0  0  0  0
  -27.9088  -19.3692   19.3725 C   0  0  0  0  0  0
  -28.1984  -17.9740   19.5717 C   0  0  0  0  0  0
  -28.8131  -20.4368   19.6788 C   0  0  0  0  0  0
  -30.0335  -19.8651   20.2061 C   0  0  0  0  0  0
  -29.4283  -17.4779   20.1012 C   0  0  0  0  0  0
  -26.8365  -23.1356   20.5627 C   0  0  0  0  0  0
  -26.1714  -22.5106   19.3218 C   0  0  0  0  0  0
  -28.5218  -22.0123   19.2081 C   0  0  2  0  0  0
  -28.2925  -23.3682   20.1401 C   0  0  1  0  0  0
  -31.2036  -20.7656   20.5413 C   0  0  0  0  0  0
  -28.3706  -24.8939   19.4600 C   0  0  0  0  0  0
  -30.3082  -18.4984   20.4039 N   0  0  0  0  0  0
  -29.5323  -15.9733   20.3299 N   0  0  0  0  0  0
  -27.2665  -22.0633   18.4268 N   0  3  0  0  0  0
  -31.4777  -12.7275   19.1642 H   0  0  0  0  0  0
  -30.4345  -11.5869   19.9800 H   0  0  0  0  0  0
  -29.8192  -11.7347   17.5377 H   0  0  0  0  0  0
  -29.6114  -13.4634   17.6824 H   0  0  0  0  0  0
  -27.9238  -11.2720   18.9262 H   0  0  0  0  0  0
  -27.3868  -12.4869   17.7914 H   0  0  0  0  0  0
  -27.5920  -14.2374   19.4162 H   0  0  0  0  0  0
  -28.7524  -12.2232   21.4088 H   0  0  0  0  0  0
  -28.3855  -13.8893   21.7716 H   0  0  0  0  0  0
  -25.2764   -9.5667   22.4743 H   0  0  0  0  0  0
  -24.0024   -7.4622   22.7484 H   0  0  0  0  0  0
  -21.0846   -8.8743   19.8933 H   0  0  0  0  0  0
  -22.3706  -10.9662   19.6154 H   0  0  0  0  0  0
  -21.2001   -7.6138   23.9703 H   0  0  0  0  0  0
  -21.1475   -6.0528   25.9069 H   0  0  0  0  0  0
  -22.0607   -2.7613   23.2845 H   0  0  0  0  0  0
  -22.4109  -11.9853   22.4768 H   0  0  0  0  0  0
  -21.1069  -13.1183   22.2593 H   0  0  0  0  0  0
  -24.6436  -15.8369   20.5256 H   0  0  0  0  0  0
  -26.2319  -15.6251   20.0115 H   0  0  0  0  0  0
  -26.7217  -32.5300   23.1016 H   0  0  0  0  0  0
  -25.0130  -33.9719   25.0359 H   0  0  0  0  0  0
  -22.7358  -31.2883   21.3912 H   0  0  0  0  0  0
  -23.3764  -35.9568   23.3278 H   0  0  0  0  0  0
  -24.3590  -36.8937   22.2055 H   0  0  0  0  0  0
  -23.7258  -37.6428   23.6725 H   0  0  0  0  0  0
  -26.1412  -31.4910   20.6152 H   0  0  0  0  0  0
  -26.8643  -30.7821   22.0241 H   0  0  0  0  0  0
  -28.1315  -28.8479   21.1916 H   0  0  0  0  0  0
  -25.8895  -25.8550   19.0173 H   0  0  0  0  0  0
  -23.9577  -27.3062   19.0029 H   0  0  0  0  0  0
  -23.7954  -30.5919   19.4099 H   0  0  0  0  0  0
  -22.7796  -29.2527   19.8396 H   0  0  0  0  0  0
  -25.1293  -36.1828   25.0779 H   0  0  0  0  0  0
  -21.0010  -28.3285   24.1400 H   0  0  0  0  0  0
  -20.5717  -26.2277   23.3649 H   0  0  0  0  0  0
  -21.6654  -26.7407   22.1185 H   0  0  0  0  0  0
  -19.6925  -25.6288   21.1272 H   0  0  0  0  0  0
  -19.6710  -27.3179   20.6746 H   0  0  0  0  0  0
  -17.4224  -26.6715   21.4022 H   0  0  0  0  0  0
  -18.0288  -26.0033   22.8976 H   0  0  0  0  0  0
  -19.7928  -30.7299   24.2187 H   0  0  0  0  0  0
  -17.5016  -31.6245   24.5162 H   0  0  0  0  0  0
  -15.5359  -30.2954   23.7652 H   0  0  0  0  0  0
  -15.8735  -28.0810   22.7070 H   0  0  0  0  0  0
  -24.5878  -30.7121   25.7742 H   0  0  0  0  0  0
  -24.8962  -32.2924   26.4830 H   0  0  0  0  0  0
  -25.8026  -30.8906   27.0214 H   0  0  0  0  0  0
  -26.3041  -29.6655   24.1275 H   0  0  0  0  0  0
  -27.4106  -29.7249   25.4806 H   0  0  0  0  0  0
  -27.8916  -30.4242   23.9548 H   0  0  0  0  0  0
  -27.2622  -33.3663   26.2027 H   0  0  0  0  0  0
  -28.3872  -32.6929   25.0336 H   0  0  0  0  0  0
  -28.0731  -31.8542   26.5464 H   0  0  0  0  0  0
  -28.2509  -38.0106   24.7511 H   0  0  0  0  0  0
  -28.1109  -36.2633   24.6256 H   0  0  0  0  0  0
  -27.2286  -37.1350   25.8849 H   0  0  0  0  0  0
  -20.9445  -29.8746   21.6831 H   0  0  0  0  0  0
  -26.0120  -38.2777   24.1497 H   0  0  0  0  0  0
  -26.9568  -19.5924   18.9119 H   0  0  0  0  0  0
  -27.4288  -17.2770   19.2738 H   0  0  0  0  0  0
  -26.7993  -22.4339   21.3973 H   0  0  0  0  0  0
  -26.3309  -24.0461   20.8867 H   0  0  0  0  0  0
  -25.5366  -23.2332   18.8054 H   0  0  0  0  0  0
  -25.5404  -21.6655   19.6092 H   0  0  0  0  0  0
  -29.3225  -22.2407   18.5051 H   0  0  0  0  0  0
  -28.9724  -23.3421   20.9903 H   0  0  0  0  0  0
  -31.8857  -20.8094   19.6892 H   0  0  0  0  0  0
  -31.7545  -20.3781   21.3985 H   0  0  0  0  0  0
  -30.8806  -21.7764   20.7906 H   0  0  0  0  0  0
  -27.7046  -24.9215   18.5994 H   0  0  0  0  0  0
  -29.3508  -24.9222   18.9827 H   0  0  0  0  0  0
  -28.6143  -15.5650   20.3904 H   0  0  0  0  0  0
  -27.3704  -22.7677   17.7103 H   0  0  0  0  0  0
  -27.0469  -21.2045   17.9523 H   0  0  0  0  0  0
  1 25  1  0  0  0
  1 30  2  0  0  0
  1 83  1  0  0  0
  2  3  1  0  0  0
  2 25  1  0  0  0
  2 85  1  0  0  0
  2 86  1  0  0  0
  3  4  1  0  0  0
  3 87  1  0  0  0
  3 88  1  0  0  0
  4  5  1  0  0  0
  4 89  1  0  0  0
  4 90  1  0  0  0
  5  6  1  0  0  0
  5 26  1  0  0  0
  5 91  1  0  0  0
  6 25  1  0  0  0
  6 92  1  0  0  0
  6 93  1  0  0  0
  7  8  2  0  0  0
  7 26  1  0  0  0
  7 29  1  0  0  0
  8  9  1  0  0  0
  8 22  1  0  0  0
  9 10  1  0  0  0
  9 27  2  0  0  0
 10 11  2  0  0  0
 10 15  1  0  0  0
 11 12  1  0  0  0
 11 94  1  0  0  0
 12 13  2  0  0  0
 12 95  1  0  0  0
 13 14  1  0  0  0
 13 31  1  0  0  0
 14 15  2  0  0  0
 14 96  1  0  0  0
 15 97  1  0  0  0
 16 17  2  0  0  0
 16 21  1  0  0  0
 16 31  1  0  0  0
 17 18  1  0  0  0
 17 98  1  0  0  0
 18 19  2  0  0  0
 18 99  1  0  0  0
 19 20  1  0  0  0
 19 24  1  0  0  0
 20 21  2  0  0  0
 20100  1  0  0  0
 21 23  1  0  0  0
 22 28  1  0  0  0
 22 32  2  0  0  0
 26 27  1  0  0  0
 28101  1  0  0  0
 28102  1  0  0  0
 29103  1  0  0  0
 29104  1  0  0  0
 33 34  1  0  0  0
 33 66  1  0  0  0
 33 70  2  0  0  0
 34 36  1  0  0  0
 34 59  1  0  0  0
 34105  1  0  0  0
 35 44  2  0  0  0
 35 45  1  0  0  0
 35 68  1  0  0  0
 36 56  1  0  0  0
 36106  1  0  0  0
 37 39  1  0  0  0
 37 47  1  0  0  0
 37 66  1  0  0  0
 37107  1  0  0  0
 38 43  2  0  0  0
 38 46  1  0  0  0
 38 47  1  0  0  0
 39 64  1  0  0  0
 39 67  2  0  0  0
 40 52  1  0  0  0
 40 53  2  0  0  0
 40 58  1  0  0  0
 41108  1  0  0  0
 41109  1  0  0  0
 41110  1  0  0  0
 41 48  1  0  0  0
 42 43  1  0  0  0
 42 66  1  0  0  0
 42111  1  0  0  0
 42112  1  0  0  0
 43 44  1  0  0  0
 44113  1  0  0  0
 45 46  2  0  0  0
 45114  1  0  0  0
 46115  1  0  0  0
 47116  1  0  0  0
 47117  1  0  0  0
 48 56  1  0  0  0
 48 65  1  0  0  0
 48118  1  0  0  0
 49 50  1  0  0  0
 49 53  1  0  0  0
 49 64  1  0  0  0
 49119  1  0  0  0
 50 51  1  0  0  0
 50120  1  0  0  0
 50121  1  0  0  0
 51 52  1  0  0  0
 51122  1  0  0  0
 51123  1  0  0  0
 52124  1  0  0  0
 52125  1  0  0  0
 53 54  1  0  0  0
 54 55  2  0  0  0
 54126  1  0  0  0
 55 57  1  0  0  0
 55127  1  0  0  0
 56 69  2  0  0  0
 57 58  2  0  0  0
 57128  1  0  0  0
 58129  1  0  0  0
 59 60  1  0  0  0
 59 61  1  0  0  0
 59 62  1  0  0  0
 60130  1  0  0  0
 60131  1  0  0  0
 60132  1  0  0  0
 61133  1  0  0  0
 61134  1  0  0  0
 61135  1  0  0  0
 62136  1  0  0  0
 62137  1  0  0  0
 62138  1  0  0  0
 63 65  1  0  0  0
 63139  1  0  0  0
 63140  1  0  0  0
 63141  1  0  0  0
 64142  1  0  0  0
 65143  1  0  0  0
 68 81  1  0  0  0
 71 72  2  0  0  0
 71 73  1  0  0  0
 71144  1  0  0  0
 72 75  1  0  0  0
 72145  1  0  0  0
 73 74  2  0  0  0
 73 78  1  0  0  0
 74 80  1  0  0  0
 74 82  1  0  0  0
 75 82  2  0  0  0
 75 83  1  0  0  0
 76 77  1  0  0  0
 76 79  1  0  0  0
 76146  1  0  0  0
 76147  1  0  0  0
 77 84  1  0  0  0
 77148  1  0  0  0
 77149  1  0  0  0
 78 79  1  0  0  0
 78 84  1  0  0  0
 78150  1  0  0  0
 79 81  1  0  0  0
 79151  1  0  0  0
 80152  1  0  0  0
 80153  1  0  0  0
 80154  1  0  0  0
 81155  1  0  0  0
 81156  1  0  0  0
 83157  1  0  0  0
 84158  1  0  0  0
 84159  1  0  0  0
M  CHG  1  84   1
M  ISO  4   1 100  68 101  81 101  83 100
M  END
> <chiral flag>
0

> <version>
0

> <s_m_source_file>
/data/baiqing/PycharmProjects/Reinvent-master-3.2/result/LINK_invent/BTK/process_docking_weight1_custom_sum_contain_oxygen_bond_distance_aromatic_linkinvent_7_9_3/rearranged_h_0177.sdf

> <i_m_source_file_index>
94

> <r_mmod_Potential_Energy-OPLS-2005>
225.00114440918

> <r_mmod_Stretch_Energy-OPLS-2005>
210.919876098633

> <r_mmod_Bend_Energy-OPLS-2005>
309.76123046875

> <r_mmod_Torsional_Energy-OPLS-2005>
284.841094970703

> <r_mmod_Improper_Torsional_Energy-OPLS-2005>
8.37823963165283

> <r_mmod_Van_der_Waal_Energy-OPLS-2005>
128.111663818359

> <r_mmod_Electrostatic_Energy-OPLS-2005>
-366.428192138672

> <r_mmod_Solvation_Energy-OPLS-2005>
-513.536254882812

> <b_mmod_Minimization_Converged-OPLS-2005>
0

> <r_mmod_RMS_Derivative-OPLS-2005>
5.95736646652222

$$$$
94
                    3D
 Structure written by MMmdl.
154163  0  0  1  0            999 V2000
  -30.4707  -15.2865   20.3717 C   0  0  0  0  0  0
  -30.4228  -12.8298   19.5243 C   0  0  0  0  0  0
  -29.5292  -12.5902   18.2837 C   0  0  0  0  0  0
  -28.0790  -12.3100   18.7104 C   0  0  0  0  0  0
  -27.6044  -13.2833   19.8193 C   0  0  2  0  0  0
  -28.6364  -13.4898   20.9481 C   0  0  0  0  0  0
  -25.2370  -13.8268   20.5782 C   0  0  0  0  0  0
  -24.1731  -13.0442   20.9265 C   0  0  0  0  0  0
  -24.6390  -11.6949   20.8754 C   0  0  0  0  0  0
  -23.9085  -10.4304   21.0392 C   0  0  0  0  0  0
  -24.3637   -9.4220   21.9183 C   0  0  0  0  0  0
  -23.6317   -8.2253   22.0750 C   0  0  0  0  0  0
  -22.4296   -8.0289   21.3541 C   0  0  0  0  0  0
  -21.9931   -9.0257   20.4634 C   0  0  0  0  0  0
  -22.7252  -10.2144   20.3034 C   0  0  0  0  0  0
  -21.6857   -6.0749   22.5290 C   0  0  0  0  0  0
  -21.4020   -6.5646   23.8226 C   0  0  0  0  0  0
  -21.3668   -5.6795   24.9187 C   0  0  0  0  0  0
  -21.6044   -4.3053   24.7230 C   0  0  0  0  0  0
  -21.8821   -3.8153   23.4347 C   0  0  0  0  0  0
  -21.9194   -4.6979   22.3411 C   0  0  0  0  0  0
  -22.7753  -13.5189   21.1921 C   0  0  0  0  0  0
  -22.1651   -4.2170   21.0985 F   0  0  0  0  0  0
  -21.5642   -3.4528   25.7736 F   0  0  0  0  0  0
  -29.8603  -13.9972   20.3065 N   0  0  0  0  0  0
  -26.2783  -12.9554   20.3223 N   0  0  0  0  0  0
  -25.9329  -11.6653   20.5722 N   0  0  0  0  0  0
  -22.0393  -12.8167   22.0463 N   0  0  0  0  0  0
  -25.4031  -15.2020   20.4320 N   0  0  0  0  0  0
  -31.6995  -15.2064   20.2182 O   0  0  0  0  0  0
  -21.6652   -6.8888   21.4245 O   0  0  0  0  0  0
  -22.3441  -14.5496   20.6761 O   0  0  0  0  0  0
  -24.6641  -31.8230   23.1681 C   0  0  0  0  0  0
  -25.9324  -32.4582   23.8157 C   0  0  1  0  0  0
  -27.2217  -26.9122   20.1979 C   0  0  0  0  0  0
  -25.5999  -33.8399   24.2074 N   0  0  0  0  0  0
  -23.4805  -30.4317   21.5170 C   0  0  2  0  0  0
  -24.9342  -28.8094   20.1185 C   0  0  0  0  0  0
  -22.7677  -29.4440   22.4774 C   0  0  0  0  0  0
  -18.0329  -28.1421   22.8462 C   0  0  0  0  0  0
  -24.1500  -36.7196   23.2647 C   0  0  0  0  0  0
  -26.0496  -30.6248   21.3992 C   0  0  0  0  0  0
  -26.1177  -29.2110   20.7484 C   0  0  0  0  0  0
  -27.2586  -28.2859   20.7565 C   0  0  0  0  0  0
  -26.0061  -26.6608   19.5252 C   0  0  0  0  0  0
  -24.9037  -27.5552   19.4856 C   0  0  0  0  0  0
  -23.7219  -29.7417   20.1458 C   0  0  0  0  0  0
  -25.4141  -36.2957   24.0296 C   0  0  1  0  0  0
  -20.5955  -28.3771   23.1187 C   0  0  2  0  0  0
  -20.6804  -26.9448   22.5401 C   0  0  0  0  0  0
  -19.5779  -26.6379   21.5220 C   0  0  0  0  0  0
  -18.1960  -26.7952   22.1621 C   0  0  0  0  0  0
  -19.1587  -28.8916   23.2811 C   0  0  0  0  0  0
  -18.9494  -30.1502   23.8849 C   0  0  0  0  0  0
  -17.6484  -30.6605   24.0558 C   0  0  0  0  0  0
  -25.9109  -34.9346   23.5008 C   0  0  0  0  0  0
  -16.5379  -29.9089   23.6342 C   0  0  0  0  0  0
  -16.7309  -28.6513   23.0356 C   0  0  0  0  0  0
  -26.4567  -31.6534   25.0693 C   0  0  0  0  0  0
  -25.3689  -31.3780   26.1345 C   0  0  0  0  0  0
  -27.0470  -30.2902   24.6441 C   0  0  0  0  0  0
  -27.6066  -32.4332   25.7498 C   0  0  0  0  0  0
  -27.5576  -37.1754   24.8460 C   0  0  0  0  0  0
  -21.4347  -29.3056   22.3525 N   0  0  0  0  0  0
  -26.4277  -37.3698   23.9411 N   0  0  0  0  0  0
  -24.7531  -30.9879   22.0818 N   0  0  0  0  0  0
  -23.4208  -28.8021   23.3037 O   0  0  0  0  0  0
  -28.2425  -25.8200   20.2378 O   0  0  0  0  0  0
  -26.5710  -34.8886   22.4592 O   0  0  0  0  0  0
  -23.5712  -32.1202   23.6779 O   0  0  0  0  0  0
  -28.1207  -22.8986   19.3735 C   0  0  0  0  0  0
  -29.0965  -23.0901   21.0956 C   0  0  0  0  0  0
  -28.9740  -17.4323   19.4980 C   0  0  0  0  0  0
  -30.5845  -17.8905   21.0442 C   0  0  0  0  0  0
  -28.3441  -18.9889   19.7269 C   0  0  0  0  0  0
  -29.9418  -19.4308   21.3007 C   0  0  0  0  0  0
  -28.4542  -21.7076   20.4742 C   0  0  2  0  0  0
  -28.0433  -24.1789   20.4193 C   0  0  1  0  0  0
  -29.8365  -16.6429   20.5069 N   0  0  0  0  0  0
  -29.1861  -20.2044   20.2005 N   0  3  0  0  0  0
  -31.4468  -13.0159   19.1972 H   0  0  0  0  0  0
  -30.4783  -11.9313   20.1414 H   0  0  0  0  0  0
  -29.9126  -11.7614   17.6866 H   0  0  0  0  0  0
  -29.5578  -13.4740   17.6430 H   0  0  0  0  0  0
  -28.0338  -11.2828   19.0744 H   0  0  0  0  0  0
  -27.4119  -12.3542   17.8478 H   0  0  0  0  0  0
  -27.5066  -14.2450   19.3145 H   0  0  0  0  0  0
  -28.8157  -12.5676   21.5048 H   0  0  0  0  0  0
  -28.2734  -14.2249   21.6683 H   0  0  0  0  0  0
  -25.2769   -9.5707   22.4775 H   0  0  0  0  0  0
  -24.0031   -7.4638   22.7457 H   0  0  0  0  0  0
  -21.0870   -8.8751   19.8931 H   0  0  0  0  0  0
  -22.3688  -10.9684   19.6147 H   0  0  0  0  0  0
  -21.1991   -7.6150   23.9737 H   0  0  0  0  0  0
  -21.1497   -6.0520   25.9094 H   0  0  0  0  0  0
  -22.0586   -2.7614   23.2836 H   0  0  0  0  0  0
  -22.3988  -11.9816   22.4851 H   0  0  0  0  0  0
  -21.0997  -13.1175   22.2636 H   0  0  0  0  0  0
  -24.6422  -15.8566   20.5782 H   0  0  0  0  0  0
  -26.2675  -15.6511   20.1597 H   0  0  0  0  0  0
  -26.7401  -32.5112   23.0880 H   0  0  0  0  0  0
  -25.0107  -33.9473   25.0206 H   0  0  0  0  0  0
  -22.7956  -31.2638   21.3421 H   0  0  0  0  0  0
  -23.3779  -35.9508   23.3261 H   0  0  0  0  0  0
  -24.3581  -36.8886   22.2069 H   0  0  0  0  0  0
  -23.7238  -37.6363   23.6733 H   0  0  0  0  0  0
  -26.2306  -31.3647   20.6182 H   0  0  0  0  0  0
  -26.9091  -30.6836   22.0547 H   0  0  0  0  0  0
  -28.1581  -28.5971   21.2676 H   0  0  0  0  0  0
  -25.8851  -25.7011   19.0424 H   0  0  0  0  0  0
  -24.0045  -27.2412   18.9753 H   0  0  0  0  0  0
  -23.8829  -30.5069   19.3861 H   0  0  0  0  0  0
  -22.8310  -29.1981   19.8257 H   0  0  0  0  0  0
  -25.1344  -36.1740   25.0785 H   0  0  0  0  0  0
  -21.0049  -28.3374   24.1313 H   0  0  0  0  0  0
  -20.5693  -26.2389   23.3644 H   0  0  0  0  0  0
  -21.6664  -26.7425   22.1204 H   0  0  0  0  0  0
  -19.6935  -25.6276   21.1285 H   0  0  0  0  0  0
  -19.6721  -27.3159   20.6726 H   0  0  0  0  0  0
  -17.4231  -26.6707   21.4017 H   0  0  0  0  0  0
  -18.0350  -26.0106   22.9029 H   0  0  0  0  0  0
  -19.7968  -30.7336   24.2195 H   0  0  0  0  0  0
  -17.5033  -31.6278   24.5170 H   0  0  0  0  0  0
  -15.5377  -30.2968   23.7701 H   0  0  0  0  0  0
  -15.8712  -28.0815   22.7092 H   0  0  0  0  0  0
  -24.5896  -30.7108   25.7648 H   0  0  0  0  0  0
  -24.8853  -32.2976   26.4645 H   0  0  0  0  0  0
  -25.7914  -30.9024   27.0207 H   0  0  0  0  0  0
  -26.3147  -29.6558   24.1436 H   0  0  0  0  0  0
  -27.3991  -29.7281   25.5106 H   0  0  0  0  0  0
  -27.9094  -30.4087   23.9876 H   0  0  0  0  0  0
  -27.2657  -33.3679   26.1961 H   0  0  0  0  0  0
  -28.3948  -32.6807   25.0376 H   0  0  0  0  0  0
  -28.0664  -31.8524   26.5506 H   0  0  0  0  0  0
  -28.2548  -38.0092   24.7535 H   0  0  0  0  0  0
  -28.1114  -36.2616   24.6249 H   0  0  0  0  0  0
  -27.2292  -37.1348   25.8860 H   0  0  0  0  0  0
  -20.9610  -29.8725   21.6632 H   0  0  0  0  0  0
  -26.0115  -38.2750   24.1427 H   0  0  0  0  0  0
  -27.1855  -22.7327   18.8392 H   0  0  0  0  0  0
  -28.9222  -23.0196   18.6404 H   0  0  0  0  0  0
  -30.1245  -23.2526   20.7610 H   0  0  0  0  0  0
  -29.0834  -23.1109   22.1851 H   0  0  0  0  0  0
  -29.5694  -17.4705   18.5825 H   0  0  0  0  0  0
  -28.1380  -16.7816   19.2411 H   0  0  0  0  0  0
  -31.0242  -17.5782   21.9921 H   0  0  0  0  0  0
  -31.4451  -18.0202   20.3840 H   0  0  0  0  0  0
  -27.5300  -18.8922   20.4482 H   0  0  0  0  0  0
  -27.8501  -19.2883   18.8029 H   0  0  0  0  0  0
  -30.7515  -20.0809   21.6335 H   0  0  0  0  0  0
  -29.2732  -19.3665   22.1595 H   0  0  0  0  0  0
  -27.5444  -21.4872   21.0351 H   0  0  0  0  0  0
  -27.1025  -24.0902   20.9622 H   0  0  0  0  0  0
  -29.8676  -20.3714   19.4758 H   0  0  0  0  0  0
  1 25  1  0  0  0
  1 30  2  0  0  0
  1 79  1  0  0  0
  2  3  1  0  0  0
  2 25  1  0  0  0
  2 81  1  0  0  0
  2 82  1  0  0  0
  3  4  1  0  0  0
  3 83  1  0  0  0
  3 84  1  0  0  0
  4  5  1  0  0  0
  4 85  1  0  0  0
  4 86  1  0  0  0
  5  6  1  0  0  0
  5 26  1  0  0  0
  5 87  1  0  0  0
  6 25  1  0  0  0
  6 88  1  0  0  0
  6 89  1  0  0  0
  7  8  2  0  0  0
  7 26  1  0  0  0
  7 29  1  0  0  0
  8  9  1  0  0  0
  8 22  1  0  0  0
  9 10  1  0  0  0
  9 27  2  0  0  0
 10 11  2  0  0  0
 10 15  1  0  0  0
 11 12  1  0  0  0
 11 90  1  0  0  0
 12 13  2  0  0  0
 12 91  1  0  0  0
 13 14  1  0  0  0
 13 31  1  0  0  0
 14 15  2  0  0  0
 14 92  1  0  0  0
 15 93  1  0  0  0
 16 17  2  0  0  0
 16 21  1  0  0  0
 16 31  1  0  0  0
 17 18  1  0  0  0
 17 94  1  0  0  0
 18 19  2  0  0  0
 18 95  1  0  0  0
 19 20  1  0  0  0
 19 24  1  0  0  0
 20 21  2  0  0  0
 20 96  1  0  0  0
 21 23  1  0  0  0
 22 28  1  0  0  0
 22 32  2  0  0  0
 26 27  1  0  0  0
 28 97  1  0  0  0
 28 98  1  0  0  0
 29 99  1  0  0  0
 29100  1  0  0  0
 33 34  1  0  0  0
 33 66  1  0  0  0
 33 70  2  0  0  0
 34 36  1  0  0  0
 34 59  1  0  0  0
 34101  1  0  0  0
 35 44  2  0  0  0
 35 45  1  0  0  0
 35 68  1  0  0  0
 36 56  1  0  0  0
 36102  1  0  0  0
 37 39  1  0  0  0
 37 47  1  0  0  0
 37 66  1  0  0  0
 37103  1  0  0  0
 38 43  2  0  0  0
 38 46  1  0  0  0
 38 47  1  0  0  0
 39 64  1  0  0  0
 39 67  2  0  0  0
 40 52  1  0  0  0
 40 53  2  0  0  0
 40 58  1  0  0  0
 41104  1  0  0  0
 41105  1  0  0  0
 41106  1  0  0  0
 41 48  1  0  0  0
 42 43  1  0  0  0
 42 66  1  0  0  0
 42107  1  0  0  0
 42108  1  0  0  0
 43 44  1  0  0  0
 44109  1  0  0  0
 45 46  2  0  0  0
 45110  1  0  0  0
 46111  1  0  0  0
 47112  1  0  0  0
 47113  1  0  0  0
 48 56  1  0  0  0
 48 65  1  0  0  0
 48114  1  0  0  0
 49 50  1  0  0  0
 49 53  1  0  0  0
 49 64  1  0  0  0
 49115  1  0  0  0
 50 51  1  0  0  0
 50116  1  0  0  0
 50117  1  0  0  0
 51 52  1  0  0  0
 51118  1  0  0  0
 51119  1  0  0  0
 52120  1  0  0  0
 52121  1  0  0  0
 53 54  1  0  0  0
 54 55  2  0  0  0
 54122  1  0  0  0
 55 57  1  0  0  0
 55123  1  0  0  0
 56 69  2  0  0  0
 57 58  2  0  0  0
 57124  1  0  0  0
 58125  1  0  0  0
 59 60  1  0  0  0
 59 61  1  0  0  0
 59 62  1  0  0  0
 60126  1  0  0  0
 60127  1  0  0  0
 60128  1  0  0  0
 61129  1  0  0  0
 61130  1  0  0  0
 61131  1  0  0  0
 62132  1  0  0  0
 62133  1  0  0  0
 62134  1  0  0  0
 63 65  1  0  0  0
 63135  1  0  0  0
 63136  1  0  0  0
 63137  1  0  0  0
 64138  1  0  0  0
 65139  1  0  0  0
 68 78  1  0  0  0
 71 78  1  0  0  0
 71140  1  0  0  0
 71141  1  0  0  0
 71 77  1  0  0  0
 72 77  1  0  0  0
 72 78  1  0  0  0
 72142  1  0  0  0
 72143  1  0  0  0
 73 75  1  0  0  0
 73 79  1  0  0  0
 73144  1  0  0  0
 73145  1  0  0  0
 74 76  1  0  0  0
 74 79  1  0  0  0
 74146  1  0  0  0
 74147  1  0  0  0
 75148  1  0  0  0
 75149  1  0  0  0
 75 80  1  0  0  0
 76 80  1  0  0  0
 76150  1  0  0  0
 76151  1  0  0  0
 77 80  1  0  0  0
 77152  1  0  0  0
 78153  1  0  0  0
 80154  1  0  0  0
M  CHG  1  80   1
M  ISO  4   1 100  68 101  78 101  79 100
M  END
> <chiral flag>
0

> <version>
0

> <s_m_source_file>
/data/baiqing/PycharmProjects/Reinvent-master-3.2/result/LINK_invent/BTK/process_docking_weight1_custom_sum_contain_oxygen_bond_distance_aromatic_linkinvent_7_9_3/rearranged_h_0177.sdf

> <i_m_source_file_index>
95

> <r_mmod_Potential_Energy-OPLS-2005>
1395.25659179688

> <r_mmod_Stretch_Energy-OPLS-2005>
511.579772949219

> <r_mmod_Bend_Energy-OPLS-2005>
560.447387695312

> <r_mmod_Torsional_Energy-OPLS-2005>
397.709442138672

> <r_mmod_Improper_Torsional_Energy-OPLS-2005>
6.13700723648071

> <r_mmod_Van_der_Waal_Energy-OPLS-2005>
114.300033569336

> <r_mmod_Electrostatic_Energy-OPLS-2005>
-198.208755493164

> <r_mmod_Solvation_Energy-OPLS-2005>
-469.849365234375

> <b_mmod_Minimization_Converged-OPLS-2005>
0

> <r_mmod_RMS_Derivative-OPLS-2005>
2.03610014915466

$$$$
95
                    3D
 Structure written by MMmdl.
164173  0  0  1  0            999 V2000
  -30.5315  -15.1792   20.3841 C   0  0  0  0  0  0
  -30.4248  -12.7543   19.5194 C   0  0  0  0  0  0
  -29.5329  -12.5565   18.2736 C   0  0  0  0  0  0
  -28.0752  -12.3104   18.6981 C   0  0  0  0  0  0
  -27.6136  -13.2755   19.8224 C   0  0  2  0  0  0
  -28.6496  -13.4418   20.9528 C   0  0  0  0  0  0
  -25.2380  -13.8248   20.5710 C   0  0  0  0  0  0
  -24.1748  -13.0437   20.9254 C   0  0  0  0  0  0
  -24.6413  -11.6934   20.8793 C   0  0  0  0  0  0
  -23.9111  -10.4288   21.0418 C   0  0  0  0  0  0
  -24.3659   -9.4210   21.9200 C   0  0  0  0  0  0
  -23.6310   -8.2259   22.0783 C   0  0  0  0  0  0
  -22.4278   -8.0313   21.3573 C   0  0  0  0  0  0
  -21.9913   -9.0286   20.4665 C   0  0  0  0  0  0
  -22.7276  -10.2149   20.3061 C   0  0  0  0  0  0
  -21.6854   -6.0751   22.5274 C   0  0  0  0  0  0
  -21.4027   -6.5639   23.8209 C   0  0  0  0  0  0
  -21.3662   -5.6784   24.9155 C   0  0  0  0  0  0
  -21.6036   -4.3045   24.7223 C   0  0  0  0  0  0
  -21.8814   -3.8155   23.4337 C   0  0  0  0  0  0
  -21.9192   -4.6976   22.3392 C   0  0  0  0  0  0
  -22.7763  -13.5206   21.1862 C   0  0  0  0  0  0
  -22.1651   -4.2156   21.0971 F   0  0  0  0  0  0
  -21.5630   -3.4535   25.7741 F   0  0  0  0  0  0
  -29.8838  -13.9196   20.3118 N   0  0  0  0  0  0
  -26.2820  -12.9527   20.3207 N   0  0  0  0  0  0
  -25.9357  -11.6638   20.5779 N   0  0  0  0  0  0
  -22.0359  -12.8244   22.0412 N   0  0  0  0  0  0
  -25.4002  -15.1975   20.4056 N   0  0  0  0  0  0
  -31.7473  -15.0888   20.1765 O   0  0  0  0  0  0
  -21.6642   -6.8913   21.4246 O   0  0  0  0  0  0
  -22.3449  -14.5515   20.6692 O   0  0  0  0  0  0
  -24.6576  -31.8276   23.1761 C   0  0  0  0  0  0
  -25.9288  -32.4607   23.8204 C   0  0  1  0  0  0
  -27.2095  -26.9753   20.1879 C   0  0  0  0  0  0
  -25.5974  -33.8419   24.2109 N   0  0  0  0  0  0
  -23.4704  -30.4414   21.5229 C   0  0  2  0  0  0
  -24.9234  -28.8408   20.1147 C   0  0  0  0  0  0
  -22.7647  -29.4444   22.4789 C   0  0  0  0  0  0
  -18.0320  -28.1393   22.8448 C   0  0  0  0  0  0
  -24.1501  -36.7225   23.2644 C   0  0  0  0  0  0
  -26.0383  -30.6518   21.4001 C   0  0  0  0  0  0
  -26.1074  -29.2464   20.7452 C   0  0  0  0  0  0
  -27.2514  -28.3354   20.7555 C   0  0  0  0  0  0
  -26.0022  -26.7158   19.5034 C   0  0  0  0  0  0
  -24.8944  -27.5943   19.4725 C   0  0  0  0  0  0
  -23.7082  -29.7607   20.1471 C   0  0  0  0  0  0
  -25.4135  -36.2969   24.0291 C   0  0  1  0  0  0
  -20.5945  -28.3729   23.1186 C   0  0  2  0  0  0
  -20.6788  -26.9413   22.5389 C   0  0  0  0  0  0
  -19.5764  -26.6357   21.5195 C   0  0  0  0  0  0
  -18.1946  -26.7921   22.1609 C   0  0  0  0  0  0
  -19.1579  -28.8884   23.2807 C   0  0  0  0  0  0
  -18.9488  -30.1475   23.8839 C   0  0  0  0  0  0
  -17.6481  -30.6577   24.0537 C   0  0  0  0  0  0
  -25.9088  -34.9351   23.5013 C   0  0  0  0  0  0
  -16.5373  -29.9057   23.6340 C   0  0  0  0  0  0
  -16.7304  -28.6486   23.0349 C   0  0  0  0  0  0
  -26.4559  -31.6538   25.0720 C   0  0  0  0  0  0
  -25.3695  -31.3783   26.1388 C   0  0  0  0  0  0
  -27.0432  -30.2890   24.6437 C   0  0  0  0  0  0
  -27.6052  -32.4345   25.7522 C   0  0  0  0  0  0
  -27.5575  -37.1764   24.8458 C   0  0  0  0  0  0
  -21.4321  -29.3038   22.3555 N   0  0  0  0  0  0
  -26.4283  -37.3697   23.9396 N   0  0  0  0  0  0
  -24.7428  -30.9993   22.0863 N   0  0  0  0  0  0
  -23.4213  -28.7995   23.3003 O   0  0  0  0  0  0
  -28.2113  -25.8849   20.2179 O   0  0  0  0  0  0
  -26.5694  -34.8871   22.4607 O   0  0  0  0  0  0
  -23.5660  -32.1227   23.6887 O   0  0  0  0  0  0
  -28.5821  -22.8489   20.0878 C   0  0  0  0  0  0
  -28.5892  -21.5796   20.7952 C   0  0  0  0  0  0
  -28.0529  -21.6423   22.2297 C   0  0  0  0  0  0
  -27.7783  -24.2474   22.0902 C   0  0  0  0  0  0
  -30.7455  -17.7969   19.9625 C   0  0  0  0  0  0
  -28.6884  -17.1560   20.9690 C   0  0  0  0  0  0
  -30.1550  -19.3371   19.6894 C   0  0  0  0  0  0
  -28.1573  -18.7173   20.6929 C   0  0  0  0  0  0
  -27.8683  -24.3307   20.5565 C   0  0  1  0  0  0
  -27.2292  -22.9042   22.6584 C   0  0  0  0  0  0
  -25.7420  -22.7320   22.2773 C   0  0  0  0  0  0
  -27.3031  -22.9837   24.1994 C   0  0  0  0  0  0
  -29.9306  -16.5399   20.3402 N   0  0  0  0  0  0
  -29.1138  -19.9242   20.6308 N   0  3  0  0  0  0
  -31.4550  -12.9082   19.1928 H   0  0  0  0  0  0
  -30.4523  -11.8491   20.1278 H   0  0  0  0  0  0
  -29.9015  -11.7219   17.6746 H   0  0  0  0  0  0
  -29.5912  -13.4400   17.6375 H   0  0  0  0  0  0
  -28.0139  -11.2831   19.0576 H   0  0  0  0  0  0
  -27.4080  -12.3786   17.8383 H   0  0  0  0  0  0
  -27.5397  -14.2502   19.3370 H   0  0  0  0  0  0
  -28.8041  -12.5083   21.4987 H   0  0  0  0  0  0
  -28.3055  -14.1746   21.6836 H   0  0  0  0  0  0
  -25.2800   -9.5701   22.4780 H   0  0  0  0  0  0
  -24.0017   -7.4644   22.7499 H   0  0  0  0  0  0
  -21.0847   -8.8827   19.8959 H   0  0  0  0  0  0
  -22.3751  -10.9709   19.6178 H   0  0  0  0  0  0
  -21.2045   -7.6150   23.9727 H   0  0  0  0  0  0
  -21.1468   -6.0503   25.9058 H   0  0  0  0  0  0
  -22.0599   -2.7630   23.2815 H   0  0  0  0  0  0
  -22.3904  -11.9973   22.4947 H   0  0  0  0  0  0
  -21.0966  -13.1323   22.2514 H   0  0  0  0  0  0
  -24.6248  -15.8448   20.4958 H   0  0  0  0  0  0
  -26.2193  -15.6145   19.9838 H   0  0  0  0  0  0
  -26.7361  -32.5153   23.0926 H   0  0  0  0  0  0
  -25.0070  -33.9506   25.0224 H   0  0  0  0  0  0
  -22.7809  -31.2713   21.3540 H   0  0  0  0  0  0
  -23.3756  -35.9562   23.3273 H   0  0  0  0  0  0
  -24.3586  -36.8905   22.2065 H   0  0  0  0  0  0
  -23.7278  -37.6408   23.6727 H   0  0  0  0  0  0
  -26.2145  -31.3966   20.6221 H   0  0  0  0  0  0
  -26.8997  -30.7064   22.0534 H   0  0  0  0  0  0
  -28.1528  -28.6440   21.2652 H   0  0  0  0  0  0
  -25.8866  -25.7699   18.9960 H   0  0  0  0  0  0
  -23.9968  -27.2790   18.9587 H   0  0  0  0  0  0
  -23.8617  -30.5291   19.3874 H   0  0  0  0  0  0
  -22.8202  -29.2078   19.8329 H   0  0  0  0  0  0
  -25.1336  -36.1757   25.0781 H   0  0  0  0  0  0
  -21.0032  -28.3317   24.1307 H   0  0  0  0  0  0
  -20.5635  -26.2335   23.3618 H   0  0  0  0  0  0
  -21.6653  -26.7346   22.1217 H   0  0  0  0  0  0
  -19.6910  -25.6252   21.1257 H   0  0  0  0  0  0
  -19.6713  -27.3134   20.6695 H   0  0  0  0  0  0
  -17.4203  -26.6644   21.4025 H   0  0  0  0  0  0
  -18.0366  -26.0085   22.9034 H   0  0  0  0  0  0
  -19.7963  -30.7309   24.2175 H   0  0  0  0  0  0
  -17.5025  -31.6255   24.5150 H   0  0  0  0  0  0
  -15.5368  -30.2932   23.7695 H   0  0  0  0  0  0
  -15.8701  -28.0779   22.7089 H   0  0  0  0  0  0
  -24.5858  -30.7159   25.7704 H   0  0  0  0  0  0
  -24.8911  -32.2986   26.4750 H   0  0  0  0  0  0
  -25.7934  -30.8977   27.0213 H   0  0  0  0  0  0
  -26.3075  -29.6588   24.1421 H   0  0  0  0  0  0
  -27.3931  -29.7254   25.5104 H   0  0  0  0  0  0
  -27.9050  -30.4074   23.9860 H   0  0  0  0  0  0
  -27.2603  -33.3672   26.2015 H   0  0  0  0  0  0
  -28.3907  -32.6871   25.0380 H   0  0  0  0  0  0
  -28.0674  -31.8527   26.5514 H   0  0  0  0  0  0
  -28.2552  -38.0095   24.7494 H   0  0  0  0  0  0
  -28.1104  -36.2612   24.6283 H   0  0  0  0  0  0
  -27.2284  -37.1405   25.8859 H   0  0  0  0  0  0
  -20.9557  -29.8765   21.6721 H   0  0  0  0  0  0
  -26.0127  -38.2746   24.1400 H   0  0  0  0  0  0
  -29.0036  -22.8594   19.0935 H   0  0  0  0  0  0
  -28.9329  -21.5653   22.8689 H   0  0  0  0  0  0
  -27.4570  -20.7623   22.4583 H   0  0  0  0  0  0
  -27.1647  -25.0721   22.4571 H   0  0  0  0  0  0
  -28.7773  -24.4255   22.4909 H   0  0  0  0  0  0
  -31.4956  -17.8907   20.7494 H   0  0  0  0  0  0
  -31.3196  -17.5293   19.0734 H   0  0  0  0  0  0
  -27.8645  -16.4854   20.7354 H   0  0  0  0  0  0
  -28.8285  -17.0540   22.0451 H   0  0  0  0  0  0
  -29.7221  -19.3677   18.6876 H   0  0  0  0  0  0
  -30.9934  -20.0330   19.6463 H   0  0  0  0  0  0
  -27.3772  -18.9186   21.4228 H   0  0  0  0  0  0
  -27.6254  -18.7130   19.7409 H   0  0  0  0  0  0
  -26.8615  -24.2116   20.1638 H   0  0  0  0  0  0
  -25.5979  -22.6149   21.2034 H   0  0  0  0  0  0
  -25.1512  -23.5934   22.5963 H   0  0  0  0  0  0
  -25.3057  -21.8527   22.7532 H   0  0  0  0  0  0
  -28.3332  -23.0993   24.5432 H   0  0  0  0  0  0
  -26.9069  -22.0813   24.6674 H   0  0  0  0  0  0
  -26.7384  -23.8297   24.5931 H   0  0  0  0  0  0
  -29.6085  -19.7973   21.5013 H   0  0  0  0  0  0
  1 25  1  0  0  0
  1 30  2  0  0  0
  1 83  1  0  0  0
  2  3  1  0  0  0
  2 25  1  0  0  0
  2 85  1  0  0  0
  2 86  1  0  0  0
  3  4  1  0  0  0
  3 87  1  0  0  0
  3 88  1  0  0  0
  4  5  1  0  0  0
  4 89  1  0  0  0
  4 90  1  0  0  0
  5  6  1  0  0  0
  5 26  1  0  0  0
  5 91  1  0  0  0
  6 25  1  0  0  0
  6 92  1  0  0  0
  6 93  1  0  0  0
  7  8  2  0  0  0
  7 26  1  0  0  0
  7 29  1  0  0  0
  8  9  1  0  0  0
  8 22  1  0  0  0
  9 10  1  0  0  0
  9 27  2  0  0  0
 10 11  2  0  0  0
 10 15  1  0  0  0
 11 12  1  0  0  0
 11 94  1  0  0  0
 12 13  2  0  0  0
 12 95  1  0  0  0
 13 14  1  0  0  0
 13 31  1  0  0  0
 14 15  2  0  0  0
 14 96  1  0  0  0
 15 97  1  0  0  0
 16 17  2  0  0  0
 16 21  1  0  0  0
 16 31  1  0  0  0
 17 18  1  0  0  0
 17 98  1  0  0  0
 18 19  2  0  0  0
 18 99  1  0  0  0
 19 20  1  0  0  0
 19 24  1  0  0  0
 20 21  2  0  0  0
 20100  1  0  0  0
 21 23  1  0  0  0
 22 28  1  0  0  0
 22 32  2  0  0  0
 26 27  1  0  0  0
 28101  1  0  0  0
 28102  1  0  0  0
 29103  1  0  0  0
 29104  1  0  0  0
 33 34  1  0  0  0
 33 66  1  0  0  0
 33 70  2  0  0  0
 34 36  1  0  0  0
 34 59  1  0  0  0
 34105  1  0  0  0
 35 44  2  0  0  0
 35 45  1  0  0  0
 35 68  1  0  0  0
 36 56  1  0  0  0
 36106  1  0  0  0
 37 39  1  0  0  0
 37 47  1  0  0  0
 37 66  1  0  0  0
 37107  1  0  0  0
 38 43  2  0  0  0
 38 46  1  0  0  0
 38 47  1  0  0  0
 39 64  1  0  0  0
 39 67  2  0  0  0
 40 52  1  0  0  0
 40 53  2  0  0  0
 40 58  1  0  0  0
 41108  1  0  0  0
 41109  1  0  0  0
 41110  1  0  0  0
 41 48  1  0  0  0
 42 43  1  0  0  0
 42 66  1  0  0  0
 42111  1  0  0  0
 42112  1  0  0  0
 43 44  1  0  0  0
 44113  1  0  0  0
 45 46  2  0  0  0
 45114  1  0  0  0
 46115  1  0  0  0
 47116  1  0  0  0
 47117  1  0  0  0
 48 56  1  0  0  0
 48 65  1  0  0  0
 48118  1  0  0  0
 49 50  1  0  0  0
 49 53  1  0  0  0
 49 64  1  0  0  0
 49119  1  0  0  0
 50 51  1  0  0  0
 50120  1  0  0  0
 50121  1  0  0  0
 51 52  1  0  0  0
 51122  1  0  0  0
 51123  1  0  0  0
 52124  1  0  0  0
 52125  1  0  0  0
 53 54  1  0  0  0
 54 55  2  0  0  0
 54126  1  0  0  0
 55 57  1  0  0  0
 55127  1  0  0  0
 56 69  2  0  0  0
 57 58  2  0  0  0
 57128  1  0  0  0
 58129  1  0  0  0
 59 60  1  0  0  0
 59 61  1  0  0  0
 59 62  1  0  0  0
 60130  1  0  0  0
 60131  1  0  0  0
 60132  1  0  0  0
 61133  1  0  0  0
 61134  1  0  0  0
 61135  1  0  0  0
 62136  1  0  0  0
 62137  1  0  0  0
 62138  1  0  0  0
 63 65  1  0  0  0
 63139  1  0  0  0
 63140  1  0  0  0
 63141  1  0  0  0
 64142  1  0  0  0
 65143  1  0  0  0
 68 79  1  0  0  0
 71 72  2  0  0  0
 71 79  1  0  0  0
 71144  1  0  0  0
 72 73  1  0  0  0
 72 84  1  0  0  0
 73 80  1  0  0  0
 73145  1  0  0  0
 73146  1  0  0  0
 74 79  1  0  0  0
 74 80  1  0  0  0
 74147  1  0  0  0
 74148  1  0  0  0
 75 77  1  0  0  0
 75 83  1  0  0  0
 75149  1  0  0  0
 75150  1  0  0  0
 76 78  1  0  0  0
 76 83  1  0  0  0
 76151  1  0  0  0
 76152  1  0  0  0
 77 84  1  0  0  0
 77153  1  0  0  0
 77154  1  0  0  0
 78 84  1  0  0  0
 78155  1  0  0  0
 78156  1  0  0  0
 79157  1  0  0  0
 80 81  1  0  0  0
 80 82  1  0  0  0
 81158  1  0  0  0
 81159  1  0  0  0
 81160  1  0  0  0
 82161  1  0  0  0
 82162  1  0  0  0
 82163  1  0  0  0
 84164  1  0  0  0
M  CHG  1  84   1
M  ISO  4   1 100  68 101  79 101  83 100
M  END
> <chiral flag>
0

> <version>
0

> <s_m_source_file>
/data/baiqing/PycharmProjects/Reinvent-master-3.2/result/LINK_invent/BTK/process_docking_weight1_custom_sum_contain_oxygen_bond_distance_aromatic_linkinvent_7_9_3/rearranged_h_0177.sdf

> <i_m_source_file_index>
96

> <r_mmod_Potential_Energy-OPLS-2005>
1178.1728515625

> <r_mmod_Stretch_Energy-OPLS-2005>
460.265747070312

> <r_mmod_Bend_Energy-OPLS-2005>
471.935394287109

> <r_mmod_Torsional_Energy-OPLS-2005>
376.588562011719

> <r_mmod_Improper_Torsional_Energy-OPLS-2005>
10.4334001541138

> <r_mmod_Van_der_Waal_Energy-OPLS-2005>
120.421981811523

> <r_mmod_Electrostatic_Energy-OPLS-2005>
-194.673873901367

> <r_mmod_Solvation_Energy-OPLS-2005>
-443.463806152344

> <b_mmod_Minimization_Converged-OPLS-2005>
0

> <r_mmod_RMS_Derivative-OPLS-2005>
3.62261962890625

$$$$
