0
                    3D
 Structure written by MMmdl.
160169  0  0  1  0            999 V2000
  -30.4376  -15.3751   20.3564 C   0  0  0  0  0  0
  -30.4214  -12.8866   19.5436 C   0  0  0  0  0  0
  -29.5364  -12.6014   18.3044 C   0  0  0  0  0  0
  -28.0926  -12.3010   18.7349 C   0  0  0  0  0  0
  -27.6031  -13.2910   19.8206 C   0  0  2  0  0  0
  -28.6272  -13.5323   20.9525 C   0  0  0  0  0  0
  -25.2348  -13.8275   20.5786 C   0  0  0  0  0  0
  -24.1712  -13.0442   20.9270 C   0  0  0  0  0  0
  -24.6384  -11.6945   20.8752 C   0  0  0  0  0  0
  -23.9086  -10.4297   21.0390 C   0  0  0  0  0  0
  -24.3633   -9.4214   21.9173 C   0  0  0  0  0  0
  -23.6307   -8.2246   22.0742 C   0  0  0  0  0  0
  -22.4290   -8.0277   21.3531 C   0  0  0  0  0  0
  -21.9923   -9.0253   20.4639 C   0  0  0  0  0  0
  -22.7250  -10.2132   20.3047 C   0  0  0  0  0  0
  -21.6857   -6.0731   22.5274 C   0  0  0  0  0  0
  -21.4015   -6.5638   23.8211 C   0  0  0  0  0  0
  -21.3664   -5.6790   24.9174 C   0  0  0  0  0  0
  -21.6049   -4.3055   24.7217 C   0  0  0  0  0  0
  -21.8817   -3.8139   23.4342 C   0  0  0  0  0  0
  -21.9193   -4.6957   22.3400 C   0  0  0  0  0  0
  -22.7735  -13.5190   21.1912 C   0  0  0  0  0  0
  -22.1660   -4.2146   21.0982 F   0  0  0  0  0  0
  -21.5634   -3.4538   25.7729 F   0  0  0  0  0  0
  -29.8477  -14.0635   20.3187 N   0  0  0  0  0  0
  -26.2775  -12.9577   20.3233 N   0  0  0  0  0  0
  -25.9328  -11.6663   20.5710 N   0  0  0  0  0  0
  -22.0392  -12.8182   22.0466 N   0  0  0  0  0  0
  -25.4002  -15.2013   20.4266 N   0  0  0  0  0  0
  -31.6509  -15.2933   20.0959 O   0  0  0  0  0  0
  -21.6645   -6.8879   21.4240 O   0  0  0  0  0  0
  -22.3414  -14.5485   20.6742 O   0  0  0  0  0  0
  -24.6696  -31.8160   23.1657 C   0  0  0  0  0  0
  -25.9347  -32.4547   23.8140 C   0  0  1  0  0  0
  -27.2107  -26.8539   20.1860 C   0  0  0  0  0  0
  -25.5994  -33.8368   24.2047 N   0  0  0  0  0  0
  -23.4879  -30.4258   21.5158 C   0  0  2  0  0  0
  -24.9403  -28.8001   20.1094 C   0  0  0  0  0  0
  -22.7702  -29.4403   22.4757 C   0  0  0  0  0  0
  -18.0327  -28.1410   22.8466 C   0  0  0  0  0  0
  -24.1496  -36.7185   23.2650 C   0  0  0  0  0  0
  -26.0610  -30.5959   21.4080 C   0  0  0  0  0  0
  -26.1254  -29.1790   20.7518 C   0  0  0  0  0  0
  -27.2516  -28.2266   20.7682 C   0  0  0  0  0  0
  -26.0017  -26.6513   19.4818 C   0  0  0  0  0  0
  -24.9081  -27.5591   19.4528 C   0  0  0  0  0  0
  -23.7311  -29.7388   20.1431 C   0  0  0  0  0  0
  -25.4141  -36.2941   24.0295 C   0  0  1  0  0  0
  -20.5961  -28.3760   23.1171 C   0  0  2  0  0  0
  -20.6803  -26.9433   22.5402 C   0  0  0  0  0  0
  -19.5776  -26.6373   21.5218 C   0  0  0  0  0  0
  -18.1958  -26.7944   22.1626 C   0  0  0  0  0  0
  -19.1591  -28.8907   23.2803 C   0  0  0  0  0  0
  -18.9498  -30.1493   23.8841 C   0  0  0  0  0  0
  -17.6491  -30.6600   24.0550 C   0  0  0  0  0  0
  -25.9108  -34.9325   23.4993 C   0  0  0  0  0  0
  -16.5380  -29.9083   23.6343 C   0  0  0  0  0  0
  -16.7308  -28.6502   23.0364 C   0  0  0  0  0  0
  -26.4575  -31.6519   25.0702 C   0  0  0  0  0  0
  -25.3691  -31.3806   26.1356 C   0  0  0  0  0  0
  -27.0475  -30.2870   24.6497 C   0  0  0  0  0  0
  -27.6060  -32.4342   25.7505 C   0  0  0  0  0  0
  -27.5564  -37.1760   24.8475 C   0  0  0  0  0  0
  -21.4363  -29.3035   22.3504 N   0  0  0  0  0  0
  -26.4283  -37.3681   23.9397 N   0  0  0  0  0  0
  -24.7621  -30.9752   22.0830 N   0  0  0  0  0  0
  -23.4218  -28.7973   23.3027 O   0  0  0  0  0  0
  -28.1742  -25.6942   20.2986 O   0  0  0  0  0  0
  -26.5725  -34.8871   22.4591 O   0  0  0  0  0  0
  -23.5746  -32.1169   23.6703 O   0  0  0  0  0  0
  -28.6707  -21.0964   19.7755 C   0  0  0  0  0  0
  -29.1490  -19.7426   20.3656 C   0  0  0  0  0  0
  -28.6258  -22.5018   20.4299 C   0  0  0  0  0  0
  -29.5420  -19.9206   21.6868 C   0  0  0  0  0  0
  -29.1321  -22.3304   21.7466 C   0  0  0  0  0  0
  -29.8987  -18.6577   22.5000 C   0  0  0  0  0  0
  -30.5783  -17.4423   21.7453 C   0  0  0  0  0  0
  -29.2592  -18.0759   19.8329 C   0  0  1  0  0  0
  -29.2005  -23.5297   22.6696 C   0  0  0  0  0  0
  -29.3241  -18.7425   16.1865 C   0  0  0  0  0  0
  -27.9414  -24.0732   19.9148 C   0  0  0  0  0  0
  -29.7919  -18.0254   18.3906 C   0  0  0  0  0  0
  -29.5460  -21.1412   22.3152 N   0  0  0  0  0  0
  -29.8312  -16.7389   20.6581 N   0  0  0  0  0  0
  -28.9447  -18.8006   17.5531 O   0  0  0  0  0  0
  -31.4417  -13.0761   19.2085 H   0  0  0  0  0  0
  -30.4926  -12.0005   20.1772 H   0  0  0  0  0  0
  -29.9428  -11.7689   17.7285 H   0  0  0  0  0  0
  -29.5481  -13.4681   17.6422 H   0  0  0  0  0  0
  -28.0732  -11.2871   19.1344 H   0  0  0  0  0  0
  -27.4219  -12.3032   17.8748 H   0  0  0  0  0  0
  -27.4987  -14.2416   19.2959 H   0  0  0  0  0  0
  -28.8200  -12.6234   21.5248 H   0  0  0  0  0  0
  -28.2415  -14.2683   21.6589 H   0  0  0  0  0  0
  -25.2774   -9.5708   22.4753 H   0  0  0  0  0  0
  -24.0020   -7.4641   22.7471 H   0  0  0  0  0  0
  -21.0845   -8.8771   19.8954 H   0  0  0  0  0  0
  -22.3693  -10.9670   19.6163 H   0  0  0  0  0  0
  -21.2007   -7.6137   23.9713 H   0  0  0  0  0  0
  -21.1494   -6.0516   25.9083 H   0  0  0  0  0  0
  -22.0594   -2.7597   23.2835 H   0  0  0  0  0  0
  -22.4021  -11.9861   22.4875 H   0  0  0  0  0  0
  -21.0995  -13.1186   22.2646 H   0  0  0  0  0  0
  -24.6351  -15.8556   20.5532 H   0  0  0  0  0  0
  -26.2558  -15.6466   20.1224 H   0  0  0  0  0  0
  -26.7420  -32.5057   23.0852 H   0  0  0  0  0  0
  -25.0088  -33.9431   25.0163 H   0  0  0  0  0  0
  -22.8049  -31.2602   21.3416 H   0  0  0  0  0  0
  -23.3759  -35.9518   23.3322 H   0  0  0  0  0  0
  -24.3557  -36.8818   22.2062 H   0  0  0  0  0  0
  -23.7265  -37.6380   23.6699 H   0  0  0  0  0  0
  -26.2534  -31.3329   20.6270 H   0  0  0  0  0  0
  -26.9164  -30.6531   22.0690 H   0  0  0  0  0  0
  -28.1407  -28.5114   21.3126 H   0  0  0  0  0  0
  -25.8578  -25.7065   18.9780 H   0  0  0  0  0  0
  -24.0100  -27.2648   18.9267 H   0  0  0  0  0  0
  -23.8944  -30.5079   19.3867 H   0  0  0  0  0  0
  -22.8384  -29.1991   19.8221 H   0  0  0  0  0  0
  -25.1352  -36.1735   25.0789 H   0  0  0  0  0  0
  -21.0046  -28.3371   24.1295 H   0  0  0  0  0  0
  -20.5681  -26.2382   23.3648 H   0  0  0  0  0  0
  -21.6658  -26.7399   22.1206 H   0  0  0  0  0  0
  -19.6931  -25.6271   21.1281 H   0  0  0  0  0  0
  -19.6715  -27.3153   20.6724 H   0  0  0  0  0  0
  -17.4227  -26.6677   21.4028 H   0  0  0  0  0  0
  -18.0350  -26.0103   22.9034 H   0  0  0  0  0  0
  -19.7975  -30.7321   24.2186 H   0  0  0  0  0  0
  -17.5044  -31.6276   24.5156 H   0  0  0  0  0  0
  -15.5375  -30.2963   23.7710 H   0  0  0  0  0  0
  -15.8708  -28.0801   22.7112 H   0  0  0  0  0  0
  -24.5852  -30.7186   25.7660 H   0  0  0  0  0  0
  -24.8912  -32.3026   26.4678 H   0  0  0  0  0  0
  -25.7904  -30.9021   27.0206 H   0  0  0  0  0  0
  -26.3153  -29.6529   24.1485 H   0  0  0  0  0  0
  -27.3943  -29.7260   25.5187 H   0  0  0  0  0  0
  -27.9128  -30.4017   23.9969 H   0  0  0  0  0  0
  -27.2620  -33.3682   26.1955 H   0  0  0  0  0  0
  -28.3938  -32.6836   25.0388 H   0  0  0  0  0  0
  -28.0658  -31.8557   26.5526 H   0  0  0  0  0  0
  -28.2598  -38.0035   24.7459 H   0  0  0  0  0  0
  -28.1038  -36.2558   24.6386 H   0  0  0  0  0  0
  -27.2265  -37.1507   25.8873 H   0  0  0  0  0  0
  -20.9631  -29.8715   21.6617 H   0  0  0  0  0  0
  -26.0131  -38.2746   24.1362 H   0  0  0  0  0  0
  -28.2873  -21.0501   18.7670 H   0  0  0  0  0  0
  -28.9852  -18.3068   22.9820 H   0  0  0  0  0  0
  -30.5587  -18.9651   23.3128 H   0  0  0  0  0  0
  -30.8477  -16.7069   22.5053 H   0  0  0  0  0  0
  -31.5253  -17.7901   21.3286 H   0  0  0  0  0  0
  -28.2045  -17.8100   19.7470 H   0  0  0  0  0  0
  -29.6991  -24.3637   22.1754 H   0  0  0  0  0  0
  -29.7523  -23.3070   23.5832 H   0  0  0  0  0  0
  -28.1962  -23.8495   22.9484 H   0  0  0  0  0  0
  -28.6203  -19.3184   15.5857 H   0  0  0  0  0  0
  -29.3183  -17.7181   15.8104 H   0  0  0  0  0  0
  -30.3180  -19.1644   16.0325 H   0  0  0  0  0  0
  -26.8767  -23.9235   20.0937 H   0  0  0  0  0  0
  -28.0267  -24.0485   18.8284 H   0  0  0  0  0  0
  -29.8127  -16.9955   18.0298 H   0  0  0  0  0  0
  -30.8135  -18.4073   18.3512 H   0  0  0  0  0  0
  1 25  1  0  0  0
  1 30  2  0  0  0
  1 84  1  0  0  0
  2  3  1  0  0  0
  2 25  1  0  0  0
  2 86  1  0  0  0
  2 87  1  0  0  0
  3  4  1  0  0  0
  3 88  1  0  0  0
  3 89  1  0  0  0
  4  5  1  0  0  0
  4 90  1  0  0  0
  4 91  1  0  0  0
  5  6  1  0  0  0
  5 26  1  0  0  0
  5 92  1  0  0  0
  6 25  1  0  0  0
  6 93  1  0  0  0
  6 94  1  0  0  0
  7  8  2  0  0  0
  7 26  1  0  0  0
  7 29  1  0  0  0
  8  9  1  0  0  0
  8 22  1  0  0  0
  9 10  1  0  0  0
  9 27  2  0  0  0
 10 11  2  0  0  0
 10 15  1  0  0  0
 11 12  1  0  0  0
 11 95  1  0  0  0
 12 13  2  0  0  0
 12 96  1  0  0  0
 13 14  1  0  0  0
 13 31  1  0  0  0
 14 15  2  0  0  0
 14 97  1  0  0  0
 15 98  1  0  0  0
 16 17  2  0  0  0
 16 21  1  0  0  0
 16 31  1  0  0  0
 17 18  1  0  0  0
 17 99  1  0  0  0
 18 19  2  0  0  0
 18100  1  0  0  0
 19 20  1  0  0  0
 19 24  1  0  0  0
 20 21  2  0  0  0
 20101  1  0  0  0
 21 23  1  0  0  0
 22 28  1  0  0  0
 22 32  2  0  0  0
 26 27  1  0  0  0
 28102  1  0  0  0
 28103  1  0  0  0
 29104  1  0  0  0
 29105  1  0  0  0
 33 34  1  0  0  0
 33 66  1  0  0  0
 33 70  2  0  0  0
 34 36  1  0  0  0
 34 59  1  0  0  0
 34106  1  0  0  0
 35 44  2  0  0  0
 35 45  1  0  0  0
 35 68  1  0  0  0
 36 56  1  0  0  0
 36107  1  0  0  0
 37 39  1  0  0  0
 37 47  1  0  0  0
 37 66  1  0  0  0
 37108  1  0  0  0
 38 43  2  0  0  0
 38 46  1  0  0  0
 38 47  1  0  0  0
 39 64  1  0  0  0
 39 67  2  0  0  0
 40 52  1  0  0  0
 40 53  2  0  0  0
 40 58  1  0  0  0
 41109  1  0  0  0
 41110  1  0  0  0
 41111  1  0  0  0
 41 48  1  0  0  0
 42 43  1  0  0  0
 42 66  1  0  0  0
 42112  1  0  0  0
 42113  1  0  0  0
 43 44  1  0  0  0
 44114  1  0  0  0
 45 46  2  0  0  0
 45115  1  0  0  0
 46116  1  0  0  0
 47117  1  0  0  0
 47118  1  0  0  0
 48 56  1  0  0  0
 48 65  1  0  0  0
 48119  1  0  0  0
 49 50  1  0  0  0
 49 53  1  0  0  0
 49 64  1  0  0  0
 49120  1  0  0  0
 50 51  1  0  0  0
 50121  1  0  0  0
 50122  1  0  0  0
 51 52  1  0  0  0
 51123  1  0  0  0
 51124  1  0  0  0
 52125  1  0  0  0
 52126  1  0  0  0
 53 54  1  0  0  0
 54 55  2  0  0  0
 54127  1  0  0  0
 55 57  1  0  0  0
 55128  1  0  0  0
 56 69  2  0  0  0
 57 58  2  0  0  0
 57129  1  0  0  0
 58130  1  0  0  0
 59 60  1  0  0  0
 59 61  1  0  0  0
 59 62  1  0  0  0
 60131  1  0  0  0
 60132  1  0  0  0
 60133  1  0  0  0
 61134  1  0  0  0
 61135  1  0  0  0
 61136  1  0  0  0
 62137  1  0  0  0
 62138  1  0  0  0
 62139  1  0  0  0
 63 65  1  0  0  0
 63140  1  0  0  0
 63141  1  0  0  0
 63142  1  0  0  0
 64143  1  0  0  0
 65144  1  0  0  0
 68 81  1  0  0  0
 71 72  2  0  0  0
 71 73  1  0  0  0
 71145  1  0  0  0
 72 74  1  0  0  0
 72 78  1  0  0  0
 73 75  2  0  0  0
 73 81  1  0  0  0
 74 76  1  0  0  0
 74 83  2  0  0  0
 75 79  1  0  0  0
 75 83  1  0  0  0
 76 77  1  0  0  0
 76146  1  0  0  0
 76147  1  0  0  0
 77 84  1  0  0  0
 77148  1  0  0  0
 77149  1  0  0  0
 78 82  1  0  0  0
 78 84  1  0  0  0
 78150  1  0  0  0
 79151  1  0  0  0
 79152  1  0  0  0
 79153  1  0  0  0
 80 85  1  0  0  0
 80154  1  0  0  0
 80155  1  0  0  0
 80156  1  0  0  0
 81157  1  0  0  0
 81158  1  0  0  0
 82 85  1  0  0  0
 82159  1  0  0  0
 82160  1  0  0  0
M  ISO  4   1 100  68 101  81 101  84 100
M  END
> <chiral flag>
0

> <version>
0

> <s_m_source_file>
/data/baiqing/PycharmProjects/Reinvent-master-3.2/result/LINK_invent/BTK/process_docking_weight1_custom_sum_contain_oxygen_bond_distance_aromatic_linkinvent_7_9_3/rearranged_h_0180.sdf

> <i_m_source_file_index>
1

> <r_mmod_Potential_Energy-OPLS-2005>
1508.73278808594

> <r_mmod_Stretch_Energy-OPLS-2005>
666.675231933594

> <r_mmod_Bend_Energy-OPLS-2005>
482.433929443359

> <r_mmod_Torsional_Energy-OPLS-2005>
302.673431396484

> <r_mmod_Improper_Torsional_Energy-OPLS-2005>
6.74256944656372

> <r_mmod_Van_der_Waal_Energy-OPLS-2005>
128.719863891602

> <r_mmod_Electrostatic_Energy-OPLS-2005>
-441.400299072266

> <r_mmod_Solvation_Energy-OPLS-2005>
-214.890487670898

> <b_mmod_Minimization_Converged-OPLS-2005>
0

> <r_mmod_RMS_Derivative-OPLS-2005>
1.57780230045319

$$$$
1
                    3D
 Structure written by MMmdl.
163171  0  0  1  0            999 V2000
  -30.7043  -14.4180   20.7300 C   0  0  0  0  0  0
  -30.4386  -12.3471   19.3771 C   0  0  0  0  0  0
  -29.4821  -12.5810   18.1853 C   0  0  0  0  0  0
  -28.0071  -12.4150   18.6005 C   0  0  0  0  0  0
  -27.6681  -13.2071   19.8896 C   0  0  2  0  0  0
  -28.7073  -12.8947   20.9870 C   0  0  0  0  0  0
  -25.2602  -13.8132   20.5650 C   0  0  0  0  0  0
  -24.1839  -13.0415   20.9149 C   0  0  0  0  0  0
  -24.6393  -11.6876   20.8702 C   0  0  0  0  0  0
  -23.9076  -10.4274   21.0390 C   0  0  0  0  0  0
  -24.3624   -9.4192   21.9176 C   0  0  0  0  0  0
  -23.6281   -8.2242   22.0767 C   0  0  0  0  0  0
  -22.4262   -8.0284   21.3564 C   0  0  0  0  0  0
  -21.9907   -9.0262   20.4657 C   0  0  0  0  0  0
  -22.7250  -10.2129   20.3047 C   0  0  0  0  0  0
  -21.6863   -6.0737   22.5279 C   0  0  0  0  0  0
  -21.4013   -6.5637   23.8204 C   0  0  0  0  0  0
  -21.3665   -5.6799   24.9169 C   0  0  0  0  0  0
  -21.6043   -4.3064   24.7225 C   0  0  0  0  0  0
  -21.8828   -3.8153   23.4353 C   0  0  0  0  0  0
  -21.9187   -4.6967   22.3398 C   0  0  0  0  0  0
  -22.7857  -13.5231   21.1788 C   0  0  0  0  0  0
  -22.1661   -4.2154   21.0980 F   0  0  0  0  0  0
  -21.5628   -3.4539   25.7734 F   0  0  0  0  0  0
  -30.0492  -13.2482   20.4768 N   0  0  0  0  0  0
  -26.3070  -12.9316   20.3424 N   0  0  0  0  0  0
  -25.9319  -11.6468   20.5754 N   0  0  0  0  0  0
  -22.0526  -12.8234   22.0377 N   0  0  0  0  0  0
  -25.4321  -15.1853   20.4032 N   0  0  0  0  0  0
  -31.7271  -14.7579   20.1265 O   0  0  0  0  0  0
  -21.6651   -6.8873   21.4240 O   0  0  0  0  0  0
  -22.3538  -14.5555   20.6680 O   0  0  0  0  0  0
  -24.6138  -31.8692   23.2143 C   0  0  0  0  0  0
  -25.9025  -32.4829   23.8408 C   0  0  1  0  0  0
  -27.2120  -27.4219   20.0856 C   0  0  0  0  0  0
  -25.5894  -33.8638   24.2352 N   0  0  0  0  0  0
  -23.3985  -30.5006   21.5550 C   0  0  2  0  0  0
  -24.8369  -28.9703   20.1075 C   0  0  0  0  0  0
  -22.7402  -29.4661   22.4972 C   0  0  0  0  0  0
  -18.0285  -28.1392   22.8482 C   0  0  0  0  0  0
  -24.1466  -36.7299   23.2642 C   0  0  0  0  0  0
  -25.9305  -30.8274   21.3681 C   0  0  0  0  0  0
  -25.9995  -29.4623   20.7116 C   0  0  0  0  0  0
  -27.1855  -28.6937   20.7046 C   0  0  0  0  0  0
  -26.0339  -26.9631   19.4464 C   0  0  0  0  0  0
  -24.8510  -27.7215   19.4682 C   0  0  0  0  0  0
  -23.6010  -29.8421   20.1650 C   0  0  0  0  0  0
  -25.4094  -36.3150   24.0356 C   0  0  1  0  0  0
  -20.5858  -28.3652   23.1319 C   0  0  2  0  0  0
  -20.6766  -26.9398   22.5409 C   0  0  0  0  0  0
  -19.5748  -26.6401   21.5209 C   0  0  0  0  0  0
  -18.1919  -26.7940   22.1624 C   0  0  0  0  0  0
  -19.1528  -28.8840   23.2890 C   0  0  0  0  0  0
  -18.9470  -30.1440   23.8899 C   0  0  0  0  0  0
  -17.6478  -30.6596   24.0562 C   0  0  0  0  0  0
  -25.9032  -34.9493   23.5153 C   0  0  0  0  0  0
  -16.5362  -29.9103   23.6335 C   0  0  0  0  0  0
  -16.7265  -28.6527   23.0331 C   0  0  0  0  0  0
  -26.4464  -31.6607   25.0733 C   0  0  0  0  0  0
  -25.3724  -31.3696   26.1482 C   0  0  0  0  0  0
  -27.0289  -30.3068   24.6087 C   0  0  0  0  0  0
  -27.6055  -32.4318   25.7473 C   0  0  0  0  0  0
  -27.5581  -37.1806   24.8488 C   0  0  0  0  0  0
  -21.4144  -29.3016   22.3717 N   0  0  0  0  0  0
  -26.4295  -37.3822   23.9433 N   0  0  0  0  0  0
  -24.6665  -31.0785   22.1041 N   0  0  0  0  0  0
  -23.4189  -28.8198   23.2992 O   0  0  0  0  0  0
  -28.3791  -26.6833   20.1353 O   0  0  0  0  0  0
  -26.5609  -34.8952   22.4730 O   0  0  0  0  0  0
  -23.5330  -32.1463   23.7525 O   0  0  0  0  0  0
  -29.2653  -18.2167   23.3603 C   0  0  0  0  0  0
  -30.8403  -17.4953   21.2941 C   0  0  0  0  0  0
  -30.0199  -19.1831   22.6585 C   0  0  0  0  0  0
  -30.1193  -16.5105   22.0319 C   0  0  0  0  0  0
  -31.4604  -21.1168   23.4776 C   0  0  0  0  0  0
  -30.7164  -25.0431   20.6556 C   0  0  0  0  0  0
  -29.2752  -21.6521   22.2407 C   0  0  0  0  0  0
  -29.3042  -22.9654   20.1036 C   0  0  0  0  0  0
  -28.3302  -25.2870   19.7897 C   0  0  0  0  0  0
  -30.0394  -20.6437   23.1280 C   0  0  1  0  0  0
  -29.3045  -24.4315   20.6347 C   0  0  2  0  0  0
  -30.7884  -18.8244   21.5952 N   0  0  0  0  0  0
  -29.3158  -16.9011   23.0511 N   0  0  0  0  0  0
  -30.1748  -15.1143   21.7576 N   0  0  0  0  0  0
  -29.9720  -21.9642   20.9737 N   0  3  0  0  0  0
  -31.4682  -12.5103   19.0577 H   0  0  0  0  0  0
  -30.3942  -11.3081   19.7090 H   0  0  0  0  0  0
  -29.7219  -11.9000   17.3655 H   0  0  0  0  0  0
  -29.6295  -13.5925   17.7957 H   0  0  0  0  0  0
  -27.8062  -11.3516   18.7367 H   0  0  0  0  0  0
  -27.3554  -12.7418   17.7893 H   0  0  0  0  0  0
  -27.7342  -14.2698   19.6573 H   0  0  0  0  0  0
  -28.6882  -11.8275   21.2185 H   0  0  0  0  0  0
  -28.4386  -13.3857   21.9224 H   0  0  0  0  0  0
  -25.2777   -9.5670   22.4738 H   0  0  0  0  0  0
  -24.0003   -7.4648   22.7479 H   0  0  0  0  0  0
  -21.0843   -8.8773   19.8956 H   0  0  0  0  0  0
  -22.3719  -10.9660   19.6147 H   0  0  0  0  0  0
  -21.2021   -7.6143   23.9707 H   0  0  0  0  0  0
  -21.1470   -6.0529   25.9073 H   0  0  0  0  0  0
  -22.0602   -2.7613   23.2843 H   0  0  0  0  0  0
  -22.4172  -11.9868   22.4718 H   0  0  0  0  0  0
  -21.1157  -13.1243   22.2620 H   0  0  0  0  0  0
  -24.6644  -15.8402   20.5030 H   0  0  0  0  0  0
  -26.2930  -15.6265   20.1056 H   0  0  0  0  0  0
  -26.7077  -32.5536   23.1142 H   0  0  0  0  0  0
  -25.0067  -33.9800   25.0515 H   0  0  0  0  0  0
  -22.6872  -31.3190   21.4227 H   0  0  0  0  0  0
  -23.3762  -35.9604   23.3356 H   0  0  0  0  0  0
  -24.3555  -36.8857   22.2055 H   0  0  0  0  0  0
  -23.7181  -37.6501   23.6607 H   0  0  0  0  0  0
  -26.0509  -31.5942   20.6004 H   0  0  0  0  0  0
  -26.8168  -30.8749   21.9868 H   0  0  0  0  0  0
  -28.0799  -29.0690   21.1812 H   0  0  0  0  0  0
  -25.9974  -26.0267   18.9116 H   0  0  0  0  0  0
  -23.9630  -27.3474   18.9776 H   0  0  0  0  0  0
  -23.7048  -30.6219   19.4094 H   0  0  0  0  0  0
  -22.7211  -29.2675   19.8677 H   0  0  0  0  0  0
  -25.1263  -36.2026   25.0851 H   0  0  0  0  0  0
  -20.9948  -28.3219   24.1443 H   0  0  0  0  0  0
  -20.5684  -26.2264   23.3587 H   0  0  0  0  0  0
  -21.6632  -26.7468   22.1178 H   0  0  0  0  0  0
  -19.6915  -25.6326   21.1207 H   0  0  0  0  0  0
  -19.6676  -27.3232   20.6759 H   0  0  0  0  0  0
  -17.4181  -26.6667   21.4028 H   0  0  0  0  0  0
  -18.0315  -26.0084   22.9031 H   0  0  0  0  0  0
  -19.7941  -30.7248   24.2246 H   0  0  0  0  0  0
  -17.5049  -31.6269   24.5175 H   0  0  0  0  0  0
  -15.5358  -30.3017   23.7673 H   0  0  0  0  0  0
  -15.8656  -28.0872   22.7025 H   0  0  0  0  0  0
  -24.5901  -30.7047   25.7819 H   0  0  0  0  0  0
  -24.8887  -32.2827   26.4968 H   0  0  0  0  0  0
  -25.8077  -30.8849   27.0222 H   0  0  0  0  0  0
  -26.2837  -29.6845   24.1137 H   0  0  0  0  0  0
  -27.4096  -29.7307   25.4518 H   0  0  0  0  0  0
  -27.8645  -30.4445   23.9228 H   0  0  0  0  0  0
  -27.2709  -33.3618   26.2084 H   0  0  0  0  0  0
  -28.3821  -32.6877   25.0254 H   0  0  0  0  0  0
  -28.0755  -31.8410   26.5347 H   0  0  0  0  0  0
  -28.2628  -38.0078   24.7561 H   0  0  0  0  0  0
  -28.1051  -36.2628   24.6287 H   0  0  0  0  0  0
  -27.2301  -37.1421   25.8889 H   0  0  0  0  0  0
  -20.9313  -29.8753   21.6938 H   0  0  0  0  0  0
  -26.0212  -38.2902   24.1456 H   0  0  0  0  0  0
  -28.6354  -18.4963   24.1958 H   0  0  0  0  0  0
  -31.4864  -17.2308   20.4706 H   0  0  0  0  0  0
  -32.1387  -21.0420   22.6280 H   0  0  0  0  0  0
  -31.8760  -20.5028   24.2765 H   0  0  0  0  0  0
  -31.4664  -22.1544   23.8136 H   0  0  0  0  0  0
  -31.4116  -24.4497   21.2519 H   0  0  0  0  0  0
  -30.6932  -26.0411   21.0958 H   0  0  0  0  0  0
  -31.1233  -25.1381   19.6471 H   0  0  0  0  0  0
  -29.1454  -22.5717   22.8104 H   0  0  0  0  0  0
  -28.2711  -21.2816   22.0369 H   0  0  0  0  0  0
  -29.8073  -22.9451   19.1353 H   0  0  0  0  0  0
  -28.2834  -22.6260   19.9182 H   0  0  0  0  0  0
  -27.3462  -24.8452   19.9604 H   0  0  0  0  0  0
  -28.5508  -25.1835   18.7259 H   0  0  0  0  0  0
  -29.5066  -20.6481   24.0824 H   0  0  0  0  0  0
  -28.9250  -24.4469   21.6583 H   0  0  0  0  0  0
  -29.5157  -14.5762   22.2906 H   0  0  0  0  0  0
  -30.0406  -21.0990   20.4593 H   0  0  0  0  0  0
  -30.9127  -22.2596   21.1745 H   0  0  0  0  0  0
  1 25  1  0  0  0
  1 30  2  0  0  0
  1 84  1  0  0  0
  2  3  1  0  0  0
  2 25  1  0  0  0
  2 86  1  0  0  0
  2 87  1  0  0  0
  3  4  1  0  0  0
  3 88  1  0  0  0
  3 89  1  0  0  0
  4  5  1  0  0  0
  4 90  1  0  0  0
  4 91  1  0  0  0
  5  6  1  0  0  0
  5 26  1  0  0  0
  5 92  1  0  0  0
  6 25  1  0  0  0
  6 93  1  0  0  0
  6 94  1  0  0  0
  7  8  2  0  0  0
  7 26  1  0  0  0
  7 29  1  0  0  0
  8  9  1  0  0  0
  8 22  1  0  0  0
  9 10  1  0  0  0
  9 27  2  0  0  0
 10 11  2  0  0  0
 10 15  1  0  0  0
 11 12  1  0  0  0
 11 95  1  0  0  0
 12 13  2  0  0  0
 12 96  1  0  0  0
 13 14  1  0  0  0
 13 31  1  0  0  0
 14 15  2  0  0  0
 14 97  1  0  0  0
 15 98  1  0  0  0
 16 17  2  0  0  0
 16 21  1  0  0  0
 16 31  1  0  0  0
 17 18  1  0  0  0
 17 99  1  0  0  0
 18 19  2  0  0  0
 18100  1  0  0  0
 19 20  1  0  0  0
 19 24  1  0  0  0
 20 21  2  0  0  0
 20101  1  0  0  0
 21 23  1  0  0  0
 22 28  1  0  0  0
 22 32  2  0  0  0
 26 27  1  0  0  0
 28102  1  0  0  0
 28103  1  0  0  0
 29104  1  0  0  0
 29105  1  0  0  0
 33 34  1  0  0  0
 33 66  1  0  0  0
 33 70  2  0  0  0
 34 36  1  0  0  0
 34 59  1  0  0  0
 34106  1  0  0  0
 35 44  2  0  0  0
 35 45  1  0  0  0
 35 68  1  0  0  0
 36 56  1  0  0  0
 36107  1  0  0  0
 37 39  1  0  0  0
 37 47  1  0  0  0
 37 66  1  0  0  0
 37108  1  0  0  0
 38 43  2  0  0  0
 38 46  1  0  0  0
 38 47  1  0  0  0
 39 64  1  0  0  0
 39 67  2  0  0  0
 40 52  1  0  0  0
 40 53  2  0  0  0
 40 58  1  0  0  0
 41109  1  0  0  0
 41110  1  0  0  0
 41111  1  0  0  0
 41 48  1  0  0  0
 42 43  1  0  0  0
 42 66  1  0  0  0
 42112  1  0  0  0
 42113  1  0  0  0
 43 44  1  0  0  0
 44114  1  0  0  0
 45 46  2  0  0  0
 45115  1  0  0  0
 46116  1  0  0  0
 47117  1  0  0  0
 47118  1  0  0  0
 48 56  1  0  0  0
 48 65  1  0  0  0
 48119  1  0  0  0
 49 50  1  0  0  0
 49 53  1  0  0  0
 49 64  1  0  0  0
 49120  1  0  0  0
 50 51  1  0  0  0
 50121  1  0  0  0
 50122  1  0  0  0
 51 52  1  0  0  0
 51123  1  0  0  0
 51124  1  0  0  0
 52125  1  0  0  0
 52126  1  0  0  0
 53 54  1  0  0  0
 54 55  2  0  0  0
 54127  1  0  0  0
 55 57  1  0  0  0
 55128  1  0  0  0
 56 69  2  0  0  0
 57 58  2  0  0  0
 57129  1  0  0  0
 58130  1  0  0  0
 59 60  1  0  0  0
 59 61  1  0  0  0
 59 62  1  0  0  0
 60131  1  0  0  0
 60132  1  0  0  0
 60133  1  0  0  0
 61134  1  0  0  0
 61135  1  0  0  0
 61136  1  0  0  0
 62137  1  0  0  0
 62138  1  0  0  0
 62139  1  0  0  0
 63 65  1  0  0  0
 63140  1  0  0  0
 63141  1  0  0  0
 63142  1  0  0  0
 64143  1  0  0  0
 65144  1  0  0  0
 68 79  1  0  0  0
 71 73  2  0  0  0
 71 83  1  0  0  0
 71145  1  0  0  0
 72 74  1  0  0  0
 72 82  2  0  0  0
 72146  1  0  0  0
 73 80  1  0  0  0
 73 82  1  0  0  0
 74 83  2  0  0  0
 74 84  1  0  0  0
 75147  1  0  0  0
 75148  1  0  0  0
 75149  1  0  0  0
 75 80  1  0  0  0
 76150  1  0  0  0
 76151  1  0  0  0
 76152  1  0  0  0
 76 81  1  0  0  0
 77 80  1  0  0  0
 77 85  1  0  0  0
 77153  1  0  0  0
 77154  1  0  0  0
 78 81  1  0  0  0
 78 85  1  0  0  0
 78155  1  0  0  0
 78156  1  0  0  0
 79 81  1  0  0  0
 79157  1  0  0  0
 79158  1  0  0  0
 80159  1  0  0  0
 81160  1  0  0  0
 84161  1  0  0  0
 85162  1  0  0  0
 85163  1  0  0  0
M  CHG  1  85   1
M  ISO  4   1 100  68 101  79 101  84 100
M  END
> <chiral flag>
0

> <version>
0

> <s_m_source_file>
/data/baiqing/PycharmProjects/Reinvent-master-3.2/result/LINK_invent/BTK/process_docking_weight1_custom_sum_contain_oxygen_bond_distance_aromatic_linkinvent_7_9_3/rearranged_h_0180.sdf

> <i_m_source_file_index>
2

> <r_mmod_Potential_Energy-OPLS-2005>
-204.41828918457

> <r_mmod_Stretch_Energy-OPLS-2005>
40.7886009216309

> <r_mmod_Bend_Energy-OPLS-2005>
120.030334472656

> <r_mmod_Torsional_Energy-OPLS-2005>
225.988540649414

> <r_mmod_Improper_Torsional_Energy-OPLS-2005>
3.26866769790649

> <r_mmod_Van_der_Waal_Energy-OPLS-2005>
163.28369140625

> <r_mmod_Electrostatic_Energy-OPLS-2005>
-316.148162841797

> <r_mmod_Solvation_Energy-OPLS-2005>
-456.918487548828

> <b_mmod_Minimization_Converged-OPLS-2005>
0

> <r_mmod_RMS_Derivative-OPLS-2005>
4.98797988891602

$$$$
2
                    3D
 Structure written by MMmdl.
151160  0  0  1  0            999 V2000
  -30.6050  -14.8420   20.4323 C   0  0  0  0  0  0
  -30.4243  -12.5183   19.4883 C   0  0  0  0  0  0
  -29.5130  -12.5138   18.2428 C   0  0  0  0  0  0
  -28.0401  -12.3314   18.6555 C   0  0  0  0  0  0
  -27.6313  -13.2488   19.8401 C   0  0  2  0  0  0
  -28.6757  -13.2486   20.9754 C   0  0  0  0  0  0
  -25.2466  -13.8230   20.5720 C   0  0  0  0  0  0
  -24.1776  -13.0452   20.9226 C   0  0  0  0  0  0
  -24.6395  -11.6935   20.8757 C   0  0  0  0  0  0
  -23.9083  -10.4301   21.0406 C   0  0  0  0  0  0
  -24.3630   -9.4214   21.9180 C   0  0  0  0  0  0
  -23.6309   -8.2245   22.0749 C   0  0  0  0  0  0
  -22.4289   -8.0285   21.3536 C   0  0  0  0  0  0
  -21.9925   -9.0262   20.4644 C   0  0  0  0  0  0
  -22.7252  -10.2143   20.3054 C   0  0  0  0  0  0
  -21.6866   -6.0742   22.5275 C   0  0  0  0  0  0
  -21.4025   -6.5643   23.8208 C   0  0  0  0  0  0
  -21.3665   -5.6789   24.9167 C   0  0  0  0  0  0
  -21.6048   -4.3052   24.7219 C   0  0  0  0  0  0
  -21.8816   -3.8150   23.4339 C   0  0  0  0  0  0
  -21.9193   -4.6968   22.3398 C   0  0  0  0  0  0
  -22.7791  -13.5223   21.1860 C   0  0  0  0  0  0
  -22.1655   -4.2153   21.0973 F   0  0  0  0  0  0
  -21.5631   -3.4535   25.7733 F   0  0  0  0  0  0
  -29.9571  -13.6199   20.3688 N   0  0  0  0  0  0
  -26.2895  -12.9468   20.3259 N   0  0  0  0  0  0
  -25.9332  -11.6595   20.5749 N   0  0  0  0  0  0
  -22.0428  -12.8229   22.0416 N   0  0  0  0  0  0
  -25.4136  -15.1957   20.4149 N   0  0  0  0  0  0
  -31.8130  -14.8591   20.1778 O   0  0  0  0  0  0
  -21.6652   -6.8884   21.4235 O   0  0  0  0  0  0
  -22.3472  -14.5518   20.6686 O   0  0  0  0  0  0
  -24.6384  -31.8485   23.1928 C   0  0  0  0  0  0
  -25.9175  -32.4718   23.8301 C   0  0  1  0  0  0
  -27.2143  -27.1900   20.1381 C   0  0  0  0  0  0
  -25.5943  -33.8522   24.2220 N   0  0  0  0  0  0
  -23.4395  -30.4706   21.5374 C   0  0  2  0  0  0
  -24.8871  -28.9072   20.1096 C   0  0  0  0  0  0
  -22.7547  -29.4567   22.4871 C   0  0  0  0  0  0
  -18.0302  -28.1382   22.8478 C   0  0  0  0  0  0
  -24.1494  -36.7273   23.2641 C   0  0  0  0  0  0
  -25.9910  -30.7397   21.3836 C   0  0  0  0  0  0
  -26.0622  -29.3557   20.7253 C   0  0  0  0  0  0
  -27.2285  -28.5110   20.7253 C   0  0  0  0  0  0
  -26.0153  -26.8316   19.4834 C   0  0  0  0  0  0
  -24.8729  -27.6571   19.4754 C   0  0  0  0  0  0
  -23.6625  -29.8040   20.1544 C   0  0  0  0  0  0
  -25.4122  -36.3049   24.0319 C   0  0  1  0  0  0
  -20.5913  -28.3715   23.1245 C   0  0  2  0  0  0
  -20.6792  -26.9422   22.5409 C   0  0  0  0  0  0
  -19.5767  -26.6374   21.5215 C   0  0  0  0  0  0
  -18.1944  -26.7922   22.1622 C   0  0  0  0  0  0
  -19.1558  -28.8868   23.2852 C   0  0  0  0  0  0
  -18.9471  -30.1461   23.8878 C   0  0  0  0  0  0
  -17.6470  -30.6584   24.0558 C   0  0  0  0  0  0
  -25.9063  -34.9416   23.5076 C   0  0  0  0  0  0
  -16.5363  -29.9081   23.6324 C   0  0  0  0  0  0
  -16.7287  -28.6496   23.0354 C   0  0  0  0  0  0
  -26.4518  -31.6564   25.0713 C   0  0  0  0  0  0
  -25.3719  -31.3732   26.1421 C   0  0  0  0  0  0
  -27.0378  -30.2972   24.6239 C   0  0  0  0  0  0
  -27.6062  -32.4316   25.7499 C   0  0  0  0  0  0
  -27.5577  -37.1796   24.8460 C   0  0  0  0  0  0
  -21.4244  -29.3046   22.3620 N   0  0  0  0  0  0
  -26.4289  -37.3756   23.9402 N   0  0  0  0  0  0
  -24.7092  -31.0399   22.0935 N   0  0  0  0  0  0
  -23.4213  -28.8097   23.2990 O   0  0  0  0  0  0
  -28.2798  -26.2376   20.2087 O   0  0  0  0  0  0
  -26.5641  -34.8904   22.4648 O   0  0  0  0  0  0
  -23.5513  -32.1333   23.7184 O   0  0  0  0  0  0
  -27.7688  -20.0063   19.7418 C   0  0  0  0  0  0
  -27.6223  -21.3835   19.7150 C   0  0  0  0  0  0
  -29.0458  -19.7111   20.3121 C   0  0  0  0  0  0
  -29.0209  -16.9273   21.1173 C   0  0  0  0  0  0
  -30.2799  -17.2751   19.4880 C   0  0  0  0  0  0
  -29.7112  -18.2472   20.5759 C   0  0  0  0  0  0
  -29.0568  -23.5174   20.4335 C   0  0  0  0  0  0
  -28.0092  -24.7338   20.0305 C   0  0  0  0  0  0
  -29.6140  -20.9412   20.5922 N   0  0  0  0  0  0
  -28.7444  -22.0002   20.2416 N   0  0  0  0  0  0
  -29.8848  -16.0460   20.2616 N   0  0  0  0  0  0
  -31.4660  -12.6373   19.1861 H   0  0  0  0  0  0
  -30.3734  -11.5623   20.0110 H   0  0  0  0  0  0
  -29.8139  -11.7220   17.5558 H   0  0  0  0  0  0
  -29.6294  -13.4530   17.6997 H   0  0  0  0  0  0
  -27.9032  -11.2856   18.9315 H   0  0  0  0  0  0
  -27.3863  -12.5055   17.8002 H   0  0  0  0  0  0
  -27.6065  -14.2607   19.4347 H   0  0  0  0  0  0
  -28.7350  -12.2738   21.4609 H   0  0  0  0  0  0
  -28.4006  -13.9684   21.7479 H   0  0  0  0  0  0
  -25.2768   -9.5709   22.4759 H   0  0  0  0  0  0
  -24.0020   -7.4650   22.7480 H   0  0  0  0  0  0
  -21.0849   -8.8788   19.8966 H   0  0  0  0  0  0
  -22.3695  -10.9686   19.6176 H   0  0  0  0  0  0
  -21.2013   -7.6149   23.9717 H   0  0  0  0  0  0
  -21.1494   -6.0515   25.9071 H   0  0  0  0  0  0
  -22.0590   -2.7612   23.2832 H   0  0  0  0  0  0
  -22.4061  -11.9935   22.4867 H   0  0  0  0  0  0
  -21.1037  -13.1255   22.2592 H   0  0  0  0  0  0
  -24.6455  -15.8482   20.5284 H   0  0  0  0  0  0
  -26.2610  -15.6337   20.0778 H   0  0  0  0  0  0
  -26.7229  -32.5346   23.1025 H   0  0  0  0  0  0
  -25.0093  -33.9645   25.0369 H   0  0  0  0  0  0
  -22.7395  -31.2951   21.3872 H   0  0  0  0  0  0
  -23.3755  -35.9606   23.3292 H   0  0  0  0  0  0
  -24.3586  -36.8911   22.2058 H   0  0  0  0  0  0
  -23.7247  -37.6467   23.6681 H   0  0  0  0  0  0
  -26.1374  -31.4965   20.6124 H   0  0  0  0  0  0
  -26.8654  -30.7910   22.0207 H   0  0  0  0  0  0
  -28.1247  -28.8469   21.2281 H   0  0  0  0  0  0
  -25.9269  -25.8790   18.9838 H   0  0  0  0  0  0
  -23.9758  -27.3121   18.9802 H   0  0  0  0  0  0
  -23.7959  -30.5793   19.3989 H   0  0  0  0  0  0
  -22.7787  -29.2438   19.8448 H   0  0  0  0  0  0
  -25.1311  -36.1888   25.0811 H   0  0  0  0  0  0
  -21.0006  -28.3304   24.1369 H   0  0  0  0  0  0
  -20.5700  -26.2330   23.3626 H   0  0  0  0  0  0
  -21.6658  -26.7440   22.1204 H   0  0  0  0  0  0
  -19.6940  -25.6283   21.1255 H   0  0  0  0  0  0
  -19.6698  -27.3176   20.6737 H   0  0  0  0  0  0
  -17.4220  -26.6669   21.4014 H   0  0  0  0  0  0
  -18.0335  -26.0061   22.9016 H   0  0  0  0  0  0
  -19.7948  -30.7274   24.2241 H   0  0  0  0  0  0
  -17.5026  -31.6262   24.5168 H   0  0  0  0  0  0
  -15.5363  -30.2984   23.7648 H   0  0  0  0  0  0
  -15.8685  -28.0806   22.7085 H   0  0  0  0  0  0
  -24.5899  -30.7077   25.7741 H   0  0  0  0  0  0
  -24.8906  -32.2906   26.4819 H   0  0  0  0  0  0
  -25.8022  -30.8921   27.0212 H   0  0  0  0  0  0
  -26.2972  -29.6703   24.1254 H   0  0  0  0  0  0
  -27.4032  -29.7260   25.4782 H   0  0  0  0  0  0
  -27.8866  -30.4238   23.9514 H   0  0  0  0  0  0
  -27.2659  -33.3625   26.2050 H   0  0  0  0  0  0
  -28.3894  -32.6854   25.0342 H   0  0  0  0  0  0
  -28.0700  -31.8447   26.5437 H   0  0  0  0  0  0
  -28.2587  -38.0101   24.7510 H   0  0  0  0  0  0
  -28.1081  -36.2629   24.6287 H   0  0  0  0  0  0
  -27.2292  -37.1444   25.8862 H   0  0  0  0  0  0
  -20.9450  -29.8766   21.6805 H   0  0  0  0  0  0
  -26.0160  -38.2825   24.1409 H   0  0  0  0  0  0
  -27.0379  -19.2908   19.3915 H   0  0  0  0  0  0
  -26.7910  -21.9765   19.3580 H   0  0  0  0  0  0
  -27.9639  -16.8741   20.8540 H   0  0  0  0  0  0
  -29.1497  -16.7872   22.1913 H   0  0  0  0  0  0
  -31.3532  -17.3956   19.3324 H   0  0  0  0  0  0
  -29.7523  -17.3637   18.5371 H   0  0  0  0  0  0
  -30.5422  -18.4337   21.2580 H   0  0  0  0  0  0
  -29.3029  -23.6440   21.4874 H   0  0  0  0  0  0
  -29.9896  -23.7045   19.9013 H   0  0  0  0  0  0
  -27.0817  -24.5179   20.5627 H   0  0  0  0  0  0
  -27.7812  -24.5925   18.9741 H   0  0  0  0  0  0
  1 25  1  0  0  0
  1 30  2  0  0  0
  1 81  1  0  0  0
  2  3  1  0  0  0
  2 25  1  0  0  0
  2 82  1  0  0  0
  2 83  1  0  0  0
  3  4  1  0  0  0
  3 84  1  0  0  0
  3 85  1  0  0  0
  4  5  1  0  0  0
  4 86  1  0  0  0
  4 87  1  0  0  0
  5  6  1  0  0  0
  5 26  1  0  0  0
  5 88  1  0  0  0
  6 25  1  0  0  0
  6 89  1  0  0  0
  6 90  1  0  0  0
  7  8  2  0  0  0
  7 26  1  0  0  0
  7 29  1  0  0  0
  8  9  1  0  0  0
  8 22  1  0  0  0
  9 10  1  0  0  0
  9 27  2  0  0  0
 10 11  2  0  0  0
 10 15  1  0  0  0
 11 12  1  0  0  0
 11 91  1  0  0  0
 12 13  2  0  0  0
 12 92  1  0  0  0
 13 14  1  0  0  0
 13 31  1  0  0  0
 14 15  2  0  0  0
 14 93  1  0  0  0
 15 94  1  0  0  0
 16 17  2  0  0  0
 16 21  1  0  0  0
 16 31  1  0  0  0
 17 18  1  0  0  0
 17 95  1  0  0  0
 18 19  2  0  0  0
 18 96  1  0  0  0
 19 20  1  0  0  0
 19 24  1  0  0  0
 20 21  2  0  0  0
 20 97  1  0  0  0
 21 23  1  0  0  0
 22 28  1  0  0  0
 22 32  2  0  0  0
 26 27  1  0  0  0
 28 98  1  0  0  0
 28 99  1  0  0  0
 29100  1  0  0  0
 29101  1  0  0  0
 33 34  1  0  0  0
 33 66  1  0  0  0
 33 70  2  0  0  0
 34 36  1  0  0  0
 34 59  1  0  0  0
 34102  1  0  0  0
 35 44  2  0  0  0
 35 45  1  0  0  0
 35 68  1  0  0  0
 36 56  1  0  0  0
 36103  1  0  0  0
 37 39  1  0  0  0
 37 47  1  0  0  0
 37 66  1  0  0  0
 37104  1  0  0  0
 38 43  2  0  0  0
 38 46  1  0  0  0
 38 47  1  0  0  0
 39 64  1  0  0  0
 39 67  2  0  0  0
 40 52  1  0  0  0
 40 53  2  0  0  0
 40 58  1  0  0  0
 41105  1  0  0  0
 41106  1  0  0  0
 41107  1  0  0  0
 41 48  1  0  0  0
 42 43  1  0  0  0
 42 66  1  0  0  0
 42108  1  0  0  0
 42109  1  0  0  0
 43 44  1  0  0  0
 44110  1  0  0  0
 45 46  2  0  0  0
 45111  1  0  0  0
 46112  1  0  0  0
 47113  1  0  0  0
 47114  1  0  0  0
 48 56  1  0  0  0
 48 65  1  0  0  0
 48115  1  0  0  0
 49 50  1  0  0  0
 49 53  1  0  0  0
 49 64  1  0  0  0
 49116  1  0  0  0
 50 51  1  0  0  0
 50117  1  0  0  0
 50118  1  0  0  0
 51 52  1  0  0  0
 51119  1  0  0  0
 51120  1  0  0  0
 52121  1  0  0  0
 52122  1  0  0  0
 53 54  1  0  0  0
 54 55  2  0  0  0
 54123  1  0  0  0
 55 57  1  0  0  0
 55124  1  0  0  0
 56 69  2  0  0  0
 57 58  2  0  0  0
 57125  1  0  0  0
 58126  1  0  0  0
 59 60  1  0  0  0
 59 61  1  0  0  0
 59 62  1  0  0  0
 60127  1  0  0  0
 60128  1  0  0  0
 60129  1  0  0  0
 61130  1  0  0  0
 61131  1  0  0  0
 61132  1  0  0  0
 62133  1  0  0  0
 62134  1  0  0  0
 62135  1  0  0  0
 63 65  1  0  0  0
 63136  1  0  0  0
 63137  1  0  0  0
 63138  1  0  0  0
 64139  1  0  0  0
 65140  1  0  0  0
 68 78  1  0  0  0
 71 72  2  0  0  0
 71 73  1  0  0  0
 71141  1  0  0  0
 72 80  1  0  0  0
 72142  1  0  0  0
 73 79  2  0  0  0
 73 76  1  0  0  0
 74 76  1  0  0  0
 74 81  1  0  0  0
 74143  1  0  0  0
 74144  1  0  0  0
 75 76  1  0  0  0
 75 81  1  0  0  0
 75145  1  0  0  0
 75146  1  0  0  0
 76147  1  0  0  0
 77 78  1  0  0  0
 77 80  1  0  0  0
 77148  1  0  0  0
 77149  1  0  0  0
 78150  1  0  0  0
 78151  1  0  0  0
 79 80  1  0  0  0
M  ISO  4   1 100  68 101  78 101  81 100
M  END
> <chiral flag>
0

> <version>
0

> <s_m_source_file>
/data/baiqing/PycharmProjects/Reinvent-master-3.2/result/LINK_invent/BTK/process_docking_weight1_custom_sum_contain_oxygen_bond_distance_aromatic_linkinvent_7_9_3/rearranged_h_0180.sdf

> <i_m_source_file_index>
3

> <r_mmod_Potential_Energy-OPLS-2005>
372.364013671875

> <r_mmod_Stretch_Energy-OPLS-2005>
172.404922485352

> <r_mmod_Bend_Energy-OPLS-2005>
218.486785888672

> <r_mmod_Torsional_Energy-OPLS-2005>
273.720458984375

> <r_mmod_Improper_Torsional_Energy-OPLS-2005>
19.9801998138428

> <r_mmod_Van_der_Waal_Energy-OPLS-2005>
108.397750854492

> <r_mmod_Electrostatic_Energy-OPLS-2005>
-330.2978515625

> <r_mmod_Solvation_Energy-OPLS-2005>
-227.383972167969

> <b_mmod_Minimization_Converged-OPLS-2005>
0

> <r_mmod_RMS_Derivative-OPLS-2005>
1.29386532306671

$$$$
3
                    3D
 Structure written by MMmdl.
155164  0  0  1  0            999 V2000
  -30.5813  -14.9792   20.4135 C   0  0  0  0  0  0
  -30.4275  -12.6146   19.5028 C   0  0  0  0  0  0
  -29.5174  -12.5321   18.2583 C   0  0  0  0  0  0
  -28.0541  -12.3136   18.6803 C   0  0  0  0  0  0
  -27.6234  -13.2602   19.8317 C   0  0  2  0  0  0
  -28.6652  -13.3335   20.9675 C   0  0  0  0  0  0
  -25.2438  -13.8243   20.5733 C   0  0  0  0  0  0
  -24.1765  -13.0450   20.9238 C   0  0  0  0  0  0
  -24.6400  -11.6941   20.8762 C   0  0  0  0  0  0
  -23.9091  -10.4300   21.0404 C   0  0  0  0  0  0
  -24.3635   -9.4212   21.9183 C   0  0  0  0  0  0
  -23.6307   -8.2248   22.0752 C   0  0  0  0  0  0
  -22.4291   -8.0284   21.3538 C   0  0  0  0  0  0
  -21.9930   -9.0261   20.4640 C   0  0  0  0  0  0
  -22.7261  -10.2140   20.3052 C   0  0  0  0  0  0
  -21.6859   -6.0739   22.5276 C   0  0  0  0  0  0
  -21.4018   -6.5639   23.8211 C   0  0  0  0  0  0
  -21.3662   -5.6791   24.9172 C   0  0  0  0  0  0
  -21.6046   -4.3055   24.7220 C   0  0  0  0  0  0
  -21.8818   -3.8146   23.4341 C   0  0  0  0  0  0
  -21.9194   -4.6965   22.3399 C   0  0  0  0  0  0
  -22.7780  -13.5209   21.1883 C   0  0  0  0  0  0
  -22.1660   -4.2150   21.0978 F   0  0  0  0  0  0
  -21.5630   -3.4537   25.7732 F   0  0  0  0  0  0
  -29.9359  -13.7402   20.3557 N   0  0  0  0  0  0
  -26.2866  -12.9498   20.3245 N   0  0  0  0  0  0
  -25.9337  -11.6617   20.5748 N   0  0  0  0  0  0
  -22.0428  -12.8200   22.0438 N   0  0  0  0  0  0
  -25.4111  -15.1969   20.4173 N   0  0  0  0  0  0
  -31.7926  -14.9644   20.1700 O   0  0  0  0  0  0
  -21.6647   -6.8884   21.4239 O   0  0  0  0  0  0
  -22.3461  -14.5506   20.6715 O   0  0  0  0  0  0
  -24.6483  -31.8412   23.1876 C   0  0  0  0  0  0
  -25.9241  -32.4676   23.8272 C   0  0  1  0  0  0
  -27.2068  -27.0933   20.1479 C   0  0  0  0  0  0
  -25.5973  -33.8484   24.2185 N   0  0  0  0  0  0
  -23.4533  -30.4631   21.5348 C   0  0  2  0  0  0
  -24.9019  -28.8907   20.1082 C   0  0  0  0  0  0
  -22.7592  -29.4540   22.4850 C   0  0  0  0  0  0
  -18.0310  -28.1397   22.8475 C   0  0  0  0  0  0
  -24.1498  -36.7249   23.2642 C   0  0  0  0  0  0
  -26.0144  -30.6999   21.3960 C   0  0  0  0  0  0
  -26.0833  -29.3095   20.7336 C   0  0  0  0  0  0
  -27.2361  -28.4273   20.7392 C   0  0  0  0  0  0
  -26.0001  -26.8015   19.4684 C   0  0  0  0  0  0
  -24.8766  -27.6514   19.4586 C   0  0  0  0  0  0
  -23.6813  -29.7973   20.1535 C   0  0  0  0  0  0
  -25.4128  -36.3020   24.0316 C   0  0  1  0  0  0
  -20.5926  -28.3733   23.1222 C   0  0  2  0  0  0
  -20.6796  -26.9432   22.5401 C   0  0  0  0  0  0
  -19.5769  -26.6383   21.5212 C   0  0  0  0  0  0
  -18.1949  -26.7937   22.1620 C   0  0  0  0  0  0
  -19.1567  -28.8884   23.2838 C   0  0  0  0  0  0
  -18.9479  -30.1476   23.8869 C   0  0  0  0  0  0
  -17.6474  -30.6593   24.0558 C   0  0  0  0  0  0
  -25.9082  -34.9396   23.5058 C   0  0  0  0  0  0
  -16.5365  -29.9084   23.6337 C   0  0  0  0  0  0
  -16.7292  -28.6500   23.0361 C   0  0  0  0  0  0
  -26.4542  -31.6552   25.0729 C   0  0  0  0  0  0
  -25.3713  -31.3752   26.1413 C   0  0  0  0  0  0
  -27.0412  -30.2939   24.6352 C   0  0  0  0  0  0
  -27.6067  -32.4325   25.7516 C   0  0  0  0  0  0
  -27.5579  -37.1781   24.8463 C   0  0  0  0  0  0
  -21.4280  -29.3053   22.3590 N   0  0  0  0  0  0
  -26.4289  -37.3736   23.9406 N   0  0  0  0  0  0
  -24.7255  -31.0231   22.0938 N   0  0  0  0  0  0
  -23.4213  -28.8081   23.3014 O   0  0  0  0  0  0
  -28.2156  -26.0454   20.2333 O   0  0  0  0  0  0
  -26.5664  -34.8897   22.4636 O   0  0  0  0  0  0
  -23.5590  -32.1311   23.7068 O   0  0  0  0  0  0
  -29.2831  -22.4051   19.1602 C   0  0  0  0  0  0
  -29.6404  -20.9961   19.1786 C   0  0  0  0  0  0
  -28.5596  -23.0704   20.2066 C   0  0  0  0  0  0
  -29.3034  -20.0923   20.2401 C   0  0  0  0  0  0
  -28.2933  -22.1042   21.2546 C   0  0  0  0  0  0
  -30.5673  -17.5470   21.1721 C   0  0  0  0  0  0
  -28.8493  -17.0937   20.0829 C   0  0  0  0  0  0
  -29.6807  -18.4515   20.2252 C   0  0  0  0  0  0
  -27.5308  -21.7435   23.5849 C   0  0  0  0  0  0
  -27.7946  -24.5488   19.9963 C   0  0  0  0  0  0
  -28.6372  -20.7382   21.2636 N   0  0  0  0  0  0
  -29.9489  -16.2390   20.6964 N   0  0  0  0  0  0
  -27.5705  -22.5458   22.3680 N   0  0  0  0  0  0
  -31.4628  -12.7539   19.1879 H   0  0  0  0  0  0
  -30.4135  -11.6750   20.0580 H   0  0  0  0  0  0
  -29.8442  -11.7250   17.6012 H   0  0  0  0  0  0
  -29.6014  -13.4535   17.6800 H   0  0  0  0  0  0
  -27.9597  -11.2763   19.0036 H   0  0  0  0  0  0
  -27.3895  -12.4262   17.8230 H   0  0  0  0  0  0
  -27.5744  -14.2539   19.3855 H   0  0  0  0  0  0
  -28.7610  -12.3761   21.4822 H   0  0  0  0  0  0
  -28.3604  -14.0653   21.7175 H   0  0  0  0  0  0
  -25.2774   -9.5690   22.4767 H   0  0  0  0  0  0
  -24.0007   -7.4642   22.7478 H   0  0  0  0  0  0
  -21.0857   -8.8789   19.8951 H   0  0  0  0  0  0
  -22.3718  -10.9682   19.6167 H   0  0  0  0  0  0
  -21.2011   -7.6148   23.9717 H   0  0  0  0  0  0
  -21.1486   -6.0518   25.9076 H   0  0  0  0  0  0
  -22.0596   -2.7608   23.2841 H   0  0  0  0  0  0
  -22.4051  -11.9876   22.4846 H   0  0  0  0  0  0
  -21.1036  -13.1211   22.2623 H   0  0  0  0  0  0
  -24.6485  -15.8542   20.5397 H   0  0  0  0  0  0
  -26.2674  -15.6342   20.1040 H   0  0  0  0  0  0
  -26.7307  -32.5266   23.0996 H   0  0  0  0  0  0
  -25.0090  -33.9590   25.0314 H   0  0  0  0  0  0
  -22.7580  -31.2908   21.3811 H   0  0  0  0  0  0
  -23.3765  -35.9575   23.3283 H   0  0  0  0  0  0
  -24.3586  -36.8903   22.2061 H   0  0  0  0  0  0
  -23.7250  -37.6439   23.6692 H   0  0  0  0  0  0
  -26.1797  -31.4543   20.6255 H   0  0  0  0  0  0
  -26.8814  -30.7459   22.0431 H   0  0  0  0  0  0
  -28.1302  -28.7388   21.2608 H   0  0  0  0  0  0
  -25.8684  -25.8647   18.9510 H   0  0  0  0  0  0
  -23.9788  -27.3283   18.9494 H   0  0  0  0  0  0
  -23.8209  -30.5741   19.4008 H   0  0  0  0  0  0
  -22.7942  -29.2442   19.8398 H   0  0  0  0  0  0
  -25.1320  -36.1843   25.0809 H   0  0  0  0  0  0
  -21.0013  -28.3327   24.1346 H   0  0  0  0  0  0
  -20.5687  -26.2350   23.3625 H   0  0  0  0  0  0
  -21.6661  -26.7438   22.1198 H   0  0  0  0  0  0
  -19.6932  -25.6286   21.1260 H   0  0  0  0  0  0
  -19.6705  -27.3177   20.6727 H   0  0  0  0  0  0
  -17.4219  -26.6679   21.4022 H   0  0  0  0  0  0
  -18.0346  -26.0084   22.9019 H   0  0  0  0  0  0
  -19.7952  -30.7299   24.2231 H   0  0  0  0  0  0
  -17.5025  -31.6270   24.5164 H   0  0  0  0  0  0
  -15.5362  -30.2973   23.7684 H   0  0  0  0  0  0
  -15.8690  -28.0806   22.7100 H   0  0  0  0  0  0
  -24.5913  -30.7077   25.7732 H   0  0  0  0  0  0
  -24.8876  -32.2932   26.4759 H   0  0  0  0  0  0
  -25.7986  -30.8981   27.0242 H   0  0  0  0  0  0
  -26.3042  -29.6646   24.1348 H   0  0  0  0  0  0
  -27.3988  -29.7257   25.4949 H   0  0  0  0  0  0
  -27.8972  -30.4155   23.9711 H   0  0  0  0  0  0
  -27.2662  -33.3651   26.2024 H   0  0  0  0  0  0
  -28.3914  -32.6839   25.0369 H   0  0  0  0  0  0
  -28.0696  -31.8494   26.5487 H   0  0  0  0  0  0
  -28.2580  -38.0091   24.7512 H   0  0  0  0  0  0
  -28.1091  -36.2619   24.6286 H   0  0  0  0  0  0
  -27.2296  -37.1424   25.8865 H   0  0  0  0  0  0
  -20.9497  -29.8761   21.6760 H   0  0  0  0  0  0
  -26.0153  -38.2807   24.1397 H   0  0  0  0  0  0
  -29.5206  -22.9707   18.2708 H   0  0  0  0  0  0
  -30.1636  -20.6003   18.3182 H   0  0  0  0  0  0
  -30.3689  -17.7452   22.2258 H   0  0  0  0  0  0
  -31.6356  -17.6488   20.9748 H   0  0  0  0  0  0
  -28.6055  -16.8502   19.0477 H   0  0  0  0  0  0
  -27.9412  -17.1063   20.6867 H   0  0  0  0  0  0
  -30.2625  -18.4520   19.3022 H   0  0  0  0  0  0
  -27.0330  -22.2947   24.3834 H   0  0  0  0  0  0
  -28.5384  -21.4972   23.9232 H   0  0  0  0  0  0
  -26.9826  -20.8146   23.4232 H   0  0  0  0  0  0
  -26.8463  -24.4298   20.5206 H   0  0  0  0  0  0
  -27.5332  -24.5118   18.9388 H   0  0  0  0  0  0
  -27.4098  -23.5431   22.4646 H   0  0  0  0  0  0
  1 25  1  0  0  0
  1 30  2  0  0  0
  1 82  1  0  0  0
  2  3  1  0  0  0
  2 25  1  0  0  0
  2 84  1  0  0  0
  2 85  1  0  0  0
  3  4  1  0  0  0
  3 86  1  0  0  0
  3 87  1  0  0  0
  4  5  1  0  0  0
  4 88  1  0  0  0
  4 89  1  0  0  0
  5  6  1  0  0  0
  5 26  1  0  0  0
  5 90  1  0  0  0
  6 25  1  0  0  0
  6 91  1  0  0  0
  6 92  1  0  0  0
  7  8  2  0  0  0
  7 26  1  0  0  0
  7 29  1  0  0  0
  8  9  1  0  0  0
  8 22  1  0  0  0
  9 10  1  0  0  0
  9 27  2  0  0  0
 10 11  2  0  0  0
 10 15  1  0  0  0
 11 12  1  0  0  0
 11 93  1  0  0  0
 12 13  2  0  0  0
 12 94  1  0  0  0
 13 14  1  0  0  0
 13 31  1  0  0  0
 14 15  2  0  0  0
 14 95  1  0  0  0
 15 96  1  0  0  0
 16 17  2  0  0  0
 16 21  1  0  0  0
 16 31  1  0  0  0
 17 18  1  0  0  0
 17 97  1  0  0  0
 18 19  2  0  0  0
 18 98  1  0  0  0
 19 20  1  0  0  0
 19 24  1  0  0  0
 20 21  2  0  0  0
 20 99  1  0  0  0
 21 23  1  0  0  0
 22 28  1  0  0  0
 22 32  2  0  0  0
 26 27  1  0  0  0
 28100  1  0  0  0
 28101  1  0  0  0
 29102  1  0  0  0
 29103  1  0  0  0
 33 34  1  0  0  0
 33 66  1  0  0  0
 33 70  2  0  0  0
 34 36  1  0  0  0
 34 59  1  0  0  0
 34104  1  0  0  0
 35 44  2  0  0  0
 35 45  1  0  0  0
 35 68  1  0  0  0
 36 56  1  0  0  0
 36105  1  0  0  0
 37 39  1  0  0  0
 37 47  1  0  0  0
 37 66  1  0  0  0
 37106  1  0  0  0
 38 43  2  0  0  0
 38 46  1  0  0  0
 38 47  1  0  0  0
 39 64  1  0  0  0
 39 67  2  0  0  0
 40 52  1  0  0  0
 40 53  2  0  0  0
 40 58  1  0  0  0
 41107  1  0  0  0
 41108  1  0  0  0
 41109  1  0  0  0
 41 48  1  0  0  0
 42 43  1  0  0  0
 42 66  1  0  0  0
 42110  1  0  0  0
 42111  1  0  0  0
 43 44  1  0  0  0
 44112  1  0  0  0
 45 46  2  0  0  0
 45113  1  0  0  0
 46114  1  0  0  0
 47115  1  0  0  0
 47116  1  0  0  0
 48 56  1  0  0  0
 48 65  1  0  0  0
 48117  1  0  0  0
 49 50  1  0  0  0
 49 53  1  0  0  0
 49 64  1  0  0  0
 49118  1  0  0  0
 50 51  1  0  0  0
 50119  1  0  0  0
 50120  1  0  0  0
 51 52  1  0  0  0
 51121  1  0  0  0
 51122  1  0  0  0
 52123  1  0  0  0
 52124  1  0  0  0
 53 54  1  0  0  0
 54 55  2  0  0  0
 54125  1  0  0  0
 55 57  1  0  0  0
 55126  1  0  0  0
 56 69  2  0  0  0
 57 58  2  0  0  0
 57127  1  0  0  0
 58128  1  0  0  0
 59 60  1  0  0  0
 59 61  1  0  0  0
 59 62  1  0  0  0
 60129  1  0  0  0
 60130  1  0  0  0
 60131  1  0  0  0
 61132  1  0  0  0
 61133  1  0  0  0
 61134  1  0  0  0
 62135  1  0  0  0
 62136  1  0  0  0
 62137  1  0  0  0
 63 65  1  0  0  0
 63138  1  0  0  0
 63139  1  0  0  0
 63140  1  0  0  0
 64141  1  0  0  0
 65142  1  0  0  0
 68 80  1  0  0  0
 71 72  2  0  0  0
 71 73  1  0  0  0
 71143  1  0  0  0
 72 74  1  0  0  0
 72144  1  0  0  0
 73 75  2  0  0  0
 73 80  1  0  0  0
 74 81  2  0  0  0
 74 78  1  0  0  0
 75 81  1  0  0  0
 75 83  1  0  0  0
 76 78  1  0  0  0
 76 82  1  0  0  0
 76145  1  0  0  0
 76146  1  0  0  0
 77 78  1  0  0  0
 77 82  1  0  0  0
 77147  1  0  0  0
 77148  1  0  0  0
 78149  1  0  0  0
 79 83  1  0  0  0
 79150  1  0  0  0
 79151  1  0  0  0
 79152  1  0  0  0
 80153  1  0  0  0
 80154  1  0  0  0
 83155  1  0  0  0
M  ISO  4   1 100  68 101  80 101  82 100
M  END
> <chiral flag>
0

> <version>
0

> <s_m_source_file>
/data/baiqing/PycharmProjects/Reinvent-master-3.2/result/LINK_invent/BTK/process_docking_weight1_custom_sum_contain_oxygen_bond_distance_aromatic_linkinvent_7_9_3/rearranged_h_0180.sdf

> <i_m_source_file_index>
4

> <r_mmod_Potential_Energy-OPLS-2005>
489.651672363281

> <r_mmod_Stretch_Energy-OPLS-2005>
257.854919433594

> <r_mmod_Bend_Energy-OPLS-2005>
335.976623535156

> <r_mmod_Torsional_Energy-OPLS-2005>
264.010559082031

> <r_mmod_Improper_Torsional_Energy-OPLS-2005>
10.3019123077393

> <r_mmod_Van_der_Waal_Energy-OPLS-2005>
139.916717529297

> <r_mmod_Electrostatic_Energy-OPLS-2005>
-507.174560546875

> <r_mmod_Solvation_Energy-OPLS-2005>
-240.576950073242

> <b_mmod_Minimization_Converged-OPLS-2005>
0

> <r_mmod_RMS_Derivative-OPLS-2005>
0.646374523639679

$$$$
4
                    3D
 Structure written by MMmdl.
155164  0  0  1  0            999 V2000
  -30.5645  -14.8957   20.4231 C   0  0  0  0  0  0
  -30.4352  -12.5552   19.4874 C   0  0  0  0  0  0
  -29.5144  -12.5013   18.2479 C   0  0  0  0  0  0
  -28.0478  -12.2983   18.6714 C   0  0  0  0  0  0
  -27.6268  -13.2413   19.8295 C   0  0  2  0  0  0
  -28.6686  -13.2614   20.9670 C   0  0  0  0  0  0
  -25.2453  -13.8214   20.5679 C   0  0  0  0  0  0
  -24.1766  -13.0449   20.9225 C   0  0  0  0  0  0
  -24.6378  -11.6928   20.8764 C   0  0  0  0  0  0
  -23.9061  -10.4295   21.0420 C   0  0  0  0  0  0
  -24.3621   -9.4200   21.9187 C   0  0  0  0  0  0
  -23.6295   -8.2231   22.0748 C   0  0  0  0  0  0
  -22.4275   -8.0269   21.3535 C   0  0  0  0  0  0
  -21.9909   -9.0251   20.4645 C   0  0  0  0  0  0
  -22.7238  -10.2135   20.3059 C   0  0  0  0  0  0
  -21.6853   -6.0725   22.5276 C   0  0  0  0  0  0
  -21.4017   -6.5633   23.8204 C   0  0  0  0  0  0
  -21.3663   -5.6784   24.9169 C   0  0  0  0  0  0
  -21.6047   -4.3046   24.7223 C   0  0  0  0  0  0
  -21.8820   -3.8138   23.4345 C   0  0  0  0  0  0
  -21.9189   -4.6956   22.3401 C   0  0  0  0  0  0
  -22.7784  -13.5222   21.1875 C   0  0  0  0  0  0
  -22.1654   -4.2138   21.0978 F   0  0  0  0  0  0
  -21.5628   -3.4531   25.7736 F   0  0  0  0  0  0
  -29.9466  -13.6539   20.3656 N   0  0  0  0  0  0
  -26.2859  -12.9432   20.3190 N   0  0  0  0  0  0
  -25.9301  -11.6574   20.5735 N   0  0  0  0  0  0
  -22.0423  -12.8220   22.0441 N   0  0  0  0  0  0
  -25.4144  -15.1941   20.4080 N   0  0  0  0  0  0
  -31.7733  -14.9411   20.1728 O   0  0  0  0  0  0
  -21.6632   -6.8872   21.4237 O   0  0  0  0  0  0
  -22.3462  -14.5511   20.6691 O   0  0  0  0  0  0
  -24.6402  -31.8472   23.1890 C   0  0  0  0  0  0
  -25.9179  -32.4720   23.8275 C   0  0  1  0  0  0
  -27.2152  -27.1611   20.1594 C   0  0  0  0  0  0
  -25.5940  -33.8522   24.2212 N   0  0  0  0  0  0
  -23.4426  -30.4646   21.5354 C   0  0  2  0  0  0
  -24.8908  -28.8884   20.1159 C   0  0  0  0  0  0
  -22.7551  -29.4561   22.4887 C   0  0  0  0  0  0
  -18.0304  -28.1396   22.8484 C   0  0  0  0  0  0
  -24.1492  -36.7260   23.2641 C   0  0  0  0  0  0
  -25.9946  -30.7300   21.3805 C   0  0  0  0  0  0
  -26.0668  -29.3405   20.7277 C   0  0  0  0  0  0
  -27.2340  -28.4933   20.7269 C   0  0  0  0  0  0
  -26.0154  -26.7961   19.5161 C   0  0  0  0  0  0
  -24.8754  -27.6284   19.4949 C   0  0  0  0  0  0
  -23.6673  -29.7895   20.1558 C   0  0  0  0  0  0
  -25.4120  -36.3050   24.0325 C   0  0  1  0  0  0
  -20.5915  -28.3716   23.1254 C   0  0  2  0  0  0
  -20.6795  -26.9429   22.5407 C   0  0  0  0  0  0
  -19.5766  -26.6387   21.5217 C   0  0  0  0  0  0
  -18.1947  -26.7935   22.1629 C   0  0  0  0  0  0
  -19.1560  -28.8877   23.2862 C   0  0  0  0  0  0
  -18.9471  -30.1471   23.8890 C   0  0  0  0  0  0
  -17.6472  -30.6597   24.0559 C   0  0  0  0  0  0
  -25.9065  -34.9424   23.5080 C   0  0  0  0  0  0
  -16.5362  -29.9093   23.6333 C   0  0  0  0  0  0
  -16.7287  -28.6505   23.0360 C   0  0  0  0  0  0
  -26.4507  -31.6571   25.0702 C   0  0  0  0  0  0
  -25.3691  -31.3757   26.1402 C   0  0  0  0  0  0
  -27.0362  -30.2978   24.6236 C   0  0  0  0  0  0
  -27.6067  -32.4312   25.7469 C   0  0  0  0  0  0
  -27.5577  -37.1786   24.8468 C   0  0  0  0  0  0
  -21.4251  -29.3048   22.3632 N   0  0  0  0  0  0
  -26.4292  -37.3757   23.9411 N   0  0  0  0  0  0
  -24.7125  -31.0347   22.0909 N   0  0  0  0  0  0
  -23.4204  -28.8115   23.3035 O   0  0  0  0  0  0
  -28.2932  -26.2181   20.1725 O   0  0  0  0  0  0
  -26.5652  -34.8914   22.4658 O   0  0  0  0  0  0
  -23.5527  -32.1340   23.7121 O   0  0  0  0  0  0
  -28.5002  -19.5632   19.9216 C   0  0  0  0  0  0
  -29.7090  -19.0870   20.5251 C   0  0  0  0  0  0
  -30.4333  -20.2297   21.0127 C   0  0  0  0  0  0
  -28.9335  -21.9145   20.2286 C   0  0  0  0  0  0
  -28.5450  -23.5783   18.1792 C   0  0  0  0  0  0
  -29.8911  -23.8862   18.7329 C   0  0  0  0  0  0
  -28.7741  -23.4664   19.6824 C   0  0  0  0  0  0
  -31.7656  -20.0502   21.7152 C   0  0  0  0  0  0
  -30.3823  -17.5658   20.5672 C   0  0  0  0  0  0
  -28.1129  -24.7154   20.5244 C   0  0  0  0  0  0
  -28.1449  -20.9054   19.7804 N   0  0  0  0  0  0
  -30.0591  -21.5521   20.8655 N   0  0  0  0  0  0
  -29.8228  -16.1001   20.5515 N   0  0  0  0  0  0
  -31.4676  -12.7085   19.1688 H   0  0  0  0  0  0
  -30.4267  -11.6041   20.0222 H   0  0  0  0  0  0
  -29.8257  -11.6934   17.5842 H   0  0  0  0  0  0
  -29.6067  -13.4258   17.6765 H   0  0  0  0  0  0
  -27.9435  -11.2611   18.9916 H   0  0  0  0  0  0
  -27.3827  -12.4168   17.8152 H   0  0  0  0  0  0
  -27.5953  -14.2423   19.3988 H   0  0  0  0  0  0
  -28.7439  -12.2855   21.4484 H   0  0  0  0  0  0
  -28.3760  -13.9695   21.7433 H   0  0  0  0  0  0
  -25.2774   -9.5669   22.4748 H   0  0  0  0  0  0
  -23.9997   -7.4626   22.7480 H   0  0  0  0  0  0
  -21.0822   -8.8787   19.8966 H   0  0  0  0  0  0
  -22.3702  -10.9672   19.6159 H   0  0  0  0  0  0
  -21.2010   -7.6140   23.9709 H   0  0  0  0  0  0
  -21.1483   -6.0510   25.9070 H   0  0  0  0  0  0
  -22.0600   -2.7600   23.2845 H   0  0  0  0  0  0
  -22.4044  -11.9911   22.4878 H   0  0  0  0  0  0
  -21.1037  -13.1240   22.2630 H   0  0  0  0  0  0
  -24.6465  -15.8476   20.5173 H   0  0  0  0  0  0
  -26.2500  -15.6266   20.0369 H   0  0  0  0  0  0
  -26.7244  -32.5340   23.1009 H   0  0  0  0  0  0
  -25.0067  -33.9643   25.0343 H   0  0  0  0  0  0
  -22.7434  -31.2892   21.3802 H   0  0  0  0  0  0
  -23.3765  -35.9580   23.3298 H   0  0  0  0  0  0
  -24.3580  -36.8888   22.2056 H   0  0  0  0  0  0
  -23.7229  -37.6451   23.6669 H   0  0  0  0  0  0
  -26.1401  -31.4824   20.6042 H   0  0  0  0  0  0
  -26.8696  -30.7871   22.0165 H   0  0  0  0  0  0
  -28.1371  -28.8388   21.2096 H   0  0  0  0  0  0
  -25.9477  -25.8321   19.0323 H   0  0  0  0  0  0
  -23.9763  -27.2779   19.0075 H   0  0  0  0  0  0
  -23.8041  -30.5621   19.3986 H   0  0  0  0  0  0
  -22.7821  -29.2308   19.8472 H   0  0  0  0  0  0
  -25.1306  -36.1890   25.0817 H   0  0  0  0  0  0
  -21.0001  -28.3299   24.1377 H   0  0  0  0  0  0
  -20.5708  -26.2324   23.3618 H   0  0  0  0  0  0
  -21.6655  -26.7457   22.1194 H   0  0  0  0  0  0
  -19.6929  -25.6293   21.1261 H   0  0  0  0  0  0
  -19.6702  -27.3186   20.6736 H   0  0  0  0  0  0
  -17.4218  -26.6683   21.4030 H   0  0  0  0  0  0
  -18.0346  -26.0084   22.9033 H   0  0  0  0  0  0
  -19.7947  -30.7285   24.2262 H   0  0  0  0  0  0
  -17.5024  -31.6278   24.5161 H   0  0  0  0  0  0
  -15.5363  -30.2991   23.7655 H   0  0  0  0  0  0
  -15.8689  -28.0815   22.7088 H   0  0  0  0  0  0
  -24.5872  -30.7110   25.7711 H   0  0  0  0  0  0
  -24.8869  -32.2935   26.4775 H   0  0  0  0  0  0
  -25.7964  -30.8955   27.0213 H   0  0  0  0  0  0
  -26.2963  -29.6712   24.1247 H   0  0  0  0  0  0
  -27.4010  -29.7269   25.4783 H   0  0  0  0  0  0
  -27.8855  -30.4251   23.9522 H   0  0  0  0  0  0
  -27.2703  -33.3634   26.2022 H   0  0  0  0  0  0
  -28.3882  -32.6833   25.0287 H   0  0  0  0  0  0
  -28.0731  -31.8441   26.5394 H   0  0  0  0  0  0
  -28.2604  -38.0077   24.7513 H   0  0  0  0  0  0
  -28.1069  -36.2608   24.6303 H   0  0  0  0  0  0
  -27.2296  -37.1445   25.8873 H   0  0  0  0  0  0
  -20.9459  -29.8736   21.6793 H   0  0  0  0  0  0
  -26.0168  -38.2831   24.1409 H   0  0  0  0  0  0
  -27.8136  -18.8579   19.4770 H   0  0  0  0  0  0
  -28.4317  -22.6537   17.6170 H   0  0  0  0  0  0
  -27.9351  -24.4084   17.8272 H   0  0  0  0  0  0
  -30.2064  -24.9276   18.7443 H   0  0  0  0  0  0
  -30.6843  -23.1659   18.5424 H   0  0  0  0  0  0
  -32.4685  -19.5211   21.0719 H   0  0  0  0  0  0
  -31.6354  -19.4798   22.6346 H   0  0  0  0  0  0
  -32.2160  -21.0074   21.9814 H   0  0  0  0  0  0
  -30.9870  -17.5530   21.4733 H   0  0  0  0  0  0
  -31.1175  -17.5866   19.7600 H   0  0  0  0  0  0
  -28.5110  -24.6253   21.5352 H   0  0  0  0  0  0
  -27.0501  -24.4988   20.6334 H   0  0  0  0  0  0
  -28.8292  -15.9848   20.6848 H   0  0  0  0  0  0
  1 25  1  0  0  0
  1 30  2  0  0  0
  1 83  1  0  0  0
  2  3  1  0  0  0
  2 25  1  0  0  0
  2 84  1  0  0  0
  2 85  1  0  0  0
  3  4  1  0  0  0
  3 86  1  0  0  0
  3 87  1  0  0  0
  4  5  1  0  0  0
  4 88  1  0  0  0
  4 89  1  0  0  0
  5  6  1  0  0  0
  5 26  1  0  0  0
  5 90  1  0  0  0
  6 25  1  0  0  0
  6 91  1  0  0  0
  6 92  1  0  0  0
  7  8  2  0  0  0
  7 26  1  0  0  0
  7 29  1  0  0  0
  8  9  1  0  0  0
  8 22  1  0  0  0
  9 10  1  0  0  0
  9 27  2  0  0  0
 10 11  2  0  0  0
 10 15  1  0  0  0
 11 12  1  0  0  0
 11 93  1  0  0  0
 12 13  2  0  0  0
 12 94  1  0  0  0
 13 14  1  0  0  0
 13 31  1  0  0  0
 14 15  2  0  0  0
 14 95  1  0  0  0
 15 96  1  0  0  0
 16 17  2  0  0  0
 16 21  1  0  0  0
 16 31  1  0  0  0
 17 18  1  0  0  0
 17 97  1  0  0  0
 18 19  2  0  0  0
 18 98  1  0  0  0
 19 20  1  0  0  0
 19 24  1  0  0  0
 20 21  2  0  0  0
 20 99  1  0  0  0
 21 23  1  0  0  0
 22 28  1  0  0  0
 22 32  2  0  0  0
 26 27  1  0  0  0
 28100  1  0  0  0
 28101  1  0  0  0
 29102  1  0  0  0
 29103  1  0  0  0
 33 34  1  0  0  0
 33 66  1  0  0  0
 33 70  2  0  0  0
 34 36  1  0  0  0
 34 59  1  0  0  0
 34104  1  0  0  0
 35 44  2  0  0  0
 35 45  1  0  0  0
 35 68  1  0  0  0
 36 56  1  0  0  0
 36105  1  0  0  0
 37 39  1  0  0  0
 37 47  1  0  0  0
 37 66  1  0  0  0
 37106  1  0  0  0
 38 43  2  0  0  0
 38 46  1  0  0  0
 38 47  1  0  0  0
 39 64  1  0  0  0
 39 67  2  0  0  0
 40 52  1  0  0  0
 40 53  2  0  0  0
 40 58  1  0  0  0
 41107  1  0  0  0
 41108  1  0  0  0
 41109  1  0  0  0
 41 48  1  0  0  0
 42 43  1  0  0  0
 42 66  1  0  0  0
 42110  1  0  0  0
 42111  1  0  0  0
 43 44  1  0  0  0
 44112  1  0  0  0
 45 46  2  0  0  0
 45113  1  0  0  0
 46114  1  0  0  0
 47115  1  0  0  0
 47116  1  0  0  0
 48 56  1  0  0  0
 48 65  1  0  0  0
 48117  1  0  0  0
 49 50  1  0  0  0
 49 53  1  0  0  0
 49 64  1  0  0  0
 49118  1  0  0  0
 50 51  1  0  0  0
 50119  1  0  0  0
 50120  1  0  0  0
 51 52  1  0  0  0
 51121  1  0  0  0
 51122  1  0  0  0
 52123  1  0  0  0
 52124  1  0  0  0
 53 54  1  0  0  0
 54 55  2  0  0  0
 54125  1  0  0  0
 55 57  1  0  0  0
 55126  1  0  0  0
 56 69  2  0  0  0
 57 58  2  0  0  0
 57127  1  0  0  0
 58128  1  0  0  0
 59 60  1  0  0  0
 59 61  1  0  0  0
 59 62  1  0  0  0
 60129  1  0  0  0
 60130  1  0  0  0
 60131  1  0  0  0
 61132  1  0  0  0
 61133  1  0  0  0
 61134  1  0  0  0
 62135  1  0  0  0
 62136  1  0  0  0
 62137  1  0  0  0
 63 65  1  0  0  0
 63138  1  0  0  0
 63139  1  0  0  0
 63140  1  0  0  0
 64141  1  0  0  0
 65142  1  0  0  0
 68 80  1  0  0  0
 71 72  2  0  0  0
 71 81  1  0  0  0
 71143  1  0  0  0
 72 73  1  0  0  0
 72 79  1  0  0  0
 73 78  1  0  0  0
 73 82  2  0  0  0
 74 77  1  0  0  0
 74 81  2  0  0  0
 74 82  1  0  0  0
 75 76  1  0  0  0
 75 77  1  0  0  0
 75144  1  0  0  0
 75145  1  0  0  0
 76 77  1  0  0  0
 76146  1  0  0  0
 76147  1  0  0  0
 77 80  1  0  0  0
 78148  1  0  0  0
 78149  1  0  0  0
 78150  1  0  0  0
 79 83  1  0  0  0
 79151  1  0  0  0
 79152  1  0  0  0
 80153  1  0  0  0
 80154  1  0  0  0
 83155  1  0  0  0
M  ISO  4   1 100  68 101  80 101  83 100
M  END
> <chiral flag>
0

> <version>
0

> <s_m_source_file>
/data/baiqing/PycharmProjects/Reinvent-master-3.2/result/LINK_invent/BTK/process_docking_weight1_custom_sum_contain_oxygen_bond_distance_aromatic_linkinvent_7_9_3/rearranged_h_0180.sdf

> <i_m_source_file_index>
5

> <r_mmod_Potential_Energy-OPLS-2005>
112.28205871582

> <r_mmod_Stretch_Energy-OPLS-2005>
220.523330688477

> <r_mmod_Bend_Energy-OPLS-2005>
274.751953125

> <r_mmod_Torsional_Energy-OPLS-2005>
227.500045776367

> <r_mmod_Improper_Torsional_Energy-OPLS-2005>
7.66143465042114

> <r_mmod_Van_der_Waal_Energy-OPLS-2005>
135.866394042969

> <r_mmod_Electrostatic_Energy-OPLS-2005>
-681.980529785156

> <r_mmod_Solvation_Energy-OPLS-2005>
-233.335021972656

> <b_mmod_Minimization_Converged-OPLS-2005>
0

> <r_mmod_RMS_Derivative-OPLS-2005>
1.51069748401642

$$$$
5
                    3D
 Structure written by MMmdl.
155164  0  0  1  0            999 V2000
  -30.5918  -14.7893   20.4185 C   0  0  0  0  0  0
  -30.4329  -12.4806   19.4641 C   0  0  0  0  0  0
  -29.5043  -12.4969   18.2299 C   0  0  0  0  0  0
  -28.0343  -12.3108   18.6540 C   0  0  0  0  0  0
  -27.6337  -13.2200   19.8459 C   0  0  2  0  0  0
  -28.6858  -13.1998   20.9740 C   0  0  0  0  0  0
  -25.2514  -13.8162   20.5738 C   0  0  0  0  0  0
  -24.1789  -13.0425   20.9226 C   0  0  0  0  0  0
  -24.6364  -11.6897   20.8770 C   0  0  0  0  0  0
  -23.9047  -10.4281   21.0424 C   0  0  0  0  0  0
  -24.3610   -9.4199   21.9195 C   0  0  0  0  0  0
  -23.6294   -8.2232   22.0752 C   0  0  0  0  0  0
  -22.4280   -8.0270   21.3540 C   0  0  0  0  0  0
  -21.9907   -9.0243   20.4651 C   0  0  0  0  0  0
  -22.7226  -10.2124   20.3067 C   0  0  0  0  0  0
  -21.6847   -6.0737   22.5281 C   0  0  0  0  0  0
  -21.4009   -6.5642   23.8215 C   0  0  0  0  0  0
  -21.3661   -5.6796   24.9178 C   0  0  0  0  0  0
  -21.6044   -4.3058   24.7228 C   0  0  0  0  0  0
  -21.8822   -3.8150   23.4349 C   0  0  0  0  0  0
  -21.9192   -4.6966   22.3404 C   0  0  0  0  0  0
  -22.7817  -13.5219   21.1877 C   0  0  0  0  0  0
  -22.1658   -4.2153   21.0980 F   0  0  0  0  0  0
  -21.5635   -3.4541   25.7737 F   0  0  0  0  0  0
  -29.9723  -13.5581   20.3681 N   0  0  0  0  0  0
  -26.2907  -12.9327   20.3320 N   0  0  0  0  0  0
  -25.9292  -11.6489   20.5795 N   0  0  0  0  0  0
  -22.0463  -12.8205   22.0431 N   0  0  0  0  0  0
  -25.4258  -15.1888   20.4184 N   0  0  0  0  0  0
  -31.8105  -14.8612   20.2321 O   0  0  0  0  0  0
  -21.6638   -6.8876   21.4240 O   0  0  0  0  0  0
  -22.3508  -14.5534   20.6733 O   0  0  0  0  0  0
  -24.6329  -31.8540   23.1955 C   0  0  0  0  0  0
  -25.9151  -32.4747   23.8306 C   0  0  1  0  0  0
  -27.2238  -27.2483   20.1386 C   0  0  0  0  0  0
  -25.5932  -33.8547   24.2232 N   0  0  0  0  0  0
  -23.4306  -30.4739   21.5403 C   0  0  2  0  0  0
  -24.8794  -28.9111   20.1167 C   0  0  0  0  0  0
  -22.7501  -29.4602   22.4918 C   0  0  0  0  0  0
  -18.0289  -28.1393   22.8494 C   0  0  0  0  0  0
  -24.1492  -36.7282   23.2637 C   0  0  0  0  0  0
  -25.9759  -30.7622   21.3770 C   0  0  0  0  0  0
  -26.0503  -29.3794   20.7272 C   0  0  0  0  0  0
  -27.2273  -28.5611   20.7270 C   0  0  0  0  0  0
  -26.0324  -26.8475   19.5008 C   0  0  0  0  0  0
  -24.8745  -27.6525   19.4937 C   0  0  0  0  0  0
  -23.6506  -29.8012   20.1594 C   0  0  0  0  0  0
  -25.4119  -36.3063   24.0320 C   0  0  1  0  0  0
  -20.5893  -28.3710   23.1268 C   0  0  2  0  0  0
  -20.6779  -26.9427   22.5416 C   0  0  0  0  0  0
  -19.5751  -26.6391   21.5221 C   0  0  0  0  0  0
  -18.1930  -26.7938   22.1632 C   0  0  0  0  0  0
  -19.1544  -28.8871   23.2874 C   0  0  0  0  0  0
  -18.9469  -30.1471   23.8893 C   0  0  0  0  0  0
  -17.6472  -30.6597   24.0572 C   0  0  0  0  0  0
  -25.9068  -34.9436   23.5080 C   0  0  0  0  0  0
  -16.5361  -29.9096   23.6334 C   0  0  0  0  0  0
  -16.7281  -28.6511   23.0361 C   0  0  0  0  0  0
  -26.4505  -31.6579   25.0706 C   0  0  0  0  0  0
  -25.3712  -31.3743   26.1417 C   0  0  0  0  0  0
  -27.0360  -30.2993   24.6211 C   0  0  0  0  0  0
  -27.6058  -32.4317   25.7485 C   0  0  0  0  0  0
  -27.5580  -37.1786   24.8454 C   0  0  0  0  0  0
  -21.4213  -29.3051   22.3652 N   0  0  0  0  0  0
  -26.4285  -37.3766   23.9415 N   0  0  0  0  0  0
  -24.6990  -31.0482   22.0942 N   0  0  0  0  0  0
  -23.4187  -28.8148   23.3033 O   0  0  0  0  0  0
  -28.3245  -26.3593   20.0987 O   0  0  0  0  0  0
  -26.5648  -34.8916   22.4658 O   0  0  0  0  0  0
  -23.5482  -32.1367   23.7247 O   0  0  0  0  0  0
  -28.6739  -23.8082   19.8719 C   0  0  0  0  0  0
  -27.8885  -23.6434   22.3924 C   0  0  0  0  0  0
  -28.6379  -22.5182   20.5313 C   0  0  0  0  0  0
  -28.2706  -25.0051   20.5749 C   0  0  0  0  0  0
  -29.4747  -17.9868   18.9448 C   0  0  0  0  0  0
  -29.3716  -16.4335   19.0247 C   0  0  0  0  0  0
  -30.0002  -17.2608   21.1092 C   0  0  0  0  0  0
  -29.2266  -18.4583   20.3719 C   0  0  1  0  0  0
  -28.8912  -21.0841   19.8735 C   0  0  0  0  0  0
  -28.2480  -22.4912   21.8195 N   0  0  0  0  0  0
  -27.8748  -24.8624   21.8524 N   0  0  0  0  0  0
  -29.8029  -15.9502   20.3608 N   0  0  0  0  0  0
  -29.5065  -19.9479   20.7056 N   0  3  0  0  0  0
  -31.4707  -12.6198   19.1551 H   0  0  0  0  0  0
  -30.3934  -11.5147   19.9709 H   0  0  0  0  0  0
  -29.7914  -11.7119   17.5296 H   0  0  0  0  0  0
  -29.6162  -13.4409   17.6943 H   0  0  0  0  0  0
  -27.9031  -11.2636   18.9287 H   0  0  0  0  0  0
  -27.3715  -12.4861   17.8057 H   0  0  0  0  0  0
  -27.6032  -14.2268   19.4422 H   0  0  0  0  0  0
  -28.7401  -12.2177   21.4460 H   0  0  0  0  0  0
  -28.4206  -13.9112   21.7587 H   0  0  0  0  0  0
  -25.2758   -9.5677   22.4764 H   0  0  0  0  0  0
  -24.0009   -7.4619   22.7459 H   0  0  0  0  0  0
  -21.0842   -8.8766   19.8946 H   0  0  0  0  0  0
  -22.3695  -10.9669   19.6177 H   0  0  0  0  0  0
  -21.1993   -7.6150   23.9716 H   0  0  0  0  0  0
  -21.1480   -6.0530   25.9080 H   0  0  0  0  0  0
  -22.0598   -2.7612   23.2853 H   0  0  0  0  0  0
  -22.4083  -11.9869   22.4821 H   0  0  0  0  0  0
  -21.1077  -13.1227   22.2635 H   0  0  0  0  0  0
  -24.6676  -15.8510   20.5429 H   0  0  0  0  0  0
  -26.2919  -15.6263   20.1350 H   0  0  0  0  0  0
  -26.7219  -32.5395   23.1051 H   0  0  0  0  0  0
  -25.0043  -33.9676   25.0351 H   0  0  0  0  0  0
  -22.7294  -31.2972   21.3895 H   0  0  0  0  0  0
  -23.3763  -35.9600   23.3276 H   0  0  0  0  0  0
  -24.3581  -36.8938   22.2054 H   0  0  0  0  0  0
  -23.7236  -37.6466   23.6689 H   0  0  0  0  0  0
  -26.1132  -31.5187   20.6027 H   0  0  0  0  0  0
  -26.8536  -30.8165   22.0091 H   0  0  0  0  0  0
  -28.1298  -28.9210   21.2005 H   0  0  0  0  0  0
  -25.9916  -25.8831   19.0132 H   0  0  0  0  0  0
  -23.9798  -27.2887   19.0077 H   0  0  0  0  0  0
  -23.7763  -30.5735   19.3996 H   0  0  0  0  0  0
  -22.7686  -29.2346   19.8550 H   0  0  0  0  0  0
  -25.1303  -36.1898   25.0810 H   0  0  0  0  0  0
  -20.9990  -28.3297   24.1384 H   0  0  0  0  0  0
  -20.5677  -26.2325   23.3625 H   0  0  0  0  0  0
  -21.6645  -26.7448   22.1208 H   0  0  0  0  0  0
  -19.6913  -25.6298   21.1251 H   0  0  0  0  0  0
  -19.6682  -27.3200   20.6750 H   0  0  0  0  0  0
  -17.4200  -26.6698   21.4033 H   0  0  0  0  0  0
  -18.0329  -26.0078   22.9027 H   0  0  0  0  0  0
  -19.7946  -30.7290   24.2255 H   0  0  0  0  0  0
  -17.5024  -31.6270   24.5181 H   0  0  0  0  0  0
  -15.5361  -30.3001   23.7649 H   0  0  0  0  0  0
  -15.8682  -28.0823   22.7083 H   0  0  0  0  0  0
  -24.5876  -30.7118   25.7719 H   0  0  0  0  0  0
  -24.8927  -32.2926   26.4831 H   0  0  0  0  0  0
  -25.8005  -30.8901   27.0199 H   0  0  0  0  0  0
  -26.2955  -29.6725   24.1230 H   0  0  0  0  0  0
  -27.4027  -29.7269   25.4743 H   0  0  0  0  0  0
  -27.8831  -30.4259   23.9467 H   0  0  0  0  0  0
  -27.2670  -33.3621   26.2057 H   0  0  0  0  0  0
  -28.3874  -32.6876   25.0318 H   0  0  0  0  0  0
  -28.0722  -31.8448   26.5409 H   0  0  0  0  0  0
  -28.2569  -38.0111   24.7542 H   0  0  0  0  0  0
  -28.1111  -36.2646   24.6237 H   0  0  0  0  0  0
  -27.2302  -37.1373   25.8854 H   0  0  0  0  0  0
  -20.9409  -29.8768   21.6844 H   0  0  0  0  0  0
  -26.0163  -38.2828   24.1451 H   0  0  0  0  0  0
  -28.9871  -23.8794   18.8386 H   0  0  0  0  0  0
  -27.5645  -23.5779   23.4198 H   0  0  0  0  0  0
  -28.7638  -18.4081   18.2328 H   0  0  0  0  0  0
  -30.4762  -18.2741   18.6209 H   0  0  0  0  0  0
  -29.9391  -15.9715   18.2142 H   0  0  0  0  0  0
  -28.3305  -16.1556   18.8730 H   0  0  0  0  0  0
  -29.6533  -17.1496   22.1374 H   0  0  0  0  0  0
  -31.0700  -17.4740   21.1554 H   0  0  0  0  0  0
  -28.1630  -18.3181   20.5744 H   0  0  0  0  0  0
  -29.4873  -21.2140   18.9707 H   0  0  0  0  0  0
  -27.9143  -20.7417   19.5322 H   0  0  0  0  0  0
  -30.4979  -20.1145   20.7257 H   0  0  0  0  0  0
  -29.1702  -20.1315   21.6383 H   0  0  0  0  0  0
  1 25  1  0  0  0
  1 30  2  0  0  0
  1 82  1  0  0  0
  2  3  1  0  0  0
  2 25  1  0  0  0
  2 84  1  0  0  0
  2 85  1  0  0  0
  3  4  1  0  0  0
  3 86  1  0  0  0
  3 87  1  0  0  0
  4  5  1  0  0  0
  4 88  1  0  0  0
  4 89  1  0  0  0
  5  6  1  0  0  0
  5 26  1  0  0  0
  5 90  1  0  0  0
  6 25  1  0  0  0
  6 91  1  0  0  0
  6 92  1  0  0  0
  7  8  2  0  0  0
  7 26  1  0  0  0
  7 29  1  0  0  0
  8  9  1  0  0  0
  8 22  1  0  0  0
  9 10  1  0  0  0
  9 27  2  0  0  0
 10 11  2  0  0  0
 10 15  1  0  0  0
 11 12  1  0  0  0
 11 93  1  0  0  0
 12 13  2  0  0  0
 12 94  1  0  0  0
 13 14  1  0  0  0
 13 31  1  0  0  0
 14 15  2  0  0  0
 14 95  1  0  0  0
 15 96  1  0  0  0
 16 17  2  0  0  0
 16 21  1  0  0  0
 16 31  1  0  0  0
 17 18  1  0  0  0
 17 97  1  0  0  0
 18 19  2  0  0  0
 18 98  1  0  0  0
 19 20  1  0  0  0
 19 24  1  0  0  0
 20 21  2  0  0  0
 20 99  1  0  0  0
 21 23  1  0  0  0
 22 28  1  0  0  0
 22 32  2  0  0  0
 26 27  1  0  0  0
 28100  1  0  0  0
 28101  1  0  0  0
 29102  1  0  0  0
 29103  1  0  0  0
 33 34  1  0  0  0
 33 66  1  0  0  0
 33 70  2  0  0  0
 34 36  1  0  0  0
 34 59  1  0  0  0
 34104  1  0  0  0
 35 44  2  0  0  0
 35 45  1  0  0  0
 35 68  1  0  0  0
 36 56  1  0  0  0
 36105  1  0  0  0
 37 39  1  0  0  0
 37 47  1  0  0  0
 37 66  1  0  0  0
 37106  1  0  0  0
 38 43  2  0  0  0
 38 46  1  0  0  0
 38 47  1  0  0  0
 39 64  1  0  0  0
 39 67  2  0  0  0
 40 52  1  0  0  0
 40 53  2  0  0  0
 40 58  1  0  0  0
 41107  1  0  0  0
 41108  1  0  0  0
 41109  1  0  0  0
 41 48  1  0  0  0
 42 43  1  0  0  0
 42 66  1  0  0  0
 42110  1  0  0  0
 42111  1  0  0  0
 43 44  1  0  0  0
 44112  1  0  0  0
 45 46  2  0  0  0
 45113  1  0  0  0
 46114  1  0  0  0
 47115  1  0  0  0
 47116  1  0  0  0
 48 56  1  0  0  0
 48 65  1  0  0  0
 48117  1  0  0  0
 49 50  1  0  0  0
 49 53  1  0  0  0
 49 64  1  0  0  0
 49118  1  0  0  0
 50 51  1  0  0  0
 50119  1  0  0  0
 50120  1  0  0  0
 51 52  1  0  0  0
 51121  1  0  0  0
 51122  1  0  0  0
 52123  1  0  0  0
 52124  1  0  0  0
 53 54  1  0  0  0
 54 55  2  0  0  0
 54125  1  0  0  0
 55 57  1  0  0  0
 55126  1  0  0  0
 56 69  2  0  0  0
 57 58  2  0  0  0
 57127  1  0  0  0
 58128  1  0  0  0
 59 60  1  0  0  0
 59 61  1  0  0  0
 59 62  1  0  0  0
 60129  1  0  0  0
 60130  1  0  0  0
 60131  1  0  0  0
 61132  1  0  0  0
 61133  1  0  0  0
 61134  1  0  0  0
 62135  1  0  0  0
 62136  1  0  0  0
 62137  1  0  0  0
 63 65  1  0  0  0
 63138  1  0  0  0
 63139  1  0  0  0
 63140  1  0  0  0
 64141  1  0  0  0
 65142  1  0  0  0
 68 74  1  0  0  0
 71 73  2  0  0  0
 71 74  1  0  0  0
 71143  1  0  0  0
 72 80  2  0  0  0
 72 81  1  0  0  0
 72144  1  0  0  0
 73 79  1  0  0  0
 73 80  1  0  0  0
 74 81  2  0  0  0
 75 76  1  0  0  0
 75 78  1  0  0  0
 75145  1  0  0  0
 75146  1  0  0  0
 76 82  1  0  0  0
 76147  1  0  0  0
 76148  1  0  0  0
 77 78  1  0  0  0
 77 82  1  0  0  0
 77149  1  0  0  0
 77150  1  0  0  0
 78 83  1  0  0  0
 78151  1  0  0  0
 79 83  1  0  0  0
 79152  1  0  0  0
 79153  1  0  0  0
 83154  1  0  0  0
 83155  1  0  0  0
M  CHG  1  83   1
M  ISO  4   1 100  68 101  74 101  82 100
M  END
> <chiral flag>
0

> <version>
0

> <s_m_source_file>
/data/baiqing/PycharmProjects/Reinvent-master-3.2/result/LINK_invent/BTK/process_docking_weight1_custom_sum_contain_oxygen_bond_distance_aromatic_linkinvent_7_9_3/rearranged_h_0180.sdf

> <i_m_source_file_index>
6

> <r_mmod_Potential_Energy-OPLS-2005>
-348.01025390625

> <r_mmod_Stretch_Energy-OPLS-2005>
116.42057800293

> <r_mmod_Bend_Energy-OPLS-2005>
200.250823974609

> <r_mmod_Torsional_Energy-OPLS-2005>
349.464294433594

> <r_mmod_Improper_Torsional_Energy-OPLS-2005>
12.1150016784668

> <r_mmod_Van_der_Waal_Energy-OPLS-2005>
133.293899536133

> <r_mmod_Electrostatic_Energy-OPLS-2005>
-769.449768066406

> <r_mmod_Solvation_Energy-OPLS-2005>
-491.444122314453

> <b_mmod_Minimization_Converged-OPLS-2005>
0

> <r_mmod_RMS_Derivative-OPLS-2005>
1.30218732357025

$$$$
6
                    3D
 Structure written by MMmdl.
167176  0  0  1  0            999 V2000
  -30.7129  -14.4694   20.5765 C   0  0  0  0  0  0
  -30.4177  -12.3099   19.4232 C   0  0  0  0  0  0
  -29.4879  -12.5052   18.2083 C   0  0  0  0  0  0
  -28.0127  -12.3606   18.6227 C   0  0  0  0  0  0
  -27.6597  -13.2055   19.8750 C   0  0  2  0  0  0
  -28.7024  -12.9977   20.9979 C   0  0  0  0  0  0
  -25.2592  -13.8162   20.5716 C   0  0  0  0  0  0
  -24.1826  -13.0438   20.9185 C   0  0  0  0  0  0
  -24.6375  -11.6909   20.8735 C   0  0  0  0  0  0
  -23.9041  -10.4296   21.0400 C   0  0  0  0  0  0
  -24.3608   -9.4215   21.9169 C   0  0  0  0  0  0
  -23.6296   -8.2243   22.0744 C   0  0  0  0  0  0
  -22.4275   -8.0275   21.3542 C   0  0  0  0  0  0
  -21.9904   -9.0243   20.4639 C   0  0  0  0  0  0
  -22.7220  -10.2132   20.3052 C   0  0  0  0  0  0
  -21.6853   -6.0741   22.5281 C   0  0  0  0  0  0
  -21.4015   -6.5641   23.8216 C   0  0  0  0  0  0
  -21.3659   -5.6796   24.9182 C   0  0  0  0  0  0
  -21.6053   -4.3063   24.7232 C   0  0  0  0  0  0
  -21.8822   -3.8148   23.4348 C   0  0  0  0  0  0
  -21.9196   -4.6968   22.3406 C   0  0  0  0  0  0
  -22.7852  -13.5246   21.1855 C   0  0  0  0  0  0
  -22.1665   -4.2150   21.0980 F   0  0  0  0  0  0
  -21.5630   -3.4544   25.7750 F   0  0  0  0  0  0
  -30.0334  -13.2973   20.4450 N   0  0  0  0  0  0
  -26.3004  -12.9325   20.3365 N   0  0  0  0  0  0
  -25.9296  -11.6486   20.5750 N   0  0  0  0  0  0
  -22.0502  -12.8211   22.0404 N   0  0  0  0  0  0
  -25.4377  -15.1871   20.4194 N   0  0  0  0  0  0
  -31.8291  -14.6522   20.0830 O   0  0  0  0  0  0
  -21.6643   -6.8872   21.4241 O   0  0  0  0  0  0
  -22.3540  -14.5559   20.6723 O   0  0  0  0  0  0
  -24.6162  -31.8678   23.2092 C   0  0  0  0  0  0
  -25.9067  -32.4805   23.8386 C   0  0  1  0  0  0
  -27.2296  -27.4212   20.1024 C   0  0  0  0  0  0
  -25.5921  -33.8605   24.2307 N   0  0  0  0  0  0
  -23.4049  -30.4920   21.5484 C   0  0  2  0  0  0
  -24.8558  -28.9648   20.1051 C   0  0  0  0  0  0
  -22.7433  -29.4656   22.4963 C   0  0  0  0  0  0
  -18.0270  -28.1382   22.8469 C   0  0  0  0  0  0
  -24.1493  -36.7300   23.2636 C   0  0  0  0  0  0
  -25.9386  -30.8300   21.3693 C   0  0  0  0  0  0
  -26.0176  -29.4684   20.7053 C   0  0  0  0  0  0
  -27.2123  -28.7060   20.6974 C   0  0  0  0  0  0
  -26.0553  -26.9446   19.4797 C   0  0  0  0  0  0
  -24.8719  -27.7049   19.4833 C   0  0  0  0  0  0
  -23.6136  -29.8277   20.1615 C   0  0  0  0  0  0
  -25.4116  -36.3093   24.0330 C   0  0  1  0  0  0
  -20.5871  -28.3672   23.1320 C   0  0  2  0  0  0
  -20.6742  -26.9384   22.5475 C   0  0  0  0  0  0
  -19.5766  -26.6375   21.5210 C   0  0  0  0  0  0
  -18.1907  -26.7954   22.1540 C   0  0  0  0  0  0
  -19.1525  -28.8836   23.2899 C   0  0  0  0  0  0
  -18.9450  -30.1429   23.8927 C   0  0  0  0  0  0
  -17.6452  -30.6572   24.0572 C   0  0  0  0  0  0
  -25.9044  -34.9466   23.5109 C   0  0  0  0  0  0
  -16.5351  -29.9078   23.6321 C   0  0  0  0  0  0
  -16.7263  -28.6499   23.0336 C   0  0  0  0  0  0
  -26.4458  -31.6616   25.0750 C   0  0  0  0  0  0
  -25.3671  -31.3791   26.1465 C   0  0  0  0  0  0
  -27.0271  -30.3015   24.6226 C   0  0  0  0  0  0
  -27.6045  -32.4341   25.7487 C   0  0  0  0  0  0
  -27.5602  -37.1791   24.8438 C   0  0  0  0  0  0
  -21.4157  -29.3024   22.3712 N   0  0  0  0  0  0
  -26.4290  -37.3787   23.9414 N   0  0  0  0  0  0
  -24.6706  -31.0781   22.0993 N   0  0  0  0  0  0
  -23.4205  -28.8206   23.3007 O   0  0  0  0  0  0
  -28.3340  -26.5927   20.1674 O   0  0  0  0  0  0
  -26.5611  -34.8921   22.4671 O   0  0  0  0  0  0
  -23.5357  -32.1434   23.7492 O   0  0  0  0  0  0
  -28.3850  -22.9063   21.3345 C   0  0  0  0  0  0
  -29.0777  -21.7333   20.9499 C   0  0  0  0  0  0
  -28.8185  -24.1373   20.7696 C   0  0  0  0  0  0
  -30.5152  -23.0123   19.7063 C   0  0  0  0  0  0
  -30.6074  -17.5035   23.5712 C   0  0  0  0  0  0
  -31.4714  -17.0934   22.3665 C   0  0  0  0  0  0
  -29.1827  -17.6887   23.0293 C   0  0  0  0  0  0
  -30.4961  -16.8956   21.1905 C   0  0  2  0  0  0
  -29.3468  -17.8932   21.5107 C   0  0  2  0  0  0
  -27.2167  -22.8166   22.3165 C   0  0  0  0  0  0
  -31.7666  -23.0748   18.8591 C   0  0  0  0  0  0
  -28.6586  -20.3278   21.4072 C   0  0  0  0  0  0
  -28.1090  -25.4755   21.0676 C   0  0  0  0  0  0
  -30.1522  -21.8071   20.1410 N   0  0  0  0  0  0
  -29.8973  -24.1627   19.9596 N   0  0  0  0  0  0
  -30.0458  -15.4856   21.1558 N   0  0  0  0  0  0
  -29.7131  -19.3094   21.1908 N   0  3  0  0  0  0
  -31.4601  -12.4064   19.1165 H   0  0  0  0  0  0
  -30.3174  -11.2992   19.8228 H   0  0  0  0  0  0
  -29.7246  -11.7816   17.4273 H   0  0  0  0  0  0
  -29.6528  -13.4919   17.7722 H   0  0  0  0  0  0
  -27.8297  -11.3045   18.8243 H   0  0  0  0  0  0
  -27.3591  -12.6285   17.7922 H   0  0  0  0  0  0
  -27.7026  -14.2502   19.5675 H   0  0  0  0  0  0
  -28.6785  -11.9642   21.3485 H   0  0  0  0  0  0
  -28.4611  -13.6080   21.8688 H   0  0  0  0  0  0
  -25.2758   -9.5707   22.4730 H   0  0  0  0  0  0
  -24.0031   -7.4646   22.7457 H   0  0  0  0  0  0
  -21.0843   -8.8747   19.8942 H   0  0  0  0  0  0
  -22.3655  -10.9675   19.6166 H   0  0  0  0  0  0
  -21.1998   -7.6158   23.9716 H   0  0  0  0  0  0
  -21.1477   -6.0529   25.9082 H   0  0  0  0  0  0
  -22.0596   -2.7611   23.2851 H   0  0  0  0  0  0
  -22.4143  -11.9860   22.4753 H   0  0  0  0  0  0
  -21.1107  -13.1197   22.2621 H   0  0  0  0  0  0
  -24.6822  -15.8521   20.5436 H   0  0  0  0  0  0
  -26.2974  -15.6201   20.1077 H   0  0  0  0  0  0
  -26.7146  -32.5514   23.1158 H   0  0  0  0  0  0
  -25.0077  -33.9754   25.0458 H   0  0  0  0  0  0
  -22.6918  -31.3084   21.4123 H   0  0  0  0  0  0
  -23.3754  -35.9625   23.3266 H   0  0  0  0  0  0
  -24.3599  -36.8949   22.2057 H   0  0  0  0  0  0
  -23.7236  -37.6486   23.6678 H   0  0  0  0  0  0
  -26.0695  -31.6079   20.6158 H   0  0  0  0  0  0
  -26.8190  -30.8679   21.9993 H   0  0  0  0  0  0
  -28.1048  -29.0851   21.1747 H   0  0  0  0  0  0
  -26.0489  -25.9668   19.0168 H   0  0  0  0  0  0
  -23.9798  -27.3176   19.0102 H   0  0  0  0  0  0
  -23.7085  -30.6048   19.4018 H   0  0  0  0  0  0
  -22.7403  -29.2415   19.8670 H   0  0  0  0  0  0
  -25.1286  -36.1941   25.0818 H   0  0  0  0  0  0
  -20.9947  -28.3264   24.1450 H   0  0  0  0  0  0
  -20.5533  -26.2293   23.3675 H   0  0  0  0  0  0
  -21.6637  -26.7350   22.1370 H   0  0  0  0  0  0
  -19.6926  -25.6282   21.1242 H   0  0  0  0  0  0
  -19.6767  -27.3182   20.6744 H   0  0  0  0  0  0
  -17.4235  -26.6803   21.3864 H   0  0  0  0  0  0
  -18.0200  -26.0056   22.8862 H   0  0  0  0  0  0
  -19.7920  -30.7229   24.2339 H   0  0  0  0  0  0
  -17.5006  -31.6243   24.5183 H   0  0  0  0  0  0
  -15.5350  -30.2989   23.7632 H   0  0  0  0  0  0
  -15.8659  -28.0825   22.7046 H   0  0  0  0  0  0
  -24.6142  -30.6720   25.7952 H   0  0  0  0  0  0
  -24.8467  -32.2901   26.4431 H   0  0  0  0  0  0
  -25.8043  -30.9509   27.0493 H   0  0  0  0  0  0
  -26.2857  -29.6830   24.1149 H   0  0  0  0  0  0
  -27.3804  -29.7225   25.4774 H   0  0  0  0  0  0
  -27.8797  -30.4239   23.9541 H   0  0  0  0  0  0
  -27.2664  -33.3626   26.2086 H   0  0  0  0  0  0
  -28.3812  -32.6927   25.0284 H   0  0  0  0  0  0
  -28.0759  -31.8470   26.5369 H   0  0  0  0  0  0
  -28.2611  -38.0099   24.7491 H   0  0  0  0  0  0
  -28.1103  -36.2635   24.6204 H   0  0  0  0  0  0
  -27.2355  -37.1392   25.8851 H   0  0  0  0  0  0
  -20.9328  -29.8745   21.6934 H   0  0  0  0  0  0
  -26.0174  -38.2854   24.1448 H   0  0  0  0  0  0
  -30.9790  -18.4319   24.0071 H   0  0  0  0  0  0
  -30.6313  -16.7502   24.3599 H   0  0  0  0  0  0
  -32.0881  -16.2175   22.5725 H   0  0  0  0  0  0
  -32.1627  -17.9032   22.1256 H   0  0  0  0  0  0
  -28.6364  -18.4757   23.5465 H   0  0  0  0  0  0
  -28.6195  -16.7706   23.2051 H   0  0  0  0  0  0
  -30.9674  -17.1379   20.2350 H   0  0  0  0  0  0
  -28.4346  -17.6352   20.9687 H   0  0  0  0  0  0
  -27.5163  -22.2857   23.2208 H   0  0  0  0  0  0
  -26.3792  -22.2811   21.8681 H   0  0  0  0  0  0
  -26.8471  -23.7807   22.6597 H   0  0  0  0  0  0
  -32.4203  -22.2273   19.0676 H   0  0  0  0  0  0
  -32.3308  -23.9835   19.0654 H   0  0  0  0  0  0
  -31.5110  -23.0585   17.8004 H   0  0  0  0  0  0
  -27.7530  -20.0423   20.8707 H   0  0  0  0  0  0
  -28.4137  -20.3648   22.4653 H   0  0  0  0  0  0
  -28.3906  -25.7864   22.0744 H   0  0  0  0  0  0
  -27.0465  -25.2437   21.1160 H   0  0  0  0  0  0
  -29.1366  -15.2716   21.5385 H   0  0  0  0  0  0
  -29.9663  -19.4106   20.2200 H   0  0  0  0  0  0
  -30.5143  -19.6100   21.7194 H   0  0  0  0  0  0
  1 25  1  0  0  0
  1 30  2  0  0  0
  1 86  1  0  0  0
  2  3  1  0  0  0
  2 25  1  0  0  0
  2 88  1  0  0  0
  2 89  1  0  0  0
  3  4  1  0  0  0
  3 90  1  0  0  0
  3 91  1  0  0  0
  4  5  1  0  0  0
  4 92  1  0  0  0
  4 93  1  0  0  0
  5  6  1  0  0  0
  5 26  1  0  0  0
  5 94  1  0  0  0
  6 25  1  0  0  0
  6 95  1  0  0  0
  6 96  1  0  0  0
  7  8  2  0  0  0
  7 26  1  0  0  0
  7 29  1  0  0  0
  8  9  1  0  0  0
  8 22  1  0  0  0
  9 10  1  0  0  0
  9 27  2  0  0  0
 10 11  2  0  0  0
 10 15  1  0  0  0
 11 12  1  0  0  0
 11 97  1  0  0  0
 12 13  2  0  0  0
 12 98  1  0  0  0
 13 14  1  0  0  0
 13 31  1  0  0  0
 14 15  2  0  0  0
 14 99  1  0  0  0
 15100  1  0  0  0
 16 17  2  0  0  0
 16 21  1  0  0  0
 16 31  1  0  0  0
 17 18  1  0  0  0
 17101  1  0  0  0
 18 19  2  0  0  0
 18102  1  0  0  0
 19 20  1  0  0  0
 19 24  1  0  0  0
 20 21  2  0  0  0
 20103  1  0  0  0
 21 23  1  0  0  0
 22 28  1  0  0  0
 22 32  2  0  0  0
 26 27  1  0  0  0
 28104  1  0  0  0
 28105  1  0  0  0
 29106  1  0  0  0
 29107  1  0  0  0
 33 34  1  0  0  0
 33 66  1  0  0  0
 33 70  2  0  0  0
 34 36  1  0  0  0
 34 59  1  0  0  0
 34108  1  0  0  0
 35 44  2  0  0  0
 35 45  1  0  0  0
 35 68  1  0  0  0
 36 56  1  0  0  0
 36109  1  0  0  0
 37 39  1  0  0  0
 37 47  1  0  0  0
 37 66  1  0  0  0
 37110  1  0  0  0
 38 43  2  0  0  0
 38 46  1  0  0  0
 38 47  1  0  0  0
 39 64  1  0  0  0
 39 67  2  0  0  0
 40 52  1  0  0  0
 40 53  2  0  0  0
 40 58  1  0  0  0
 41111  1  0  0  0
 41112  1  0  0  0
 41113  1  0  0  0
 41 48  1  0  0  0
 42 43  1  0  0  0
 42 66  1  0  0  0
 42114  1  0  0  0
 42115  1  0  0  0
 43 44  1  0  0  0
 44116  1  0  0  0
 45 46  2  0  0  0
 45117  1  0  0  0
 46118  1  0  0  0
 47119  1  0  0  0
 47120  1  0  0  0
 48 56  1  0  0  0
 48 65  1  0  0  0
 48121  1  0  0  0
 49 50  1  0  0  0
 49 53  1  0  0  0
 49 64  1  0  0  0
 49122  1  0  0  0
 50 51  1  0  0  0
 50123  1  0  0  0
 50124  1  0  0  0
 51 52  1  0  0  0
 51125  1  0  0  0
 51126  1  0  0  0
 52127  1  0  0  0
 52128  1  0  0  0
 53 54  1  0  0  0
 54 55  2  0  0  0
 54129  1  0  0  0
 55 57  1  0  0  0
 55130  1  0  0  0
 56 69  2  0  0  0
 57 58  2  0  0  0
 57131  1  0  0  0
 58132  1  0  0  0
 59 60  1  0  0  0
 59 61  1  0  0  0
 59 62  1  0  0  0
 60133  1  0  0  0
 60134  1  0  0  0
 60135  1  0  0  0
 61136  1  0  0  0
 61137  1  0  0  0
 61138  1  0  0  0
 62139  1  0  0  0
 62140  1  0  0  0
 62141  1  0  0  0
 63 65  1  0  0  0
 63142  1  0  0  0
 63143  1  0  0  0
 63144  1  0  0  0
 64145  1  0  0  0
 65146  1  0  0  0
 68 83  1  0  0  0
 71 72  2  0  0  0
 71 73  1  0  0  0
 71 80  1  0  0  0
 72 82  1  0  0  0
 72 84  1  0  0  0
 73 83  1  0  0  0
 73 85  2  0  0  0
 74 81  1  0  0  0
 74 84  2  0  0  0
 74 85  1  0  0  0
 75 76  1  0  0  0
 75 77  1  0  0  0
 75147  1  0  0  0
 75148  1  0  0  0
 76 78  1  0  0  0
 76149  1  0  0  0
 76150  1  0  0  0
 77 79  1  0  0  0
 77151  1  0  0  0
 77152  1  0  0  0
 78 79  1  0  0  0
 78 86  1  0  0  0
 78153  1  0  0  0
 79 87  1  0  0  0
 79154  1  0  0  0
 80155  1  0  0  0
 80156  1  0  0  0
 80157  1  0  0  0
 81158  1  0  0  0
 81159  1  0  0  0
 81160  1  0  0  0
 82 87  1  0  0  0
 82161  1  0  0  0
 82162  1  0  0  0
 83163  1  0  0  0
 83164  1  0  0  0
 86165  1  0  0  0
 87166  1  0  0  0
 87167  1  0  0  0
M  CHG  1  87   1
M  ISO  4   1 100  68 101  83 101  86 100
M  END
> <chiral flag>
0

> <version>
0

> <s_m_source_file>
/data/baiqing/PycharmProjects/Reinvent-master-3.2/result/LINK_invent/BTK/process_docking_weight1_custom_sum_contain_oxygen_bond_distance_aromatic_linkinvent_7_9_3/rearranged_h_0180.sdf

> <i_m_source_file_index>
7

> <r_mmod_Potential_Energy-OPLS-2005>
-703.181396484375

> <r_mmod_Stretch_Energy-OPLS-2005>
41.6446075439453

> <r_mmod_Bend_Energy-OPLS-2005>
126.961563110352

> <r_mmod_Torsional_Energy-OPLS-2005>
278.598571777344

> <r_mmod_Improper_Torsional_Energy-OPLS-2005>
3.2006094455719

> <r_mmod_Van_der_Waal_Energy-OPLS-2005>
167.617248535156

> <r_mmod_Electrostatic_Energy-OPLS-2005>
-858.070007324219

> <r_mmod_Solvation_Energy-OPLS-2005>
-480.444091796875

> <b_mmod_Minimization_Converged-OPLS-2005>
0

> <r_mmod_RMS_Derivative-OPLS-2005>
2.3123676776886

$$$$
7
                    3D
 Structure written by MMmdl.
158168  0  0  1  0            999 V2000
  -30.5450  -14.9402   20.4404 C   0  0  0  0  0  0
  -30.4453  -12.5920   19.4910 C   0  0  0  0  0  0
  -29.5211  -12.5285   18.2520 C   0  0  0  0  0  0
  -28.0542  -12.3161   18.6716 C   0  0  0  0  0  0
  -27.6303  -13.2477   19.8359 C   0  0  2  0  0  0
  -28.6746  -13.2677   20.9719 C   0  0  0  0  0  0
  -25.2455  -13.8212   20.5725 C   0  0  0  0  0  0
  -24.1788  -13.0456   20.9254 C   0  0  0  0  0  0
  -24.6397  -11.6930   20.8764 C   0  0  0  0  0  0
  -23.9084  -10.4299   21.0413 C   0  0  0  0  0  0
  -24.3621   -9.4216   21.9202 C   0  0  0  0  0  0
  -23.6296   -8.2248   22.0767 C   0  0  0  0  0  0
  -22.4286   -8.0277   21.3543 C   0  0  0  0  0  0
  -21.9920   -9.0261   20.4644 C   0  0  0  0  0  0
  -22.7256  -10.2145   20.3059 C   0  0  0  0  0  0
  -21.6847   -6.0743   22.5293 C   0  0  0  0  0  0
  -21.4027   -6.5642   23.8239 C   0  0  0  0  0  0
  -21.3685   -5.6782   24.9190 C   0  0  0  0  0  0
  -21.6041   -4.3045   24.7227 C   0  0  0  0  0  0
  -21.8806   -3.8149   23.4345 C   0  0  0  0  0  0
  -21.9183   -4.6966   22.3407 C   0  0  0  0  0  0
  -22.7791  -13.5210   21.1908 C   0  0  0  0  0  0
  -22.1642   -4.2159   21.0979 F   0  0  0  0  0  0
  -21.5632   -3.4533   25.7734 F   0  0  0  0  0  0
  -29.9491  -13.6834   20.3772 N   0  0  0  0  0  0
  -26.2881  -12.9452   20.3220 N   0  0  0  0  0  0
  -25.9324  -11.6586   20.5718 N   0  0  0  0  0  0
  -22.0408  -12.8232   22.0455 N   0  0  0  0  0  0
  -25.4067  -15.1958   20.4172 N   0  0  0  0  0  0
  -31.7518  -15.0034   20.1764 O   0  0  0  0  0  0
  -21.6637   -6.8892   21.4261 O   0  0  0  0  0  0
  -22.3500  -14.5533   20.6739 O   0  0  0  0  0  0
  -24.6392  -31.8456   23.1888 C   0  0  0  0  0  0
  -25.9184  -32.4711   23.8262 C   0  0  1  0  0  0
  -27.2032  -27.1356   20.1565 C   0  0  0  0  0  0
  -25.5952  -33.8520   24.2194 N   0  0  0  0  0  0
  -23.4426  -30.4619   21.5328 C   0  0  2  0  0  0
  -24.8895  -28.8856   20.1046 C   0  0  0  0  0  0
  -22.7550  -29.4541   22.4880 C   0  0  0  0  0  0
  -18.0309  -28.1397   22.8489 C   0  0  0  0  0  0
  -24.1488  -36.7235   23.2648 C   0  0  0  0  0  0
  -25.9943  -30.7131   21.3924 C   0  0  0  0  0  0
  -26.0593  -29.3229   20.7369 C   0  0  0  0  0  0
  -27.2129  -28.4586   20.7518 C   0  0  0  0  0  0
  -26.0218  -26.8013   19.4647 C   0  0  0  0  0  0
  -24.8822  -27.6396   19.4533 C   0  0  0  0  0  0
  -23.6669  -29.7894   20.1504 C   0  0  0  0  0  0
  -25.4127  -36.3042   24.0322 C   0  0  1  0  0  0
  -20.5918  -28.3715   23.1256 C   0  0  2  0  0  0
  -20.6807  -26.9426   22.5414 C   0  0  0  0  0  0
  -19.5779  -26.6382   21.5227 C   0  0  0  0  0  0
  -18.1955  -26.7940   22.1627 C   0  0  0  0  0  0
  -19.1562  -28.8871   23.2864 C   0  0  0  0  0  0
  -18.9486  -30.1475   23.8886 C   0  0  0  0  0  0
  -17.6482  -30.6590   24.0567 C   0  0  0  0  0  0
  -25.9079  -34.9420   23.5065 C   0  0  0  0  0  0
  -16.5373  -29.9087   23.6344 C   0  0  0  0  0  0
  -16.7295  -28.6503   23.0369 C   0  0  0  0  0  0
  -26.4512  -31.6580   25.0697 C   0  0  0  0  0  0
  -25.3700  -31.3771   26.1395 C   0  0  0  0  0  0
  -27.0399  -30.2982   24.6286 C   0  0  0  0  0  0
  -27.6036  -32.4364   25.7481 C   0  0  0  0  0  0
  -27.5568  -37.1783   24.8474 C   0  0  0  0  0  0
  -21.4252  -29.3039   22.3609 N   0  0  0  0  0  0
  -26.4282  -37.3753   23.9409 N   0  0  0  0  0  0
  -24.7115  -31.0302   22.0932 N   0  0  0  0  0  0
  -23.4195  -28.8128   23.3042 O   0  0  0  0  0  0
  -28.3022  -26.2124   20.1951 O   0  0  0  0  0  0
  -26.5652  -34.8915   22.4636 O   0  0  0  0  0  0
  -23.5524  -32.1361   23.7098 O   0  0  0  0  0  0
  -29.9189  -22.9067   19.8893 C   0  0  0  0  0  0
  -27.4853  -23.6815   20.6885 C   0  0  0  0  0  0
  -29.0579  -21.8451   20.3290 C   0  0  0  0  0  0
  -28.3798  -24.7392   20.2205 C   0  0  0  0  0  0
  -25.7460  -25.0826   22.1535 C   0  0  0  0  0  0
  -25.8229  -23.6749   22.6820 C   0  0  0  0  0  0
  -28.5236  -18.4864   19.1748 C   0  0  0  0  0  0
  -29.9371  -17.9378   18.8454 C   0  0  0  0  0  0
  -26.1014  -23.9445   21.2178 C   0  0  0  0  0  0
  -29.0791  -18.9753   20.5139 C   0  0  1  0  0  0
  -30.1200  -17.6509   20.3409 C   0  0  1  0  0  0
  -29.6062  -24.2571   19.8384 N   0  0  0  0  0  0
  -27.8117  -22.3025   20.7201 N   0  0  0  0  0  0
  -29.5806  -20.4475   20.3697 N   0  0  0  0  0  0
  -29.7652  -16.1240   20.5770 N   0  0  0  0  0  0
  -31.4743  -12.7613   19.1697 H   0  0  0  0  0  0
  -30.4525  -11.6382   20.0204 H   0  0  0  0  0  0
  -29.8389  -11.7276   17.5824 H   0  0  0  0  0  0
  -29.6079  -13.4551   17.6828 H   0  0  0  0  0  0
  -27.9495  -11.2746   18.9779 H   0  0  0  0  0  0
  -27.3919  -12.4483   17.8155 H   0  0  0  0  0  0
  -27.5945  -14.2504   19.4092 H   0  0  0  0  0  0
  -28.7669  -12.2879   21.4406 H   0  0  0  0  0  0
  -28.3795  -13.9673   21.7557 H   0  0  0  0  0  0
  -25.2748   -9.5699   22.4804 H   0  0  0  0  0  0
  -23.9985   -7.4647   22.7494 H   0  0  0  0  0  0
  -21.0850   -8.8798   19.8953 H   0  0  0  0  0  0
  -22.3716  -10.9688   19.6178 H   0  0  0  0  0  0
  -21.2037   -7.6154   23.9757 H   0  0  0  0  0  0
  -21.1524   -6.0509   25.9104 H   0  0  0  0  0  0
  -22.0561   -2.7607   23.2839 H   0  0  0  0  0  0
  -22.3957  -11.9881   22.4866 H   0  0  0  0  0  0
  -21.1044  -13.1326   22.2640 H   0  0  0  0  0  0
  -24.6316  -15.8359   20.5489 H   0  0  0  0  0  0
  -26.2284  -15.6465   20.0383 H   0  0  0  0  0  0
  -26.7234  -32.5316   23.0979 H   0  0  0  0  0  0
  -25.0134  -33.9649   25.0359 H   0  0  0  0  0  0
  -22.7446  -31.2878   21.3791 H   0  0  0  0  0  0
  -23.3770  -35.9543   23.3332 H   0  0  0  0  0  0
  -24.3560  -36.8840   22.2055 H   0  0  0  0  0  0
  -23.7209  -37.6427   23.6666 H   0  0  0  0  0  0
  -26.1558  -31.4675   20.6216 H   0  0  0  0  0  0
  -26.8632  -30.7603   22.0365 H   0  0  0  0  0  0
  -28.1064  -28.7876   21.2611 H   0  0  0  0  0  0
  -25.9625  -25.8535   18.9493 H   0  0  0  0  0  0
  -23.9926  -27.3103   18.9332 H   0  0  0  0  0  0
  -23.8005  -30.5635   19.3951 H   0  0  0  0  0  0
  -22.7812  -29.2302   19.8451 H   0  0  0  0  0  0
  -25.1314  -36.1880   25.0810 H   0  0  0  0  0  0
  -21.0020  -28.3321   24.1375 H   0  0  0  0  0  0
  -20.5742  -26.2330   23.3635 H   0  0  0  0  0  0
  -21.6672  -26.7464   22.1194 H   0  0  0  0  0  0
  -19.6949  -25.6290   21.1275 H   0  0  0  0  0  0
  -19.6720  -27.3185   20.6758 H   0  0  0  0  0  0
  -17.4238  -26.6707   21.4020 H   0  0  0  0  0  0
  -18.0330  -26.0075   22.9015 H   0  0  0  0  0  0
  -19.7962  -30.7293   24.2248 H   0  0  0  0  0  0
  -17.5040  -31.6280   24.5170 H   0  0  0  0  0  0
  -15.5376  -30.2991   23.7675 H   0  0  0  0  0  0
  -15.8701  -28.0820   22.7100 H   0  0  0  0  0  0
  -24.5869  -30.7141   25.7702 H   0  0  0  0  0  0
  -24.8903  -32.2966   26.4771 H   0  0  0  0  0  0
  -25.7975  -30.8962   27.0203 H   0  0  0  0  0  0
  -26.3029  -29.6694   24.1289 H   0  0  0  0  0  0
  -27.4023  -29.7291   25.4858 H   0  0  0  0  0  0
  -27.8928  -30.4237   23.9610 H   0  0  0  0  0  0
  -27.2614  -33.3680   26.2001 H   0  0  0  0  0  0
  -28.3868  -32.6913   25.0326 H   0  0  0  0  0  0
  -28.0690  -31.8541   26.5449 H   0  0  0  0  0  0
  -28.2610  -38.0065   24.7512 H   0  0  0  0  0  0
  -28.1049  -36.2592   24.6330 H   0  0  0  0  0  0
  -27.2285  -37.1460   25.8882 H   0  0  0  0  0  0
  -20.9457  -29.8690   21.6740 H   0  0  0  0  0  0
  -26.0168  -38.2823   24.1413 H   0  0  0  0  0  0
  -30.9233  -22.6669   19.5755 H   0  0  0  0  0  0
  -26.5309  -25.7761   22.4424 H   0  0  0  0  0  0
  -24.7516  -25.5187   22.0628 H   0  0  0  0  0  0
  -24.8864  -23.1882   22.9497 H   0  0  0  0  0  0
  -26.6777  -23.4301   23.3119 H   0  0  0  0  0  0
  -27.7704  -17.7037   19.3034 H   0  0  0  0  0  0
  -28.1561  -19.2749   18.5165 H   0  0  0  0  0  0
  -30.6252  -18.7088   18.4902 H   0  0  0  0  0  0
  -29.9815  -17.0655   18.1892 H   0  0  0  0  0  0
  -25.3434  -23.6340   20.4998 H   0  0  0  0  0  0
  -28.4000  -18.8681   21.3615 H   0  0  0  0  0  0
  -31.1229  -17.8900   20.6946 H   0  0  0  0  0  0
  -30.5343  -20.4456   20.0261 H   0  0  0  0  0  0
  -28.7833  -15.9401   20.7152 H   0  0  0  0  0  0
  1 25  1  0  0  0
  1 30  2  0  0  0
  1 85  1  0  0  0
  2  3  1  0  0  0
  2 25  1  0  0  0
  2 86  1  0  0  0
  2 87  1  0  0  0
  3  4  1  0  0  0
  3 88  1  0  0  0
  3 89  1  0  0  0
  4  5  1  0  0  0
  4 90  1  0  0  0
  4 91  1  0  0  0
  5  6  1  0  0  0
  5 26  1  0  0  0
  5 92  1  0  0  0
  6 25  1  0  0  0
  6 93  1  0  0  0
  6 94  1  0  0  0
  7  8  2  0  0  0
  7 26  1  0  0  0
  7 29  1  0  0  0
  8  9  1  0  0  0
  8 22  1  0  0  0
  9 10  1  0  0  0
  9 27  2  0  0  0
 10 11  2  0  0  0
 10 15  1  0  0  0
 11 12  1  0  0  0
 11 95  1  0  0  0
 12 13  2  0  0  0
 12 96  1  0  0  0
 13 14  1  0  0  0
 13 31  1  0  0  0
 14 15  2  0  0  0
 14 97  1  0  0  0
 15 98  1  0  0  0
 16 17  2  0  0  0
 16 21  1  0  0  0
 16 31  1  0  0  0
 17 18  1  0  0  0
 17 99  1  0  0  0
 18 19  2  0  0  0
 18100  1  0  0  0
 19 20  1  0  0  0
 19 24  1  0  0  0
 20 21  2  0  0  0
 20101  1  0  0  0
 21 23  1  0  0  0
 22 28  1  0  0  0
 22 32  2  0  0  0
 26 27  1  0  0  0
 28102  1  0  0  0
 28103  1  0  0  0
 29104  1  0  0  0
 29105  1  0  0  0
 33 34  1  0  0  0
 33 66  1  0  0  0
 33 70  2  0  0  0
 34 36  1  0  0  0
 34 59  1  0  0  0
 34106  1  0  0  0
 35 44  2  0  0  0
 35 45  1  0  0  0
 35 68  1  0  0  0
 36 56  1  0  0  0
 36107  1  0  0  0
 37 39  1  0  0  0
 37 47  1  0  0  0
 37 66  1  0  0  0
 37108  1  0  0  0
 38 43  2  0  0  0
 38 46  1  0  0  0
 38 47  1  0  0  0
 39 64  1  0  0  0
 39 67  2  0  0  0
 40 52  1  0  0  0
 40 53  2  0  0  0
 40 58  1  0  0  0
 41109  1  0  0  0
 41110  1  0  0  0
 41111  1  0  0  0
 41 48  1  0  0  0
 42 43  1  0  0  0
 42 66  1  0  0  0
 42112  1  0  0  0
 42113  1  0  0  0
 43 44  1  0  0  0
 44114  1  0  0  0
 45 46  2  0  0  0
 45115  1  0  0  0
 46116  1  0  0  0
 47117  1  0  0  0
 47118  1  0  0  0
 48 56  1  0  0  0
 48 65  1  0  0  0
 48119  1  0  0  0
 49 50  1  0  0  0
 49 53  1  0  0  0
 49 64  1  0  0  0
 49120  1  0  0  0
 50 51  1  0  0  0
 50121  1  0  0  0
 50122  1  0  0  0
 51 52  1  0  0  0
 51123  1  0  0  0
 51124  1  0  0  0
 52125  1  0  0  0
 52126  1  0  0  0
 53 54  1  0  0  0
 54 55  2  0  0  0
 54127  1  0  0  0
 55 57  1  0  0  0
 55128  1  0  0  0
 56 69  2  0  0  0
 57 58  2  0  0  0
 57129  1  0  0  0
 58130  1  0  0  0
 59 60  1  0  0  0
 59 61  1  0  0  0
 59 62  1  0  0  0
 60131  1  0  0  0
 60132  1  0  0  0
 60133  1  0  0  0
 61134  1  0  0  0
 61135  1  0  0  0
 61136  1  0  0  0
 62137  1  0  0  0
 62138  1  0  0  0
 62139  1  0  0  0
 63 65  1  0  0  0
 63140  1  0  0  0
 63141  1  0  0  0
 63142  1  0  0  0
 64143  1  0  0  0
 65144  1  0  0  0
 68 74  1  0  0  0
 71 73  2  0  0  0
 71 82  1  0  0  0
 71145  1  0  0  0
 72 74  1  0  0  0
 72 83  2  0  0  0
 72 79  1  0  0  0
 73 83  1  0  0  0
 73 84  1  0  0  0
 74 82  2  0  0  0
 75 76  1  0  0  0
 75 79  1  0  0  0
 75146  1  0  0  0
 75147  1  0  0  0
 76 79  1  0  0  0
 76148  1  0  0  0
 76149  1  0  0  0
 77 78  1  0  0  0
 77 80  1  0  0  0
 77150  1  0  0  0
 77151  1  0  0  0
 78 81  1  0  0  0
 78152  1  0  0  0
 78153  1  0  0  0
 79154  1  0  0  0
 80 81  1  0  0  0
 80 84  1  0  0  0
 80155  1  0  0  0
 81 85  1  0  0  0
 81156  1  0  0  0
 84157  1  0  0  0
 85158  1  0  0  0
M  ISO  4   1 100  68 101  74 101  85 100
M  END
> <chiral flag>
0

> <version>
0

> <s_m_source_file>
/data/baiqing/PycharmProjects/Reinvent-master-3.2/result/LINK_invent/BTK/process_docking_weight1_custom_sum_contain_oxygen_bond_distance_aromatic_linkinvent_7_9_3/rearranged_h_0180.sdf

> <i_m_source_file_index>
8

> <r_mmod_Potential_Energy-OPLS-2005>
535.603332519531

> <r_mmod_Stretch_Energy-OPLS-2005>
229.027481079102

> <r_mmod_Bend_Energy-OPLS-2005>
331.778472900391

> <r_mmod_Torsional_Energy-OPLS-2005>
257.124664306641

> <r_mmod_Improper_Torsional_Energy-OPLS-2005>
5.99199485778809

> <r_mmod_Van_der_Waal_Energy-OPLS-2005>
124.253288269043

> <r_mmod_Electrostatic_Energy-OPLS-2005>
-366.365112304688

> <r_mmod_Solvation_Energy-OPLS-2005>
-228.105758666992

> <b_mmod_Minimization_Converged-OPLS-2005>
0

> <r_mmod_RMS_Derivative-OPLS-2005>
4.0244665145874

$$$$
8
                    3D
 Structure written by MMmdl.
160169  0  0  1  0            999 V2000
  -30.6221  -14.7415   20.4578 C   0  0  0  0  0  0
  -30.4333  -12.4582   19.4622 C   0  0  0  0  0  0
  -29.5059  -12.5001   18.2290 C   0  0  0  0  0  0
  -28.0344  -12.3223   18.6501 C   0  0  0  0  0  0
  -27.6401  -13.2305   19.8456 C   0  0  2  0  0  0
  -28.6873  -13.1734   20.9778 C   0  0  0  0  0  0
  -25.2519  -13.8195   20.5701 C   0  0  0  0  0  0
  -24.1807  -13.0442   20.9214 C   0  0  0  0  0  0
  -24.6397  -11.6920   20.8757 C   0  0  0  0  0  0
  -23.9074  -10.4295   21.0413 C   0  0  0  0  0  0
  -24.3628   -9.4211   21.9193 C   0  0  0  0  0  0
  -23.6299   -8.2245   22.0759 C   0  0  0  0  0  0
  -22.4279   -8.0288   21.3548 C   0  0  0  0  0  0
  -21.9920   -9.0261   20.4648 C   0  0  0  0  0  0
  -22.7248  -10.2139   20.3059 C   0  0  0  0  0  0
  -21.6857   -6.0740   22.5280 C   0  0  0  0  0  0
  -21.4010   -6.5642   23.8211 C   0  0  0  0  0  0
  -21.3654   -5.6797   24.9176 C   0  0  0  0  0  0
  -21.6042   -4.3057   24.7225 C   0  0  0  0  0  0
  -21.8823   -3.8151   23.4344 C   0  0  0  0  0  0
  -21.9195   -4.6969   22.3403 C   0  0  0  0  0  0
  -22.7827  -13.5225   21.1869 C   0  0  0  0  0  0
  -22.1666   -4.2155   21.0979 F   0  0  0  0  0  0
  -21.5626   -3.4543   25.7735 F   0  0  0  0  0  0
  -29.9829  -13.5248   20.3855 N   0  0  0  0  0  0
  -26.2938  -12.9399   20.3272 N   0  0  0  0  0  0
  -25.9326  -11.6544   20.5758 N   0  0  0  0  0  0
  -22.0468  -12.8213   22.0418 N   0  0  0  0  0  0
  -25.4220  -15.1918   20.4107 N   0  0  0  0  0  0
  -31.8283  -14.8027   20.2074 O   0  0  0  0  0  0
  -21.6644   -6.8886   21.4239 O   0  0  0  0  0  0
  -22.3512  -14.5531   20.6719 O   0  0  0  0  0  0
  -24.6302  -31.8555   23.1974 C   0  0  0  0  0  0
  -25.9125  -32.4764   23.8321 C   0  0  1  0  0  0
  -27.2241  -27.2746   20.1409 C   0  0  0  0  0  0
  -25.5928  -33.8563   24.2255 N   0  0  0  0  0  0
  -23.4265  -30.4762   21.5394 C   0  0  2  0  0  0
  -24.8751  -28.9154   20.1172 C   0  0  0  0  0  0
  -22.7493  -29.4610   22.4911 C   0  0  0  0  0  0
  -18.0291  -28.1396   22.8482 C   0  0  0  0  0  0
  -24.1480  -36.7274   23.2644 C   0  0  0  0  0  0
  -25.9699  -30.7735   21.3726 C   0  0  0  0  0  0
  -26.0454  -29.3935   20.7222 C   0  0  0  0  0  0
  -27.2265  -28.5866   20.7187 C   0  0  0  0  0  0
  -26.0340  -26.8517   19.5167 C   0  0  0  0  0  0
  -24.8731  -27.6508   19.5039 C   0  0  0  0  0  0
  -23.6448  -29.8016   20.1589 C   0  0  0  0  0  0
  -25.4109  -36.3076   24.0335 C   0  0  1  0  0  0
  -20.5892  -28.3703   23.1271 C   0  0  2  0  0  0
  -20.6781  -26.9421   22.5408 C   0  0  0  0  0  0
  -19.5757  -26.6383   21.5215 C   0  0  0  0  0  0
  -18.1934  -26.7940   22.1617 C   0  0  0  0  0  0
  -19.1545  -28.8866   23.2874 C   0  0  0  0  0  0
  -18.9472  -30.1466   23.8895 C   0  0  0  0  0  0
  -17.6471  -30.6597   24.0565 C   0  0  0  0  0  0
  -25.9050  -34.9448   23.5096 C   0  0  0  0  0  0
  -16.5362  -29.9095   23.6342 C   0  0  0  0  0  0
  -16.7280  -28.6511   23.0361 C   0  0  0  0  0  0
  -26.4497  -31.6598   25.0714 C   0  0  0  0  0  0
  -25.3718  -31.3745   26.1436 C   0  0  0  0  0  0
  -27.0360  -30.3029   24.6188 C   0  0  0  0  0  0
  -27.6053  -32.4340   25.7486 C   0  0  0  0  0  0
  -27.5575  -37.1792   24.8471 C   0  0  0  0  0  0
  -21.4199  -29.3053   22.3661 N   0  0  0  0  0  0
  -26.4284  -37.3777   23.9421 N   0  0  0  0  0  0
  -24.6946  -31.0532   22.0930 N   0  0  0  0  0  0
  -23.4201  -28.8151   23.3006 O   0  0  0  0  0  0
  -28.3224  -26.3957   20.1288 O   0  0  0  0  0  0
  -26.5614  -34.8927   22.4660 O   0  0  0  0  0  0
  -23.5453  -32.1357   23.7283 O   0  0  0  0  0  0
  -28.8549  -22.4552   20.8887 C   0  0  0  0  0  0
  -28.5024  -23.6794   20.1895 C   0  0  0  0  0  0
  -29.0083  -21.2234   20.1510 C   0  0  0  0  0  0
  -28.4552  -22.4247   18.2618 C   0  0  0  0  0  0
  -30.0865  -18.3790   18.7907 C   0  0  0  0  0  0
  -31.2625  -17.7805   19.5647 C   0  0  0  0  0  0
  -29.3281  -18.5543   20.1177 C   0  0  1  0  0  0
  -30.2886  -17.3707   20.6884 C   0  0  1  0  0  0
  -29.0450  -22.4669   22.3989 C   0  0  0  0  0  0
  -28.2398  -22.3907   16.7651 C   0  0  0  0  0  0
  -28.2069  -25.0960   20.8675 C   0  0  0  0  0  0
  -28.3171  -23.6089   18.8578 N   0  0  0  0  0  0
  -28.7705  -21.2616   18.8327 N   0  0  0  0  0  0
  -29.4334  -19.9539   20.7098 N   0  0  0  0  0  0
  -29.8612  -15.8974   20.5996 N   0  0  0  0  0  0
  -31.4705  -12.5914   19.1492 H   0  0  0  0  0  0
  -30.3908  -11.4834   19.9510 H   0  0  0  0  0  0
  -29.7872  -11.7228   17.5177 H   0  0  0  0  0  0
  -29.6273  -13.4505   17.7072 H   0  0  0  0  0  0
  -27.8985  -11.2756   18.9244 H   0  0  0  0  0  0
  -27.3724  -12.5021   17.8024 H   0  0  0  0  0  0
  -27.6317  -14.2491   19.4571 H   0  0  0  0  0  0
  -28.7276  -12.1778   21.4224 H   0  0  0  0  0  0
  -28.4259  -13.8605   21.7845 H   0  0  0  0  0  0
  -25.2775   -9.5685   22.4774 H   0  0  0  0  0  0
  -24.0010   -7.4636   22.7478 H   0  0  0  0  0  0
  -21.0857   -8.8779   19.8953 H   0  0  0  0  0  0
  -22.3713  -10.9682   19.6169 H   0  0  0  0  0  0
  -21.1999   -7.6152   23.9715 H   0  0  0  0  0  0
  -21.1466   -6.0526   25.9077 H   0  0  0  0  0  0
  -22.0604   -2.7615   23.2845 H   0  0  0  0  0  0
  -22.4084  -11.9878   22.4814 H   0  0  0  0  0  0
  -21.1081  -13.1233   22.2607 H   0  0  0  0  0  0
  -24.6549  -15.8455   20.5226 H   0  0  0  0  0  0
  -26.2629  -15.6292   20.0574 H   0  0  0  0  0  0
  -26.7189  -32.5424   23.1064 H   0  0  0  0  0  0
  -25.0126  -33.9695   25.0438 H   0  0  0  0  0  0
  -22.7241  -31.2989   21.3895 H   0  0  0  0  0  0
  -23.3759  -35.9593   23.3308 H   0  0  0  0  0  0
  -24.3569  -36.8886   22.2057 H   0  0  0  0  0  0
  -23.7212  -37.6469   23.6661 H   0  0  0  0  0  0
  -26.1023  -31.5291   20.5970 H   0  0  0  0  0  0
  -26.8506  -30.8290   22.0011 H   0  0  0  0  0  0
  -28.1272  -28.9515   21.1927 H   0  0  0  0  0  0
  -26.0006  -25.8788   19.0457 H   0  0  0  0  0  0
  -23.9764  -27.2776   19.0288 H   0  0  0  0  0  0
  -23.7674  -30.5725   19.3977 H   0  0  0  0  0  0
  -22.7646  -29.2309   19.8568 H   0  0  0  0  0  0
  -25.1288  -36.1927   25.0830 H   0  0  0  0  0  0
  -20.9992  -28.3282   24.1387 H   0  0  0  0  0  0
  -20.5694  -26.2309   23.3609 H   0  0  0  0  0  0
  -21.6645  -26.7449   22.1195 H   0  0  0  0  0  0
  -19.6918  -25.6292   21.1250 H   0  0  0  0  0  0
  -19.6707  -27.3192   20.6747 H   0  0  0  0  0  0
  -17.4208  -26.6706   21.4011 H   0  0  0  0  0  0
  -18.0320  -26.0082   22.9010 H   0  0  0  0  0  0
  -19.7952  -30.7280   24.2261 H   0  0  0  0  0  0
  -17.5031  -31.6281   24.5159 H   0  0  0  0  0  0
  -15.5366  -30.2997   23.7671 H   0  0  0  0  0  0
  -15.8676  -28.0829   22.7088 H   0  0  0  0  0  0
  -24.5915  -30.7067   25.7766 H   0  0  0  0  0  0
  -24.8883  -32.2909   26.4828 H   0  0  0  0  0  0
  -25.8028  -30.8956   27.0236 H   0  0  0  0  0  0
  -26.2953  -29.6764   24.1206 H   0  0  0  0  0  0
  -27.4060  -29.7306   25.4705 H   0  0  0  0  0  0
  -27.8808  -30.4332   23.9422 H   0  0  0  0  0  0
  -27.2682  -33.3671   26.2014 H   0  0  0  0  0  0
  -28.3884  -32.6849   25.0320 H   0  0  0  0  0  0
  -28.0692  -31.8493   26.5437 H   0  0  0  0  0  0
  -28.2598  -38.0086   24.7525 H   0  0  0  0  0  0
  -28.1063  -36.2619   24.6288 H   0  0  0  0  0  0
  -27.2294  -37.1426   25.8875 H   0  0  0  0  0  0
  -20.9387  -29.8773   21.6861 H   0  0  0  0  0  0
  -26.0165  -38.2854   24.1429 H   0  0  0  0  0  0
  -29.6119  -17.6458   18.1361 H   0  0  0  0  0  0
  -30.3395  -19.2839   18.2397 H   0  0  0  0  0  0
  -31.9713  -18.5446   19.8895 H   0  0  0  0  0  0
  -31.7759  -16.9875   19.0235 H   0  0  0  0  0  0
  -28.2823  -18.2545   20.0345 H   0  0  0  0  0  0
  -30.6930  -17.6118   21.6725 H   0  0  0  0  0  0
  -28.3548  -23.1589   22.8821 H   0  0  0  0  0  0
  -30.0628  -22.7647   22.6526 H   0  0  0  0  0  0
  -28.8590  -21.4847   22.8345 H   0  0  0  0  0  0
  -27.9661  -23.3714   16.3749 H   0  0  0  0  0  0
  -27.4426  -21.6915   16.5121 H   0  0  0  0  0  0
  -29.1515  -22.0706   16.2611 H   0  0  0  0  0  0
  -28.9006  -25.1909   21.7028 H   0  0  0  0  0  0
  -27.2214  -25.0276   21.3299 H   0  0  0  0  0  0
  -29.6533  -19.9875   21.6976 H   0  0  0  0  0  0
  -28.8761  -15.7334   20.7421 H   0  0  0  0  0  0
  1 25  1  0  0  0
  1 30  2  0  0  0
  1 85  1  0  0  0
  2  3  1  0  0  0
  2 25  1  0  0  0
  2 86  1  0  0  0
  2 87  1  0  0  0
  3  4  1  0  0  0
  3 88  1  0  0  0
  3 89  1  0  0  0
  4  5  1  0  0  0
  4 90  1  0  0  0
  4 91  1  0  0  0
  5  6  1  0  0  0
  5 26  1  0  0  0
  5 92  1  0  0  0
  6 25  1  0  0  0
  6 93  1  0  0  0
  6 94  1  0  0  0
  7  8  2  0  0  0
  7 26  1  0  0  0
  7 29  1  0  0  0
  8  9  1  0  0  0
  8 22  1  0  0  0
  9 10  1  0  0  0
  9 27  2  0  0  0
 10 11  2  0  0  0
 10 15  1  0  0  0
 11 12  1  0  0  0
 11 95  1  0  0  0
 12 13  2  0  0  0
 12 96  1  0  0  0
 13 14  1  0  0  0
 13 31  1  0  0  0
 14 15  2  0  0  0
 14 97  1  0  0  0
 15 98  1  0  0  0
 16 17  2  0  0  0
 16 21  1  0  0  0
 16 31  1  0  0  0
 17 18  1  0  0  0
 17 99  1  0  0  0
 18 19  2  0  0  0
 18100  1  0  0  0
 19 20  1  0  0  0
 19 24  1  0  0  0
 20 21  2  0  0  0
 20101  1  0  0  0
 21 23  1  0  0  0
 22 28  1  0  0  0
 22 32  2  0  0  0
 26 27  1  0  0  0
 28102  1  0  0  0
 28103  1  0  0  0
 29104  1  0  0  0
 29105  1  0  0  0
 33 34  1  0  0  0
 33 66  1  0  0  0
 33 70  2  0  0  0
 34 36  1  0  0  0
 34 59  1  0  0  0
 34106  1  0  0  0
 35 44  2  0  0  0
 35 45  1  0  0  0
 35 68  1  0  0  0
 36 56  1  0  0  0
 36107  1  0  0  0
 37 39  1  0  0  0
 37 47  1  0  0  0
 37 66  1  0  0  0
 37108  1  0  0  0
 38 43  2  0  0  0
 38 46  1  0  0  0
 38 47  1  0  0  0
 39 64  1  0  0  0
 39 67  2  0  0  0
 40 52  1  0  0  0
 40 53  2  0  0  0
 40 58  1  0  0  0
 41109  1  0  0  0
 41110  1  0  0  0
 41111  1  0  0  0
 41 48  1  0  0  0
 42 43  1  0  0  0
 42 66  1  0  0  0
 42112  1  0  0  0
 42113  1  0  0  0
 43 44  1  0  0  0
 44114  1  0  0  0
 45 46  2  0  0  0
 45115  1  0  0  0
 46116  1  0  0  0
 47117  1  0  0  0
 47118  1  0  0  0
 48 56  1  0  0  0
 48 65  1  0  0  0
 48119  1  0  0  0
 49 50  1  0  0  0
 49 53  1  0  0  0
 49 64  1  0  0  0
 49120  1  0  0  0
 50 51  1  0  0  0
 50121  1  0  0  0
 50122  1  0  0  0
 51 52  1  0  0  0
 51123  1  0  0  0
 51124  1  0  0  0
 52125  1  0  0  0
 52126  1  0  0  0
 53 54  1  0  0  0
 54 55  2  0  0  0
 54127  1  0  0  0
 55 57  1  0  0  0
 55128  1  0  0  0
 56 69  2  0  0  0
 57 58  2  0  0  0
 57129  1  0  0  0
 58130  1  0  0  0
 59 60  1  0  0  0
 59 61  1  0  0  0
 59 62  1  0  0  0
 60131  1  0  0  0
 60132  1  0  0  0
 60133  1  0  0  0
 61134  1  0  0  0
 61135  1  0  0  0
 61136  1  0  0  0
 62137  1  0  0  0
 62138  1  0  0  0
 62139  1  0  0  0
 63 65  1  0  0  0
 63140  1  0  0  0
 63141  1  0  0  0
 63142  1  0  0  0
 64143  1  0  0  0
 65144  1  0  0  0
 68 81  1  0  0  0
 71 72  2  0  0  0
 71 73  1  0  0  0
 71 79  1  0  0  0
 72 81  1  0  0  0
 72 82  1  0  0  0
 73 83  2  0  0  0
 73 84  1  0  0  0
 74 80  1  0  0  0
 74 82  2  0  0  0
 74 83  1  0  0  0
 75 76  1  0  0  0
 75 77  1  0  0  0
 75145  1  0  0  0
 75146  1  0  0  0
 76 78  1  0  0  0
 76147  1  0  0  0
 76148  1  0  0  0
 77 78  1  0  0  0
 77 84  1  0  0  0
 77149  1  0  0  0
 78 85  1  0  0  0
 78150  1  0  0  0
 79151  1  0  0  0
 79152  1  0  0  0
 79153  1  0  0  0
 80154  1  0  0  0
 80155  1  0  0  0
 80156  1  0  0  0
 81157  1  0  0  0
 81158  1  0  0  0
 84159  1  0  0  0
 85160  1  0  0  0
M  ISO  4   1 100  68 101  81 101  85 100
M  END
> <chiral flag>
0

> <version>
0

> <s_m_source_file>
/data/baiqing/PycharmProjects/Reinvent-master-3.2/result/LINK_invent/BTK/process_docking_weight1_custom_sum_contain_oxygen_bond_distance_aromatic_linkinvent_7_9_3/rearranged_h_0180.sdf

> <i_m_source_file_index>
9

> <r_mmod_Potential_Energy-OPLS-2005>
-337.145568847656

> <r_mmod_Stretch_Energy-OPLS-2005>
115.556999206543

> <r_mmod_Bend_Energy-OPLS-2005>
187.867050170898

> <r_mmod_Torsional_Energy-OPLS-2005>
265.366668701172

> <r_mmod_Improper_Torsional_Energy-OPLS-2005>
5.27521705627441

> <r_mmod_Van_der_Waal_Energy-OPLS-2005>
145.905258178711

> <r_mmod_Electrostatic_Energy-OPLS-2005>
-897.367797851562

> <r_mmod_Solvation_Energy-OPLS-2005>
-241.225799560547

> <b_mmod_Minimization_Converged-OPLS-2005>
0

> <r_mmod_RMS_Derivative-OPLS-2005>
1.14571833610535

$$$$
9
                    3D
 Structure written by MMmdl.
151159  0  0  1  0            999 V2000
  -30.4356  -15.3461   20.3067 C   0  0  0  0  0  0
  -30.4442  -12.8587   19.5104 C   0  0  0  0  0  0
  -29.5372  -12.5601   18.2891 C   0  0  0  0  0  0
  -28.0988  -12.2405   18.7370 C   0  0  0  0  0  0
  -27.5996  -13.2300   19.8128 C   0  0  2  0  0  0
  -28.6450  -13.5053   20.9244 C   0  0  0  0  0  0
  -25.2336  -13.8047   20.5798 C   0  0  0  0  0  0
  -24.1680  -13.0297   20.9314 C   0  0  0  0  0  0
  -24.6329  -11.6804   20.8830 C   0  0  0  0  0  0
  -23.9024  -10.4214   21.0452 C   0  0  0  0  0  0
  -24.3585   -9.4137   21.9217 C   0  0  0  0  0  0
  -23.6264   -8.2180   22.0767 C   0  0  0  0  0  0
  -22.4250   -8.0239   21.3546 C   0  0  0  0  0  0
  -21.9884   -9.0213   20.4651 C   0  0  0  0  0  0
  -22.7213  -10.2083   20.3075 C   0  0  0  0  0  0
  -21.6833   -6.0717   22.5281 C   0  0  0  0  0  0
  -21.4001   -6.5626   23.8214 C   0  0  0  0  0  0
  -21.3656   -5.6780   24.9177 C   0  0  0  0  0  0
  -21.6048   -4.3044   24.7229 C   0  0  0  0  0  0
  -21.8820   -3.8134   23.4351 C   0  0  0  0  0  0
  -21.9188   -4.6948   22.3406 C   0  0  0  0  0  0
  -22.7708  -13.5116   21.1919 C   0  0  0  0  0  0
  -22.1657   -4.2138   21.0982 F   0  0  0  0  0  0
  -21.5632   -3.4531   25.7743 F   0  0  0  0  0  0
  -29.8660  -14.0273   20.2724 N   0  0  0  0  0  0
  -26.2762  -12.9256   20.3291 N   0  0  0  0  0  0
  -25.9254  -11.6413   20.5803 N   0  0  0  0  0  0
  -22.0334  -12.8151   22.0482 N   0  0  0  0  0  0
  -25.3788  -15.1779   20.4216 N   0  0  0  0  0  0
  -31.6735  -15.3125   20.2350 O   0  0  0  0  0  0
  -21.6609   -6.8849   21.4242 O   0  0  0  0  0  0
  -22.3430  -14.5431   20.6740 O   0  0  0  0  0  0
  -24.6628  -31.8223   23.1680 C   0  0  0  0  0  0
  -25.9307  -32.4583   23.8152 C   0  0  1  0  0  0
  -27.2382  -26.9300   20.1838 C   0  0  0  0  0  0
  -25.5968  -33.8396   24.2061 N   0  0  0  0  0  0
  -23.4791  -30.4302   21.5173 C   0  0  2  0  0  0
  -24.9370  -28.8141   20.1104 C   0  0  0  0  0  0
  -22.7670  -29.4425   22.4781 C   0  0  0  0  0  0
  -18.0322  -28.1409   22.8466 C   0  0  0  0  0  0
  -24.1495  -36.7209   23.2647 C   0  0  0  0  0  0
  -26.0469  -30.6284   21.3988 C   0  0  0  0  0  0
  -26.1179  -29.2172   20.7452 C   0  0  0  0  0  0
  -27.2585  -28.2952   20.7593 C   0  0  0  0  0  0
  -26.0291  -26.6792   19.4946 C   0  0  0  0  0  0
  -24.9181  -27.5656   19.4649 C   0  0  0  0  0  0
  -23.7197  -29.7396   20.1451 C   0  0  0  0  0  0
  -25.4136  -36.2967   24.0299 C   0  0  1  0  0  0
  -20.5946  -28.3753   23.1190 C   0  0  2  0  0  0
  -20.6798  -26.9433   22.5407 C   0  0  0  0  0  0
  -19.5773  -26.6372   21.5219 C   0  0  0  0  0  0
  -18.1954  -26.7940   22.1624 C   0  0  0  0  0  0
  -19.1583  -28.8903   23.2812 C   0  0  0  0  0  0
  -18.9494  -30.1492   23.8846 C   0  0  0  0  0  0
  -17.6486  -30.6598   24.0555 C   0  0  0  0  0  0
  -25.9099  -34.9349   23.5008 C   0  0  0  0  0  0
  -16.5376  -29.9085   23.6341 C   0  0  0  0  0  0
  -16.7304  -28.6506   23.0360 C   0  0  0  0  0  0
  -26.4557  -31.6529   25.0684 C   0  0  0  0  0  0
  -25.3676  -31.3782   26.1335 C   0  0  0  0  0  0
  -27.0458  -30.2895   24.6420 C   0  0  0  0  0  0
  -27.6045  -32.4339   25.7488 C   0  0  0  0  0  0
  -27.5572  -37.1760   24.8465 C   0  0  0  0  0  0
  -21.4337  -29.3038   22.3534 N   0  0  0  0  0  0
  -26.4283  -37.3702   23.9405 N   0  0  0  0  0  0
  -24.7507  -30.9876   22.0820 N   0  0  0  0  0  0
  -23.4212  -28.8007   23.3036 O   0  0  0  0  0  0
  -28.2584  -25.8428   20.2977 O   0  0  0  0  0  0
  -26.5719  -34.8890   22.4610 O   0  0  0  0  0  0
  -23.5694  -32.1198   23.6767 O   0  0  0  0  0  0
  -29.3814  -19.7970   20.6341 C   0  0  0  0  0  0
  -28.0473  -17.6993   18.6333 C   0  0  0  0  0  0
  -29.3699  -18.4080   18.4492 C   0  0  0  0  0  0
  -28.4731  -16.4161   19.3431 C   0  0  0  0  0  0
  -29.9053  -18.2965   19.8731 C   0  0  2  0  0  0
  -28.9136  -22.7207   20.6321 C   0  0  0  0  0  0
  -28.1668  -24.2248   19.9539 C   0  0  0  0  0  0
  -29.6777  -16.6430   20.1563 N   0  0  0  0  0  0
  -29.1543  -21.1563   20.0699 N   0  0  0  0  0  0
  -29.2079  -19.6993   21.8486 O   0  0  0  0  0  0
  -31.4548  -13.0774   19.1630 H   0  0  0  0  0  0
  -30.5384  -11.9806   20.1512 H   0  0  0  0  0  0
  -29.9422  -11.7291   17.7095 H   0  0  0  0  0  0
  -29.5315  -13.4239   17.6226 H   0  0  0  0  0  0
  -28.0936  -11.2289   19.1444 H   0  0  0  0  0  0
  -27.4240  -12.2290   17.8798 H   0  0  0  0  0  0
  -27.4401  -14.1229   19.2307 H   0  0  0  0  0  0
  -28.8475  -12.6080   21.5109 H   0  0  0  0  0  0
  -28.2640  -14.2511   21.6234 H   0  0  0  0  0  0
  -25.2728   -9.5616   22.4794 H   0  0  0  0  0  0
  -23.9971   -7.4566   22.7480 H   0  0  0  0  0  0
  -21.0816   -8.8736   19.8953 H   0  0  0  0  0  0
  -22.3690  -10.9631   19.6188 H   0  0  0  0  0  0
  -21.1987   -7.6133   23.9715 H   0  0  0  0  0  0
  -21.1479   -6.0508   25.9079 H   0  0  0  0  0  0
  -22.0607   -2.7598   23.2849 H   0  0  0  0  0  0
  -22.3922  -11.9821   22.4906 H   0  0  0  0  0  0
  -21.0958  -13.1209   22.2667 H   0  0  0  0  0  0
  -24.5989  -15.8149   20.5433 H   0  0  0  0  0  0
  -26.2151  -15.6368   20.0912 H   0  0  0  0  0  0
  -26.7378  -32.5126   23.0868 H   0  0  0  0  0  0
  -25.0044  -33.9469   25.0164 H   0  0  0  0  0  0
  -22.7924  -31.2612   21.3433 H   0  0  0  0  0  0
  -23.3769  -35.9529   23.3281 H   0  0  0  0  0  0
  -24.3568  -36.8886   22.2067 H   0  0  0  0  0  0
  -23.7244  -37.6385   23.6724 H   0  0  0  0  0  0
  -26.2253  -31.3681   20.6172 H   0  0  0  0  0  0
  -26.9075  -30.6879   22.0534 H   0  0  0  0  0  0
  -28.1498  -28.6010   21.2891 H   0  0  0  0  0  0
  -25.9075  -25.7257   19.0014 H   0  0  0  0  0  0
  -24.0219  -27.2499   18.9487 H   0  0  0  0  0  0
  -23.8709  -30.5058   19.3839 H   0  0  0  0  0  0
  -22.8307  -29.1897   19.8312 H   0  0  0  0  0  0
  -25.1335  -36.1764   25.0791 H   0  0  0  0  0  0
  -21.0034  -28.3366   24.1314 H   0  0  0  0  0  0
  -20.5680  -26.2372   23.3650 H   0  0  0  0  0  0
  -21.6660  -26.7408   22.1213 H   0  0  0  0  0  0
  -19.6932  -25.6270   21.1278 H   0  0  0  0  0  0
  -19.6713  -27.3156   20.6730 H   0  0  0  0  0  0
  -17.4224  -26.6684   21.4026 H   0  0  0  0  0  0
  -18.0348  -26.0094   22.9031 H   0  0  0  0  0  0
  -19.7968  -30.7324   24.2189 H   0  0  0  0  0  0
  -17.5037  -31.6271   24.5170 H   0  0  0  0  0  0
  -15.5374  -30.2972   23.7693 H   0  0  0  0  0  0
  -15.8704  -28.0810   22.7102 H   0  0  0  0  0  0
  -24.5869  -30.7126   25.7633 H   0  0  0  0  0  0
  -24.8852  -32.2985   26.4634 H   0  0  0  0  0  0
  -25.7896  -30.9019   27.0194 H   0  0  0  0  0  0
  -26.3128  -29.6561   24.1413 H   0  0  0  0  0  0
  -27.3980  -29.7270   25.5077 H   0  0  0  0  0  0
  -27.9071  -30.4079   23.9843 H   0  0  0  0  0  0
  -27.2611  -33.3684   26.1939 H   0  0  0  0  0  0
  -28.3919  -32.6830   25.0362 H   0  0  0  0  0  0
  -28.0643  -31.8547   26.5506 H   0  0  0  0  0  0
  -28.2571  -38.0072   24.7511 H   0  0  0  0  0  0
  -28.1087  -36.2597   24.6298 H   0  0  0  0  0  0
  -27.2285  -37.1408   25.8867 H   0  0  0  0  0  0
  -20.9602  -29.8714   21.6643 H   0  0  0  0  0  0
  -26.0133  -38.2764   24.1404 H   0  0  0  0  0  0
  -27.5433  -17.4999   17.6861 H   0  0  0  0  0  0
  -27.3622  -18.2827   19.2518 H   0  0  0  0  0  0
  -29.2529  -19.4235   18.0703 H   0  0  0  0  0  0
  -30.0097  -17.8721   17.7458 H   0  0  0  0  0  0
  -28.6640  -15.6788   18.5605 H   0  0  0  0  0  0
  -27.6813  -16.0873   20.0027 H   0  0  0  0  0  0
  -30.9890  -18.4141   19.8299 H   0  0  0  0  0  0
  -28.4474  -22.5864   21.6084 H   0  0  0  0  0  0
  -29.9299  -23.0291   20.8778 H   0  0  0  0  0  0
  -27.0987  -24.0104   19.9529 H   0  0  0  0  0  0
  -28.4353  -24.2007   18.8978 H   0  0  0  0  0  0
  -29.2758  -21.1503   19.0653 H   0  0  0  0  0  0
  1 25  1  0  0  0
  1 30  2  0  0  0
  1 78  1  0  0  0
  2  3  1  0  0  0
  2 25  1  0  0  0
  2 81  1  0  0  0
  2 82  1  0  0  0
  3  4  1  0  0  0
  3 83  1  0  0  0
  3 84  1  0  0  0
  4  5  1  0  0  0
  4 85  1  0  0  0
  4 86  1  0  0  0
  5  6  1  0  0  0
  5 26  1  0  0  0
  5 87  1  0  0  0
  6 25  1  0  0  0
  6 88  1  0  0  0
  6 89  1  0  0  0
  7  8  2  0  0  0
  7 26  1  0  0  0
  7 29  1  0  0  0
  8  9  1  0  0  0
  8 22  1  0  0  0
  9 10  1  0  0  0
  9 27  2  0  0  0
 10 11  2  0  0  0
 10 15  1  0  0  0
 11 12  1  0  0  0
 11 90  1  0  0  0
 12 13  2  0  0  0
 12 91  1  0  0  0
 13 14  1  0  0  0
 13 31  1  0  0  0
 14 15  2  0  0  0
 14 92  1  0  0  0
 15 93  1  0  0  0
 16 17  2  0  0  0
 16 21  1  0  0  0
 16 31  1  0  0  0
 17 18  1  0  0  0
 17 94  1  0  0  0
 18 19  2  0  0  0
 18 95  1  0  0  0
 19 20  1  0  0  0
 19 24  1  0  0  0
 20 21  2  0  0  0
 20 96  1  0  0  0
 21 23  1  0  0  0
 22 28  1  0  0  0
 22 32  2  0  0  0
 26 27  1  0  0  0
 28 97  1  0  0  0
 28 98  1  0  0  0
 29 99  1  0  0  0
 29100  1  0  0  0
 33 34  1  0  0  0
 33 66  1  0  0  0
 33 70  2  0  0  0
 34 36  1  0  0  0
 34 59  1  0  0  0
 34101  1  0  0  0
 35 44  2  0  0  0
 35 45  1  0  0  0
 35 68  1  0  0  0
 36 56  1  0  0  0
 36102  1  0  0  0
 37 39  1  0  0  0
 37 47  1  0  0  0
 37 66  1  0  0  0
 37103  1  0  0  0
 38 43  2  0  0  0
 38 46  1  0  0  0
 38 47  1  0  0  0
 39 64  1  0  0  0
 39 67  2  0  0  0
 40 52  1  0  0  0
 40 53  2  0  0  0
 40 58  1  0  0  0
 41104  1  0  0  0
 41105  1  0  0  0
 41106  1  0  0  0
 41 48  1  0  0  0
 42 43  1  0  0  0
 42 66  1  0  0  0
 42107  1  0  0  0
 42108  1  0  0  0
 43 44  1  0  0  0
 44109  1  0  0  0
 45 46  2  0  0  0
 45110  1  0  0  0
 46111  1  0  0  0
 47112  1  0  0  0
 47113  1  0  0  0
 48 56  1  0  0  0
 48 65  1  0  0  0
 48114  1  0  0  0
 49 50  1  0  0  0
 49 53  1  0  0  0
 49 64  1  0  0  0
 49115  1  0  0  0
 50 51  1  0  0  0
 50116  1  0  0  0
 50117  1  0  0  0
 51 52  1  0  0  0
 51118  1  0  0  0
 51119  1  0  0  0
 52120  1  0  0  0
 52121  1  0  0  0
 53 54  1  0  0  0
 54 55  2  0  0  0
 54122  1  0  0  0
 55 57  1  0  0  0
 55123  1  0  0  0
 56 69  2  0  0  0
 57 58  2  0  0  0
 57124  1  0  0  0
 58125  1  0  0  0
 59 60  1  0  0  0
 59 61  1  0  0  0
 59 62  1  0  0  0
 60126  1  0  0  0
 60127  1  0  0  0
 60128  1  0  0  0
 61129  1  0  0  0
 61130  1  0  0  0
 61131  1  0  0  0
 62132  1  0  0  0
 62133  1  0  0  0
 62134  1  0  0  0
 63 65  1  0  0  0
 63135  1  0  0  0
 63136  1  0  0  0
 63137  1  0  0  0
 64138  1  0  0  0
 65139  1  0  0  0
 68 77  1  0  0  0
 71 79  1  0  0  0
 71 80  2  0  0  0
 71 75  1  0  0  0
 72 73  1  0  0  0
 72 74  1  0  0  0
 72140  1  0  0  0
 72141  1  0  0  0
 73 75  1  0  0  0
 73142  1  0  0  0
 73143  1  0  0  0
 74 78  1  0  0  0
 74144  1  0  0  0
 74145  1  0  0  0
 75 78  1  0  0  0
 75146  1  0  0  0
 76 77  1  0  0  0
 76 79  1  0  0  0
 76147  1  0  0  0
 76148  1  0  0  0
 77149  1  0  0  0
 77150  1  0  0  0
 79151  1  0  0  0
M  ISO  4   1 100  68 101  77 101  78 100
M  END
> <chiral flag>
0

> <version>
0

> <s_m_source_file>
/data/baiqing/PycharmProjects/Reinvent-master-3.2/result/LINK_invent/BTK/process_docking_weight1_custom_sum_contain_oxygen_bond_distance_aromatic_linkinvent_7_9_3/rearranged_h_0180.sdf

> <i_m_source_file_index>
10

> <r_mmod_Potential_Energy-OPLS-2005>
1428.60339355469

> <r_mmod_Stretch_Energy-OPLS-2005>
636.473327636719

> <r_mmod_Bend_Energy-OPLS-2005>
507.500549316406

> <r_mmod_Torsional_Energy-OPLS-2005>
270.4462890625

> <r_mmod_Improper_Torsional_Energy-OPLS-2005>
10.1523065567017

> <r_mmod_Van_der_Waal_Energy-OPLS-2005>
120.580345153809

> <r_mmod_Electrostatic_Energy-OPLS-2005>
-379.536407470703

> <r_mmod_Solvation_Energy-OPLS-2005>
-247.910186767578

> <b_mmod_Minimization_Converged-OPLS-2005>
0

> <r_mmod_RMS_Derivative-OPLS-2005>
0.772704601287842

$$$$
10
                    3D
 Structure written by MMmdl.
161170  0  0  1  0            999 V2000
  -30.5288  -14.9871   20.4116 C   0  0  0  0  0  0
  -30.4447  -12.6156   19.4970 C   0  0  0  0  0  0
  -29.5237  -12.5402   18.2560 C   0  0  0  0  0  0
  -28.0584  -12.3197   18.6747 C   0  0  0  0  0  0
  -27.6311  -13.2511   19.8391 C   0  0  2  0  0  0
  -28.6757  -13.2931   20.9752 C   0  0  0  0  0  0
  -25.2482  -13.8216   20.5726 C   0  0  0  0  0  0
  -24.1796  -13.0440   20.9217 C   0  0  0  0  0  0
  -24.6411  -11.6918   20.8752 C   0  0  0  0  0  0
  -23.9087  -10.4294   21.0408 C   0  0  0  0  0  0
  -24.3632   -9.4212   21.9189 C   0  0  0  0  0  0
  -23.6304   -8.2249   22.0764 C   0  0  0  0  0  0
  -22.4289   -8.0283   21.3544 C   0  0  0  0  0  0
  -21.9926   -9.0258   20.4644 C   0  0  0  0  0  0
  -22.7258  -10.2136   20.3055 C   0  0  0  0  0  0
  -21.6861   -6.0740   22.5281 C   0  0  0  0  0  0
  -21.4014   -6.5643   23.8210 C   0  0  0  0  0  0
  -21.3662   -5.6799   24.9173 C   0  0  0  0  0  0
  -21.6049   -4.3063   24.7223 C   0  0  0  0  0  0
  -21.8821   -3.8149   23.4344 C   0  0  0  0  0  0
  -21.9195   -4.6967   22.3402 C   0  0  0  0  0  0
  -22.7809  -13.5212   21.1860 C   0  0  0  0  0  0
  -22.1665   -4.2153   21.0978 F   0  0  0  0  0  0
  -21.5633   -3.4545   25.7734 F   0  0  0  0  0  0
  -29.9451  -13.7181   20.3708 N   0  0  0  0  0  0
  -26.2905  -12.9453   20.3255 N   0  0  0  0  0  0
  -25.9350  -11.6577   20.5744 N   0  0  0  0  0  0
  -22.0447  -12.8207   22.0404 N   0  0  0  0  0  0
  -25.4151  -15.1949   20.4147 N   0  0  0  0  0  0
  -31.7349  -15.0531   20.1499 O   0  0  0  0  0  0
  -21.6646   -6.8884   21.4245 O   0  0  0  0  0  0
  -22.3497  -14.5520   20.6696 O   0  0  0  0  0  0
  -24.6460  -31.8402   23.1845 C   0  0  0  0  0  0
  -25.9232  -32.4649   23.8241 C   0  0  1  0  0  0
  -27.2190  -27.1117   20.1586 C   0  0  0  0  0  0
  -25.5975  -33.8461   24.2151 N   0  0  0  0  0  0
  -23.4493  -30.4597   21.5308 C   0  0  2  0  0  0
  -24.8992  -28.8771   20.1132 C   0  0  0  0  0  0
  -22.7563  -29.4543   22.4847 C   0  0  0  0  0  0
  -18.0302  -28.1390   22.8487 C   0  0  0  0  0  0
  -24.1493  -36.7242   23.2647 C   0  0  0  0  0  0
  -26.0079  -30.7041   21.3892 C   0  0  0  0  0  0
  -26.0795  -29.3144   20.7295 C   0  0  0  0  0  0
  -27.2429  -28.4509   20.7297 C   0  0  0  0  0  0
  -26.0122  -26.7788   19.5072 C   0  0  0  0  0  0
  -24.8792  -27.6218   19.4872 C   0  0  0  0  0  0
  -23.6761  -29.7823   20.1532 C   0  0  0  0  0  0
  -25.4131  -36.2992   24.0296 C   0  0  1  0  0  0
  -20.5916  -28.3732   23.1212 C   0  0  2  0  0  0
  -20.6786  -26.9432   22.5394 C   0  0  0  0  0  0
  -19.5757  -26.6384   21.5202 C   0  0  0  0  0  0
  -18.1937  -26.7934   22.1615 C   0  0  0  0  0  0
  -19.1562  -28.8881   23.2835 C   0  0  0  0  0  0
  -18.9481  -30.1483   23.8848 C   0  0  0  0  0  0
  -17.6478  -30.6594   24.0556 C   0  0  0  0  0  0
  -25.9083  -34.9372   23.5028 C   0  0  0  0  0  0
  -16.5369  -29.9078   23.6350 C   0  0  0  0  0  0
  -16.7288  -28.6492   23.0380 C   0  0  0  0  0  0
  -26.4556  -31.6539   25.0706 C   0  0  0  0  0  0
  -25.3753  -31.3719   26.1409 C   0  0  0  0  0  0
  -27.0457  -30.2932   24.6332 C   0  0  0  0  0  0
  -27.6048  -32.4355   25.7502 C   0  0  0  0  0  0
  -27.5570  -37.1768   24.8465 C   0  0  0  0  0  0
  -21.4254  -29.3050   22.3575 N   0  0  0  0  0  0
  -26.4283  -37.3717   23.9403 N   0  0  0  0  0  0
  -24.7206  -31.0238   22.0890 N   0  0  0  0  0  0
  -23.4198  -28.8103   23.3016 O   0  0  0  0  0  0
  -28.2610  -26.1074   20.1616 O   0  0  0  0  0  0
  -26.5662  -34.8881   22.4603 O   0  0  0  0  0  0
  -23.5577  -32.1293   23.7062 O   0  0  0  0  0  0
  -28.1294  -21.1897   18.9746 C   0  0  0  0  0  0
  -28.8456  -20.2793   19.8085 C   0  0  0  0  0  0
  -29.4266  -20.9622   20.8925 C   0  0  0  0  0  0
  -28.5519  -23.1616   20.2416 C   0  0  0  0  0  0
  -30.0192  -18.5116   21.8201 C   0  0  0  0  0  0
  -28.9231  -18.6694   19.5967 C   0  0  2  0  0  0
  -29.9628  -17.7464   20.4504 C   0  0  2  0  0  0
  -30.3021  -20.0968   21.8504 C   0  0  0  0  0  0
  -29.0182  -18.2888   18.1109 C   0  0  0  0  0  0
  -31.7824  -20.3442   21.5013 C   0  0  0  0  0  0
  -30.0392  -20.5477   23.3015 C   0  0  0  0  0  0
  -27.9754  -24.6649   20.7031 C   0  0  0  0  0  0
  -27.9879  -22.5469   19.1850 N   0  0  0  0  0  0
  -29.2828  -22.3519   21.0820 N   0  0  0  0  0  0
  -29.7321  -16.1671   20.5433 N   0  0  0  0  0  0
  -31.4761  -12.7820   19.1805 H   0  0  0  0  0  0
  -30.4480  -11.6675   20.0364 H   0  0  0  0  0  0
  -29.8465  -11.7410   17.5871 H   0  0  0  0  0  0
  -29.6059  -13.4676   17.6862 H   0  0  0  0  0  0
  -27.9576  -11.2775   18.9800 H   0  0  0  0  0  0
  -27.3954  -12.4525   17.8188 H   0  0  0  0  0  0
  -27.5894  -14.2515   19.4081 H   0  0  0  0  0  0
  -28.7736  -12.3206   21.4603 H   0  0  0  0  0  0
  -28.3714  -13.9962   21.7518 H   0  0  0  0  0  0
  -25.2777   -9.5695   22.4760 H   0  0  0  0  0  0
  -24.0013   -7.4649   22.7494 H   0  0  0  0  0  0
  -21.0861   -8.8773   19.8940 H   0  0  0  0  0  0
  -22.3718  -10.9675   19.6162 H   0  0  0  0  0  0
  -21.2006   -7.6150   23.9713 H   0  0  0  0  0  0
  -21.1484   -6.0528   25.9079 H   0  0  0  0  0  0
  -22.0597   -2.7609   23.2844 H   0  0  0  0  0  0
  -22.4074  -11.9883   22.4817 H   0  0  0  0  0  0
  -21.1055  -13.1227   22.2576 H   0  0  0  0  0  0
  -24.6453  -15.8452   20.5273 H   0  0  0  0  0  0
  -26.2519  -15.6341   20.0561 H   0  0  0  0  0  0
  -26.7294  -32.5227   23.0956 H   0  0  0  0  0  0
  -25.0139  -33.9576   25.0310 H   0  0  0  0  0  0
  -22.7526  -31.2852   21.3717 H   0  0  0  0  0  0
  -23.3756  -35.9574   23.3280 H   0  0  0  0  0  0
  -24.3570  -36.8930   22.2069 H   0  0  0  0  0  0
  -23.7254  -37.6422   23.6733 H   0  0  0  0  0  0
  -26.1739  -31.4591   20.6195 H   0  0  0  0  0  0
  -26.8729  -30.7457   22.0399 H   0  0  0  0  0  0
  -28.1450  -28.7885   21.2201 H   0  0  0  0  0  0
  -25.9276  -25.8183   19.0188 H   0  0  0  0  0  0
  -23.9796  -27.2797   18.9933 H   0  0  0  0  0  0
  -23.8058  -30.5510   19.3907 H   0  0  0  0  0  0
  -22.7909  -29.2207   19.8496 H   0  0  0  0  0  0
  -25.1318  -36.1803   25.0785 H   0  0  0  0  0  0
  -21.0003  -28.3338   24.1336 H   0  0  0  0  0  0
  -20.5678  -26.2351   23.3624 H   0  0  0  0  0  0
  -21.6651  -26.7430   22.1196 H   0  0  0  0  0  0
  -19.6918  -25.6287   21.1252 H   0  0  0  0  0  0
  -19.6686  -27.3176   20.6719 H   0  0  0  0  0  0
  -17.4211  -26.6706   21.4011 H   0  0  0  0  0  0
  -18.0318  -26.0065   22.8996 H   0  0  0  0  0  0
  -19.7960  -30.7317   24.2180 H   0  0  0  0  0  0
  -17.5034  -31.6269   24.5170 H   0  0  0  0  0  0
  -15.5369  -30.2965   23.7697 H   0  0  0  0  0  0
  -15.8690  -28.0787   22.7127 H   0  0  0  0  0  0
  -24.5951  -30.7030   25.7754 H   0  0  0  0  0  0
  -24.8927  -32.2896   26.4779 H   0  0  0  0  0  0
  -25.8067  -30.8953   27.0225 H   0  0  0  0  0  0
  -26.3103  -29.6618   24.1332 H   0  0  0  0  0  0
  -27.4057  -29.7248   25.4922 H   0  0  0  0  0  0
  -27.9005  -30.4150   23.9674 H   0  0  0  0  0  0
  -27.2597  -33.3697   26.1942 H   0  0  0  0  0  0
  -28.3925  -32.6865   25.0384 H   0  0  0  0  0  0
  -28.0648  -31.8593   26.5541 H   0  0  0  0  0  0
  -28.2557  -38.0094   24.7524 H   0  0  0  0  0  0
  -28.1095  -36.2617   24.6282 H   0  0  0  0  0  0
  -27.2276  -37.1390   25.8864 H   0  0  0  0  0  0
  -20.9473  -29.8746   21.6730 H   0  0  0  0  0  0
  -26.0136  -38.2773   24.1435 H   0  0  0  0  0  0
  -27.6039  -20.8172   18.1089 H   0  0  0  0  0  0
  -30.7391  -18.0110   22.4681 H   0  0  0  0  0  0
  -29.0509  -18.3515   22.2963 H   0  0  0  0  0  0
  -27.9333  -18.3450   19.9222 H   0  0  0  0  0  0
  -30.9475  -17.8642   19.9963 H   0  0  0  0  0  0
  -29.9491  -18.6435   17.6686 H   0  0  0  0  0  0
  -28.1911  -18.6935   17.5277 H   0  0  0  0  0  0
  -28.9856  -17.2063   17.9819 H   0  0  0  0  0  0
  -32.0034  -20.0300   20.4810 H   0  0  0  0  0  0
  -32.4518  -19.7996   22.1680 H   0  0  0  0  0  0
  -32.0349  -21.4029   21.5725 H   0  0  0  0  0  0
  -28.9804  -20.4639   23.5482 H   0  0  0  0  0  0
  -30.3288  -21.5868   23.4596 H   0  0  0  0  0  0
  -30.5948  -19.9424   24.0176 H   0  0  0  0  0  0
  -28.2285  -24.7354   21.7609 H   0  0  0  0  0  0
  -26.8929  -24.5382   20.7112 H   0  0  0  0  0  0
  -28.7652  -15.9338   20.7100 H   0  0  0  0  0  0
  1 25  1  0  0  0
  1 30  2  0  0  0
  1 85  1  0  0  0
  2  3  1  0  0  0
  2 25  1  0  0  0
  2 86  1  0  0  0
  2 87  1  0  0  0
  3  4  1  0  0  0
  3 88  1  0  0  0
  3 89  1  0  0  0
  4  5  1  0  0  0
  4 90  1  0  0  0
  4 91  1  0  0  0
  5  6  1  0  0  0
  5 26  1  0  0  0
  5 92  1  0  0  0
  6 25  1  0  0  0
  6 93  1  0  0  0
  6 94  1  0  0  0
  7  8  2  0  0  0
  7 26  1  0  0  0
  7 29  1  0  0  0
  8  9  1  0  0  0
  8 22  1  0  0  0
  9 10  1  0  0  0
  9 27  2  0  0  0
 10 11  2  0  0  0
 10 15  1  0  0  0
 11 12  1  0  0  0
 11 95  1  0  0  0
 12 13  2  0  0  0
 12 96  1  0  0  0
 13 14  1  0  0  0
 13 31  1  0  0  0
 14 15  2  0  0  0
 14 97  1  0  0  0
 15 98  1  0  0  0
 16 17  2  0  0  0
 16 21  1  0  0  0
 16 31  1  0  0  0
 17 18  1  0  0  0
 17 99  1  0  0  0
 18 19  2  0  0  0
 18100  1  0  0  0
 19 20  1  0  0  0
 19 24  1  0  0  0
 20 21  2  0  0  0
 20101  1  0  0  0
 21 23  1  0  0  0
 22 28  1  0  0  0
 22 32  2  0  0  0
 26 27  1  0  0  0
 28102  1  0  0  0
 28103  1  0  0  0
 29104  1  0  0  0
 29105  1  0  0  0
 33 34  1  0  0  0
 33 66  1  0  0  0
 33 70  2  0  0  0
 34 36  1  0  0  0
 34 59  1  0  0  0
 34106  1  0  0  0
 35 44  2  0  0  0
 35 45  1  0  0  0
 35 68  1  0  0  0
 36 56  1  0  0  0
 36107  1  0  0  0
 37 39  1  0  0  0
 37 47  1  0  0  0
 37 66  1  0  0  0
 37108  1  0  0  0
 38 43  2  0  0  0
 38 46  1  0  0  0
 38 47  1  0  0  0
 39 64  1  0  0  0
 39 67  2  0  0  0
 40 52  1  0  0  0
 40 53  2  0  0  0
 40 58  1  0  0  0
 41109  1  0  0  0
 41110  1  0  0  0
 41111  1  0  0  0
 41 48  1  0  0  0
 42 43  1  0  0  0
 42 66  1  0  0  0
 42112  1  0  0  0
 42113  1  0  0  0
 43 44  1  0  0  0
 44114  1  0  0  0
 45 46  2  0  0  0
 45115  1  0  0  0
 46116  1  0  0  0
 47117  1  0  0  0
 47118  1  0  0  0
 48 56  1  0  0  0
 48 65  1  0  0  0
 48119  1  0  0  0
 49 50  1  0  0  0
 49 53  1  0  0  0
 49 64  1  0  0  0
 49120  1  0  0  0
 50 51  1  0  0  0
 50121  1  0  0  0
 50122  1  0  0  0
 51 52  1  0  0  0
 51123  1  0  0  0
 51124  1  0  0  0
 52125  1  0  0  0
 52126  1  0  0  0
 53 54  1  0  0  0
 54 55  2  0  0  0
 54127  1  0  0  0
 55 57  1  0  0  0
 55128  1  0  0  0
 56 69  2  0  0  0
 57 58  2  0  0  0
 57129  1  0  0  0
 58130  1  0  0  0
 59 60  1  0  0  0
 59 61  1  0  0  0
 59 62  1  0  0  0
 60131  1  0  0  0
 60132  1  0  0  0
 60133  1  0  0  0
 61134  1  0  0  0
 61135  1  0  0  0
 61136  1  0  0  0
 62137  1  0  0  0
 62138  1  0  0  0
 62139  1  0  0  0
 63 65  1  0  0  0
 63140  1  0  0  0
 63141  1  0  0  0
 63142  1  0  0  0
 64143  1  0  0  0
 65144  1  0  0  0
 68 82  1  0  0  0
 71 72  2  0  0  0
 71 83  1  0  0  0
 71145  1  0  0  0
 72 73  1  0  0  0
 72 76  1  0  0  0
 73 78  1  0  0  0
 73 84  2  0  0  0
 74 82  1  0  0  0
 74 83  2  0  0  0
 74 84  1  0  0  0
 75 77  1  0  0  0
 75 78  1  0  0  0
 75146  1  0  0  0
 75147  1  0  0  0
 76 77  1  0  0  0
 76 79  1  0  0  0
 76148  1  0  0  0
 77 85  1  0  0  0
 77149  1  0  0  0
 78 80  1  0  0  0
 78 81  1  0  0  0
 79150  1  0  0  0
 79151  1  0  0  0
 79152  1  0  0  0
 80153  1  0  0  0
 80154  1  0  0  0
 80155  1  0  0  0
 81156  1  0  0  0
 81157  1  0  0  0
 81158  1  0  0  0
 82159  1  0  0  0
 82160  1  0  0  0
 85161  1  0  0  0
M  ISO  4   1 100  68 101  82 101  85 100
M  END
> <chiral flag>
0

> <version>
0

> <s_m_source_file>
/data/baiqing/PycharmProjects/Reinvent-master-3.2/result/LINK_invent/BTK/process_docking_weight1_custom_sum_contain_oxygen_bond_distance_aromatic_linkinvent_7_9_3/rearranged_h_0180.sdf

> <i_m_source_file_index>
11

> <r_mmod_Potential_Energy-OPLS-2005>
99.5003051757812

> <r_mmod_Stretch_Energy-OPLS-2005>
249.437271118164

> <r_mmod_Bend_Energy-OPLS-2005>
278.374359130859

> <r_mmod_Torsional_Energy-OPLS-2005>
233.624038696289

> <r_mmod_Improper_Torsional_Energy-OPLS-2005>
7.90463256835938

> <r_mmod_Van_der_Waal_Energy-OPLS-2005>
133.743270874023

> <r_mmod_Electrostatic_Energy-OPLS-2005>
-793.583801269531

> <r_mmod_Solvation_Energy-OPLS-2005>
-226.718048095703

> <b_mmod_Minimization_Converged-OPLS-2005>
0

> <r_mmod_RMS_Derivative-OPLS-2005>
1.6648690700531

$$$$
11
                    3D
 Structure written by MMmdl.
156165  0  0  1  0            999 V2000
  -30.4714  -15.2087   20.3850 C   0  0  0  0  0  0
  -30.4353  -12.7681   19.5321 C   0  0  0  0  0  0
  -29.5331  -12.5727   18.2884 C   0  0  0  0  0  0
  -28.0789  -12.3084   18.7130 C   0  0  0  0  0  0
  -27.6150  -13.2750   19.8315 C   0  0  2  0  0  0
  -28.6495  -13.4314   20.9683 C   0  0  0  0  0  0
  -25.2400  -13.8249   20.5774 C   0  0  0  0  0  0
  -24.1748  -13.0437   20.9265 C   0  0  0  0  0  0
  -24.6405  -11.6939   20.8771 C   0  0  0  0  0  0
  -23.9097  -10.4300   21.0404 C   0  0  0  0  0  0
  -24.3641   -9.4211   21.9183 C   0  0  0  0  0  0
  -23.6313   -8.2245   22.0752 C   0  0  0  0  0  0
  -22.4292   -8.0285   21.3545 C   0  0  0  0  0  0
  -21.9931   -9.0258   20.4646 C   0  0  0  0  0  0
  -22.7264  -10.2135   20.3057 C   0  0  0  0  0  0
  -21.6857   -6.0745   22.5276 C   0  0  0  0  0  0
  -21.4016   -6.5649   23.8209 C   0  0  0  0  0  0
  -21.3657   -5.6801   24.9170 C   0  0  0  0  0  0
  -21.6045   -4.3064   24.7220 C   0  0  0  0  0  0
  -21.8818   -3.8155   23.4342 C   0  0  0  0  0  0
  -21.9196   -4.6972   22.3399 C   0  0  0  0  0  0
  -22.7768  -13.5191   21.1906 C   0  0  0  0  0  0
  -22.1665   -4.2161   21.0978 F   0  0  0  0  0  0
  -21.5625   -3.4544   25.7731 F   0  0  0  0  0  0
  -29.8927  -13.9132   20.3481 N   0  0  0  0  0  0
  -26.2833  -12.9530   20.3265 N   0  0  0  0  0  0
  -25.9343  -11.6631   20.5747 N   0  0  0  0  0  0
  -22.0435  -12.8164   22.0459 N   0  0  0  0  0  0
  -25.4043  -15.1982   20.4226 N   0  0  0  0  0  0
  -31.6854  -15.2087   20.1419 O   0  0  0  0  0  0
  -21.6647   -6.8887   21.4240 O   0  0  0  0  0  0
  -22.3447  -14.5496   20.6754 O   0  0  0  0  0  0
  -24.6613  -31.8277   23.1748 C   0  0  0  0  0  0
  -25.9310  -32.4609   23.8194 C   0  0  1  0  0  0
  -27.2043  -26.9596   20.1790 C   0  0  0  0  0  0
  -25.5999  -33.8426   24.2106 N   0  0  0  0  0  0
  -23.4730  -30.4443   21.5234 C   0  0  2  0  0  0
  -24.9235  -28.8440   20.1111 C   0  0  0  0  0  0
  -22.7657  -29.4464   22.4779 C   0  0  0  0  0  0
  -18.0324  -28.1422   22.8481 C   0  0  0  0  0  0
  -24.1482  -36.7203   23.2645 C   0  0  0  0  0  0
  -26.0419  -30.6467   21.4004 C   0  0  0  0  0  0
  -26.1073  -29.2411   20.7447 C   0  0  0  0  0  0
  -27.2452  -28.3184   20.7577 C   0  0  0  0  0  0
  -25.9926  -26.7173   19.4907 C   0  0  0  0  0  0
  -24.8890  -27.6029   19.4641 C   0  0  0  0  0  0
  -23.7112  -29.7690   20.1461 C   0  0  0  0  0  0
  -25.4124  -36.2976   24.0303 C   0  0  1  0  0  0
  -20.5953  -28.3761   23.1193 C   0  0  2  0  0  0
  -20.6800  -26.9447   22.5395 C   0  0  0  0  0  0
  -19.5769  -26.6397   21.5215 C   0  0  0  0  0  0
  -18.1952  -26.7954   22.1631 C   0  0  0  0  0  0
  -19.1587  -28.8909   23.2828 C   0  0  0  0  0  0
  -18.9497  -30.1500   23.8859 C   0  0  0  0  0  0
  -17.6493  -30.6613   24.0561 C   0  0  0  0  0  0
  -25.9096  -34.9364   23.5018 C   0  0  0  0  0  0
  -16.5381  -29.9106   23.6350 C   0  0  0  0  0  0
  -16.7305  -28.6526   23.0369 C   0  0  0  0  0  0
  -26.4570  -31.6542   25.0703 C   0  0  0  0  0  0
  -25.3713  -31.3808   26.1372 C   0  0  0  0  0  0
  -27.0449  -30.2906   24.6415 C   0  0  0  0  0  0
  -27.6063  -32.4347   25.7509 C   0  0  0  0  0  0
  -27.5554  -37.1759   24.8472 C   0  0  0  0  0  0
  -21.4323  -29.3062   22.3538 N   0  0  0  0  0  0
  -26.4261  -37.3714   23.9417 N   0  0  0  0  0  0
  -24.7468  -30.9984   22.0868 N   0  0  0  0  0  0
  -23.4218  -28.8020   23.2992 O   0  0  0  0  0  0
  -28.1850  -25.8432   20.2594 O   0  0  0  0  0  0
  -26.5683  -34.8886   22.4598 O   0  0  0  0  0  0
  -23.5690  -32.1227   23.6872 O   0  0  0  0  0  0
  -29.3707  -22.1329   21.2058 C   0  0  0  0  0  0
  -28.5048  -22.7031   20.1946 C   0  0  0  0  0  0
  -29.8005  -20.7138   21.3090 C   0  0  0  0  0  0
  -28.1379  -21.5467   19.3642 C   0  0  0  0  0  0
  -29.4025  -19.6328   20.4084 C   0  0  0  0  0  0
  -27.3410  -21.1539   16.8901 C   0  0  0  0  0  0
  -27.2993  -22.6403   17.1108 C   0  0  0  0  0  0
  -27.1021  -21.7022   18.2837 C   0  0  0  0  0  0
  -30.7409  -20.4072   22.4643 C   0  0  0  0  0  0
  -27.7593  -24.2798   20.0927 C   0  0  0  0  0  0
  -30.1329  -18.0579   20.2415 C   0  0  0  0  0  0
  -28.5633  -20.1885   19.4537 N   0  0  0  0  0  0
  -29.7335  -16.4784   20.4881 N   0  0  0  0  0  0
  -31.4612  -12.9515   19.2095 H   0  0  0  0  0  0
  -30.4760  -11.8548   20.1278 H   0  0  0  0  0  0
  -29.9014  -11.7492   17.6754 H   0  0  0  0  0  0
  -29.5766  -13.4665   17.6634 H   0  0  0  0  0  0
  -28.0246  -11.2811   19.0736 H   0  0  0  0  0  0
  -27.4107  -12.3689   17.8528 H   0  0  0  0  0  0
  -27.5372  -14.2482   19.3454 H   0  0  0  0  0  0
  -28.8021  -12.4959   21.5091 H   0  0  0  0  0  0
  -28.2998  -14.1610   21.7004 H   0  0  0  0  0  0
  -25.2778   -9.5685   22.4771 H   0  0  0  0  0  0
  -24.0016   -7.4633   22.7470 H   0  0  0  0  0  0
  -21.0864   -8.8785   19.8951 H   0  0  0  0  0  0
  -22.3721  -10.9682   19.6177 H   0  0  0  0  0  0
  -21.2011   -7.6157   23.9716 H   0  0  0  0  0  0
  -21.1478   -6.0529   25.9074 H   0  0  0  0  0  0
  -22.0600   -2.7621   23.2834 H   0  0  0  0  0  0
  -22.4069  -11.9815   22.4817 H   0  0  0  0  0  0
  -21.1052  -13.1165   22.2688 H   0  0  0  0  0  0
  -24.6341  -15.8481   20.5369 H   0  0  0  0  0  0
  -26.2452  -15.6405   20.0765 H   0  0  0  0  0  0
  -26.7370  -32.5145   23.0901 H   0  0  0  0  0  0
  -25.0145  -33.9522   25.0255 H   0  0  0  0  0  0
  -22.7848  -31.2756   21.3564 H   0  0  0  0  0  0
  -23.3750  -35.9526   23.3305 H   0  0  0  0  0  0
  -24.3570  -36.8851   22.2061 H   0  0  0  0  0  0
  -23.7232  -37.6388   23.6701 H   0  0  0  0  0  0
  -26.2179  -31.3912   20.6229 H   0  0  0  0  0  0
  -26.9042  -30.7001   22.0535 H   0  0  0  0  0  0
  -28.1380  -28.6203   21.2864 H   0  0  0  0  0  0
  -25.8443  -25.7786   18.9825 H   0  0  0  0  0  0
  -23.9912  -27.2957   18.9451 H   0  0  0  0  0  0
  -23.8676  -30.5411   19.3917 H   0  0  0  0  0  0
  -22.8214  -29.2247   19.8242 H   0  0  0  0  0  0
  -25.1322  -36.1761   25.0794 H   0  0  0  0  0  0
  -21.0046  -28.3355   24.1317 H   0  0  0  0  0  0
  -20.5681  -26.2383   23.3637 H   0  0  0  0  0  0
  -21.6660  -26.7427   22.1194 H   0  0  0  0  0  0
  -19.6926  -25.6300   21.1270 H   0  0  0  0  0  0
  -19.6695  -27.3181   20.6726 H   0  0  0  0  0  0
  -17.4217  -26.6708   21.4037 H   0  0  0  0  0  0
  -18.0335  -26.0104   22.9037 H   0  0  0  0  0  0
  -19.7974  -30.7328   24.2194 H   0  0  0  0  0  0
  -17.5053  -31.6283   24.5183 H   0  0  0  0  0  0
  -15.5377  -30.2998   23.7706 H   0  0  0  0  0  0
  -15.8709  -28.0834   22.7105 H   0  0  0  0  0  0
  -24.5882  -30.7172   25.7697 H   0  0  0  0  0  0
  -24.8914  -32.3018   26.4681 H   0  0  0  0  0  0
  -25.7948  -30.9046   27.0223 H   0  0  0  0  0  0
  -26.3105  -29.6597   24.1386 H   0  0  0  0  0  0
  -27.3954  -29.7258   25.5064 H   0  0  0  0  0  0
  -27.9070  -30.4097   23.9851 H   0  0  0  0  0  0
  -27.2626  -33.3689   26.1967 H   0  0  0  0  0  0
  -28.3937  -32.6837   25.0388 H   0  0  0  0  0  0
  -28.0653  -31.8545   26.5524 H   0  0  0  0  0  0
  -28.2564  -38.0057   24.7499 H   0  0  0  0  0  0
  -28.1048  -36.2582   24.6312 H   0  0  0  0  0  0
  -27.2282  -37.1431   25.8878 H   0  0  0  0  0  0
  -20.9562  -29.8774   21.6697 H   0  0  0  0  0  0
  -26.0101  -38.2768   24.1426 H   0  0  0  0  0  0
  -29.7196  -22.8120   21.9709 H   0  0  0  0  0  0
  -28.3094  -20.7055   16.6771 H   0  0  0  0  0  0
  -26.4950  -20.7083   16.3697 H   0  0  0  0  0  0
  -26.4225  -23.1725   16.7440 H   0  0  0  0  0  0
  -28.2387  -23.1877   17.0534 H   0  0  0  0  0  0
  -26.0978  -21.6000   18.6917 H   0  0  0  0  0  0
  -30.2682  -20.6797   23.4090 H   0  0  0  0  0  0
  -31.6590  -20.9885   22.3724 H   0  0  0  0  0  0
  -31.0119  -19.3564   22.5368 H   0  0  0  0  0  0
  -26.8853  -24.1796   20.7368 H   0  0  0  0  0  0
  -27.3511  -24.2755   19.0888 H   0  0  0  0  0  0
  -31.0990  -18.1480   20.7354 H   0  0  0  0  0  0
  -30.4164  -18.0561   19.1893 H   0  0  0  0  0  0
  -28.7497  -16.3535   20.6765 H   0  0  0  0  0  0
  1 25  1  0  0  0
  1 30  2  0  0  0
  1 83  1  0  0  0
  2  3  1  0  0  0
  2 25  1  0  0  0
  2 84  1  0  0  0
  2 85  1  0  0  0
  3  4  1  0  0  0
  3 86  1  0  0  0
  3 87  1  0  0  0
  4  5  1  0  0  0
  4 88  1  0  0  0
  4 89  1  0  0  0
  5  6  1  0  0  0
  5 26  1  0  0  0
  5 90  1  0  0  0
  6 25  1  0  0  0
  6 91  1  0  0  0
  6 92  1  0  0  0
  7  8  2  0  0  0
  7 26  1  0  0  0
  7 29  1  0  0  0
  8  9  1  0  0  0
  8 22  1  0  0  0
  9 10  1  0  0  0
  9 27  2  0  0  0
 10 11  2  0  0  0
 10 15  1  0  0  0
 11 12  1  0  0  0
 11 93  1  0  0  0
 12 13  2  0  0  0
 12 94  1  0  0  0
 13 14  1  0  0  0
 13 31  1  0  0  0
 14 15  2  0  0  0
 14 95  1  0  0  0
 15 96  1  0  0  0
 16 17  2  0  0  0
 16 21  1  0  0  0
 16 31  1  0  0  0
 17 18  1  0  0  0
 17 97  1  0  0  0
 18 19  2  0  0  0
 18 98  1  0  0  0
 19 20  1  0  0  0
 19 24  1  0  0  0
 20 21  2  0  0  0
 20 99  1  0  0  0
 21 23  1  0  0  0
 22 28  1  0  0  0
 22 32  2  0  0  0
 26 27  1  0  0  0
 28100  1  0  0  0
 28101  1  0  0  0
 29102  1  0  0  0
 29103  1  0  0  0
 33 34  1  0  0  0
 33 66  1  0  0  0
 33 70  2  0  0  0
 34 36  1  0  0  0
 34 59  1  0  0  0
 34104  1  0  0  0
 35 44  2  0  0  0
 35 45  1  0  0  0
 35 68  1  0  0  0
 36 56  1  0  0  0
 36105  1  0  0  0
 37 39  1  0  0  0
 37 47  1  0  0  0
 37 66  1  0  0  0
 37106  1  0  0  0
 38 43  2  0  0  0
 38 46  1  0  0  0
 38 47  1  0  0  0
 39 64  1  0  0  0
 39 67  2  0  0  0
 40 52  1  0  0  0
 40 53  2  0  0  0
 40 58  1  0  0  0
 41107  1  0  0  0
 41108  1  0  0  0
 41109  1  0  0  0
 41 48  1  0  0  0
 42 43  1  0  0  0
 42 66  1  0  0  0
 42110  1  0  0  0
 42111  1  0  0  0
 43 44  1  0  0  0
 44112  1  0  0  0
 45 46  2  0  0  0
 45113  1  0  0  0
 46114  1  0  0  0
 47115  1  0  0  0
 47116  1  0  0  0
 48 56  1  0  0  0
 48 65  1  0  0  0
 48117  1  0  0  0
 49 50  1  0  0  0
 49 53  1  0  0  0
 49 64  1  0  0  0
 49118  1  0  0  0
 50 51  1  0  0  0
 50119  1  0  0  0
 50120  1  0  0  0
 51 52  1  0  0  0
 51121  1  0  0  0
 51122  1  0  0  0
 52123  1  0  0  0
 52124  1  0  0  0
 53 54  1  0  0  0
 54 55  2  0  0  0
 54125  1  0  0  0
 55 57  1  0  0  0
 55126  1  0  0  0
 56 69  2  0  0  0
 57 58  2  0  0  0
 57127  1  0  0  0
 58128  1  0  0  0
 59 60  1  0  0  0
 59 61  1  0  0  0
 59 62  1  0  0  0
 60129  1  0  0  0
 60130  1  0  0  0
 60131  1  0  0  0
 61132  1  0  0  0
 61133  1  0  0  0
 61134  1  0  0  0
 62135  1  0  0  0
 62136  1  0  0  0
 62137  1  0  0  0
 63 65  1  0  0  0
 63138  1  0  0  0
 63139  1  0  0  0
 63140  1  0  0  0
 64141  1  0  0  0
 65142  1  0  0  0
 68 80  1  0  0  0
 71 72  2  0  0  0
 71 73  1  0  0  0
 71143  1  0  0  0
 72 74  1  0  0  0
 72 80  1  0  0  0
 73 75  2  0  0  0
 73 79  1  0  0  0
 74 82  2  0  0  0
 74 78  1  0  0  0
 75 81  1  0  0  0
 75 82  1  0  0  0
 76 77  1  0  0  0
 76 78  1  0  0  0
 76144  1  0  0  0
 76145  1  0  0  0
 77 78  1  0  0  0
 77146  1  0  0  0
 77147  1  0  0  0
 78148  1  0  0  0
 79149  1  0  0  0
 79150  1  0  0  0
 79151  1  0  0  0
 80152  1  0  0  0
 80153  1  0  0  0
 81 83  1  0  0  0
 81154  1  0  0  0
 81155  1  0  0  0
 83156  1  0  0  0
M  ISO  4   1 100  68 101  80 101  83 100
M  END
> <chiral flag>
0

> <version>
0

> <s_m_source_file>
/data/baiqing/PycharmProjects/Reinvent-master-3.2/result/LINK_invent/BTK/process_docking_weight1_custom_sum_contain_oxygen_bond_distance_aromatic_linkinvent_7_9_3/rearranged_h_0180.sdf

> <i_m_source_file_index>
12

> <r_mmod_Potential_Energy-OPLS-2005>
870.08544921875

> <r_mmod_Stretch_Energy-OPLS-2005>
465.717407226562

> <r_mmod_Bend_Energy-OPLS-2005>
428.502502441406

> <r_mmod_Torsional_Energy-OPLS-2005>
246.80061340332

> <r_mmod_Improper_Torsional_Energy-OPLS-2005>
8.26958560943604

> <r_mmod_Van_der_Waal_Energy-OPLS-2005>
135.397247314453

> <r_mmod_Electrostatic_Energy-OPLS-2005>
-595.971923828125

> <r_mmod_Solvation_Energy-OPLS-2005>
-228.200927734375

> <b_mmod_Minimization_Converged-OPLS-2005>
0

> <r_mmod_RMS_Derivative-OPLS-2005>
1.70682835578918

$$$$
12
                    3D
 Structure written by MMmdl.
159168  0  0  1  0            999 V2000
  -30.6903  -14.6033   20.4797 C   0  0  0  0  0  0
  -30.4166  -12.3662   19.4630 C   0  0  0  0  0  0
  -29.5031  -12.4849   18.2269 C   0  0  0  0  0  0
  -28.0270  -12.3334   18.6399 C   0  0  0  0  0  0
  -27.6484  -13.2239   19.8546 C   0  0  2  0  0  0
  -28.6914  -13.1260   20.9906 C   0  0  0  0  0  0
  -25.2545  -13.8195   20.5701 C   0  0  0  0  0  0
  -24.1828  -13.0450   20.9215 C   0  0  0  0  0  0
  -24.6405  -11.6925   20.8753 C   0  0  0  0  0  0
  -23.9080  -10.4302   21.0412 C   0  0  0  0  0  0
  -24.3629   -9.4212   21.9187 C   0  0  0  0  0  0
  -23.6304   -8.2246   22.0757 C   0  0  0  0  0  0
  -22.4282   -8.0290   21.3548 C   0  0  0  0  0  0
  -21.9922   -9.0267   20.4646 C   0  0  0  0  0  0
  -22.7257  -10.2145   20.3055 C   0  0  0  0  0  0
  -21.6848   -6.0744   22.5285 C   0  0  0  0  0  0
  -21.4016   -6.5646   23.8222 C   0  0  0  0  0  0
  -21.3661   -5.6797   24.9182 C   0  0  0  0  0  0
  -21.6039   -4.3059   24.7230 C   0  0  0  0  0  0
  -21.8816   -3.8153   23.4350 C   0  0  0  0  0  0
  -21.9201   -4.6973   22.3409 C   0  0  0  0  0  0
  -22.7852  -13.5238   21.1872 C   0  0  0  0  0  0
  -22.1662   -4.2161   21.0985 F   0  0  0  0  0  0
  -21.5632   -3.4541   25.7741 F   0  0  0  0  0  0
  -30.0073  -13.4215   20.4112 N   0  0  0  0  0  0
  -26.2974  -12.9394   20.3291 N   0  0  0  0  0  0
  -25.9332  -11.6540   20.5757 N   0  0  0  0  0  0
  -22.0483  -12.8229   22.0411 N   0  0  0  0  0  0
  -25.4229  -15.1924   20.4121 N   0  0  0  0  0  0
  -31.8719  -14.6741   20.1365 O   0  0  0  0  0  0
  -21.6639   -6.8891   21.4245 O   0  0  0  0  0  0
  -22.3544  -14.5542   20.6711 O   0  0  0  0  0  0
  -24.6221  -31.8622   23.2069 C   0  0  0  0  0  0
  -25.9096  -32.4774   23.8360 C   0  0  1  0  0  0
  -27.2114  -27.3406   20.1118 C   0  0  0  0  0  0
  -25.5937  -33.8573   24.2281 N   0  0  0  0  0  0
  -23.4130  -30.4908   21.5486 C   0  0  2  0  0  0
  -24.8605  -28.9578   20.1049 C   0  0  0  0  0  0
  -22.7453  -29.4648   22.4934 C   0  0  0  0  0  0
  -18.0281  -28.1365   22.8494 C   0  0  0  0  0  0
  -24.1496  -36.7300   23.2635 C   0  0  0  0  0  0
  -25.9540  -30.7988   21.3799 C   0  0  0  0  0  0
  -26.0283  -29.4306   20.7178 C   0  0  0  0  0  0
  -27.2097  -28.6315   20.7190 C   0  0  0  0  0  0
  -26.0339  -26.9402   19.4387 C   0  0  0  0  0  0
  -24.8643  -27.7161   19.4553 C   0  0  0  0  0  0
  -23.6274  -29.8329   20.1608 C   0  0  0  0  0  0
  -25.4121  -36.3069   24.0319 C   0  0  1  0  0  0
  -20.5880  -28.3676   23.1278 C   0  0  2  0  0  0
  -20.6773  -26.9406   22.5396 C   0  0  0  0  0  0
  -19.5750  -26.6375   21.5202 C   0  0  0  0  0  0
  -18.1930  -26.7907   22.1617 C   0  0  0  0  0  0
  -19.1537  -28.8836   23.2884 C   0  0  0  0  0  0
  -18.9467  -30.1446   23.8899 C   0  0  0  0  0  0
  -17.6469  -30.6579   24.0564 C   0  0  0  0  0  0
  -25.9058  -34.9441   23.5098 C   0  0  0  0  0  0
  -16.5359  -29.9082   23.6330 C   0  0  0  0  0  0
  -16.7272  -28.6490   23.0363 C   0  0  0  0  0  0
  -26.4494  -31.6578   25.0717 C   0  0  0  0  0  0
  -25.3727  -31.3737   26.1445 C   0  0  0  0  0  0
  -27.0324  -30.2992   24.6159 C   0  0  0  0  0  0
  -27.6043  -32.4330   25.7498 C   0  0  0  0  0  0
  -27.5583  -37.1802   24.8466 C   0  0  0  0  0  0
  -21.4174  -29.3042   22.3676 N   0  0  0  0  0  0
  -26.4296  -37.3768   23.9410 N   0  0  0  0  0  0
  -24.6811  -31.0665   22.1008 N   0  0  0  0  0  0
  -23.4209  -28.8190   23.2997 O   0  0  0  0  0  0
  -28.2855  -26.4429   20.1806 O   0  0  0  0  0  0
  -26.5620  -34.8902   22.4656 O   0  0  0  0  0  0
  -23.5403  -32.1427   23.7420 O   0  0  0  0  0  0
  -28.4258  -20.0006   21.9673 C   0  0  0  0  0  0
  -29.7373  -20.7617   20.1461 C   0  0  0  0  0  0
  -28.8225  -21.1137   21.1687 C   0  0  0  0  0  0
  -28.9277  -18.6862   21.7760 C   0  0  0  0  0  0
  -29.8494  -18.4530   20.7324 C   0  0  0  0  0  0
  -27.8679  -22.8320   22.9123 C   0  0  0  0  0  0
  -26.7734  -22.5662   21.9125 C   0  0  0  0  0  0
  -28.2333  -22.5485   21.4559 C   0  0  0  0  0  0
  -28.4832  -17.5847   22.7262 C   0  0  0  0  0  0
  -30.6068  -17.1053   20.4813 C   0  0  0  0  0  0
  -28.7882  -23.7921   20.6367 C   0  0  0  0  0  0
  -27.9116  -25.1255   20.7395 C   0  0  0  0  0  0
  -30.2223  -19.4970   19.9431 N   0  0  0  0  0  0
  -29.9938  -15.7548   20.7047 N   0  0  0  0  0  0
  -31.4631  -12.4479   19.1649 H   0  0  0  0  0  0
  -30.3166  -11.3816   19.9252 H   0  0  0  0  0  0
  -29.7667  -11.7220   17.4931 H   0  0  0  0  0  0
  -29.6589  -13.4484   17.7396 H   0  0  0  0  0  0
  -27.8648  -11.2839   18.8882 H   0  0  0  0  0  0
  -27.3752  -12.5483   17.7918 H   0  0  0  0  0  0
  -27.6575  -14.2513   19.4898 H   0  0  0  0  0  0
  -28.6891  -12.1296   21.4343 H   0  0  0  0  0  0
  -28.4491  -13.8214   21.7963 H   0  0  0  0  0  0
  -25.2768   -9.5693   22.4772 H   0  0  0  0  0  0
  -24.0019   -7.4631   22.7468 H   0  0  0  0  0  0
  -21.0860   -8.8790   19.8938 H   0  0  0  0  0  0
  -22.3717  -10.9696   19.6172 H   0  0  0  0  0  0
  -21.1989   -7.6149   23.9736 H   0  0  0  0  0  0
  -21.1487   -6.0518   25.9092 H   0  0  0  0  0  0
  -22.0590   -2.7617   23.2846 H   0  0  0  0  0  0
  -22.4100  -11.9892   22.4812 H   0  0  0  0  0  0
  -21.1097  -13.1254   22.2582 H   0  0  0  0  0  0
  -24.6475  -15.8385   20.5117 H   0  0  0  0  0  0
  -26.2565  -15.6343   20.0479 H   0  0  0  0  0  0
  -26.7155  -32.5459   23.1107 H   0  0  0  0  0  0
  -25.0064  -33.9718   25.0410 H   0  0  0  0  0  0
  -22.7025  -31.3096   21.4098 H   0  0  0  0  0  0
  -23.3733  -35.9658   23.3302 H   0  0  0  0  0  0
  -24.3583  -36.8918   22.2050 H   0  0  0  0  0  0
  -23.7265  -37.6505   23.6662 H   0  0  0  0  0  0
  -26.0844  -31.5677   20.6166 H   0  0  0  0  0  0
  -26.8344  -30.8413   22.0086 H   0  0  0  0  0  0
  -28.0970  -28.9833   21.2267 H   0  0  0  0  0  0
  -25.9976  -26.0030   18.9017 H   0  0  0  0  0  0
  -23.9743  -27.3585   18.9556 H   0  0  0  0  0  0
  -23.7421  -30.6148   19.4095 H   0  0  0  0  0  0
  -22.7487  -29.2605   19.8579 H   0  0  0  0  0  0
  -25.1296  -36.1917   25.0806 H   0  0  0  0  0  0
  -20.9961  -28.3255   24.1407 H   0  0  0  0  0  0
  -20.5678  -26.2288   23.3598 H   0  0  0  0  0  0
  -21.6645  -26.7435   22.1192 H   0  0  0  0  0  0
  -19.6920  -25.6289   21.1227 H   0  0  0  0  0  0
  -19.6690  -27.3187   20.6732 H   0  0  0  0  0  0
  -17.4201  -26.6670   21.4015 H   0  0  0  0  0  0
  -18.0350  -26.0028   22.8991 H   0  0  0  0  0  0
  -19.7958  -30.7260   24.2262 H   0  0  0  0  0  0
  -17.5030  -31.6265   24.5162 H   0  0  0  0  0  0
  -15.5363  -30.2988   23.7645 H   0  0  0  0  0  0
  -15.8664  -28.0807   22.7077 H   0  0  0  0  0  0
  -24.5898  -30.7081   25.7801 H   0  0  0  0  0  0
  -24.8951  -32.2929   26.4863 H   0  0  0  0  0  0
  -25.8060  -30.8945   27.0234 H   0  0  0  0  0  0
  -26.2893  -29.6743   24.1188 H   0  0  0  0  0  0
  -27.4018  -29.7225   25.4654 H   0  0  0  0  0  0
  -27.8766  -30.4256   23.9373 H   0  0  0  0  0  0
  -27.2615  -33.3610   26.2091 H   0  0  0  0  0  0
  -28.3863  -32.6923   25.0353 H   0  0  0  0  0  0
  -28.0690  -31.8457   26.5432 H   0  0  0  0  0  0
  -28.2587  -38.0107   24.7503 H   0  0  0  0  0  0
  -28.1077  -36.2625   24.6296 H   0  0  0  0  0  0
  -27.2298  -37.1467   25.8866 H   0  0  0  0  0  0
  -20.9340  -29.8783   21.6920 H   0  0  0  0  0  0
  -26.0158  -38.2833   24.1408 H   0  0  0  0  0  0
  -27.7191  -20.1400   22.7701 H   0  0  0  0  0  0
  -30.1026  -21.5134   19.4604 H   0  0  0  0  0  0
  -28.0638  -22.0769   23.6682 H   0  0  0  0  0  0
  -27.9407  -23.8461   23.2952 H   0  0  0  0  0  0
  -26.1188  -23.4071   21.6978 H   0  0  0  0  0  0
  -26.2421  -21.6199   21.9775 H   0  0  0  0  0  0
  -28.0182  -17.9982   23.6220 H   0  0  0  0  0  0
  -29.3273  -16.9790   23.0584 H   0  0  0  0  0  0
  -27.7507  -16.9339   22.2463 H   0  0  0  0  0  0
  -31.5130  -17.1544   21.0861 H   0  0  0  0  0  0
  -30.9523  -17.1255   19.4459 H   0  0  0  0  0  0
  -29.8053  -23.9948   20.9728 H   0  0  0  0  0  0
  -28.8614  -23.5174   19.5838 H   0  0  0  0  0  0
  -27.7196  -25.3439   21.7887 H   0  0  0  0  0  0
  -26.9560  -24.8175   20.3286 H   0  0  0  0  0  0
  -29.0102  -15.7065   20.9168 H   0  0  0  0  0  0
  1 25  1  0  0  0
  1 30  2  0  0  0
  1 84  1  0  0  0
  2  3  1  0  0  0
  2 25  1  0  0  0
  2 85  1  0  0  0
  2 86  1  0  0  0
  3  4  1  0  0  0
  3 87  1  0  0  0
  3 88  1  0  0  0
  4  5  1  0  0  0
  4 89  1  0  0  0
  4 90  1  0  0  0
  5  6  1  0  0  0
  5 26  1  0  0  0
  5 91  1  0  0  0
  6 25  1  0  0  0
  6 92  1  0  0  0
  6 93  1  0  0  0
  7  8  2  0  0  0
  7 26  1  0  0  0
  7 29  1  0  0  0
  8  9  1  0  0  0
  8 22  1  0  0  0
  9 10  1  0  0  0
  9 27  2  0  0  0
 10 11  2  0  0  0
 10 15  1  0  0  0
 11 12  1  0  0  0
 11 94  1  0  0  0
 12 13  2  0  0  0
 12 95  1  0  0  0
 13 14  1  0  0  0
 13 31  1  0  0  0
 14 15  2  0  0  0
 14 96  1  0  0  0
 15 97  1  0  0  0
 16 17  2  0  0  0
 16 21  1  0  0  0
 16 31  1  0  0  0
 17 18  1  0  0  0
 17 98  1  0  0  0
 18 19  2  0  0  0
 18 99  1  0  0  0
 19 20  1  0  0  0
 19 24  1  0  0  0
 20 21  2  0  0  0
 20100  1  0  0  0
 21 23  1  0  0  0
 22 28  1  0  0  0
 22 32  2  0  0  0
 26 27  1  0  0  0
 28101  1  0  0  0
 28102  1  0  0  0
 29103  1  0  0  0
 29104  1  0  0  0
 33 34  1  0  0  0
 33 66  1  0  0  0
 33 70  2  0  0  0
 34 36  1  0  0  0
 34 59  1  0  0  0
 34105  1  0  0  0
 35 44  2  0  0  0
 35 45  1  0  0  0
 35 68  1  0  0  0
 36 56  1  0  0  0
 36106  1  0  0  0
 37 39  1  0  0  0
 37 47  1  0  0  0
 37 66  1  0  0  0
 37107  1  0  0  0
 38 43  2  0  0  0
 38 46  1  0  0  0
 38 47  1  0  0  0
 39 64  1  0  0  0
 39 67  2  0  0  0
 40 52  1  0  0  0
 40 53  2  0  0  0
 40 58  1  0  0  0
 41108  1  0  0  0
 41109  1  0  0  0
 41110  1  0  0  0
 41 48  1  0  0  0
 42 43  1  0  0  0
 42 66  1  0  0  0
 42111  1  0  0  0
 42112  1  0  0  0
 43 44  1  0  0  0
 44113  1  0  0  0
 45 46  2  0  0  0
 45114  1  0  0  0
 46115  1  0  0  0
 47116  1  0  0  0
 47117  1  0  0  0
 48 56  1  0  0  0
 48 65  1  0  0  0
 48118  1  0  0  0
 49 50  1  0  0  0
 49 53  1  0  0  0
 49 64  1  0  0  0
 49119  1  0  0  0
 50 51  1  0  0  0
 50120  1  0  0  0
 50121  1  0  0  0
 51 52  1  0  0  0
 51122  1  0  0  0
 51123  1  0  0  0
 52124  1  0  0  0
 52125  1  0  0  0
 53 54  1  0  0  0
 54 55  2  0  0  0
 54126  1  0  0  0
 55 57  1  0  0  0
 55127  1  0  0  0
 56 69  2  0  0  0
 57 58  2  0  0  0
 57128  1  0  0  0
 58129  1  0  0  0
 59 60  1  0  0  0
 59 61  1  0  0  0
 59 62  1  0  0  0
 60130  1  0  0  0
 60131  1  0  0  0
 60132  1  0  0  0
 61133  1  0  0  0
 61134  1  0  0  0
 61135  1  0  0  0
 62136  1  0  0  0
 62137  1  0  0  0
 62138  1  0  0  0
 63 65  1  0  0  0
 63139  1  0  0  0
 63140  1  0  0  0
 63141  1  0  0  0
 64142  1  0  0  0
 65143  1  0  0  0
 68 82  1  0  0  0
 71 73  2  0  0  0
 71 74  1  0  0  0
 71144  1  0  0  0
 72 73  1  0  0  0
 72 83  2  0  0  0
 72145  1  0  0  0
 73 78  1  0  0  0
 74 75  2  0  0  0
 74 79  1  0  0  0
 75 80  1  0  0  0
 75 83  1  0  0  0
 76 77  1  0  0  0
 76 78  1  0  0  0
 76146  1  0  0  0
 76147  1  0  0  0
 77 78  1  0  0  0
 77148  1  0  0  0
 77149  1  0  0  0
 78 81  1  0  0  0
 79150  1  0  0  0
 79151  1  0  0  0
 79152  1  0  0  0
 80 84  1  0  0  0
 80153  1  0  0  0
 80154  1  0  0  0
 81 82  1  0  0  0
 81155  1  0  0  0
 81156  1  0  0  0
 82157  1  0  0  0
 82158  1  0  0  0
 84159  1  0  0  0
M  ISO  4   1 100  68 101  82 101  84 100
M  END
> <chiral flag>
0

> <version>
0

> <s_m_source_file>
/data/baiqing/PycharmProjects/Reinvent-master-3.2/result/LINK_invent/BTK/process_docking_weight1_custom_sum_contain_oxygen_bond_distance_aromatic_linkinvent_7_9_3/rearranged_h_0180.sdf

> <i_m_source_file_index>
13

> <r_mmod_Potential_Energy-OPLS-2005>
-89.7962875366211

> <r_mmod_Stretch_Energy-OPLS-2005>
79.5716857910156

> <r_mmod_Bend_Energy-OPLS-2005>
151.209411621094

> <r_mmod_Torsional_Energy-OPLS-2005>
262.691345214844

> <r_mmod_Improper_Torsional_Energy-OPLS-2005>
5.85327291488647

> <r_mmod_Van_der_Waal_Energy-OPLS-2005>
165.790466308594

> <r_mmod_Electrostatic_Energy-OPLS-2005>
-586.284606933594

> <r_mmod_Solvation_Energy-OPLS-2005>
-217.349578857422

> <b_mmod_Minimization_Converged-OPLS-2005>
0

> <r_mmod_RMS_Derivative-OPLS-2005>
2.14277029037476

$$$$
13
                    3D
 Structure written by MMmdl.
159168  0  0  1  0            999 V2000
  -30.5423  -14.9478   20.4222 C   0  0  0  0  0  0
  -30.4414  -12.5863   19.5028 C   0  0  0  0  0  0
  -29.5246  -12.5324   18.2585 C   0  0  0  0  0  0
  -28.0564  -12.3198   18.6738 C   0  0  0  0  0  0
  -27.6319  -13.2491   19.8412 C   0  0  2  0  0  0
  -28.6736  -13.2739   20.9805 C   0  0  0  0  0  0
  -25.2464  -13.8218   20.5706 C   0  0  0  0  0  0
  -24.1781  -13.0441   20.9221 C   0  0  0  0  0  0
  -24.6401  -11.6926   20.8749 C   0  0  0  0  0  0
  -23.9083  -10.4294   21.0402 C   0  0  0  0  0  0
  -24.3626   -9.4208   21.9183 C   0  0  0  0  0  0
  -23.6294   -8.2246   22.0757 C   0  0  0  0  0  0
  -22.4274   -8.0282   21.3548 C   0  0  0  0  0  0
  -21.9911   -9.0258   20.4652 C   0  0  0  0  0  0
  -22.7250  -10.2133   20.3056 C   0  0  0  0  0  0
  -21.6855   -6.0734   22.5276 C   0  0  0  0  0  0
  -21.4020   -6.5638   23.8210 C   0  0  0  0  0  0
  -21.3660   -5.6790   24.9173 C   0  0  0  0  0  0
  -21.6041   -4.3052   24.7224 C   0  0  0  0  0  0
  -21.8819   -3.8146   23.4347 C   0  0  0  0  0  0
  -21.9194   -4.6962   22.3403 C   0  0  0  0  0  0
  -22.7801  -13.5214   21.1877 C   0  0  0  0  0  0
  -22.1663   -4.2151   21.0980 F   0  0  0  0  0  0
  -21.5628   -3.4535   25.7736 F   0  0  0  0  0  0
  -29.9513  -13.6849   20.3849 N   0  0  0  0  0  0
  -26.2895  -12.9457   20.3244 N   0  0  0  0  0  0
  -25.9334  -11.6583   20.5731 N   0  0  0  0  0  0
  -22.0452  -12.8200   22.0432 N   0  0  0  0  0  0
  -25.4120  -15.1947   20.4128 N   0  0  0  0  0  0
  -31.7430  -15.0160   20.1405 O   0  0  0  0  0  0
  -21.6642   -6.8874   21.4237 O   0  0  0  0  0  0
  -22.3482  -14.5517   20.6722 O   0  0  0  0  0  0
  -24.6450  -31.8434   23.1881 C   0  0  0  0  0  0
  -25.9217  -32.4697   23.8276 C   0  0  1  0  0  0
  -27.2136  -27.1204   20.1513 C   0  0  0  0  0  0
  -25.5958  -33.8500   24.2189 N   0  0  0  0  0  0
  -23.4495  -30.4641   21.5344 C   0  0  2  0  0  0
  -24.8986  -28.8919   20.1108 C   0  0  0  0  0  0
  -22.7579  -29.4545   22.4851 C   0  0  0  0  0  0
  -18.0310  -28.1398   22.8477 C   0  0  0  0  0  0
  -24.1494  -36.7255   23.2642 C   0  0  0  0  0  0
  -26.0080  -30.7123   21.3905 C   0  0  0  0  0  0
  -26.0786  -29.3229   20.7305 C   0  0  0  0  0  0
  -27.2374  -28.4545   20.7328 C   0  0  0  0  0  0
  -26.0059  -26.8007   19.4887 C   0  0  0  0  0  0
  -24.8764  -27.6444   19.4740 C   0  0  0  0  0  0
  -23.6770  -29.7965   20.1531 C   0  0  0  0  0  0
  -25.4128  -36.3031   24.0312 C   0  0  1  0  0  0
  -20.5923  -28.3729   23.1229 C   0  0  2  0  0  0
  -20.6796  -26.9431   22.5402 C   0  0  0  0  0  0
  -19.5767  -26.6382   21.5215 C   0  0  0  0  0  0
  -18.1948  -26.7936   22.1625 C   0  0  0  0  0  0
  -19.1566  -28.8882   23.2846 C   0  0  0  0  0  0
  -18.9480  -30.1476   23.8876 C   0  0  0  0  0  0
  -17.6474  -30.6592   24.0560 C   0  0  0  0  0  0
  -25.9077  -34.9408   23.5061 C   0  0  0  0  0  0
  -16.5366  -29.9083   23.6336 C   0  0  0  0  0  0
  -16.7292  -28.6502   23.0356 C   0  0  0  0  0  0
  -26.4526  -31.6568   25.0723 C   0  0  0  0  0  0
  -25.3695  -31.3763   26.1406 C   0  0  0  0  0  0
  -27.0394  -30.2959   24.6324 C   0  0  0  0  0  0
  -27.6054  -32.4334   25.7511 C   0  0  0  0  0  0
  -27.5578  -37.1784   24.8462 C   0  0  0  0  0  0
  -21.4268  -29.3052   22.3599 N   0  0  0  0  0  0
  -26.4291  -37.3744   23.9404 N   0  0  0  0  0  0
  -24.7211  -31.0276   22.0927 N   0  0  0  0  0  0
  -23.4215  -28.8090   23.3008 O   0  0  0  0  0  0
  -28.2496  -26.1107   20.2231 O   0  0  0  0  0  0
  -26.5664  -34.8903   22.4640 O   0  0  0  0  0  0
  -23.5563  -32.1320   23.7087 O   0  0  0  0  0  0
  -30.7439  -21.1344   20.4946 C   0  0  0  0  0  0
  -29.4117  -20.6789   20.4370 C   0  0  0  0  0  0
  -28.4634  -21.8244   20.3385 C   0  0  0  0  0  0
  -31.0738  -22.5124   20.4572 C   0  0  0  0  0  0
  -28.8596  -23.2647   20.3072 C   0  0  0  0  0  0
  -29.2325  -18.2715   19.2147 C   0  0  0  0  0  0
  -29.1318  -19.0410   20.4994 C   0  0  1  0  0  0
  -30.0613  -17.6418   20.3178 C   0  0  1  0  0  0
  -32.5267  -22.9374   20.5102 C   0  0  0  0  0  0
  -26.5152  -21.1987   18.8348 C   0  0  0  0  0  0
  -26.9793  -21.4917   20.2652 C   0  0  0  0  0  0
  -27.8786  -24.5922   20.1302 C   0  0  0  0  0  0
  -30.1812  -23.5317   20.3720 N   0  0  0  0  0  0
  -29.7520  -16.1269   20.5456 N   0  0  0  0  0  0
  -31.4769  -12.7399   19.1951 H   0  0  0  0  0  0
  -30.4295  -11.6334   20.0339 H   0  0  0  0  0  0
  -29.8430  -11.7358   17.5846 H   0  0  0  0  0  0
  -29.6159  -13.4636   17.6971 H   0  0  0  0  0  0
  -27.9491  -11.2772   18.9773 H   0  0  0  0  0  0
  -27.3963  -12.4592   17.8169 H   0  0  0  0  0  0
  -27.5966  -14.2525   19.4158 H   0  0  0  0  0  0
  -28.7574  -12.2980   21.4603 H   0  0  0  0  0  0
  -28.3736  -13.9760   21.7601 H   0  0  0  0  0  0
  -25.2770   -9.5686   22.4763 H   0  0  0  0  0  0
  -24.0005   -7.4634   22.7473 H   0  0  0  0  0  0
  -21.0845   -8.8781   19.8953 H   0  0  0  0  0  0
  -22.3709  -10.9673   19.6168 H   0  0  0  0  0  0
  -21.2016   -7.6143   23.9715 H   0  0  0  0  0  0
  -21.1482   -6.0520   25.9074 H   0  0  0  0  0  0
  -22.0597   -2.7607   23.2847 H   0  0  0  0  0  0
  -22.4074  -11.9873   22.4832 H   0  0  0  0  0  0
  -21.1068  -13.1227   22.2636 H   0  0  0  0  0  0
  -24.6370  -15.8409   20.5173 H   0  0  0  0  0  0
  -26.2452  -15.6354   20.0468 H   0  0  0  0  0  0
  -26.7285  -32.5297   23.1003 H   0  0  0  0  0  0
  -25.0071  -33.9620   25.0315 H   0  0  0  0  0  0
  -22.7532  -31.2909   21.3807 H   0  0  0  0  0  0
  -23.3760  -35.9583   23.3292 H   0  0  0  0  0  0
  -24.3579  -36.8900   22.2058 H   0  0  0  0  0  0
  -23.7248  -37.6447   23.6690 H   0  0  0  0  0  0
  -26.1684  -31.4675   20.6197 H   0  0  0  0  0  0
  -26.8762  -30.7609   22.0359 H   0  0  0  0  0  0
  -28.1341  -28.7794   21.2415 H   0  0  0  0  0  0
  -25.8872  -25.8545   18.9857 H   0  0  0  0  0  0
  -23.9766  -27.3110   18.9754 H   0  0  0  0  0  0
  -23.8171  -30.5727   19.3996 H   0  0  0  0  0  0
  -22.7907  -29.2412   19.8402 H   0  0  0  0  0  0
  -25.1317  -36.1858   25.0803 H   0  0  0  0  0  0
  -21.0018  -28.3321   24.1349 H   0  0  0  0  0  0
  -20.5698  -26.2341   23.3623 H   0  0  0  0  0  0
  -21.6661  -26.7438   22.1197 H   0  0  0  0  0  0
  -19.6929  -25.6286   21.1263 H   0  0  0  0  0  0
  -19.6701  -27.3177   20.6731 H   0  0  0  0  0  0
  -17.4216  -26.6677   21.4030 H   0  0  0  0  0  0
  -18.0348  -26.0086   22.9029 H   0  0  0  0  0  0
  -19.7954  -30.7302   24.2235 H   0  0  0  0  0  0
  -17.5025  -31.6270   24.5168 H   0  0  0  0  0  0
  -15.5366  -30.2977   23.7672 H   0  0  0  0  0  0
  -15.8692  -28.0813   22.7082 H   0  0  0  0  0  0
  -24.5876  -30.7119   25.7710 H   0  0  0  0  0  0
  -24.8883  -32.2948   26.4774 H   0  0  0  0  0  0
  -25.7956  -30.8959   27.0222 H   0  0  0  0  0  0
  -26.3015  -29.6675   24.1323 H   0  0  0  0  0  0
  -27.3986  -29.7272   25.4912 H   0  0  0  0  0  0
  -27.8937  -30.4188   23.9662 H   0  0  0  0  0  0
  -27.2648  -33.3653   26.2037 H   0  0  0  0  0  0
  -28.3892  -32.6863   25.0358 H   0  0  0  0  0  0
  -28.0695  -31.8493   26.5469 H   0  0  0  0  0  0
  -28.2582  -38.0092   24.7513 H   0  0  0  0  0  0
  -28.1086  -36.2620   24.6286 H   0  0  0  0  0  0
  -27.2294  -37.1427   25.8865 H   0  0  0  0  0  0
  -20.9480  -29.8763   21.6775 H   0  0  0  0  0  0
  -26.0155  -38.2812   24.1402 H   0  0  0  0  0  0
  -31.5394  -20.4047   20.5696 H   0  0  0  0  0  0
  -29.7952  -18.7274   18.4029 H   0  0  0  0  0  0
  -28.3258  -17.7621   18.8943 H   0  0  0  0  0  0
  -28.2380  -18.8895   21.1001 H   0  0  0  0  0  0
  -31.1285  -17.8581   20.3048 H   0  0  0  0  0  0
  -33.1875  -22.1191   20.2246 H   0  0  0  0  0  0
  -32.7942  -23.2539   21.5182 H   0  0  0  0  0  0
  -32.7153  -23.7675   19.8287 H   0  0  0  0  0  0
  -25.4496  -20.9665   18.8159 H   0  0  0  0  0  0
  -27.0449  -20.3447   18.4120 H   0  0  0  0  0  0
  -26.6780  -22.0539   18.1788 H   0  0  0  0  0  0
  -26.3874  -22.3046   20.6836 H   0  0  0  0  0  0
  -26.7644  -20.6330   20.9014 H   0  0  0  0  0  0
  -27.0554  -24.4511   20.8304 H   0  0  0  0  0  0
  -27.4548  -24.4411   19.1384 H   0  0  0  0  0  0
  -28.7872  -15.9325   20.7681 H   0  0  0  0  0  0
  1 25  1  0  0  0
  1 30  2  0  0  0
  1 84  1  0  0  0
  2  3  1  0  0  0
  2 25  1  0  0  0
  2 85  1  0  0  0
  2 86  1  0  0  0
  3  4  1  0  0  0
  3 87  1  0  0  0
  3 88  1  0  0  0
  4  5  1  0  0  0
  4 89  1  0  0  0
  4 90  1  0  0  0
  5  6  1  0  0  0
  5 26  1  0  0  0
  5 91  1  0  0  0
  6 25  1  0  0  0
  6 92  1  0  0  0
  6 93  1  0  0  0
  7  8  2  0  0  0
  7 26  1  0  0  0
  7 29  1  0  0  0
  8  9  1  0  0  0
  8 22  1  0  0  0
  9 10  1  0  0  0
  9 27  2  0  0  0
 10 11  2  0  0  0
 10 15  1  0  0  0
 11 12  1  0  0  0
 11 94  1  0  0  0
 12 13  2  0  0  0
 12 95  1  0  0  0
 13 14  1  0  0  0
 13 31  1  0  0  0
 14 15  2  0  0  0
 14 96  1  0  0  0
 15 97  1  0  0  0
 16 17  2  0  0  0
 16 21  1  0  0  0
 16 31  1  0  0  0
 17 18  1  0  0  0
 17 98  1  0  0  0
 18 19  2  0  0  0
 18 99  1  0  0  0
 19 20  1  0  0  0
 19 24  1  0  0  0
 20 21  2  0  0  0
 20100  1  0  0  0
 21 23  1  0  0  0
 22 28  1  0  0  0
 22 32  2  0  0  0
 26 27  1  0  0  0
 28101  1  0  0  0
 28102  1  0  0  0
 29103  1  0  0  0
 29104  1  0  0  0
 33 34  1  0  0  0
 33 66  1  0  0  0
 33 70  2  0  0  0
 34 36  1  0  0  0
 34 59  1  0  0  0
 34105  1  0  0  0
 35 44  2  0  0  0
 35 45  1  0  0  0
 35 68  1  0  0  0
 36 56  1  0  0  0
 36106  1  0  0  0
 37 39  1  0  0  0
 37 47  1  0  0  0
 37 66  1  0  0  0
 37107  1  0  0  0
 38 43  2  0  0  0
 38 46  1  0  0  0
 38 47  1  0  0  0
 39 64  1  0  0  0
 39 67  2  0  0  0
 40 52  1  0  0  0
 40 53  2  0  0  0
 40 58  1  0  0  0
 41108  1  0  0  0
 41109  1  0  0  0
 41110  1  0  0  0
 41 48  1  0  0  0
 42 43  1  0  0  0
 42 66  1  0  0  0
 42111  1  0  0  0
 42112  1  0  0  0
 43 44  1  0  0  0
 44113  1  0  0  0
 45 46  2  0  0  0
 45114  1  0  0  0
 46115  1  0  0  0
 47116  1  0  0  0
 47117  1  0  0  0
 48 56  1  0  0  0
 48 65  1  0  0  0
 48118  1  0  0  0
 49 50  1  0  0  0
 49 53  1  0  0  0
 49 64  1  0  0  0
 49119  1  0  0  0
 50 51  1  0  0  0
 50120  1  0  0  0
 50121  1  0  0  0
 51 52  1  0  0  0
 51122  1  0  0  0
 51123  1  0  0  0
 52124  1  0  0  0
 52125  1  0  0  0
 53 54  1  0  0  0
 54 55  2  0  0  0
 54126  1  0  0  0
 55 57  1  0  0  0
 55127  1  0  0  0
 56 69  2  0  0  0
 57 58  2  0  0  0
 57128  1  0  0  0
 58129  1  0  0  0
 59 60  1  0  0  0
 59 61  1  0  0  0
 59 62  1  0  0  0
 60130  1  0  0  0
 60131  1  0  0  0
 60132  1  0  0  0
 61133  1  0  0  0
 61134  1  0  0  0
 61135  1  0  0  0
 62136  1  0  0  0
 62137  1  0  0  0
 62138  1  0  0  0
 63 65  1  0  0  0
 63139  1  0  0  0
 63140  1  0  0  0
 63141  1  0  0  0
 64142  1  0  0  0
 65143  1  0  0  0
 68 82  1  0  0  0
 71 72  2  0  0  0
 71 74  1  0  0  0
 71144  1  0  0  0
 72 73  1  0  0  0
 72 77  1  0  0  0
 73 75  2  0  0  0
 73 81  1  0  0  0
 74 79  1  0  0  0
 74 83  2  0  0  0
 75 82  1  0  0  0
 75 83  1  0  0  0
 76 77  1  0  0  0
 76 78  1  0  0  0
 76145  1  0  0  0
 76146  1  0  0  0
 77 78  1  0  0  0
 77147  1  0  0  0
 78 84  1  0  0  0
 78148  1  0  0  0
 79149  1  0  0  0
 79150  1  0  0  0
 79151  1  0  0  0
 80 81  1  0  0  0
 80152  1  0  0  0
 80153  1  0  0  0
 80154  1  0  0  0
 81155  1  0  0  0
 81156  1  0  0  0
 82157  1  0  0  0
 82158  1  0  0  0
 84159  1  0  0  0
M  ISO  4   1 100  68 101  82 101  84 100
M  END
> <chiral flag>
0

> <version>
0

> <s_m_source_file>
/data/baiqing/PycharmProjects/Reinvent-master-3.2/result/LINK_invent/BTK/process_docking_weight1_custom_sum_contain_oxygen_bond_distance_aromatic_linkinvent_7_9_3/rearranged_h_0180.sdf

> <i_m_source_file_index>
14

> <r_mmod_Potential_Energy-OPLS-2005>
403.0009765625

> <r_mmod_Stretch_Energy-OPLS-2005>
278.346893310547

> <r_mmod_Bend_Energy-OPLS-2005>
236.707595825195

> <r_mmod_Torsional_Energy-OPLS-2005>
257.997711181641

> <r_mmod_Improper_Torsional_Energy-OPLS-2005>
5.21939039230347

> <r_mmod_Van_der_Waal_Energy-OPLS-2005>
128.199523925781

> <r_mmod_Electrostatic_Energy-OPLS-2005>
-466.223846435547

> <r_mmod_Solvation_Energy-OPLS-2005>
-237.621658325195

> <b_mmod_Minimization_Converged-OPLS-2005>
0

> <r_mmod_RMS_Derivative-OPLS-2005>
0.921892821788788

$$$$
14
                    3D
 Structure written by MMmdl.
149158  0  0  1  0            999 V2000
  -30.6006  -14.9894   20.3942 C   0  0  0  0  0  0
  -30.4134  -12.6234   19.5048 C   0  0  0  0  0  0
  -29.5071  -12.5232   18.2596 C   0  0  0  0  0  0
  -28.0499  -12.2938   18.6911 C   0  0  0  0  0  0
  -27.6139  -13.2601   19.8240 C   0  0  2  0  0  0
  -28.6538  -13.3685   20.9597 C   0  0  0  0  0  0
  -25.2383  -13.8248   20.5720 C   0  0  0  0  0  0
  -24.1724  -13.0450   20.9252 C   0  0  0  0  0  0
  -24.6359  -11.6937   20.8769 C   0  0  0  0  0  0
  -23.9055  -10.4298   21.0412 C   0  0  0  0  0  0
  -24.3615   -9.4214   21.9187 C   0  0  0  0  0  0
  -23.6300   -8.2240   22.0755 C   0  0  0  0  0  0
  -22.4281   -8.0274   21.3548 C   0  0  0  0  0  0
  -21.9909   -9.0239   20.4646 C   0  0  0  0  0  0
  -22.7226  -10.2125   20.3058 C   0  0  0  0  0  0
  -21.6846   -6.0736   22.5276 C   0  0  0  0  0  0
  -21.4006   -6.5635   23.8212 C   0  0  0  0  0  0
  -21.3665   -5.6788   24.9175 C   0  0  0  0  0  0
  -21.6041   -4.3051   24.7215 C   0  0  0  0  0  0
  -21.8822   -3.8144   23.4336 C   0  0  0  0  0  0
  -21.9191   -4.6966   22.3396 C   0  0  0  0  0  0
  -22.7742  -13.5199   21.1901 C   0  0  0  0  0  0
  -22.1658   -4.2148   21.0976 F   0  0  0  0  0  0
  -21.5633   -3.4535   25.7732 F   0  0  0  0  0  0
  -29.9226  -13.7674   20.3393 N   0  0  0  0  0  0
  -26.2803  -12.9495   20.3218 N   0  0  0  0  0  0
  -25.9289  -11.6614   20.5744 N   0  0  0  0  0  0
  -22.0402  -12.8191   22.0466 N   0  0  0  0  0  0
  -25.4040  -15.1973   20.4130 N   0  0  0  0  0  0
  -31.8144  -14.9259   20.1702 O   0  0  0  0  0  0
  -21.6639   -6.8874   21.4242 O   0  0  0  0  0  0
  -22.3424  -14.5494   20.6739 O   0  0  0  0  0  0
  -24.6477  -31.8406   23.1850 C   0  0  0  0  0  0
  -25.9232  -32.4674   23.8254 C   0  0  1  0  0  0
  -27.2006  -27.0867   20.1459 C   0  0  0  0  0  0
  -25.5977  -33.8491   24.2158 N   0  0  0  0  0  0
  -23.4524  -30.4635   21.5315 C   0  0  2  0  0  0
  -24.8998  -28.8906   20.1061 C   0  0  0  0  0  0
  -22.7576  -29.4555   22.4825 C   0  0  0  0  0  0
  -18.0307  -28.1411   22.8480 C   0  0  0  0  0  0
  -24.1485  -36.7238   23.2645 C   0  0  0  0  0  0
  -26.0152  -30.6977   21.3946 C   0  0  0  0  0  0
  -26.0820  -29.3076   20.7304 C   0  0  0  0  0  0
  -27.2334  -28.4227   20.7348 C   0  0  0  0  0  0
  -25.9908  -26.7960   19.4738 C   0  0  0  0  0  0
  -24.8697  -27.6494   19.4627 C   0  0  0  0  0  0
  -23.6791  -29.7961   20.1504 C   0  0  0  0  0  0
  -25.4124  -36.3010   24.0300 C   0  0  1  0  0  0
  -20.5918  -28.3729   23.1219 C   0  0  2  0  0  0
  -20.6797  -26.9430   22.5403 C   0  0  0  0  0  0
  -19.5773  -26.6387   21.5214 C   0  0  0  0  0  0
  -18.1947  -26.7956   22.1611 C   0  0  0  0  0  0
  -19.1566  -28.8889   23.2846 C   0  0  0  0  0  0
  -18.9488  -30.1489   23.8870 C   0  0  0  0  0  0
  -17.6485  -30.6610   24.0561 C   0  0  0  0  0  0
  -25.9084  -34.9393   23.5025 C   0  0  0  0  0  0
  -16.5373  -29.9102   23.6348 C   0  0  0  0  0  0
  -16.7287  -28.6514   23.0376 C   0  0  0  0  0  0
  -26.4541  -31.6568   25.0722 C   0  0  0  0  0  0
  -25.3694  -31.3821   26.1396 C   0  0  0  0  0  0
  -27.0403  -30.2942   24.6365 C   0  0  0  0  0  0
  -27.6067  -32.4351   25.7507 C   0  0  0  0  0  0
  -27.5562  -37.1775   24.8468 C   0  0  0  0  0  0
  -21.4261  -29.3055   22.3579 N   0  0  0  0  0  0
  -26.4282  -37.3729   23.9399 N   0  0  0  0  0  0
  -24.7258  -31.0222   22.0913 N   0  0  0  0  0  0
  -23.4204  -28.8105   23.2990 O   0  0  0  0  0  0
  -28.2077  -26.0366   20.2292 O   0  0  0  0  0  0
  -26.5677  -34.8890   22.4607 O   0  0  0  0  0  0
  -23.5583  -32.1297   23.7028 O   0  0  0  0  0  0
  -29.0896  -21.1078   21.5339 C   0  0  0  0  0  0
  -28.6521  -22.0788   19.1034 C   0  0  0  0  0  0
  -29.1558  -20.1294   20.4662 C   0  0  0  0  0  0
  -28.5531  -23.0568   20.1725 C   0  0  0  0  0  0
  -28.7798  -17.1096   20.2579 C   0  0  0  0  0  0
  -30.7703  -17.6289   20.4064 C   0  0  0  0  0  0
  -29.4787  -18.4937   20.6905 C   0  0  0  0  0  0
  -27.7867  -24.5373   19.9820 C   0  0  0  0  0  0
  -28.9477  -20.7096   19.2302 N   0  0  0  0  0  0
  -28.7910  -22.4777   21.4049 N   0  0  0  0  0  0
  -30.0358  -16.3063   20.5619 N   0  0  0  0  0  0
  -31.4489  -12.7493   19.1860 H   0  0  0  0  0  0
  -30.3939  -11.6925   20.0751 H   0  0  0  0  0  0
  -29.8391  -11.7107   17.6123 H   0  0  0  0  0  0
  -29.5803  -13.4383   17.6692 H   0  0  0  0  0  0
  -27.9751  -11.2632   19.0417 H   0  0  0  0  0  0
  -27.3777  -12.3723   17.8358 H   0  0  0  0  0  0
  -27.5527  -14.2424   19.3538 H   0  0  0  0  0  0
  -28.7531  -12.4267   21.5012 H   0  0  0  0  0  0
  -28.3415  -14.1210   21.6862 H   0  0  0  0  0  0
  -25.2759   -9.5685   22.4762 H   0  0  0  0  0  0
  -24.0008   -7.4620   22.7467 H   0  0  0  0  0  0
  -21.0840   -8.8741   19.8944 H   0  0  0  0  0  0
  -22.3676  -10.9660   19.6161 H   0  0  0  0  0  0
  -21.1998   -7.6145   23.9710 H   0  0  0  0  0  0
  -21.1483   -6.0523   25.9077 H   0  0  0  0  0  0
  -22.0601   -2.7607   23.2831 H   0  0  0  0  0  0
  -22.4037  -11.9867   22.4856 H   0  0  0  0  0  0
  -21.1010  -13.1196   22.2661 H   0  0  0  0  0  0
  -24.6356  -15.8513   20.5191 H   0  0  0  0  0  0
  -26.2519  -15.6317   20.0740 H   0  0  0  0  0  0
  -26.7288  -32.5235   23.0972 H   0  0  0  0  0  0
  -25.0099  -33.9612   25.0287 H   0  0  0  0  0  0
  -22.7580  -31.2922   21.3748 H   0  0  0  0  0  0
  -23.3751  -35.9571   23.3317 H   0  0  0  0  0  0
  -24.3568  -36.8858   22.2062 H   0  0  0  0  0  0
  -23.7251  -37.6438   23.6682 H   0  0  0  0  0  0
  -26.1819  -31.4507   20.6238 H   0  0  0  0  0  0
  -26.8840  -30.7429   22.0411 H   0  0  0  0  0  0
  -28.1292  -28.7326   21.2520 H   0  0  0  0  0  0
  -25.8470  -25.8556   18.9665 H   0  0  0  0  0  0
  -23.9662  -27.3266   18.9625 H   0  0  0  0  0  0
  -23.8171  -30.5705   19.3944 H   0  0  0  0  0  0
  -22.7911  -29.2413   19.8399 H   0  0  0  0  0  0
  -25.1324  -36.1817   25.0798 H   0  0  0  0  0  0
  -21.0011  -28.3308   24.1336 H   0  0  0  0  0  0
  -20.5690  -26.2339   23.3621 H   0  0  0  0  0  0
  -21.6662  -26.7446   22.1199 H   0  0  0  0  0  0
  -19.6936  -25.6294   21.1257 H   0  0  0  0  0  0
  -19.6716  -27.3183   20.6733 H   0  0  0  0  0  0
  -17.4222  -26.6702   21.4006 H   0  0  0  0  0  0
  -18.0340  -26.0114   22.9016 H   0  0  0  0  0  0
  -19.7971  -30.7315   24.2214 H   0  0  0  0  0  0
  -17.5050  -31.6289   24.5173 H   0  0  0  0  0  0
  -15.5378  -30.3006   23.7719 H   0  0  0  0  0  0
  -15.8676  -28.0827   22.7128 H   0  0  0  0  0  0
  -24.5913  -30.7102   25.7748 H   0  0  0  0  0  0
  -24.8843  -32.3035   26.4637 H   0  0  0  0  0  0
  -25.7967  -30.9148   27.0276 H   0  0  0  0  0  0
  -26.3029  -29.6669   24.1343 H   0  0  0  0  0  0
  -27.3945  -29.7260   25.4982 H   0  0  0  0  0  0
  -27.8974  -30.4171   23.9738 H   0  0  0  0  0  0
  -27.2656  -33.3692   26.1994 H   0  0  0  0  0  0
  -28.3938  -32.6849   25.0373 H   0  0  0  0  0  0
  -28.0672  -31.8530   26.5503 H   0  0  0  0  0  0
  -28.2601  -38.0050   24.7475 H   0  0  0  0  0  0
  -28.1030  -36.2579   24.6338 H   0  0  0  0  0  0
  -27.2277  -37.1468   25.8873 H   0  0  0  0  0  0
  -20.9460  -29.8735   21.6738 H   0  0  0  0  0  0
  -26.0125  -38.2777   24.1430 H   0  0  0  0  0  0
  -29.2655  -20.7798   22.5478 H   0  0  0  0  0  0
  -28.4030  -22.3865   18.0974 H   0  0  0  0  0  0
  -28.5065  -17.0945   19.1998 H   0  0  0  0  0  0
  -27.9141  -16.8587   20.8732 H   0  0  0  0  0  0
  -31.5661  -17.7975   21.1328 H   0  0  0  0  0  0
  -31.1570  -17.7778   19.3965 H   0  0  0  0  0  0
  -29.3914  -18.4713   21.7783 H   0  0  0  0  0  0
  -26.8618  -24.4080   20.5467 H   0  0  0  0  0  0
  -27.4881  -24.5074   18.9347 H   0  0  0  0  0  0
  1 25  1  0  0  0
  1 30  2  0  0  0
  1 81  1  0  0  0
  2  3  1  0  0  0
  2 25  1  0  0  0
  2 82  1  0  0  0
  2 83  1  0  0  0
  3  4  1  0  0  0
  3 84  1  0  0  0
  3 85  1  0  0  0
  4  5  1  0  0  0
  4 86  1  0  0  0
  4 87  1  0  0  0
  5  6  1  0  0  0
  5 26  1  0  0  0
  5 88  1  0  0  0
  6 25  1  0  0  0
  6 89  1  0  0  0
  6 90  1  0  0  0
  7  8  2  0  0  0
  7 26  1  0  0  0
  7 29  1  0  0  0
  8  9  1  0  0  0
  8 22  1  0  0  0
  9 10  1  0  0  0
  9 27  2  0  0  0
 10 11  2  0  0  0
 10 15  1  0  0  0
 11 12  1  0  0  0
 11 91  1  0  0  0
 12 13  2  0  0  0
 12 92  1  0  0  0
 13 14  1  0  0  0
 13 31  1  0  0  0
 14 15  2  0  0  0
 14 93  1  0  0  0
 15 94  1  0  0  0
 16 17  2  0  0  0
 16 21  1  0  0  0
 16 31  1  0  0  0
 17 18  1  0  0  0
 17 95  1  0  0  0
 18 19  2  0  0  0
 18 96  1  0  0  0
 19 20  1  0  0  0
 19 24  1  0  0  0
 20 21  2  0  0  0
 20 97  1  0  0  0
 21 23  1  0  0  0
 22 28  1  0  0  0
 22 32  2  0  0  0
 26 27  1  0  0  0
 28 98  1  0  0  0
 28 99  1  0  0  0
 29100  1  0  0  0
 29101  1  0  0  0
 33 34  1  0  0  0
 33 66  1  0  0  0
 33 70  2  0  0  0
 34 36  1  0  0  0
 34 59  1  0  0  0
 34102  1  0  0  0
 35 44  2  0  0  0
 35 45  1  0  0  0
 35 68  1  0  0  0
 36 56  1  0  0  0
 36103  1  0  0  0
 37 39  1  0  0  0
 37 47  1  0  0  0
 37 66  1  0  0  0
 37104  1  0  0  0
 38 43  2  0  0  0
 38 46  1  0  0  0
 38 47  1  0  0  0
 39 64  1  0  0  0
 39 67  2  0  0  0
 40 52  1  0  0  0
 40 53  2  0  0  0
 40 58  1  0  0  0
 41105  1  0  0  0
 41106  1  0  0  0
 41107  1  0  0  0
 41 48  1  0  0  0
 42 43  1  0  0  0
 42 66  1  0  0  0
 42108  1  0  0  0
 42109  1  0  0  0
 43 44  1  0  0  0
 44110  1  0  0  0
 45 46  2  0  0  0
 45111  1  0  0  0
 46112  1  0  0  0
 47113  1  0  0  0
 47114  1  0  0  0
 48 56  1  0  0  0
 48 65  1  0  0  0
 48115  1  0  0  0
 49 50  1  0  0  0
 49 53  1  0  0  0
 49 64  1  0  0  0
 49116  1  0  0  0
 50 51  1  0  0  0
 50117  1  0  0  0
 50118  1  0  0  0
 51 52  1  0  0  0
 51119  1  0  0  0
 51120  1  0  0  0
 52121  1  0  0  0
 52122  1  0  0  0
 53 54  1  0  0  0
 54 55  2  0  0  0
 54123  1  0  0  0
 55 57  1  0  0  0
 55124  1  0  0  0
 56 69  2  0  0  0
 57 58  2  0  0  0
 57125  1  0  0  0
 58126  1  0  0  0
 59 60  1  0  0  0
 59 61  1  0  0  0
 59 62  1  0  0  0
 60127  1  0  0  0
 60128  1  0  0  0
 60129  1  0  0  0
 61130  1  0  0  0
 61131  1  0  0  0
 61132  1  0  0  0
 62133  1  0  0  0
 62134  1  0  0  0
 62135  1  0  0  0
 63 65  1  0  0  0
 63136  1  0  0  0
 63137  1  0  0  0
 63138  1  0  0  0
 64139  1  0  0  0
 65140  1  0  0  0
 68 78  1  0  0  0
 71 73  2  0  0  0
 71 80  1  0  0  0
 71141  1  0  0  0
 72 74  1  0  0  0
 72 79  2  0  0  0
 72142  1  0  0  0
 73 79  1  0  0  0
 73 77  1  0  0  0
 74 78  1  0  0  0
 74 80  2  0  0  0
 75 77  1  0  0  0
 75 81  1  0  0  0
 75143  1  0  0  0
 75144  1  0  0  0
 76 77  1  0  0  0
 76 81  1  0  0  0
 76145  1  0  0  0
 76146  1  0  0  0
 77147  1  0  0  0
 78148  1  0  0  0
 78149  1  0  0  0
M  ISO  4   1 100  68 101  78 101  81 100
M  END
> <chiral flag>
0

> <version>
0

> <s_m_source_file>
/data/baiqing/PycharmProjects/Reinvent-master-3.2/result/LINK_invent/BTK/process_docking_weight1_custom_sum_contain_oxygen_bond_distance_aromatic_linkinvent_7_9_3/rearranged_h_0180.sdf

> <i_m_source_file_index>
15

> <r_mmod_Potential_Energy-OPLS-2005>
785.733032226562

> <r_mmod_Stretch_Energy-OPLS-2005>
270.840606689453

> <r_mmod_Bend_Energy-OPLS-2005>
342.189147949219

> <r_mmod_Torsional_Energy-OPLS-2005>
253.449768066406

> <r_mmod_Improper_Torsional_Energy-OPLS-2005>
9.25667095184326

> <r_mmod_Van_der_Waal_Energy-OPLS-2005>
138.981002807617

> <r_mmod_Electrostatic_Energy-OPLS-2005>
-233.381744384766

> <r_mmod_Solvation_Energy-OPLS-2005>
-235.477233886719

> <b_mmod_Minimization_Converged-OPLS-2005>
0

> <r_mmod_RMS_Derivative-OPLS-2005>
2.15166139602661

$$$$
15
                    3D
 Structure written by MMmdl.
158167  0  0  1  0            999 V2000
  -30.5461  -15.0421   20.3431 C   0  0  0  0  0  0
  -30.4447  -12.6431   19.4910 C   0  0  0  0  0  0
  -29.5243  -12.4868   18.2588 C   0  0  0  0  0  0
  -28.0582  -12.2850   18.6898 C   0  0  0  0  0  0
  -27.6201  -13.2474   19.8246 C   0  0  2  0  0  0
  -28.6741  -13.3625   20.9457 C   0  0  0  0  0  0
  -25.2475  -13.8206   20.5760 C   0  0  0  0  0  0
  -24.1781  -13.0439   20.9247 C   0  0  0  0  0  0
  -24.6391  -11.6920   20.8778 C   0  0  0  0  0  0
  -23.9081  -10.4296   21.0429 C   0  0  0  0  0  0
  -24.3624   -9.4198   21.9206 C   0  0  0  0  0  0
  -23.6293   -8.2236   22.0762 C   0  0  0  0  0  0
  -22.4281   -8.0283   21.3547 C   0  0  0  0  0  0
  -21.9925   -9.0254   20.4646 C   0  0  0  0  0  0
  -22.7259  -10.2137   20.3066 C   0  0  0  0  0  0
  -21.6849   -6.0735   22.5275 C   0  0  0  0  0  0
  -21.4008   -6.5638   23.8208 C   0  0  0  0  0  0
  -21.3662   -5.6787   24.9166 C   0  0  0  0  0  0
  -21.6049   -4.3050   24.7216 C   0  0  0  0  0  0
  -21.8812   -3.8149   23.4335 C   0  0  0  0  0  0
  -21.9185   -4.6966   22.3393 C   0  0  0  0  0  0
  -22.7804  -13.5210   21.1896 C   0  0  0  0  0  0
  -22.1658   -4.2161   21.0971 F   0  0  0  0  0  0
  -21.5637   -3.4533   25.7727 F   0  0  0  0  0  0
  -29.9301  -13.7822   20.3067 N   0  0  0  0  0  0
  -26.2882  -12.9416   20.3288 N   0  0  0  0  0  0
  -25.9329  -11.6555   20.5797 N   0  0  0  0  0  0
  -22.0435  -12.8194   22.0434 N   0  0  0  0  0  0
  -25.4204  -15.1930   20.4225 N   0  0  0  0  0  0
  -31.7809  -15.0336   20.2744 O   0  0  0  0  0  0
  -21.6639   -6.8886   21.4242 O   0  0  0  0  0  0
  -22.3493  -14.5515   20.6735 O   0  0  0  0  0  0
  -24.6462  -31.8412   23.1826 C   0  0  0  0  0  0
  -25.9211  -32.4687   23.8229 C   0  0  1  0  0  0
  -27.2286  -27.1030   20.1588 C   0  0  0  0  0  0
  -25.5949  -33.8495   24.2162 N   0  0  0  0  0  0
  -23.4530  -30.4568   21.5294 C   0  0  2  0  0  0
  -24.9075  -28.8758   20.1110 C   0  0  0  0  0  0
  -22.7597  -29.4522   22.4837 C   0  0  0  0  0  0
  -18.0315  -28.1401   22.8478 C   0  0  0  0  0  0
  -24.1498  -36.7245   23.2643 C   0  0  0  0  0  0
  -26.0130  -30.7016   21.3900 C   0  0  0  0  0  0
  -26.0855  -29.3103   20.7315 C   0  0  0  0  0  0
  -27.2448  -28.4413   20.7362 C   0  0  0  0  0  0
  -26.0227  -26.7787   19.4968 C   0  0  0  0  0  0
  -24.8913  -27.6243   19.4779 C   0  0  0  0  0  0
  -23.6836  -29.7802   20.1522 C   0  0  0  0  0  0
  -25.4137  -36.3032   24.0318 C   0  0  1  0  0  0
  -20.5933  -28.3728   23.1243 C   0  0  2  0  0  0
  -20.6814  -26.9428   22.5404 C   0  0  0  0  0  0
  -19.5777  -26.6371   21.5227 C   0  0  0  0  0  0
  -18.1949  -26.7939   22.1620 C   0  0  0  0  0  0
  -19.1574  -28.8883   23.2847 C   0  0  0  0  0  0
  -18.9490  -30.1483   23.8866 C   0  0  0  0  0  0
  -17.6484  -30.6596   24.0565 C   0  0  0  0  0  0
  -25.9083  -34.9411   23.5051 C   0  0  0  0  0  0
  -16.5375  -29.9083   23.6350 C   0  0  0  0  0  0
  -16.7299  -28.6508   23.0361 C   0  0  0  0  0  0
  -26.4512  -31.6577   25.0691 C   0  0  0  0  0  0
  -25.3662  -31.3767   26.1358 C   0  0  0  0  0  0
  -27.0393  -30.2980   24.6283 C   0  0  0  0  0  0
  -27.6033  -32.4364   25.7464 C   0  0  0  0  0  0
  -27.5589  -37.1782   24.8464 C   0  0  0  0  0  0
  -21.4282  -29.3050   22.3612 N   0  0  0  0  0  0
  -26.4299  -37.3750   23.9411 N   0  0  0  0  0  0
  -24.7242  -31.0228   22.0887 N   0  0  0  0  0  0
  -23.4221  -28.8063   23.2993 O   0  0  0  0  0  0
  -28.2739  -26.0976   20.2407 O   0  0  0  0  0  0
  -26.5670  -34.8918   22.4630 O   0  0  0  0  0  0
  -23.5564  -32.1310   23.7019 O   0  0  0  0  0  0
  -30.3158  -23.5595   20.7839 C   0  0  0  0  0  0
  -28.9985  -23.2821   20.3734 C   0  0  0  0  0  0
  -30.8814  -21.2750   20.9788 C   0  0  0  0  0  0
  -29.6035  -20.8196   20.5398 C   0  0  0  0  0  0
  -29.8981  -17.3808   17.9812 C   0  0  0  0  0  0
  -30.9077  -18.0351   18.9135 C   0  0  0  0  0  0
  -29.1460  -16.3514   18.8488 C   0  0  0  0  0  0
  -30.2608  -17.8232   20.2781 C   0  0  1  0  0  0
  -31.9732  -20.3325   21.4457 C   0  0  0  0  0  0
  -29.2294  -19.1813   20.5294 C   0  0  0  0  0  0
  -27.9755  -24.5609   20.0713 C   0  0  0  0  0  0
  -31.2225  -22.5904   21.0757 N   0  0  0  0  0  0
  -28.6751  -21.8822   20.2542 N   0  0  0  0  0  0
  -29.8128  -16.2849   20.1635 N   0  0  0  0  0  0
  -31.4704  -12.8124   19.1614 H   0  0  0  0  0  0
  -30.4674  -11.7264   20.0816 H   0  0  0  0  0  0
  -29.8502  -11.6369   17.6569 H   0  0  0  0  0  0
  -29.6090  -13.3581   17.6107 H   0  0  0  0  0  0
  -27.9656  -11.2550   19.0354 H   0  0  0  0  0  0
  -27.3899  -12.3750   17.8323 H   0  0  0  0  0  0
  -27.5417  -14.2239   19.3541 H   0  0  0  0  0  0
  -28.7929  -12.4208   21.4820 H   0  0  0  0  0  0
  -28.3660  -14.1095   21.6794 H   0  0  0  0  0  0
  -25.2763   -9.5660   22.4791 H   0  0  0  0  0  0
  -23.9992   -7.4617   22.7476 H   0  0  0  0  0  0
  -21.0866   -8.8776   19.8933 H   0  0  0  0  0  0
  -22.3737  -10.9677   19.6171 H   0  0  0  0  0  0
  -21.1998   -7.6142   23.9716 H   0  0  0  0  0  0
  -21.1500   -6.0518   25.9074 H   0  0  0  0  0  0
  -22.0591   -2.7612   23.2824 H   0  0  0  0  0  0
  -22.4051  -11.9848   22.4806 H   0  0  0  0  0  0
  -21.1053  -13.1231   22.2648 H   0  0  0  0  0  0
  -24.6617  -15.8547   20.5478 H   0  0  0  0  0  0
  -26.2890  -15.6314   20.1451 H   0  0  0  0  0  0
  -26.7265  -32.5284   23.0940 H   0  0  0  0  0  0
  -25.0129  -33.9622   25.0329 H   0  0  0  0  0  0
  -22.7566  -31.2830   21.3680 H   0  0  0  0  0  0
  -23.3793  -35.9538   23.3269 H   0  0  0  0  0  0
  -24.3580  -36.8924   22.2062 H   0  0  0  0  0  0
  -23.7223  -37.6418   23.6705 H   0  0  0  0  0  0
  -26.1786  -31.4541   20.6170 H   0  0  0  0  0  0
  -26.8807  -30.7504   22.0366 H   0  0  0  0  0  0
  -28.1392  -28.7686   21.2463 H   0  0  0  0  0  0
  -25.9155  -25.8228   19.0068 H   0  0  0  0  0  0
  -23.9927  -27.2867   18.9808 H   0  0  0  0  0  0
  -23.8197  -30.5518   19.3936 H   0  0  0  0  0  0
  -22.7996  -29.2204   19.8410 H   0  0  0  0  0  0
  -25.1321  -36.1860   25.0810 H   0  0  0  0  0  0
  -21.0028  -28.3321   24.1365 H   0  0  0  0  0  0
  -20.5759  -26.2319   23.3614 H   0  0  0  0  0  0
  -21.6670  -26.7458   22.1162 H   0  0  0  0  0  0
  -19.6942  -25.6273   21.1275 H   0  0  0  0  0  0
  -19.6733  -27.3170   20.6751 H   0  0  0  0  0  0
  -17.4227  -26.6718   21.4001 H   0  0  0  0  0  0
  -18.0322  -26.0078   22.9010 H   0  0  0  0  0  0
  -19.7966  -30.7318   24.2199 H   0  0  0  0  0  0
  -17.5033  -31.6278   24.5164 H   0  0  0  0  0  0
  -15.5378  -30.2973   23.7700 H   0  0  0  0  0  0
  -15.8701  -28.0829   22.7084 H   0  0  0  0  0  0
  -24.5860  -30.7116   25.7636 H   0  0  0  0  0  0
  -24.8822  -32.2941   26.4717 H   0  0  0  0  0  0
  -25.7899  -30.8958   27.0181 H   0  0  0  0  0  0
  -26.3015  -29.6687   24.1294 H   0  0  0  0  0  0
  -27.4031  -29.7301   25.4854 H   0  0  0  0  0  0
  -27.8902  -30.4248   23.9593 H   0  0  0  0  0  0
  -27.2640  -33.3730   26.1903 H   0  0  0  0  0  0
  -28.3885  -32.6833   25.0303 H   0  0  0  0  0  0
  -28.0629  -31.8576   26.5485 H   0  0  0  0  0  0
  -28.2573  -38.0112   24.7563 H   0  0  0  0  0  0
  -28.1136  -36.2650   24.6242 H   0  0  0  0  0  0
  -27.2299  -37.1359   25.8863 H   0  0  0  0  0  0
  -20.9496  -29.8754   21.6789 H   0  0  0  0  0  0
  -26.0173  -38.2818   24.1429 H   0  0  0  0  0  0
  -30.6539  -24.5804   20.8937 H   0  0  0  0  0  0
  -30.3950  -16.9210   17.1266 H   0  0  0  0  0  0
  -29.2024  -18.1240   17.5888 H   0  0  0  0  0  0
  -31.0988  -19.0787   18.6627 H   0  0  0  0  0  0
  -31.8610  -17.5053   18.8652 H   0  0  0  0  0  0
  -29.1178  -15.4054   18.3105 H   0  0  0  0  0  0
  -28.1091  -16.6596   18.9907 H   0  0  0  0  0  0
  -31.0307  -17.8358   21.0468 H   0  0  0  0  0  0
  -32.3651  -19.7497   20.6142 H   0  0  0  0  0  0
  -31.5966  -19.6635   22.2181 H   0  0  0  0  0  0
  -32.8122  -20.8776   21.8791 H   0  0  0  0  0  0
  -28.4204  -19.0990   19.8050 H   0  0  0  0  0  0
  -28.7433  -19.0124   21.4898 H   0  0  0  0  0  0
  -27.0772  -24.3545   20.6547 H   0  0  0  0  0  0
  -27.6827  -24.4282   19.0301 H   0  0  0  0  0  0
  1 25  1  0  0  0
  1 30  2  0  0  0
  1 84  1  0  0  0
  2  3  1  0  0  0
  2 25  1  0  0  0
  2 85  1  0  0  0
  2 86  1  0  0  0
  3  4  1  0  0  0
  3 87  1  0  0  0
  3 88  1  0  0  0
  4  5  1  0  0  0
  4 89  1  0  0  0
  4 90  1  0  0  0
  5  6  1  0  0  0
  5 26  1  0  0  0
  5 91  1  0  0  0
  6 25  1  0  0  0
  6 92  1  0  0  0
  6 93  1  0  0  0
  7  8  2  0  0  0
  7 26  1  0  0  0
  7 29  1  0  0  0
  8  9  1  0  0  0
  8 22  1  0  0  0
  9 10  1  0  0  0
  9 27  2  0  0  0
 10 11  2  0  0  0
 10 15  1  0  0  0
 11 12  1  0  0  0
 11 94  1  0  0  0
 12 13  2  0  0  0
 12 95  1  0  0  0
 13 14  1  0  0  0
 13 31  1  0  0  0
 14 15  2  0  0  0
 14 96  1  0  0  0
 15 97  1  0  0  0
 16 17  2  0  0  0
 16 21  1  0  0  0
 16 31  1  0  0  0
 17 18  1  0  0  0
 17 98  1  0  0  0
 18 19  2  0  0  0
 18 99  1  0  0  0
 19 20  1  0  0  0
 19 24  1  0  0  0
 20 21  2  0  0  0
 20100  1  0  0  0
 21 23  1  0  0  0
 22 28  1  0  0  0
 22 32  2  0  0  0
 26 27  1  0  0  0
 28101  1  0  0  0
 28102  1  0  0  0
 29103  1  0  0  0
 29104  1  0  0  0
 33 34  1  0  0  0
 33 66  1  0  0  0
 33 70  2  0  0  0
 34 36  1  0  0  0
 34 59  1  0  0  0
 34105  1  0  0  0
 35 44  2  0  0  0
 35 45  1  0  0  0
 35 68  1  0  0  0
 36 56  1  0  0  0
 36106  1  0  0  0
 37 39  1  0  0  0
 37 47  1  0  0  0
 37 66  1  0  0  0
 37107  1  0  0  0
 38 43  2  0  0  0
 38 46  1  0  0  0
 38 47  1  0  0  0
 39 64  1  0  0  0
 39 67  2  0  0  0
 40 52  1  0  0  0
 40 53  2  0  0  0
 40 58  1  0  0  0
 41108  1  0  0  0
 41109  1  0  0  0
 41110  1  0  0  0
 41 48  1  0  0  0
 42 43  1  0  0  0
 42 66  1  0  0  0
 42111  1  0  0  0
 42112  1  0  0  0
 43 44  1  0  0  0
 44113  1  0  0  0
 45 46  2  0  0  0
 45114  1  0  0  0
 46115  1  0  0  0
 47116  1  0  0  0
 47117  1  0  0  0
 48 56  1  0  0  0
 48 65  1  0  0  0
 48118  1  0  0  0
 49 50  1  0  0  0
 49 53  1  0  0  0
 49 64  1  0  0  0
 49119  1  0  0  0
 50 51  1  0  0  0
 50120  1  0  0  0
 50121  1  0  0  0
 51 52  1  0  0  0
 51122  1  0  0  0
 51123  1  0  0  0
 52124  1  0  0  0
 52125  1  0  0  0
 53 54  1  0  0  0
 54 55  2  0  0  0
 54126  1  0  0  0
 55 57  1  0  0  0
 55127  1  0  0  0
 56 69  2  0  0  0
 57 58  2  0  0  0
 57128  1  0  0  0
 58129  1  0  0  0
 59 60  1  0  0  0
 59 61  1  0  0  0
 59 62  1  0  0  0
 60130  1  0  0  0
 60131  1  0  0  0
 60132  1  0  0  0
 61133  1  0  0  0
 61134  1  0  0  0
 61135  1  0  0  0
 62136  1  0  0  0
 62137  1  0  0  0
 62138  1  0  0  0
 63 65  1  0  0  0
 63139  1  0  0  0
 63140  1  0  0  0
 63141  1  0  0  0
 64142  1  0  0  0
 65143  1  0  0  0
 68 81  1  0  0  0
 71 72  2  0  0  0
 71 82  1  0  0  0
 71144  1  0  0  0
 72 81  1  0  0  0
 72 83  1  0  0  0
 73 74  1  0  0  0
 73 79  1  0  0  0
 73 82  2  0  0  0
 74 80  1  0  0  0
 74 83  2  0  0  0
 75 76  1  0  0  0
 75 77  1  0  0  0
 75145  1  0  0  0
 75146  1  0  0  0
 76 78  1  0  0  0
 76147  1  0  0  0
 76148  1  0  0  0
 77 84  1  0  0  0
 77149  1  0  0  0
 77150  1  0  0  0
 78 80  1  0  0  0
 78 84  1  0  0  0
 78151  1  0  0  0
 79152  1  0  0  0
 79153  1  0  0  0
 79154  1  0  0  0
 80155  1  0  0  0
 80156  1  0  0  0
 81157  1  0  0  0
 81158  1  0  0  0
M  ISO  4   1 100  68 101  81 101  84 100
M  END
> <chiral flag>
0

> <version>
0

> <s_m_source_file>
/data/baiqing/PycharmProjects/Reinvent-master-3.2/result/LINK_invent/BTK/process_docking_weight1_custom_sum_contain_oxygen_bond_distance_aromatic_linkinvent_7_9_3/rearranged_h_0180.sdf

> <i_m_source_file_index>
16

> <r_mmod_Potential_Energy-OPLS-2005>
988.048889160156

> <r_mmod_Stretch_Energy-OPLS-2005>
329.169769287109

> <r_mmod_Bend_Energy-OPLS-2005>
319.805786132812

> <r_mmod_Torsional_Energy-OPLS-2005>
356.180236816406

> <r_mmod_Improper_Torsional_Energy-OPLS-2005>
12.6153373718262

> <r_mmod_Van_der_Waal_Energy-OPLS-2005>
129.588531494141

> <r_mmod_Electrostatic_Energy-OPLS-2005>
-194.402069091797

> <r_mmod_Solvation_Energy-OPLS-2005>
-217.938507080078

> <b_mmod_Minimization_Converged-OPLS-2005>
0

> <r_mmod_RMS_Derivative-OPLS-2005>
2.1980893611908

$$$$
16
                    3D
 Structure written by MMmdl.
161171  0  0  1  0            999 V2000
  -30.5984  -14.9005   20.4267 C   0  0  0  0  0  0
  -30.4262  -12.5594   19.4943 C   0  0  0  0  0  0
  -29.5106  -12.5106   18.2522 C   0  0  0  0  0  0
  -28.0491  -12.2964   18.6819 C   0  0  0  0  0  0
  -27.6255  -13.2467   19.8325 C   0  0  2  0  0  0
  -28.6669  -13.2959   20.9694 C   0  0  0  0  0  0
  -25.2463  -13.8228   20.5727 C   0  0  0  0  0  0
  -24.1765  -13.0445   20.9217 C   0  0  0  0  0  0
  -24.6376  -11.6930   20.8742 C   0  0  0  0  0  0
  -23.9064  -10.4291   21.0391 C   0  0  0  0  0  0
  -24.3611   -9.4211   21.9173 C   0  0  0  0  0  0
  -23.6289   -8.2247   22.0750 C   0  0  0  0  0  0
  -22.4276   -8.0280   21.3533 C   0  0  0  0  0  0
  -21.9904   -9.0255   20.4634 C   0  0  0  0  0  0
  -22.7231  -10.2138   20.3044 C   0  0  0  0  0  0
  -21.6843   -6.0735   22.5279 C   0  0  0  0  0  0
  -21.4016   -6.5639   23.8216 C   0  0  0  0  0  0
  -21.3651   -5.6788   24.9172 C   0  0  0  0  0  0
  -21.6045   -4.3055   24.7221 C   0  0  0  0  0  0
  -21.8822   -3.8147   23.4342 C   0  0  0  0  0  0
  -21.9202   -4.6964   22.3398 C   0  0  0  0  0  0
  -22.7788  -13.5213   21.1887 C   0  0  0  0  0  0
  -22.1662   -4.2143   21.0973 F   0  0  0  0  0  0
  -21.5625   -3.4541   25.7735 F   0  0  0  0  0  0
  -29.9456  -13.6743   20.3590 N   0  0  0  0  0  0
  -26.2869  -12.9453   20.3236 N   0  0  0  0  0  0
  -25.9308  -11.6587   20.5735 N   0  0  0  0  0  0
  -22.0448  -12.8178   22.0441 N   0  0  0  0  0  0
  -25.4187  -15.1950   20.4195 N   0  0  0  0  0  0
  -31.8088  -14.8941   20.1719 O   0  0  0  0  0  0
  -21.6642   -6.8878   21.4239 O   0  0  0  0  0  0
  -22.3451  -14.5515   20.6743 O   0  0  0  0  0  0
  -24.6420  -31.8478   23.1894 C   0  0  0  0  0  0
  -25.9201  -32.4721   23.8269 C   0  0  1  0  0  0
  -27.1933  -27.1484   20.1585 C   0  0  0  0  0  0
  -25.5946  -33.8516   24.2179 N   0  0  0  0  0  0
  -23.4437  -30.4697   21.5370 C   0  0  2  0  0  0
  -24.8869  -28.8965   20.1139 C   0  0  0  0  0  0
  -22.7562  -29.4574   22.4873 C   0  0  0  0  0  0
  -18.0304  -28.1395   22.8463 C   0  0  0  0  0  0
  -24.1490  -36.7259   23.2639 C   0  0  0  0  0  0
  -25.9995  -30.7255   21.3860 C   0  0  0  0  0  0
  -26.0693  -29.3378   20.7259 C   0  0  0  0  0  0
  -27.2319  -28.4808   20.7277 C   0  0  0  0  0  0
  -25.9914  -26.8025   19.5137 C   0  0  0  0  0  0
  -24.8576  -27.6387   19.4941 C   0  0  0  0  0  0
  -23.6670  -29.8010   20.1565 C   0  0  0  0  0  0
  -25.4116  -36.3032   24.0305 C   0  0  1  0  0  0
  -20.5909  -28.3725   23.1219 C   0  0  2  0  0  0
  -20.6788  -26.9431   22.5390 C   0  0  0  0  0  0
  -19.5771  -26.6377   21.5197 C   0  0  0  0  0  0
  -18.1946  -26.7928   22.1603 C   0  0  0  0  0  0
  -19.1557  -28.8876   23.2826 C   0  0  0  0  0  0
  -18.9481  -30.1459   23.8875 C   0  0  0  0  0  0
  -17.6483  -30.6584   24.0565 C   0  0  0  0  0  0
  -25.9065  -34.9422   23.5049 C   0  0  0  0  0  0
  -16.5371  -29.9074   23.6356 C   0  0  0  0  0  0
  -16.7287  -28.6497   23.0360 C   0  0  0  0  0  0
  -26.4515  -31.6590   25.0720 C   0  0  0  0  0  0
  -25.3691  -31.3776   26.1410 C   0  0  0  0  0  0
  -27.0389  -30.2985   24.6302 C   0  0  0  0  0  0
  -27.6041  -32.4370   25.7504 C   0  0  0  0  0  0
  -27.5578  -37.1766   24.8455 C   0  0  0  0  0  0
  -21.4262  -29.3056   22.3607 N   0  0  0  0  0  0
  -26.4287  -37.3737   23.9402 N   0  0  0  0  0  0
  -24.7152  -31.0337   22.0942 N   0  0  0  0  0  0
  -23.4212  -28.8098   23.3004 O   0  0  0  0  0  0
  -28.2081  -26.1359   20.1717 O   0  0  0  0  0  0
  -26.5680  -34.8941   22.4644 O   0  0  0  0  0  0
  -23.5535  -32.1350   23.7115 O   0  0  0  0  0  0
  -29.1936  -22.2723   20.6960 C   0  0  0  0  0  0
  -28.1917  -23.2329   20.3980 C   0  0  0  0  0  0
  -27.2399  -22.3215   19.8090 C   0  0  0  0  0  0
  -25.2283  -21.8529   18.1931 C   0  0  0  0  0  0
  -25.5000  -23.3273   18.0853 C   0  0  0  0  0  0
  -29.4403  -18.5352   19.2052 C   0  0  0  0  0  0
  -29.0755  -18.4850   21.5472 C   0  0  0  0  0  0
  -30.2174  -17.1303   19.3025 C   0  0  0  0  0  0
  -29.7899  -17.0283   21.6298 C   0  0  0  0  0  0
  -25.8206  -22.5982   19.3745 C   0  0  0  0  0  0
  -29.5479  -19.5061   20.4365 C   0  0  0  0  0  0
  -27.9001  -24.7925   20.8697 C   0  0  0  0  0  0
  -27.6270  -21.0292   19.7645 N   0  0  0  0  0  0
  -28.8537  -20.9200   20.3184 N   0  0  0  0  0  0
  -29.9003  -16.1478   20.4076 N   0  0  0  0  0  0
  -31.4624  -12.6894   19.1788 H   0  0  0  0  0  0
  -30.3985  -11.6129   20.0383 H   0  0  0  0  0  0
  -29.8254  -11.7120   17.5800 H   0  0  0  0  0  0
  -29.5953  -13.4417   17.6903 H   0  0  0  0  0  0
  -27.9597  -11.2611   19.0136 H   0  0  0  0  0  0
  -27.3779  -12.3991   17.8288 H   0  0  0  0  0  0
  -27.5866  -14.2416   19.3891 H   0  0  0  0  0  0
  -28.7416  -12.3365   21.4826 H   0  0  0  0  0  0
  -28.3741  -14.0321   21.7197 H   0  0  0  0  0  0
  -25.2756   -9.5698   22.4737 H   0  0  0  0  0  0
  -24.0000   -7.4646   22.7472 H   0  0  0  0  0  0
  -21.0833   -8.8767   19.8932 H   0  0  0  0  0  0
  -22.3681  -10.9671   19.6150 H   0  0  0  0  0  0
  -21.2008   -7.6147   23.9710 H   0  0  0  0  0  0
  -21.1461   -6.0518   25.9070 H   0  0  0  0  0  0
  -22.0609   -2.7609   23.2846 H   0  0  0  0  0  0
  -22.4088  -11.9848   22.4814 H   0  0  0  0  0  0
  -21.1062  -13.1188   22.2657 H   0  0  0  0  0  0
  -24.6617  -15.8571   20.5466 H   0  0  0  0  0  0
  -26.2905  -15.6336   20.1480 H   0  0  0  0  0  0
  -26.7275  -32.5327   23.1008 H   0  0  0  0  0  0
  -25.0046  -33.9618   25.0294 H   0  0  0  0  0  0
  -22.7458  -31.2950   21.3858 H   0  0  0  0  0  0
  -23.3769  -35.9583   23.3293 H   0  0  0  0  0  0
  -24.3558  -36.8907   22.2059 H   0  0  0  0  0  0
  -23.7245  -37.6439   23.6698 H   0  0  0  0  0  0
  -26.1497  -31.4849   20.6162 H   0  0  0  0  0  0
  -26.8713  -30.7755   22.0270 H   0  0  0  0  0  0
  -28.1356  -28.8125   21.2221 H   0  0  0  0  0  0
  -25.9120  -25.8331   19.0478 H   0  0  0  0  0  0
  -23.9515  -27.2899   19.0167 H   0  0  0  0  0  0
  -23.8005  -30.5762   19.4027 H   0  0  0  0  0  0
  -22.7819  -29.2422   19.8482 H   0  0  0  0  0  0
  -25.1306  -36.1869   25.0802 H   0  0  0  0  0  0
  -20.9994  -28.3340   24.1331 H   0  0  0  0  0  0
  -20.5694  -26.2347   23.3612 H   0  0  0  0  0  0
  -21.6655  -26.7445   22.1185 H   0  0  0  0  0  0
  -19.6948  -25.6280   21.1242 H   0  0  0  0  0  0
  -19.6711  -27.3184   20.6733 H   0  0  0  0  0  0
  -17.4211  -26.6671   21.4004 H   0  0  0  0  0  0
  -18.0335  -26.0076   22.9009 H   0  0  0  0  0  0
  -19.7963  -30.7255   24.2247 H   0  0  0  0  0  0
  -17.5053  -31.6278   24.5154 H   0  0  0  0  0  0
  -15.5368  -30.2979   23.7691 H   0  0  0  0  0  0
  -15.8681  -28.0815   22.7086 H   0  0  0  0  0  0
  -24.5882  -30.7122   25.7709 H   0  0  0  0  0  0
  -24.8868  -32.2959   26.4772 H   0  0  0  0  0  0
  -25.7961  -30.8980   27.0230 H   0  0  0  0  0  0
  -26.3007  -29.6692   24.1319 H   0  0  0  0  0  0
  -27.3991  -29.7305   25.4883 H   0  0  0  0  0  0
  -27.8922  -30.4198   23.9625 H   0  0  0  0  0  0
  -27.2629  -33.3704   26.1999 H   0  0  0  0  0  0
  -28.3890  -32.6872   25.0357 H   0  0  0  0  0  0
  -28.0683  -31.8559   26.5481 H   0  0  0  0  0  0
  -28.2555  -38.0105   24.7549 H   0  0  0  0  0  0
  -28.1112  -36.2623   24.6236 H   0  0  0  0  0  0
  -27.2294  -37.1373   25.8858 H   0  0  0  0  0  0
  -20.9470  -29.8791   21.6798 H   0  0  0  0  0  0
  -26.0165  -38.2797   24.1454 H   0  0  0  0  0  0
  -30.1244  -22.4346   21.2201 H   0  0  0  0  0  0
  -25.8773  -21.1831   17.6320 H   0  0  0  0  0  0
  -24.1908  -21.5326   18.2689 H   0  0  0  0  0  0
  -24.6289  -23.9808   18.0696 H   0  0  0  0  0  0
  -26.3329  -23.6431   17.4611 H   0  0  0  0  0  0
  -28.3859  -18.3319   19.0054 H   0  0  0  0  0  0
  -29.7952  -19.0682   18.3222 H   0  0  0  0  0  0
  -29.1832  -18.9718   22.5165 H   0  0  0  0  0  0
  -28.0025  -18.3284   21.4301 H   0  0  0  0  0  0
  -31.2840  -17.3576   19.3548 H   0  0  0  0  0  0
  -30.0850  -16.6073   18.3535 H   0  0  0  0  0  0
  -29.2895  -16.4434   22.4026 H   0  0  0  0  0  0
  -30.8050  -17.1796   21.9989 H   0  0  0  0  0  0
  -25.1649  -22.7659   20.2276 H   0  0  0  0  0  0
  -30.6057  -19.7140   20.6032 H   0  0  0  0  0  0
  -28.3803  -24.9137   21.8397 H   0  0  0  0  0  0
  -26.8439  -24.8367   21.1374 H   0  0  0  0  0  0
  1 25  1  0  0  0
  1 30  2  0  0  0
  1 85  1  0  0  0
  2  3  1  0  0  0
  2 25  1  0  0  0
  2 86  1  0  0  0
  2 87  1  0  0  0
  3  4  1  0  0  0
  3 88  1  0  0  0
  3 89  1  0  0  0
  4  5  1  0  0  0
  4 90  1  0  0  0
  4 91  1  0  0  0
  5  6  1  0  0  0
  5 26  1  0  0  0
  5 92  1  0  0  0
  6 25  1  0  0  0
  6 93  1  0  0  0
  6 94  1  0  0  0
  7  8  2  0  0  0
  7 26  1  0  0  0
  7 29  1  0  0  0
  8  9  1  0  0  0
  8 22  1  0  0  0
  9 10  1  0  0  0
  9 27  2  0  0  0
 10 11  2  0  0  0
 10 15  1  0  0  0
 11 12  1  0  0  0
 11 95  1  0  0  0
 12 13  2  0  0  0
 12 96  1  0  0  0
 13 14  1  0  0  0
 13 31  1  0  0  0
 14 15  2  0  0  0
 14 97  1  0  0  0
 15 98  1  0  0  0
 16 17  2  0  0  0
 16 21  1  0  0  0
 16 31  1  0  0  0
 17 18  1  0  0  0
 17 99  1  0  0  0
 18 19  2  0  0  0
 18100  1  0  0  0
 19 20  1  0  0  0
 19 24  1  0  0  0
 20 21  2  0  0  0
 20101  1  0  0  0
 21 23  1  0  0  0
 22 28  1  0  0  0
 22 32  2  0  0  0
 26 27  1  0  0  0
 28102  1  0  0  0
 28103  1  0  0  0
 29104  1  0  0  0
 29105  1  0  0  0
 33 34  1  0  0  0
 33 66  1  0  0  0
 33 70  2  0  0  0
 34 36  1  0  0  0
 34 59  1  0  0  0
 34106  1  0  0  0
 35 44  2  0  0  0
 35 45  1  0  0  0
 35 68  1  0  0  0
 36 56  1  0  0  0
 36107  1  0  0  0
 37 39  1  0  0  0
 37 47  1  0  0  0
 37 66  1  0  0  0
 37108  1  0  0  0
 38 43  2  0  0  0
 38 46  1  0  0  0
 38 47  1  0  0  0
 39 64  1  0  0  0
 39 67  2  0  0  0
 40 52  1  0  0  0
 40 53  2  0  0  0
 40 58  1  0  0  0
 41109  1  0  0  0
 41110  1  0  0  0
 41111  1  0  0  0
 41 48  1  0  0  0
 42 43  1  0  0  0
 42 66  1  0  0  0
 42112  1  0  0  0
 42113  1  0  0  0
 43 44  1  0  0  0
 44114  1  0  0  0
 45 46  2  0  0  0
 45115  1  0  0  0
 46116  1  0  0  0
 47117  1  0  0  0
 47118  1  0  0  0
 48 56  1  0  0  0
 48 65  1  0  0  0
 48119  1  0  0  0
 49 50  1  0  0  0
 49 53  1  0  0  0
 49 64  1  0  0  0
 49120  1  0  0  0
 50 51  1  0  0  0
 50121  1  0  0  0
 50122  1  0  0  0
 51 52  1  0  0  0
 51123  1  0  0  0
 51124  1  0  0  0
 52125  1  0  0  0
 52126  1  0  0  0
 53 54  1  0  0  0
 54 55  2  0  0  0
 54127  1  0  0  0
 55 57  1  0  0  0
 55128  1  0  0  0
 56 69  2  0  0  0
 57 58  2  0  0  0
 57129  1  0  0  0
 58130  1  0  0  0
 59 60  1  0  0  0
 59 61  1  0  0  0
 59 62  1  0  0  0
 60131  1  0  0  0
 60132  1  0  0  0
 60133  1  0  0  0
 61134  1  0  0  0
 61135  1  0  0  0
 61136  1  0  0  0
 62137  1  0  0  0
 62138  1  0  0  0
 62139  1  0  0  0
 63 65  1  0  0  0
 63140  1  0  0  0
 63141  1  0  0  0
 63142  1  0  0  0
 64143  1  0  0  0
 65144  1  0  0  0
 68 82  1  0  0  0
 71 72  2  0  0  0
 71 84  1  0  0  0
 71145  1  0  0  0
 72 73  1  0  0  0
 72 82  1  0  0  0
 73 83  2  0  0  0
 73 80  1  0  0  0
 74 75  1  0  0  0
 74 80  1  0  0  0
 74146  1  0  0  0
 74147  1  0  0  0
 75 80  1  0  0  0
 75148  1  0  0  0
 75149  1  0  0  0
 76 78  1  0  0  0
 76 81  1  0  0  0
 76150  1  0  0  0
 76151  1  0  0  0
 77 79  1  0  0  0
 77 81  1  0  0  0
 77152  1  0  0  0
 77153  1  0  0  0
 78 85  1  0  0  0
 78154  1  0  0  0
 78155  1  0  0  0
 79 85  1  0  0  0
 79156  1  0  0  0
 79157  1  0  0  0
 80158  1  0  0  0
 81 84  1  0  0  0
 81159  1  0  0  0
 82160  1  0  0  0
 82161  1  0  0  0
 83 84  1  0  0  0
M  ISO  4   1 100  68 101  82 101  85 100
M  END
> <chiral flag>
0

> <version>
0

> <s_m_source_file>
/data/baiqing/PycharmProjects/Reinvent-master-3.2/result/LINK_invent/BTK/process_docking_weight1_custom_sum_contain_oxygen_bond_distance_aromatic_linkinvent_7_9_3/rearranged_h_0180.sdf

> <i_m_source_file_index>
17

> <r_mmod_Potential_Energy-OPLS-2005>
656.382080078125

> <r_mmod_Stretch_Energy-OPLS-2005>
201.973419189453

> <r_mmod_Bend_Energy-OPLS-2005>
265.320861816406

> <r_mmod_Torsional_Energy-OPLS-2005>
394.527740478516

> <r_mmod_Improper_Torsional_Energy-OPLS-2005>
18.4574413299561

> <r_mmod_Van_der_Waal_Energy-OPLS-2005>
107.652885437012

> <r_mmod_Electrostatic_Energy-OPLS-2005>
-306.019073486328

> <r_mmod_Solvation_Energy-OPLS-2005>
-202.453765869141

> <b_mmod_Minimization_Converged-OPLS-2005>
0

> <r_mmod_RMS_Derivative-OPLS-2005>
2.87132477760315

$$$$
17
                    3D
 Structure written by MMmdl.
163172  0  0  1  0            999 V2000
  -30.7107  -14.6105   20.4111 C   0  0  0  0  0  0
  -30.4166  -12.3508   19.4509 C   0  0  0  0  0  0
  -29.4856  -12.3889   18.2194 C   0  0  0  0  0  0
  -28.0071  -12.2866   18.6400 C   0  0  0  0  0  0
  -27.6315  -13.2009   19.8339 C   0  0  2  0  0  0
  -28.6899  -13.1783   20.9582 C   0  0  0  0  0  0
  -25.2526  -13.8115   20.5748 C   0  0  0  0  0  0
  -24.1780  -13.0407   20.9248 C   0  0  0  0  0  0
  -24.6339  -11.6878   20.8792 C   0  0  0  0  0  0
  -23.9021  -10.4275   21.0457 C   0  0  0  0  0  0
  -24.3592   -9.4190   21.9232 C   0  0  0  0  0  0
  -23.6282   -8.2220   22.0755 C   0  0  0  0  0  0
  -22.4272   -8.0273   21.3537 C   0  0  0  0  0  0
  -21.9912   -9.0247   20.4637 C   0  0  0  0  0  0
  -22.7221  -10.2137   20.3075 C   0  0  0  0  0  0
  -21.6850   -6.0741   22.5278 C   0  0  0  0  0  0
  -21.4016   -6.5638   23.8220 C   0  0  0  0  0  0
  -21.3656   -5.6778   24.9170 C   0  0  0  0  0  0
  -21.6040   -4.3048   24.7206 C   0  0  0  0  0  0
  -21.8820   -3.8148   23.4324 C   0  0  0  0  0  0
  -21.9191   -4.6975   22.3393 C   0  0  0  0  0  0
  -22.7810  -13.5233   21.1904 C   0  0  0  0  0  0
  -22.1669   -4.2177   21.0973 F   0  0  0  0  0  0
  -21.5619   -3.4523   25.7708 F   0  0  0  0  0  0
  -30.0063  -13.4389   20.3565 N   0  0  0  0  0  0
  -26.2893  -12.9258   20.3324 N   0  0  0  0  0  0
  -25.9243  -11.6441   20.5810 N   0  0  0  0  0  0
  -22.0460  -12.8222   22.0468 N   0  0  0  0  0  0
  -25.4296  -15.1836   20.4175 N   0  0  0  0  0  0
  -31.9345  -14.6285   20.2644 O   0  0  0  0  0  0
  -21.6626   -6.8880   21.4238 O   0  0  0  0  0  0
  -22.3517  -14.5555   20.6770 O   0  0  0  0  0  0
  -24.6183  -31.8648   23.2069 C   0  0  0  0  0  0
  -25.9071  -32.4792   23.8375 C   0  0  1  0  0  0
  -27.2386  -27.4143   20.1007 C   0  0  0  0  0  0
  -25.5934  -33.8595   24.2322 N   0  0  0  0  0  0
  -23.4088  -30.4871   21.5443 C   0  0  2  0  0  0
  -24.8623  -28.9570   20.1033 C   0  0  0  0  0  0
  -22.7431  -29.4635   22.4932 C   0  0  0  0  0  0
  -18.0273  -28.1378   22.8472 C   0  0  0  0  0  0
  -24.1487  -36.7268   23.2634 C   0  0  0  0  0  0
  -25.9409  -30.8232   21.3678 C   0  0  0  0  0  0
  -26.0225  -29.4595   20.7089 C   0  0  0  0  0  0
  -27.2174  -28.6948   20.7077 C   0  0  0  0  0  0
  -26.0698  -26.9439   19.4681 C   0  0  0  0  0  0
  -24.8829  -27.6999   19.4758 C   0  0  0  0  0  0
  -23.6218  -29.8212   20.1579 C   0  0  0  0  0  0
  -25.4104  -36.3076   24.0348 C   0  0  1  0  0  0
  -20.5871  -28.3664   23.1278 C   0  0  2  0  0  0
  -20.6760  -26.9390   22.5397 C   0  0  0  0  0  0
  -19.5746  -26.6367   21.5193 C   0  0  0  0  0  0
  -18.1917  -26.7927   22.1594 C   0  0  0  0  0  0
  -19.1532  -28.8839   23.2874 C   0  0  0  0  0  0
  -18.9459  -30.1445   23.8880 C   0  0  0  0  0  0
  -17.6458  -30.6577   24.0563 C   0  0  0  0  0  0
  -25.9041  -34.9455   23.5116 C   0  0  0  0  0  0
  -16.5351  -29.9073   23.6360 C   0  0  0  0  0  0
  -16.7263  -28.6497   23.0359 C   0  0  0  0  0  0
  -26.4495  -31.6571   25.0702 C   0  0  0  0  0  0
  -25.3781  -31.3655   26.1454 C   0  0  0  0  0  0
  -27.0329  -30.3011   24.6085 C   0  0  0  0  0  0
  -27.6070  -32.4292   25.7470 C   0  0  0  0  0  0
  -27.5593  -37.1762   24.8460 C   0  0  0  0  0  0
  -21.4151  -29.3026   22.3674 N   0  0  0  0  0  0
  -26.4260  -37.3789   23.9463 N   0  0  0  0  0  0
  -24.6730  -31.0734   22.0974 N   0  0  0  0  0  0
  -23.4188  -28.8182   23.2992 O   0  0  0  0  0  0
  -28.3272  -26.5640   20.1807 O   0  0  0  0  0  0
  -26.5577  -34.8922   22.4659 O   0  0  0  0  0  0
  -23.5366  -32.1402   23.7450 O   0  0  0  0  0  0
  -28.2178  -22.9536   21.2337 C   0  0  0  0  0  0
  -28.8392  -24.2428   21.1855 C   0  0  0  0  0  0
  -29.2077  -22.0396   21.5164 C   0  0  0  0  0  0
  -29.8969  -17.2948   18.3787 C   0  0  0  0  0  0
  -31.0537  -17.6847   19.2749 C   0  0  0  0  0  0
  -29.3022  -16.0545   19.0562 C   0  0  0  0  0  0
  -30.6222  -17.1328   20.6435 C   0  0  1  0  0  0
  -31.7387  -22.3694   21.8225 C   0  0  0  0  0  0
  -28.1506  -25.6142   21.2631 C   0  0  0  0  0  0
  -29.0606  -20.5511   21.8795 C   0  0  0  0  0  0
  -29.6242  -18.1208   21.3648 C   0  0  0  0  0  0
  -30.1547  -24.1143   21.3115 N   0  0  0  0  0  0
  -30.3800  -22.7893   21.5345 N   0  0  0  0  0  0
  -30.0110  -15.7964   20.3318 N   0  0  0  0  0  0
  -30.0408  -19.5653   21.3285 N   0  3  0  0  0  0
  -31.4557  -12.4411   19.1319 H   0  0  0  0  0  0
  -30.3386  -11.3892   19.9619 H   0  0  0  0  0  0
  -29.7254  -11.5579   17.5552 H   0  0  0  0  0  0
  -29.6558  -13.2814   17.6196 H   0  0  0  0  0  0
  -27.8220  -11.2453   18.9039 H   0  0  0  0  0  0
  -27.3568  -12.4968   17.7896 H   0  0  0  0  0  0
  -27.5897  -14.2005   19.4229 H   0  0  0  0  0  0
  -28.6839  -12.2212   21.4804 H   0  0  0  0  0  0
  -28.4496  -13.9413   21.7013 H   0  0  0  0  0  0
  -25.2728   -9.5657   22.4834 H   0  0  0  0  0  0
  -23.9998   -7.4589   22.7438 H   0  0  0  0  0  0
  -21.0873   -8.8743   19.8911 H   0  0  0  0  0  0
  -22.3698  -10.9681   19.6188 H   0  0  0  0  0  0
  -21.2021   -7.6141   23.9731 H   0  0  0  0  0  0
  -21.1477   -6.0501   25.9076 H   0  0  0  0  0  0
  -22.0604   -2.7609   23.2793 H   0  0  0  0  0  0
  -22.4076  -11.9848   22.4782 H   0  0  0  0  0  0
  -21.1099  -13.1257   22.2727 H   0  0  0  0  0  0
  -24.6702  -15.8448   20.5411 H   0  0  0  0  0  0
  -26.2890  -15.6155   20.1078 H   0  0  0  0  0  0
  -26.7135  -32.5497   23.1134 H   0  0  0  0  0  0
  -25.0241  -33.9763   25.0567 H   0  0  0  0  0  0
  -22.6975  -31.3031   21.4004 H   0  0  0  0  0  0
  -23.3793  -35.9545   23.3201 H   0  0  0  0  0  0
  -24.3625  -36.8964   22.2067 H   0  0  0  0  0  0
  -23.7168  -37.6413   23.6705 H   0  0  0  0  0  0
  -26.0633  -31.5912   20.6035 H   0  0  0  0  0  0
  -26.8241  -30.8701   21.9921 H   0  0  0  0  0  0
  -28.1059  -29.0661   21.1995 H   0  0  0  0  0  0
  -26.0708  -25.9740   18.9909 H   0  0  0  0  0  0
  -23.9946  -27.3077   18.9994 H   0  0  0  0  0  0
  -23.7286  -30.5973   19.3992 H   0  0  0  0  0  0
  -22.7472  -29.2389   19.8611 H   0  0  0  0  0  0
  -25.1277  -36.1903   25.0832 H   0  0  0  0  0  0
  -20.9970  -28.3243   24.1398 H   0  0  0  0  0  0
  -20.5639  -26.2282   23.3605 H   0  0  0  0  0  0
  -21.6632  -26.7414   22.1189 H   0  0  0  0  0  0
  -19.6902  -25.6268   21.1240 H   0  0  0  0  0  0
  -19.6715  -27.3174   20.6722 H   0  0  0  0  0  0
  -17.4201  -26.6698   21.3978 H   0  0  0  0  0  0
  -18.0300  -26.0057   22.8972 H   0  0  0  0  0  0
  -19.7944  -30.7271   24.2231 H   0  0  0  0  0  0
  -17.5025  -31.6275   24.5136 H   0  0  0  0  0  0
  -15.5350  -30.2972   23.7700 H   0  0  0  0  0  0
  -15.8655  -28.0821   22.7081 H   0  0  0  0  0  0
  -24.6014  -30.6916   25.7812 H   0  0  0  0  0  0
  -24.8909  -32.2783   26.4884 H   0  0  0  0  0  0
  -25.8173  -30.8878   27.0217 H   0  0  0  0  0  0
  -26.2854  -29.6738   24.1207 H   0  0  0  0  0  0
  -27.4164  -29.7278   25.4534 H   0  0  0  0  0  0
  -27.8664  -30.4303   23.9179 H   0  0  0  0  0  0
  -27.2702  -33.3613   26.2013 H   0  0  0  0  0  0
  -28.3907  -32.6795   25.0311 H   0  0  0  0  0  0
  -28.0695  -31.8431   26.5417 H   0  0  0  0  0  0
  -28.2506  -38.0163   24.7659 H   0  0  0  0  0  0
  -28.1190  -36.2705   24.6075 H   0  0  0  0  0  0
  -27.2353  -37.1141   25.8864 H   0  0  0  0  0  0
  -20.9316  -29.8734   21.6881 H   0  0  0  0  0  0
  -26.0128  -38.2821   24.1598 H   0  0  0  0  0  0
  -27.1569  -22.7468   21.1941 H   0  0  0  0  0  0
  -30.2271  -17.0991   17.3574 H   0  0  0  0  0  0
  -29.1428  -18.0824   18.3347 H   0  0  0  0  0  0
  -31.2786  -18.7519   19.2414 H   0  0  0  0  0  0
  -31.9566  -17.1722   18.9420 H   0  0  0  0  0  0
  -29.3521  -15.2292   18.3508 H   0  0  0  0  0  0
  -28.2501  -16.2471   19.2608 H   0  0  0  0  0  0
  -31.5045  -17.0121   21.2775 H   0  0  0  0  0  0
  -31.7854  -21.9257   22.8174 H   0  0  0  0  0  0
  -32.4166  -23.2234   21.7928 H   0  0  0  0  0  0
  -32.0718  -21.6413   21.0832 H   0  0  0  0  0  0
  -28.4837  -26.1194   22.1699 H   0  0  0  0  0  0
  -27.0886  -25.4265   21.4324 H   0  0  0  0  0  0
  -28.0628  -20.2420   21.5699 H   0  0  0  0  0  0
  -29.0672  -20.4488   22.9646 H   0  0  0  0  0  0
  -29.4953  -17.8103   22.4033 H   0  0  0  0  0  0
  -28.6362  -18.0425   20.9072 H   0  0  0  0  0  0
  -30.9103  -19.6594   21.8258 H   0  0  0  0  0  0
  -30.1948  -19.8081   20.3652 H   0  0  0  0  0  0
  1 25  1  0  0  0
  1 30  2  0  0  0
  1 84  1  0  0  0
  2  3  1  0  0  0
  2 25  1  0  0  0
  2 86  1  0  0  0
  2 87  1  0  0  0
  3  4  1  0  0  0
  3 88  1  0  0  0
  3 89  1  0  0  0
  4  5  1  0  0  0
  4 90  1  0  0  0
  4 91  1  0  0  0
  5  6  1  0  0  0
  5 26  1  0  0  0
  5 92  1  0  0  0
  6 25  1  0  0  0
  6 93  1  0  0  0
  6 94  1  0  0  0
  7  8  2  0  0  0
  7 26  1  0  0  0
  7 29  1  0  0  0
  8  9  1  0  0  0
  8 22  1  0  0  0
  9 10  1  0  0  0
  9 27  2  0  0  0
 10 11  2  0  0  0
 10 15  1  0  0  0
 11 12  1  0  0  0
 11 95  1  0  0  0
 12 13  2  0  0  0
 12 96  1  0  0  0
 13 14  1  0  0  0
 13 31  1  0  0  0
 14 15  2  0  0  0
 14 97  1  0  0  0
 15 98  1  0  0  0
 16 17  2  0  0  0
 16 21  1  0  0  0
 16 31  1  0  0  0
 17 18  1  0  0  0
 17 99  1  0  0  0
 18 19  2  0  0  0
 18100  1  0  0  0
 19 20  1  0  0  0
 19 24  1  0  0  0
 20 21  2  0  0  0
 20101  1  0  0  0
 21 23  1  0  0  0
 22 28  1  0  0  0
 22 32  2  0  0  0
 26 27  1  0  0  0
 28102  1  0  0  0
 28103  1  0  0  0
 29104  1  0  0  0
 29105  1  0  0  0
 33 34  1  0  0  0
 33 66  1  0  0  0
 33 70  2  0  0  0
 34 36  1  0  0  0
 34 59  1  0  0  0
 34106  1  0  0  0
 35 44  2  0  0  0
 35 45  1  0  0  0
 35 68  1  0  0  0
 36 56  1  0  0  0
 36107  1  0  0  0
 37 39  1  0  0  0
 37 47  1  0  0  0
 37 66  1  0  0  0
 37108  1  0  0  0
 38 43  2  0  0  0
 38 46  1  0  0  0
 38 47  1  0  0  0
 39 64  1  0  0  0
 39 67  2  0  0  0
 40 52  1  0  0  0
 40 53  2  0  0  0
 40 58  1  0  0  0
 41109  1  0  0  0
 41110  1  0  0  0
 41111  1  0  0  0
 41 48  1  0  0  0
 42 43  1  0  0  0
 42 66  1  0  0  0
 42112  1  0  0  0
 42113  1  0  0  0
 43 44  1  0  0  0
 44114  1  0  0  0
 45 46  2  0  0  0
 45115  1  0  0  0
 46116  1  0  0  0
 47117  1  0  0  0
 47118  1  0  0  0
 48 56  1  0  0  0
 48 65  1  0  0  0
 48119  1  0  0  0
 49 50  1  0  0  0
 49 53  1  0  0  0
 49 64  1  0  0  0
 49120  1  0  0  0
 50 51  1  0  0  0
 50121  1  0  0  0
 50122  1  0  0  0
 51 52  1  0  0  0
 51123  1  0  0  0
 51124  1  0  0  0
 52125  1  0  0  0
 52126  1  0  0  0
 53 54  1  0  0  0
 54 55  2  0  0  0
 54127  1  0  0  0
 55 57  1  0  0  0
 55128  1  0  0  0
 56 69  2  0  0  0
 57 58  2  0  0  0
 57129  1  0  0  0
 58130  1  0  0  0
 59 60  1  0  0  0
 59 61  1  0  0  0
 59 62  1  0  0  0
 60131  1  0  0  0
 60132  1  0  0  0
 60133  1  0  0  0
 61134  1  0  0  0
 61135  1  0  0  0
 61136  1  0  0  0
 62137  1  0  0  0
 62138  1  0  0  0
 62139  1  0  0  0
 63 65  1  0  0  0
 63140  1  0  0  0
 63141  1  0  0  0
 63142  1  0  0  0
 64143  1  0  0  0
 65144  1  0  0  0
 68 79  1  0  0  0
 71 72  1  0  0  0
 71 73  2  0  0  0
 71145  1  0  0  0
 72 79  1  0  0  0
 72 82  2  0  0  0
 73 80  1  0  0  0
 73 83  1  0  0  0
 74 75  1  0  0  0
 74 76  1  0  0  0
 74146  1  0  0  0
 74147  1  0  0  0
 75 77  1  0  0  0
 75148  1  0  0  0
 75149  1  0  0  0
 76 84  1  0  0  0
 76150  1  0  0  0
 76151  1  0  0  0
 77 81  1  0  0  0
 77 84  1  0  0  0
 77152  1  0  0  0
 78 83  1  0  0  0
 78153  1  0  0  0
 78154  1  0  0  0
 78155  1  0  0  0
 79156  1  0  0  0
 79157  1  0  0  0
 80 85  1  0  0  0
 80158  1  0  0  0
 80159  1  0  0  0
 81 85  1  0  0  0
 81160  1  0  0  0
 81161  1  0  0  0
 82 83  1  0  0  0
 85162  1  0  0  0
 85163  1  0  0  0
M  CHG  1  85   1
M  ISO  4   1 100  68 101  79 101  84 100
M  END
> <chiral flag>
0

> <version>
0

> <s_m_source_file>
/data/baiqing/PycharmProjects/Reinvent-master-3.2/result/LINK_invent/BTK/process_docking_weight1_custom_sum_contain_oxygen_bond_distance_aromatic_linkinvent_7_9_3/rearranged_h_0180.sdf

> <i_m_source_file_index>
18

> <r_mmod_Potential_Energy-OPLS-2005>
78.1006469726562

> <r_mmod_Stretch_Energy-OPLS-2005>
54.7564239501953

> <r_mmod_Bend_Energy-OPLS-2005>
146.813034057617

> <r_mmod_Torsional_Energy-OPLS-2005>
400.288177490234

> <r_mmod_Improper_Torsional_Energy-OPLS-2005>
13.9641332626343

> <r_mmod_Van_der_Waal_Energy-OPLS-2005>
125.752105712891

> <r_mmod_Electrostatic_Energy-OPLS-2005>
-216.467193603516

> <r_mmod_Solvation_Energy-OPLS-2005>
-498.711822509766

> <b_mmod_Minimization_Converged-OPLS-2005>
0

> <r_mmod_RMS_Derivative-OPLS-2005>
3.24409484863281

$$$$
18
                    3D
 Structure written by MMmdl.
156165  0  0  1  0            999 V2000
  -30.4986  -15.1691   20.3829 C   0  0  0  0  0  0
  -30.4290  -12.7473   19.5086 C   0  0  0  0  0  0
  -29.5209  -12.5517   18.2734 C   0  0  0  0  0  0
  -28.0685  -12.2947   18.7063 C   0  0  0  0  0  0
  -27.6113  -13.2685   19.8224 C   0  0  2  0  0  0
  -28.6495  -13.4207   20.9540 C   0  0  0  0  0  0
  -25.2394  -13.8248   20.5707 C   0  0  0  0  0  0
  -24.1755  -13.0445   20.9247 C   0  0  0  0  0  0
  -24.6400  -11.6940   20.8783 C   0  0  0  0  0  0
  -23.9095  -10.4306   21.0424 C   0  0  0  0  0  0
  -24.3646   -9.4213   21.9196 C   0  0  0  0  0  0
  -23.6312   -8.2252   22.0761 C   0  0  0  0  0  0
  -22.4296   -8.0293   21.3546 C   0  0  0  0  0  0
  -21.9937   -9.0274   20.4647 C   0  0  0  0  0  0
  -22.7273  -10.2149   20.3059 C   0  0  0  0  0  0
  -21.6864   -6.0749   22.5281 C   0  0  0  0  0  0
  -21.4014   -6.5652   23.8213 C   0  0  0  0  0  0
  -21.3656   -5.6805   24.9178 C   0  0  0  0  0  0
  -21.6042   -4.3067   24.7229 C   0  0  0  0  0  0
  -21.8820   -3.8159   23.4350 C   0  0  0  0  0  0
  -21.9198   -4.6974   22.3406 C   0  0  0  0  0  0
  -22.7772  -13.5191   21.1900 C   0  0  0  0  0  0
  -22.1660   -4.2161   21.0984 F   0  0  0  0  0  0
  -21.5618   -3.4546   25.7737 F   0  0  0  0  0  0
  -29.8879  -13.8943   20.3203 N   0  0  0  0  0  0
  -26.2814  -12.9513   20.3224 N   0  0  0  0  0  0
  -25.9336  -11.6632   20.5764 N   0  0  0  0  0  0
  -22.0438  -12.8184   22.0458 N   0  0  0  0  0  0
  -25.4053  -15.1970   20.4059 N   0  0  0  0  0  0
  -31.7176  -15.1285   20.1593 O   0  0  0  0  0  0
  -21.6644   -6.8901   21.4248 O   0  0  0  0  0  0
  -22.3468  -14.5504   20.6736 O   0  0  0  0  0  0
  -24.6579  -31.8321   23.1792 C   0  0  0  0  0  0
  -25.9302  -32.4638   23.8227 C   0  0  1  0  0  0
  -27.2059  -26.9957   20.1555 C   0  0  0  0  0  0
  -25.6030  -33.8451   24.2156 N   0  0  0  0  0  0
  -23.4658  -30.4493   21.5272 C   0  0  2  0  0  0
  -24.9150  -28.8553   20.1031 C   0  0  0  0  0  0
  -22.7634  -29.4485   22.4812 C   0  0  0  0  0  0
  -18.0314  -28.1408   22.8467 C   0  0  0  0  0  0
  -24.1471  -36.7213   23.2635 C   0  0  0  0  0  0
  -26.0313  -30.6575   21.3972 C   0  0  0  0  0  0
  -26.0960  -29.2547   20.7407 C   0  0  0  0  0  0
  -27.2348  -28.3409   20.7530 C   0  0  0  0  0  0
  -26.0053  -26.7465   19.4508 C   0  0  0  0  0  0
  -24.8916  -27.6196   19.4400 C   0  0  0  0  0  0
  -23.6996  -29.7764   20.1472 C   0  0  0  0  0  0
  -25.4110  -36.2998   24.0309 C   0  0  1  0  0  0
  -20.5938  -28.3747   23.1203 C   0  0  2  0  0  0
  -20.6791  -26.9437   22.5399 C   0  0  0  0  0  0
  -19.5771  -26.6383   21.5211 C   0  0  0  0  0  0
  -18.1946  -26.7950   22.1610 C   0  0  0  0  0  0
  -19.1573  -28.8898   23.2821 C   0  0  0  0  0  0
  -18.9493  -30.1494   23.8853 C   0  0  0  0  0  0
  -17.6486  -30.6593   24.0569 C   0  0  0  0  0  0
  -25.9093  -34.9384   23.5037 C   0  0  0  0  0  0
  -16.5377  -29.9091   23.6351 C   0  0  0  0  0  0
  -16.7298  -28.6518   23.0355 C   0  0  0  0  0  0
  -26.4567  -31.6555   25.0724 C   0  0  0  0  0  0
  -25.3716  -31.3800   26.1407 C   0  0  0  0  0  0
  -27.0436  -30.2931   24.6377 C   0  0  0  0  0  0
  -27.6080  -32.4335   25.7522 C   0  0  0  0  0  0
  -27.5562  -37.1756   24.8461 C   0  0  0  0  0  0
  -21.4311  -29.3055   22.3566 N   0  0  0  0  0  0
  -26.4247  -37.3745   23.9437 N   0  0  0  0  0  0
  -24.7393  -31.0035   22.0907 N   0  0  0  0  0  0
  -23.4226  -28.8040   23.2999 O   0  0  0  0  0  0
  -28.1969  -25.9054   20.2628 O   0  0  0  0  0  0
  -26.5645  -34.8908   22.4593 O   0  0  0  0  0  0
  -23.5673  -32.1275   23.6921 O   0  0  0  0  0  0
  -29.1838  -21.2772   22.2294 C   0  0  0  0  0  0
  -28.8463  -22.5882   21.7398 C   0  0  0  0  0  0
  -29.2782  -20.1099   21.4041 C   0  0  0  0  0  0
  -29.0331  -20.3475   20.0443 C   0  0  0  0  0  0
  -28.5764  -22.8612   20.3719 C   0  0  0  0  0  0
  -29.7074  -18.6748   21.9711 C   0  0  0  0  0  0
  -29.0637  -19.0013   19.1557 C   0  0  0  0  0  0
  -29.1499  -17.2163   21.4688 C   0  0  0  0  0  0
  -30.0940  -17.6792   19.3602 C   0  0  2  0  0  0
  -30.3763  -17.1269   17.9466 C   0  0  0  0  0  0
  -27.9254  -24.3657   19.8501 C   0  0  0  0  0  0
  -28.6776  -21.6680   19.5734 N   0  0  0  0  0  0
  -29.7969  -16.4722   20.3127 N   0  0  0  0  0  0
  -31.4491  -12.9294   19.1700 H   0  0  0  0  0  0
  -30.4797  -11.8355   20.1061 H   0  0  0  0  0  0
  -29.8830  -11.7226   17.6645 H   0  0  0  0  0  0
  -29.5646  -13.4388   17.6404 H   0  0  0  0  0  0
  -28.0128  -11.2695   19.0716 H   0  0  0  0  0  0
  -27.3971  -12.3465   17.8488 H   0  0  0  0  0  0
  -27.5380  -14.2413   19.3331 H   0  0  0  0  0  0
  -28.7995  -12.4830   21.4921 H   0  0  0  0  0  0
  -28.3056  -14.1536   21.6870 H   0  0  0  0  0  0
  -25.2795   -9.5675   22.4778 H   0  0  0  0  0  0
  -24.0014   -7.4642   22.7484 H   0  0  0  0  0  0
  -21.0866   -8.8800   19.8955 H   0  0  0  0  0  0
  -22.3742  -10.9692   19.6162 H   0  0  0  0  0  0
  -21.1999   -7.6162   23.9717 H   0  0  0  0  0  0
  -21.1467   -6.0533   25.9080 H   0  0  0  0  0  0
  -22.0599   -2.7623   23.2844 H   0  0  0  0  0  0
  -22.4079  -11.9835   22.4813 H   0  0  0  0  0  0
  -21.1048  -13.1185   22.2678 H   0  0  0  0  0  0
  -24.6266  -15.8410   20.4846 H   0  0  0  0  0  0
  -26.2428  -15.6299   20.0368 H   0  0  0  0  0  0
  -26.7360  -32.5194   23.0932 H   0  0  0  0  0  0
  -25.0278  -33.9553   25.0378 H   0  0  0  0  0  0
  -22.7771  -31.2823   21.3661 H   0  0  0  0  0  0
  -23.3759  -35.9517   23.3255 H   0  0  0  0  0  0
  -24.3560  -36.8890   22.2062 H   0  0  0  0  0  0
  -23.7204  -37.6382   23.6705 H   0  0  0  0  0  0
  -26.1953  -31.3985   20.6128 H   0  0  0  0  0  0
  -26.8999  -30.7183   22.0422 H   0  0  0  0  0  0
  -28.1225  -28.6361   21.2956 H   0  0  0  0  0  0
  -25.8789  -25.8138   18.9203 H   0  0  0  0  0  0
  -23.9975  -27.3160   18.9113 H   0  0  0  0  0  0
  -23.8522  -30.5536   19.3969 H   0  0  0  0  0  0
  -22.8092  -29.2327   19.8253 H   0  0  0  0  0  0
  -25.1288  -36.1794   25.0797 H   0  0  0  0  0  0
  -21.0019  -28.3343   24.1332 H   0  0  0  0  0  0
  -20.5676  -26.2371   23.3631 H   0  0  0  0  0  0
  -21.6655  -26.7428   22.1205 H   0  0  0  0  0  0
  -19.6935  -25.6292   21.1262 H   0  0  0  0  0  0
  -19.6705  -27.3176   20.6732 H   0  0  0  0  0  0
  -17.4223  -26.6712   21.4004 H   0  0  0  0  0  0
  -18.0319  -26.0093   22.9005 H   0  0  0  0  0  0
  -19.7969  -30.7314   24.2199 H   0  0  0  0  0  0
  -17.5046  -31.6273   24.5176 H   0  0  0  0  0  0
  -15.5381  -30.2983   23.7696 H   0  0  0  0  0  0
  -15.8698  -28.0826   22.7093 H   0  0  0  0  0  0
  -24.5894  -30.7145   25.7741 H   0  0  0  0  0  0
  -24.8905  -32.2999   26.4740 H   0  0  0  0  0  0
  -25.7971  -30.9047   27.0254 H   0  0  0  0  0  0
  -26.3091  -29.6654   24.1319 H   0  0  0  0  0  0
  -27.3960  -29.7240   25.4992 H   0  0  0  0  0  0
  -27.9036  -30.4133   23.9786 H   0  0  0  0  0  0
  -27.2683  -33.3693   26.1960 H   0  0  0  0  0  0
  -28.3969  -32.6787   25.0408 H   0  0  0  0  0  0
  -28.0649  -31.8540   26.5552 H   0  0  0  0  0  0
  -28.2531  -38.0097   24.7561 H   0  0  0  0  0  0
  -28.1097  -36.2634   24.6191 H   0  0  0  0  0  0
  -27.2299  -37.1295   25.8865 H   0  0  0  0  0  0
  -20.9560  -29.8791   21.6733 H   0  0  0  0  0  0
  -26.0087  -38.2786   24.1505 H   0  0  0  0  0  0
  -29.3669  -21.1700   23.2884 H   0  0  0  0  0  0
  -28.7581  -23.4013   22.4484 H   0  0  0  0  0  0
  -29.4614  -18.7254   23.0327 H   0  0  0  0  0  0
  -30.7975  -18.6481   21.9642 H   0  0  0  0  0  0
  -29.2235  -19.3851   18.1487 H   0  0  0  0  0  0
  -28.0397  -18.6259   19.1267 H   0  0  0  0  0  0
  -28.0776  -17.2872   21.2777 H   0  0  0  0  0  0
  -29.2249  -16.5425   22.3242 H   0  0  0  0  0  0
  -31.0536  -18.0874   19.6825 H   0  0  0  0  0  0
  -29.4855  -16.6586   17.5252 H   0  0  0  0  0  0
  -31.1801  -16.3918   17.9331 H   0  0  0  0  0  0
  -30.6855  -17.9203   17.2644 H   0  0  0  0  0  0
  -26.8641  -24.2130   20.0393 H   0  0  0  0  0  0
  -28.0173  -24.3488   18.7639 H   0  0  0  0  0  0
  1 25  1  0  0  0
  1 30  2  0  0  0
  1 83  1  0  0  0
  2  3  1  0  0  0
  2 25  1  0  0  0
  2 84  1  0  0  0
  2 85  1  0  0  0
  3  4  1  0  0  0
  3 86  1  0  0  0
  3 87  1  0  0  0
  4  5  1  0  0  0
  4 88  1  0  0  0
  4 89  1  0  0  0
  5  6  1  0  0  0
  5 26  1  0  0  0
  5 90  1  0  0  0
  6 25  1  0  0  0
  6 91  1  0  0  0
  6 92  1  0  0  0
  7  8  2  0  0  0
  7 26  1  0  0  0
  7 29  1  0  0  0
  8  9  1  0  0  0
  8 22  1  0  0  0
  9 10  1  0  0  0
  9 27  2  0  0  0
 10 11  2  0  0  0
 10 15  1  0  0  0
 11 12  1  0  0  0
 11 93  1  0  0  0
 12 13  2  0  0  0
 12 94  1  0  0  0
 13 14  1  0  0  0
 13 31  1  0  0  0
 14 15  2  0  0  0
 14 95  1  0  0  0
 15 96  1  0  0  0
 16 17  2  0  0  0
 16 21  1  0  0  0
 16 31  1  0  0  0
 17 18  1  0  0  0
 17 97  1  0  0  0
 18 19  2  0  0  0
 18 98  1  0  0  0
 19 20  1  0  0  0
 19 24  1  0  0  0
 20 21  2  0  0  0
 20 99  1  0  0  0
 21 23  1  0  0  0
 22 28  1  0  0  0
 22 32  2  0  0  0
 26 27  1  0  0  0
 28100  1  0  0  0
 28101  1  0  0  0
 29102  1  0  0  0
 29103  1  0  0  0
 33 34  1  0  0  0
 33 66  1  0  0  0
 33 70  2  0  0  0
 34 36  1  0  0  0
 34 59  1  0  0  0
 34104  1  0  0  0
 35 44  2  0  0  0
 35 45  1  0  0  0
 35 68  1  0  0  0
 36 56  1  0  0  0
 36105  1  0  0  0
 37 39  1  0  0  0
 37 47  1  0  0  0
 37 66  1  0  0  0
 37106  1  0  0  0
 38 43  2  0  0  0
 38 46  1  0  0  0
 38 47  1  0  0  0
 39 64  1  0  0  0
 39 67  2  0  0  0
 40 52  1  0  0  0
 40 53  2  0  0  0
 40 58  1  0  0  0
 41107  1  0  0  0
 41108  1  0  0  0
 41109  1  0  0  0
 41 48  1  0  0  0
 42 43  1  0  0  0
 42 66  1  0  0  0
 42110  1  0  0  0
 42111  1  0  0  0
 43 44  1  0  0  0
 44112  1  0  0  0
 45 46  2  0  0  0
 45113  1  0  0  0
 46114  1  0  0  0
 47115  1  0  0  0
 47116  1  0  0  0
 48 56  1  0  0  0
 48 65  1  0  0  0
 48117  1  0  0  0
 49 50  1  0  0  0
 49 53  1  0  0  0
 49 64  1  0  0  0
 49118  1  0  0  0
 50 51  1  0  0  0
 50119  1  0  0  0
 50120  1  0  0  0
 51 52  1  0  0  0
 51121  1  0  0  0
 51122  1  0  0  0
 52123  1  0  0  0
 52124  1  0  0  0
 53 54  1  0  0  0
 54 55  2  0  0  0
 54125  1  0  0  0
 55 57  1  0  0  0
 55126  1  0  0  0
 56 69  2  0  0  0
 57 58  2  0  0  0
 57127  1  0  0  0
 58128  1  0  0  0
 59 60  1  0  0  0
 59 61  1  0  0  0
 59 62  1  0  0  0
 60129  1  0  0  0
 60130  1  0  0  0
 60131  1  0  0  0
 61132  1  0  0  0
 61133  1  0  0  0
 61134  1  0  0  0
 62135  1  0  0  0
 62136  1  0  0  0
 62137  1  0  0  0
 63 65  1  0  0  0
 63138  1  0  0  0
 63139  1  0  0  0
 63140  1  0  0  0
 64141  1  0  0  0
 65142  1  0  0  0
 68 81  1  0  0  0
 71 72  2  0  0  0
 71 73  1  0  0  0
 71143  1  0  0  0
 72 75  1  0  0  0
 72144  1  0  0  0
 73 74  2  0  0  0
 73 76  1  0  0  0
 74 77  1  0  0  0
 74 82  1  0  0  0
 75 81  1  0  0  0
 75 82  2  0  0  0
 76 78  1  0  0  0
 76145  1  0  0  0
 76146  1  0  0  0
 77 79  1  0  0  0
 77147  1  0  0  0
 77148  1  0  0  0
 78 83  1  0  0  0
 78149  1  0  0  0
 78150  1  0  0  0
 79 80  1  0  0  0
 79 83  1  0  0  0
 79151  1  0  0  0
 80152  1  0  0  0
 80153  1  0  0  0
 80154  1  0  0  0
 81155  1  0  0  0
 81156  1  0  0  0
M  ISO  4   1 100  68 101  81 101  83 100
M  END
> <chiral flag>
0

> <version>
0

> <s_m_source_file>
/data/baiqing/PycharmProjects/Reinvent-master-3.2/result/LINK_invent/BTK/process_docking_weight1_custom_sum_contain_oxygen_bond_distance_aromatic_linkinvent_7_9_3/rearranged_h_0180.sdf

> <i_m_source_file_index>
19

> <r_mmod_Potential_Energy-OPLS-2005>
1024.10632324219

> <r_mmod_Stretch_Energy-OPLS-2005>
397.225708007812

> <r_mmod_Bend_Energy-OPLS-2005>
378.835327148438

> <r_mmod_Torsional_Energy-OPLS-2005>
330.442108154297

> <r_mmod_Improper_Torsional_Energy-OPLS-2005>
14.7652263641357

> <r_mmod_Van_der_Waal_Energy-OPLS-2005>
136.006454467773

> <r_mmod_Electrostatic_Energy-OPLS-2005>
-384.855590820312

> <r_mmod_Solvation_Energy-OPLS-2005>
-214.214859008789

> <b_mmod_Minimization_Converged-OPLS-2005>
0

> <r_mmod_RMS_Derivative-OPLS-2005>
2.70174264907837

$$$$
19
                    3D
 Structure written by MMmdl.
153162  0  0  1  0            999 V2000
  -30.4915  -15.0777   20.4024 C   0  0  0  0  0  0
  -30.4453  -12.6724   19.5259 C   0  0  0  0  0  0
  -29.5460  -12.5576   18.2743 C   0  0  0  0  0  0
  -28.0758  -12.3307   18.6745 C   0  0  0  0  0  0
  -27.6264  -13.2636   19.8301 C   0  0  2  0  0  0
  -28.6603  -13.3435   20.9740 C   0  0  0  0  0  0
  -25.2454  -13.8224   20.5708 C   0  0  0  0  0  0
  -24.1782  -13.0463   20.9247 C   0  0  0  0  0  0
  -24.6402  -11.6940   20.8769 C   0  0  0  0  0  0
  -23.9061  -10.4306   21.0410 C   0  0  0  0  0  0
  -24.3586   -9.4202   21.9183 C   0  0  0  0  0  0
  -23.6266   -8.2232   22.0748 C   0  0  0  0  0  0
  -22.4244   -8.0276   21.3541 C   0  0  0  0  0  0
  -21.9881   -9.0257   20.4658 C   0  0  0  0  0  0
  -22.7220  -10.2137   20.3067 C   0  0  0  0  0  0
  -21.6866   -6.0711   22.5276 C   0  0  0  0  0  0
  -21.4035   -6.5620   23.8206 C   0  0  0  0  0  0
  -21.3665   -5.6772   24.9171 C   0  0  0  0  0  0
  -21.6026   -4.3032   24.7237 C   0  0  0  0  0  0
  -21.8820   -3.8122   23.4361 C   0  0  0  0  0  0
  -21.9196   -4.6934   22.3413 C   0  0  0  0  0  0
  -22.7792  -13.5249   21.1860 C   0  0  0  0  0  0
  -22.1656   -4.2114   21.0992 F   0  0  0  0  0  0
  -21.5622   -3.4524   25.7748 F   0  0  0  0  0  0
  -29.9259  -13.7912   20.3784 N   0  0  0  0  0  0
  -26.2872  -12.9478   20.3194 N   0  0  0  0  0  0
  -25.9341  -11.6598   20.5693 N   0  0  0  0  0  0
  -22.0378  -12.8330   22.0439 N   0  0  0  0  0  0
  -25.4120  -15.1933   20.4085 N   0  0  0  0  0  0
  -31.6942  -15.1302   20.1056 O   0  0  0  0  0  0
  -21.6632   -6.8845   21.4226 O   0  0  0  0  0  0
  -22.3504  -14.5531   20.6640 O   0  0  0  0  0  0
  -24.6501  -31.8352   23.1797 C   0  0  0  0  0  0
  -25.9241  -32.4653   23.8212 C   0  0  1  0  0  0
  -27.2162  -27.0432   20.1650 C   0  0  0  0  0  0
  -25.5957  -33.8467   24.2141 N   0  0  0  0  0  0
  -23.4621  -30.4479   21.5280 C   0  0  2  0  0  0
  -24.9173  -28.8575   20.1125 C   0  0  0  0  0  0
  -22.7610  -29.4486   22.4820 C   0  0  0  0  0  0
  -18.0315  -28.1420   22.8476 C   0  0  0  0  0  0
  -24.1500  -36.7235   23.2647 C   0  0  0  0  0  0
  -26.0265  -30.6678   21.4068 C   0  0  0  0  0  0
  -26.0943  -29.2713   20.7504 C   0  0  0  0  0  0
  -27.2432  -28.3781   20.7642 C   0  0  0  0  0  0
  -26.0272  -26.7670   19.4563 C   0  0  0  0  0  0
  -24.8986  -27.6185   19.4523 C   0  0  0  0  0  0
  -23.6981  -29.7698   20.1519 C   0  0  0  0  0  0
  -25.4149  -36.3030   24.0315 C   0  0  1  0  0  0
  -20.5940  -28.3756   23.1222 C   0  0  2  0  0  0
  -20.6826  -26.9456   22.5417 C   0  0  0  0  0  0
  -19.5810  -26.6395   21.5234 C   0  0  0  0  0  0
  -18.1971  -26.7946   22.1619 C   0  0  0  0  0  0
  -19.1572  -28.8905   23.2833 C   0  0  0  0  0  0
  -18.9491  -30.1488   23.8882 C   0  0  0  0  0  0
  -17.6486  -30.6622   24.0556 C   0  0  0  0  0  0
  -25.9100  -34.9398   23.5059 C   0  0  0  0  0  0
  -16.5377  -29.9116   23.6358 C   0  0  0  0  0  0
  -16.7287  -28.6529   23.0383 C   0  0  0  0  0  0
  -26.4524  -31.6553   25.0700 C   0  0  0  0  0  0
  -25.3610  -31.3860   26.1331 C   0  0  0  0  0  0
  -27.0442  -30.2917   24.6440 C   0  0  0  0  0  0
  -27.6050  -32.4322   25.7471 C   0  0  0  0  0  0
  -27.5609  -37.1777   24.8469 C   0  0  0  0  0  0
  -21.4292  -29.3039   22.3561 N   0  0  0  0  0  0
  -26.4324  -37.3743   23.9408 N   0  0  0  0  0  0
  -24.7330  -31.0068   22.0923 N   0  0  0  0  0  0
  -23.4190  -28.8040   23.3032 O   0  0  0  0  0  0
  -28.2236  -25.9808   20.2014 O   0  0  0  0  0  0
  -26.5698  -34.8901   22.4649 O   0  0  0  0  0  0
  -23.5584  -32.1305   23.6923 O   0  0  0  0  0  0
  -27.0866  -24.1907   21.6219 C   0  0  0  0  0  0
  -28.0124  -24.5448   20.5997 C   0  0  0  0  0  0
  -28.5374  -22.0742   20.6126 C   0  0  0  0  0  0
  -27.8755  -18.6566   19.7641 C   0  0  0  0  0  0
  -28.9499  -17.9874   18.8777 C   0  0  0  0  0  0
  -28.9968  -19.2504   20.6220 C   0  0  1  0  0  0
  -29.8690  -17.8389   20.1005 C   0  0  1  0  0  0
  -26.2397  -25.2050   22.3755 C   0  0  0  0  0  0
  -26.9130  -22.9081   22.0486 N   0  0  0  0  0  0
  -28.7614  -23.3973   20.1201 N   0  0  0  0  0  0
  -27.6156  -21.8748   21.5593 N   0  0  0  0  0  0
  -29.2149  -20.7859   20.2103 N   0  0  0  0  0  0
  -29.7069  -16.2872   20.5542 N   0  0  0  0  0  0
  -31.4796  -12.8398   19.2199 H   0  0  0  0  0  0
  -30.4500  -11.7349   20.0836 H   0  0  0  0  0  0
  -29.8924  -11.7416   17.6373 H   0  0  0  0  0  0
  -29.6345  -13.4711   17.6809 H   0  0  0  0  0  0
  -27.9764  -11.2903   18.9806 H   0  0  0  0  0  0
  -27.4262  -12.4510   17.8056 H   0  0  0  0  0  0
  -27.5743  -14.2569   19.3862 H   0  0  0  0  0  0
  -28.7701  -12.3842   21.4822 H   0  0  0  0  0  0
  -28.3275  -14.0587   21.7284 H   0  0  0  0  0  0
  -25.2707   -9.5701   22.4787 H   0  0  0  0  0  0
  -23.9972   -7.4624   22.7494 H   0  0  0  0  0  0
  -21.0786   -8.8783   19.9006 H   0  0  0  0  0  0
  -22.3642  -10.9664   19.6196 H   0  0  0  0  0  0
  -21.2038   -7.6122   23.9721 H   0  0  0  0  0  0
  -21.1486   -6.0487   25.9069 H   0  0  0  0  0  0
  -22.0599   -2.7587   23.2876 H   0  0  0  0  0  0
  -22.3932  -12.0067   22.4988 H   0  0  0  0  0  0
  -21.1001  -13.1457   22.2532 H   0  0  0  0  0  0
  -24.6256  -15.8311   20.4581 H   0  0  0  0  0  0
  -26.2304  -15.6138   19.9906 H   0  0  0  0  0  0
  -26.7284  -32.5203   23.0900 H   0  0  0  0  0  0
  -25.0038  -33.9580   25.0243 H   0  0  0  0  0  0
  -22.7683  -31.2763   21.3646 H   0  0  0  0  0  0
  -23.3814  -35.9517   23.3290 H   0  0  0  0  0  0
  -24.3582  -36.8888   22.2069 H   0  0  0  0  0  0
  -23.7195  -37.6402   23.6684 H   0  0  0  0  0  0
  -26.2061  -31.4162   20.6340 H   0  0  0  0  0  0
  -26.8862  -30.7081   22.0643 H   0  0  0  0  0  0
  -28.1384  -28.6801   21.2898 H   0  0  0  0  0  0
  -25.9393  -25.8218   18.9389 H   0  0  0  0  0  0
  -24.0028  -27.3014   18.9361 H   0  0  0  0  0  0
  -23.8398  -30.5409   19.3933 H   0  0  0  0  0  0
  -22.8097  -29.2153   19.8440 H   0  0  0  0  0  0
  -25.1344  -36.1868   25.0809 H   0  0  0  0  0  0
  -21.0021  -28.3370   24.1349 H   0  0  0  0  0  0
  -20.5806  -26.2358   23.3640 H   0  0  0  0  0  0
  -21.6684  -26.7515   22.1173 H   0  0  0  0  0  0
  -19.7009  -25.6302   21.1293 H   0  0  0  0  0  0
  -19.6774  -27.3186   20.6753 H   0  0  0  0  0  0
  -17.4260  -26.6684   21.4001 H   0  0  0  0  0  0
  -18.0358  -26.0098   22.9025 H   0  0  0  0  0  0
  -19.7963  -30.7293   24.2265 H   0  0  0  0  0  0
  -17.5055  -31.6314   24.5137 H   0  0  0  0  0  0
  -15.5385  -30.3026   23.7719 H   0  0  0  0  0  0
  -15.8664  -28.0845   22.7151 H   0  0  0  0  0  0
  -24.5667  -30.7410   25.7547 H   0  0  0  0  0  0
  -24.8969  -32.3141   26.4685 H   0  0  0  0  0  0
  -25.7712  -30.8936   27.0154 H   0  0  0  0  0  0
  -26.3146  -29.6548   24.1428 H   0  0  0  0  0  0
  -27.3989  -29.7308   25.5105 H   0  0  0  0  0  0
  -27.9056  -30.4150   23.9870 H   0  0  0  0  0  0
  -27.2640  -33.3592   26.2087 H   0  0  0  0  0  0
  -28.3808  -32.6934   25.0260 H   0  0  0  0  0  0
  -28.0778  -31.8435   26.5345 H   0  0  0  0  0  0
  -28.2606  -38.0095   24.7544 H   0  0  0  0  0  0
  -28.1126  -36.2628   24.6264 H   0  0  0  0  0  0
  -27.2314  -37.1364   25.8865 H   0  0  0  0  0  0
  -20.9526  -29.8663   21.6644 H   0  0  0  0  0  0
  -26.0209  -38.2820   24.1404 H   0  0  0  0  0  0
  -27.2661  -17.9428   20.3205 H   0  0  0  0  0  0
  -27.2424  -19.3751   19.2403 H   0  0  0  0  0  0
  -29.3556  -18.6610   18.1227 H   0  0  0  0  0  0
  -28.6282  -17.0486   18.4247 H   0  0  0  0  0  0
  -28.7504  -19.2002   21.6841 H   0  0  0  0  0  0
  -30.9071  -18.0826   19.8690 H   0  0  0  0  0  0
  -25.4656  -25.6175   21.7330 H   0  0  0  0  0  0
  -26.8551  -26.0199   22.7563 H   0  0  0  0  0  0
  -25.7276  -24.7496   23.2247 H   0  0  0  0  0  0
  -29.8531  -20.9165   19.4354 H   0  0  0  0  0  0
  -28.7635  -16.0655   20.8355 H   0  0  0  0  0  0
  1 25  1  0  0  0
  1 30  2  0  0  0
  1 83  1  0  0  0
  2  3  1  0  0  0
  2 25  1  0  0  0
  2 84  1  0  0  0
  2 85  1  0  0  0
  3  4  1  0  0  0
  3 86  1  0  0  0
  3 87  1  0  0  0
  4  5  1  0  0  0
  4 88  1  0  0  0
  4 89  1  0  0  0
  5  6  1  0  0  0
  5 26  1  0  0  0
  5 90  1  0  0  0
  6 25  1  0  0  0
  6 91  1  0  0  0
  6 92  1  0  0  0
  7  8  2  0  0  0
  7 26  1  0  0  0
  7 29  1  0  0  0
  8  9  1  0  0  0
  8 22  1  0  0  0
  9 10  1  0  0  0
  9 27  2  0  0  0
 10 11  2  0  0  0
 10 15  1  0  0  0
 11 12  1  0  0  0
 11 93  1  0  0  0
 12 13  2  0  0  0
 12 94  1  0  0  0
 13 14  1  0  0  0
 13 31  1  0  0  0
 14 15  2  0  0  0
 14 95  1  0  0  0
 15 96  1  0  0  0
 16 17  2  0  0  0
 16 21  1  0  0  0
 16 31  1  0  0  0
 17 18  1  0  0  0
 17 97  1  0  0  0
 18 19  2  0  0  0
 18 98  1  0  0  0
 19 20  1  0  0  0
 19 24  1  0  0  0
 20 21  2  0  0  0
 20 99  1  0  0  0
 21 23  1  0  0  0
 22 28  1  0  0  0
 22 32  2  0  0  0
 26 27  1  0  0  0
 28100  1  0  0  0
 28101  1  0  0  0
 29102  1  0  0  0
 29103  1  0  0  0
 33 34  1  0  0  0
 33 66  1  0  0  0
 33 70  2  0  0  0
 34 36  1  0  0  0
 34 59  1  0  0  0
 34104  1  0  0  0
 35 44  2  0  0  0
 35 45  1  0  0  0
 35 68  1  0  0  0
 36 56  1  0  0  0
 36105  1  0  0  0
 37 39  1  0  0  0
 37 47  1  0  0  0
 37 66  1  0  0  0
 37106  1  0  0  0
 38 43  2  0  0  0
 38 46  1  0  0  0
 38 47  1  0  0  0
 39 64  1  0  0  0
 39 67  2  0  0  0
 40 52  1  0  0  0
 40 53  2  0  0  0
 40 58  1  0  0  0
 41107  1  0  0  0
 41108  1  0  0  0
 41109  1  0  0  0
 41 48  1  0  0  0
 42 43  1  0  0  0
 42 66  1  0  0  0
 42110  1  0  0  0
 42111  1  0  0  0
 43 44  1  0  0  0
 44112  1  0  0  0
 45 46  2  0  0  0
 45113  1  0  0  0
 46114  1  0  0  0
 47115  1  0  0  0
 47116  1  0  0  0
 48 56  1  0  0  0
 48 65  1  0  0  0
 48117  1  0  0  0
 49 50  1  0  0  0
 49 53  1  0  0  0
 49 64  1  0  0  0
 49118  1  0  0  0
 50 51  1  0  0  0
 50119  1  0  0  0
 50120  1  0  0  0
 51 52  1  0  0  0
 51121  1  0  0  0
 51122  1  0  0  0
 52123  1  0  0  0
 52124  1  0  0  0
 53 54  1  0  0  0
 54 55  2  0  0  0
 54125  1  0  0  0
 55 57  1  0  0  0
 55126  1  0  0  0
 56 69  2  0  0  0
 57 58  2  0  0  0
 57127  1  0  0  0
 58128  1  0  0  0
 59 60  1  0  0  0
 59 61  1  0  0  0
 59 62  1  0  0  0
 60129  1  0  0  0
 60130  1  0  0  0
 60131  1  0  0  0
 61132  1  0  0  0
 61133  1  0  0  0
 61134  1  0  0  0
 62135  1  0  0  0
 62136  1  0  0  0
 62137  1  0  0  0
 63 65  1  0  0  0
 63138  1  0  0  0
 63139  1  0  0  0
 63140  1  0  0  0
 64141  1  0  0  0
 65142  1  0  0  0
 68 72  1  0  0  0
 71 72  2  0  0  0
 71 78  1  0  0  0
 71 79  1  0  0  0
 72 80  1  0  0  0
 73 80  2  0  0  0
 73 81  1  0  0  0
 73 82  1  0  0  0
 74 75  1  0  0  0
 74 76  1  0  0  0
 74143  1  0  0  0
 74144  1  0  0  0
 75 77  1  0  0  0
 75145  1  0  0  0
 75146  1  0  0  0
 76 77  1  0  0  0
 76 82  1  0  0  0
 76147  1  0  0  0
 77 83  1  0  0  0
 77148  1  0  0  0
 78149  1  0  0  0
 78150  1  0  0  0
 78151  1  0  0  0
 79 81  2  0  0  0
 82152  1  0  0  0
 83153  1  0  0  0
M  ISO  4   1 100  68 101  72 101  83 100
M  END
> <chiral flag>
0

> <version>
0

> <s_m_source_file>
/data/baiqing/PycharmProjects/Reinvent-master-3.2/result/LINK_invent/BTK/process_docking_weight1_custom_sum_contain_oxygen_bond_distance_aromatic_linkinvent_7_9_3/rearranged_h_0180.sdf

> <i_m_source_file_index>
20

> <r_mmod_Potential_Energy-OPLS-2005>
598.388854980469

> <r_mmod_Stretch_Energy-OPLS-2005>
361.010925292969

> <r_mmod_Bend_Energy-OPLS-2005>
335.623687744141

> <r_mmod_Torsional_Energy-OPLS-2005>
246.423461914062

> <r_mmod_Improper_Torsional_Energy-OPLS-2005>
5.98356866836548

> <r_mmod_Van_der_Waal_Energy-OPLS-2005>
132.683990478516

> <r_mmod_Electrostatic_Energy-OPLS-2005>
-542.3974609375

> <r_mmod_Solvation_Energy-OPLS-2005>
-235.931701660156

> <b_mmod_Minimization_Converged-OPLS-2005>
0

> <r_mmod_RMS_Derivative-OPLS-2005>
3.89373445510864

$$$$
20
                    3D
 Structure written by MMmdl.
149158  0  0  1  0            999 V2000
  -30.3814  -15.5811   20.3300 C   0  0  0  0  0  0
  -30.4084  -13.0470   19.5290 C   0  0  0  0  0  0
  -29.5380  -12.6352   18.3121 C   0  0  0  0  0  0
  -28.1084  -12.2980   18.7577 C   0  0  0  0  0  0
  -27.5890  -13.3102   19.8052 C   0  0  2  0  0  0
  -28.6084  -13.6534   20.9174 C   0  0  0  0  0  0
  -25.2300  -13.8300   20.5809 C   0  0  0  0  0  0
  -24.1696  -13.0441   20.9299 C   0  0  0  0  0  0
  -24.6400  -11.6952   20.8774 C   0  0  0  0  0  0
  -23.9113  -10.4295   21.0403 C   0  0  0  0  0  0
  -24.3651   -9.4205   21.9180 C   0  0  0  0  0  0
  -23.6312   -8.2248   22.0755 C   0  0  0  0  0  0
  -22.4291   -8.0290   21.3549 C   0  0  0  0  0  0
  -21.9933   -9.0268   20.4652 C   0  0  0  0  0  0
  -22.7278  -10.2138   20.3056 C   0  0  0  0  0  0
  -21.6857   -6.0740   22.5279 C   0  0  0  0  0  0
  -21.4021   -6.5643   23.8213 C   0  0  0  0  0  0
  -21.3663   -5.6796   24.9174 C   0  0  0  0  0  0
  -21.6043   -4.3058   24.7224 C   0  0  0  0  0  0
  -21.8817   -3.8151   23.4346 C   0  0  0  0  0  0
  -21.9192   -4.6967   22.3401 C   0  0  0  0  0  0
  -22.7708  -13.5166   21.1929 C   0  0  0  0  0  0
  -22.1658   -4.2153   21.0979 F   0  0  0  0  0  0
  -21.5624   -3.4542   25.7737 F   0  0  0  0  0  0
  -29.7834  -14.2526   20.2434 N   0  0  0  0  0  0
  -26.2740  -12.9634   20.3232 N   0  0  0  0  0  0
  -25.9343  -11.6703   20.5711 N   0  0  0  0  0  0
  -22.0371  -12.8147   22.0481 N   0  0  0  0  0  0
  -25.3891  -15.2041   20.4252 N   0  0  0  0  0  0
  -31.6148  -15.4265   20.2281 O   0  0  0  0  0  0
  -21.6647   -6.8890   21.4244 O   0  0  0  0  0  0
  -22.3385  -14.5461   20.6760 O   0  0  0  0  0  0
  -24.6826  -31.8018   23.1532 C   0  0  0  0  0  0
  -25.9413  -32.4476   23.8074 C   0  0  1  0  0  0
  -27.2198  -26.7207   20.2073 C   0  0  0  0  0  0
  -25.5995  -33.8301   24.1956 N   0  0  0  0  0  0
  -23.5075  -30.4060   21.5068 C   0  0  2  0  0  0
  -24.9625  -28.7505   20.1185 C   0  0  0  0  0  0
  -22.7761  -29.4330   22.4712 C   0  0  0  0  0  0
  -18.0340  -28.1420   22.8452 C   0  0  0  0  0  0
  -24.1494  -36.7160   23.2656 C   0  0  0  0  0  0
  -26.0880  -30.5401   21.4154 C   0  0  0  0  0  0
  -26.1529  -29.1075   20.7632 C   0  0  0  0  0  0
  -27.2694  -28.1208   20.7737 C   0  0  0  0  0  0
  -25.9961  -26.5688   19.5087 C   0  0  0  0  0  0
  -24.9216  -27.5059   19.4682 C   0  0  0  0  0  0
  -23.7601  -29.7055   20.1413 C   0  0  0  0  0  0
  -25.4146  -36.2902   24.0280 C   0  0  1  0  0  0
  -20.5976  -28.3782   23.1140 C   0  0  2  0  0  0
  -20.6807  -26.9440   22.5405 C   0  0  0  0  0  0
  -19.5784  -26.6365   21.5218 C   0  0  0  0  0  0
  -18.1967  -26.7946   22.1621 C   0  0  0  0  0  0
  -19.1607  -28.8925   23.2777 C   0  0  0  0  0  0
  -18.9512  -30.1508   23.8823 C   0  0  0  0  0  0
  -17.6503  -30.6604   24.0548 C   0  0  0  0  0  0
  -25.9123  -34.9290   23.4952 C   0  0  0  0  0  0
  -16.5393  -29.9086   23.6349 C   0  0  0  0  0  0
  -16.7319  -28.6508   23.0365 C   0  0  0  0  0  0
  -26.4584  -31.6511   25.0696 C   0  0  0  0  0  0
  -25.3644  -31.3834   26.1307 C   0  0  0  0  0  0
  -27.0519  -30.2848   24.6603 C   0  0  0  0  0  0
  -27.6027  -32.4375   25.7521 C   0  0  0  0  0  0
  -27.5558  -37.1747   24.8469 C   0  0  0  0  0  0
  -21.4411  -29.3035   22.3464 N   0  0  0  0  0  0
  -26.4277  -37.3656   23.9395 N   0  0  0  0  0  0
  -24.7828  -30.9482   22.0775 N   0  0  0  0  0  0
  -23.4213  -28.7925   23.3047 O   0  0  0  0  0  0
  -28.1806  -25.5066   20.2580 O   0  0  0  0  0  0
  -26.5763  -34.8863   22.4569 O   0  0  0  0  0  0
  -23.5848  -32.1084   23.6496 O   0  0  0  0  0  0
  -31.0040  -21.1107   19.9714 C   0  0  0  0  0  0
  -30.2947  -22.3765   19.9812 C   0  0  0  0  0  0
  -30.2015  -20.0111   20.1730 C   0  0  0  0  0  0
  -28.9377  -22.2749   20.1946 C   0  0  0  0  0  0
  -30.6640  -18.3848   20.2961 C   0  0  0  0  0  0
  -28.0124  -19.4296   20.5474 C   0  0  0  0  0  0
  -28.4279  -17.7733   20.1961 C   0  0  0  0  0  0
  -27.8733  -23.7867   20.2261 C   0  0  0  0  0  0
  -28.9259  -20.6590   20.2891 N   0  0  0  0  0  0
  -29.8120  -17.0402   20.3409 N   0  0  0  0  0  0
  -31.4115  -13.2729   19.1663 H   0  0  0  0  0  0
  -30.5411  -12.2067   20.2124 H   0  0  0  0  0  0
  -29.9820  -11.7848   17.7926 H   0  0  0  0  0  0
  -29.5141  -13.4561   17.5940 H   0  0  0  0  0  0
  -28.1233  -11.2980   19.1931 H   0  0  0  0  0  0
  -27.4385  -12.2502   17.8981 H   0  0  0  0  0  0
  -27.4478  -14.2297   19.2353 H   0  0  0  0  0  0
  -28.8594  -12.7801   21.5212 H   0  0  0  0  0  0
  -28.1834  -14.3903   21.6009 H   0  0  0  0  0  0
  -25.2788   -9.5680   22.4770 H   0  0  0  0  0  0
  -24.0012   -7.4636   22.7476 H   0  0  0  0  0  0
  -21.0857   -8.8801   19.8962 H   0  0  0  0  0  0
  -22.3730  -10.9685   19.6180 H   0  0  0  0  0  0
  -21.2023   -7.6154   23.9719 H   0  0  0  0  0  0
  -21.1483   -6.0525   25.9078 H   0  0  0  0  0  0
  -22.0591   -2.7611   23.2843 H   0  0  0  0  0  0
  -22.4005  -11.9831   22.4896 H   0  0  0  0  0  0
  -21.0984  -13.1159   22.2681 H   0  0  0  0  0  0
  -24.6170  -15.8515   20.5412 H   0  0  0  0  0  0
  -26.2314  -15.6463   20.0829 H   0  0  0  0  0  0
  -26.7498  -32.4944   23.0790 H   0  0  0  0  0  0
  -25.0045  -33.9339   25.0043 H   0  0  0  0  0  0
  -22.8322  -31.2431   21.3190 H   0  0  0  0  0  0
  -23.3762  -35.9485   23.3297 H   0  0  0  0  0  0
  -24.3556  -36.8842   22.2075 H   0  0  0  0  0  0
  -23.7256  -37.6337   23.6747 H   0  0  0  0  0  0
  -26.2935  -31.2681   20.6295 H   0  0  0  0  0  0
  -26.9379  -30.6031   22.0826 H   0  0  0  0  0  0
  -28.1678  -28.4012   21.3051 H   0  0  0  0  0  0
  -25.8297  -25.6286   19.0031 H   0  0  0  0  0  0
  -24.0224  -27.2255   18.9370 H   0  0  0  0  0  0
  -23.9371  -30.4664   19.3803 H   0  0  0  0  0  0
  -22.8644  -29.1737   19.8161 H   0  0  0  0  0  0
  -25.1361  -36.1670   25.0772 H   0  0  0  0  0  0
  -21.0057  -28.3410   24.1267 H   0  0  0  0  0  0
  -20.5672  -26.2408   23.3669 H   0  0  0  0  0  0
  -21.6669  -26.7384   22.1227 H   0  0  0  0  0  0
  -19.6943  -25.6253   21.1306 H   0  0  0  0  0  0
  -19.6728  -27.3125   20.6707 H   0  0  0  0  0  0
  -17.4235  -26.6680   21.4026 H   0  0  0  0  0  0
  -18.0360  -26.0109   22.9038 H   0  0  0  0  0  0
  -19.7988  -30.7343   24.2161 H   0  0  0  0  0  0
  -17.5054  -31.6277   24.5164 H   0  0  0  0  0  0
  -15.5390  -30.2966   23.7714 H   0  0  0  0  0  0
  -15.8719  -28.0803   22.7122 H   0  0  0  0  0  0
  -24.5834  -30.7184   25.7600 H   0  0  0  0  0  0
  -24.8829  -32.3063   26.4551 H   0  0  0  0  0  0
  -25.7809  -30.9105   27.0209 H   0  0  0  0  0  0
  -26.3235  -29.6457   24.1602 H   0  0  0  0  0  0
  -27.3944  -29.7305   25.5352 H   0  0  0  0  0  0
  -27.9216  -30.3969   24.0128 H   0  0  0  0  0  0
  -27.2550  -33.3729   26.1917 H   0  0  0  0  0  0
  -28.3932  -32.6857   25.0428 H   0  0  0  0  0  0
  -28.0591  -31.8635   26.5593 H   0  0  0  0  0  0
  -28.2572  -38.0043   24.7475 H   0  0  0  0  0  0
  -28.1057  -36.2565   24.6351 H   0  0  0  0  0  0
  -27.2266  -37.1451   25.8871 H   0  0  0  0  0  0
  -20.9711  -29.8694   21.6535 H   0  0  0  0  0  0
  -26.0106  -38.2710   24.1381 H   0  0  0  0  0  0
  -32.0739  -21.0225   19.8312 H   0  0  0  0  0  0
  -30.7764  -23.3349   19.8397 H   0  0  0  0  0  0
  -31.2976  -18.3199   21.1807 H   0  0  0  0  0  0
  -31.3627  -18.2143   19.4759 H   0  0  0  0  0  0
  -27.7750  -19.4699   21.6106 H   0  0  0  0  0  0
  -27.0638  -19.6394   20.0515 H   0  0  0  0  0  0
  -28.1644  -17.6224   19.1485 H   0  0  0  0  0  0
  -27.7146  -17.1539   20.7391 H   0  0  0  0  0  0
  -27.2083  -23.6457   21.0781 H   0  0  0  0  0  0
  -27.2082  -23.6748   19.3702 H   0  0  0  0  0  0
  1 25  1  0  0  0
  1 30  2  0  0  0
  1 80  1  0  0  0
  2  3  1  0  0  0
  2 25  1  0  0  0
  2 81  1  0  0  0
  2 82  1  0  0  0
  3  4  1  0  0  0
  3 83  1  0  0  0
  3 84  1  0  0  0
  4  5  1  0  0  0
  4 85  1  0  0  0
  4 86  1  0  0  0
  5  6  1  0  0  0
  5 26  1  0  0  0
  5 87  1  0  0  0
  6 25  1  0  0  0
  6 88  1  0  0  0
  6 89  1  0  0  0
  7  8  2  0  0  0
  7 26  1  0  0  0
  7 29  1  0  0  0
  8  9  1  0  0  0
  8 22  1  0  0  0
  9 10  1  0  0  0
  9 27  2  0  0  0
 10 11  2  0  0  0
 10 15  1  0  0  0
 11 12  1  0  0  0
 11 90  1  0  0  0
 12 13  2  0  0  0
 12 91  1  0  0  0
 13 14  1  0  0  0
 13 31  1  0  0  0
 14 15  2  0  0  0
 14 92  1  0  0  0
 15 93  1  0  0  0
 16 17  2  0  0  0
 16 21  1  0  0  0
 16 31  1  0  0  0
 17 18  1  0  0  0
 17 94  1  0  0  0
 18 19  2  0  0  0
 18 95  1  0  0  0
 19 20  1  0  0  0
 19 24  1  0  0  0
 20 21  2  0  0  0
 20 96  1  0  0  0
 21 23  1  0  0  0
 22 28  1  0  0  0
 22 32  2  0  0  0
 26 27  1  0  0  0
 28 97  1  0  0  0
 28 98  1  0  0  0
 29 99  1  0  0  0
 29100  1  0  0  0
 33 34  1  0  0  0
 33 66  1  0  0  0
 33 70  2  0  0  0
 34 36  1  0  0  0
 34 59  1  0  0  0
 34101  1  0  0  0
 35 44  2  0  0  0
 35 45  1  0  0  0
 35 68  1  0  0  0
 36 56  1  0  0  0
 36102  1  0  0  0
 37 39  1  0  0  0
 37 47  1  0  0  0
 37 66  1  0  0  0
 37103  1  0  0  0
 38 43  2  0  0  0
 38 46  1  0  0  0
 38 47  1  0  0  0
 39 64  1  0  0  0
 39 67  2  0  0  0
 40 52  1  0  0  0
 40 53  2  0  0  0
 40 58  1  0  0  0
 41104  1  0  0  0
 41105  1  0  0  0
 41106  1  0  0  0
 41 48  1  0  0  0
 42 43  1  0  0  0
 42 66  1  0  0  0
 42107  1  0  0  0
 42108  1  0  0  0
 43 44  1  0  0  0
 44109  1  0  0  0
 45 46  2  0  0  0
 45110  1  0  0  0
 46111  1  0  0  0
 47112  1  0  0  0
 47113  1  0  0  0
 48 56  1  0  0  0
 48 65  1  0  0  0
 48114  1  0  0  0
 49 50  1  0  0  0
 49 53  1  0  0  0
 49 64  1  0  0  0
 49115  1  0  0  0
 50 51  1  0  0  0
 50116  1  0  0  0
 50117  1  0  0  0
 51 52  1  0  0  0
 51118  1  0  0  0
 51119  1  0  0  0
 52120  1  0  0  0
 52121  1  0  0  0
 53 54  1  0  0  0
 54 55  2  0  0  0
 54122  1  0  0  0
 55 57  1  0  0  0
 55123  1  0  0  0
 56 69  2  0  0  0
 57 58  2  0  0  0
 57124  1  0  0  0
 58125  1  0  0  0
 59 60  1  0  0  0
 59 61  1  0  0  0
 59 62  1  0  0  0
 60126  1  0  0  0
 60127  1  0  0  0
 60128  1  0  0  0
 61129  1  0  0  0
 61130  1  0  0  0
 61131  1  0  0  0
 62132  1  0  0  0
 62133  1  0  0  0
 62134  1  0  0  0
 63 65  1  0  0  0
 63135  1  0  0  0
 63136  1  0  0  0
 63137  1  0  0  0
 64138  1  0  0  0
 65139  1  0  0  0
 68 78  1  0  0  0
 71 72  1  0  0  0
 71 73  2  0  0  0
 71140  1  0  0  0
 72 74  2  0  0  0
 72141  1  0  0  0
 73 75  1  0  0  0
 73 79  1  0  0  0
 74 78  1  0  0  0
 74 79  1  0  0  0
 75 80  1  0  0  0
 75142  1  0  0  0
 75143  1  0  0  0
 76 77  1  0  0  0
 76 79  1  0  0  0
 76144  1  0  0  0
 76145  1  0  0  0
 77 80  1  0  0  0
 77146  1  0  0  0
 77147  1  0  0  0
 78148  1  0  0  0
 78149  1  0  0  0
M  ISO  4   1 100  68 101  78 101  80 100
M  END
> <chiral flag>
0

> <version>
0

> <s_m_source_file>
/data/baiqing/PycharmProjects/Reinvent-master-3.2/result/LINK_invent/BTK/process_docking_weight1_custom_sum_contain_oxygen_bond_distance_aromatic_linkinvent_7_9_3/rearranged_h_0180.sdf

> <i_m_source_file_index>
21

> <r_mmod_Potential_Energy-OPLS-2005>
2318.35424804688

> <r_mmod_Stretch_Energy-OPLS-2005>
893.359924316406

> <r_mmod_Bend_Energy-OPLS-2005>
708.16455078125

> <r_mmod_Torsional_Energy-OPLS-2005>
292.125366210938

> <r_mmod_Improper_Torsional_Energy-OPLS-2005>
4.63798570632935

> <r_mmod_Van_der_Waal_Energy-OPLS-2005>
110.483016967773

> <r_mmod_Electrostatic_Energy-OPLS-2005>
-300.208648681641

> <r_mmod_Solvation_Energy-OPLS-2005>
-223.226043701172

> <b_mmod_Minimization_Converged-OPLS-2005>
0

> <r_mmod_RMS_Derivative-OPLS-2005>
0.799474239349365

$$$$
21
                    3D
 Structure written by MMmdl.
156165  0  0  1  0            999 V2000
  -30.5528  -14.9554   20.4138 C   0  0  0  0  0  0
  -30.4459  -12.5933   19.5010 C   0  0  0  0  0  0
  -29.5271  -12.5275   18.2590 C   0  0  0  0  0  0
  -28.0619  -12.3086   18.6789 C   0  0  0  0  0  0
  -27.6338  -13.2473   19.8357 C   0  0  2  0  0  0
  -28.6758  -13.2892   20.9758 C   0  0  0  0  0  0
  -25.2492  -13.8215   20.5696 C   0  0  0  0  0  0
  -24.1798  -13.0444   20.9211 C   0  0  0  0  0  0
  -24.6402  -11.6921   20.8736 C   0  0  0  0  0  0
  -23.9076  -10.4294   21.0400 C   0  0  0  0  0  0
  -24.3622   -9.4212   21.9181 C   0  0  0  0  0  0
  -23.6302   -8.2243   22.0746 C   0  0  0  0  0  0
  -22.4274   -8.0281   21.3543 C   0  0  0  0  0  0
  -21.9907   -9.0254   20.4648 C   0  0  0  0  0  0
  -22.7245  -10.2133   20.3058 C   0  0  0  0  0  0
  -21.6853   -6.0735   22.5277 C   0  0  0  0  0  0
  -21.4026   -6.5645   23.8213 C   0  0  0  0  0  0
  -21.3655   -5.6787   24.9171 C   0  0  0  0  0  0
  -21.6032   -4.3047   24.7224 C   0  0  0  0  0  0
  -21.8817   -3.8151   23.4345 C   0  0  0  0  0  0
  -21.9196   -4.6965   22.3400 C   0  0  0  0  0  0
  -22.7818  -13.5220   21.1861 C   0  0  0  0  0  0
  -22.1667   -4.2151   21.0979 F   0  0  0  0  0  0
  -21.5627   -3.4534   25.7744 F   0  0  0  0  0  0
  -29.9539  -13.6970   20.3760 N   0  0  0  0  0  0
  -26.2914  -12.9444   20.3223 N   0  0  0  0  0  0
  -25.9338  -11.6566   20.5716 N   0  0  0  0  0  0
  -22.0459  -12.8221   22.0418 N   0  0  0  0  0  0
  -25.4173  -15.1942   20.4124 N   0  0  0  0  0  0
  -31.7558  -15.0135   20.1396 O   0  0  0  0  0  0
  -21.6640   -6.8878   21.4239 O   0  0  0  0  0  0
  -22.3503  -14.5524   20.6711 O   0  0  0  0  0  0
  -24.6448  -31.8432   23.1903 C   0  0  0  0  0  0
  -25.9218  -32.4692   23.8292 C   0  0  1  0  0  0
  -27.2206  -27.1272   20.1512 C   0  0  0  0  0  0
  -25.5967  -33.8498   24.2214 N   0  0  0  0  0  0
  -23.4488  -30.4669   21.5355 C   0  0  2  0  0  0
  -24.9008  -28.8945   20.1117 C   0  0  0  0  0  0
  -22.7581  -29.4556   22.4844 C   0  0  0  0  0  0
  -18.0310  -28.1410   22.8475 C   0  0  0  0  0  0
  -24.1491  -36.7246   23.2647 C   0  0  0  0  0  0
  -26.0076  -30.7152   21.3911 C   0  0  0  0  0  0
  -26.0792  -29.3262   20.7332 C   0  0  0  0  0  0
  -27.2404  -28.4603   20.7347 C   0  0  0  0  0  0
  -26.0131  -26.8051   19.4887 C   0  0  0  0  0  0
  -24.8827  -27.6479   19.4730 C   0  0  0  0  0  0
  -23.6791  -29.8008   20.1538 C   0  0  0  0  0  0
  -25.4123  -36.3033   24.0322 C   0  0  1  0  0  0
  -20.5926  -28.3736   23.1228 C   0  0  2  0  0  0
  -20.6798  -26.9436   22.5411 C   0  0  0  0  0  0
  -19.5774  -26.6395   21.5215 C   0  0  0  0  0  0
  -18.1950  -26.7945   22.1624 C   0  0  0  0  0  0
  -19.1568  -28.8892   23.2849 C   0  0  0  0  0  0
  -18.9479  -30.1480   23.8888 C   0  0  0  0  0  0
  -17.6475  -30.6596   24.0575 C   0  0  0  0  0  0
  -25.9073  -34.9401   23.5076 C   0  0  0  0  0  0
  -16.5367  -29.9100   23.6333 C   0  0  0  0  0  0
  -16.7295  -28.6526   23.0341 C   0  0  0  0  0  0
  -26.4542  -31.6552   25.0723 C   0  0  0  0  0  0
  -25.3724  -31.3728   26.1417 C   0  0  0  0  0  0
  -27.0405  -30.2954   24.6293 C   0  0  0  0  0  0
  -27.6092  -32.4303   25.7500 C   0  0  0  0  0  0
  -27.5569  -37.1789   24.8474 C   0  0  0  0  0  0
  -21.4272  -29.3056   22.3596 N   0  0  0  0  0  0
  -26.4291  -37.3741   23.9402 N   0  0  0  0  0  0
  -24.7210  -31.0296   22.0939 N   0  0  0  0  0  0
  -23.4217  -28.8090   23.2989 O   0  0  0  0  0  0
  -28.2647  -26.1257   20.2149 O   0  0  0  0  0  0
  -26.5652  -34.8898   22.4652 O   0  0  0  0  0  0
  -23.5569  -32.1307   23.7122 O   0  0  0  0  0  0
  -30.8011  -21.1513   20.2629 C   0  0  0  0  0  0
  -29.4686  -20.7009   20.3559 C   0  0  0  0  0  0
  -28.5209  -21.8495   20.3554 C   0  0  0  0  0  0
  -31.1306  -22.5281   20.1836 C   0  0  0  0  0  0
  -28.9111  -23.2866   20.2622 C   0  0  0  0  0  0
  -29.3593  -18.2913   19.1518 C   0  0  0  0  0  0
  -29.1818  -19.0638   20.4297 C   0  0  1  0  0  0
  -30.1101  -17.6559   20.3048 C   0  0  1  0  0  0
  -27.0379  -21.5295   20.4659 C   0  0  0  0  0  0
  -32.5848  -22.9468   20.0881 C   0  0  0  0  0  0
  -27.9072  -24.6025   20.1562 C   0  0  0  0  0  0
  -30.2343  -23.5494   20.1835 N   0  0  0  0  0  0
  -29.7752  -16.1444   20.5230 N   0  0  0  0  0  0
  -31.4795  -12.7493   19.1879 H   0  0  0  0  0  0
  -30.4414  -11.6459   20.0418 H   0  0  0  0  0  0
  -29.8514  -11.7276   17.5912 H   0  0  0  0  0  0
  -29.6106  -13.4555   17.6901 H   0  0  0  0  0  0
  -27.9666  -11.2708   19.0006 H   0  0  0  0  0  0
  -27.3969  -12.4287   17.8225 H   0  0  0  0  0  0
  -27.5972  -14.2458   19.3979 H   0  0  0  0  0  0
  -28.7629  -12.3224   21.4732 H   0  0  0  0  0  0
  -28.3733  -14.0050   21.7416 H   0  0  0  0  0  0
  -25.2761   -9.5712   22.4764 H   0  0  0  0  0  0
  -24.0013   -7.4643   22.7469 H   0  0  0  0  0  0
  -21.0841   -8.8787   19.8958 H   0  0  0  0  0  0
  -22.3701  -10.9676   19.6179 H   0  0  0  0  0  0
  -21.2025   -7.6152   23.9725 H   0  0  0  0  0  0
  -21.1475   -6.0514   25.9073 H   0  0  0  0  0  0
  -22.0599   -2.7619   23.2841 H   0  0  0  0  0  0
  -22.4073  -11.9913   22.4844 H   0  0  0  0  0  0
  -21.1076  -13.1272   22.2608 H   0  0  0  0  0  0
  -24.6456  -15.8437   20.5229 H   0  0  0  0  0  0
  -26.2527  -15.6317   20.0465 H   0  0  0  0  0  0
  -26.7278  -32.5302   23.1016 H   0  0  0  0  0  0
  -25.0107  -33.9616   25.0358 H   0  0  0  0  0  0
  -22.7514  -31.2941   21.3845 H   0  0  0  0  0  0
  -23.3750  -35.9585   23.3336 H   0  0  0  0  0  0
  -24.3569  -36.8848   22.2055 H   0  0  0  0  0  0
  -23.7262  -37.6460   23.6660 H   0  0  0  0  0  0
  -26.1636  -31.4669   20.6160 H   0  0  0  0  0  0
  -26.8780  -30.7677   22.0337 H   0  0  0  0  0  0
  -28.1369  -28.7890   21.2412 H   0  0  0  0  0  0
  -25.8979  -25.8606   18.9803 H   0  0  0  0  0  0
  -23.9861  -27.3160   18.9685 H   0  0  0  0  0  0
  -23.8234  -30.5796   19.4042 H   0  0  0  0  0  0
  -22.7908  -29.2525   19.8357 H   0  0  0  0  0  0
  -25.1316  -36.1868   25.0817 H   0  0  0  0  0  0
  -21.0018  -28.3338   24.1347 H   0  0  0  0  0  0
  -20.5697  -26.2348   23.3634 H   0  0  0  0  0  0
  -21.6665  -26.7450   22.1205 H   0  0  0  0  0  0
  -19.6933  -25.6299   21.1267 H   0  0  0  0  0  0
  -19.6709  -27.3191   20.6731 H   0  0  0  0  0  0
  -17.4216  -26.6684   21.4027 H   0  0  0  0  0  0
  -18.0354  -26.0101   22.9040 H   0  0  0  0  0  0
  -19.7950  -30.7304   24.2255 H   0  0  0  0  0  0
  -17.5025  -31.6261   24.5201 H   0  0  0  0  0  0
  -15.5367  -30.2998   23.7661 H   0  0  0  0  0  0
  -15.8696  -28.0849   22.7046 H   0  0  0  0  0  0
  -24.5899  -30.7094   25.7720 H   0  0  0  0  0  0
  -24.8908  -32.2895   26.4821 H   0  0  0  0  0  0
  -25.7992  -30.8896   27.0213 H   0  0  0  0  0  0
  -26.3002  -29.6667   24.1328 H   0  0  0  0  0  0
  -27.4062  -29.7271   25.4857 H   0  0  0  0  0  0
  -27.8902  -30.4212   23.9579 H   0  0  0  0  0  0
  -27.2715  -33.3624   26.2047 H   0  0  0  0  0  0
  -28.3909  -32.6827   25.0319 H   0  0  0  0  0  0
  -28.0753  -31.8435   26.5430 H   0  0  0  0  0  0
  -28.2618  -38.0054   24.7468 H   0  0  0  0  0  0
  -28.1032  -36.2579   24.6368 H   0  0  0  0  0  0
  -27.2275  -37.1528   25.8878 H   0  0  0  0  0  0
  -20.9480  -29.8764   21.6775 H   0  0  0  0  0  0
  -26.0159  -38.2816   24.1384 H   0  0  0  0  0  0
  -31.6000  -20.4207   20.2481 H   0  0  0  0  0  0
  -29.9715  -18.7489   18.3765 H   0  0  0  0  0  0
  -28.4743  -17.7862   18.7702 H   0  0  0  0  0  0
  -28.2429  -18.9228   20.9585 H   0  0  0  0  0  0
  -31.1779  -17.8656   20.3638 H   0  0  0  0  0  0
  -26.8011  -20.5717   20.0033 H   0  0  0  0  0  0
  -26.4237  -22.2803   19.9710 H   0  0  0  0  0  0
  -26.7349  -21.4858   21.5126 H   0  0  0  0  0  0
  -33.1849  -22.1716   19.6102 H   0  0  0  0  0  0
  -32.9930  -23.1219   21.0836 H   0  0  0  0  0  0
  -32.7015  -23.8620   19.5061 H   0  0  0  0  0  0
  -27.1349  -24.4470   20.9109 H   0  0  0  0  0  0
  -27.4223  -24.4401   19.1945 H   0  0  0  0  0  0
  -28.8020  -15.9669   20.7283 H   0  0  0  0  0  0
  1 25  1  0  0  0
  1 30  2  0  0  0
  1 83  1  0  0  0
  2  3  1  0  0  0
  2 25  1  0  0  0
  2 84  1  0  0  0
  2 85  1  0  0  0
  3  4  1  0  0  0
  3 86  1  0  0  0
  3 87  1  0  0  0
  4  5  1  0  0  0
  4 88  1  0  0  0
  4 89  1  0  0  0
  5  6  1  0  0  0
  5 26  1  0  0  0
  5 90  1  0  0  0
  6 25  1  0  0  0
  6 91  1  0  0  0
  6 92  1  0  0  0
  7  8  2  0  0  0
  7 26  1  0  0  0
  7 29  1  0  0  0
  8  9  1  0  0  0
  8 22  1  0  0  0
  9 10  1  0  0  0
  9 27  2  0  0  0
 10 11  2  0  0  0
 10 15  1  0  0  0
 11 12  1  0  0  0
 11 93  1  0  0  0
 12 13  2  0  0  0
 12 94  1  0  0  0
 13 14  1  0  0  0
 13 31  1  0  0  0
 14 15  2  0  0  0
 14 95  1  0  0  0
 15 96  1  0  0  0
 16 17  2  0  0  0
 16 21  1  0  0  0
 16 31  1  0  0  0
 17 18  1  0  0  0
 17 97  1  0  0  0
 18 19  2  0  0  0
 18 98  1  0  0  0
 19 20  1  0  0  0
 19 24  1  0  0  0
 20 21  2  0  0  0
 20 99  1  0  0  0
 21 23  1  0  0  0
 22 28  1  0  0  0
 22 32  2  0  0  0
 26 27  1  0  0  0
 28100  1  0  0  0
 28101  1  0  0  0
 29102  1  0  0  0
 29103  1  0  0  0
 33 34  1  0  0  0
 33 66  1  0  0  0
 33 70  2  0  0  0
 34 36  1  0  0  0
 34 59  1  0  0  0
 34104  1  0  0  0
 35 44  2  0  0  0
 35 45  1  0  0  0
 35 68  1  0  0  0
 36 56  1  0  0  0
 36105  1  0  0  0
 37 39  1  0  0  0
 37 47  1  0  0  0
 37 66  1  0  0  0
 37106  1  0  0  0
 38 43  2  0  0  0
 38 46  1  0  0  0
 38 47  1  0  0  0
 39 64  1  0  0  0
 39 67  2  0  0  0
 40 52  1  0  0  0
 40 53  2  0  0  0
 40 58  1  0  0  0
 41107  1  0  0  0
 41108  1  0  0  0
 41109  1  0  0  0
 41 48  1  0  0  0
 42 43  1  0  0  0
 42 66  1  0  0  0
 42110  1  0  0  0
 42111  1  0  0  0
 43 44  1  0  0  0
 44112  1  0  0  0
 45 46  2  0  0  0
 45113  1  0  0  0
 46114  1  0  0  0
 47115  1  0  0  0
 47116  1  0  0  0
 48 56  1  0  0  0
 48 65  1  0  0  0
 48117  1  0  0  0
 49 50  1  0  0  0
 49 53  1  0  0  0
 49 64  1  0  0  0
 49118  1  0  0  0
 50 51  1  0  0  0
 50119  1  0  0  0
 50120  1  0  0  0
 51 52  1  0  0  0
 51121  1  0  0  0
 51122  1  0  0  0
 52123  1  0  0  0
 52124  1  0  0  0
 53 54  1  0  0  0
 54 55  2  0  0  0
 54125  1  0  0  0
 55 57  1  0  0  0
 55126  1  0  0  0
 56 69  2  0  0  0
 57 58  2  0  0  0
 57127  1  0  0  0
 58128  1  0  0  0
 59 60  1  0  0  0
 59 61  1  0  0  0
 59 62  1  0  0  0
 60129  1  0  0  0
 60130  1  0  0  0
 60131  1  0  0  0
 61132  1  0  0  0
 61133  1  0  0  0
 61134  1  0  0  0
 62135  1  0  0  0
 62136  1  0  0  0
 62137  1  0  0  0
 63 65  1  0  0  0
 63138  1  0  0  0
 63139  1  0  0  0
 63140  1  0  0  0
 64141  1  0  0  0
 65142  1  0  0  0
 68 81  1  0  0  0
 71 72  2  0  0  0
 71 74  1  0  0  0
 71143  1  0  0  0
 72 73  1  0  0  0
 72 77  1  0  0  0
 73 75  2  0  0  0
 73 79  1  0  0  0
 74 80  1  0  0  0
 74 82  2  0  0  0
 75 81  1  0  0  0
 75 82  1  0  0  0
 76 77  1  0  0  0
 76 78  1  0  0  0
 76144  1  0  0  0
 76145  1  0  0  0
 77 78  1  0  0  0
 77146  1  0  0  0
 78 83  1  0  0  0
 78147  1  0  0  0
 79148  1  0  0  0
 79149  1  0  0  0
 79150  1  0  0  0
 80151  1  0  0  0
 80152  1  0  0  0
 80153  1  0  0  0
 81154  1  0  0  0
 81155  1  0  0  0
 83156  1  0  0  0
M  ISO  4   1 100  68 101  81 101  83 100
M  END
> <chiral flag>
0

> <version>
0

> <s_m_source_file>
/data/baiqing/PycharmProjects/Reinvent-master-3.2/result/LINK_invent/BTK/process_docking_weight1_custom_sum_contain_oxygen_bond_distance_aromatic_linkinvent_7_9_3/rearranged_h_0180.sdf

> <i_m_source_file_index>
22

> <r_mmod_Potential_Energy-OPLS-2005>
400.463073730469

> <r_mmod_Stretch_Energy-OPLS-2005>
277.507904052734

> <r_mmod_Bend_Energy-OPLS-2005>
238.264312744141

> <r_mmod_Torsional_Energy-OPLS-2005>
258.400329589844

> <r_mmod_Improper_Torsional_Energy-OPLS-2005>
5.3196702003479

> <r_mmod_Van_der_Waal_Energy-OPLS-2005>
131.608291625977

> <r_mmod_Electrostatic_Energy-OPLS-2005>
-470.549652099609

> <r_mmod_Solvation_Energy-OPLS-2005>
-239.958541870117

> <b_mmod_Minimization_Converged-OPLS-2005>
0

> <r_mmod_RMS_Derivative-OPLS-2005>
2.43247628211975

$$$$
22
                    3D
 Structure written by MMmdl.
164173  0  0  1  0            999 V2000
  -30.5934  -14.9199   20.4458 C   0  0  0  0  0  0
  -30.4358  -12.5828   19.4754 C   0  0  0  0  0  0
  -29.5133  -12.5169   18.2386 C   0  0  0  0  0  0
  -28.0527  -12.2754   18.6665 C   0  0  0  0  0  0
  -27.6233  -13.2085   19.8248 C   0  0  2  0  0  0
  -28.6768  -13.2486   20.9590 C   0  0  0  0  0  0
  -25.2417  -13.8062   20.5612 C   0  0  0  0  0  0
  -24.1743  -13.0364   20.9246 C   0  0  0  0  0  0
  -24.6335  -11.6847   20.8809 C   0  0  0  0  0  0
  -23.9009  -10.4260   21.0461 C   0  0  0  0  0  0
  -24.3569   -9.4172   21.9220 C   0  0  0  0  0  0
  -23.6242   -8.2211   22.0769 C   0  0  0  0  0  0
  -22.4231   -8.0256   21.3552 C   0  0  0  0  0  0
  -21.9869   -9.0229   20.4655 C   0  0  0  0  0  0
  -22.7197  -10.2108   20.3086 C   0  0  0  0  0  0
  -21.6836   -6.0727   22.5289 C   0  0  0  0  0  0
  -21.4006   -6.5634   23.8223 C   0  0  0  0  0  0
  -21.3663   -5.6783   24.9181 C   0  0  0  0  0  0
  -21.6044   -4.3047   24.7226 C   0  0  0  0  0  0
  -21.8819   -3.8147   23.4345 C   0  0  0  0  0  0
  -21.9182   -4.6962   22.3407 C   0  0  0  0  0  0
  -22.7794  -13.5193   21.1897 C   0  0  0  0  0  0
  -22.1654   -4.2156   21.0984 F   0  0  0  0  0  0
  -21.5612   -3.4531   25.7738 F   0  0  0  0  0  0
  -29.9442  -13.6846   20.3523 N   0  0  0  0  0  0
  -26.2839  -12.9241   20.3194 N   0  0  0  0  0  0
  -25.9256  -11.6428   20.5778 N   0  0  0  0  0  0
  -22.0392  -12.8235   22.0441 N   0  0  0  0  0  0
  -25.4006  -15.1774   20.3896 N   0  0  0  0  0  0
  -31.8118  -14.9180   20.2423 O   0  0  0  0  0  0
  -21.6599   -6.8859   21.4250 O   0  0  0  0  0  0
  -22.3532  -14.5520   20.6723 O   0  0  0  0  0  0
  -24.6423  -31.8470   23.1922 C   0  0  0  0  0  0
  -25.9195  -32.4723   23.8301 C   0  0  1  0  0  0
  -27.2281  -27.1628   20.1463 C   0  0  0  0  0  0
  -25.5958  -33.8523   24.2223 N   0  0  0  0  0  0
  -23.4477  -30.4684   21.5350 C   0  0  2  0  0  0
  -24.9021  -28.9057   20.1094 C   0  0  0  0  0  0
  -22.7569  -29.4569   22.4844 C   0  0  0  0  0  0
  -18.0314  -28.1398   22.8460 C   0  0  0  0  0  0
  -24.1481  -36.7257   23.2639 C   0  0  0  0  0  0
  -26.0029  -30.7277   21.3921 C   0  0  0  0  0  0
  -26.0779  -29.3418   20.7336 C   0  0  0  0  0  0
  -27.2405  -28.4842   20.7415 C   0  0  0  0  0  0
  -26.0254  -26.8348   19.4721 C   0  0  0  0  0  0
  -24.8876  -27.6631   19.4653 C   0  0  0  0  0  0
  -23.6776  -29.8030   20.1530 C   0  0  0  0  0  0
  -25.4115  -36.3043   24.0320 C   0  0  1  0  0  0
  -20.5926  -28.3748   23.1217 C   0  0  2  0  0  0
  -20.6822  -26.9449   22.5377 C   0  0  0  0  0  0
  -19.5779  -26.6369   21.5192 C   0  0  0  0  0  0
  -18.1963  -26.7927   22.1621 C   0  0  0  0  0  0
  -19.1567  -28.8889   23.2827 C   0  0  0  0  0  0
  -18.9474  -30.1487   23.8855 C   0  0  0  0  0  0
  -17.6464  -30.6604   24.0533 C   0  0  0  0  0  0
  -25.9066  -34.9419   23.5077 C   0  0  0  0  0  0
  -16.5360  -29.9082   23.6316 C   0  0  0  0  0  0
  -16.7293  -28.6495   23.0349 C   0  0  0  0  0  0
  -26.4524  -31.6580   25.0726 C   0  0  0  0  0  0
  -25.3713  -31.3758   26.1427 C   0  0  0  0  0  0
  -27.0405  -30.2982   24.6295 C   0  0  0  0  0  0
  -27.6073  -32.4335   25.7504 C   0  0  0  0  0  0
  -27.5568  -37.1786   24.8465 C   0  0  0  0  0  0
  -21.4260  -29.3082   22.3604 N   0  0  0  0  0  0
  -26.4281  -37.3752   23.9412 N   0  0  0  0  0  0
  -24.7166  -31.0328   22.0964 N   0  0  0  0  0  0
  -23.4207  -28.8102   23.2992 O   0  0  0  0  0  0
  -28.2723  -26.1705   20.2351 O   0  0  0  0  0  0
  -26.5631  -34.8904   22.4633 O   0  0  0  0  0  0
  -23.5534  -32.1338   23.7134 O   0  0  0  0  0  0
  -29.3271  -20.3977   20.4485 C   0  0  0  0  0  0
  -28.6568  -21.1790   21.4771 C   0  0  0  0  0  0
  -29.5001  -22.5499   19.3167 C   0  0  0  0  0  0
  -28.7254  -23.2945   20.2694 C   0  0  0  0  0  0
  -28.1297  -17.9256   20.4019 C   0  0  0  0  0  0
  -28.5074  -16.4243   20.2210 C   0  0  0  0  0  0
  -30.4555  -17.6110   20.7767 C   0  0  0  0  0  0
  -29.4086  -18.7463   20.2430 C   0  0  2  0  0  0
  -30.0458  -23.2541   18.0899 C   0  0  0  0  0  0
  -29.0595  -19.5925   23.4975 C   0  0  0  0  0  0
  -26.6672  -20.3071   22.8154 C   0  0  0  0  0  0
  -27.9141  -24.6950   19.9573 C   0  0  0  0  0  0
  -28.1658  -20.6480   22.8289 C   0  0  0  0  0  0
  -29.7730  -21.1824   19.4005 N   0  0  0  0  0  0
  -28.3570  -22.5387   21.3546 N   0  0  0  0  0  0
  -29.9096  -16.1714   20.5876 N   0  0  0  0  0  0
  -31.4658  -12.7364   19.1529 H   0  0  0  0  0  0
  -30.4271  -11.6293   20.0065 H   0  0  0  0  0  0
  -29.8438  -11.7287   17.5618 H   0  0  0  0  0  0
  -29.5849  -13.4510   17.6808 H   0  0  0  0  0  0
  -27.9651  -11.2350   18.9796 H   0  0  0  0  0  0
  -27.3808  -12.3872   17.8143 H   0  0  0  0  0  0
  -27.5609  -14.1783   19.3498 H   0  0  0  0  0  0
  -28.7832  -12.2606   21.4096 H   0  0  0  0  0  0
  -28.3790  -13.9150   21.7674 H   0  0  0  0  0  0
  -25.2690   -9.5659   22.4812 H   0  0  0  0  0  0
  -23.9952   -7.4609   22.7476 H   0  0  0  0  0  0
  -21.0810   -8.8732   19.8949 H   0  0  0  0  0  0
  -22.3635  -10.9650   19.6208 H   0  0  0  0  0  0
  -21.1999   -7.6144   23.9721 H   0  0  0  0  0  0
  -21.1481   -6.0518   25.9079 H   0  0  0  0  0  0
  -22.0594   -2.7605   23.2845 H   0  0  0  0  0  0
  -22.3913  -11.9875   22.4862 H   0  0  0  0  0  0
  -21.1043  -13.1380   22.2629 H   0  0  0  0  0  0
  -24.6341  -15.8300   20.5014 H   0  0  0  0  0  0
  -26.2468  -15.6137   20.0508 H   0  0  0  0  0  0
  -26.7274  -32.5340   23.1050 H   0  0  0  0  0  0
  -25.0145  -33.9651   25.0398 H   0  0  0  0  0  0
  -22.7498  -31.2938   21.3785 H   0  0  0  0  0  0
  -23.3753  -35.9578   23.3303 H   0  0  0  0  0  0
  -24.3569  -36.8880   22.2052 H   0  0  0  0  0  0
  -23.7227  -37.6448   23.6671 H   0  0  0  0  0  0
  -26.1544  -31.4834   20.6195 H   0  0  0  0  0  0
  -26.8765  -30.7805   22.0309 H   0  0  0  0  0  0
  -28.1325  -28.8051   21.2626 H   0  0  0  0  0  0
  -25.9132  -25.8945   18.9569 H   0  0  0  0  0  0
  -23.9942  -27.3228   18.9598 H   0  0  0  0  0  0
  -23.8114  -30.5791   19.3992 H   0  0  0  0  0  0
  -22.7955  -29.2401   19.8411 H   0  0  0  0  0  0
  -25.1297  -36.1884   25.0815 H   0  0  0  0  0  0
  -21.0026  -28.3359   24.1330 H   0  0  0  0  0  0
  -20.5761  -26.2359   23.3605 H   0  0  0  0  0  0
  -21.6703  -26.7484   22.1184 H   0  0  0  0  0  0
  -19.6928  -25.6269   21.1260 H   0  0  0  0  0  0
  -19.6706  -27.3142   20.6699 H   0  0  0  0  0  0
  -17.4209  -26.6650   21.4051 H   0  0  0  0  0  0
  -18.0371  -26.0102   22.9055 H   0  0  0  0  0  0
  -19.7942  -30.7317   24.2217 H   0  0  0  0  0  0
  -17.5012  -31.6287   24.5129 H   0  0  0  0  0  0
  -15.5358  -30.2965   23.7666 H   0  0  0  0  0  0
  -15.8688  -28.0805   22.7091 H   0  0  0  0  0  0
  -24.5911  -30.7094   25.7730 H   0  0  0  0  0  0
  -24.8884  -32.2931   26.4797 H   0  0  0  0  0  0
  -25.7998  -30.8958   27.0241 H   0  0  0  0  0  0
  -26.3032  -29.6702   24.1285 H   0  0  0  0  0  0
  -27.4011  -29.7283   25.4872 H   0  0  0  0  0  0
  -27.8935  -30.4229   23.9630 H   0  0  0  0  0  0
  -27.2701  -33.3668   26.2036 H   0  0  0  0  0  0
  -28.3913  -32.6859   25.0345 H   0  0  0  0  0  0
  -28.0720  -31.8492   26.5456 H   0  0  0  0  0  0
  -28.2589  -38.0078   24.7504 H   0  0  0  0  0  0
  -28.1066  -36.2608   24.6312 H   0  0  0  0  0  0
  -27.2284  -37.1455   25.8867 H   0  0  0  0  0  0
  -20.9449  -29.8819   21.6828 H   0  0  0  0  0  0
  -26.0153  -38.2818   24.1426 H   0  0  0  0  0  0
  -27.7317  -18.0308   21.4039 H   0  0  0  0  0  0
  -27.3473  -18.2399   19.7108 H   0  0  0  0  0  0
  -27.8483  -15.8309   20.8440 H   0  0  0  0  0  0
  -28.3818  -16.1469   19.1737 H   0  0  0  0  0  0
  -31.4325  -17.7092   20.3022 H   0  0  0  0  0  0
  -30.6291  -17.7340   21.8465 H   0  0  0  0  0  0
  -29.5819  -18.7027   19.1670 H   0  0  0  0  0  0
  -29.2633  -23.4176   17.3504 H   0  0  0  0  0  0
  -30.8528  -22.6861   17.6257 H   0  0  0  0  0  0
  -30.4528  -24.2247   18.3762 H   0  0  0  0  0  0
  -30.1085  -19.8870   23.4603 H   0  0  0  0  0  0
  -28.9658  -18.6072   23.0562 H   0  0  0  0  0  0
  -28.7948  -19.4856   24.5503 H   0  0  0  0  0  0
  -26.4277  -19.4864   22.1472 H   0  0  0  0  0  0
  -26.0850  -21.1668   22.4792 H   0  0  0  0  0  0
  -26.3113  -20.0437   23.8116 H   0  0  0  0  0  0
  -26.9553  -24.5315   20.4522 H   0  0  0  0  0  0
  -27.6888  -24.6398   18.8923 H   0  0  0  0  0  0
  -28.2476  -21.5018   23.5073 H   0  0  0  0  0  0
  1 25  1  0  0  0
  1 30  2  0  0  0
  1 86  1  0  0  0
  2  3  1  0  0  0
  2 25  1  0  0  0
  2 87  1  0  0  0
  2 88  1  0  0  0
  3  4  1  0  0  0
  3 89  1  0  0  0
  3 90  1  0  0  0
  4  5  1  0  0  0
  4 91  1  0  0  0
  4 92  1  0  0  0
  5  6  1  0  0  0
  5 26  1  0  0  0
  5 93  1  0  0  0
  6 25  1  0  0  0
  6 94  1  0  0  0
  6 95  1  0  0  0
  7  8  2  0  0  0
  7 26  1  0  0  0
  7 29  1  0  0  0
  8  9  1  0  0  0
  8 22  1  0  0  0
  9 10  1  0  0  0
  9 27  2  0  0  0
 10 11  2  0  0  0
 10 15  1  0  0  0
 11 12  1  0  0  0
 11 96  1  0  0  0
 12 13  2  0  0  0
 12 97  1  0  0  0
 13 14  1  0  0  0
 13 31  1  0  0  0
 14 15  2  0  0  0
 14 98  1  0  0  0
 15 99  1  0  0  0
 16 17  2  0  0  0
 16 21  1  0  0  0
 16 31  1  0  0  0
 17 18  1  0  0  0
 17100  1  0  0  0
 18 19  2  0  0  0
 18101  1  0  0  0
 19 20  1  0  0  0
 19 24  1  0  0  0
 20 21  2  0  0  0
 20102  1  0  0  0
 21 23  1  0  0  0
 22 28  1  0  0  0
 22 32  2  0  0  0
 26 27  1  0  0  0
 28103  1  0  0  0
 28104  1  0  0  0
 29105  1  0  0  0
 29106  1  0  0  0
 33 34  1  0  0  0
 33 66  1  0  0  0
 33 70  2  0  0  0
 34 36  1  0  0  0
 34 59  1  0  0  0
 34107  1  0  0  0
 35 44  2  0  0  0
 35 45  1  0  0  0
 35 68  1  0  0  0
 36 56  1  0  0  0
 36108  1  0  0  0
 37 39  1  0  0  0
 37 47  1  0  0  0
 37 66  1  0  0  0
 37109  1  0  0  0
 38 43  2  0  0  0
 38 46  1  0  0  0
 38 47  1  0  0  0
 39 64  1  0  0  0
 39 67  2  0  0  0
 40 52  1  0  0  0
 40 53  2  0  0  0
 40 58  1  0  0  0
 41110  1  0  0  0
 41111  1  0  0  0
 41112  1  0  0  0
 41 48  1  0  0  0
 42 43  1  0  0  0
 42 66  1  0  0  0
 42113  1  0  0  0
 42114  1  0  0  0
 43 44  1  0  0  0
 44115  1  0  0  0
 45 46  2  0  0  0
 45116  1  0  0  0
 46117  1  0  0  0
 47118  1  0  0  0
 47119  1  0  0  0
 48 56  1  0  0  0
 48 65  1  0  0  0
 48120  1  0  0  0
 49 50  1  0  0  0
 49 53  1  0  0  0
 49 64  1  0  0  0
 49121  1  0  0  0
 50 51  1  0  0  0
 50122  1  0  0  0
 50123  1  0  0  0
 51 52  1  0  0  0
 51124  1  0  0  0
 51125  1  0  0  0
 52126  1  0  0  0
 52127  1  0  0  0
 53 54  1  0  0  0
 54 55  2  0  0  0
 54128  1  0  0  0
 55 57  1  0  0  0
 55129  1  0  0  0
 56 69  2  0  0  0
 57 58  2  0  0  0
 57130  1  0  0  0
 58131  1  0  0  0
 59 60  1  0  0  0
 59 61  1  0  0  0
 59 62  1  0  0  0
 60132  1  0  0  0
 60133  1  0  0  0
 60134  1  0  0  0
 61135  1  0  0  0
 61136  1  0  0  0
 61137  1  0  0  0
 62138  1  0  0  0
 62139  1  0  0  0
 62140  1  0  0  0
 63 65  1  0  0  0
 63141  1  0  0  0
 63142  1  0  0  0
 63143  1  0  0  0
 64144  1  0  0  0
 65145  1  0  0  0
 68 82  1  0  0  0
 71 72  2  0  0  0
 71 84  1  0  0  0
 71 78  1  0  0  0
 72 83  1  0  0  0
 72 85  1  0  0  0
 73 74  1  0  0  0
 73 79  1  0  0  0
 73 84  2  0  0  0
 74 82  1  0  0  0
 74 85  2  0  0  0
 75 76  1  0  0  0
 75 78  1  0  0  0
 75146  1  0  0  0
 75147  1  0  0  0
 76 86  1  0  0  0
 76148  1  0  0  0
 76149  1  0  0  0
 77 78  1  0  0  0
 77 86  1  0  0  0
 77150  1  0  0  0
 77151  1  0  0  0
 78152  1  0  0  0
 79153  1  0  0  0
 79154  1  0  0  0
 79155  1  0  0  0
 80156  1  0  0  0
 80157  1  0  0  0
 80158  1  0  0  0
 80 83  1  0  0  0
 81 83  1  0  0  0
 81159  1  0  0  0
 81160  1  0  0  0
 81161  1  0  0  0
 82162  1  0  0  0
 82163  1  0  0  0
 83164  1  0  0  0
M  ISO  4   1 100  68 101  82 101  86 100
M  END
> <chiral flag>
0

> <version>
0

> <s_m_source_file>
/data/baiqing/PycharmProjects/Reinvent-master-3.2/result/LINK_invent/BTK/process_docking_weight1_custom_sum_contain_oxygen_bond_distance_aromatic_linkinvent_7_9_3/rearranged_h_0180.sdf

> <i_m_source_file_index>
23

> <r_mmod_Potential_Energy-OPLS-2005>
753.992919921875

> <r_mmod_Stretch_Energy-OPLS-2005>
220.771270751953

> <r_mmod_Bend_Energy-OPLS-2005>
323.662231445312

> <r_mmod_Torsional_Energy-OPLS-2005>
321.994598388672

> <r_mmod_Improper_Torsional_Energy-OPLS-2005>
8.82424259185791

> <r_mmod_Van_der_Waal_Energy-OPLS-2005>
144.236846923828

> <r_mmod_Electrostatic_Energy-OPLS-2005>
-223.133407592773

> <r_mmod_Solvation_Energy-OPLS-2005>
-217.395706176758

> <b_mmod_Minimization_Converged-OPLS-2005>
0

> <r_mmod_RMS_Derivative-OPLS-2005>
3.49203133583069

$$$$
23
                    3D
 Structure written by MMmdl.
161170  0  0  1  0            999 V2000
  -30.6134  -14.8607   20.4480 C   0  0  0  0  0  0
  -30.4231  -12.5405   19.4796 C   0  0  0  0  0  0
  -29.5068  -12.5196   18.2375 C   0  0  0  0  0  0
  -28.0395  -12.3178   18.6585 C   0  0  0  0  0  0
  -27.6258  -13.2435   19.8333 C   0  0  2  0  0  0
  -28.6707  -13.2685   20.9673 C   0  0  0  0  0  0
  -25.2440  -13.8205   20.5695 C   0  0  0  0  0  0
  -24.1754  -13.0436   20.9216 C   0  0  0  0  0  0
  -24.6375  -11.6923   20.8742 C   0  0  0  0  0  0
  -23.9061  -10.4292   21.0401 C   0  0  0  0  0  0
  -24.3619   -9.4213   21.9178 C   0  0  0  0  0  0
  -23.6304   -8.2243   22.0746 C   0  0  0  0  0  0
  -22.4284   -8.0272   21.3539 C   0  0  0  0  0  0
  -21.9918   -9.0246   20.4639 C   0  0  0  0  0  0
  -22.7240  -10.2129   20.3052 C   0  0  0  0  0  0
  -21.6858   -6.0732   22.5281 C   0  0  0  0  0  0
  -21.4012   -6.5635   23.8213 C   0  0  0  0  0  0
  -21.3658   -5.6786   24.9174 C   0  0  0  0  0  0
  -21.6045   -4.3050   24.7223 C   0  0  0  0  0  0
  -21.8817   -3.8141   23.4341 C   0  0  0  0  0  0
  -21.9192   -4.6957   22.3401 C   0  0  0  0  0  0
  -22.7777  -13.5213   21.1877 C   0  0  0  0  0  0
  -22.1659   -4.2137   21.0980 F   0  0  0  0  0  0
  -21.5638   -3.4536   25.7739 F   0  0  0  0  0  0
  -29.9537  -13.6428   20.3619 N   0  0  0  0  0  0
  -26.2860  -12.9432   20.3237 N   0  0  0  0  0  0
  -25.9302  -11.6563   20.5732 N   0  0  0  0  0  0
  -22.0425  -12.8210   22.0437 N   0  0  0  0  0  0
  -25.4126  -15.1932   20.4106 N   0  0  0  0  0  0
  -31.8251  -14.8701   20.2074 O   0  0  0  0  0  0
  -21.6641   -6.8877   21.4242 O   0  0  0  0  0  0
  -22.3463  -14.5515   20.6724 O   0  0  0  0  0  0
  -24.6383  -31.8502   23.1952 C   0  0  0  0  0  0
  -25.9178  -32.4731   23.8310 C   0  0  1  0  0  0
  -27.2071  -27.1837   20.1530 C   0  0  0  0  0  0
  -25.5950  -33.8535   24.2222 N   0  0  0  0  0  0
  -23.4383  -30.4721   21.5406 C   0  0  2  0  0  0
  -24.8864  -28.9114   20.1119 C   0  0  0  0  0  0
  -22.7538  -29.4574   22.4896 C   0  0  0  0  0  0
  -18.0296  -28.1393   22.8483 C   0  0  0  0  0  0
  -24.1491  -36.7268   23.2638 C   0  0  0  0  0  0
  -25.9920  -30.7385   21.3885 C   0  0  0  0  0  0
  -26.0624  -29.3545   20.7308 C   0  0  0  0  0  0
  -27.2278  -28.5070   20.7361 C   0  0  0  0  0  0
  -26.0133  -26.8419   19.4784 C   0  0  0  0  0  0
  -24.8724  -27.6665   19.4688 C   0  0  0  0  0  0
  -23.6615  -29.8074   20.1575 C   0  0  0  0  0  0
  -25.4124  -36.3053   24.0316 C   0  0  1  0  0  0
  -20.5905  -28.3711   23.1259 C   0  0  2  0  0  0
  -20.6786  -26.9422   22.5407 C   0  0  0  0  0  0
  -19.5761  -26.6380   21.5217 C   0  0  0  0  0  0
  -18.1939  -26.7934   22.1624 C   0  0  0  0  0  0
  -19.1549  -28.8870   23.2861 C   0  0  0  0  0  0
  -18.9467  -30.1472   23.8884 C   0  0  0  0  0  0
  -17.6466  -30.6593   24.0560 C   0  0  0  0  0  0
  -25.9072  -34.9427   23.5073 C   0  0  0  0  0  0
  -16.5355  -29.9084   23.6342 C   0  0  0  0  0  0
  -16.7278  -28.6502   23.0365 C   0  0  0  0  0  0
  -26.4513  -31.6586   25.0735 C   0  0  0  0  0  0
  -25.3702  -31.3765   26.1434 C   0  0  0  0  0  0
  -27.0367  -30.2986   24.6281 C   0  0  0  0  0  0
  -27.6049  -32.4345   25.7520 C   0  0  0  0  0  0
  -27.5584  -37.1786   24.8458 C   0  0  0  0  0  0
  -21.4239  -29.3046   22.3641 N   0  0  0  0  0  0
  -26.4285  -37.3766   23.9413 N   0  0  0  0  0  0
  -24.7090  -31.0395   22.0969 N   0  0  0  0  0  0
  -23.4209  -28.8119   23.3020 O   0  0  0  0  0  0
  -28.2539  -26.2089   20.2045 O   0  0  0  0  0  0
  -26.5648  -34.8912   22.4645 O   0  0  0  0  0  0
  -23.5516  -32.1357   23.7204 O   0  0  0  0  0  0
  -28.4826  -22.0404   20.6655 C   0  0  0  0  0  0
  -29.4032  -20.9439   20.3636 C   0  0  0  0  0  0
  -28.8087  -23.4332   20.3179 C   0  0  0  0  0  0
  -30.7807  -22.5858   19.4658 C   0  0  0  0  0  0
  -29.0735  -18.3346   19.4920 C   0  0  0  0  0  0
  -30.4709  -18.6497   21.4134 C   0  0  0  0  0  0
  -28.9366  -16.7621   19.8202 C   0  0  0  0  0  0
  -30.4053  -17.0788   21.7403 C   0  0  0  0  0  0
  -29.2615  -19.3423   20.6858 C   0  0  0  0  0  0
  -27.1685  -21.7087   21.3533 C   0  0  0  0  0  0
  -32.1005  -22.8962   18.7936 C   0  0  0  0  0  0
  -27.8839  -24.7541   20.5545 C   0  0  0  0  0  0
  -30.5422  -21.2995   19.7384 N   0  0  0  0  0  0
  -29.9956  -23.6357   19.7151 N   0  0  0  0  0  0
  -29.9447  -16.0871   20.7076 N   0  0  0  0  0  0
  -31.4617  -12.6688   19.1714 H   0  0  0  0  0  0
  -30.3833  -11.5853   20.0068 H   0  0  0  0  0  0
  -29.8146  -11.7279   17.5525 H   0  0  0  0  0  0
  -29.6056  -13.4585   17.6894 H   0  0  0  0  0  0
  -27.9222  -11.2742   18.9531 H   0  0  0  0  0  0
  -27.3763  -12.4671   17.8052 H   0  0  0  0  0  0
  -27.5889  -14.2454   19.4075 H   0  0  0  0  0  0
  -28.7403  -12.2997   21.4642 H   0  0  0  0  0  0
  -28.3841  -13.9952   21.7295 H   0  0  0  0  0  0
  -25.2756   -9.5702   22.4760 H   0  0  0  0  0  0
  -24.0013   -7.4636   22.7470 H   0  0  0  0  0  0
  -21.0848   -8.8763   19.8951 H   0  0  0  0  0  0
  -22.3690  -10.9665   19.6166 H   0  0  0  0  0  0
  -21.2005   -7.6146   23.9716 H   0  0  0  0  0  0
  -21.1486   -6.0514   25.9079 H   0  0  0  0  0  0
  -22.0604   -2.7604   23.2837 H   0  0  0  0  0  0
  -22.4044  -11.9876   22.4829 H   0  0  0  0  0  0
  -21.1037  -13.1232   22.2631 H   0  0  0  0  0  0
  -24.6498  -15.8506   20.5286 H   0  0  0  0  0  0
  -26.2684  -15.6308   20.0970 H   0  0  0  0  0  0
  -26.7244  -32.5355   23.1043 H   0  0  0  0  0  0
  -25.0086  -33.9651   25.0360 H   0  0  0  0  0  0
  -22.7377  -31.2970   21.3924 H   0  0  0  0  0  0
  -23.3767  -35.9586   23.3280 H   0  0  0  0  0  0
  -24.3581  -36.8920   22.2058 H   0  0  0  0  0  0
  -23.7223  -37.6450   23.6682 H   0  0  0  0  0  0
  -26.1402  -31.4956   20.6174 H   0  0  0  0  0  0
  -26.8663  -30.7872   22.0258 H   0  0  0  0  0  0
  -28.1245  -28.8410   21.2387 H   0  0  0  0  0  0
  -25.9317  -25.9054   18.9483 H   0  0  0  0  0  0
  -23.9795  -27.3283   18.9606 H   0  0  0  0  0  0
  -23.7934  -30.5850   19.4044 H   0  0  0  0  0  0
  -22.7775  -29.2465   19.8492 H   0  0  0  0  0  0
  -25.1307  -36.1890   25.0807 H   0  0  0  0  0  0
  -20.9987  -28.3290   24.1386 H   0  0  0  0  0  0
  -20.5700  -26.2319   23.3613 H   0  0  0  0  0  0
  -21.6649  -26.7448   22.1192 H   0  0  0  0  0  0
  -19.6923  -25.6285   21.1260 H   0  0  0  0  0  0
  -19.6709  -27.3182   20.6741 H   0  0  0  0  0  0
  -17.4214  -26.6687   21.4020 H   0  0  0  0  0  0
  -18.0332  -26.0074   22.9018 H   0  0  0  0  0  0
  -19.7944  -30.7289   24.2245 H   0  0  0  0  0  0
  -17.5019  -31.6275   24.5154 H   0  0  0  0  0  0
  -15.5354  -30.2983   23.7674 H   0  0  0  0  0  0
  -15.8676  -28.0813   22.7097 H   0  0  0  0  0  0
  -24.5871  -30.7131   25.7748 H   0  0  0  0  0  0
  -24.8902  -32.2951   26.4821 H   0  0  0  0  0  0
  -25.7982  -30.8952   27.0236 H   0  0  0  0  0  0
  -26.2973  -29.6727   24.1272 H   0  0  0  0  0  0
  -27.3979  -29.7264   25.4836 H   0  0  0  0  0  0
  -27.8882  -30.4237   23.9589 H   0  0  0  0  0  0
  -27.2636  -33.3652   26.2063 H   0  0  0  0  0  0
  -28.3876  -32.6900   25.0367 H   0  0  0  0  0  0
  -28.0695  -31.8497   26.5466 H   0  0  0  0  0  0
  -28.2574  -38.0112   24.7542 H   0  0  0  0  0  0
  -28.1101  -36.2638   24.6236 H   0  0  0  0  0  0
  -27.2299  -37.1377   25.8857 H   0  0  0  0  0  0
  -20.9440  -29.8756   21.6827 H   0  0  0  0  0  0
  -26.0158  -38.2828   24.1443 H   0  0  0  0  0  0
  -28.1954  -18.6474   18.9256 H   0  0  0  0  0  0
  -29.9125  -18.4683   18.8083 H   0  0  0  0  0  0
  -31.3625  -18.8226   20.8102 H   0  0  0  0  0  0
  -30.6561  -19.1850   22.3456 H   0  0  0  0  0  0
  -28.8907  -16.2203   18.8744 H   0  0  0  0  0  0
  -27.9678  -16.6073   20.2936 H   0  0  0  0  0  0
  -29.7368  -16.9466   22.5912 H   0  0  0  0  0  0
  -31.3865  -16.7730   22.1074 H   0  0  0  0  0  0
  -28.3942  -19.2389   21.3377 H   0  0  0  0  0  0
  -26.6342  -20.9397   20.7937 H   0  0  0  0  0  0
  -26.5059  -22.5692   21.4428 H   0  0  0  0  0  0
  -27.3598  -21.3265   22.3571 H   0  0  0  0  0  0
  -32.7770  -22.0413   18.8232 H   0  0  0  0  0  0
  -32.5967  -23.7332   19.2859 H   0  0  0  0  0  0
  -31.9364  -23.1636   17.7504 H   0  0  0  0  0  0
  -27.6675  -24.7671   21.6234 H   0  0  0  0  0  0
  -26.9383  -24.4887   20.0907 H   0  0  0  0  0  0
  1 25  1  0  0  0
  1 30  2  0  0  0
  1 85  1  0  0  0
  2  3  1  0  0  0
  2 25  1  0  0  0
  2 86  1  0  0  0
  2 87  1  0  0  0
  3  4  1  0  0  0
  3 88  1  0  0  0
  3 89  1  0  0  0
  4  5  1  0  0  0
  4 90  1  0  0  0
  4 91  1  0  0  0
  5  6  1  0  0  0
  5 26  1  0  0  0
  5 92  1  0  0  0
  6 25  1  0  0  0
  6 93  1  0  0  0
  6 94  1  0  0  0
  7  8  2  0  0  0
  7 26  1  0  0  0
  7 29  1  0  0  0
  8  9  1  0  0  0
  8 22  1  0  0  0
  9 10  1  0  0  0
  9 27  2  0  0  0
 10 11  2  0  0  0
 10 15  1  0  0  0
 11 12  1  0  0  0
 11 95  1  0  0  0
 12 13  2  0  0  0
 12 96  1  0  0  0
 13 14  1  0  0  0
 13 31  1  0  0  0
 14 15  2  0  0  0
 14 97  1  0  0  0
 15 98  1  0  0  0
 16 17  2  0  0  0
 16 21  1  0  0  0
 16 31  1  0  0  0
 17 18  1  0  0  0
 17 99  1  0  0  0
 18 19  2  0  0  0
 18100  1  0  0  0
 19 20  1  0  0  0
 19 24  1  0  0  0
 20 21  2  0  0  0
 20101  1  0  0  0
 21 23  1  0  0  0
 22 28  1  0  0  0
 22 32  2  0  0  0
 26 27  1  0  0  0
 28102  1  0  0  0
 28103  1  0  0  0
 29104  1  0  0  0
 29105  1  0  0  0
 33 34  1  0  0  0
 33 66  1  0  0  0
 33 70  2  0  0  0
 34 36  1  0  0  0
 34 59  1  0  0  0
 34106  1  0  0  0
 35 44  2  0  0  0
 35 45  1  0  0  0
 35 68  1  0  0  0
 36 56  1  0  0  0
 36107  1  0  0  0
 37 39  1  0  0  0
 37 47  1  0  0  0
 37 66  1  0  0  0
 37108  1  0  0  0
 38 43  2  0  0  0
 38 46  1  0  0  0
 38 47  1  0  0  0
 39 64  1  0  0  0
 39 67  2  0  0  0
 40 52  1  0  0  0
 40 53  2  0  0  0
 40 58  1  0  0  0
 41109  1  0  0  0
 41110  1  0  0  0
 41111  1  0  0  0
 41 48  1  0  0  0
 42 43  1  0  0  0
 42 66  1  0  0  0
 42112  1  0  0  0
 42113  1  0  0  0
 43 44  1  0  0  0
 44114  1  0  0  0
 45 46  2  0  0  0
 45115  1  0  0  0
 46116  1  0  0  0
 47117  1  0  0  0
 47118  1  0  0  0
 48 56  1  0  0  0
 48 65  1  0  0  0
 48119  1  0  0  0
 49 50  1  0  0  0
 49 53  1  0  0  0
 49 64  1  0  0  0
 49120  1  0  0  0
 50 51  1  0  0  0
 50121  1  0  0  0
 50122  1  0  0  0
 51 52  1  0  0  0
 51123  1  0  0  0
 51124  1  0  0  0
 52125  1  0  0  0
 52126  1  0  0  0
 53 54  1  0  0  0
 54 55  2  0  0  0
 54127  1  0  0  0
 55 57  1  0  0  0
 55128  1  0  0  0
 56 69  2  0  0  0
 57 58  2  0  0  0
 57129  1  0  0  0
 58130  1  0  0  0
 59 60  1  0  0  0
 59 61  1  0  0  0
 59 62  1  0  0  0
 60131  1  0  0  0
 60132  1  0  0  0
 60133  1  0  0  0
 61134  1  0  0  0
 61135  1  0  0  0
 61136  1  0  0  0
 62137  1  0  0  0
 62138  1  0  0  0
 62139  1  0  0  0
 63 65  1  0  0  0
 63140  1  0  0  0
 63141  1  0  0  0
 63142  1  0  0  0
 64143  1  0  0  0
 65144  1  0  0  0
 68 82  1  0  0  0
 71 72  2  0  0  0
 71 73  1  0  0  0
 71 80  1  0  0  0
 72 83  1  0  0  0
 72 79  1  0  0  0
 73 82  1  0  0  0
 73 84  2  0  0  0
 74 81  1  0  0  0
 74 83  2  0  0  0
 74 84  1  0  0  0
 75 77  1  0  0  0
 75 79  1  0  0  0
 75145  1  0  0  0
 75146  1  0  0  0
 76 78  1  0  0  0
 76 79  1  0  0  0
 76147  1  0  0  0
 76148  1  0  0  0
 77 85  1  0  0  0
 77149  1  0  0  0
 77150  1  0  0  0
 78 85  1  0  0  0
 78151  1  0  0  0
 78152  1  0  0  0
 79153  1  0  0  0
 80154  1  0  0  0
 80155  1  0  0  0
 80156  1  0  0  0
 81157  1  0  0  0
 81158  1  0  0  0
 81159  1  0  0  0
 82160  1  0  0  0
 82161  1  0  0  0
M  ISO  4   1 100  68 101  82 101  85 100
M  END
> <chiral flag>
0

> <version>
0

> <s_m_source_file>
/data/baiqing/PycharmProjects/Reinvent-master-3.2/result/LINK_invent/BTK/process_docking_weight1_custom_sum_contain_oxygen_bond_distance_aromatic_linkinvent_7_9_3/rearranged_h_0180.sdf

> <i_m_source_file_index>
24

> <r_mmod_Potential_Energy-OPLS-2005>
150.033096313477

> <r_mmod_Stretch_Energy-OPLS-2005>
178.450531005859

> <r_mmod_Bend_Energy-OPLS-2005>
224.696502685547

> <r_mmod_Torsional_Energy-OPLS-2005>
331.490173339844

> <r_mmod_Improper_Torsional_Energy-OPLS-2005>
2.5555214881897

> <r_mmod_Van_der_Waal_Energy-OPLS-2005>
139.562210083008

> <r_mmod_Electrostatic_Energy-OPLS-2005>
-643.674438476562

> <r_mmod_Solvation_Energy-OPLS-2005>
-231.075408935547

> <b_mmod_Minimization_Converged-OPLS-2005>
0

> <r_mmod_RMS_Derivative-OPLS-2005>
1.4508718252182

$$$$
24
                    3D
 Structure written by MMmdl.
154163  0  0  1  0            999 V2000
  -30.4140  -15.3988   20.3111 C   0  0  0  0  0  0
  -30.4257  -12.9104   19.5042 C   0  0  0  0  0  0
  -29.5269  -12.5735   18.2883 C   0  0  0  0  0  0
  -28.0946  -12.2645   18.7483 C   0  0  0  0  0  0
  -27.5987  -13.2826   19.8025 C   0  0  2  0  0  0
  -28.6305  -13.5561   20.9172 C   0  0  0  0  0  0
  -25.2382  -13.8260   20.5769 C   0  0  0  0  0  0
  -24.1737  -13.0439   20.9227 C   0  0  0  0  0  0
  -24.6410  -11.6945   20.8765 C   0  0  0  0  0  0
  -23.9120  -10.4290   21.0415 C   0  0  0  0  0  0
  -24.3670   -9.4196   21.9182 C   0  0  0  0  0  0
  -23.6312   -8.2254   22.0764 C   0  0  0  0  0  0
  -22.4296   -8.0304   21.3553 C   0  0  0  0  0  0
  -21.9943   -9.0278   20.4654 C   0  0  0  0  0  0
  -22.7294  -10.2139   20.3057 C   0  0  0  0  0  0
  -21.6867   -6.0760   22.5276 C   0  0  0  0  0  0
  -21.4022   -6.5657   23.8206 C   0  0  0  0  0  0
  -21.3638   -5.6799   24.9162 C   0  0  0  0  0  0
  -21.6042   -4.3060   24.7207 C   0  0  0  0  0  0
  -21.8821   -3.8162   23.4325 C   0  0  0  0  0  0
  -21.9188   -4.6989   22.3391 C   0  0  0  0  0  0
  -22.7748  -13.5180   21.1839 C   0  0  0  0  0  0
  -22.1663   -4.2179   21.0966 F   0  0  0  0  0  0
  -21.5607   -3.4538   25.7710 F   0  0  0  0  0  0
  -29.8321  -14.0867   20.2522 N   0  0  0  0  0  0
  -26.2794  -12.9549   20.3207 N   0  0  0  0  0  0
  -25.9346  -11.6646   20.5745 N   0  0  0  0  0  0
  -22.0429  -12.8181   22.0432 N   0  0  0  0  0  0
  -25.4042  -15.1991   20.4253 N   0  0  0  0  0  0
  -31.6508  -15.3202   20.2373 O   0  0  0  0  0  0
  -21.6647   -6.8913   21.4249 O   0  0  0  0  0  0
  -22.3414  -14.5475   20.6655 O   0  0  0  0  0  0
  -24.6709  -31.8164   23.1577 C   0  0  0  0  0  0
  -25.9369  -32.4544   23.8080 C   0  0  1  0  0  0
  -27.2187  -26.8525   20.1960 C   0  0  0  0  0  0
  -25.5988  -33.8347   24.1981 N   0  0  0  0  0  0
  -23.4888  -30.4302   21.5072 C   0  0  2  0  0  0
  -24.9407  -28.7967   20.1180 C   0  0  0  0  0  0
  -22.7703  -29.4461   22.4686 C   0  0  0  0  0  0
  -18.0342  -28.1460   22.8461 C   0  0  0  0  0  0
  -24.1474  -36.7169   23.2669 C   0  0  0  0  0  0
  -26.0659  -30.6020   21.3978 C   0  0  0  0  0  0
  -26.1312  -29.1822   20.7476 C   0  0  0  0  0  0
  -27.2665  -28.2386   20.7477 C   0  0  0  0  0  0
  -25.9931  -26.6346   19.5271 C   0  0  0  0  0  0
  -24.9036  -27.5445   19.4806 C   0  0  0  0  0  0
  -23.7344  -29.7377   20.1385 C   0  0  0  0  0  0
  -25.4118  -36.2914   24.0303 C   0  0  1  0  0  0
  -20.5995  -28.3796   23.1141 C   0  0  2  0  0  0
  -20.6834  -26.9477   22.5370 C   0  0  0  0  0  0
  -19.5800  -26.6390   21.5205 C   0  0  0  0  0  0
  -18.1978  -26.8006   22.1603 C   0  0  0  0  0  0
  -19.1617  -28.8934   23.2812 C   0  0  0  0  0  0
  -18.9535  -30.1524   23.8860 C   0  0  0  0  0  0
  -17.6536  -30.6632   24.0581 C   0  0  0  0  0  0
  -25.9102  -34.9318   23.4948 C   0  0  0  0  0  0
  -16.5415  -29.9130   23.6374 C   0  0  0  0  0  0
  -16.7331  -28.6559   23.0370 C   0  0  0  0  0  0
  -26.4601  -31.6530   25.0643 C   0  0  0  0  0  0
  -25.3675  -31.3814   26.1242 C   0  0  0  0  0  0
  -27.0530  -30.2879   24.6467 C   0  0  0  0  0  0
  -27.6076  -32.4372   25.7444 C   0  0  0  0  0  0
  -27.5536  -37.1724   24.8484 C   0  0  0  0  0  0
  -21.4362  -29.3078   22.3458 N   0  0  0  0  0  0
  -26.4241  -37.3659   23.9434 N   0  0  0  0  0  0
  -24.7646  -30.9785   22.0735 N   0  0  0  0  0  0
  -23.4232  -28.8068   23.2979 O   0  0  0  0  0  0
  -28.2132  -25.7135   20.1572 O   0  0  0  0  0  0
  -26.5724  -34.8893   22.4559 O   0  0  0  0  0  0
  -23.5751  -32.1168   23.6605 O   0  0  0  0  0  0
  -27.8964  -21.7132   19.1808 C   0  0  0  0  0  0
  -28.4795  -22.4971   20.1804 C   0  0  0  0  0  0
  -29.1376  -19.9961   20.1540 C   0  0  0  0  0  0
  -30.8020  -18.2096   19.1009 C   0  0  0  0  0  0
  -29.7498  -17.1515   18.7190 C   0  0  0  0  0  0
  -29.9849  -18.4209   20.3655 C   0  0  2  0  0  0
  -26.8765  -22.1870   18.1816 C   0  0  0  0  0  0
  -30.1216  -21.5071   21.9407 C   0  0  0  0  0  0
  -28.0262  -24.1459   20.7253 C   0  0  0  0  0  0
  -28.2637  -20.3107   19.1775 N   0  0  0  0  0  0
  -29.2676  -21.3223   20.7771 N   0  0  0  0  0  0
  -29.7048  -16.7387   20.1371 N   0  0  0  0  0  0
  -31.4292  -13.1395   19.1425 H   0  0  0  0  0  0
  -30.5378  -12.0474   20.1599 H   0  0  0  0  0  0
  -29.9322  -11.7249   17.7360 H   0  0  0  0  0  0
  -29.5126  -13.4150   17.5936 H   0  0  0  0  0  0
  -28.1003  -11.2665   19.1877 H   0  0  0  0  0  0
  -27.4136  -12.2169   17.8976 H   0  0  0  0  0  0
  -27.4833  -14.2146   19.2484 H   0  0  0  0  0  0
  -28.8402  -12.6648   21.5100 H   0  0  0  0  0  0
  -28.2415  -14.3103   21.6043 H   0  0  0  0  0  0
  -25.2831   -9.5643   22.4732 H   0  0  0  0  0  0
  -23.9989   -7.4661   22.7512 H   0  0  0  0  0  0
  -21.0850   -8.8816   19.8986 H   0  0  0  0  0  0
  -22.3767  -10.9676   19.6153 H   0  0  0  0  0  0
  -21.2046   -7.6165   23.9722 H   0  0  0  0  0  0
  -21.1440   -6.0522   25.9058 H   0  0  0  0  0  0
  -22.0620   -2.7623   23.2810 H   0  0  0  0  0  0
  -22.4085  -11.9857   22.4796 H   0  0  0  0  0  0
  -21.1070  -13.1216   22.2704 H   0  0  0  0  0  0
  -24.6414  -15.8535   20.5654 H   0  0  0  0  0  0
  -26.2653  -15.6499   20.1395 H   0  0  0  0  0  0
  -26.7446  -32.5061   23.0794 H   0  0  0  0  0  0
  -25.0107  -33.9412   25.0110 H   0  0  0  0  0  0
  -22.8093  -31.2667   21.3252 H   0  0  0  0  0  0
  -23.3726  -35.9509   23.3297 H   0  0  0  0  0  0
  -24.3556  -36.8834   22.2093 H   0  0  0  0  0  0
  -23.7233  -37.6348   23.6741 H   0  0  0  0  0  0
  -26.2535  -31.3387   20.6157 H   0  0  0  0  0  0
  -26.9209  -30.6637   22.0589 H   0  0  0  0  0  0
  -28.1806  -28.5486   21.2326 H   0  0  0  0  0  0
  -25.8611  -25.6812   19.0342 H   0  0  0  0  0  0
  -24.0033  -27.2453   18.9611 H   0  0  0  0  0  0
  -23.8987  -30.5020   19.3767 H   0  0  0  0  0  0
  -22.8420  -29.1989   19.8159 H   0  0  0  0  0  0
  -25.1313  -36.1671   25.0790 H   0  0  0  0  0  0
  -21.0099  -28.3407   24.1253 H   0  0  0  0  0  0
  -20.5713  -26.2438   23.3625 H   0  0  0  0  0  0
  -21.6703  -26.7463   22.1182 H   0  0  0  0  0  0
  -19.6975  -25.6268   21.1306 H   0  0  0  0  0  0
  -19.6754  -27.3159   20.6719 H   0  0  0  0  0  0
  -17.4248  -26.6758   21.4002 H   0  0  0  0  0  0
  -18.0355  -26.0181   22.9031 H   0  0  0  0  0  0
  -19.8031  -30.7339   24.2209 H   0  0  0  0  0  0
  -17.5112  -31.6330   24.5161 H   0  0  0  0  0  0
  -15.5434  -30.3031   23.7730 H   0  0  0  0  0  0
  -15.8750  -28.0872   22.7109 H   0  0  0  0  0  0
  -24.5927  -30.7127   25.7469 H   0  0  0  0  0  0
  -24.8819  -32.3040   26.4438 H   0  0  0  0  0  0
  -25.7849  -30.9098   27.0154 H   0  0  0  0  0  0
  -26.3240  -29.6480   24.1485 H   0  0  0  0  0  0
  -27.4053  -29.7310   25.5167 H   0  0  0  0  0  0
  -27.9166  -30.4027   23.9913 H   0  0  0  0  0  0
  -27.2663  -33.3774   26.1788 H   0  0  0  0  0  0
  -28.3999  -32.6765   25.0333 H   0  0  0  0  0  0
  -28.0638  -31.8661   26.5536 H   0  0  0  0  0  0
  -28.2523  -38.0043   24.7494 H   0  0  0  0  0  0
  -28.1043  -36.2550   24.6320 H   0  0  0  0  0  0
  -27.2279  -37.1395   25.8900 H   0  0  0  0  0  0
  -20.9573  -29.8727   21.6574 H   0  0  0  0  0  0
  -26.0056  -38.2694   24.1463 H   0  0  0  0  0  0
  -30.8468  -19.0615   18.4178 H   0  0  0  0  0  0
  -31.8030  -17.8059   19.2774 H   0  0  0  0  0  0
  -30.1329  -16.4191   18.0019 H   0  0  0  0  0  0
  -28.8078  -17.5638   18.3498 H   0  0  0  0  0  0
  -30.6605  -18.5716   21.2081 H   0  0  0  0  0  0
  -27.2373  -23.0508   17.6209 H   0  0  0  0  0  0
  -25.9453  -22.4787   18.6652 H   0  0  0  0  0  0
  -26.6281  -21.4161   17.4527 H   0  0  0  0  0  0
  -30.2026  -22.5645   22.1937 H   0  0  0  0  0  0
  -31.1249  -21.1300   21.7334 H   0  0  0  0  0  0
  -29.7138  -20.9711   22.7991 H   0  0  0  0  0  0
  -28.4260  -24.2256   21.7336 H   0  0  0  0  0  0
  -26.9525  -24.0889   20.8935 H   0  0  0  0  0  0
  1 25  1  0  0  0
  1 30  2  0  0  0
  1 82  1  0  0  0
  2  3  1  0  0  0
  2 25  1  0  0  0
  2 83  1  0  0  0
  2 84  1  0  0  0
  3  4  1  0  0  0
  3 85  1  0  0  0
  3 86  1  0  0  0
  4  5  1  0  0  0
  4 87  1  0  0  0
  4 88  1  0  0  0
  5  6  1  0  0  0
  5 26  1  0  0  0
  5 89  1  0  0  0
  6 25  1  0  0  0
  6 90  1  0  0  0
  6 91  1  0  0  0
  7  8  2  0  0  0
  7 26  1  0  0  0
  7 29  1  0  0  0
  8  9  1  0  0  0
  8 22  1  0  0  0
  9 10  1  0  0  0
  9 27  2  0  0  0
 10 11  2  0  0  0
 10 15  1  0  0  0
 11 12  1  0  0  0
 11 92  1  0  0  0
 12 13  2  0  0  0
 12 93  1  0  0  0
 13 14  1  0  0  0
 13 31  1  0  0  0
 14 15  2  0  0  0
 14 94  1  0  0  0
 15 95  1  0  0  0
 16 17  2  0  0  0
 16 21  1  0  0  0
 16 31  1  0  0  0
 17 18  1  0  0  0
 17 96  1  0  0  0
 18 19  2  0  0  0
 18 97  1  0  0  0
 19 20  1  0  0  0
 19 24  1  0  0  0
 20 21  2  0  0  0
 20 98  1  0  0  0
 21 23  1  0  0  0
 22 28  1  0  0  0
 22 32  2  0  0  0
 26 27  1  0  0  0
 28 99  1  0  0  0
 28100  1  0  0  0
 29101  1  0  0  0
 29102  1  0  0  0
 33 34  1  0  0  0
 33 66  1  0  0  0
 33 70  2  0  0  0
 34 36  1  0  0  0
 34 59  1  0  0  0
 34103  1  0  0  0
 35 44  2  0  0  0
 35 45  1  0  0  0
 35 68  1  0  0  0
 36 56  1  0  0  0
 36104  1  0  0  0
 37 39  1  0  0  0
 37 47  1  0  0  0
 37 66  1  0  0  0
 37105  1  0  0  0
 38 43  2  0  0  0
 38 46  1  0  0  0
 38 47  1  0  0  0
 39 64  1  0  0  0
 39 67  2  0  0  0
 40 52  1  0  0  0
 40 53  2  0  0  0
 40 58  1  0  0  0
 41106  1  0  0  0
 41107  1  0  0  0
 41108  1  0  0  0
 41 48  1  0  0  0
 42 43  1  0  0  0
 42 66  1  0  0  0
 42109  1  0  0  0
 42110  1  0  0  0
 43 44  1  0  0  0
 44111  1  0  0  0
 45 46  2  0  0  0
 45112  1  0  0  0
 46113  1  0  0  0
 47114  1  0  0  0
 47115  1  0  0  0
 48 56  1  0  0  0
 48 65  1  0  0  0
 48116  1  0  0  0
 49 50  1  0  0  0
 49 53  1  0  0  0
 49 64  1  0  0  0
 49117  1  0  0  0
 50 51  1  0  0  0
 50118  1  0  0  0
 50119  1  0  0  0
 51 52  1  0  0  0
 51120  1  0  0  0
 51121  1  0  0  0
 52122  1  0  0  0
 52123  1  0  0  0
 53 54  1  0  0  0
 54 55  2  0  0  0
 54124  1  0  0  0
 55 57  1  0  0  0
 55125  1  0  0  0
 56 69  2  0  0  0
 57 58  2  0  0  0
 57126  1  0  0  0
 58127  1  0  0  0
 59 60  1  0  0  0
 59 61  1  0  0  0
 59 62  1  0  0  0
 60128  1  0  0  0
 60129  1  0  0  0
 60130  1  0  0  0
 61131  1  0  0  0
 61132  1  0  0  0
 61133  1  0  0  0
 62134  1  0  0  0
 62135  1  0  0  0
 62136  1  0  0  0
 63 65  1  0  0  0
 63137  1  0  0  0
 63138  1  0  0  0
 63139  1  0  0  0
 64140  1  0  0  0
 65141  1  0  0  0
 68 79  1  0  0  0
 71 72  2  0  0  0
 71 77  1  0  0  0
 71 80  1  0  0  0
 72 79  1  0  0  0
 72 81  1  0  0  0
 73 80  2  0  0  0
 73 81  1  0  0  0
 73 76  1  0  0  0
 74 75  1  0  0  0
 74 76  1  0  0  0
 74142  1  0  0  0
 74143  1  0  0  0
 75 82  1  0  0  0
 75144  1  0  0  0
 75145  1  0  0  0
 76 82  1  0  0  0
 76146  1  0  0  0
 77147  1  0  0  0
 77148  1  0  0  0
 77149  1  0  0  0
 78 81  1  0  0  0
 78150  1  0  0  0
 78151  1  0  0  0
 78152  1  0  0  0
 79153  1  0  0  0
 79154  1  0  0  0
M  ISO  4   1 100  68 101  79 101  82 100
M  END
> <chiral flag>
0

> <version>
0

> <s_m_source_file>
/data/baiqing/PycharmProjects/Reinvent-master-3.2/result/LINK_invent/BTK/process_docking_weight1_custom_sum_contain_oxygen_bond_distance_aromatic_linkinvent_7_9_3/rearranged_h_0180.sdf

> <i_m_source_file_index>
25

> <r_mmod_Potential_Energy-OPLS-2005>
1739.47375488281

> <r_mmod_Stretch_Energy-OPLS-2005>
731.270263671875

> <r_mmod_Bend_Energy-OPLS-2005>
573.965698242188

> <r_mmod_Torsional_Energy-OPLS-2005>
294.868499755859

> <r_mmod_Improper_Torsional_Energy-OPLS-2005>
19.680456161499

> <r_mmod_Van_der_Waal_Energy-OPLS-2005>
107.473281860352

> <r_mmod_Electrostatic_Energy-OPLS-2005>
-368.07861328125

> <r_mmod_Solvation_Energy-OPLS-2005>
-215.592407226562

> <b_mmod_Minimization_Converged-OPLS-2005>
0

> <r_mmod_RMS_Derivative-OPLS-2005>
4.14949512481689

$$$$
25
                    3D
 Structure written by MMmdl.
148156  0  0  1  0            999 V2000
  -30.4622  -15.2103   20.3762 C   0  0  0  0  0  0
  -30.4364  -12.7689   19.5188 C   0  0  0  0  0  0
  -29.5303  -12.5605   18.2803 C   0  0  0  0  0  0
  -28.0768  -12.2959   18.7126 C   0  0  0  0  0  0
  -27.6126  -13.2698   19.8244 C   0  0  2  0  0  0
  -28.6480  -13.4237   20.9577 C   0  0  0  0  0  0
  -25.2400  -13.8233   20.5749 C   0  0  0  0  0  0
  -24.1751  -13.0435   20.9271 C   0  0  0  0  0  0
  -24.6400  -11.6930   20.8794 C   0  0  0  0  0  0
  -23.9099  -10.4293   21.0432 C   0  0  0  0  0  0
  -24.3647   -9.4202   21.9203 C   0  0  0  0  0  0
  -23.6313   -8.2238   22.0760 C   0  0  0  0  0  0
  -22.4290   -8.0293   21.3551 C   0  0  0  0  0  0
  -21.9941   -9.0270   20.4650 C   0  0  0  0  0  0
  -22.7280  -10.2142   20.3067 C   0  0  0  0  0  0
  -21.6850   -6.0759   22.5294 C   0  0  0  0  0  0
  -21.4010   -6.5663   23.8231 C   0  0  0  0  0  0
  -21.3651   -5.6806   24.9190 C   0  0  0  0  0  0
  -21.6033   -4.3069   24.7231 C   0  0  0  0  0  0
  -21.8815   -3.8169   23.4353 C   0  0  0  0  0  0
  -21.9189   -4.6986   22.3416 C   0  0  0  0  0  0
  -22.7775  -13.5196   21.1915 C   0  0  0  0  0  0
  -22.1664   -4.2179   21.0989 F   0  0  0  0  0  0
  -21.5617   -3.4549   25.7740 F   0  0  0  0  0  0
  -29.8852  -13.9144   20.3295 N   0  0  0  0  0  0
  -26.2821  -12.9499   20.3222 N   0  0  0  0  0  0
  -25.9327  -11.6611   20.5739 N   0  0  0  0  0  0
  -22.0422  -12.8178   22.0461 N   0  0  0  0  0  0
  -25.4046  -15.1961   20.4182 N   0  0  0  0  0  0
  -31.6837  -15.2083   20.1714 O   0  0  0  0  0  0
  -21.6638   -6.8903   21.4254 O   0  0  0  0  0  0
  -22.3463  -14.5505   20.6760 O   0  0  0  0  0  0
  -24.6619  -31.8255   23.1709 C   0  0  0  0  0  0
  -25.9297  -32.4605   23.8173 C   0  0  1  0  0  0
  -27.2109  -26.9478   20.1718 C   0  0  0  0  0  0
  -25.5969  -33.8422   24.2083 N   0  0  0  0  0  0
  -23.4745  -30.4405   21.5216 C   0  0  2  0  0  0
  -24.9248  -28.8345   20.1106 C   0  0  0  0  0  0
  -22.7662  -29.4464   22.4786 C   0  0  0  0  0  0
  -18.0322  -28.1430   22.8486 C   0  0  0  0  0  0
  -24.1486  -36.7195   23.2648 C   0  0  0  0  0  0
  -26.0449  -30.6384   21.3994 C   0  0  0  0  0  0
  -26.1108  -29.2316   20.7416 C   0  0  0  0  0  0
  -27.2495  -28.3093   20.7492 C   0  0  0  0  0  0
  -25.9934  -26.7016   19.4953 C   0  0  0  0  0  0
  -24.8906  -27.5885   19.4695 C   0  0  0  0  0  0
  -23.7113  -29.7608   20.1466 C   0  0  0  0  0  0
  -25.4126  -36.2979   24.0316 C   0  0  1  0  0  0
  -20.5950  -28.3765   23.1202 C   0  0  2  0  0  0
  -20.6810  -26.9450   22.5408 C   0  0  0  0  0  0
  -19.5773  -26.6395   21.5227 C   0  0  0  0  0  0
  -18.1952  -26.7966   22.1636 C   0  0  0  0  0  0
  -19.1584  -28.8912   23.2829 C   0  0  0  0  0  0
  -18.9499  -30.1506   23.8856 C   0  0  0  0  0  0
  -17.6494  -30.6616   24.0573 C   0  0  0  0  0  0
  -25.9096  -34.9364   23.5013 C   0  0  0  0  0  0
  -16.5379  -29.9117   23.6367 C   0  0  0  0  0  0
  -16.7303  -28.6540   23.0378 C   0  0  0  0  0  0
  -26.4545  -31.6544   25.0694 C   0  0  0  0  0  0
  -25.3668  -31.3811   26.1347 C   0  0  0  0  0  0
  -27.0438  -30.2917   24.6420 C   0  0  0  0  0  0
  -27.6041  -32.4362   25.7479 C   0  0  0  0  0  0
  -27.5567  -37.1749   24.8474 C   0  0  0  0  0  0
  -21.4327  -29.3045   22.3537 N   0  0  0  0  0  0
  -26.4267  -37.3719   23.9432 N   0  0  0  0  0  0
  -24.7487  -30.9945   22.0837 N   0  0  0  0  0  0
  -23.4225  -28.8038   23.3017 O   0  0  0  0  0  0
  -28.1989  -25.8351   20.2467 O   0  0  0  0  0  0
  -26.5707  -34.8900   22.4613 O   0  0  0  0  0  0
  -23.5688  -32.1216   23.6807 O   0  0  0  0  0  0
  -28.7462  -20.4575   21.3547 C   0  0  0  0  0  0
  -29.3670  -19.6487   20.3072 C   0  0  0  0  0  0
  -29.2259  -21.8867   19.1614 C   0  0  0  0  0  0
  -28.6048  -22.6989   20.2136 C   0  0  0  0  0  0
  -29.5186  -22.5081   17.8095 C   0  0  0  0  0  0
  -30.1336  -18.0822   20.4093 C   0  0  0  0  0  0
  -27.8133  -24.2541   20.0590 C   0  0  0  0  0  0
  -28.3797  -21.8399   21.2997 N   0  0  0  0  0  0
  -29.5912  -20.5060   19.2236 N   0  0  0  0  0  0
  -29.7162  -16.4814   20.4493 N   0  0  0  0  0  0
  -31.4584  -12.9614   19.1906 H   0  0  0  0  0  0
  -30.4876  -11.8579   20.1167 H   0  0  0  0  0  0
  -29.8981  -11.7306   17.6750 H   0  0  0  0  0  0
  -29.5680  -13.4455   17.6434 H   0  0  0  0  0  0
  -28.0304  -11.2723   19.0864 H   0  0  0  0  0  0
  -27.4046  -12.3384   17.8547 H   0  0  0  0  0  0
  -27.5342  -14.2410   19.3339 H   0  0  0  0  0  0
  -28.8036  -12.4804   21.4843 H   0  0  0  0  0  0
  -28.2982  -14.1434   21.7000 H   0  0  0  0  0  0
  -25.2785   -9.5672   22.4793 H   0  0  0  0  0  0
  -24.0024   -7.4615   22.7470 H   0  0  0  0  0  0
  -21.0877   -8.8792   19.8953 H   0  0  0  0  0  0
  -22.3746  -10.9689   19.6185 H   0  0  0  0  0  0
  -21.2008   -7.6172   23.9747 H   0  0  0  0  0  0
  -21.1466   -6.0536   25.9091 H   0  0  0  0  0  0
  -22.0593   -2.7634   23.2841 H   0  0  0  0  0  0
  -22.4047  -11.9840   22.4851 H   0  0  0  0  0  0
  -21.1034  -13.1192   22.2657 H   0  0  0  0  0  0
  -24.6314  -15.8449   20.5200 H   0  0  0  0  0  0
  -26.2420  -15.6341   20.0585 H   0  0  0  0  0  0
  -26.7363  -32.5143   23.0884 H   0  0  0  0  0  0
  -25.0094  -33.9510   25.0220 H   0  0  0  0  0  0
  -22.7874  -31.2719   21.3527 H   0  0  0  0  0  0
  -23.3773  -35.9498   23.3293 H   0  0  0  0  0  0
  -24.3568  -36.8849   22.2062 H   0  0  0  0  0  0
  -23.7216  -37.6370   23.6708 H   0  0  0  0  0  0
  -26.2254  -31.3819   20.6222 H   0  0  0  0  0  0
  -26.9052  -30.6895   22.0553 H   0  0  0  0  0  0
  -28.1460  -28.6111   21.2720 H   0  0  0  0  0  0
  -25.8463  -25.7543   18.9995 H   0  0  0  0  0  0
  -23.9884  -27.2779   18.9611 H   0  0  0  0  0  0
  -23.8669  -30.5308   19.3898 H   0  0  0  0  0  0
  -22.8208  -29.2162   19.8280 H   0  0  0  0  0  0
  -25.1321  -36.1764   25.0806 H   0  0  0  0  0  0
  -21.0038  -28.3359   24.1321 H   0  0  0  0  0  0
  -20.5717  -26.2375   23.3640 H   0  0  0  0  0  0
  -21.6671  -26.7458   22.1186 H   0  0  0  0  0  0
  -19.6950  -25.6299   21.1278 H   0  0  0  0  0  0
  -19.6717  -27.3197   20.6749 H   0  0  0  0  0  0
  -17.4229  -26.6717   21.4030 H   0  0  0  0  0  0
  -18.0335  -26.0112   22.9032 H   0  0  0  0  0  0
  -19.7972  -30.7343   24.2192 H   0  0  0  0  0  0
  -17.5054  -31.6292   24.5183 H   0  0  0  0  0  0
  -15.5384  -30.3017   23.7719 H   0  0  0  0  0  0
  -15.8698  -28.0854   22.7120 H   0  0  0  0  0  0
  -24.5858  -30.7155   25.7660 H   0  0  0  0  0  0
  -24.8833  -32.3009   26.4642 H   0  0  0  0  0  0
  -25.7881  -30.9062   27.0212 H   0  0  0  0  0  0
  -26.3103  -29.6598   24.1398 H   0  0  0  0  0  0
  -27.3948  -29.7284   25.5077 H   0  0  0  0  0  0
  -27.9060  -30.4124   23.9860 H   0  0  0  0  0  0
  -27.2610  -33.3718   26.1909 H   0  0  0  0  0  0
  -28.3896  -32.6833   25.0326 H   0  0  0  0  0  0
  -28.0647  -31.8577   26.5486 H   0  0  0  0  0  0
  -28.2569  -38.0060   24.7533 H   0  0  0  0  0  0
  -28.1067  -36.2588   24.6274 H   0  0  0  0  0  0
  -27.2287  -37.1360   25.8876 H   0  0  0  0  0  0
  -20.9572  -29.8716   21.6655 H   0  0  0  0  0  0
  -26.0107  -38.2772   24.1461 H   0  0  0  0  0  0
  -28.5637  -19.9882   22.3114 H   0  0  0  0  0  0
  -29.1676  -23.5361   17.7379 H   0  0  0  0  0  0
  -29.0399  -21.9325   17.0158 H   0  0  0  0  0  0
  -30.5930  -22.5149   17.6237 H   0  0  0  0  0  0
  -30.7416  -18.1869   21.3081 H   0  0  0  0  0  0
  -30.8690  -18.1155   19.6049 H   0  0  0  0  0  0
  -26.9306  -24.1385   20.6886 H   0  0  0  0  0  0
  -27.4141  -24.2070   19.0471 H   0  0  0  0  0  0
  -28.7232  -16.3394   20.5550 H   0  0  0  0  0  0
  1 25  1  0  0  0
  1 30  2  0  0  0
  1 80  1  0  0  0
  2  3  1  0  0  0
  2 25  1  0  0  0
  2 81  1  0  0  0
  2 82  1  0  0  0
  3  4  1  0  0  0
  3 83  1  0  0  0
  3 84  1  0  0  0
  4  5  1  0  0  0
  4 85  1  0  0  0
  4 86  1  0  0  0
  5  6  1  0  0  0
  5 26  1  0  0  0
  5 87  1  0  0  0
  6 25  1  0  0  0
  6 88  1  0  0  0
  6 89  1  0  0  0
  7  8  2  0  0  0
  7 26  1  0  0  0
  7 29  1  0  0  0
  8  9  1  0  0  0
  8 22  1  0  0  0
  9 10  1  0  0  0
  9 27  2  0  0  0
 10 11  2  0  0  0
 10 15  1  0  0  0
 11 12  1  0  0  0
 11 90  1  0  0  0
 12 13  2  0  0  0
 12 91  1  0  0  0
 13 14  1  0  0  0
 13 31  1  0  0  0
 14 15  2  0  0  0
 14 92  1  0  0  0
 15 93  1  0  0  0
 16 17  2  0  0  0
 16 21  1  0  0  0
 16 31  1  0  0  0
 17 18  1  0  0  0
 17 94  1  0  0  0
 18 19  2  0  0  0
 18 95  1  0  0  0
 19 20  1  0  0  0
 19 24  1  0  0  0
 20 21  2  0  0  0
 20 96  1  0  0  0
 21 23  1  0  0  0
 22 28  1  0  0  0
 22 32  2  0  0  0
 26 27  1  0  0  0
 28 97  1  0  0  0
 28 98  1  0  0  0
 29 99  1  0  0  0
 29100  1  0  0  0
 33 34  1  0  0  0
 33 66  1  0  0  0
 33 70  2  0  0  0
 34 36  1  0  0  0
 34 59  1  0  0  0
 34101  1  0  0  0
 35 44  2  0  0  0
 35 45  1  0  0  0
 35 68  1  0  0  0
 36 56  1  0  0  0
 36102  1  0  0  0
 37 39  1  0  0  0
 37 47  1  0  0  0
 37 66  1  0  0  0
 37103  1  0  0  0
 38 43  2  0  0  0
 38 46  1  0  0  0
 38 47  1  0  0  0
 39 64  1  0  0  0
 39 67  2  0  0  0
 40 52  1  0  0  0
 40 53  2  0  0  0
 40 58  1  0  0  0
 41104  1  0  0  0
 41105  1  0  0  0
 41106  1  0  0  0
 41 48  1  0  0  0
 42 43  1  0  0  0
 42 66  1  0  0  0
 42107  1  0  0  0
 42108  1  0  0  0
 43 44  1  0  0  0
 44109  1  0  0  0
 45 46  2  0  0  0
 45110  1  0  0  0
 46111  1  0  0  0
 47112  1  0  0  0
 47113  1  0  0  0
 48 56  1  0  0  0
 48 65  1  0  0  0
 48114  1  0  0  0
 49 50  1  0  0  0
 49 53  1  0  0  0
 49 64  1  0  0  0
 49115  1  0  0  0
 50 51  1  0  0  0
 50116  1  0  0  0
 50117  1  0  0  0
 51 52  1  0  0  0
 51118  1  0  0  0
 51119  1  0  0  0
 52120  1  0  0  0
 52121  1  0  0  0
 53 54  1  0  0  0
 54 55  2  0  0  0
 54122  1  0  0  0
 55 57  1  0  0  0
 55123  1  0  0  0
 56 69  2  0  0  0
 57 58  2  0  0  0
 57124  1  0  0  0
 58125  1  0  0  0
 59 60  1  0  0  0
 59 61  1  0  0  0
 59 62  1  0  0  0
 60126  1  0  0  0
 60127  1  0  0  0
 60128  1  0  0  0
 61129  1  0  0  0
 61130  1  0  0  0
 61131  1  0  0  0
 62132  1  0  0  0
 62133  1  0  0  0
 62134  1  0  0  0
 63 65  1  0  0  0
 63135  1  0  0  0
 63136  1  0  0  0
 63137  1  0  0  0
 64138  1  0  0  0
 65139  1  0  0  0
 68 77  1  0  0  0
 71 72  2  0  0  0
 71 78  1  0  0  0
 71140  1  0  0  0
 72 76  1  0  0  0
 72 79  1  0  0  0
 73 74  1  0  0  0
 73 75  1  0  0  0
 73 79  2  0  0  0
 74 77  1  0  0  0
 74 78  2  0  0  0
 75141  1  0  0  0
 75142  1  0  0  0
 75143  1  0  0  0
 76 80  1  0  0  0
 76144  1  0  0  0
 76145  1  0  0  0
 77146  1  0  0  0
 77147  1  0  0  0
 80148  1  0  0  0
M  ISO  4   1 100  68 101  77 101  80 100
M  END
> <chiral flag>
0

> <version>
0

> <s_m_source_file>
/data/baiqing/PycharmProjects/Reinvent-master-3.2/result/LINK_invent/BTK/process_docking_weight1_custom_sum_contain_oxygen_bond_distance_aromatic_linkinvent_7_9_3/rearranged_h_0180.sdf

> <i_m_source_file_index>
26

> <r_mmod_Potential_Energy-OPLS-2005>
1137.91967773438

> <r_mmod_Stretch_Energy-OPLS-2005>
493.155151367188

> <r_mmod_Bend_Energy-OPLS-2005>
430.026977539062

> <r_mmod_Torsional_Energy-OPLS-2005>
220.990219116211

> <r_mmod_Improper_Torsional_Energy-OPLS-2005>
9.08442401885986

> <r_mmod_Van_der_Waal_Energy-OPLS-2005>
134.380767822266

> <r_mmod_Electrostatic_Energy-OPLS-2005>
-328.680053710938

> <r_mmod_Solvation_Energy-OPLS-2005>
-237.4921875

> <b_mmod_Minimization_Converged-OPLS-2005>
0

> <r_mmod_RMS_Derivative-OPLS-2005>
1.81848573684692

$$$$
26
                    3D
 Structure written by MMmdl.
151160  0  0  1  0            999 V2000
  -30.5039  -15.0504   20.4105 C   0  0  0  0  0  0
  -30.4424  -12.6642   19.4925 C   0  0  0  0  0  0
  -29.5235  -12.5365   18.2552 C   0  0  0  0  0  0
  -28.0600  -12.3068   18.6796 C   0  0  0  0  0  0
  -27.6204  -13.2547   19.8256 C   0  0  2  0  0  0
  -28.6641  -13.3315   20.9572 C   0  0  0  0  0  0
  -25.2432  -13.8214   20.5713 C   0  0  0  0  0  0
  -24.1765  -13.0431   20.9243 C   0  0  0  0  0  0
  -24.6393  -11.6921   20.8760 C   0  0  0  0  0  0
  -23.9080  -10.4289   21.0408 C   0  0  0  0  0  0
  -24.3630   -9.4202   21.9182 C   0  0  0  0  0  0
  -23.6299   -8.2241   22.0751 C   0  0  0  0  0  0
  -22.4279   -8.0283   21.3544 C   0  0  0  0  0  0
  -21.9919   -9.0257   20.4643 C   0  0  0  0  0  0
  -22.7253  -10.2130   20.3055 C   0  0  0  0  0  0
  -21.6854   -6.0739   22.5279 C   0  0  0  0  0  0
  -21.4015   -6.5642   23.8213 C   0  0  0  0  0  0
  -21.3657   -5.6794   24.9176 C   0  0  0  0  0  0
  -21.6042   -4.3056   24.7225 C   0  0  0  0  0  0
  -21.8819   -3.8150   23.4345 C   0  0  0  0  0  0
  -21.9193   -4.6966   22.3402 C   0  0  0  0  0  0
  -22.7787  -13.5197   21.1897 C   0  0  0  0  0  0
  -22.1663   -4.2153   21.0980 F   0  0  0  0  0  0
  -21.5627   -3.4537   25.7736 F   0  0  0  0  0  0
  -29.9171  -13.7798   20.3367 N   0  0  0  0  0  0
  -26.2849  -12.9455   20.3207 N   0  0  0  0  0  0
  -25.9323  -11.6580   20.5724 N   0  0  0  0  0  0
  -22.0441  -12.8182   22.0450 N   0  0  0  0  0  0
  -25.4075  -15.1946   20.4137 N   0  0  0  0  0  0
  -31.7278  -15.0869   20.2377 O   0  0  0  0  0  0
  -21.6643   -6.8881   21.4239 O   0  0  0  0  0  0
  -22.3467  -14.5500   20.6739 O   0  0  0  0  0  0
  -24.6488  -31.8379   23.1807 C   0  0  0  0  0  0
  -25.9232  -32.4664   23.8224 C   0  0  1  0  0  0
  -27.2181  -27.0680   20.1790 C   0  0  0  0  0  0
  -25.5955  -33.8473   24.2141 N   0  0  0  0  0  0
  -23.4550  -30.4524   21.5286 C   0  0  2  0  0  0
  -24.9037  -28.8549   20.1223 C   0  0  0  0  0  0
  -22.7591  -29.4515   22.4852 C   0  0  0  0  0  0
  -18.0308  -28.1399   22.8475 C   0  0  0  0  0  0
  -24.1488  -36.7242   23.2645 C   0  0  0  0  0  0
  -26.0137  -30.6910   21.3862 C   0  0  0  0  0  0
  -26.0836  -29.2910   20.7385 C   0  0  0  0  0  0
  -27.2428  -28.4182   20.7366 C   0  0  0  0  0  0
  -26.0081  -26.7357   19.5376 C   0  0  0  0  0  0
  -24.8813  -27.5926   19.5053 C   0  0  0  0  0  0
  -23.6854  -29.7695   20.1534 C   0  0  0  0  0  0
  -25.4126  -36.3012   24.0306 C   0  0  1  0  0  0
  -20.5922  -28.3728   23.1230 C   0  0  2  0  0  0
  -20.6792  -26.9428   22.5408 C   0  0  0  0  0  0
  -19.5765  -26.6379   21.5218 C   0  0  0  0  0  0
  -18.1945  -26.7936   22.1625 C   0  0  0  0  0  0
  -19.1565  -28.8885   23.2841 C   0  0  0  0  0  0
  -18.9480  -30.1481   23.8866 C   0  0  0  0  0  0
  -17.6475  -30.6594   24.0558 C   0  0  0  0  0  0
  -25.9082  -34.9392   23.5038 C   0  0  0  0  0  0
  -16.5366  -29.9085   23.6339 C   0  0  0  0  0  0
  -16.7292  -28.6505   23.0357 C   0  0  0  0  0  0
  -26.4532  -31.6562   25.0699 C   0  0  0  0  0  0
  -25.3699  -31.3774   26.1383 C   0  0  0  0  0  0
  -27.0415  -30.2952   24.6329 C   0  0  0  0  0  0
  -27.6041  -32.4353   25.7499 C   0  0  0  0  0  0
  -27.5571  -37.1779   24.8464 C   0  0  0  0  0  0
  -21.4278  -29.3044   22.3598 N   0  0  0  0  0  0
  -26.4284  -37.3734   23.9407 N   0  0  0  0  0  0
  -24.7264  -31.0175   22.0868 N   0  0  0  0  0  0
  -23.4208  -28.8082   23.3037 O   0  0  0  0  0  0
  -28.3071  -26.1086   20.1246 O   0  0  0  0  0  0
  -26.5679  -34.8904   22.4624 O   0  0  0  0  0  0
  -23.5592  -32.1283   23.6992 O   0  0  0  0  0  0
  -30.3045  -20.1072   19.3752 C   0  0  0  0  0  0
  -28.7030  -20.3935   20.7372 C   0  0  0  0  0  0
  -29.5903  -19.3280   20.3479 C   0  0  0  0  0  0
  -26.6499  -22.7780   19.5823 C   0  0  0  0  0  0
  -27.5722  -23.1783   18.4701 C   0  0  0  0  0  0
  -28.1010  -23.1009   19.8944 C   0  0  0  0  0  0
  -30.0483  -17.7827   20.8978 C   0  0  0  0  0  0
  -28.3695  -24.6010   20.6300 C   0  0  0  0  0  0
  -29.9359  -21.4042   19.2329 N   0  0  0  0  0  0
  -28.8990  -21.6902   20.0701 N   0  0  0  0  0  0
  -29.7248  -16.2649   20.4800 N   0  0  0  0  0  0
  -31.4683  -12.8501   19.1705 H   0  0  0  0  0  0
  -30.4713  -11.7305   20.0562 H   0  0  0  0  0  0
  -29.8609  -11.7210   17.6140 H   0  0  0  0  0  0
  -29.5921  -13.4459   17.6562 H   0  0  0  0  0  0
  -27.9734  -11.2711   19.0087 H   0  0  0  0  0  0
  -27.3944  -12.4101   17.8219 H   0  0  0  0  0  0
  -27.5649  -14.2450   19.3733 H   0  0  0  0  0  0
  -28.7847  -12.3681   21.4546 H   0  0  0  0  0  0
  -28.3479  -14.0407   21.7236 H   0  0  0  0  0  0
  -25.2774   -9.5680   22.4755 H   0  0  0  0  0  0
  -24.0007   -7.4634   22.7471 H   0  0  0  0  0  0
  -21.0852   -8.8782   19.8947 H   0  0  0  0  0  0
  -22.3717  -10.9674   19.6168 H   0  0  0  0  0  0
  -21.2009   -7.6151   23.9719 H   0  0  0  0  0  0
  -21.1479   -6.0524   25.9078 H   0  0  0  0  0  0
  -22.0600   -2.7612   23.2843 H   0  0  0  0  0  0
  -22.4067  -11.9850   22.4845 H   0  0  0  0  0  0
  -21.1053  -13.1194   22.2653 H   0  0  0  0  0  0
  -24.6349  -15.8419   20.5266 H   0  0  0  0  0  0
  -26.2424  -15.6376   20.0541 H   0  0  0  0  0  0
  -26.7300  -32.5251   23.0950 H   0  0  0  0  0  0
  -25.0070  -33.9574   25.0266 H   0  0  0  0  0  0
  -22.7605  -31.2792   21.3662 H   0  0  0  0  0  0
  -23.3758  -35.9566   23.3289 H   0  0  0  0  0  0
  -24.3565  -36.8903   22.2063 H   0  0  0  0  0  0
  -23.7238  -37.6426   23.6705 H   0  0  0  0  0  0
  -26.1724  -31.4367   20.6058 H   0  0  0  0  0  0
  -26.8827  -30.7492   22.0303 H   0  0  0  0  0  0
  -28.1531  -28.7606   21.2083 H   0  0  0  0  0  0
  -25.9253  -25.7730   19.0554 H   0  0  0  0  0  0
  -23.9815  -27.2539   19.0103 H   0  0  0  0  0  0
  -23.8306  -30.5372   19.3927 H   0  0  0  0  0  0
  -22.7979  -29.2154   19.8428 H   0  0  0  0  0  0
  -25.1320  -36.1825   25.0798 H   0  0  0  0  0  0
  -21.0008  -28.3320   24.1353 H   0  0  0  0  0  0
  -20.5685  -26.2344   23.3632 H   0  0  0  0  0  0
  -21.6657  -26.7430   22.1206 H   0  0  0  0  0  0
  -19.6925  -25.6281   21.1270 H   0  0  0  0  0  0
  -19.6702  -27.3171   20.6733 H   0  0  0  0  0  0
  -17.4216  -26.6680   21.4027 H   0  0  0  0  0  0
  -18.0339  -26.0088   22.9031 H   0  0  0  0  0  0
  -19.7955  -30.7307   24.2218 H   0  0  0  0  0  0
  -17.5026  -31.6270   24.5166 H   0  0  0  0  0  0
  -15.5364  -30.2975   23.7682 H   0  0  0  0  0  0
  -15.8693  -28.0814   22.7088 H   0  0  0  0  0  0
  -24.5877  -30.7127   25.7695 H   0  0  0  0  0  0
  -24.8892  -32.2968   26.4736 H   0  0  0  0  0  0
  -25.7962  -30.8987   27.0207 H   0  0  0  0  0  0
  -26.3047  -29.6654   24.1332 H   0  0  0  0  0  0
  -27.4001  -29.7280   25.4929 H   0  0  0  0  0  0
  -27.8961  -30.4174   23.9673 H   0  0  0  0  0  0
  -27.2608  -33.3674   26.2001 H   0  0  0  0  0  0
  -28.3893  -32.6887   25.0366 H   0  0  0  0  0  0
  -28.0665  -31.8537   26.5486 H   0  0  0  0  0  0
  -28.2578  -38.0085   24.7510 H   0  0  0  0  0  0
  -28.1078  -36.2613   24.6292 H   0  0  0  0  0  0
  -27.2288  -37.1425   25.8867 H   0  0  0  0  0  0
  -20.9506  -29.8738   21.6751 H   0  0  0  0  0  0
  -26.0141  -38.2798   24.1413 H   0  0  0  0  0  0
  -31.1491  -19.7755   18.7871 H   0  0  0  0  0  0
  -27.9178  -20.3394   21.4786 H   0  0  0  0  0  0
  -25.8981  -23.4975   19.9001 H   0  0  0  0  0  0
  -26.3315  -21.7379   19.6178 H   0  0  0  0  0  0
  -27.4419  -24.1687   18.0395 H   0  0  0  0  0  0
  -27.8622  -22.4055   17.7612 H   0  0  0  0  0  0
  -31.1392  -17.7881   20.9006 H   0  0  0  0  0  0
  -29.8176  -17.7695   21.9635 H   0  0  0  0  0  0
  -29.3867  -24.5232   21.0137 H   0  0  0  0  0  0
  -27.7574  -24.5902   21.5324 H   0  0  0  0  0  0
  -28.7345  -16.0746   20.4536 H   0  0  0  0  0  0
  1 25  1  0  0  0
  1 30  2  0  0  0
  1 81  1  0  0  0
  2  3  1  0  0  0
  2 25  1  0  0  0
  2 82  1  0  0  0
  2 83  1  0  0  0
  3  4  1  0  0  0
  3 84  1  0  0  0
  3 85  1  0  0  0
  4  5  1  0  0  0
  4 86  1  0  0  0
  4 87  1  0  0  0
  5  6  1  0  0  0
  5 26  1  0  0  0
  5 88  1  0  0  0
  6 25  1  0  0  0
  6 89  1  0  0  0
  6 90  1  0  0  0
  7  8  2  0  0  0
  7 26  1  0  0  0
  7 29  1  0  0  0
  8  9  1  0  0  0
  8 22  1  0  0  0
  9 10  1  0  0  0
  9 27  2  0  0  0
 10 11  2  0  0  0
 10 15  1  0  0  0
 11 12  1  0  0  0
 11 91  1  0  0  0
 12 13  2  0  0  0
 12 92  1  0  0  0
 13 14  1  0  0  0
 13 31  1  0  0  0
 14 15  2  0  0  0
 14 93  1  0  0  0
 15 94  1  0  0  0
 16 17  2  0  0  0
 16 21  1  0  0  0
 16 31  1  0  0  0
 17 18  1  0  0  0
 17 95  1  0  0  0
 18 19  2  0  0  0
 18 96  1  0  0  0
 19 20  1  0  0  0
 19 24  1  0  0  0
 20 21  2  0  0  0
 20 97  1  0  0  0
 21 23  1  0  0  0
 22 28  1  0  0  0
 22 32  2  0  0  0
 26 27  1  0  0  0
 28 98  1  0  0  0
 28 99  1  0  0  0
 29100  1  0  0  0
 29101  1  0  0  0
 33 34  1  0  0  0
 33 66  1  0  0  0
 33 70  2  0  0  0
 34 36  1  0  0  0
 34 59  1  0  0  0
 34102  1  0  0  0
 35 44  2  0  0  0
 35 45  1  0  0  0
 35 68  1  0  0  0
 36 56  1  0  0  0
 36103  1  0  0  0
 37 39  1  0  0  0
 37 47  1  0  0  0
 37 66  1  0  0  0
 37104  1  0  0  0
 38 43  2  0  0  0
 38 46  1  0  0  0
 38 47  1  0  0  0
 39 64  1  0  0  0
 39 67  2  0  0  0
 40 52  1  0  0  0
 40 53  2  0  0  0
 40 58  1  0  0  0
 41105  1  0  0  0
 41106  1  0  0  0
 41107  1  0  0  0
 41 48  1  0  0  0
 42 43  1  0  0  0
 42 66  1  0  0  0
 42108  1  0  0  0
 42109  1  0  0  0
 43 44  1  0  0  0
 44110  1  0  0  0
 45 46  2  0  0  0
 45111  1  0  0  0
 46112  1  0  0  0
 47113  1  0  0  0
 47114  1  0  0  0
 48 56  1  0  0  0
 48 65  1  0  0  0
 48115  1  0  0  0
 49 50  1  0  0  0
 49 53  1  0  0  0
 49 64  1  0  0  0
 49116  1  0  0  0
 50 51  1  0  0  0
 50117  1  0  0  0
 50118  1  0  0  0
 51 52  1  0  0  0
 51119  1  0  0  0
 51120  1  0  0  0
 52121  1  0  0  0
 52122  1  0  0  0
 53 54  1  0  0  0
 54 55  2  0  0  0
 54123  1  0  0  0
 55 57  1  0  0  0
 55124  1  0  0  0
 56 69  2  0  0  0
 57 58  2  0  0  0
 57125  1  0  0  0
 58126  1  0  0  0
 59 60  1  0  0  0
 59 61  1  0  0  0
 59 62  1  0  0  0
 60127  1  0  0  0
 60128  1  0  0  0
 60129  1  0  0  0
 61130  1  0  0  0
 61131  1  0  0  0
 61132  1  0  0  0
 62133  1  0  0  0
 62134  1  0  0  0
 62135  1  0  0  0
 63 65  1  0  0  0
 63136  1  0  0  0
 63137  1  0  0  0
 63138  1  0  0  0
 64139  1  0  0  0
 65140  1  0  0  0
 68 78  1  0  0  0
 71 73  1  0  0  0
 71 79  2  0  0  0
 71141  1  0  0  0
 72 73  2  0  0  0
 72 80  1  0  0  0
 72142  1  0  0  0
 73 77  1  0  0  0
 74 75  1  0  0  0
 74 76  1  0  0  0
 74143  1  0  0  0
 74144  1  0  0  0
 75 76  1  0  0  0
 75145  1  0  0  0
 75146  1  0  0  0
 76 78  1  0  0  0
 76 80  1  0  0  0
 77 81  1  0  0  0
 77147  1  0  0  0
 77148  1  0  0  0
 78149  1  0  0  0
 78150  1  0  0  0
 79 80  1  0  0  0
 81151  1  0  0  0
M  ISO  4   1 100  68 101  78 101  81 100
M  END
> <chiral flag>
0

> <version>
0

> <s_m_source_file>
/data/baiqing/PycharmProjects/Reinvent-master-3.2/result/LINK_invent/BTK/process_docking_weight1_custom_sum_contain_oxygen_bond_distance_aromatic_linkinvent_7_9_3/rearranged_h_0180.sdf

> <i_m_source_file_index>
27

> <r_mmod_Potential_Energy-OPLS-2005>
786.572204589844

> <r_mmod_Stretch_Energy-OPLS-2005>
339.384216308594

> <r_mmod_Bend_Energy-OPLS-2005>
361.590759277344

> <r_mmod_Torsional_Energy-OPLS-2005>
309.022125244141

> <r_mmod_Improper_Torsional_Energy-OPLS-2005>
8.33269119262695

> <r_mmod_Van_der_Waal_Energy-OPLS-2005>
102.80598449707

> <r_mmod_Electrostatic_Energy-OPLS-2005>
-357.864501953125

> <r_mmod_Solvation_Energy-OPLS-2005>
-232.719497680664

> <b_mmod_Minimization_Converged-OPLS-2005>
0

> <r_mmod_RMS_Derivative-OPLS-2005>
0.531322121620178

$$$$
27
                    3D
 Structure written by MMmdl.
151160  0  0  1  0            999 V2000
  -30.4838  -15.0661   20.3926 C   0  0  0  0  0  0
  -30.4420  -12.6575   19.5268 C   0  0  0  0  0  0
  -29.5340  -12.5597   18.2758 C   0  0  0  0  0  0
  -28.0674  -12.3280   18.6833 C   0  0  0  0  0  0
  -27.6287  -13.2610   19.8418 C   0  0  2  0  0  0
  -28.6653  -13.3189   20.9861 C   0  0  0  0  0  0
  -25.2437  -13.8233   20.5723 C   0  0  0  0  0  0
  -24.1768  -13.0437   20.9229 C   0  0  0  0  0  0
  -24.6403  -11.6927   20.8737 C   0  0  0  0  0  0
  -23.9086  -10.4288   21.0386 C   0  0  0  0  0  0
  -24.3632   -9.4203   21.9165 C   0  0  0  0  0  0
  -23.6304   -8.2237   22.0745 C   0  0  0  0  0  0
  -22.4279   -8.0274   21.3540 C   0  0  0  0  0  0
  -21.9913   -9.0249   20.4641 C   0  0  0  0  0  0
  -22.7251  -10.2124   20.3044 C   0  0  0  0  0  0
  -21.6856   -6.0728   22.5277 C   0  0  0  0  0  0
  -21.4022   -6.5636   23.8210 C   0  0  0  0  0  0
  -21.3665   -5.6790   24.9171 C   0  0  0  0  0  0
  -21.6047   -4.3050   24.7223 C   0  0  0  0  0  0
  -21.8817   -3.8142   23.4343 C   0  0  0  0  0  0
  -21.9192   -4.6956   22.3401 C   0  0  0  0  0  0
  -22.7782  -13.5199   21.1883 C   0  0  0  0  0  0
  -22.1658   -4.2138   21.0975 F   0  0  0  0  0  0
  -21.5628   -3.4544   25.7742 F   0  0  0  0  0  0
  -29.9351  -13.7696   20.3981 N   0  0  0  0  0  0
  -26.2879  -12.9490   20.3239 N   0  0  0  0  0  0
  -25.9336  -11.6601   20.5703 N   0  0  0  0  0  0
  -22.0429  -12.8191   22.0439 N   0  0  0  0  0  0
  -25.4089  -15.1970   20.4173 N   0  0  0  0  0  0
  -31.6602  -15.1423   20.0176 O   0  0  0  0  0  0
  -21.6641   -6.8875   21.4239 O   0  0  0  0  0  0
  -22.3460  -14.5495   20.6717 O   0  0  0  0  0  0
  -24.6500  -31.8350   23.1785 C   0  0  0  0  0  0
  -25.9236  -32.4645   23.8212 C   0  0  1  0  0  0
  -27.2311  -27.0564   20.1623 C   0  0  0  0  0  0
  -25.5949  -33.8451   24.2137 N   0  0  0  0  0  0
  -23.4589  -30.4472   21.5238 C   0  0  2  0  0  0
  -24.9149  -28.8558   20.1022 C   0  0  0  0  0  0
  -22.7606  -29.4493   22.4814 C   0  0  0  0  0  0
  -18.0310  -28.1414   22.8463 C   0  0  0  0  0  0
  -24.1496  -36.7234   23.2642 C   0  0  0  0  0  0
  -26.0172  -30.6809   21.3898 C   0  0  0  0  0  0
  -26.0881  -29.2823   20.7349 C   0  0  0  0  0  0
  -27.2365  -28.3950   20.7544 C   0  0  0  0  0  0
  -26.0363  -26.7501   19.4743 C   0  0  0  0  0  0
  -24.9070  -27.6073   19.4556 C   0  0  0  0  0  0
  -23.6923  -29.7656   20.1461 C   0  0  0  0  0  0
  -25.4129  -36.3002   24.0312 C   0  0  1  0  0  0
  -20.5924  -28.3738   23.1228 C   0  0  2  0  0  0
  -20.6789  -26.9432   22.5417 C   0  0  0  0  0  0
  -19.5774  -26.6385   21.5215 C   0  0  0  0  0  0
  -18.1950  -26.7945   22.1618 C   0  0  0  0  0  0
  -19.1565  -28.8892   23.2835 C   0  0  0  0  0  0
  -18.9479  -30.1486   23.8862 C   0  0  0  0  0  0
  -17.6476  -30.6601   24.0556 C   0  0  0  0  0  0
  -25.9084  -34.9381   23.5043 C   0  0  0  0  0  0
  -16.5368  -29.9095   23.6334 C   0  0  0  0  0  0
  -16.7293  -28.6519   23.0344 C   0  0  0  0  0  0
  -26.4526  -31.6539   25.0681 C   0  0  0  0  0  0
  -25.3693  -31.3764   26.1365 C   0  0  0  0  0  0
  -27.0375  -30.2917   24.6314 C   0  0  0  0  0  0
  -27.6068  -32.4296   25.7457 C   0  0  0  0  0  0
  -27.5581  -37.1777   24.8463 C   0  0  0  0  0  0
  -21.4285  -29.3034   22.3574 N   0  0  0  0  0  0
  -26.4287  -37.3723   23.9404 N   0  0  0  0  0  0
  -24.7286  -31.0125   22.0856 N   0  0  0  0  0  0
  -23.4210  -28.8072   23.3020 O   0  0  0  0  0  0
  -28.2674  -26.0405   20.3295 O   0  0  0  0  0  0
  -26.5680  -34.8901   22.4631 O   0  0  0  0  0  0
  -23.5598  -32.1265   23.6962 O   0  0  0  0  0  0
  -27.4196  -20.9419   20.4835 C   0  0  0  0  0  0
  -27.1227  -22.2925   20.3276 C   0  0  0  0  0  0
  -28.3461  -23.0222   20.1664 C   0  0  0  0  0  0
  -30.7219  -18.7812   20.2175 C   0  0  0  0  0  0
  -29.4398  -19.2402   20.8900 C   0  0  2  0  0  0
  -29.6039  -17.7509   20.0949 C   0  0  2  0  0  0
  -25.7413  -22.8879   20.2891 C   0  0  0  0  0  0
  -28.4661  -24.6295   19.6255 C   0  0  0  0  0  0
  -29.3295  -21.9896   20.2530 N   0  0  0  0  0  0
  -28.7790  -20.6558   20.4253 N   0  0  0  0  0  0
  -29.6892  -16.2493   20.6426 N   0  0  0  0  0  0
  -31.4747  -12.8217   19.2187 H   0  0  0  0  0  0
  -30.4475  -11.7119   20.0721 H   0  0  0  0  0  0
  -29.8746  -11.7576   17.6193 H   0  0  0  0  0  0
  -29.6115  -13.4816   17.6968 H   0  0  0  0  0  0
  -27.9726  -11.2878   18.9935 H   0  0  0  0  0  0
  -27.4084  -12.4512   17.8226 H   0  0  0  0  0  0
  -27.5817  -14.2591   19.4043 H   0  0  0  0  0  0
  -28.7733  -12.3467   21.4701 H   0  0  0  0  0  0
  -28.3408  -14.0145   21.7619 H   0  0  0  0  0  0
  -25.2773   -9.5688   22.4743 H   0  0  0  0  0  0
  -24.0016   -7.4636   22.7472 H   0  0  0  0  0  0
  -21.0838   -8.8773   19.8958 H   0  0  0  0  0  0
  -22.3702  -10.9661   19.6158 H   0  0  0  0  0  0
  -21.2021   -7.6145   23.9718 H   0  0  0  0  0  0
  -21.1494   -6.0511   25.9077 H   0  0  0  0  0  0
  -22.0592   -2.7601   23.2841 H   0  0  0  0  0  0
  -22.4062  -11.9874   22.4858 H   0  0  0  0  0  0
  -21.1041  -13.1202   22.2639 H   0  0  0  0  0  0
  -24.6397  -15.8472   20.5352 H   0  0  0  0  0  0
  -26.2526  -15.6401   20.0777 H   0  0  0  0  0  0
  -26.7293  -32.5224   23.0925 H   0  0  0  0  0  0
  -25.0046  -33.9542   25.0251 H   0  0  0  0  0  0
  -22.7643  -31.2740   21.3598 H   0  0  0  0  0  0
  -23.3760  -35.9564   23.3290 H   0  0  0  0  0  0
  -24.3583  -36.8879   22.2059 H   0  0  0  0  0  0
  -23.7261  -37.6431   23.6686 H   0  0  0  0  0  0
  -26.1782  -31.4274   20.6109 H   0  0  0  0  0  0
  -26.8850  -30.7394   22.0351 H   0  0  0  0  0  0
  -28.1199  -28.7091   21.2932 H   0  0  0  0  0  0
  -25.9347  -25.7885   18.9941 H   0  0  0  0  0  0
  -24.0117  -27.2761   18.9473 H   0  0  0  0  0  0
  -23.8330  -30.5358   19.3866 H   0  0  0  0  0  0
  -22.8060  -29.2098   19.8355 H   0  0  0  0  0  0
  -25.1325  -36.1812   25.0804 H   0  0  0  0  0  0
  -21.0009  -28.3337   24.1355 H   0  0  0  0  0  0
  -20.5669  -26.2354   23.3640 H   0  0  0  0  0  0
  -21.6657  -26.7421   22.1230 H   0  0  0  0  0  0
  -19.6936  -25.6283   21.1278 H   0  0  0  0  0  0
  -19.6733  -27.3162   20.6717 H   0  0  0  0  0  0
  -17.4225  -26.6678   21.4016 H   0  0  0  0  0  0
  -18.0355  -26.0104   22.9036 H   0  0  0  0  0  0
  -19.7949  -30.7306   24.2227 H   0  0  0  0  0  0
  -17.5026  -31.6276   24.5167 H   0  0  0  0  0  0
  -15.5364  -30.2984   23.7685 H   0  0  0  0  0  0
  -15.8695  -28.0835   22.7068 H   0  0  0  0  0  0
  -24.5902  -30.7067   25.7695 H   0  0  0  0  0  0
  -24.8830  -32.2946   26.4668 H   0  0  0  0  0  0
  -25.7959  -30.9032   27.0220 H   0  0  0  0  0  0
  -26.2987  -29.6634   24.1318 H   0  0  0  0  0  0
  -27.3942  -29.7231   25.4912 H   0  0  0  0  0  0
  -27.8925  -30.4110   23.9659 H   0  0  0  0  0  0
  -27.2686  -33.3634   26.1961 H   0  0  0  0  0  0
  -28.3911  -32.6791   25.0296 H   0  0  0  0  0  0
  -28.0695  -31.8456   26.5423 H   0  0  0  0  0  0
  -28.2584  -38.0085   24.7489 H   0  0  0  0  0  0
  -28.1089  -36.2611   24.6297 H   0  0  0  0  0  0
  -27.2300  -37.1437   25.8867 H   0  0  0  0  0  0
  -20.9530  -29.8708   21.6699 H   0  0  0  0  0  0
  -26.0147  -38.2793   24.1383 H   0  0  0  0  0  0
  -26.7318  -20.1272   20.6662 H   0  0  0  0  0  0
  -31.5555  -18.5401   20.8750 H   0  0  0  0  0  0
  -31.0118  -19.2933   19.3024 H   0  0  0  0  0  0
  -29.4217  -19.2024   21.9772 H   0  0  0  0  0  0
  -29.1080  -17.7684   19.1260 H   0  0  0  0  0  0
  -24.9933  -22.2152   20.7096 H   0  0  0  0  0  0
  -25.4261  -23.1125   19.2700 H   0  0  0  0  0  0
  -25.6834  -23.8178   20.8548 H   0  0  0  0  0  0
  -27.8738  -24.6877   18.7134 H   0  0  0  0  0  0
  -29.4837  -24.7199   19.2460 H   0  0  0  0  0  0
  -28.8155  -15.9810   21.0714 H   0  0  0  0  0  0
  1 25  1  0  0  0
  1 30  2  0  0  0
  1 81  1  0  0  0
  2  3  1  0  0  0
  2 25  1  0  0  0
  2 82  1  0  0  0
  2 83  1  0  0  0
  3  4  1  0  0  0
  3 84  1  0  0  0
  3 85  1  0  0  0
  4  5  1  0  0  0
  4 86  1  0  0  0
  4 87  1  0  0  0
  5  6  1  0  0  0
  5 26  1  0  0  0
  5 88  1  0  0  0
  6 25  1  0  0  0
  6 89  1  0  0  0
  6 90  1  0  0  0
  7  8  2  0  0  0
  7 26  1  0  0  0
  7 29  1  0  0  0
  8  9  1  0  0  0
  8 22  1  0  0  0
  9 10  1  0  0  0
  9 27  2  0  0  0
 10 11  2  0  0  0
 10 15  1  0  0  0
 11 12  1  0  0  0
 11 91  1  0  0  0
 12 13  2  0  0  0
 12 92  1  0  0  0
 13 14  1  0  0  0
 13 31  1  0  0  0
 14 15  2  0  0  0
 14 93  1  0  0  0
 15 94  1  0  0  0
 16 17  2  0  0  0
 16 21  1  0  0  0
 16 31  1  0  0  0
 17 18  1  0  0  0
 17 95  1  0  0  0
 18 19  2  0  0  0
 18 96  1  0  0  0
 19 20  1  0  0  0
 19 24  1  0  0  0
 20 21  2  0  0  0
 20 97  1  0  0  0
 21 23  1  0  0  0
 22 28  1  0  0  0
 22 32  2  0  0  0
 26 27  1  0  0  0
 28 98  1  0  0  0
 28 99  1  0  0  0
 29100  1  0  0  0
 29101  1  0  0  0
 33 34  1  0  0  0
 33 66  1  0  0  0
 33 70  2  0  0  0
 34 36  1  0  0  0
 34 59  1  0  0  0
 34102  1  0  0  0
 35 44  2  0  0  0
 35 45  1  0  0  0
 35 68  1  0  0  0
 36 56  1  0  0  0
 36103  1  0  0  0
 37 39  1  0  0  0
 37 47  1  0  0  0
 37 66  1  0  0  0
 37104  1  0  0  0
 38 43  2  0  0  0
 38 46  1  0  0  0
 38 47  1  0  0  0
 39 64  1  0  0  0
 39 67  2  0  0  0
 40 52  1  0  0  0
 40 53  2  0  0  0
 40 58  1  0  0  0
 41105  1  0  0  0
 41106  1  0  0  0
 41107  1  0  0  0
 41 48  1  0  0  0
 42 43  1  0  0  0
 42 66  1  0  0  0
 42108  1  0  0  0
 42109  1  0  0  0
 43 44  1  0  0  0
 44110  1  0  0  0
 45 46  2  0  0  0
 45111  1  0  0  0
 46112  1  0  0  0
 47113  1  0  0  0
 47114  1  0  0  0
 48 56  1  0  0  0
 48 65  1  0  0  0
 48115  1  0  0  0
 49 50  1  0  0  0
 49 53  1  0  0  0
 49 64  1  0  0  0
 49116  1  0  0  0
 50 51  1  0  0  0
 50117  1  0  0  0
 50118  1  0  0  0
 51 52  1  0  0  0
 51119  1  0  0  0
 51120  1  0  0  0
 52121  1  0  0  0
 52122  1  0  0  0
 53 54  1  0  0  0
 54 55  2  0  0  0
 54123  1  0  0  0
 55 57  1  0  0  0
 55124  1  0  0  0
 56 69  2  0  0  0
 57 58  2  0  0  0
 57125  1  0  0  0
 58126  1  0  0  0
 59 60  1  0  0  0
 59 61  1  0  0  0
 59 62  1  0  0  0
 60127  1  0  0  0
 60128  1  0  0  0
 60129  1  0  0  0
 61130  1  0  0  0
 61131  1  0  0  0
 61132  1  0  0  0
 62133  1  0  0  0
 62134  1  0  0  0
 62135  1  0  0  0
 63 65  1  0  0  0
 63136  1  0  0  0
 63137  1  0  0  0
 63138  1  0  0  0
 64139  1  0  0  0
 65140  1  0  0  0
 68 78  1  0  0  0
 71 72  2  0  0  0
 71 80  1  0  0  0
 71141  1  0  0  0
 72 73  1  0  0  0
 72 77  1  0  0  0
 73 78  1  0  0  0
 73 79  2  0  0  0
 74 75  1  0  0  0
 74 76  1  0  0  0
 74142  1  0  0  0
 74143  1  0  0  0
 75 76  1  0  0  0
 75 80  1  0  0  0
 75144  1  0  0  0
 76 81  1  0  0  0
 76145  1  0  0  0
 77146  1  0  0  0
 77147  1  0  0  0
 77148  1  0  0  0
 78149  1  0  0  0
 78150  1  0  0  0
 79 80  1  0  0  0
 81151  1  0  0  0
M  ISO  4   1 100  68 101  78 101  81 100
M  END
> <chiral flag>
0

> <version>
0

> <s_m_source_file>
/data/baiqing/PycharmProjects/Reinvent-master-3.2/result/LINK_invent/BTK/process_docking_weight1_custom_sum_contain_oxygen_bond_distance_aromatic_linkinvent_7_9_3/rearranged_h_0180.sdf

> <i_m_source_file_index>
28

> <r_mmod_Potential_Energy-OPLS-2005>
888.64208984375

> <r_mmod_Stretch_Energy-OPLS-2005>
368.857604980469

> <r_mmod_Bend_Energy-OPLS-2005>
375.438293457031

> <r_mmod_Torsional_Energy-OPLS-2005>
314.209045410156

> <r_mmod_Improper_Torsional_Energy-OPLS-2005>
10.0730285644531

> <r_mmod_Van_der_Waal_Energy-OPLS-2005>
100.180328369141

> <r_mmod_Electrostatic_Energy-OPLS-2005>
-321.297424316406

> <r_mmod_Solvation_Energy-OPLS-2005>
-240.685424804688

> <b_mmod_Minimization_Converged-OPLS-2005>
0

> <r_mmod_RMS_Derivative-OPLS-2005>
1.51461100578308

$$$$
28
                    3D
 Structure written by MMmdl.
155163  0  0  1  0            999 V2000
  -30.5729  -14.7465   20.4345 C   0  0  0  0  0  0
  -30.4308  -12.4466   19.4717 C   0  0  0  0  0  0
  -29.5185  -12.5420   18.2276 C   0  0  0  0  0  0
  -28.0371  -12.3724   18.6198 C   0  0  0  0  0  0
  -27.6443  -13.2408   19.8469 C   0  0  2  0  0  0
  -28.6857  -13.1428   20.9844 C   0  0  0  0  0  0
  -25.2539  -13.8251   20.5613 C   0  0  0  0  0  0
  -24.1851  -13.0480   20.9153 C   0  0  0  0  0  0
  -24.6449  -11.6967   20.8726 C   0  0  0  0  0  0
  -23.9134  -10.4342   21.0393 C   0  0  0  0  0  0
  -24.3691   -9.4262   21.9173 C   0  0  0  0  0  0
  -23.6359   -8.2307   22.0756 C   0  0  0  0  0  0
  -22.4325   -8.0347   21.3566 C   0  0  0  0  0  0
  -21.9962   -9.0309   20.4657 C   0  0  0  0  0  0
  -22.7309  -10.2177   20.3039 C   0  0  0  0  0  0
  -21.6880   -6.0780   22.5282 C   0  0  0  0  0  0
  -21.4043   -6.5670   23.8220 C   0  0  0  0  0  0
  -21.3645   -5.6801   24.9172 C   0  0  0  0  0  0
  -21.6042   -4.3064   24.7200 C   0  0  0  0  0  0
  -21.8838   -3.8170   23.4316 C   0  0  0  0  0  0
  -21.9213   -4.7002   22.3384 C   0  0  0  0  0  0
  -22.7844  -13.5250   21.1799 C   0  0  0  0  0  0
  -22.1683   -4.2199   21.0953 F   0  0  0  0  0  0
  -21.5598   -3.4534   25.7697 F   0  0  0  0  0  0
  -29.9899  -13.4972   20.4179 N   0  0  0  0  0  0
  -26.2966  -12.9456   20.3197 N   0  0  0  0  0  0
  -25.9378  -11.6612   20.5703 N   0  0  0  0  0  0
  -22.0500  -12.8244   22.0360 N   0  0  0  0  0  0
  -25.4206  -15.1992   20.4030 N   0  0  0  0  0  0
  -31.7524  -14.8639   20.0999 O   0  0  0  0  0  0
  -21.6699   -6.8931   21.4253 O   0  0  0  0  0  0
  -22.3519  -14.5540   20.6624 O   0  0  0  0  0  0
  -24.6349  -31.8507   23.1931 C   0  0  0  0  0  0
  -25.9161  -32.4731   23.8294 C   0  0  1  0  0  0
  -27.2295  -27.2614   20.1429 C   0  0  0  0  0  0
  -25.5939  -33.8523   24.2218 N   0  0  0  0  0  0
  -23.4330  -30.4711   21.5348 C   0  0  2  0  0  0
  -24.8808  -28.9065   20.1136 C   0  0  0  0  0  0
  -22.7505  -29.4594   22.4884 C   0  0  0  0  0  0
  -18.0290  -28.1408   22.8447 C   0  0  0  0  0  0
  -24.1495  -36.7305   23.2638 C   0  0  0  0  0  0
  -25.9761  -30.7699   21.3645 C   0  0  0  0  0  0
  -26.0495  -29.3869   20.7173 C   0  0  0  0  0  0
  -27.2312  -28.5779   20.7108 C   0  0  0  0  0  0
  -26.0402  -26.8376   19.5185 C   0  0  0  0  0  0
  -24.8810  -27.6413   19.5004 C   0  0  0  0  0  0
  -23.6522  -29.7952   20.1537 C   0  0  0  0  0  0
  -25.4106  -36.3052   24.0325 C   0  0  1  0  0  0
  -20.5894  -28.3719   23.1252 C   0  0  2  0  0  0
  -20.6777  -26.9424   22.5402 C   0  0  0  0  0  0
  -19.5762  -26.6387   21.5197 C   0  0  0  0  0  0
  -18.1940  -26.7942   22.1601 C   0  0  0  0  0  0
  -19.1541  -28.8873   23.2849 C   0  0  0  0  0  0
  -18.9453  -30.1469   23.8878 C   0  0  0  0  0  0
  -17.6445  -30.6586   24.0561 C   0  0  0  0  0  0
  -25.9040  -34.9426   23.5071 C   0  0  0  0  0  0
  -16.5342  -29.9087   23.6329 C   0  0  0  0  0  0
  -16.7274  -28.6522   23.0308 C   0  0  0  0  0  0
  -26.4501  -31.6554   25.0689 C   0  0  0  0  0  0
  -25.3749  -31.3669   26.1423 C   0  0  0  0  0  0
  -27.0350  -30.2986   24.6161 C   0  0  0  0  0  0
  -27.6071  -32.4264   25.7491 C   0  0  0  0  0  0
  -27.5567  -37.1798   24.8446 C   0  0  0  0  0  0
  -21.4194  -29.3077   22.3655 N   0  0  0  0  0  0
  -26.4272  -37.3757   23.9406 N   0  0  0  0  0  0
  -24.7016  -31.0475   22.0897 N   0  0  0  0  0  0
  -23.4198  -28.8126   23.2978 O   0  0  0  0  0  0
  -28.3478  -26.4048   20.1262 O   0  0  0  0  0  0
  -26.5591  -34.8917   22.4626 O   0  0  0  0  0  0
  -23.5492  -32.1307   23.7238 O   0  0  0  0  0  0
  -30.9888  -18.0691   19.7289 C   0  0  0  0  0  0
  -28.9643  -21.0819   19.9399 C   0  0  0  0  0  0
  -28.8467  -18.4177   20.7599 C   0  0  0  0  0  0
  -29.7216  -17.2863   20.0693 C   0  0  2  0  0  0
  -29.6218  -19.8163   20.6914 C   0  0  1  0  0  0
  -31.9920  -20.3259   19.8989 C   0  0  0  0  0  0
  -28.5039  -23.6729   19.8207 C   0  0  0  0  0  0
  -28.2771  -25.0171   20.7012 C   0  0  0  0  0  0
  -30.8988  -19.3739   20.0898 N   0  0  0  0  0  0
  -28.9036  -22.3530   20.4951 N   0  0  0  0  0  0
  -29.7303  -15.8386   20.6129 N   0  0  0  0  0  0
  -31.9483  -17.5668   19.1415 O   0  0  0  0  0  0
  -28.5433  -20.9041   18.7965 O   0  0  0  0  0  0
  -31.4785  -12.5706   19.1901 H   0  0  0  0  0  0
  -30.3517  -11.4542   19.9218 H   0  0  0  0  0  0
  -29.8000  -11.7988   17.4808 H   0  0  0  0  0  0
  -29.6609  -13.5143   17.7496 H   0  0  0  0  0  0
  -27.8668  -11.3167   18.8381 H   0  0  0  0  0  0
  -27.4014  -12.6155   17.7657 H   0  0  0  0  0  0
  -27.6412  -14.2712   19.4884 H   0  0  0  0  0  0
  -28.7097  -12.1335   21.3975 H   0  0  0  0  0  0
  -28.4300  -13.8057   21.8133 H   0  0  0  0  0  0
  -25.2854   -9.5752   22.4729 H   0  0  0  0  0  0
  -24.0086   -7.4707   22.7471 H   0  0  0  0  0  0
  -21.0886   -8.8843   19.8965 H   0  0  0  0  0  0
  -22.3794  -10.9717   19.6136 H   0  0  0  0  0  0
  -21.2071   -7.6181   23.9735 H   0  0  0  0  0  0
  -21.1422   -6.0523   25.9073 H   0  0  0  0  0  0
  -22.0626   -2.7634   23.2796 H   0  0  0  0  0  0
  -22.4133  -11.9945   22.4794 H   0  0  0  0  0  0
  -21.1088  -13.1236   22.2492 H   0  0  0  0  0  0
  -24.6475  -15.8462   20.5129 H   0  0  0  0  0  0
  -26.2588  -15.6449   20.0529 H   0  0  0  0  0  0
  -26.7249  -32.5380   23.1059 H   0  0  0  0  0  0
  -25.0117  -33.9622   25.0388 H   0  0  0  0  0  0
  -22.7347  -31.2961   21.3767 H   0  0  0  0  0  0
  -23.3748  -35.9648   23.3262 H   0  0  0  0  0  0
  -24.3614  -36.8963   22.2064 H   0  0  0  0  0  0
  -23.7268  -37.6506   23.6684 H   0  0  0  0  0  0
  -26.0947  -31.5244   20.5868 H   0  0  0  0  0  0
  -26.8650  -30.8375   21.9804 H   0  0  0  0  0  0
  -28.1369  -28.9418   21.1738 H   0  0  0  0  0  0
  -26.0103  -25.8678   19.0407 H   0  0  0  0  0  0
  -23.9880  -27.2731   19.0135 H   0  0  0  0  0  0
  -23.7773  -30.5648   19.3911 H   0  0  0  0  0  0
  -22.7733  -29.2234   19.8518 H   0  0  0  0  0  0
  -25.1303  -36.1873   25.0822 H   0  0  0  0  0  0
  -20.9989  -28.3303   24.1368 H   0  0  0  0  0  0
  -20.5641  -26.2322   23.3611 H   0  0  0  0  0  0
  -21.6643  -26.7417   22.1202 H   0  0  0  0  0  0
  -19.6915  -25.6281   21.1261 H   0  0  0  0  0  0
  -19.6731  -27.3171   20.6708 H   0  0  0  0  0  0
  -17.4198  -26.6648   21.4023 H   0  0  0  0  0  0
  -18.0359  -26.0101   22.9018 H   0  0  0  0  0  0
  -19.7923  -30.7293   24.2242 H   0  0  0  0  0  0
  -17.4994  -31.6266   24.5162 H   0  0  0  0  0  0
  -15.5338  -30.2976   23.7672 H   0  0  0  0  0  0
  -15.8673  -28.0868   22.6990 H   0  0  0  0  0  0
  -24.5970  -30.6950   25.7760 H   0  0  0  0  0  0
  -24.8888  -32.2810   26.4847 H   0  0  0  0  0  0
  -25.8124  -30.8874   27.0193 H   0  0  0  0  0  0
  -26.2912  -29.6716   24.1228 H   0  0  0  0  0  0
  -27.4079  -29.7269   25.4666 H   0  0  0  0  0  0
  -27.8773  -30.4269   23.9366 H   0  0  0  0  0  0
  -27.2712  -33.3583   26.2052 H   0  0  0  0  0  0
  -28.3942  -32.6753   25.0361 H   0  0  0  0  0  0
  -28.0669  -31.8361   26.5424 H   0  0  0  0  0  0
  -28.2542  -38.0127   24.7509 H   0  0  0  0  0  0
  -28.1101  -36.2657   24.6250 H   0  0  0  0  0  0
  -27.2294  -37.1430   25.8847 H   0  0  0  0  0  0
  -20.9359  -29.8843   21.6908 H   0  0  0  0  0  0
  -26.0143  -38.2827   24.1416 H   0  0  0  0  0  0
  -28.6652  -18.1698   21.8051 H   0  0  0  0  0  0
  -27.8642  -18.4914   20.2897 H   0  0  0  0  0  0
  -29.2642  -17.1463   19.0863 H   0  0  0  0  0  0
  -29.8396  -20.1337   21.7122 H   0  0  0  0  0  0
  -32.9640  -19.8460   20.0272 H   0  0  0  0  0  0
  -31.9339  -21.1510   20.6086 H   0  0  0  0  0  0
  -31.9547  -20.7329   18.8895 H   0  0  0  0  0  0
  -29.2865  -23.8942   19.0939 H   0  0  0  0  0  0
  -27.6033  -23.4899   19.2344 H   0  0  0  0  0  0
  -29.0754  -25.0148   21.4421 H   0  0  0  0  0  0
  -27.3615  -24.9129   21.2842 H   0  0  0  0  0  0
  -29.2401  -22.4394   21.4463 H   0  0  0  0  0  0
  -28.8358  -15.5505   20.9722 H   0  0  0  0  0  0
  1 25  1  0  0  0
  1 30  2  0  0  0
  1 81  1  0  0  0
  2  3  1  0  0  0
  2 25  1  0  0  0
  2 84  1  0  0  0
  2 85  1  0  0  0
  3  4  1  0  0  0
  3 86  1  0  0  0
  3 87  1  0  0  0
  4  5  1  0  0  0
  4 88  1  0  0  0
  4 89  1  0  0  0
  5  6  1  0  0  0
  5 26  1  0  0  0
  5 90  1  0  0  0
  6 25  1  0  0  0
  6 91  1  0  0  0
  6 92  1  0  0  0
  7  8  2  0  0  0
  7 26  1  0  0  0
  7 29  1  0  0  0
  8  9  1  0  0  0
  8 22  1  0  0  0
  9 10  1  0  0  0
  9 27  2  0  0  0
 10 11  2  0  0  0
 10 15  1  0  0  0
 11 12  1  0  0  0
 11 93  1  0  0  0
 12 13  2  0  0  0
 12 94  1  0  0  0
 13 14  1  0  0  0
 13 31  1  0  0  0
 14 15  2  0  0  0
 14 95  1  0  0  0
 15 96  1  0  0  0
 16 17  2  0  0  0
 16 21  1  0  0  0
 16 31  1  0  0  0
 17 18  1  0  0  0
 17 97  1  0  0  0
 18 19  2  0  0  0
 18 98  1  0  0  0
 19 20  1  0  0  0
 19 24  1  0  0  0
 20 21  2  0  0  0
 20 99  1  0  0  0
 21 23  1  0  0  0
 22 28  1  0  0  0
 22 32  2  0  0  0
 26 27  1  0  0  0
 28100  1  0  0  0
 28101  1  0  0  0
 29102  1  0  0  0
 29103  1  0  0  0
 33 34  1  0  0  0
 33 66  1  0  0  0
 33 70  2  0  0  0
 34 36  1  0  0  0
 34 59  1  0  0  0
 34104  1  0  0  0
 35 44  2  0  0  0
 35 45  1  0  0  0
 35 68  1  0  0  0
 36 56  1  0  0  0
 36105  1  0  0  0
 37 39  1  0  0  0
 37 47  1  0  0  0
 37 66  1  0  0  0
 37106  1  0  0  0
 38 43  2  0  0  0
 38 46  1  0  0  0
 38 47  1  0  0  0
 39 64  1  0  0  0
 39 67  2  0  0  0
 40 52  1  0  0  0
 40 53  2  0  0  0
 40 58  1  0  0  0
 41107  1  0  0  0
 41108  1  0  0  0
 41109  1  0  0  0
 41 48  1  0  0  0
 42 43  1  0  0  0
 42 66  1  0  0  0
 42110  1  0  0  0
 42111  1  0  0  0
 43 44  1  0  0  0
 44112  1  0  0  0
 45 46  2  0  0  0
 45113  1  0  0  0
 46114  1  0  0  0
 47115  1  0  0  0
 47116  1  0  0  0
 48 56  1  0  0  0
 48 65  1  0  0  0
 48117  1  0  0  0
 49 50  1  0  0  0
 49 53  1  0  0  0
 49 64  1  0  0  0
 49118  1  0  0  0
 50 51  1  0  0  0
 50119  1  0  0  0
 50120  1  0  0  0
 51 52  1  0  0  0
 51121  1  0  0  0
 51122  1  0  0  0
 52123  1  0  0  0
 52124  1  0  0  0
 53 54  1  0  0  0
 54 55  2  0  0  0
 54125  1  0  0  0
 55 57  1  0  0  0
 55126  1  0  0  0
 56 69  2  0  0  0
 57 58  2  0  0  0
 57127  1  0  0  0
 58128  1  0  0  0
 59 60  1  0  0  0
 59 61  1  0  0  0
 59 62  1  0  0  0
 60129  1  0  0  0
 60130  1  0  0  0
 60131  1  0  0  0
 61132  1  0  0  0
 61133  1  0  0  0
 61134  1  0  0  0
 62135  1  0  0  0
 62136  1  0  0  0
 62137  1  0  0  0
 63 65  1  0  0  0
 63138  1  0  0  0
 63139  1  0  0  0
 63140  1  0  0  0
 64141  1  0  0  0
 65142  1  0  0  0
 68 78  1  0  0  0
 71 74  1  0  0  0
 71 79  1  0  0  0
 71 82  2  0  0  0
 72 80  1  0  0  0
 72 83  2  0  0  0
 72 75  1  0  0  0
 73 74  1  0  0  0
 73 75  1  0  0  0
 73143  1  0  0  0
 73144  1  0  0  0
 74 81  1  0  0  0
 74145  1  0  0  0
 75 79  1  0  0  0
 75146  1  0  0  0
 76 79  1  0  0  0
 76147  1  0  0  0
 76148  1  0  0  0
 76149  1  0  0  0
 77 78  1  0  0  0
 77 80  1  0  0  0
 77150  1  0  0  0
 77151  1  0  0  0
 78152  1  0  0  0
 78153  1  0  0  0
 80154  1  0  0  0
 81155  1  0  0  0
M  ISO  4   1 100  68 101  78 101  81 100
M  END
> <chiral flag>
0

> <version>
0

> <s_m_source_file>
/data/baiqing/PycharmProjects/Reinvent-master-3.2/result/LINK_invent/BTK/process_docking_weight1_custom_sum_contain_oxygen_bond_distance_aromatic_linkinvent_7_9_3/rearranged_h_0180.sdf

> <i_m_source_file_index>
29

> <r_mmod_Potential_Energy-OPLS-2005>
16.0276107788086

> <r_mmod_Stretch_Energy-OPLS-2005>
122.808876037598

> <r_mmod_Bend_Energy-OPLS-2005>
213.517059326172

> <r_mmod_Torsional_Energy-OPLS-2005>
268.135284423828

> <r_mmod_Improper_Torsional_Energy-OPLS-2005>
6.79879522323608

> <r_mmod_Van_der_Waal_Energy-OPLS-2005>
110.543785095215

> <r_mmod_Electrostatic_Energy-OPLS-2005>
-498.181213378906

> <r_mmod_Solvation_Energy-OPLS-2005>
-288.772186279297

> <b_mmod_Minimization_Converged-OPLS-2005>
0

> <r_mmod_RMS_Derivative-OPLS-2005>
3.93025946617126

$$$$
29
                    3D
 Structure written by MMmdl.
172181  0  0  1  0            999 V2000
  -30.7418  -14.4206   20.5433 C   0  0  0  0  0  0
  -30.4104  -12.2666   19.4200 C   0  0  0  0  0  0
  -29.4904  -12.4887   18.2035 C   0  0  0  0  0  0
  -28.0109  -12.3633   18.6171 C   0  0  0  0  0  0
  -27.6611  -13.2084   19.8718 C   0  0  2  0  0  0
  -28.7054  -13.0061   20.9937 C   0  0  0  0  0  0
  -25.2598  -13.8167   20.5692 C   0  0  0  0  0  0
  -24.1847  -13.0443   20.9169 C   0  0  0  0  0  0
  -24.6403  -11.6908   20.8733 C   0  0  0  0  0  0
  -23.9064  -10.4299   21.0403 C   0  0  0  0  0  0
  -24.3609   -9.4208   21.9178 C   0  0  0  0  0  0
  -23.6281   -8.2248   22.0756 C   0  0  0  0  0  0
  -22.4265   -8.0283   21.3547 C   0  0  0  0  0  0
  -21.9904   -9.0260   20.4651 C   0  0  0  0  0  0
  -22.7238  -10.2135   20.3057 C   0  0  0  0  0  0
  -21.6854   -6.0731   22.5279 C   0  0  0  0  0  0
  -21.4020   -6.5637   23.8213 C   0  0  0  0  0  0
  -21.3664   -5.6789   24.9174 C   0  0  0  0  0  0
  -21.6042   -4.3053   24.7230 C   0  0  0  0  0  0
  -21.8821   -3.8143   23.4353 C   0  0  0  0  0  0
  -21.9194   -4.6957   22.3404 C   0  0  0  0  0  0
  -22.7868  -13.5236   21.1824 C   0  0  0  0  0  0
  -22.1660   -4.2144   21.0982 F   0  0  0  0  0  0
  -21.5626   -3.4537   25.7743 F   0  0  0  0  0  0
  -30.0368  -13.2670   20.4272 N   0  0  0  0  0  0
  -26.3035  -12.9341   20.3379 N   0  0  0  0  0  0
  -25.9331  -11.6497   20.5782 N   0  0  0  0  0  0
  -22.0507  -12.8233   22.0393 N   0  0  0  0  0  0
  -25.4337  -15.1880   20.4115 N   0  0  0  0  0  0
  -31.9140  -14.5306   20.1699 O   0  0  0  0  0  0
  -21.6639   -6.8870   21.4241 O   0  0  0  0  0  0
  -22.3551  -14.5542   20.6676 O   0  0  0  0  0  0
  -24.6094  -31.8708   23.2119 C   0  0  0  0  0  0
  -25.9010  -32.4839   23.8404 C   0  0  1  0  0  0
  -27.2562  -27.4787   20.1018 C   0  0  0  0  0  0
  -25.5887  -33.8636   24.2340 N   0  0  0  0  0  0
  -23.3953  -30.4927   21.5496 C   0  0  2  0  0  0
  -24.8482  -28.9632   20.1163 C   0  0  0  0  0  0
  -22.7384  -29.4664   22.4998 C   0  0  0  0  0  0
  -18.0257  -28.1362   22.8484 C   0  0  0  0  0  0
  -24.1492  -36.7322   23.2641 C   0  0  0  0  0  0
  -25.9166  -30.8570   21.3525 C   0  0  0  0  0  0
  -26.0021  -29.4916   20.7074 C   0  0  0  0  0  0
  -27.2080  -28.7617   20.6984 C   0  0  0  0  0  0
  -26.0862  -26.9621   19.5068 C   0  0  0  0  0  0
  -24.8834  -27.6944   19.5118 C   0  0  0  0  0  0
  -23.6038  -29.8206   20.1648 C   0  0  0  0  0  0
  -25.4110  -36.3125   24.0343 C   0  0  1  0  0  0
  -20.5845  -28.3642   23.1328 C   0  0  2  0  0  0
  -20.6752  -26.9385   22.5417 C   0  0  0  0  0  0
  -19.5736  -26.6375   21.5204 C   0  0  0  0  0  0
  -18.1911  -26.7906   22.1614 C   0  0  0  0  0  0
  -19.1509  -28.8820   23.2898 C   0  0  0  0  0  0
  -18.9448  -30.1420   23.8914 C   0  0  0  0  0  0
  -17.6460  -30.6575   24.0563 C   0  0  0  0  0  0
  -25.9031  -34.9484   23.5139 C   0  0  0  0  0  0
  -16.5344  -29.9087   23.6315 C   0  0  0  0  0  0
  -16.7249  -28.6497   23.0343 C   0  0  0  0  0  0
  -26.4466  -31.6602   25.0704 C   0  0  0  0  0  0
  -25.3759  -31.3695   26.1473 C   0  0  0  0  0  0
  -27.0275  -30.3059   24.6009 C   0  0  0  0  0  0
  -27.6046  -32.4316   25.7467 C   0  0  0  0  0  0
  -27.5582  -37.1815   24.8464 C   0  0  0  0  0  0
  -21.4114  -29.3022   22.3750 N   0  0  0  0  0  0
  -26.4299  -37.3800   23.9404 N   0  0  0  0  0  0
  -24.6585  -31.0870   22.0977 N   0  0  0  0  0  0
  -23.4183  -28.8203   23.3014 O   0  0  0  0  0  0
  -28.3726  -26.6731   20.0514 O   0  0  0  0  0  0
  -26.5588  -34.8929   22.4694 O   0  0  0  0  0  0
  -23.5299  -32.1411   23.7558 O   0  0  0  0  0  0
  -27.2090  -20.7353   18.9847 C   0  0  0  0  0  0
  -28.6938  -22.2377   18.0536 C   0  0  0  0  0  0
  -29.6529  -21.9065   19.0490 C   0  0  0  0  0  0
  -28.1749  -20.3701   19.9531 C   0  0  0  0  0  0
  -29.0081  -17.5224   19.5251 C   0  0  0  0  0  0
  -28.7690  -17.2614   21.9976 C   0  0  0  0  0  0
  -30.1406  -16.4958   19.5517 C   0  0  0  0  0  0
  -29.8860  -16.1921   21.9708 C   0  0  0  0  0  0
  -28.9612  -18.2813   20.8607 C   0  0  0  0  0  0
  -28.9756  -23.2293   16.9402 C   0  0  0  0  0  0
  -31.0383  -22.5417   19.1271 C   0  0  0  0  0  0
  -31.1736  -23.6001   20.2404 C   0  0  0  0  0  0
  -30.3164  -25.7647   21.1183 C   0  0  0  0  0  0
  -29.5536  -27.0500   20.7587 C   0  0  0  0  0  0
  -27.4667  -21.6642   18.0333 N   0  0  0  0  0  0
  -29.3870  -20.9748   19.9966 N   0  0  0  0  0  0
  -29.9871  -15.5346   20.6572 N   0  0  0  0  0  0
  -27.9348  -19.3207   20.8504 N   0  0  0  0  0  0
  -30.3983  -24.8329   19.9709 N   0  3  0  0  0  0
  -31.4579  -12.3346   19.1198 H   0  0  0  0  0  0
  -30.2797  -11.2618   19.8239 H   0  0  0  0  0  0
  -29.7215  -11.7667   17.4188 H   0  0  0  0  0  0
  -29.6740  -13.4737   17.7736 H   0  0  0  0  0  0
  -27.8134  -11.3082   18.8122 H   0  0  0  0  0  0
  -27.3641  -12.6420   17.7848 H   0  0  0  0  0  0
  -27.7006  -14.2543   19.5671 H   0  0  0  0  0  0
  -28.6656  -11.9872   21.3824 H   0  0  0  0  0  0
  -28.4901  -13.6588   21.8395 H   0  0  0  0  0  0
  -25.2756   -9.5677   22.4741 H   0  0  0  0  0  0
  -23.9990   -7.4643   22.7470 H   0  0  0  0  0  0
  -21.0838   -8.8771   19.8953 H   0  0  0  0  0  0
  -22.3693  -10.9663   19.6160 H   0  0  0  0  0  0
  -21.2014   -7.6146   23.9715 H   0  0  0  0  0  0
  -21.1481   -6.0523   25.9075 H   0  0  0  0  0  0
  -22.0595   -2.7607   23.2862 H   0  0  0  0  0  0
  -22.4129  -11.9905   22.4789 H   0  0  0  0  0  0
  -21.1127  -13.1266   22.2584 H   0  0  0  0  0  0
  -24.6732  -15.8484   20.5254 H   0  0  0  0  0  0
  -26.3004  -15.6225   20.1249 H   0  0  0  0  0  0
  -26.7094  -32.5590   23.1192 H   0  0  0  0  0  0
  -25.0059  -33.9801   25.0504 H   0  0  0  0  0  0
  -22.6806  -31.3063   21.4093 H   0  0  0  0  0  0
  -23.3746  -35.9663   23.3321 H   0  0  0  0  0  0
  -24.3591  -36.8914   22.2050 H   0  0  0  0  0  0
  -23.7246  -37.6539   23.6637 H   0  0  0  0  0  0
  -26.0139  -31.6230   20.5818 H   0  0  0  0  0  0
  -26.8090  -30.9215   21.9629 H   0  0  0  0  0  0
  -28.0821  -29.2102   21.1457 H   0  0  0  0  0  0
  -26.1087  -25.9873   19.0404 H   0  0  0  0  0  0
  -23.9973  -27.2773   19.0521 H   0  0  0  0  0  0
  -23.7038  -30.5922   19.4002 H   0  0  0  0  0  0
  -22.7323  -29.2321   19.8729 H   0  0  0  0  0  0
  -25.1287  -36.2006   25.0838 H   0  0  0  0  0  0
  -20.9926  -28.3202   24.1452 H   0  0  0  0  0  0
  -20.5646  -26.2252   23.3599 H   0  0  0  0  0  0
  -21.6628  -26.7427   22.1223 H   0  0  0  0  0  0
  -19.6913  -25.6294   21.1219 H   0  0  0  0  0  0
  -19.6691  -27.3199   20.6748 H   0  0  0  0  0  0
  -17.4187  -26.6640   21.4016 H   0  0  0  0  0  0
  -18.0317  -26.0044   22.9006 H   0  0  0  0  0  0
  -19.7930  -30.7205   24.2320 H   0  0  0  0  0  0
  -17.5022  -31.6265   24.5151 H   0  0  0  0  0  0
  -15.5350  -30.3008   23.7623 H   0  0  0  0  0  0
  -15.8637  -28.0826   22.7064 H   0  0  0  0  0  0
  -24.5908  -30.7071   25.7815 H   0  0  0  0  0  0
  -24.8991  -32.2857   26.4965 H   0  0  0  0  0  0
  -25.8130  -30.8828   27.0198 H   0  0  0  0  0  0
  -26.2774  -29.6839   24.1111 H   0  0  0  0  0  0
  -27.4129  -29.7268   25.4407 H   0  0  0  0  0  0
  -27.8574  -30.4401   23.9066 H   0  0  0  0  0  0
  -27.2655  -33.3591   26.2086 H   0  0  0  0  0  0
  -28.3836  -32.6914   25.0293 H   0  0  0  0  0  0
  -28.0734  -31.8421   26.5355 H   0  0  0  0  0  0
  -28.2609  -38.0102   24.7506 H   0  0  0  0  0  0
  -28.1064  -36.2633   24.6302 H   0  0  0  0  0  0
  -27.2293  -37.1485   25.8865 H   0  0  0  0  0  0
  -20.9272  -29.8769   21.7001 H   0  0  0  0  0  0
  -26.0196  -38.2882   24.1407 H   0  0  0  0  0  0
  -26.2453  -20.2503   18.9404 H   0  0  0  0  0  0
  -28.0591  -17.0216   19.3300 H   0  0  0  0  0  0
  -29.1805  -18.2012   18.6885 H   0  0  0  0  0  0
  -28.7745  -17.7691   22.9633 H   0  0  0  0  0  0
  -27.7971  -16.7731   21.9117 H   0  0  0  0  0  0
  -31.1022  -17.0069   19.6376 H   0  0  0  0  0  0
  -30.1560  -15.9707   18.5933 H   0  0  0  0  0  0
  -29.7072  -15.4556   22.7558 H   0  0  0  0  0  0
  -30.8454  -16.6576   22.2055 H   0  0  0  0  0  0
  -29.9313  -18.7559   21.0237 H   0  0  0  0  0  0
  -29.8106  -22.8850   16.3297 H   0  0  0  0  0  0
  -29.2200  -24.2105   17.3412 H   0  0  0  0  0  0
  -28.1146  -23.3470   16.2823 H   0  0  0  0  0  0
  -31.3325  -22.9631   18.1667 H   0  0  0  0  0  0
  -31.7583  -21.7443   19.3180 H   0  0  0  0  0  0
  -32.2236  -23.8721   20.3518 H   0  0  0  0  0  0
  -30.8663  -23.1646   21.1927 H   0  0  0  0  0  0
  -29.8046  -25.2641   21.9409 H   0  0  0  0  0  0
  -31.3155  -26.0183   21.4757 H   0  0  0  0  0  0
  -30.1591  -27.7023   20.1286 H   0  0  0  0  0  0
  -29.3452  -27.5784   21.6888 H   0  0  0  0  0  0
  -26.9870  -18.9621   20.7849 H   0  0  0  0  0  0
  -29.4503  -24.5893   19.7287 H   0  0  0  0  0  0
  -30.8063  -25.3150   19.1844 H   0  0  0  0  0  0
  1 25  1  0  0  0
  1 30  2  0  0  0
  1 87  1  0  0  0
  2  3  1  0  0  0
  2 25  1  0  0  0
  2 90  1  0  0  0
  2 91  1  0  0  0
  3  4  1  0  0  0
  3 92  1  0  0  0
  3 93  1  0  0  0
  4  5  1  0  0  0
  4 94  1  0  0  0
  4 95  1  0  0  0
  5  6  1  0  0  0
  5 26  1  0  0  0
  5 96  1  0  0  0
  6 25  1  0  0  0
  6 97  1  0  0  0
  6 98  1  0  0  0
  7  8  2  0  0  0
  7 26  1  0  0  0
  7 29  1  0  0  0
  8  9  1  0  0  0
  8 22  1  0  0  0
  9 10  1  0  0  0
  9 27  2  0  0  0
 10 11  2  0  0  0
 10 15  1  0  0  0
 11 12  1  0  0  0
 11 99  1  0  0  0
 12 13  2  0  0  0
 12100  1  0  0  0
 13 14  1  0  0  0
 13 31  1  0  0  0
 14 15  2  0  0  0
 14101  1  0  0  0
 15102  1  0  0  0
 16 17  2  0  0  0
 16 21  1  0  0  0
 16 31  1  0  0  0
 17 18  1  0  0  0
 17103  1  0  0  0
 18 19  2  0  0  0
 18104  1  0  0  0
 19 20  1  0  0  0
 19 24  1  0  0  0
 20 21  2  0  0  0
 20105  1  0  0  0
 21 23  1  0  0  0
 22 28  1  0  0  0
 22 32  2  0  0  0
 26 27  1  0  0  0
 28106  1  0  0  0
 28107  1  0  0  0
 29108  1  0  0  0
 29109  1  0  0  0
 33 34  1  0  0  0
 33 66  1  0  0  0
 33 70  2  0  0  0
 34 36  1  0  0  0
 34 59  1  0  0  0
 34110  1  0  0  0
 35 44  2  0  0  0
 35 45  1  0  0  0
 35 68  1  0  0  0
 36 56  1  0  0  0
 36111  1  0  0  0
 37 39  1  0  0  0
 37 47  1  0  0  0
 37 66  1  0  0  0
 37112  1  0  0  0
 38 43  2  0  0  0
 38 46  1  0  0  0
 38 47  1  0  0  0
 39 64  1  0  0  0
 39 67  2  0  0  0
 40 52  1  0  0  0
 40 53  2  0  0  0
 40 58  1  0  0  0
 41113  1  0  0  0
 41114  1  0  0  0
 41115  1  0  0  0
 41 48  1  0  0  0
 42 43  1  0  0  0
 42 66  1  0  0  0
 42116  1  0  0  0
 42117  1  0  0  0
 43 44  1  0  0  0
 44118  1  0  0  0
 45 46  2  0  0  0
 45119  1  0  0  0
 46120  1  0  0  0
 47121  1  0  0  0
 47122  1  0  0  0
 48 56  1  0  0  0
 48 65  1  0  0  0
 48123  1  0  0  0
 49 50  1  0  0  0
 49 53  1  0  0  0
 49 64  1  0  0  0
 49124  1  0  0  0
 50 51  1  0  0  0
 50125  1  0  0  0
 50126  1  0  0  0
 51 52  1  0  0  0
 51127  1  0  0  0
 51128  1  0  0  0
 52129  1  0  0  0
 52130  1  0  0  0
 53 54  1  0  0  0
 54 55  2  0  0  0
 54131  1  0  0  0
 55 57  1  0  0  0
 55132  1  0  0  0
 56 69  2  0  0  0
 57 58  2  0  0  0
 57133  1  0  0  0
 58134  1  0  0  0
 59 60  1  0  0  0
 59 61  1  0  0  0
 59 62  1  0  0  0
 60135  1  0  0  0
 60136  1  0  0  0
 60137  1  0  0  0
 61138  1  0  0  0
 61139  1  0  0  0
 61140  1  0  0  0
 62141  1  0  0  0
 62142  1  0  0  0
 62143  1  0  0  0
 63 65  1  0  0  0
 63144  1  0  0  0
 63145  1  0  0  0
 63146  1  0  0  0
 64147  1  0  0  0
 65148  1  0  0  0
 68 84  1  0  0  0
 71 74  2  0  0  0
 71 85  1  0  0  0
 71149  1  0  0  0
 72 73  1  0  0  0
 72 80  1  0  0  0
 72 85  2  0  0  0
 73 81  1  0  0  0
 73 86  2  0  0  0
 74 86  1  0  0  0
 74 88  1  0  0  0
 75 77  1  0  0  0
 75 79  1  0  0  0
 75150  1  0  0  0
 75151  1  0  0  0
 76 78  1  0  0  0
 76 79  1  0  0  0
 76152  1  0  0  0
 76153  1  0  0  0
 77 87  1  0  0  0
 77154  1  0  0  0
 77155  1  0  0  0
 78 87  1  0  0  0
 78156  1  0  0  0
 78157  1  0  0  0
 79 88  1  0  0  0
 79158  1  0  0  0
 80159  1  0  0  0
 80160  1  0  0  0
 80161  1  0  0  0
 81 82  1  0  0  0
 81162  1  0  0  0
 81163  1  0  0  0
 82 89  1  0  0  0
 82164  1  0  0  0
 82165  1  0  0  0
 83 84  1  0  0  0
 83 89  1  0  0  0
 83166  1  0  0  0
 83167  1  0  0  0
 84168  1  0  0  0
 84169  1  0  0  0
 88170  1  0  0  0
 89171  1  0  0  0
 89172  1  0  0  0
M  CHG  1  89   1
M  ISO  4   1 100  68 101  84 101  87 100
M  END
> <chiral flag>
0

> <version>
0

> <s_m_source_file>
/data/baiqing/PycharmProjects/Reinvent-master-3.2/result/LINK_invent/BTK/process_docking_weight1_custom_sum_contain_oxygen_bond_distance_aromatic_linkinvent_7_9_3/rearranged_h_0180.sdf

> <i_m_source_file_index>
30

> <r_mmod_Potential_Energy-OPLS-2005>
2.41952991485596

> <r_mmod_Stretch_Energy-OPLS-2005>
36.2871551513672

> <r_mmod_Bend_Energy-OPLS-2005>
109.053756713867

> <r_mmod_Torsional_Energy-OPLS-2005>
328.560668945312

> <r_mmod_Improper_Torsional_Energy-OPLS-2005>
21.2153816223145

> <r_mmod_Van_der_Waal_Energy-OPLS-2005>
161.218200683594

> <r_mmod_Electrostatic_Energy-OPLS-2005>
-216.124771118164

> <r_mmod_Solvation_Energy-OPLS-2005>
-451.606903076172

> <b_mmod_Minimization_Converged-OPLS-2005>
0

> <r_mmod_RMS_Derivative-OPLS-2005>
1.43078994750977

$$$$
30
                    3D
 Structure written by MMmdl.
154163  0  0  1  0            999 V2000
  -30.3915  -15.4806   20.3340 C   0  0  0  0  0  0
  -30.4010  -12.9618   19.5392 C   0  0  0  0  0  0
  -29.5293  -12.6348   18.2980 C   0  0  0  0  0  0
  -28.0955  -12.3029   18.7403 C   0  0  0  0  0  0
  -27.5874  -13.3003   19.8079 C   0  0  2  0  0  0
  -28.6033  -13.6021   20.9319 C   0  0  0  0  0  0
  -25.2321  -13.8305   20.5801 C   0  0  0  0  0  0
  -24.1660  -13.0481   20.9257 C   0  0  0  0  0  0
  -24.6351  -11.6984   20.8768 C   0  0  0  0  0  0
  -23.9037  -10.4311   21.0386 C   0  0  0  0  0  0
  -24.3578   -9.4239   21.9192 C   0  0  0  0  0  0
  -23.6245   -8.2277   22.0757 C   0  0  0  0  0  0
  -22.4232   -8.0294   21.3557 C   0  0  0  0  0  0
  -21.9868   -9.0259   20.4658 C   0  0  0  0  0  0
  -22.7192  -10.2139   20.3063 C   0  0  0  0  0  0
  -21.6850   -6.0695   22.5278 C   0  0  0  0  0  0
  -21.4029   -6.5608   23.8209 C   0  0  0  0  0  0
  -21.3665   -5.6768   24.9180 C   0  0  0  0  0  0
  -21.6039   -4.3035   24.7233 C   0  0  0  0  0  0
  -21.8796   -3.8105   23.4366 C   0  0  0  0  0  0
  -21.9187   -4.6919   22.3403 C   0  0  0  0  0  0
  -22.7705  -13.5268   21.1904 C   0  0  0  0  0  0
  -22.1647   -4.2090   21.0975 F   0  0  0  0  0  0
  -21.5636   -3.4527   25.7749 F   0  0  0  0  0  0
  -29.8002  -14.1612   20.2735 N   0  0  0  0  0  0
  -26.2712  -12.9606   20.3209 N   0  0  0  0  0  0
  -25.9296  -11.6691   20.5688 N   0  0  0  0  0  0
  -22.0334  -12.8230   22.0439 N   0  0  0  0  0  0
  -25.3976  -15.2019   20.4321 N   0  0  0  0  0  0
  -31.6229  -15.3556   20.1933 O   0  0  0  0  0  0
  -21.6666   -6.8850   21.4230 O   0  0  0  0  0  0
  -22.3396  -14.5590   20.6789 O   0  0  0  0  0  0
  -24.6825  -31.8123   23.1533 C   0  0  0  0  0  0
  -25.9461  -32.4500   23.8054 C   0  0  1  0  0  0
  -27.1902  -26.7620   20.1820 C   0  0  0  0  0  0
  -25.6082  -33.8302   24.1999 N   0  0  0  0  0  0
  -23.4968  -30.4229   21.5113 C   0  0  2  0  0  0
  -24.9340  -28.7674   20.1205 C   0  0  0  0  0  0
  -22.7712  -29.4490   22.4759 C   0  0  0  0  0  0
  -18.0393  -28.1443   22.8440 C   0  0  0  0  0  0
  -24.1543  -36.7181   23.2640 C   0  0  0  0  0  0
  -26.0719  -30.5589   21.4017 C   0  0  0  0  0  0
  -26.1313  -29.1279   20.7515 C   0  0  0  0  0  0
  -27.2533  -28.1573   20.7438 C   0  0  0  0  0  0
  -25.9566  -26.5881   19.5096 C   0  0  0  0  0  0
  -24.8813  -27.5212   19.4792 C   0  0  0  0  0  0
  -23.7351  -29.7264   20.1439 C   0  0  0  0  0  0
  -25.4178  -36.2906   24.0287 C   0  0  1  0  0  0
  -20.5992  -28.3867   23.1175 C   0  0  2  0  0  0
  -20.6891  -26.9603   22.5358 C   0  0  0  0  0  0
  -19.5917  -26.6570   21.5133 C   0  0  0  0  0  0
  -18.2092  -26.8005   22.1563 C   0  0  0  0  0  0
  -19.1623  -28.8957   23.2831 C   0  0  0  0  0  0
  -18.9463  -30.1527   23.8927 C   0  0  0  0  0  0
  -17.6452  -30.6601   24.0600 C   0  0  0  0  0  0
  -25.9147  -34.9296   23.4977 C   0  0  0  0  0  0
  -16.5382  -29.9074   23.6333 C   0  0  0  0  0  0
  -16.7348  -28.6520   23.0304 C   0  0  0  0  0  0
  -26.4657  -31.6444   25.0601 C   0  0  0  0  0  0
  -25.3739  -31.3739   26.1222 C   0  0  0  0  0  0
  -27.0534  -30.2782   24.6400 C   0  0  0  0  0  0
  -27.6157  -32.4224   25.7422 C   0  0  0  0  0  0
  -27.5601  -37.1756   24.8473 C   0  0  0  0  0  0
  -21.4383  -29.3131   22.3500 N   0  0  0  0  0  0
  -26.4323  -37.3660   23.9370 N   0  0  0  0  0  0
  -24.7734  -30.9631   22.0765 N   0  0  0  0  0  0
  -23.4200  -28.8105   23.3097 O   0  0  0  0  0  0
  -28.1884  -25.6014   20.1194 O   0  0  0  0  0  0
  -26.5751  -34.8869   22.4567 O   0  0  0  0  0  0
  -23.5862  -32.1226   23.6534 O   0  0  0  0  0  0
  -28.7137  -20.6830   18.2958 C   0  0  0  0  0  0
  -28.7943  -20.9464   19.6401 C   0  0  0  0  0  0
  -28.3154  -21.8512   17.6065 C   0  0  0  0  0  0
  -28.5144  -17.7991   20.2372 C   0  0  0  0  0  0
  -30.4620  -18.3230   20.1358 C   0  0  0  0  0  0
  -29.1752  -19.3498   20.4098 C   0  0  0  0  0  0
  -27.8784  -22.0044   16.1708 C   0  0  0  0  0  0
  -28.6642  -23.8082   21.9179 C   0  0  0  0  0  0
  -28.0144  -23.9694   20.5453 C   0  0  2  0  0  0
  -28.2648  -22.9004   18.3867 N   0  0  0  0  0  0
  -28.4645  -22.5455   19.6817 N   0  0  0  0  0  0
  -29.8098  -16.9086   20.3510 N   0  0  0  0  0  0
  -31.4245  -13.1452   19.2133 H   0  0  0  0  0  0
  -30.4717  -12.0893   20.1909 H   0  0  0  0  0  0
  -29.9559  -11.8092   17.7237 H   0  0  0  0  0  0
  -29.5183  -13.4981   17.6322 H   0  0  0  0  0  0
  -28.1079  -11.2977   19.1604 H   0  0  0  0  0  0
  -27.4233  -12.2741   17.8838 H   0  0  0  0  0  0
  -27.4691  -14.2373   19.2650 H   0  0  0  0  0  0
  -28.8180  -12.7212   21.5399 H   0  0  0  0  0  0
  -28.2031  -14.3568   21.6121 H   0  0  0  0  0  0
  -25.2688   -9.5725   22.4835 H   0  0  0  0  0  0
  -23.9940   -7.4659   22.7504 H   0  0  0  0  0  0
  -21.0794   -8.8758   19.8985 H   0  0  0  0  0  0
  -22.3600  -10.9687   19.6206 H   0  0  0  0  0  0
  -21.2049   -7.6119   23.9691 H   0  0  0  0  0  0
  -21.1517   -6.0516   25.9076 H   0  0  0  0  0  0
  -22.0573   -2.7564   23.2884 H   0  0  0  0  0  0
  -22.3939  -11.9881   22.4808 H   0  0  0  0  0  0
  -21.1026  -13.1380   22.2772 H   0  0  0  0  0  0
  -24.6405  -15.8643   20.5659 H   0  0  0  0  0  0
  -26.2583  -15.6370   20.1201 H   0  0  0  0  0  0
  -26.7480  -32.4944   23.0692 H   0  0  0  0  0  0
  -25.0136  -33.9325   25.0089 H   0  0  0  0  0  0
  -22.8233  -31.2620   21.3279 H   0  0  0  0  0  0
  -23.3805  -35.9518   23.3276 H   0  0  0  0  0  0
  -24.3666  -36.8855   22.2075 H   0  0  0  0  0  0
  -23.7313  -37.6366   23.6700 H   0  0  0  0  0  0
  -26.2655  -31.2881   20.6124 H   0  0  0  0  0  0
  -26.9294  -30.6200   22.0615 H   0  0  0  0  0  0
  -28.1700  -28.4504   21.2385 H   0  0  0  0  0  0
  -25.7988  -25.6466   19.0011 H   0  0  0  0  0  0
  -23.9764  -27.2385   18.9576 H   0  0  0  0  0  0
  -23.8997  -30.4894   19.3799 H   0  0  0  0  0  0
  -22.8348  -29.1963   19.8241 H   0  0  0  0  0  0
  -25.1380  -36.1723   25.0782 H   0  0  0  0  0  0
  -21.0153  -28.3450   24.1261 H   0  0  0  0  0  0
  -20.5854  -26.2505   23.3574 H   0  0  0  0  0  0
  -21.6763  -26.7732   22.1069 H   0  0  0  0  0  0
  -19.7236  -25.6565   21.1027 H   0  0  0  0  0  0
  -19.6885  -27.3509   20.6763 H   0  0  0  0  0  0
  -17.4365  -26.6768   21.3995 H   0  0  0  0  0  0
  -18.0612  -26.0189   22.9019 H   0  0  0  0  0  0
  -19.7928  -30.7317   24.2348 H   0  0  0  0  0  0
  -17.4973  -31.6227   24.5289 H   0  0  0  0  0  0
  -15.5353  -30.2925   23.7628 H   0  0  0  0  0  0
  -15.8771  -28.0808   22.6953 H   0  0  0  0  0  0
  -24.6002  -30.7009   25.7529 H   0  0  0  0  0  0
  -24.8841  -32.2931   26.4426 H   0  0  0  0  0  0
  -25.7959  -30.9074   27.0126 H   0  0  0  0  0  0
  -26.3196  -29.6421   24.1430 H   0  0  0  0  0  0
  -27.4042  -29.7204   25.5093 H   0  0  0  0  0  0
  -27.9157  -30.3928   23.9828 H   0  0  0  0  0  0
  -27.2776  -33.3599   26.1841 H   0  0  0  0  0  0
  -28.4054  -32.6646   25.0290 H   0  0  0  0  0  0
  -28.0689  -31.8410   26.5460 H   0  0  0  0  0  0
  -28.2594  -38.0072   24.7460 H   0  0  0  0  0  0
  -28.1114  -36.2580   24.6352 H   0  0  0  0  0  0
  -27.2289  -37.1445   25.8872 H   0  0  0  0  0  0
  -20.9695  -29.8623   21.6406 H   0  0  0  0  0  0
  -26.0184  -38.2741   24.1280 H   0  0  0  0  0  0
  -28.8293  -19.7011   17.8574 H   0  0  0  0  0  0
  -28.0302  -17.6905   19.2660 H   0  0  0  0  0  0
  -27.7678  -17.5859   21.0072 H   0  0  0  0  0  0
  -31.2950  -18.5342   20.8117 H   0  0  0  0  0  0
  -30.8286  -18.4349   19.1126 H   0  0  0  0  0  0
  -29.1718  -19.5559   21.4764 H   0  0  0  0  0  0
  -28.0014  -21.0828   15.6042 H   0  0  0  0  0  0
  -28.4185  -22.7916   15.6461 H   0  0  0  0  0  0
  -26.8219  -22.2706   16.1206 H   0  0  0  0  0  0
  -28.4354  -22.8118   22.3099 H   0  0  0  0  0  0
  -28.2995  -24.5654   22.6137 H   0  0  0  0  0  0
  -29.7456  -23.8886   21.8142 H   0  0  0  0  0  0
  -26.9357  -23.8610   20.6682 H   0  0  0  0  0  0
  1 25  1  0  0  0
  1 30  2  0  0  0
  1 82  1  0  0  0
  2  3  1  0  0  0
  2 25  1  0  0  0
  2 83  1  0  0  0
  2 84  1  0  0  0
  3  4  1  0  0  0
  3 85  1  0  0  0
  3 86  1  0  0  0
  4  5  1  0  0  0
  4 87  1  0  0  0
  4 88  1  0  0  0
  5  6  1  0  0  0
  5 26  1  0  0  0
  5 89  1  0  0  0
  6 25  1  0  0  0
  6 90  1  0  0  0
  6 91  1  0  0  0
  7  8  2  0  0  0
  7 26  1  0  0  0
  7 29  1  0  0  0
  8  9  1  0  0  0
  8 22  1  0  0  0
  9 10  1  0  0  0
  9 27  2  0  0  0
 10 11  2  0  0  0
 10 15  1  0  0  0
 11 12  1  0  0  0
 11 92  1  0  0  0
 12 13  2  0  0  0
 12 93  1  0  0  0
 13 14  1  0  0  0
 13 31  1  0  0  0
 14 15  2  0  0  0
 14 94  1  0  0  0
 15 95  1  0  0  0
 16 17  2  0  0  0
 16 21  1  0  0  0
 16 31  1  0  0  0
 17 18  1  0  0  0
 17 96  1  0  0  0
 18 19  2  0  0  0
 18 97  1  0  0  0
 19 20  1  0  0  0
 19 24  1  0  0  0
 20 21  2  0  0  0
 20 98  1  0  0  0
 21 23  1  0  0  0
 22 28  1  0  0  0
 22 32  2  0  0  0
 26 27  1  0  0  0
 28 99  1  0  0  0
 28100  1  0  0  0
 29101  1  0  0  0
 29102  1  0  0  0
 33 34  1  0  0  0
 33 66  1  0  0  0
 33 70  2  0  0  0
 34 36  1  0  0  0
 34 59  1  0  0  0
 34103  1  0  0  0
 35 44  2  0  0  0
 35 45  1  0  0  0
 35 68  1  0  0  0
 36 56  1  0  0  0
 36104  1  0  0  0
 37 39  1  0  0  0
 37 47  1  0  0  0
 37 66  1  0  0  0
 37105  1  0  0  0
 38 43  2  0  0  0
 38 46  1  0  0  0
 38 47  1  0  0  0
 39 64  1  0  0  0
 39 67  2  0  0  0
 40 52  1  0  0  0
 40 53  2  0  0  0
 40 58  1  0  0  0
 41106  1  0  0  0
 41107  1  0  0  0
 41108  1  0  0  0
 41 48  1  0  0  0
 42 43  1  0  0  0
 42 66  1  0  0  0
 42109  1  0  0  0
 42110  1  0  0  0
 43 44  1  0  0  0
 44111  1  0  0  0
 45 46  2  0  0  0
 45112  1  0  0  0
 46113  1  0  0  0
 47114  1  0  0  0
 47115  1  0  0  0
 48 56  1  0  0  0
 48 65  1  0  0  0
 48116  1  0  0  0
 49 50  1  0  0  0
 49 53  1  0  0  0
 49 64  1  0  0  0
 49117  1  0  0  0
 50 51  1  0  0  0
 50118  1  0  0  0
 50119  1  0  0  0
 51 52  1  0  0  0
 51120  1  0  0  0
 51121  1  0  0  0
 52122  1  0  0  0
 52123  1  0  0  0
 53 54  1  0  0  0
 54 55  2  0  0  0
 54124  1  0  0  0
 55 57  1  0  0  0
 55125  1  0  0  0
 56 69  2  0  0  0
 57 58  2  0  0  0
 57126  1  0  0  0
 58127  1  0  0  0
 59 60  1  0  0  0
 59 61  1  0  0  0
 59 62  1  0  0  0
 60128  1  0  0  0
 60129  1  0  0  0
 60130  1  0  0  0
 61131  1  0  0  0
 61132  1  0  0  0
 61133  1  0  0  0
 62134  1  0  0  0
 62135  1  0  0  0
 62136  1  0  0  0
 63 65  1  0  0  0
 63137  1  0  0  0
 63138  1  0  0  0
 63139  1  0  0  0
 64140  1  0  0  0
 65141  1  0  0  0
 68 79  1  0  0  0
 71 72  2  0  0  0
 71 73  1  0  0  0
 71142  1  0  0  0
 72 81  1  0  0  0
 72 76  1  0  0  0
 73 77  1  0  0  0
 73 80  2  0  0  0
 74 76  1  0  0  0
 74 82  1  0  0  0
 74143  1  0  0  0
 74144  1  0  0  0
 75 76  1  0  0  0
 75 82  1  0  0  0
 75145  1  0  0  0
 75146  1  0  0  0
 76147  1  0  0  0
 77148  1  0  0  0
 77149  1  0  0  0
 77150  1  0  0  0
 78151  1  0  0  0
 78152  1  0  0  0
 78153  1  0  0  0
 78 79  1  0  0  0
 79 81  1  0  0  0
 79154  1  0  0  0
 80 81  1  0  0  0
M  ISO  4   1 100  68 101  79 101  82 100
M  END
> <chiral flag>
0

> <version>
0

> <s_m_source_file>
/data/baiqing/PycharmProjects/Reinvent-master-3.2/result/LINK_invent/BTK/process_docking_weight1_custom_sum_contain_oxygen_bond_distance_aromatic_linkinvent_7_9_3/rearranged_h_0180.sdf

> <i_m_source_file_index>
31

> <r_mmod_Potential_Energy-OPLS-2005>
2081.02319335938

> <r_mmod_Stretch_Energy-OPLS-2005>
834.401306152344

> <r_mmod_Bend_Energy-OPLS-2005>
706.752685546875

> <r_mmod_Torsional_Energy-OPLS-2005>
306.496337890625

> <r_mmod_Improper_Torsional_Energy-OPLS-2005>
6.00137615203857

> <r_mmod_Van_der_Waal_Energy-OPLS-2005>
99.3377380371094

> <r_mmod_Electrostatic_Energy-OPLS-2005>
-346.054962158203

> <r_mmod_Solvation_Energy-OPLS-2005>
-232.958465576172

> <b_mmod_Minimization_Converged-OPLS-2005>
0

> <r_mmod_RMS_Derivative-OPLS-2005>
7.62208127975464

$$$$
31
                    3D
 Structure written by MMmdl.
163172  0  0  1  0            999 V2000
  -30.6740  -14.5189   20.5390 C   0  0  0  0  0  0
  -30.4122  -12.3188   19.4372 C   0  0  0  0  0  0
  -29.4916  -12.5028   18.2131 C   0  0  0  0  0  0
  -28.0142  -12.3569   18.6257 C   0  0  0  0  0  0
  -27.6545  -13.2098   19.8728 C   0  0  2  0  0  0
  -28.6937  -13.0224   20.9996 C   0  0  0  0  0  0
  -25.2566  -13.8138   20.5696 C   0  0  0  0  0  0
  -24.1816  -13.0421   20.9162 C   0  0  0  0  0  0
  -24.6367  -11.6890   20.8710 C   0  0  0  0  0  0
  -23.9033  -10.4290   21.0390 C   0  0  0  0  0  0
  -24.3593   -9.4216   21.9179 C   0  0  0  0  0  0
  -23.6283   -8.2250   22.0764 C   0  0  0  0  0  0
  -22.4272   -8.0271   21.3551 C   0  0  0  0  0  0
  -21.9893   -9.0227   20.4651 C   0  0  0  0  0  0
  -22.7204  -10.2111   20.3053 C   0  0  0  0  0  0
  -21.6857   -6.0730   22.5277 C   0  0  0  0  0  0
  -21.4021   -6.5631   23.8207 C   0  0  0  0  0  0
  -21.3664   -5.6799   24.9165 C   0  0  0  0  0  0
  -21.6050   -4.3062   24.7227 C   0  0  0  0  0  0
  -21.8811   -3.8137   23.4348 C   0  0  0  0  0  0
  -21.9187   -4.6956   22.3395 C   0  0  0  0  0  0
  -22.7858  -13.5233   21.1853 C   0  0  0  0  0  0
  -22.1668   -4.2143   21.0984 F   0  0  0  0  0  0
  -21.5620   -3.4552   25.7735 F   0  0  0  0  0  0
  -30.0188  -13.3257   20.4389 N   0  0  0  0  0  0
  -26.2988  -12.9324   20.3355 N   0  0  0  0  0  0
  -25.9292  -11.6480   20.5735 N   0  0  0  0  0  0
  -22.0534  -12.8188   22.0412 N   0  0  0  0  0  0
  -25.4271  -15.1869   20.4170 N   0  0  0  0  0  0
  -31.8158  -14.6832   20.1025 O   0  0  0  0  0  0
  -21.6642   -6.8869   21.4241 O   0  0  0  0  0  0
  -22.3556  -14.5568   20.6752 O   0  0  0  0  0  0
  -24.6172  -31.8645   23.2016 C   0  0  0  0  0  0
  -25.9051  -32.4774   23.8327 C   0  0  1  0  0  0
  -27.2350  -27.3902   20.0893 C   0  0  0  0  0  0
  -25.5884  -33.8572   24.2246 N   0  0  0  0  0  0
  -23.4086  -30.4819   21.5451 C   0  0  2  0  0  0
  -24.8546  -28.9480   20.1050 C   0  0  0  0  0  0
  -22.7432  -29.4614   22.4970 C   0  0  0  0  0  0
  -18.0242  -28.1390   22.8487 C   0  0  0  0  0  0
  -24.1502  -36.7331   23.2653 C   0  0  0  0  0  0
  -25.9434  -30.8100   21.3683 C   0  0  0  0  0  0
  -26.0159  -29.4450   20.7070 C   0  0  0  0  0  0
  -27.2033  -28.6718   20.6989 C   0  0  0  0  0  0
  -26.0512  -26.9165   19.4808 C   0  0  0  0  0  0
  -24.8694  -27.6835   19.4918 C   0  0  0  0  0  0
  -23.6155  -29.8135   20.1598 C   0  0  0  0  0  0
  -25.4115  -36.3081   24.0333 C   0  0  1  0  0  0
  -20.5840  -28.3669   23.1308 C   0  0  2  0  0  0
  -20.6774  -26.9404   22.5419 C   0  0  0  0  0  0
  -19.5732  -26.6369   21.5243 C   0  0  0  0  0  0
  -18.1892  -26.7909   22.1626 C   0  0  0  0  0  0
  -19.1508  -28.8840   23.2872 C   0  0  0  0  0  0
  -18.9460  -30.1454   23.8868 C   0  0  0  0  0  0
  -17.6479  -30.6608   24.0568 C   0  0  0  0  0  0
  -25.9062  -34.9458   23.5104 C   0  0  0  0  0  0
  -16.5359  -29.9125   23.6351 C   0  0  0  0  0  0
  -16.7233  -28.6539   23.0358 C   0  0  0  0  0  0
  -26.4439  -31.6565   25.0682 C   0  0  0  0  0  0
  -25.3676  -31.3702   26.1414 C   0  0  0  0  0  0
  -27.0345  -30.2998   24.6127 C   0  0  0  0  0  0
  -27.5961  -32.4352   25.7462 C   0  0  0  0  0  0
  -27.5575  -37.1818   24.8457 C   0  0  0  0  0  0
  -21.4143  -29.3042   22.3746 N   0  0  0  0  0  0
  -26.4296  -37.3785   23.9408 N   0  0  0  0  0  0
  -24.6753  -31.0682   22.0948 N   0  0  0  0  0  0
  -23.4182  -28.8156   23.3038 O   0  0  0  0  0  0
  -28.3987  -26.6334   20.1689 O   0  0  0  0  0  0
  -26.5649  -34.8935   22.4681 O   0  0  0  0  0  0
  -23.5352  -32.1438   23.7374 O   0  0  0  0  0  0
  -27.5019  -21.5808   21.5704 C   0  0  0  0  0  0
  -26.9183  -22.7527   22.0792 C   0  0  0  0  0  0
  -27.2815  -24.0103   21.5276 C   0  0  0  0  0  0
  -28.1575  -24.0260   20.4035 C   0  0  0  0  0  0
  -28.4055  -21.6713   20.5063 C   0  0  0  0  0  0
  -25.8793  -22.6490   23.1896 C   0  0  0  0  0  0
  -25.6526  -23.9859   23.9060 C   0  0  0  0  0  0
  -25.5646  -25.1239   22.8885 C   0  0  0  0  0  0
  -28.5093  -25.3047   19.5751 C   0  0  0  0  0  0
  -29.3010  -18.0233   20.5536 C   0  0  0  0  0  0
  -29.6406  -19.5246   20.8510 C   0  0  0  0  0  0
  -30.3587  -16.9877   21.0682 C   0  0  0  0  0  0
  -28.6965  -22.8604   19.9211 N   0  0  0  0  0  0
  -26.7838  -25.1912   22.0998 N   0  0  0  0  0  0
  -28.9862  -20.5095   19.9626 N   0  0  0  0  0  0
  -29.9408  -15.5652   20.9875 N   0  0  0  0  0  0
  -31.4601  -12.4045   19.1444 H   0  0  0  0  0  0
  -30.2980  -11.3130   19.8466 H   0  0  0  0  0  0
  -29.7365  -11.7715   17.4414 H   0  0  0  0  0  0
  -29.6577  -13.4848   17.7679 H   0  0  0  0  0  0
  -27.8341  -11.3023   18.8377 H   0  0  0  0  0  0
  -27.3601  -12.6180   17.7935 H   0  0  0  0  0  0
  -27.6895  -14.2526   19.5599 H   0  0  0  0  0  0
  -28.6728  -11.9986   21.3758 H   0  0  0  0  0  0
  -28.4538  -13.6511   21.8594 H   0  0  0  0  0  0
  -25.2739   -9.5691   22.4751 H   0  0  0  0  0  0
  -23.9995   -7.4650   22.7502 H   0  0  0  0  0  0
  -21.0827   -8.8725   19.8961 H   0  0  0  0  0  0
  -22.3662  -10.9639   19.6166 H   0  0  0  0  0  0
  -21.2030   -7.6148   23.9696 H   0  0  0  0  0  0
  -21.1500   -6.0543   25.9072 H   0  0  0  0  0  0
  -22.0580   -2.7605   23.2847 H   0  0  0  0  0  0
  -22.4188  -11.9816   22.4712 H   0  0  0  0  0  0
  -21.1179  -13.1210   22.2713 H   0  0  0  0  0  0
  -24.6550  -15.8340   20.5295 H   0  0  0  0  0  0
  -26.2814  -15.6373   20.1125 H   0  0  0  0  0  0
  -26.7114  -32.5454   23.1074 H   0  0  0  0  0  0
  -25.0015  -33.9726   25.0373 H   0  0  0  0  0  0
  -22.7008  -31.3010   21.3997 H   0  0  0  0  0  0
  -23.3762  -35.9660   23.3280 H   0  0  0  0  0  0
  -24.3612  -36.8986   22.2078 H   0  0  0  0  0  0
  -23.7260  -37.6526   23.6711 H   0  0  0  0  0  0
  -26.0850  -31.5801   20.6101 H   0  0  0  0  0  0
  -26.8204  -30.8435   22.0026 H   0  0  0  0  0  0
  -28.0955  -29.0447   21.1816 H   0  0  0  0  0  0
  -26.0047  -25.9390   19.0263 H   0  0  0  0  0  0
  -23.9743  -27.2913   19.0307 H   0  0  0  0  0  0
  -23.7139  -30.5901   19.4006 H   0  0  0  0  0  0
  -22.7403  -29.2302   19.8641 H   0  0  0  0  0  0
  -25.1285  -36.1953   25.0816 H   0  0  0  0  0  0
  -20.9888  -28.3257   24.1443 H   0  0  0  0  0  0
  -20.5764  -26.2276   23.3619 H   0  0  0  0  0  0
  -21.6635  -26.7513   22.1148 H   0  0  0  0  0  0
  -19.6950  -25.6284   21.1265 H   0  0  0  0  0  0
  -19.6674  -27.3199   20.6782 H   0  0  0  0  0  0
  -17.4182  -26.6649   21.4017 H   0  0  0  0  0  0
  -18.0273  -26.0027   22.8987 H   0  0  0  0  0  0
  -19.7966  -30.7265   24.2189 H   0  0  0  0  0  0
  -17.5070  -31.6278   24.5181 H   0  0  0  0  0  0
  -15.5381  -30.3078   23.7685 H   0  0  0  0  0  0
  -15.8588  -28.0903   22.7098 H   0  0  0  0  0  0
  -24.5833  -30.7046   25.7759 H   0  0  0  0  0  0
  -24.8891  -32.2891   26.4825 H   0  0  0  0  0  0
  -25.7986  -30.8896   27.0203 H   0  0  0  0  0  0
  -26.2952  -29.6705   24.1139 H   0  0  0  0  0  0
  -27.4088  -29.7233   25.4602 H   0  0  0  0  0  0
  -27.8755  -30.4315   23.9308 H   0  0  0  0  0  0
  -27.2487  -33.3664   26.1938 H   0  0  0  0  0  0
  -28.3782  -32.6902   25.0298 H   0  0  0  0  0  0
  -28.0581  -31.8561   26.5461 H   0  0  0  0  0  0
  -28.2549  -38.0166   24.7553 H   0  0  0  0  0  0
  -28.1116  -36.2699   24.6208 H   0  0  0  0  0  0
  -27.2304  -37.1347   25.8860 H   0  0  0  0  0  0
  -20.9350  -29.8808   21.6970 H   0  0  0  0  0  0
  -26.0181  -38.2863   24.1370 H   0  0  0  0  0  0
  -27.2268  -20.6192   21.9830 H   0  0  0  0  0  0
  -26.1642  -21.8805   23.9072 H   0  0  0  0  0  0
  -24.9421  -22.3214   22.7351 H   0  0  0  0  0  0
  -26.4848  -24.1827   24.5822 H   0  0  0  0  0  0
  -24.7548  -23.9443   24.5225 H   0  0  0  0  0  0
  -25.4110  -26.0767   23.3957 H   0  0  0  0  0  0
  -24.7113  -24.9806   22.2224 H   0  0  0  0  0  0
  -28.0073  -25.2663   18.6086 H   0  0  0  0  0  0
  -29.5674  -25.2137   19.3275 H   0  0  0  0  0  0
  -29.1885  -17.8812   19.4796 H   0  0  0  0  0  0
  -28.3284  -17.7946   20.9894 H   0  0  0  0  0  0
  -30.7152  -19.6733   20.7385 H   0  0  0  0  0  0
  -29.4308  -19.7477   21.8987 H   0  0  0  0  0  0
  -30.6080  -17.2048   22.1072 H   0  0  0  0  0  0
  -31.2833  -17.1358   20.5070 H   0  0  0  0  0  0
  -27.0197  -26.0782   21.6547 H   0  0  0  0  0  0
  -29.5010  -20.6817   19.1044 H   0  0  0  0  0  0
  -29.0107  -15.3464   21.3114 H   0  0  0  0  0  0
  1 25  1  0  0  0
  1 30  2  0  0  0
  1 86  1  0  0  0
  2  3  1  0  0  0
  2 25  1  0  0  0
  2 87  1  0  0  0
  2 88  1  0  0  0
  3  4  1  0  0  0
  3 89  1  0  0  0
  3 90  1  0  0  0
  4  5  1  0  0  0
  4 91  1  0  0  0
  4 92  1  0  0  0
  5  6  1  0  0  0
  5 26  1  0  0  0
  5 93  1  0  0  0
  6 25  1  0  0  0
  6 94  1  0  0  0
  6 95  1  0  0  0
  7  8  2  0  0  0
  7 26  1  0  0  0
  7 29  1  0  0  0
  8  9  1  0  0  0
  8 22  1  0  0  0
  9 10  1  0  0  0
  9 27  2  0  0  0
 10 11  2  0  0  0
 10 15  1  0  0  0
 11 12  1  0  0  0
 11 96  1  0  0  0
 12 13  2  0  0  0
 12 97  1  0  0  0
 13 14  1  0  0  0
 13 31  1  0  0  0
 14 15  2  0  0  0
 14 98  1  0  0  0
 15 99  1  0  0  0
 16 17  2  0  0  0
 16 21  1  0  0  0
 16 31  1  0  0  0
 17 18  1  0  0  0
 17100  1  0  0  0
 18 19  2  0  0  0
 18101  1  0  0  0
 19 20  1  0  0  0
 19 24  1  0  0  0
 20 21  2  0  0  0
 20102  1  0  0  0
 21 23  1  0  0  0
 22 28  1  0  0  0
 22 32  2  0  0  0
 26 27  1  0  0  0
 28103  1  0  0  0
 28104  1  0  0  0
 29105  1  0  0  0
 29106  1  0  0  0
 33 34  1  0  0  0
 33 66  1  0  0  0
 33 70  2  0  0  0
 34 36  1  0  0  0
 34 59  1  0  0  0
 34107  1  0  0  0
 35 44  2  0  0  0
 35 45  1  0  0  0
 35 68  1  0  0  0
 36 56  1  0  0  0
 36108  1  0  0  0
 37 39  1  0  0  0
 37 47  1  0  0  0
 37 66  1  0  0  0
 37109  1  0  0  0
 38 43  2  0  0  0
 38 46  1  0  0  0
 38 47  1  0  0  0
 39 64  1  0  0  0
 39 67  2  0  0  0
 40 52  1  0  0  0
 40 53  2  0  0  0
 40 58  1  0  0  0
 41110  1  0  0  0
 41111  1  0  0  0
 41112  1  0  0  0
 41 48  1  0  0  0
 42 43  1  0  0  0
 42 66  1  0  0  0
 42113  1  0  0  0
 42114  1  0  0  0
 43 44  1  0  0  0
 44115  1  0  0  0
 45 46  2  0  0  0
 45116  1  0  0  0
 46117  1  0  0  0
 47118  1  0  0  0
 47119  1  0  0  0
 48 56  1  0  0  0
 48 65  1  0  0  0
 48120  1  0  0  0
 49 50  1  0  0  0
 49 53  1  0  0  0
 49 64  1  0  0  0
 49121  1  0  0  0
 50 51  1  0  0  0
 50122  1  0  0  0
 50123  1  0  0  0
 51 52  1  0  0  0
 51124  1  0  0  0
 51125  1  0  0  0
 52126  1  0  0  0
 52127  1  0  0  0
 53 54  1  0  0  0
 54 55  2  0  0  0
 54128  1  0  0  0
 55 57  1  0  0  0
 55129  1  0  0  0
 56 69  2  0  0  0
 57 58  2  0  0  0
 57130  1  0  0  0
 58131  1  0  0  0
 59 60  1  0  0  0
 59 61  1  0  0  0
 59 62  1  0  0  0
 60132  1  0  0  0
 60133  1  0  0  0
 60134  1  0  0  0
 61135  1  0  0  0
 61136  1  0  0  0
 61137  1  0  0  0
 62138  1  0  0  0
 62139  1  0  0  0
 62140  1  0  0  0
 63 65  1  0  0  0
 63141  1  0  0  0
 63142  1  0  0  0
 63143  1  0  0  0
 64144  1  0  0  0
 65145  1  0  0  0
 68 79  1  0  0  0
 71 72  2  0  0  0
 71 75  1  0  0  0
 71146  1  0  0  0
 72 73  1  0  0  0
 72 76  1  0  0  0
 73 74  2  0  0  0
 73 84  1  0  0  0
 74 79  1  0  0  0
 74 83  1  0  0  0
 75 83  2  0  0  0
 75 85  1  0  0  0
 76 77  1  0  0  0
 76147  1  0  0  0
 76148  1  0  0  0
 77 78  1  0  0  0
 77149  1  0  0  0
 77150  1  0  0  0
 78 84  1  0  0  0
 78151  1  0  0  0
 78152  1  0  0  0
 79153  1  0  0  0
 79154  1  0  0  0
 80 81  1  0  0  0
 80 82  1  0  0  0
 80155  1  0  0  0
 80156  1  0  0  0
 81 85  1  0  0  0
 81157  1  0  0  0
 81158  1  0  0  0
 82 86  1  0  0  0
 82159  1  0  0  0
 82160  1  0  0  0
 84161  1  0  0  0
 85162  1  0  0  0
 86163  1  0  0  0
M  ISO  4   1 100  68 101  79 101  86 100
M  END
> <chiral flag>
0

> <version>
0

> <s_m_source_file>
/data/baiqing/PycharmProjects/Reinvent-master-3.2/result/LINK_invent/BTK/process_docking_weight1_custom_sum_contain_oxygen_bond_distance_aromatic_linkinvent_7_9_3/rearranged_h_0180.sdf

> <i_m_source_file_index>
32

> <r_mmod_Potential_Energy-OPLS-2005>
-176.066955566406

> <r_mmod_Stretch_Energy-OPLS-2005>
52.5085105895996

> <r_mmod_Bend_Energy-OPLS-2005>
131.093124389648

> <r_mmod_Torsional_Energy-OPLS-2005>
209.632720947266

> <r_mmod_Improper_Torsional_Energy-OPLS-2005>
9.3062629699707

> <r_mmod_Van_der_Waal_Energy-OPLS-2005>
155.344345092773

> <r_mmod_Electrostatic_Energy-OPLS-2005>
-522.249328613281

> <r_mmod_Solvation_Energy-OPLS-2005>
-233.262329101562

> <b_mmod_Minimization_Converged-OPLS-2005>
0

> <r_mmod_RMS_Derivative-OPLS-2005>
3.99717426300049

$$$$
32
                    3D
 Structure written by MMmdl.
162171  0  0  1  0            999 V2000
  -30.7191  -14.5432   20.4633 C   0  0  0  0  0  0
  -30.4270  -12.3242   19.4623 C   0  0  0  0  0  0
  -29.5226  -12.4945   18.2253 C   0  0  0  0  0  0
  -28.0413  -12.3435   18.6240 C   0  0  0  0  0  0
  -27.6571  -13.2280   19.8456 C   0  0  2  0  0  0
  -28.6986  -13.0990   20.9836 C   0  0  0  0  0  0
  -25.2567  -13.8229   20.5551 C   0  0  0  0  0  0
  -24.1854  -13.0481   20.9111 C   0  0  0  0  0  0
  -24.6443  -11.6958   20.8691 C   0  0  0  0  0  0
  -23.9096  -10.4345   21.0358 C   0  0  0  0  0  0
  -24.3677   -9.4267   21.9126 C   0  0  0  0  0  0
  -23.6370   -8.2278   22.0700 C   0  0  0  0  0  0
  -22.4362   -8.0295   21.3473 C   0  0  0  0  0  0
  -21.9991   -9.0275   20.4590 C   0  0  0  0  0  0
  -22.7289  -10.2151   20.2999 C   0  0  0  0  0  0
  -21.6875   -6.0773   22.5274 C   0  0  0  0  0  0
  -21.4033   -6.5651   23.8220 C   0  0  0  0  0  0
  -21.3662   -5.6772   24.9153 C   0  0  0  0  0  0
  -21.6070   -4.3044   24.7180 C   0  0  0  0  0  0
  -21.8822   -3.8149   23.4289 C   0  0  0  0  0  0
  -21.9197   -4.6995   22.3368 C   0  0  0  0  0  0
  -22.7852  -13.5249   21.1758 C   0  0  0  0  0  0
  -22.1643   -4.2178   21.0939 F   0  0  0  0  0  0
  -21.5656   -3.4500   25.7668 F   0  0  0  0  0  0
  -30.0282  -13.3726   20.4177 N   0  0  0  0  0  0
  -26.3038  -12.9439   20.3169 N   0  0  0  0  0  0
  -25.9380  -11.6582   20.5666 N   0  0  0  0  0  0
  -22.0473  -12.8278   22.0336 N   0  0  0  0  0  0
  -25.4240  -15.1943   20.3963 N   0  0  0  0  0  0
  -31.9133  -14.5848   20.1640 O   0  0  0  0  0  0
  -21.6669   -6.8934   21.4240 O   0  0  0  0  0  0
  -22.3527  -14.5547   20.6586 O   0  0  0  0  0  0
  -24.6148  -31.8745   23.2160 C   0  0  0  0  0  0
  -25.9040  -32.4823   23.8461 C   0  0  1  0  0  0
  -27.1841  -27.4155   20.0688 C   0  0  0  0  0  0
  -25.5897  -33.8623   24.2369 N   0  0  0  0  0  0
  -23.3953  -30.5085   21.5636 C   0  0  2  0  0  0
  -24.8262  -28.9980   20.1079 C   0  0  0  0  0  0
  -22.7402  -29.4711   22.5026 C   0  0  0  0  0  0
  -18.0259  -28.1424   22.8474 C   0  0  0  0  0  0
  -24.1490  -36.7330   23.2635 C   0  0  0  0  0  0
  -25.9337  -30.8360   21.3699 C   0  0  0  0  0  0
  -25.9991  -29.4748   20.7087 C   0  0  0  0  0  0
  -27.1830  -28.6908   20.6920 C   0  0  0  0  0  0
  -25.9894  -26.9977   19.4228 C   0  0  0  0  0  0
  -24.8177  -27.7570   19.4644 C   0  0  0  0  0  0
  -23.5945  -29.8712   20.1689 C   0  0  0  0  0  0
  -25.4089  -36.3088   24.0335 C   0  0  1  0  0  0
  -20.5865  -28.3693   23.1345 C   0  0  2  0  0  0
  -20.6792  -26.9442   22.5422 C   0  0  0  0  0  0
  -19.5757  -26.6416   21.5237 C   0  0  0  0  0  0
  -18.1927  -26.7965   22.1623 C   0  0  0  0  0  0
  -19.1516  -28.8865   23.2904 C   0  0  0  0  0  0
  -18.9437  -30.1477   23.8900 C   0  0  0  0  0  0
  -17.6449  -30.6615   24.0555 C   0  0  0  0  0  0
  -25.9022  -34.9453   23.5136 C   0  0  0  0  0  0
  -16.5341  -29.9134   23.6323 C   0  0  0  0  0  0
  -16.7249  -28.6564   23.0322 C   0  0  0  0  0  0
  -26.4428  -31.6591   25.0796 C   0  0  0  0  0  0
  -25.3638  -31.3809   26.1521 C   0  0  0  0  0  0
  -27.0279  -30.3013   24.6244 C   0  0  0  0  0  0
  -27.6052  -32.4258   25.7546 C   0  0  0  0  0  0
  -27.5574  -37.1782   24.8439 C   0  0  0  0  0  0
  -21.4143  -29.3056   22.3745 N   0  0  0  0  0  0
  -26.4272  -37.3773   23.9407 N   0  0  0  0  0  0
  -24.6672  -31.0867   22.1056 N   0  0  0  0  0  0
  -23.4192  -28.8245   23.3037 O   0  0  0  0  0  0
  -28.3018  -26.5915   20.1114 O   0  0  0  0  0  0
  -26.5588  -34.8893   22.4705 O   0  0  0  0  0  0
  -23.5327  -32.1557   23.7510 O   0  0  0  0  0  0
  -30.1681  -22.0847   21.5549 C   0  0  0  0  0  0
  -31.2763  -17.3203   19.2792 C   0  0  0  0  0  0
  -30.5543  -23.4230   21.7312 C   0  0  0  0  0  0
  -29.1353  -21.8177   20.6372 C   0  0  0  0  0  0
  -31.4034  -18.6233   18.7946 C   0  0  0  0  0  0
  -30.2357  -17.0168   20.1889 C   0  0  0  0  0  0
  -28.9191  -24.1039   20.3043 C   0  0  0  0  0  0
  -29.6139  -19.2757   20.0602 C   0  0  0  0  0  0
  -31.6679  -23.8102   22.6737 C   0  0  0  0  0  0
  -32.4297  -19.0263   17.7509 C   0  0  0  0  0  0
  -27.4407  -20.0162   21.2796 C   0  0  0  0  0  0
  -28.0366  -25.2102   19.7405 C   0  0  0  0  0  0
  -28.5816  -20.4034   20.3203 C   0  0  1  0  0  0
  -29.9275  -24.4298   21.0998 N   0  0  0  0  0  0
  -28.5049  -22.8603   20.0457 N   0  0  0  0  0  0
  -30.5692  -19.5887   19.1912 N   0  0  0  0  0  0
  -29.4089  -18.0332   20.5484 N   0  0  0  0  0  0
  -29.9938  -15.6737   20.6636 N   0  0  0  0  0  0
  -31.4797  -12.3872   19.1796 H   0  0  0  0  0  0
  -30.2968  -11.3443   19.9182 H   0  0  0  0  0  0
  -29.7900  -11.7699   17.4543 H   0  0  0  0  0  0
  -29.6786  -13.4828   17.7823 H   0  0  0  0  0  0
  -27.8709  -11.2928   18.8626 H   0  0  0  0  0  0
  -27.4050  -12.5577   17.7653 H   0  0  0  0  0  0
  -27.6750  -14.2621   19.4985 H   0  0  0  0  0  0
  -28.6844  -12.0970   21.4093 H   0  0  0  0  0  0
  -28.4742  -13.7876   21.7997 H   0  0  0  0  0  0
  -25.2835   -9.5782   22.4668 H   0  0  0  0  0  0
  -24.0081   -7.4729   22.7449 H   0  0  0  0  0  0
  -21.0913   -8.8848   19.8945 H   0  0  0  0  0  0
  -22.3768  -10.9704   19.6111 H   0  0  0  0  0  0
  -21.2028   -7.6153   23.9746 H   0  0  0  0  0  0
  -21.1479   -6.0454   25.9059 H   0  0  0  0  0  0
  -22.0607   -2.7612   23.2738 H   0  0  0  0  0  0
  -22.4065  -12.0058   22.4952 H   0  0  0  0  0  0
  -21.1054  -13.1279   22.2420 H   0  0  0  0  0  0
  -24.6588  -15.8499   20.5121 H   0  0  0  0  0  0
  -26.2805  -15.6336   20.0839 H   0  0  0  0  0  0
  -26.7135  -32.5504   23.1252 H   0  0  0  0  0  0
  -24.9930  -33.9805   25.0423 H   0  0  0  0  0  0
  -22.6782  -31.3229   21.4465 H   0  0  0  0  0  0
  -23.3726  -35.9692   23.3245 H   0  0  0  0  0  0
  -24.3634  -36.8990   22.2073 H   0  0  0  0  0  0
  -23.7261  -37.6526   23.6684 H   0  0  0  0  0  0
  -26.0558  -31.6064   20.6051 H   0  0  0  0  0  0
  -26.8203  -30.8806   21.9909 H   0  0  0  0  0  0
  -28.0823  -29.0559   21.1695 H   0  0  0  0  0  0
  -25.9043  -26.0748   18.8687 H   0  0  0  0  0  0
  -23.9209  -27.3950   18.9786 H   0  0  0  0  0  0
  -23.6951  -30.6697   19.4319 H   0  0  0  0  0  0
  -22.7139  -29.3047   19.8592 H   0  0  0  0  0  0
  -25.1244  -36.1977   25.0830 H   0  0  0  0  0  0
  -20.9941  -28.3269   24.1473 H   0  0  0  0  0  0
  -20.5822  -26.2272   23.3589 H   0  0  0  0  0  0
  -21.6648  -26.7578   22.1122 H   0  0  0  0  0  0
  -19.6937  -25.6338   21.1242 H   0  0  0  0  0  0
  -19.6718  -27.3243   20.6789 H   0  0  0  0  0  0
  -17.4207  -26.6688   21.4023 H   0  0  0  0  0  0
  -18.0313  -26.0152   22.9060 H   0  0  0  0  0  0
  -19.7918  -30.7280   24.2285 H   0  0  0  0  0  0
  -17.5002  -31.6290   24.5167 H   0  0  0  0  0  0
  -15.5335  -30.3031   23.7652 H   0  0  0  0  0  0
  -15.8647  -28.0885   22.7034 H   0  0  0  0  0  0
  -24.5826  -30.7128   25.7881 H   0  0  0  0  0  0
  -24.8783  -32.3017   26.4782 H   0  0  0  0  0  0
  -25.7890  -30.9119   27.0407 H   0  0  0  0  0  0
  -26.2910  -29.6775   24.1187 H   0  0  0  0  0  0
  -27.3916  -29.7244   25.4764 H   0  0  0  0  0  0
  -27.8776  -30.4317   23.9539 H   0  0  0  0  0  0
  -27.2751  -33.3584   26.2145 H   0  0  0  0  0  0
  -28.3854  -32.6751   25.0336 H   0  0  0  0  0  0
  -28.0728  -31.8345   26.5437 H   0  0  0  0  0  0
  -28.2511  -38.0146   24.7482 H   0  0  0  0  0  0
  -28.1113  -36.2646   24.6204 H   0  0  0  0  0  0
  -27.2292  -37.1361   25.8841 H   0  0  0  0  0  0
  -20.9304  -29.8738   21.6937 H   0  0  0  0  0  0
  -26.0140  -38.2842   24.1431 H   0  0  0  0  0  0
  -30.6606  -21.2821   22.0932 H   0  0  0  0  0  0
  -31.9683  -16.5761   18.9047 H   0  0  0  0  0  0
  -32.4861  -23.0928   22.5951 H   0  0  0  0  0  0
  -31.2972  -23.8187   23.7005 H   0  0  0  0  0  0
  -32.0656  -24.7999   22.4437 H   0  0  0  0  0  0
  -33.2378  -18.2971   17.6781 H   0  0  0  0  0  0
  -32.8677  -19.9914   18.0064 H   0  0  0  0  0  0
  -31.9576  -19.1294   16.7718 H   0  0  0  0  0  0
  -26.6943  -20.8091   21.3088 H   0  0  0  0  0  0
  -27.8136  -19.8617   22.2923 H   0  0  0  0  0  0
  -26.9361  -19.1087   20.9456 H   0  0  0  0  0  0
  -27.0667  -24.9019   20.1356 H   0  0  0  0  0  0
  -27.9961  -25.1134   18.6556 H   0  0  0  0  0  0
  -28.1137  -20.5019   19.3422 H   0  0  0  0  0  0
  -29.0841  -15.5360   21.0732 H   0  0  0  0  0  0
  1 25  1  0  0  0
  1 30  2  0  0  0
  1 88  1  0  0  0
  2  3  1  0  0  0
  2 25  1  0  0  0
  2 89  1  0  0  0
  2 90  1  0  0  0
  3  4  1  0  0  0
  3 91  1  0  0  0
  3 92  1  0  0  0
  4  5  1  0  0  0
  4 93  1  0  0  0
  4 94  1  0  0  0
  5  6  1  0  0  0
  5 26  1  0  0  0
  5 95  1  0  0  0
  6 25  1  0  0  0
  6 96  1  0  0  0
  6 97  1  0  0  0
  7  8  2  0  0  0
  7 26  1  0  0  0
  7 29  1  0  0  0
  8  9  1  0  0  0
  8 22  1  0  0  0
  9 10  1  0  0  0
  9 27  2  0  0  0
 10 11  2  0  0  0
 10 15  1  0  0  0
 11 12  1  0  0  0
 11 98  1  0  0  0
 12 13  2  0  0  0
 12 99  1  0  0  0
 13 14  1  0  0  0
 13 31  1  0  0  0
 14 15  2  0  0  0
 14100  1  0  0  0
 15101  1  0  0  0
 16 17  2  0  0  0
 16 21  1  0  0  0
 16 31  1  0  0  0
 17 18  1  0  0  0
 17102  1  0  0  0
 18 19  2  0  0  0
 18103  1  0  0  0
 19 20  1  0  0  0
 19 24  1  0  0  0
 20 21  2  0  0  0
 20104  1  0  0  0
 21 23  1  0  0  0
 22 28  1  0  0  0
 22 32  2  0  0  0
 26 27  1  0  0  0
 28105  1  0  0  0
 28106  1  0  0  0
 29107  1  0  0  0
 29108  1  0  0  0
 33 34  1  0  0  0
 33 66  1  0  0  0
 33 70  2  0  0  0
 34 36  1  0  0  0
 34 59  1  0  0  0
 34109  1  0  0  0
 35 44  2  0  0  0
 35 45  1  0  0  0
 35 68  1  0  0  0
 36 56  1  0  0  0
 36110  1  0  0  0
 37 39  1  0  0  0
 37 47  1  0  0  0
 37 66  1  0  0  0
 37111  1  0  0  0
 38 43  2  0  0  0
 38 46  1  0  0  0
 38 47  1  0  0  0
 39 64  1  0  0  0
 39 67  2  0  0  0
 40 52  1  0  0  0
 40 53  2  0  0  0
 40 58  1  0  0  0
 41112  1  0  0  0
 41113  1  0  0  0
 41114  1  0  0  0
 41 48  1  0  0  0
 42 43  1  0  0  0
 42 66  1  0  0  0
 42115  1  0  0  0
 42116  1  0  0  0
 43 44  1  0  0  0
 44117  1  0  0  0
 45 46  2  0  0  0
 45118  1  0  0  0
 46119  1  0  0  0
 47120  1  0  0  0
 47121  1  0  0  0
 48 56  1  0  0  0
 48 65  1  0  0  0
 48122  1  0  0  0
 49 50  1  0  0  0
 49 53  1  0  0  0
 49 64  1  0  0  0
 49123  1  0  0  0
 50 51  1  0  0  0
 50124  1  0  0  0
 50125  1  0  0  0
 51 52  1  0  0  0
 51126  1  0  0  0
 51127  1  0  0  0
 52128  1  0  0  0
 52129  1  0  0  0
 53 54  1  0  0  0
 54 55  2  0  0  0
 54130  1  0  0  0
 55 57  1  0  0  0
 55131  1  0  0  0
 56 69  2  0  0  0
 57 58  2  0  0  0
 57132  1  0  0  0
 58133  1  0  0  0
 59 60  1  0  0  0
 59 61  1  0  0  0
 59 62  1  0  0  0
 60134  1  0  0  0
 60135  1  0  0  0
 60136  1  0  0  0
 61137  1  0  0  0
 61138  1  0  0  0
 61139  1  0  0  0
 62140  1  0  0  0
 62141  1  0  0  0
 62142  1  0  0  0
 63 65  1  0  0  0
 63143  1  0  0  0
 63144  1  0  0  0
 63145  1  0  0  0
 64146  1  0  0  0
 65147  1  0  0  0
 68 82  1  0  0  0
 71 73  2  0  0  0
 71 74  1  0  0  0
 71148  1  0  0  0
 72 75  2  0  0  0
 72 76  1  0  0  0
 72149  1  0  0  0
 73 79  1  0  0  0
 73 84  1  0  0  0
 74 83  1  0  0  0
 74 85  2  0  0  0
 75 80  1  0  0  0
 75 86  1  0  0  0
 76 87  2  0  0  0
 76 88  1  0  0  0
 77 82  1  0  0  0
 77 84  2  0  0  0
 77 85  1  0  0  0
 78 83  1  0  0  0
 78 86  2  0  0  0
 78 87  1  0  0  0
 79150  1  0  0  0
 79151  1  0  0  0
 79152  1  0  0  0
 80153  1  0  0  0
 80154  1  0  0  0
 80155  1  0  0  0
 81156  1  0  0  0
 81157  1  0  0  0
 81158  1  0  0  0
 81 83  1  0  0  0
 82159  1  0  0  0
 82160  1  0  0  0
 83161  1  0  0  0
 88162  1  0  0  0
M  ISO  4   1 100  68 101  82 101  88 100
M  END
> <chiral flag>
0

> <version>
0

> <s_m_source_file>
/data/baiqing/PycharmProjects/Reinvent-master-3.2/result/LINK_invent/BTK/process_docking_weight1_custom_sum_contain_oxygen_bond_distance_aromatic_linkinvent_7_9_3/rearranged_h_0180.sdf

> <i_m_source_file_index>
33

> <r_mmod_Potential_Energy-OPLS-2005>
-535.503356933594

> <r_mmod_Stretch_Energy-OPLS-2005>
46.5976524353027

> <r_mmod_Bend_Energy-OPLS-2005>
129.599212646484

> <r_mmod_Torsional_Energy-OPLS-2005>
220.941223144531

> <r_mmod_Improper_Torsional_Energy-OPLS-2005>
6.43850708007812

> <r_mmod_Van_der_Waal_Energy-OPLS-2005>
205.197555541992

> <r_mmod_Electrostatic_Energy-OPLS-2005>
-935.645568847656

> <r_mmod_Solvation_Energy-OPLS-2005>
-243.821853637695

> <b_mmod_Minimization_Converged-OPLS-2005>
0

> <r_mmod_RMS_Derivative-OPLS-2005>
7.2322473526001

$$$$
33
                    3D
 Structure written by MMmdl.
155164  0  0  1  0            999 V2000
  -30.4588  -15.0393   20.3836 C   0  0  0  0  0  0
  -30.4410  -12.6402   19.5237 C   0  0  0  0  0  0
  -29.5348  -12.5429   18.2719 C   0  0  0  0  0  0
  -28.0642  -12.3124   18.6776 C   0  0  0  0  0  0
  -27.6206  -13.2513   19.8276 C   0  0  2  0  0  0
  -28.6492  -13.3089   20.9729 C   0  0  0  0  0  0
  -25.2454  -13.8222   20.5672 C   0  0  0  0  0  0
  -24.1792  -13.0436   20.9220 C   0  0  0  0  0  0
  -24.6403  -11.6916   20.8729 C   0  0  0  0  0  0
  -23.9084  -10.4276   21.0377 C   0  0  0  0  0  0
  -24.3616   -9.4178   21.9157 C   0  0  0  0  0  0
  -23.6302   -8.2210   22.0717 C   0  0  0  0  0  0
  -22.4290   -8.0266   21.3494 C   0  0  0  0  0  0
  -21.9926   -9.0243   20.4613 C   0  0  0  0  0  0
  -22.7249  -10.2125   20.3017 C   0  0  0  0  0  0
  -21.6882   -6.0728   22.5265 C   0  0  0  0  0  0
  -21.4023   -6.5608   23.8203 C   0  0  0  0  0  0
  -21.3664   -5.6767   24.9163 C   0  0  0  0  0  0
  -21.6048   -4.3044   24.7222 C   0  0  0  0  0  0
  -21.8830   -3.8122   23.4355 C   0  0  0  0  0  0
  -21.9178   -4.6935   22.3400 C   0  0  0  0  0  0
  -22.7805  -13.5194   21.1903 C   0  0  0  0  0  0
  -22.1674   -4.2122   21.0981 F   0  0  0  0  0  0
  -21.5606   -3.4522   25.7732 F   0  0  0  0  0  0
  -29.9177  -13.7465   20.3812 N   0  0  0  0  0  0
  -26.2824  -12.9433   20.3124 N   0  0  0  0  0  0
  -25.9323  -11.6570   20.5723 N   0  0  0  0  0  0
  -22.0474  -12.8163   22.0482 N   0  0  0  0  0  0
  -25.4186  -15.1944   20.4018 N   0  0  0  0  0  0
  -31.6583  -15.1230   20.0971 O   0  0  0  0  0  0
  -21.6624   -6.8882   21.4220 O   0  0  0  0  0  0
  -22.3477  -14.5508   20.6807 O   0  0  0  0  0  0
  -24.6519  -31.8421   23.1873 C   0  0  0  0  0  0
  -25.9258  -32.4689   23.8267 C   0  0  1  0  0  0
  -27.1771  -27.0745   20.1641 C   0  0  0  0  0  0
  -25.5975  -33.8486   24.2180 N   0  0  0  0  0  0
  -23.4551  -30.4659   21.5287 C   0  0  2  0  0  0
  -24.8959  -28.8800   20.1090 C   0  0  0  0  0  0
  -22.7614  -29.4601   22.4808 C   0  0  0  0  0  0
  -18.0377  -28.1392   22.8401 C   0  0  0  0  0  0
  -24.1488  -36.7252   23.2641 C   0  0  0  0  0  0
  -26.0119  -30.6979   21.3850 C   0  0  0  0  0  0
  -26.0761  -29.3015   20.7345 C   0  0  0  0  0  0
  -27.2260  -28.4150   20.7382 C   0  0  0  0  0  0
  -25.9739  -26.7609   19.5101 C   0  0  0  0  0  0
  -24.8622  -27.6298   19.4777 C   0  0  0  0  0  0
  -23.6857  -29.7984   20.1454 C   0  0  0  0  0  0
  -25.4121  -36.3013   24.0321 C   0  0  1  0  0  0
  -20.5973  -28.3784   23.1159 C   0  0  2  0  0  0
  -20.6968  -26.9498   22.5300 C   0  0  0  0  0  0
  -19.5896  -26.6207   21.5240 C   0  0  0  0  0  0
  -18.2033  -26.7931   22.1529 C   0  0  0  0  0  0
  -19.1614  -28.8867   23.2789 C   0  0  0  0  0  0
  -18.9489  -30.1393   23.8932 C   0  0  0  0  0  0
  -17.6463  -30.6472   24.0666 C   0  0  0  0  0  0
  -25.9053  -34.9399   23.5049 C   0  0  0  0  0  0
  -16.5389  -29.8987   23.6309 C   0  0  0  0  0  0
  -16.7351  -28.6486   23.0209 C   0  0  0  0  0  0
  -26.4549  -31.6554   25.0713 C   0  0  0  0  0  0
  -25.3729  -31.3773   26.1407 C   0  0  0  0  0  0
  -27.0384  -30.2946   24.6295 C   0  0  0  0  0  0
  -27.6071  -32.4323   25.7521 C   0  0  0  0  0  0
  -27.5571  -37.1802   24.8471 C   0  0  0  0  0  0
  -21.4301  -29.3171   22.3572 N   0  0  0  0  0  0
  -26.4265  -37.3746   23.9439 N   0  0  0  0  0  0
  -24.7273  -31.0236   22.0912 N   0  0  0  0  0  0
  -23.4247  -28.8122   23.2938 O   0  0  0  0  0  0
  -28.1985  -26.0502   20.1471 O   0  0  0  0  0  0
  -26.5631  -34.8913   22.4622 O   0  0  0  0  0  0
  -23.5628  -32.1331   23.7073 O   0  0  0  0  0  0
  -27.6504  -20.6198   18.8090 C   0  0  0  0  0  0
  -27.1583  -21.8211   18.3075 C   0  0  0  0  0  0
  -28.4796  -20.5955   19.9505 C   0  0  0  0  0  0
  -28.0984  -23.1091   19.9643 C   0  0  0  0  0  0
  -27.0711  -19.4437   18.0468 C   0  0  0  0  0  0
  -26.2266  -21.6106   17.1418 C   0  0  0  0  0  0
  -25.9869  -20.0852   17.1371 C   0  0  0  0  0  0
  -28.8709  -19.1133   20.6483 C   0  0  0  0  0  0
  -27.9847  -24.5968   20.7216 C   0  0  0  0  0  0
  -29.7363  -17.7548   20.0296 C   0  0  0  0  0  0
  -27.3769  -23.0391   18.8443 N   0  0  0  0  0  0
  -28.6377  -21.9090   20.5148 N   0  0  0  0  0  0
  -29.6217  -16.2096   20.4882 N   0  0  0  0  0  0
  -31.4723  -12.8186   19.2185 H   0  0  0  0  0  0
  -30.4492  -11.6974   20.0729 H   0  0  0  0  0  0
  -29.8762  -11.7398   17.6184 H   0  0  0  0  0  0
  -29.6240  -13.4652   17.6947 H   0  0  0  0  0  0
  -27.9607  -11.2734   18.9934 H   0  0  0  0  0  0
  -27.4103  -12.4319   17.8097 H   0  0  0  0  0  0
  -27.5792  -14.2450   19.3828 H   0  0  0  0  0  0
  -28.7489  -12.3427   21.4646 H   0  0  0  0  0  0
  -28.3326  -14.0170   21.7422 H   0  0  0  0  0  0
  -25.2768   -9.5640   22.4711 H   0  0  0  0  0  0
  -23.9979   -7.4608   22.7448 H   0  0  0  0  0  0
  -21.0832   -8.8766   19.8970 H   0  0  0  0  0  0
  -22.3695  -10.9638   19.6090 H   0  0  0  0  0  0
  -21.2045   -7.6129   23.9712 H   0  0  0  0  0  0
  -21.1474   -6.0486   25.9051 H   0  0  0  0  0  0
  -22.0611   -2.7595   23.2860 H   0  0  0  0  0  0
  -22.4146  -11.9834   22.4843 H   0  0  0  0  0  0
  -21.1085  -13.1146   22.2740 H   0  0  0  0  0  0
  -24.6477  -15.8514   20.4712 H   0  0  0  0  0  0
  -26.2473  -15.6106   19.9964 H   0  0  0  0  0  0
  -26.7321  -32.5268   23.0981 H   0  0  0  0  0  0
  -25.0164  -33.9588   25.0360 H   0  0  0  0  0  0
  -22.7624  -31.2958   21.3755 H   0  0  0  0  0  0
  -23.3737  -35.9585   23.3291 H   0  0  0  0  0  0
  -24.3567  -36.8909   22.2055 H   0  0  0  0  0  0
  -23.7239  -37.6459   23.6669 H   0  0  0  0  0  0
  -26.1583  -31.4475   20.6041 H   0  0  0  0  0  0
  -26.8856  -30.7621   22.0223 H   0  0  0  0  0  0
  -28.1262  -28.7370   21.2406 H   0  0  0  0  0  0
  -25.8785  -25.7966   19.0307 H   0  0  0  0  0  0
  -23.9649  -27.3094   18.9673 H   0  0  0  0  0  0
  -23.8498  -30.5785   19.4009 H   0  0  0  0  0  0
  -22.7911  -29.2659   19.8154 H   0  0  0  0  0  0
  -25.1298  -36.1852   25.0805 H   0  0  0  0  0  0
  -21.0065  -28.3369   24.1286 H   0  0  0  0  0  0
  -20.6228  -26.2375   23.3532 H   0  0  0  0  0  0
  -21.6776  -26.7732   22.0875 H   0  0  0  0  0  0
  -19.7029  -25.5971   21.1631 H   0  0  0  0  0  0
  -19.6842  -27.2694   20.6516 H   0  0  0  0  0  0
  -17.4373  -26.6710   21.3860 H   0  0  0  0  0  0
  -18.0301  -26.0074   22.8899 H   0  0  0  0  0  0
  -19.7933  -30.7175   24.2433 H   0  0  0  0  0  0
  -17.4973  -31.6092   24.5408 H   0  0  0  0  0  0
  -15.5367  -30.2841   23.7628 H   0  0  0  0  0  0
  -15.8800  -28.0808   22.6819 H   0  0  0  0  0  0
  -24.5912  -30.7104   25.7770 H   0  0  0  0  0  0
  -24.8891  -32.2942   26.4772 H   0  0  0  0  0  0
  -25.8008  -30.9023   27.0239 H   0  0  0  0  0  0
  -26.2980  -29.6684   24.1308 H   0  0  0  0  0  0
  -27.3990  -29.7258   25.4874 H   0  0  0  0  0  0
  -27.8897  -30.4186   23.9603 H   0  0  0  0  0  0
  -27.2662  -33.3667   26.2019 H   0  0  0  0  0  0
  -28.3933  -32.6840   25.0376 H   0  0  0  0  0  0
  -28.0661  -31.8487   26.5523 H   0  0  0  0  0  0
  -28.2580  -38.0106   24.7482 H   0  0  0  0  0  0
  -28.1065  -36.2627   24.6308 H   0  0  0  0  0  0
  -27.2279  -37.1481   25.8870 H   0  0  0  0  0  0
  -20.9510  -29.8960   21.6811 H   0  0  0  0  0  0
  -26.0128  -38.2820   24.1437 H   0  0  0  0  0  0
  -26.6353  -18.7020   18.7187 H   0  0  0  0  0  0
  -27.8433  -18.9528   17.4516 H   0  0  0  0  0  0
  -26.7194  -21.9311   16.2243 H   0  0  0  0  0  0
  -25.2982  -22.1724   17.2514 H   0  0  0  0  0  0
  -25.0123  -19.9162   17.5991 H   0  0  0  0  0  0
  -25.9309  -19.6559   16.1360 H   0  0  0  0  0  0
  -27.8921  -18.7141   20.9102 H   0  0  0  0  0  0
  -29.3185  -19.3675   21.6059 H   0  0  0  0  0  0
  -28.6461  -24.5316   21.5875 H   0  0  0  0  0  0
  -26.9857  -24.5990   21.1626 H   0  0  0  0  0  0
  -30.7935  -18.0130   20.0733 H   0  0  0  0  0  0
  -29.5214  -17.7259   18.9603 H   0  0  0  0  0  0
  -28.6831  -15.9630   20.7654 H   0  0  0  0  0  0
  1 25  1  0  0  0
  1 30  2  0  0  0
  1 83  1  0  0  0
  2  3  1  0  0  0
  2 25  1  0  0  0
  2 84  1  0  0  0
  2 85  1  0  0  0
  3  4  1  0  0  0
  3 86  1  0  0  0
  3 87  1  0  0  0
  4  5  1  0  0  0
  4 88  1  0  0  0
  4 89  1  0  0  0
  5  6  1  0  0  0
  5 26  1  0  0  0
  5 90  1  0  0  0
  6 25  1  0  0  0
  6 91  1  0  0  0
  6 92  1  0  0  0
  7  8  2  0  0  0
  7 26  1  0  0  0
  7 29  1  0  0  0
  8  9  1  0  0  0
  8 22  1  0  0  0
  9 10  1  0  0  0
  9 27  2  0  0  0
 10 11  2  0  0  0
 10 15  1  0  0  0
 11 12  1  0  0  0
 11 93  1  0  0  0
 12 13  2  0  0  0
 12 94  1  0  0  0
 13 14  1  0  0  0
 13 31  1  0  0  0
 14 15  2  0  0  0
 14 95  1  0  0  0
 15 96  1  0  0  0
 16 17  2  0  0  0
 16 21  1  0  0  0
 16 31  1  0  0  0
 17 18  1  0  0  0
 17 97  1  0  0  0
 18 19  2  0  0  0
 18 98  1  0  0  0
 19 20  1  0  0  0
 19 24  1  0  0  0
 20 21  2  0  0  0
 20 99  1  0  0  0
 21 23  1  0  0  0
 22 28  1  0  0  0
 22 32  2  0  0  0
 26 27  1  0  0  0
 28100  1  0  0  0
 28101  1  0  0  0
 29102  1  0  0  0
 29103  1  0  0  0
 33 34  1  0  0  0
 33 66  1  0  0  0
 33 70  2  0  0  0
 34 36  1  0  0  0
 34 59  1  0  0  0
 34104  1  0  0  0
 35 44  2  0  0  0
 35 45  1  0  0  0
 35 68  1  0  0  0
 36 56  1  0  0  0
 36105  1  0  0  0
 37 39  1  0  0  0
 37 47  1  0  0  0
 37 66  1  0  0  0
 37106  1  0  0  0
 38 43  2  0  0  0
 38 46  1  0  0  0
 38 47  1  0  0  0
 39 64  1  0  0  0
 39 67  2  0  0  0
 40 52  1  0  0  0
 40 53  2  0  0  0
 40 58  1  0  0  0
 41107  1  0  0  0
 41108  1  0  0  0
 41109  1  0  0  0
 41 48  1  0  0  0
 42 43  1  0  0  0
 42 66  1  0  0  0
 42110  1  0  0  0
 42111  1  0  0  0
 43 44  1  0  0  0
 44112  1  0  0  0
 45 46  2  0  0  0
 45113  1  0  0  0
 46114  1  0  0  0
 47115  1  0  0  0
 47116  1  0  0  0
 48 56  1  0  0  0
 48 65  1  0  0  0
 48117  1  0  0  0
 49 50  1  0  0  0
 49 53  1  0  0  0
 49 64  1  0  0  0
 49118  1  0  0  0
 50 51  1  0  0  0
 50119  1  0  0  0
 50120  1  0  0  0
 51 52  1  0  0  0
 51121  1  0  0  0
 51122  1  0  0  0
 52123  1  0  0  0
 52124  1  0  0  0
 53 54  1  0  0  0
 54 55  2  0  0  0
 54125  1  0  0  0
 55 57  1  0  0  0
 55126  1  0  0  0
 56 69  2  0  0  0
 57 58  2  0  0  0
 57127  1  0  0  0
 58128  1  0  0  0
 59 60  1  0  0  0
 59 61  1  0  0  0
 59 62  1  0  0  0
 60129  1  0  0  0
 60130  1  0  0  0
 60131  1  0  0  0
 61132  1  0  0  0
 61133  1  0  0  0
 61134  1  0  0  0
 62135  1  0  0  0
 62136  1  0  0  0
 62137  1  0  0  0
 63 65  1  0  0  0
 63138  1  0  0  0
 63139  1  0  0  0
 63140  1  0  0  0
 64141  1  0  0  0
 65142  1  0  0  0
 68 79  1  0  0  0
 71 72  2  0  0  0
 71 73  1  0  0  0
 71 75  1  0  0  0
 72 76  1  0  0  0
 72 81  1  0  0  0
 73 78  1  0  0  0
 73 82  2  0  0  0
 74 79  1  0  0  0
 74 81  2  0  0  0
 74 82  1  0  0  0
 75 77  1  0  0  0
 75143  1  0  0  0
 75144  1  0  0  0
 76 77  1  0  0  0
 76145  1  0  0  0
 76146  1  0  0  0
 77147  1  0  0  0
 77148  1  0  0  0
 78 80  1  0  0  0
 78149  1  0  0  0
 78150  1  0  0  0
 79151  1  0  0  0
 79152  1  0  0  0
 80 83  1  0  0  0
 80153  1  0  0  0
 80154  1  0  0  0
 83155  1  0  0  0
M  ISO  4   1 100  68 101  79 101  83 100
M  END
> <chiral flag>
0

> <version>
0

> <s_m_source_file>
/data/baiqing/PycharmProjects/Reinvent-master-3.2/result/LINK_invent/BTK/process_docking_weight1_custom_sum_contain_oxygen_bond_distance_aromatic_linkinvent_7_9_3/rearranged_h_0180.sdf

> <i_m_source_file_index>
34

> <r_mmod_Potential_Energy-OPLS-2005>
406.183227539062

> <r_mmod_Stretch_Energy-OPLS-2005>
330.7880859375

> <r_mmod_Bend_Energy-OPLS-2005>
348.574249267578

> <r_mmod_Torsional_Energy-OPLS-2005>
254.346633911133

> <r_mmod_Improper_Torsional_Energy-OPLS-2005>
10.164080619812

> <r_mmod_Van_der_Waal_Energy-OPLS-2005>
124.143943786621

> <r_mmod_Electrostatic_Energy-OPLS-2005>
-670.670715332031

> <r_mmod_Solvation_Energy-OPLS-2005>
-252.749206542969

> <b_mmod_Minimization_Converged-OPLS-2005>
0

> <r_mmod_RMS_Derivative-OPLS-2005>
6.00728178024292

$$$$
34
                    3D
 Structure written by MMmdl.
159168  0  0  1  0            999 V2000
  -30.7375  -14.4434   20.5643 C   0  0  0  0  0  0
  -30.4149  -12.2808   19.4367 C   0  0  0  0  0  0
  -29.4864  -12.4873   18.2221 C   0  0  0  0  0  0
  -28.0096  -12.3627   18.6356 C   0  0  0  0  0  0
  -27.6641  -13.2114   19.8883 C   0  0  2  0  0  0
  -28.7082  -12.9973   21.0089 C   0  0  0  0  0  0
  -25.2575  -13.8164   20.5689 C   0  0  0  0  0  0
  -24.1825  -13.0462   20.9187 C   0  0  0  0  0  0
  -24.6376  -11.6915   20.8777 C   0  0  0  0  0  0
  -23.9039  -10.4307   21.0440 C   0  0  0  0  0  0
  -24.3598   -9.4198   21.9191 C   0  0  0  0  0  0
  -23.6291   -8.2224   22.0727 C   0  0  0  0  0  0
  -22.4263   -8.0277   21.3530 C   0  0  0  0  0  0
  -21.9889   -9.0262   20.4649 C   0  0  0  0  0  0
  -22.7207  -10.2157   20.3098 C   0  0  0  0  0  0
  -21.6849   -6.0730   22.5283 C   0  0  0  0  0  0
  -21.4003   -6.5625   23.8210 C   0  0  0  0  0  0
  -21.3667   -5.6777   24.9179 C   0  0  0  0  0  0
  -21.6053   -4.3045   24.7230 C   0  0  0  0  0  0
  -21.8819   -3.8139   23.4348 C   0  0  0  0  0  0
  -21.9187   -4.6958   22.3401 C   0  0  0  0  0  0
  -22.7846  -13.5251   21.1857 C   0  0  0  0  0  0
  -22.1670   -4.2142   21.0986 F   0  0  0  0  0  0
  -21.5625   -3.4527   25.7737 F   0  0  0  0  0  0
  -30.0438  -13.2779   20.4540 N   0  0  0  0  0  0
  -26.3034  -12.9357   20.3457 N   0  0  0  0  0  0
  -25.9330  -11.6514   20.5887 N   0  0  0  0  0  0
  -22.0494  -12.8307   22.0463 N   0  0  0  0  0  0
  -25.4313  -15.1868   20.3993 N   0  0  0  0  0  0
  -31.8515  -14.6065   20.0603 O   0  0  0  0  0  0
  -21.6629   -6.8874   21.4245 O   0  0  0  0  0  0
  -22.3532  -14.5545   20.6656 O   0  0  0  0  0  0
  -24.6126  -31.8698   23.2102 C   0  0  0  0  0  0
  -25.9028  -32.4839   23.8384 C   0  0  1  0  0  0
  -27.2222  -27.4448   20.1035 C   0  0  0  0  0  0
  -25.5896  -33.8639   24.2323 N   0  0  0  0  0  0
  -23.3969  -30.4921   21.5522 C   0  0  2  0  0  0
  -24.8431  -28.9585   20.1131 C   0  0  0  0  0  0
  -22.7402  -29.4658   22.5020 C   0  0  0  0  0  0
  -18.0278  -28.1371   22.8506 C   0  0  0  0  0  0
  -24.1483  -36.7336   23.2633 C   0  0  0  0  0  0
  -25.9198  -30.8423   21.3526 C   0  0  0  0  0  0
  -25.9994  -29.4702   20.7172 C   0  0  0  0  0  0
  -27.1941  -28.7157   20.7221 C   0  0  0  0  0  0
  -26.0600  -26.9511   19.4807 C   0  0  0  0  0  0
  -24.8655  -27.6970   19.4916 C   0  0  0  0  0  0
  -23.6015  -29.8216   20.1665 C   0  0  0  0  0  0
  -25.4101  -36.3127   24.0335 C   0  0  1  0  0  0
  -20.5862  -28.3652   23.1339 C   0  0  2  0  0  0
  -20.6755  -26.9393   22.5426 C   0  0  0  0  0  0
  -19.5727  -26.6386   21.5222 C   0  0  0  0  0  0
  -18.1912  -26.7923   22.1639 C   0  0  0  0  0  0
  -19.1523  -28.8827   23.2922 C   0  0  0  0  0  0
  -18.9455  -30.1441   23.8923 C   0  0  0  0  0  0
  -17.6452  -30.6581   24.0570 C   0  0  0  0  0  0
  -25.9026  -34.9491   23.5124 C   0  0  0  0  0  0
  -16.5343  -29.9086   23.6315 C   0  0  0  0  0  0
  -16.7268  -28.6502   23.0345 C   0  0  0  0  0  0
  -26.4470  -31.6585   25.0683 C   0  0  0  0  0  0
  -25.3750  -31.3668   26.1437 C   0  0  0  0  0  0
  -27.0256  -30.3043   24.5962 C   0  0  0  0  0  0
  -27.6060  -32.4272   25.7453 C   0  0  0  0  0  0
  -27.5575  -37.1816   24.8464 C   0  0  0  0  0  0
  -21.4134  -29.3028   22.3758 N   0  0  0  0  0  0
  -26.4288  -37.3806   23.9408 N   0  0  0  0  0  0
  -24.6623  -31.0813   22.0986 N   0  0  0  0  0  0
  -23.4197  -28.8219   23.3057 O   0  0  0  0  0  0
  -28.3485  -26.6593   20.0767 O   0  0  0  0  0  0
  -26.5592  -34.8939   22.4690 O   0  0  0  0  0  0
  -23.5327  -32.1445   23.7514 O   0  0  0  0  0  0
  -28.8917  -23.9495   22.4146 C   0  0  0  0  0  0
  -29.3048  -22.7357   21.9343 C   0  0  0  0  0  0
  -28.2755  -17.9781   21.6940 C   0  0  0  0  0  0
  -27.9783  -19.3615   22.2831 C   0  0  0  0  0  0
  -30.1567  -19.4088   21.3030 C   0  0  0  0  0  0
  -29.8041  -17.9484   21.6790 C   0  0  1  0  0  0
  -29.3807  -21.4061   22.6528 C   0  0  0  0  0  0
  -30.4341  -16.8802   20.7536 C   0  0  0  0  0  0
  -28.8484  -26.2728   21.3293 C   0  0  0  0  0  0
  -29.6790  -22.9109   20.5988 N   0  0  0  0  0  0
  -29.5438  -24.1644   20.2705 N   0  0  0  0  0  0
  -29.0607  -24.8229   21.3541 N   0  0  0  0  0  0
  -30.0774  -15.4912   21.0864 N   0  0  0  0  0  0
  -29.0311  -20.2656   21.7628 N   0  3  2  0  0  0
  -31.4590  -12.3546   19.1272 H   0  0  0  0  0  0
  -30.3071  -11.2756   19.8483 H   0  0  0  0  0  0
  -29.7164  -11.7567   17.4454 H   0  0  0  0  0  0
  -29.6631  -13.4728   17.7889 H   0  0  0  0  0  0
  -27.8145  -11.3093   18.8424 H   0  0  0  0  0  0
  -27.3558  -12.6377   17.8069 H   0  0  0  0  0  0
  -27.7128  -14.2590   19.5933 H   0  0  0  0  0  0
  -28.6661  -11.9636   21.3581 H   0  0  0  0  0  0
  -28.4846  -13.6111   21.8815 H   0  0  0  0  0  0
  -25.2734   -9.5660   22.4770 H   0  0  0  0  0  0
  -23.9992   -7.4595   22.7432 H   0  0  0  0  0  0
  -21.0802   -8.8819   19.8974 H   0  0  0  0  0  0
  -22.3654  -10.9718   19.6232 H   0  0  0  0  0  0
  -21.2002   -7.6132   23.9724 H   0  0  0  0  0  0
  -21.1484   -6.0499   25.9081 H   0  0  0  0  0  0
  -22.0599   -2.7598   23.2854 H   0  0  0  0  0  0
  -22.4124  -12.0023   22.4959 H   0  0  0  0  0  0
  -21.1120  -13.1355   22.2686 H   0  0  0  0  0  0
  -24.6633  -15.8434   20.4752 H   0  0  0  0  0  0
  -26.2703  -15.6028   20.0172 H   0  0  0  0  0  0
  -26.7100  -32.5576   23.1153 H   0  0  0  0  0  0
  -25.0041  -33.9793   25.0464 H   0  0  0  0  0  0
  -22.6847  -31.3085   21.4159 H   0  0  0  0  0  0
  -23.3729  -35.9683   23.3317 H   0  0  0  0  0  0
  -24.3562  -36.8928   22.2035 H   0  0  0  0  0  0
  -23.7241  -37.6558   23.6629 H   0  0  0  0  0  0
  -25.9992  -31.5930   20.5649 H   0  0  0  0  0  0
  -26.8217  -30.9237   21.9461 H   0  0  0  0  0  0
  -28.0856  -29.1077   21.1920 H   0  0  0  0  0  0
  -26.0768  -25.9840   18.9969 H   0  0  0  0  0  0
  -23.9770  -27.3023   19.0184 H   0  0  0  0  0  0
  -23.6975  -30.5937   19.4021 H   0  0  0  0  0  0
  -22.7259  -29.2342   19.8822 H   0  0  0  0  0  0
  -25.1267  -36.1993   25.0827 H   0  0  0  0  0  0
  -20.9962  -28.3209   24.1452 H   0  0  0  0  0  0
  -20.5650  -26.2262   23.3612 H   0  0  0  0  0  0
  -21.6627  -26.7420   22.1219 H   0  0  0  0  0  0
  -19.6879  -25.6304   21.1225 H   0  0  0  0  0  0
  -19.6657  -27.3222   20.6776 H   0  0  0  0  0  0
  -17.4181  -26.6701   21.4041 H   0  0  0  0  0  0
  -18.0305  -26.0054   22.9021 H   0  0  0  0  0  0
  -19.7930  -30.7266   24.2295 H   0  0  0  0  0  0
  -17.5001  -31.6261   24.5181 H   0  0  0  0  0  0
  -15.5343  -30.2998   23.7603 H   0  0  0  0  0  0
  -15.8678  -28.0829   22.7023 H   0  0  0  0  0  0
  -24.5952  -30.6972   25.7785 H   0  0  0  0  0  0
  -24.8903  -32.2807   26.4881 H   0  0  0  0  0  0
  -25.8129  -30.8859   27.0188 H   0  0  0  0  0  0
  -26.2737  -29.6847   24.1048 H   0  0  0  0  0  0
  -27.4101  -29.7228   25.4348 H   0  0  0  0  0  0
  -27.8554  -30.4397   23.9018 H   0  0  0  0  0  0
  -27.2699  -33.3558   26.2080 H   0  0  0  0  0  0
  -28.3867  -32.6838   25.0280 H   0  0  0  0  0  0
  -28.0729  -31.8347   26.5328 H   0  0  0  0  0  0
  -28.2609  -38.0098   24.7501 H   0  0  0  0  0  0
  -28.1055  -36.2629   24.6306 H   0  0  0  0  0  0
  -27.2298  -37.1495   25.8870 H   0  0  0  0  0  0
  -20.9293  -29.8741   21.6972 H   0  0  0  0  0  0
  -26.0189  -38.2889   24.1414 H   0  0  0  0  0  0
  -28.5356  -24.2584   23.3893 H   0  0  0  0  0  0
  -27.8804  -17.9161   20.6790 H   0  0  0  0  0  0
  -27.8335  -17.1713   22.2806 H   0  0  0  0  0  0
  -28.0404  -19.2924   23.3704 H   0  0  0  0  0  0
  -26.9815  -19.7262   22.0339 H   0  0  0  0  0  0
  -30.2097  -19.5131   20.2192 H   0  0  0  0  0  0
  -31.1289  -19.7089   21.6971 H   0  0  0  0  0  0
  -30.1472  -17.7749   22.7011 H   0  0  0  0  0  0
  -28.6849  -21.4390   23.4921 H   0  0  0  0  0  0
  -30.3616  -21.2697   23.1108 H   0  0  0  0  0  0
  -31.5197  -17.0110   20.7430 H   0  0  0  0  0  0
  -30.1101  -17.0494   19.7252 H   0  0  0  0  0  0
  -29.8007  -26.7707   21.5150 H   0  0  0  0  0  0
  -28.1598  -26.5192   22.1407 H   0  0  0  0  0  0
  -29.1878  -15.3122   21.5278 H   0  0  0  0  0  0
  -28.6691  -20.7103   20.9309 H   0  0  0  0  0  0
  1 25  1  0  0  0
  1 30  2  0  0  0
  1 83  1  0  0  0
  2  3  1  0  0  0
  2 25  1  0  0  0
  2 85  1  0  0  0
  2 86  1  0  0  0
  3  4  1  0  0  0
  3 87  1  0  0  0
  3 88  1  0  0  0
  4  5  1  0  0  0
  4 89  1  0  0  0
  4 90  1  0  0  0
  5  6  1  0  0  0
  5 26  1  0  0  0
  5 91  1  0  0  0
  6 25  1  0  0  0
  6 92  1  0  0  0
  6 93  1  0  0  0
  7  8  2  0  0  0
  7 26  1  0  0  0
  7 29  1  0  0  0
  8  9  1  0  0  0
  8 22  1  0  0  0
  9 10  1  0  0  0
  9 27  2  0  0  0
 10 11  2  0  0  0
 10 15  1  0  0  0
 11 12  1  0  0  0
 11 94  1  0  0  0
 12 13  2  0  0  0
 12 95  1  0  0  0
 13 14  1  0  0  0
 13 31  1  0  0  0
 14 15  2  0  0  0
 14 96  1  0  0  0
 15 97  1  0  0  0
 16 17  2  0  0  0
 16 21  1  0  0  0
 16 31  1  0  0  0
 17 18  1  0  0  0
 17 98  1  0  0  0
 18 19  2  0  0  0
 18 99  1  0  0  0
 19 20  1  0  0  0
 19 24  1  0  0  0
 20 21  2  0  0  0
 20100  1  0  0  0
 21 23  1  0  0  0
 22 28  1  0  0  0
 22 32  2  0  0  0
 26 27  1  0  0  0
 28101  1  0  0  0
 28102  1  0  0  0
 29103  1  0  0  0
 29104  1  0  0  0
 33 34  1  0  0  0
 33 66  1  0  0  0
 33 70  2  0  0  0
 34 36  1  0  0  0
 34 59  1  0  0  0
 34105  1  0  0  0
 35 44  2  0  0  0
 35 45  1  0  0  0
 35 68  1  0  0  0
 36 56  1  0  0  0
 36106  1  0  0  0
 37 39  1  0  0  0
 37 47  1  0  0  0
 37 66  1  0  0  0
 37107  1  0  0  0
 38 43  2  0  0  0
 38 46  1  0  0  0
 38 47  1  0  0  0
 39 64  1  0  0  0
 39 67  2  0  0  0
 40 52  1  0  0  0
 40 53  2  0  0  0
 40 58  1  0  0  0
 41108  1  0  0  0
 41109  1  0  0  0
 41110  1  0  0  0
 41 48  1  0  0  0
 42 43  1  0  0  0
 42 66  1  0  0  0
 42111  1  0  0  0
 42112  1  0  0  0
 43 44  1  0  0  0
 44113  1  0  0  0
 45 46  2  0  0  0
 45114  1  0  0  0
 46115  1  0  0  0
 47116  1  0  0  0
 47117  1  0  0  0
 48 56  1  0  0  0
 48 65  1  0  0  0
 48118  1  0  0  0
 49 50  1  0  0  0
 49 53  1  0  0  0
 49 64  1  0  0  0
 49119  1  0  0  0
 50 51  1  0  0  0
 50120  1  0  0  0
 50121  1  0  0  0
 51 52  1  0  0  0
 51122  1  0  0  0
 51123  1  0  0  0
 52124  1  0  0  0
 52125  1  0  0  0
 53 54  1  0  0  0
 54 55  2  0  0  0
 54126  1  0  0  0
 55 57  1  0  0  0
 55127  1  0  0  0
 56 69  2  0  0  0
 57 58  2  0  0  0
 57128  1  0  0  0
 58129  1  0  0  0
 59 60  1  0  0  0
 59 61  1  0  0  0
 59 62  1  0  0  0
 60130  1  0  0  0
 60131  1  0  0  0
 60132  1  0  0  0
 61133  1  0  0  0
 61134  1  0  0  0
 61135  1  0  0  0
 62136  1  0  0  0
 62137  1  0  0  0
 62138  1  0  0  0
 63 65  1  0  0  0
 63139  1  0  0  0
 63140  1  0  0  0
 63141  1  0  0  0
 64142  1  0  0  0
 65143  1  0  0  0
 68 79  1  0  0  0
 71 72  2  0  0  0
 71 82  1  0  0  0
 71144  1  0  0  0
 72 77  1  0  0  0
 72 80  1  0  0  0
 73 74  1  0  0  0
 73 76  1  0  0  0
 73145  1  0  0  0
 73146  1  0  0  0
 74 84  1  0  0  0
 74147  1  0  0  0
 74148  1  0  0  0
 75 76  1  0  0  0
 75 84  1  0  0  0
 75149  1  0  0  0
 75150  1  0  0  0
 76 78  1  0  0  0
 76151  1  0  0  0
 77152  1  0  0  0
 77153  1  0  0  0
 77 84  1  0  0  0
 78 83  1  0  0  0
 78154  1  0  0  0
 78155  1  0  0  0
 79 82  1  0  0  0
 79156  1  0  0  0
 79157  1  0  0  0
 80 81  2  0  0  0
 81 82  1  0  0  0
 83158  1  0  0  0
 84159  1  0  0  0
M  CHG  1  84   1
M  ISO  4   1 100  68 101  79 101  83 100
M  END
> <chiral flag>
0

> <version>
0

> <s_m_source_file>
/data/baiqing/PycharmProjects/Reinvent-master-3.2/result/LINK_invent/BTK/process_docking_weight1_custom_sum_contain_oxygen_bond_distance_aromatic_linkinvent_7_9_3/rearranged_h_0180.sdf

> <i_m_source_file_index>
35

> <r_mmod_Potential_Energy-OPLS-2005>
-197.161758422852

> <r_mmod_Stretch_Energy-OPLS-2005>
34.1129188537598

> <r_mmod_Bend_Energy-OPLS-2005>
120.020500183105

> <r_mmod_Torsional_Energy-OPLS-2005>
295.912719726562

> <r_mmod_Improper_Torsional_Energy-OPLS-2005>
5.07030868530273

> <r_mmod_Van_der_Waal_Energy-OPLS-2005>
125.320365905762

> <r_mmod_Electrostatic_Energy-OPLS-2005>
-325.535614013672

> <r_mmod_Solvation_Energy-OPLS-2005>
-463.990905761719

> <b_mmod_Minimization_Converged-OPLS-2005>
0

> <r_mmod_RMS_Derivative-OPLS-2005>
3.35877919197083

$$$$
35
                    3D
 Structure written by MMmdl.
159169  0  0  1  0            999 V2000
  -30.6288  -14.6124   20.4860 C   0  0  0  0  0  0
  -30.4330  -12.3677   19.4556 C   0  0  0  0  0  0
  -29.5086  -12.5047   18.2252 C   0  0  0  0  0  0
  -28.0303  -12.3477   18.6354 C   0  0  0  0  0  0
  -27.6541  -13.2154   19.8652 C   0  0  2  0  0  0
  -28.6974  -13.0689   20.9978 C   0  0  0  0  0  0
  -25.2553  -13.8161   20.5666 C   0  0  0  0  0  0
  -24.1821  -13.0434   20.9186 C   0  0  0  0  0  0
  -24.6394  -11.6908   20.8748 C   0  0  0  0  0  0
  -23.9067  -10.4290   21.0419 C   0  0  0  0  0  0
  -24.3622   -9.4200   21.9189 C   0  0  0  0  0  0
  -23.6287   -8.2237   22.0753 C   0  0  0  0  0  0
  -22.4271   -8.0276   21.3542 C   0  0  0  0  0  0
  -21.9910   -9.0258   20.4646 C   0  0  0  0  0  0
  -22.7247  -10.2132   20.3063 C   0  0  0  0  0  0
  -21.6847   -6.0727   22.5279 C   0  0  0  0  0  0
  -21.4014   -6.5633   23.8214 C   0  0  0  0  0  0
  -21.3658   -5.6788   24.9179 C   0  0  0  0  0  0
  -21.6045   -4.3051   24.7228 C   0  0  0  0  0  0
  -21.8816   -3.8139   23.4350 C   0  0  0  0  0  0
  -21.9188   -4.6953   22.3407 C   0  0  0  0  0  0
  -22.7844  -13.5231   21.1856 C   0  0  0  0  0  0
  -22.1661   -4.2143   21.0981 F   0  0  0  0  0  0
  -21.5629   -3.4532   25.7739 F   0  0  0  0  0  0
  -30.0187  -13.3891   20.4370 N   0  0  0  0  0  0
  -26.2988  -12.9346   20.3315 N   0  0  0  0  0  0
  -25.9328  -11.6506   20.5772 N   0  0  0  0  0  0
  -22.0486  -12.8229   22.0420 N   0  0  0  0  0  0
  -25.4249  -15.1878   20.4059 N   0  0  0  0  0  0
  -31.7887  -14.7777   20.0994 O   0  0  0  0  0  0
  -21.6638   -6.8874   21.4240 O   0  0  0  0  0  0
  -22.3534  -14.5542   20.6710 O   0  0  0  0  0  0
  -24.6219  -31.8622   23.2015 C   0  0  0  0  0  0
  -25.9081  -32.4788   23.8343 C   0  0  1  0  0  0
  -27.2335  -27.3542   20.1320 C   0  0  0  0  0  0
  -25.5913  -33.8580   24.2280 N   0  0  0  0  0  0
  -23.4144  -30.4819   21.5427 C   0  0  2  0  0  0
  -24.8647  -28.9327   20.1144 C   0  0  0  0  0  0
  -22.7447  -29.4638   22.4951 C   0  0  0  0  0  0
  -18.0287  -28.1368   22.8489 C   0  0  0  0  0  0
  -24.1488  -36.7298   23.2635 C   0  0  0  0  0  0
  -25.9484  -30.8067   21.3630 C   0  0  0  0  0  0
  -26.0283  -29.4334   20.7128 C   0  0  0  0  0  0
  -27.2186  -28.6569   20.7057 C   0  0  0  0  0  0
  -26.0515  -26.8849   19.5220 C   0  0  0  0  0  0
  -24.8753  -27.6632   19.5099 C   0  0  0  0  0  0
  -23.6286  -29.8077   20.1605 C   0  0  0  0  0  0
  -25.4110  -36.3083   24.0325 C   0  0  1  0  0  0
  -20.5878  -28.3682   23.1297 C   0  0  2  0  0  0
  -20.6778  -26.9404   22.5433 C   0  0  0  0  0  0
  -19.5768  -26.6367   21.5221 C   0  0  0  0  0  0
  -18.1948  -26.7915   22.1625 C   0  0  0  0  0  0
  -19.1532  -28.8843   23.2885 C   0  0  0  0  0  0
  -18.9449  -30.1457   23.8884 C   0  0  0  0  0  0
  -17.6445  -30.6578   24.0536 C   0  0  0  0  0  0
  -25.9044  -34.9456   23.5102 C   0  0  0  0  0  0
  -16.5345  -29.9066   23.6303 C   0  0  0  0  0  0
  -16.7275  -28.6475   23.0334 C   0  0  0  0  0  0
  -26.4482  -31.6583   25.0695 C   0  0  0  0  0  0
  -25.3727  -31.3721   26.1432 C   0  0  0  0  0  0
  -27.0314  -30.3009   24.6119 C   0  0  0  0  0  0
  -27.6041  -32.4311   25.7472 C   0  0  0  0  0  0
  -27.5574  -37.1801   24.8460 C   0  0  0  0  0  0
  -21.4165  -29.3044   22.3691 N   0  0  0  0  0  0
  -26.4287  -37.3771   23.9404 N   0  0  0  0  0  0
  -24.6800  -31.0666   22.0941 N   0  0  0  0  0  0
  -23.4191  -28.8183   23.3019 O   0  0  0  0  0  0
  -28.3756  -26.5575   20.1422 O   0  0  0  0  0  0
  -26.5612  -34.8923   22.4670 O   0  0  0  0  0  0
  -23.5391  -32.1418   23.7366 O   0  0  0  0  0  0
  -30.0506  -20.6088   20.2815 C   0  0  0  0  0  0
  -28.9428  -19.7649   20.5641 C   0  0  0  0  0  0
  -27.5752  -21.6913   20.5137 C   0  0  0  0  0  0
  -28.6772  -22.5269   20.1709 C   0  0  0  0  0  0
  -25.7313  -23.0337   21.8156 C   0  0  0  0  0  0
  -25.2227  -21.6270   21.6861 C   0  0  0  0  0  0
  -28.7888  -17.4903   19.3864 C   0  0  0  0  0  0
  -28.9347  -18.2144   20.6966 C   0  0  1  0  0  0
  -26.1620  -22.1898   20.6329 C   0  0  0  0  0  0
  -29.9347  -17.0702   20.2770 C   0  0  1  0  0  0
  -28.5168  -24.0082   19.6694 C   0  0  0  0  0  0
  -28.2774  -25.1935   20.6821 C   0  0  0  0  0  0
  -29.9204  -21.9621   20.0880 N   0  0  0  0  0  0
  -27.7150  -20.3427   20.6859 N   0  0  0  0  0  0
  -29.7991  -15.6705   20.7204 N   0  0  0  0  0  0
  -31.4783  -12.4777   19.1619 H   0  0  0  0  0  0
  -30.3482  -11.3703   19.8897 H   0  0  0  0  0  0
  -29.7681  -11.7621   17.4697 H   0  0  0  0  0  0
  -29.6601  -13.4791   17.7577 H   0  0  0  0  0  0
  -27.8599  -11.2947   18.8600 H   0  0  0  0  0  0
  -27.3800  -12.5860   17.7932 H   0  0  0  0  0  0
  -27.6702  -14.2497   19.5225 H   0  0  0  0  0  0
  -28.6954  -12.0536   21.3961 H   0  0  0  0  0  0
  -28.4505  -13.7190   21.8388 H   0  0  0  0  0  0
  -25.2771   -9.5660   22.4766 H   0  0  0  0  0  0
  -23.9982   -7.4624   22.7476 H   0  0  0  0  0  0
  -21.0831   -8.8785   19.8963 H   0  0  0  0  0  0
  -22.3709  -10.9670   19.6171 H   0  0  0  0  0  0
  -21.2016   -7.6145   23.9710 H   0  0  0  0  0  0
  -21.1485   -6.0527   25.9079 H   0  0  0  0  0  0
  -22.0600   -2.7598   23.2858 H   0  0  0  0  0  0
  -22.4108  -11.9892   22.4801 H   0  0  0  0  0  0
  -21.1114  -13.1270   22.2652 H   0  0  0  0  0  0
  -24.6534  -15.8389   20.5034 H   0  0  0  0  0  0
  -26.2675  -15.6229   20.0550 H   0  0  0  0  0  0
  -26.7151  -32.5479   23.1099 H   0  0  0  0  0  0
  -25.0067  -33.9725   25.0430 H   0  0  0  0  0  0
  -22.7070  -31.3006   21.3956 H   0  0  0  0  0  0
  -23.3743  -35.9636   23.3305 H   0  0  0  0  0  0
  -24.3586  -36.8920   22.2049 H   0  0  0  0  0  0
  -23.7255  -37.6506   23.6659 H   0  0  0  0  0  0
  -26.0680  -31.5703   20.5925 H   0  0  0  0  0  0
  -26.8320  -30.8630   21.9859 H   0  0  0  0  0  0
  -28.1177  -29.0408   21.1674 H   0  0  0  0  0  0
  -26.0360  -25.9084   19.0588 H   0  0  0  0  0  0
  -23.9815  -27.2732   19.0433 H   0  0  0  0  0  0
  -23.7418  -30.5809   19.3995 H   0  0  0  0  0  0
  -22.7513  -29.2306   19.8611 H   0  0  0  0  0  0
  -25.1290  -36.1931   25.0813 H   0  0  0  0  0  0
  -20.9984  -28.3269   24.1415 H   0  0  0  0  0  0
  -20.5670  -26.2310   23.3651 H   0  0  0  0  0  0
  -21.6651  -26.7438   22.1239 H   0  0  0  0  0  0
  -19.6939  -25.6264   21.1277 H   0  0  0  0  0  0
  -19.6711  -27.3163   20.6740 H   0  0  0  0  0  0
  -17.4221  -26.6657   21.4033 H   0  0  0  0  0  0
  -18.0347  -26.0054   22.9028 H   0  0  0  0  0  0
  -19.7928  -30.7279   24.2242 H   0  0  0  0  0  0
  -17.4989  -31.6265   24.5120 H   0  0  0  0  0  0
  -15.5338  -30.2954   23.7611 H   0  0  0  0  0  0
  -15.8681  -28.0793   22.7041 H   0  0  0  0  0  0
  -24.5887  -30.7087   25.7768 H   0  0  0  0  0  0
  -24.8932  -32.2893   26.4862 H   0  0  0  0  0  0
  -25.8058  -30.8895   27.0205 H   0  0  0  0  0  0
  -26.2875  -29.6768   24.1143 H   0  0  0  0  0  0
  -27.4037  -29.7248   25.4604 H   0  0  0  0  0  0
  -27.8739  -30.4305   23.9319 H   0  0  0  0  0  0
  -27.2646  -33.3603   26.2064 H   0  0  0  0  0  0
  -28.3849  -32.6890   25.0303 H   0  0  0  0  0  0
  -28.0716  -31.8428   26.5383 H   0  0  0  0  0  0
  -28.2586  -38.0099   24.7498 H   0  0  0  0  0  0
  -28.1083  -36.2634   24.6297 H   0  0  0  0  0  0
  -27.2304  -37.1461   25.8866 H   0  0  0  0  0  0
  -20.9338  -29.8789   21.6926 H   0  0  0  0  0  0
  -26.0179  -38.2846   24.1405 H   0  0  0  0  0  0
  -31.0426  -20.1959   20.1650 H   0  0  0  0  0  0
  -26.4593  -23.2246   22.6023 H   0  0  0  0  0  0
  -25.0119  -23.8313   21.6409 H   0  0  0  0  0  0
  -24.1765  -21.5000   21.4146 H   0  0  0  0  0  0
  -25.6126  -20.8945   22.3914 H   0  0  0  0  0  0
  -29.0584  -18.0219   18.4754 H   0  0  0  0  0  0
  -27.9281  -16.8322   19.2872 H   0  0  0  0  0  0
  -28.2466  -17.9452   21.4965 H   0  0  0  0  0  0
  -25.7425  -22.4261   19.6565 H   0  0  0  0  0  0
  -30.9342  -17.3980   19.9955 H   0  0  0  0  0  0
  -27.7103  -24.0154   18.9368 H   0  0  0  0  0  0
  -29.4140  -24.2502   19.0995 H   0  0  0  0  0  0
  -29.0345  -25.1239   21.4643 H   0  0  0  0  0  0
  -27.3274  -25.0642   21.1984 H   0  0  0  0  0  0
  -28.8897  -15.4094   21.0683 H   0  0  0  0  0  0
  1 25  1  0  0  0
  1 30  2  0  0  0
  1 85  1  0  0  0
  2  3  1  0  0  0
  2 25  1  0  0  0
  2 86  1  0  0  0
  2 87  1  0  0  0
  3  4  1  0  0  0
  3 88  1  0  0  0
  3 89  1  0  0  0
  4  5  1  0  0  0
  4 90  1  0  0  0
  4 91  1  0  0  0
  5  6  1  0  0  0
  5 26  1  0  0  0
  5 92  1  0  0  0
  6 25  1  0  0  0
  6 93  1  0  0  0
  6 94  1  0  0  0
  7  8  2  0  0  0
  7 26  1  0  0  0
  7 29  1  0  0  0
  8  9  1  0  0  0
  8 22  1  0  0  0
  9 10  1  0  0  0
  9 27  2  0  0  0
 10 11  2  0  0  0
 10 15  1  0  0  0
 11 12  1  0  0  0
 11 95  1  0  0  0
 12 13  2  0  0  0
 12 96  1  0  0  0
 13 14  1  0  0  0
 13 31  1  0  0  0
 14 15  2  0  0  0
 14 97  1  0  0  0
 15 98  1  0  0  0
 16 17  2  0  0  0
 16 21  1  0  0  0
 16 31  1  0  0  0
 17 18  1  0  0  0
 17 99  1  0  0  0
 18 19  2  0  0  0
 18100  1  0  0  0
 19 20  1  0  0  0
 19 24  1  0  0  0
 20 21  2  0  0  0
 20101  1  0  0  0
 21 23  1  0  0  0
 22 28  1  0  0  0
 22 32  2  0  0  0
 26 27  1  0  0  0
 28102  1  0  0  0
 28103  1  0  0  0
 29104  1  0  0  0
 29105  1  0  0  0
 33 34  1  0  0  0
 33 66  1  0  0  0
 33 70  2  0  0  0
 34 36  1  0  0  0
 34 59  1  0  0  0
 34106  1  0  0  0
 35 44  2  0  0  0
 35 45  1  0  0  0
 35 68  1  0  0  0
 36 56  1  0  0  0
 36107  1  0  0  0
 37 39  1  0  0  0
 37 47  1  0  0  0
 37 66  1  0  0  0
 37108  1  0  0  0
 38 43  2  0  0  0
 38 46  1  0  0  0
 38 47  1  0  0  0
 39 64  1  0  0  0
 39 67  2  0  0  0
 40 52  1  0  0  0
 40 53  2  0  0  0
 40 58  1  0  0  0
 41109  1  0  0  0
 41110  1  0  0  0
 41111  1  0  0  0
 41 48  1  0  0  0
 42 43  1  0  0  0
 42 66  1  0  0  0
 42112  1  0  0  0
 42113  1  0  0  0
 43 44  1  0  0  0
 44114  1  0  0  0
 45 46  2  0  0  0
 45115  1  0  0  0
 46116  1  0  0  0
 47117  1  0  0  0
 47118  1  0  0  0
 48 56  1  0  0  0
 48 65  1  0  0  0
 48119  1  0  0  0
 49 50  1  0  0  0
 49 53  1  0  0  0
 49 64  1  0  0  0
 49120  1  0  0  0
 50 51  1  0  0  0
 50121  1  0  0  0
 50122  1  0  0  0
 51 52  1  0  0  0
 51123  1  0  0  0
 51124  1  0  0  0
 52125  1  0  0  0
 52126  1  0  0  0
 53 54  1  0  0  0
 54 55  2  0  0  0
 54127  1  0  0  0
 55 57  1  0  0  0
 55128  1  0  0  0
 56 69  2  0  0  0
 57 58  2  0  0  0
 57129  1  0  0  0
 58130  1  0  0  0
 59 60  1  0  0  0
 59 61  1  0  0  0
 59 62  1  0  0  0
 60131  1  0  0  0
 60132  1  0  0  0
 60133  1  0  0  0
 61134  1  0  0  0
 61135  1  0  0  0
 61136  1  0  0  0
 62137  1  0  0  0
 62138  1  0  0  0
 62139  1  0  0  0
 63 65  1  0  0  0
 63140  1  0  0  0
 63141  1  0  0  0
 63142  1  0  0  0
 64143  1  0  0  0
 65144  1  0  0  0
 68 82  1  0  0  0
 71 72  2  0  0  0
 71 83  1  0  0  0
 71145  1  0  0  0
 72 84  1  0  0  0
 72 78  1  0  0  0
 73 74  1  0  0  0
 73 84  2  0  0  0
 73 79  1  0  0  0
 74 81  1  0  0  0
 74 83  2  0  0  0
 75 76  1  0  0  0
 75 79  1  0  0  0
 75146  1  0  0  0
 75147  1  0  0  0
 76 79  1  0  0  0
 76148  1  0  0  0
 76149  1  0  0  0
 77 78  1  0  0  0
 77 80  1  0  0  0
 77150  1  0  0  0
 77151  1  0  0  0
 78 80  1  0  0  0
 78152  1  0  0  0
 79153  1  0  0  0
 80 85  1  0  0  0
 80154  1  0  0  0
 81 82  1  0  0  0
 81155  1  0  0  0
 81156  1  0  0  0
 82157  1  0  0  0
 82158  1  0  0  0
 85159  1  0  0  0
M  ISO  4   1 100  68 101  82 101  85 100
M  END
> <chiral flag>
0

> <version>
0

> <s_m_source_file>
/data/baiqing/PycharmProjects/Reinvent-master-3.2/result/LINK_invent/BTK/process_docking_weight1_custom_sum_contain_oxygen_bond_distance_aromatic_linkinvent_7_9_3/rearranged_h_0180.sdf

> <i_m_source_file_index>
36

> <r_mmod_Potential_Energy-OPLS-2005>
157.818283081055

> <r_mmod_Stretch_Energy-OPLS-2005>
71.8141937255859

> <r_mmod_Bend_Energy-OPLS-2005>
140.811782836914

> <r_mmod_Torsional_Energy-OPLS-2005>
297.900329589844

> <r_mmod_Improper_Torsional_Energy-OPLS-2005>
8.30849647521973

> <r_mmod_Van_der_Waal_Energy-OPLS-2005>
131.472045898438

> <r_mmod_Electrostatic_Energy-OPLS-2005>
-304.038330078125

> <r_mmod_Solvation_Energy-OPLS-2005>
-225.313980102539

> <b_mmod_Minimization_Converged-OPLS-2005>
0

> <r_mmod_RMS_Derivative-OPLS-2005>
1.59204363822937

$$$$
36
                    3D
 Structure written by MMmdl.
166175  0  0  1  0            999 V2000
  -30.5491  -14.9222   20.4197 C   0  0  0  0  0  0
  -30.4407  -12.5659   19.5031 C   0  0  0  0  0  0
  -29.5229  -12.5297   18.2587 C   0  0  0  0  0  0
  -28.0540  -12.3226   18.6732 C   0  0  0  0  0  0
  -27.6351  -13.2476   19.8459 C   0  0  2  0  0  0
  -28.6775  -13.2582   20.9857 C   0  0  0  0  0  0
  -25.2485  -13.8220   20.5717 C   0  0  0  0  0  0
  -24.1794  -13.0444   20.9228 C   0  0  0  0  0  0
  -24.6408  -11.6931   20.8758 C   0  0  0  0  0  0
  -23.9092  -10.4298   21.0408 C   0  0  0  0  0  0
  -24.3637   -9.4210   21.9185 C   0  0  0  0  0  0
  -23.6308   -8.2248   22.0758 C   0  0  0  0  0  0
  -22.4287   -8.0289   21.3549 C   0  0  0  0  0  0
  -21.9927   -9.0263   20.4649 C   0  0  0  0  0  0
  -22.7263  -10.2140   20.3058 C   0  0  0  0  0  0
  -21.6855   -6.0743   22.5282 C   0  0  0  0  0  0
  -21.4013   -6.5645   23.8215 C   0  0  0  0  0  0
  -21.3659   -5.6796   24.9176 C   0  0  0  0  0  0
  -21.6045   -4.3059   24.7223 C   0  0  0  0  0  0
  -21.8818   -3.8153   23.4342 C   0  0  0  0  0  0
  -21.9192   -4.6972   22.3400 C   0  0  0  0  0  0
  -22.7812  -13.5215   21.1877 C   0  0  0  0  0  0
  -22.1662   -4.2157   21.0978 F   0  0  0  0  0  0
  -21.5627   -3.4541   25.7734 F   0  0  0  0  0  0
  -29.9609  -13.6601   20.3955 N   0  0  0  0  0  0
  -26.2914  -12.9451   20.3270 N   0  0  0  0  0  0
  -25.9344  -11.6582   20.5758 N   0  0  0  0  0  0
  -22.0462  -12.8196   22.0426 N   0  0  0  0  0  0
  -25.4149  -15.1949   20.4136 N   0  0  0  0  0  0
  -31.7379  -15.0036   20.0971 O   0  0  0  0  0  0
  -21.6646   -6.8890   21.4246 O   0  0  0  0  0  0
  -22.3494  -14.5518   20.6723 O   0  0  0  0  0  0
  -24.6446  -31.8442   23.1897 C   0  0  0  0  0  0
  -25.9214  -32.4695   23.8287 C   0  0  1  0  0  0
  -27.2078  -27.1266   20.1477 C   0  0  0  0  0  0
  -25.5969  -33.8501   24.2199 N   0  0  0  0  0  0
  -23.4484  -30.4679   21.5343 C   0  0  2  0  0  0
  -24.8969  -28.9024   20.1055 C   0  0  0  0  0  0
  -22.7581  -29.4556   22.4838 C   0  0  0  0  0  0
  -18.0315  -28.1397   22.8478 C   0  0  0  0  0  0
  -24.1495  -36.7255   23.2643 C   0  0  0  0  0  0
  -26.0075  -30.7149   21.3928 C   0  0  0  0  0  0
  -26.0760  -29.3268   20.7324 C   0  0  0  0  0  0
  -27.2308  -28.4547   20.7412 C   0  0  0  0  0  0
  -26.0049  -26.8218   19.4659 C   0  0  0  0  0  0
  -24.8757  -27.6628   19.4563 C   0  0  0  0  0  0
  -23.6752  -29.8049   20.1508 C   0  0  0  0  0  0
  -25.4126  -36.3031   24.0318 C   0  0  1  0  0  0
  -20.5928  -28.3724   23.1228 C   0  0  2  0  0  0
  -20.6799  -26.9422   22.5400 C   0  0  0  0  0  0
  -19.5768  -26.6378   21.5211 C   0  0  0  0  0  0
  -18.1949  -26.7935   22.1622 C   0  0  0  0  0  0
  -19.1573  -28.8876   23.2844 C   0  0  0  0  0  0
  -18.9482  -30.1476   23.8866 C   0  0  0  0  0  0
  -17.6480  -30.6590   24.0558 C   0  0  0  0  0  0
  -25.9075  -34.9407   23.5064 C   0  0  0  0  0  0
  -16.5371  -29.9081   23.6332 C   0  0  0  0  0  0
  -16.7294  -28.6505   23.0352 C   0  0  0  0  0  0
  -26.4532  -31.6563   25.0730 C   0  0  0  0  0  0
  -25.3714  -31.3758   26.1425 C   0  0  0  0  0  0
  -27.0394  -30.2956   24.6324 C   0  0  0  0  0  0
  -27.6073  -32.4321   25.7503 C   0  0  0  0  0  0
  -27.5575  -37.1790   24.8463 C   0  0  0  0  0  0
  -21.4269  -29.3054   22.3602 N   0  0  0  0  0  0
  -26.4283  -37.3752   23.9410 N   0  0  0  0  0  0
  -24.7200  -31.0310   22.0929 N   0  0  0  0  0  0
  -23.4238  -28.8087   23.2964 O   0  0  0  0  0  0
  -28.2261  -26.0994   20.2434 O   0  0  0  0  0  0
  -26.5656  -34.8904   22.4640 O   0  0  0  0  0  0
  -23.5563  -32.1321   23.7105 O   0  0  0  0  0  0
  -30.1356  -21.5619   21.4379 C   0  0  0  0  0  0
  -29.6485  -22.9008   21.1577 C   0  0  0  0  0  0
  -28.0804  -21.9402   19.6572 C   0  0  0  0  0  0
  -29.6102  -20.3567   20.8534 C   0  0  0  0  0  0
  -28.5693  -20.5897   19.9341 C   0  0  0  0  0  0
  -28.5766  -23.1730   20.2524 C   0  0  0  0  0  0
  -27.9472  -19.3102   19.3427 C   0  0  0  0  0  0
  -28.9231  -18.0915   19.0758 C   0  0  0  0  0  0
  -30.0522  -18.8531   21.2698 C   0  0  2  0  0  0
  -29.9201  -17.6163   20.1982 C   0  0  1  0  0  0
  -30.4794  -16.4059   25.6709 C   0  0  0  0  0  0
  -27.8289  -24.6206   19.9568 C   0  0  0  0  0  0
  -29.4013  -18.4817   22.6198 C   0  0  0  0  0  0
  -30.3091  -17.6242   23.5250 C   0  0  0  0  0  0
  -29.7597  -16.0887   20.6011 N   0  0  0  0  0  0
  -29.6517  -17.2604   24.7971 N   0  3  0  0  0  0
  -31.4772  -12.7124   19.1959 H   0  0  0  0  0  0
  -30.4198  -11.6085   20.0260 H   0  0  0  0  0  0
  -29.8354  -11.7367   17.5779 H   0  0  0  0  0  0
  -29.6188  -13.4650   17.7048 H   0  0  0  0  0  0
  -27.9411  -11.2788   18.9696 H   0  0  0  0  0  0
  -27.3925  -12.4694   17.8181 H   0  0  0  0  0  0
  -27.6047  -14.2538   19.4272 H   0  0  0  0  0  0
  -28.7550  -12.2772   21.4571 H   0  0  0  0  0  0
  -28.3823  -13.9549   21.7713 H   0  0  0  0  0  0
  -25.2781   -9.5680   22.4760 H   0  0  0  0  0  0
  -24.0011   -7.4637   22.7478 H   0  0  0  0  0  0
  -21.0856   -8.8787   19.8952 H   0  0  0  0  0  0
  -22.3725  -10.9680   19.6167 H   0  0  0  0  0  0
  -21.2008   -7.6153   23.9720 H   0  0  0  0  0  0
  -21.1480   -6.0525   25.9079 H   0  0  0  0  0  0
  -22.0596   -2.7614   23.2839 H   0  0  0  0  0  0
  -22.4083  -11.9853   22.4800 H   0  0  0  0  0  0
  -21.1077  -13.1212   22.2633 H   0  0  0  0  0  0
  -24.6404  -15.8417   20.5173 H   0  0  0  0  0  0
  -26.2481  -15.6340   20.0455 H   0  0  0  0  0  0
  -26.7279  -32.5293   23.1011 H   0  0  0  0  0  0
  -25.0106  -33.9621   25.0341 H   0  0  0  0  0  0
  -22.7506  -31.2942   21.3822 H   0  0  0  0  0  0
  -23.3759  -35.9583   23.3286 H   0  0  0  0  0  0
  -24.3586  -36.8902   22.2060 H   0  0  0  0  0  0
  -23.7242  -37.6447   23.6688 H   0  0  0  0  0  0
  -26.1700  -31.4689   20.6214 H   0  0  0  0  0  0
  -26.8765  -30.7606   22.0372 H   0  0  0  0  0  0
  -28.1214  -28.7711   21.2648 H   0  0  0  0  0  0
  -25.8829  -25.8844   18.9465 H   0  0  0  0  0  0
  -23.9786  -27.3362   18.9482 H   0  0  0  0  0  0
  -23.8122  -30.5825   19.3984 H   0  0  0  0  0  0
  -22.7900  -29.2497   19.8354 H   0  0  0  0  0  0
  -25.1314  -36.1855   25.0810 H   0  0  0  0  0  0
  -21.0026  -28.3299   24.1344 H   0  0  0  0  0  0
  -20.5691  -26.2332   23.3621 H   0  0  0  0  0  0
  -21.6666  -26.7419   22.1197 H   0  0  0  0  0  0
  -19.6924  -25.6279   21.1251 H   0  0  0  0  0  0
  -19.6699  -27.3178   20.6732 H   0  0  0  0  0  0
  -17.4222  -26.6673   21.4022 H   0  0  0  0  0  0
  -18.0348  -26.0087   22.9026 H   0  0  0  0  0  0
  -19.7960  -30.7307   24.2214 H   0  0  0  0  0  0
  -17.5030  -31.6264   24.5169 H   0  0  0  0  0  0
  -15.5373  -30.2976   23.7678 H   0  0  0  0  0  0
  -15.8693  -28.0816   22.7077 H   0  0  0  0  0  0
  -24.5900  -30.7095   25.7752 H   0  0  0  0  0  0
  -24.8899  -32.2945   26.4786 H   0  0  0  0  0  0
  -25.8004  -30.8975   27.0237 H   0  0  0  0  0  0
  -26.3014  -29.6677   24.1323 H   0  0  0  0  0  0
  -27.3991  -29.7261   25.4904 H   0  0  0  0  0  0
  -27.8934  -30.4188   23.9662 H   0  0  0  0  0  0
  -27.2684  -33.3654   26.2004 H   0  0  0  0  0  0
  -28.3924  -32.6813   25.0352 H   0  0  0  0  0  0
  -28.0693  -31.8485   26.5473 H   0  0  0  0  0  0
  -28.2587  -38.0093   24.7528 H   0  0  0  0  0  0
  -28.1076  -36.2630   24.6266 H   0  0  0  0  0  0
  -27.2302  -37.1409   25.8868 H   0  0  0  0  0  0
  -20.9475  -29.8782   21.6795 H   0  0  0  0  0  0
  -26.0140  -38.2815   24.1419 H   0  0  0  0  0  0
  -30.9285  -21.4627   22.1663 H   0  0  0  0  0  0
  -30.0955  -23.7335   21.6830 H   0  0  0  0  0  0
  -27.2469  -22.0308   18.9746 H   0  0  0  0  0  0
  -27.4325  -19.5655   18.4163 H   0  0  0  0  0  0
  -27.1674  -18.9867   20.0336 H   0  0  0  0  0  0
  -29.5299  -18.3767   18.2150 H   0  0  0  0  0  0
  -28.3364  -17.2428   18.7239 H   0  0  0  0  0  0
  -31.1211  -18.9581   21.4645 H   0  0  0  0  0  0
  -30.8885  -17.6131   19.6940 H   0  0  0  0  0  0
  -29.9330  -16.1500   26.5787 H   0  0  0  0  0  0
  -31.3969  -16.9179   25.9631 H   0  0  0  0  0  0
  -30.7509  -15.4759   25.1699 H   0  0  0  0  0  0
  -26.8597  -24.4803   20.4378 H   0  0  0  0  0  0
  -27.6369  -24.5853   18.8844 H   0  0  0  0  0  0
  -28.4407  -17.9979   22.4415 H   0  0  0  0  0  0
  -29.1745  -19.3967   23.1677 H   0  0  0  0  0  0
  -31.2275  -18.1707   23.7457 H   0  0  0  0  0  0
  -30.6114  -16.7123   23.0124 H   0  0  0  0  0  0
  -28.8196  -15.8568   20.8839 H   0  0  0  0  0  0
  -29.4187  -18.0988   25.3053 H   0  0  0  0  0  0
  -28.7923  -16.7726   24.6033 H   0  0  0  0  0  0
  1 25  1  0  0  0
  1 30  2  0  0  0
  1 85  1  0  0  0
  2  3  1  0  0  0
  2 25  1  0  0  0
  2 87  1  0  0  0
  2 88  1  0  0  0
  3  4  1  0  0  0
  3 89  1  0  0  0
  3 90  1  0  0  0
  4  5  1  0  0  0
  4 91  1  0  0  0
  4 92  1  0  0  0
  5  6  1  0  0  0
  5 26  1  0  0  0
  5 93  1  0  0  0
  6 25  1  0  0  0
  6 94  1  0  0  0
  6 95  1  0  0  0
  7  8  2  0  0  0
  7 26  1  0  0  0
  7 29  1  0  0  0
  8  9  1  0  0  0
  8 22  1  0  0  0
  9 10  1  0  0  0
  9 27  2  0  0  0
 10 11  2  0  0  0
 10 15  1  0  0  0
 11 12  1  0  0  0
 11 96  1  0  0  0
 12 13  2  0  0  0
 12 97  1  0  0  0
 13 14  1  0  0  0
 13 31  1  0  0  0
 14 15  2  0  0  0
 14 98  1  0  0  0
 15 99  1  0  0  0
 16 17  2  0  0  0
 16 21  1  0  0  0
 16 31  1  0  0  0
 17 18  1  0  0  0
 17100  1  0  0  0
 18 19  2  0  0  0
 18101  1  0  0  0
 19 20  1  0  0  0
 19 24  1  0  0  0
 20 21  2  0  0  0
 20102  1  0  0  0
 21 23  1  0  0  0
 22 28  1  0  0  0
 22 32  2  0  0  0
 26 27  1  0  0  0
 28103  1  0  0  0
 28104  1  0  0  0
 29105  1  0  0  0
 29106  1  0  0  0
 33 34  1  0  0  0
 33 66  1  0  0  0
 33 70  2  0  0  0
 34 36  1  0  0  0
 34 59  1  0  0  0
 34107  1  0  0  0
 35 44  2  0  0  0
 35 45  1  0  0  0
 35 68  1  0  0  0
 36 56  1  0  0  0
 36108  1  0  0  0
 37 39  1  0  0  0
 37 47  1  0  0  0
 37 66  1  0  0  0
 37109  1  0  0  0
 38 43  2  0  0  0
 38 46  1  0  0  0
 38 47  1  0  0  0
 39 64  1  0  0  0
 39 67  2  0  0  0
 40 52  1  0  0  0
 40 53  2  0  0  0
 40 58  1  0  0  0
 41110  1  0  0  0
 41111  1  0  0  0
 41112  1  0  0  0
 41 48  1  0  0  0
 42 43  1  0  0  0
 42 66  1  0  0  0
 42113  1  0  0  0
 42114  1  0  0  0
 43 44  1  0  0  0
 44115  1  0  0  0
 45 46  2  0  0  0
 45116  1  0  0  0
 46117  1  0  0  0
 47118  1  0  0  0
 47119  1  0  0  0
 48 56  1  0  0  0
 48 65  1  0  0  0
 48120  1  0  0  0
 49 50  1  0  0  0
 49 53  1  0  0  0
 49 64  1  0  0  0
 49121  1  0  0  0
 50 51  1  0  0  0
 50122  1  0  0  0
 50123  1  0  0  0
 51 52  1  0  0  0
 51124  1  0  0  0
 51125  1  0  0  0
 52126  1  0  0  0
 52127  1  0  0  0
 53 54  1  0  0  0
 54 55  2  0  0  0
 54128  1  0  0  0
 55 57  1  0  0  0
 55129  1  0  0  0
 56 69  2  0  0  0
 57 58  2  0  0  0
 57130  1  0  0  0
 58131  1  0  0  0
 59 60  1  0  0  0
 59 61  1  0  0  0
 59 62  1  0  0  0
 60132  1  0  0  0
 60133  1  0  0  0
 60134  1  0  0  0
 61135  1  0  0  0
 61136  1  0  0  0
 61137  1  0  0  0
 62138  1  0  0  0
 62139  1  0  0  0
 62140  1  0  0  0
 63 65  1  0  0  0
 63141  1  0  0  0
 63142  1  0  0  0
 63143  1  0  0  0
 64144  1  0  0  0
 65145  1  0  0  0
 68 82  1  0  0  0
 71 72  2  0  0  0
 71 74  1  0  0  0
 71146  1  0  0  0
 72 76  1  0  0  0
 72147  1  0  0  0
 73 75  1  0  0  0
 73 76  2  0  0  0
 73148  1  0  0  0
 74 75  2  0  0  0
 74 79  1  0  0  0
 75 77  1  0  0  0
 76 82  1  0  0  0
 77 78  1  0  0  0
 77149  1  0  0  0
 77150  1  0  0  0
 78 80  1  0  0  0
 78151  1  0  0  0
 78152  1  0  0  0
 79 80  1  0  0  0
 79 83  1  0  0  0
 79153  1  0  0  0
 80 85  1  0  0  0
 80154  1  0  0  0
 81 86  1  0  0  0
 81155  1  0  0  0
 81156  1  0  0  0
 81157  1  0  0  0
 82158  1  0  0  0
 82159  1  0  0  0
 83 84  1  0  0  0
 83160  1  0  0  0
 83161  1  0  0  0
 84 86  1  0  0  0
 84162  1  0  0  0
 84163  1  0  0  0
 85164  1  0  0  0
 86165  1  0  0  0
 86166  1  0  0  0
M  CHG  1  86   1
M  ISO  4   1 100  68 101  82 101  85 100
M  END
> <chiral flag>
0

> <version>
0

> <s_m_source_file>
/data/baiqing/PycharmProjects/Reinvent-master-3.2/result/LINK_invent/BTK/process_docking_weight1_custom_sum_contain_oxygen_bond_distance_aromatic_linkinvent_7_9_3/rearranged_h_0180.sdf

> <i_m_source_file_index>
37

> <r_mmod_Potential_Energy-OPLS-2005>
289.618225097656

> <r_mmod_Stretch_Energy-OPLS-2005>
225.732009887695

> <r_mmod_Bend_Energy-OPLS-2005>
261.427856445312

> <r_mmod_Torsional_Energy-OPLS-2005>
240.0205078125

> <r_mmod_Improper_Torsional_Energy-OPLS-2005>
6.08099174499512

> <r_mmod_Van_der_Waal_Energy-OPLS-2005>
132.715545654297

> <r_mmod_Electrostatic_Energy-OPLS-2005>
-284.5283203125

> <r_mmod_Solvation_Energy-OPLS-2005>
-484.136505126953

> <b_mmod_Minimization_Converged-OPLS-2005>
0

> <r_mmod_RMS_Derivative-OPLS-2005>
1.18903827667236

$$$$
37
                    3D
 Structure written by MMmdl.
153162  0  0  1  0            999 V2000
  -30.4666  -15.1314   20.3779 C   0  0  0  0  0  0
  -30.4400  -12.7094   19.5186 C   0  0  0  0  0  0
  -29.5328  -12.5358   18.2769 C   0  0  0  0  0  0
  -28.0684  -12.3029   18.6936 C   0  0  0  0  0  0
  -27.6174  -13.2597   19.8278 C   0  0  2  0  0  0
  -28.6511  -13.3700   20.9655 C   0  0  0  0  0  0
  -25.2437  -13.8246   20.5743 C   0  0  0  0  0  0
  -24.1745  -13.0457   20.9237 C   0  0  0  0  0  0
  -24.6359  -11.6946   20.8732 C   0  0  0  0  0  0
  -23.9042  -10.4314   21.0413 C   0  0  0  0  0  0
  -24.3608   -9.4239   21.9187 C   0  0  0  0  0  0
  -23.6299   -8.2267   22.0749 C   0  0  0  0  0  0
  -22.4290   -8.0290   21.3540 C   0  0  0  0  0  0
  -21.9913   -9.0259   20.4647 C   0  0  0  0  0  0
  -22.7220  -10.2148   20.3065 C   0  0  0  0  0  0
  -21.6871   -6.0735   22.5277 C   0  0  0  0  0  0
  -21.4024   -6.5628   23.8211 C   0  0  0  0  0  0
  -21.3653   -5.6773   24.9160 C   0  0  0  0  0  0
  -21.6057   -4.3038   24.7207 C   0  0  0  0  0  0
  -21.8825   -3.8134   23.4318 C   0  0  0  0  0  0
  -21.9208   -4.6963   22.3383 C   0  0  0  0  0  0
  -22.7779  -13.5252   21.1888 C   0  0  0  0  0  0
  -22.1682   -4.2153   21.0967 F   0  0  0  0  0  0
  -21.5623   -3.4509   25.7715 F   0  0  0  0  0  0
  -29.8970  -13.8409   20.3457 N   0  0  0  0  0  0
  -26.2824  -12.9474   20.3202 N   0  0  0  0  0  0
  -25.9298  -11.6597   20.5709 N   0  0  0  0  0  0
  -22.0410  -12.8251   22.0436 N   0  0  0  0  0  0
  -25.4207  -15.1964   20.4268 N   0  0  0  0  0  0
  -31.6822  -15.1517   20.1393 O   0  0  0  0  0  0
  -21.6663   -6.8884   21.4246 O   0  0  0  0  0  0
  -22.3466  -14.5541   20.6718 O   0  0  0  0  0  0
  -24.6600  -31.8285   23.1765 C   0  0  0  0  0  0
  -25.9316  -32.4602   23.8194 C   0  0  1  0  0  0
  -27.2124  -26.9919   20.1747 C   0  0  0  0  0  0
  -25.5996  -33.8417   24.2112 N   0  0  0  0  0  0
  -23.4696  -30.4478   21.5234 C   0  0  2  0  0  0
  -24.9165  -28.8416   20.1187 C   0  0  0  0  0  0
  -22.7647  -29.4522   22.4813 C   0  0  0  0  0  0
  -18.0357  -28.1418   22.8483 C   0  0  0  0  0  0
  -24.1484  -36.7199   23.2652 C   0  0  0  0  0  0
  -26.0378  -30.6548   21.3975 C   0  0  0  0  0  0
  -26.1024  -29.2523   20.7415 C   0  0  0  0  0  0
  -27.2513  -28.3485   20.7429 C   0  0  0  0  0  0
  -25.9959  -26.7159   19.5107 C   0  0  0  0  0  0
  -24.8843  -27.5899   19.4845 C   0  0  0  0  0  0
  -23.7024  -29.7631   20.1504 C   0  0  0  0  0  0
  -25.4115  -36.2967   24.0320 C   0  0  1  0  0  0
  -20.5971  -28.3771   23.1194 C   0  0  2  0  0  0
  -20.6835  -26.9455   22.5406 C   0  0  0  0  0  0
  -19.5795  -26.6395   21.5231 C   0  0  0  0  0  0
  -18.1978  -26.7958   22.1637 C   0  0  0  0  0  0
  -19.1615  -28.8921   23.2827 C   0  0  0  0  0  0
  -18.9510  -30.1509   23.8853 C   0  0  0  0  0  0
  -17.6501  -30.6597   24.0565 C   0  0  0  0  0  0
  -25.9092  -34.9357   23.5032 C   0  0  0  0  0  0
  -16.5395  -29.9069   23.6355 C   0  0  0  0  0  0
  -16.7340  -28.6500   23.0360 C   0  0  0  0  0  0
  -26.4603  -31.6531   25.0705 C   0  0  0  0  0  0
  -25.3752  -31.3757   26.1372 C   0  0  0  0  0  0
  -27.0520  -30.2892   24.6441 C   0  0  0  0  0  0
  -27.6093  -32.4349   25.7510 C   0  0  0  0  0  0
  -27.5567  -37.1733   24.8473 C   0  0  0  0  0  0
  -21.4342  -29.3052   22.3518 N   0  0  0  0  0  0
  -26.4262  -37.3693   23.9441 N   0  0  0  0  0  0
  -24.7441  -31.0023   22.0857 N   0  0  0  0  0  0
  -23.4228  -28.8102   23.3042 O   0  0  0  0  0  0
  -28.2345  -25.9271   20.1887 O   0  0  0  0  0  0
  -26.5674  -34.8886   22.4609 O   0  0  0  0  0  0
  -23.5692  -32.1231   23.6897 O   0  0  0  0  0  0
  -30.3665  -21.9244   18.3396 C   0  0  0  0  0  0
  -30.2114  -20.6366   18.8880 C   0  0  0  0  0  0
  -29.6724  -23.0532   18.8351 C   0  0  0  0  0  0
  -29.3425  -20.3728   19.9566 C   0  0  0  0  0  0
  -28.8008  -22.9413   19.9465 C   0  0  0  0  0  0
  -29.4771  -17.4275   19.3678 C   0  0  0  0  0  0
  -30.0981  -17.6746   21.2310 C   0  0  0  0  0  0
  -29.2166  -18.6954   20.3390 C   0  0  0  0  0  0
  -29.8567  -24.3692   18.0910 C   0  0  0  0  0  0
  -27.9392  -24.3477   20.4302 C   0  0  0  0  0  0
  -28.6620  -21.5681   20.4606 N   0  0  0  0  0  0
  -29.7069  -16.3835   20.4750 N   0  0  0  0  0  0
  -31.4670  -12.8975   19.1977 H   0  0  0  0  0  0
  -30.4850  -11.7864   20.0974 H   0  0  0  0  0  0
  -29.8812  -11.6997   17.6673 H   0  0  0  0  0  0
  -29.5982  -13.4257   17.6505 H   0  0  0  0  0  0
  -27.9871  -11.2678   19.0298 H   0  0  0  0  0  0
  -27.4093  -12.3978   17.8305 H   0  0  0  0  0  0
  -27.5586  -14.2465   19.3670 H   0  0  0  0  0  0
  -28.7853  -12.4163   21.4789 H   0  0  0  0  0  0
  -28.3146  -14.0862   21.7184 H   0  0  0  0  0  0
  -25.2773   -9.5732   22.4722 H   0  0  0  0  0  0
  -24.0038   -7.4667   22.7439 H   0  0  0  0  0  0
  -21.0854   -8.8764   19.8941 H   0  0  0  0  0  0
  -22.3689  -10.9674   19.6151 H   0  0  0  0  0  0
  -21.2027   -7.6136   23.9719 H   0  0  0  0  0  0
  -21.1471   -6.0490   25.9067 H   0  0  0  0  0  0
  -22.0617   -2.7596   23.2813 H   0  0  0  0  0  0
  -22.4020  -11.9941   22.4869 H   0  0  0  0  0  0
  -21.1014  -13.1255   22.2578 H   0  0  0  0  0  0
  -24.6733  -15.8639   20.5820 H   0  0  0  0  0  0
  -26.2965  -15.6317   20.1623 H   0  0  0  0  0  0
  -26.7395  -32.5141   23.0913 H   0  0  0  0  0  0
  -25.0123  -33.9516   25.0245 H   0  0  0  0  0  0
  -22.7827  -31.2800   21.3543 H   0  0  0  0  0  0
  -23.3759  -35.9517   23.3276 H   0  0  0  0  0  0
  -24.3566  -36.8857   22.2074 H   0  0  0  0  0  0
  -23.7226  -37.6376   23.6708 H   0  0  0  0  0  0
  -26.2181  -31.4004   20.6221 H   0  0  0  0  0  0
  -26.8995  -30.6984   22.0522 H   0  0  0  0  0  0
  -28.1544  -28.6650   21.2454 H   0  0  0  0  0  0
  -25.8711  -25.7645   19.0145 H   0  0  0  0  0  0
  -23.9813  -27.2645   18.9843 H   0  0  0  0  0  0
  -23.8512  -30.5263   19.3858 H   0  0  0  0  0  0
  -22.8114  -29.2144   19.8411 H   0  0  0  0  0  0
  -25.1298  -36.1761   25.0807 H   0  0  0  0  0  0
  -21.0097  -28.3380   24.1303 H   0  0  0  0  0  0
  -20.5772  -26.2384   23.3645 H   0  0  0  0  0  0
  -21.6682  -26.7462   22.1162 H   0  0  0  0  0  0
  -19.6945  -25.6295   21.1273 H   0  0  0  0  0  0
  -19.6709  -27.3201   20.6750 H   0  0  0  0  0  0
  -17.4252  -26.6745   21.4026 H   0  0  0  0  0  0
  -18.0341  -26.0105   22.9033 H   0  0  0  0  0  0
  -19.7976  -30.7366   24.2172 H   0  0  0  0  0  0
  -17.5034  -31.6276   24.5164 H   0  0  0  0  0  0
  -15.5382  -30.2942   23.7719 H   0  0  0  0  0  0
  -15.8745  -28.0812   22.7077 H   0  0  0  0  0  0
  -24.5943  -30.7105   25.7663 H   0  0  0  0  0  0
  -24.8958  -32.2965   26.4702 H   0  0  0  0  0  0
  -25.8010  -30.8969   27.0199 H   0  0  0  0  0  0
  -26.3205  -29.6536   24.1437 H   0  0  0  0  0  0
  -27.4037  -29.7279   25.5110 H   0  0  0  0  0  0
  -27.9141  -30.4055   23.9871 H   0  0  0  0  0  0
  -27.2639  -33.3666   26.1991 H   0  0  0  0  0  0
  -28.3951  -32.6877   25.0386 H   0  0  0  0  0  0
  -28.0714  -31.8546   26.5501 H   0  0  0  0  0  0
  -28.2542  -38.0067   24.7530 H   0  0  0  0  0  0
  -28.1096  -36.2589   24.6260 H   0  0  0  0  0  0
  -27.2298  -37.1325   25.8877 H   0  0  0  0  0  0
  -20.9612  -29.8633   21.6544 H   0  0  0  0  0  0
  -26.0113  -38.2753   24.1431 H   0  0  0  0  0  0
  -31.0207  -22.0259   17.4829 H   0  0  0  0  0  0
  -30.7524  -19.8216   18.4300 H   0  0  0  0  0  0
  -30.3623  -17.5578   18.7408 H   0  0  0  0  0  0
  -28.6239  -17.2170   18.7214 H   0  0  0  0  0  0
  -31.1695  -17.8790   21.1709 H   0  0  0  0  0  0
  -29.7928  -17.6818   22.2789 H   0  0  0  0  0  0
  -28.1898  -18.6062   20.6916 H   0  0  0  0  0  0
  -30.5069  -25.0479   18.6442 H   0  0  0  0  0  0
  -28.9031  -24.8631   17.9041 H   0  0  0  0  0  0
  -30.3126  -24.1945   17.1155 H   0  0  0  0  0  0
  -26.9218  -24.1689   20.0887 H   0  0  0  0  0  0
  -27.8748  -24.2491   21.5137 H   0  0  0  0  0  0
  1 25  1  0  0  0
  1 30  2  0  0  0
  1 82  1  0  0  0
  2  3  1  0  0  0
  2 25  1  0  0  0
  2 83  1  0  0  0
  2 84  1  0  0  0
  3  4  1  0  0  0
  3 85  1  0  0  0
  3 86  1  0  0  0
  4  5  1  0  0  0
  4 87  1  0  0  0
  4 88  1  0  0  0
  5  6  1  0  0  0
  5 26  1  0  0  0
  5 89  1  0  0  0
  6 25  1  0  0  0
  6 90  1  0  0  0
  6 91  1  0  0  0
  7  8  2  0  0  0
  7 26  1  0  0  0
  7 29  1  0  0  0
  8  9  1  0  0  0
  8 22  1  0  0  0
  9 10  1  0  0  0
  9 27  2  0  0  0
 10 11  2  0  0  0
 10 15  1  0  0  0
 11 12  1  0  0  0
 11 92  1  0  0  0
 12 13  2  0  0  0
 12 93  1  0  0  0
 13 14  1  0  0  0
 13 31  1  0  0  0
 14 15  2  0  0  0
 14 94  1  0  0  0
 15 95  1  0  0  0
 16 17  2  0  0  0
 16 21  1  0  0  0
 16 31  1  0  0  0
 17 18  1  0  0  0
 17 96  1  0  0  0
 18 19  2  0  0  0
 18 97  1  0  0  0
 19 20  1  0  0  0
 19 24  1  0  0  0
 20 21  2  0  0  0
 20 98  1  0  0  0
 21 23  1  0  0  0
 22 28  1  0  0  0
 22 32  2  0  0  0
 26 27  1  0  0  0
 28 99  1  0  0  0
 28100  1  0  0  0
 29101  1  0  0  0
 29102  1  0  0  0
 33 34  1  0  0  0
 33 66  1  0  0  0
 33 70  2  0  0  0
 34 36  1  0  0  0
 34 59  1  0  0  0
 34103  1  0  0  0
 35 44  2  0  0  0
 35 45  1  0  0  0
 35 68  1  0  0  0
 36 56  1  0  0  0
 36104  1  0  0  0
 37 39  1  0  0  0
 37 47  1  0  0  0
 37 66  1  0  0  0
 37105  1  0  0  0
 38 43  2  0  0  0
 38 46  1  0  0  0
 38 47  1  0  0  0
 39 64  1  0  0  0
 39 67  2  0  0  0
 40 52  1  0  0  0
 40 53  2  0  0  0
 40 58  1  0  0  0
 41106  1  0  0  0
 41107  1  0  0  0
 41108  1  0  0  0
 41 48  1  0  0  0
 42 43  1  0  0  0
 42 66  1  0  0  0
 42109  1  0  0  0
 42110  1  0  0  0
 43 44  1  0  0  0
 44111  1  0  0  0
 45 46  2  0  0  0
 45112  1  0  0  0
 46113  1  0  0  0
 47114  1  0  0  0
 47115  1  0  0  0
 48 56  1  0  0  0
 48 65  1  0  0  0
 48116  1  0  0  0
 49 50  1  0  0  0
 49 53  1  0  0  0
 49 64  1  0  0  0
 49117  1  0  0  0
 50 51  1  0  0  0
 50118  1  0  0  0
 50119  1  0  0  0
 51 52  1  0  0  0
 51120  1  0  0  0
 51121  1  0  0  0
 52122  1  0  0  0
 52123  1  0  0  0
 53 54  1  0  0  0
 54 55  2  0  0  0
 54124  1  0  0  0
 55 57  1  0  0  0
 55125  1  0  0  0
 56 69  2  0  0  0
 57 58  2  0  0  0
 57126  1  0  0  0
 58127  1  0  0  0
 59 60  1  0  0  0
 59 61  1  0  0  0
 59 62  1  0  0  0
 60128  1  0  0  0
 60129  1  0  0  0
 60130  1  0  0  0
 61131  1  0  0  0
 61132  1  0  0  0
 61133  1  0  0  0
 62134  1  0  0  0
 62135  1  0  0  0
 62136  1  0  0  0
 63 65  1  0  0  0
 63137  1  0  0  0
 63138  1  0  0  0
 63139  1  0  0  0
 64140  1  0  0  0
 65141  1  0  0  0
 68 80  1  0  0  0
 71 72  2  0  0  0
 71 73  1  0  0  0
 71142  1  0  0  0
 72 74  1  0  0  0
 72143  1  0  0  0
 73 75  2  0  0  0
 73 79  1  0  0  0
 74 81  2  0  0  0
 74 78  1  0  0  0
 75 80  1  0  0  0
 75 81  1  0  0  0
 76 78  1  0  0  0
 76 82  1  0  0  0
 76144  1  0  0  0
 76145  1  0  0  0
 77 78  1  0  0  0
 77 82  1  0  0  0
 77146  1  0  0  0
 77147  1  0  0  0
 78148  1  0  0  0
 79149  1  0  0  0
 79150  1  0  0  0
 79151  1  0  0  0
 80152  1  0  0  0
 80153  1  0  0  0
M  ISO  4   1 100  68 101  80 101  82 100
M  END
> <chiral flag>
0

> <version>
0

> <s_m_source_file>
/data/baiqing/PycharmProjects/Reinvent-master-3.2/result/LINK_invent/BTK/process_docking_weight1_custom_sum_contain_oxygen_bond_distance_aromatic_linkinvent_7_9_3/rearranged_h_0180.sdf

> <i_m_source_file_index>
38

> <r_mmod_Potential_Energy-OPLS-2005>
882.294555664062

> <r_mmod_Stretch_Energy-OPLS-2005>
419.914184570312

> <r_mmod_Bend_Energy-OPLS-2005>
361.264801025391

> <r_mmod_Torsional_Energy-OPLS-2005>
278.634307861328

> <r_mmod_Improper_Torsional_Energy-OPLS-2005>
11.9425115585327

> <r_mmod_Van_der_Waal_Energy-OPLS-2005>
126.200744628906

> <r_mmod_Electrostatic_Energy-OPLS-2005>
-437.440063476562

> <r_mmod_Solvation_Energy-OPLS-2005>
-220.885665893555

> <b_mmod_Minimization_Converged-OPLS-2005>
0

> <r_mmod_RMS_Derivative-OPLS-2005>
3.88535523414612

$$$$
38
                    3D
 Structure written by MMmdl.
156165  0  0  1  0            999 V2000
  -30.5510  -14.9733   20.4194 C   0  0  0  0  0  0
  -30.4349  -12.6064   19.5023 C   0  0  0  0  0  0
  -29.5194  -12.5312   18.2590 C   0  0  0  0  0  0
  -28.0546  -12.3137   18.6801 C   0  0  0  0  0  0
  -27.6269  -13.2551   19.8364 C   0  0  2  0  0  0
  -28.6683  -13.3084   20.9734 C   0  0  0  0  0  0
  -25.2453  -13.8233   20.5725 C   0  0  0  0  0  0
  -24.1767  -13.0447   20.9218 C   0  0  0  0  0  0
  -24.6392  -11.6936   20.8751 C   0  0  0  0  0  0
  -23.9082  -10.4297   21.0407 C   0  0  0  0  0  0
  -24.3634   -9.4211   21.9184 C   0  0  0  0  0  0
  -23.6303   -8.2250   22.0756 C   0  0  0  0  0  0
  -22.4284   -8.0289   21.3547 C   0  0  0  0  0  0
  -21.9925   -9.0262   20.4645 C   0  0  0  0  0  0
  -22.7258  -10.2138   20.3053 C   0  0  0  0  0  0
  -21.6853   -6.0745   22.5281 C   0  0  0  0  0  0
  -21.4016   -6.5645   23.8216 C   0  0  0  0  0  0
  -21.3658   -5.6793   24.9172 C   0  0  0  0  0  0
  -21.6041   -4.3056   24.7217 C   0  0  0  0  0  0
  -21.8818   -3.8154   23.4336 C   0  0  0  0  0  0
  -21.9192   -4.6974   22.3398 C   0  0  0  0  0  0
  -22.7786  -13.5212   21.1875 C   0  0  0  0  0  0
  -22.1661   -4.2160   21.0974 F   0  0  0  0  0  0
  -21.5626   -3.4540   25.7727 F   0  0  0  0  0  0
  -29.9404  -13.7181   20.3676 N   0  0  0  0  0  0
  -26.2878  -12.9480   20.3259 N   0  0  0  0  0  0
  -25.9329  -11.6599   20.5748 N   0  0  0  0  0  0
  -22.0447  -12.8194   22.0434 N   0  0  0  0  0  0
  -25.4141  -15.1964   20.4187 N   0  0  0  0  0  0
  -31.7580  -15.0091   20.1548 O   0  0  0  0  0  0
  -21.6645   -6.8891   21.4244 O   0  0  0  0  0  0
  -22.3463  -14.5515   20.6722 O   0  0  0  0  0  0
  -24.6483  -31.8404   23.1885 C   0  0  0  0  0  0
  -25.9234  -32.4675   23.8281 C   0  0  1  0  0  0
  -27.2088  -27.0952   20.1485 C   0  0  0  0  0  0
  -25.5959  -33.8486   24.2185 N   0  0  0  0  0  0
  -23.4540  -30.4636   21.5338 C   0  0  2  0  0  0
  -24.9035  -28.8916   20.1101 C   0  0  0  0  0  0
  -22.7594  -29.4541   22.4834 C   0  0  0  0  0  0
  -18.0309  -28.1414   22.8474 C   0  0  0  0  0  0
  -24.1494  -36.7249   23.2647 C   0  0  0  0  0  0
  -26.0167  -30.7007   21.3973 C   0  0  0  0  0  0
  -26.0847  -29.3113   20.7339 C   0  0  0  0  0  0
  -27.2387  -28.4305   20.7364 C   0  0  0  0  0  0
  -25.9983  -26.7994   19.4769 C   0  0  0  0  0  0
  -24.8761  -27.6507   19.4650 C   0  0  0  0  0  0
  -23.6839  -29.7981   20.1527 C   0  0  0  0  0  0
  -25.4124  -36.3020   24.0319 C   0  0  1  0  0  0
  -20.5929  -28.3739   23.1216 C   0  0  2  0  0  0
  -20.6789  -26.9435   22.5396 C   0  0  0  0  0  0
  -19.5756  -26.6384   21.5215 C   0  0  0  0  0  0
  -18.1938  -26.7948   22.1625 C   0  0  0  0  0  0
  -19.1571  -28.8894   23.2840 C   0  0  0  0  0  0
  -18.9488  -30.1485   23.8873 C   0  0  0  0  0  0
  -17.6484  -30.6605   24.0559 C   0  0  0  0  0  0
  -25.9076  -34.9394   23.5060 C   0  0  0  0  0  0
  -16.5372  -29.9098   23.6344 C   0  0  0  0  0  0
  -16.7292  -28.6518   23.0363 C   0  0  0  0  0  0
  -26.4543  -31.6562   25.0740 C   0  0  0  0  0  0
  -25.3716  -31.3752   26.1424 C   0  0  0  0  0  0
  -27.0428  -30.2948   24.6377 C   0  0  0  0  0  0
  -27.6060  -32.4344   25.7524 C   0  0  0  0  0  0
  -27.5571  -37.1780   24.8464 C   0  0  0  0  0  0
  -21.4283  -29.3060   22.3583 N   0  0  0  0  0  0
  -26.4281  -37.3735   23.9410 N   0  0  0  0  0  0
  -24.7265  -31.0233   22.0940 N   0  0  0  0  0  0
  -23.4215  -28.8070   23.2989 O   0  0  0  0  0  0
  -28.2225  -26.0524   20.2284 O   0  0  0  0  0  0
  -26.5666  -34.8894   22.4642 O   0  0  0  0  0  0
  -23.5588  -32.1293   23.7076 O   0  0  0  0  0  0
  -28.6490  -20.7753   19.3248 C   0  0  0  0  0  0
  -29.2134  -20.0835   20.4477 C   0  0  0  0  0  0
  -29.5023  -21.0564   21.4823 C   0  0  0  0  0  0
  -29.1673  -22.4891   21.3754 C   0  0  0  0  0  0
  -28.5699  -23.0742   20.2015 C   0  0  0  0  0  0
  -29.6333  -17.2727   19.4929 C   0  0  0  0  0  0
  -30.1976  -17.3972   21.4036 C   0  0  0  0  0  0
  -29.3095  -18.4068   20.5565 C   0  0  0  0  0  0
  -30.1419  -20.5481   22.7670 C   0  0  0  0  0  0
  -29.4006  -23.4072   22.5694 C   0  0  0  0  0  0
  -27.7949  -24.5531   20.0258 C   0  0  0  0  0  0
  -28.3591  -22.1352   19.2134 N   0  0  0  0  0  0
  -29.8041  -16.1915   20.5576 N   0  0  0  0  0  0
  -31.4690  -12.7580   19.1895 H   0  0  0  0  0  0
  -30.4267  -11.6619   20.0483 H   0  0  0  0  0  0
  -29.8429  -11.7273   17.5962 H   0  0  0  0  0  0
  -29.6028  -13.4555   17.6853 H   0  0  0  0  0  0
  -27.9572  -11.2750   18.9981 H   0  0  0  0  0  0
  -27.3892  -12.4335   17.8242 H   0  0  0  0  0  0
  -27.5834  -14.2528   19.3979 H   0  0  0  0  0  0
  -28.7594  -12.3445   21.4755 H   0  0  0  0  0  0
  -28.3640  -14.0308   21.7329 H   0  0  0  0  0  0
  -25.2778   -9.5687   22.4760 H   0  0  0  0  0  0
  -24.0007   -7.4642   22.7479 H   0  0  0  0  0  0
  -21.0857   -8.8780   19.8951 H   0  0  0  0  0  0
  -22.3717  -10.9677   19.6160 H   0  0  0  0  0  0
  -21.2014   -7.6153   23.9720 H   0  0  0  0  0  0
  -21.1479   -6.0523   25.9074 H   0  0  0  0  0  0
  -22.0598   -2.7618   23.2829 H   0  0  0  0  0  0
  -22.4081  -11.9856   22.4808 H   0  0  0  0  0  0
  -21.1064  -13.1211   22.2657 H   0  0  0  0  0  0
  -24.6534  -15.8553   20.5423 H   0  0  0  0  0  0
  -26.2792  -15.6376   20.1336 H   0  0  0  0  0  0
  -26.7297  -32.5272   23.1001 H   0  0  0  0  0  0
  -25.0076  -33.9592   25.0313 H   0  0  0  0  0  0
  -22.7595  -31.2921   21.3774 H   0  0  0  0  0  0
  -23.3763  -35.9576   23.3296 H   0  0  0  0  0  0
  -24.3575  -36.8901   22.2064 H   0  0  0  0  0  0
  -23.7247  -37.6442   23.6692 H   0  0  0  0  0  0
  -26.1857  -31.4553   20.6279 H   0  0  0  0  0  0
  -26.8823  -30.7433   22.0467 H   0  0  0  0  0  0
  -28.1343  -28.7454   21.2524 H   0  0  0  0  0  0
  -25.8597  -25.8607   18.9661 H   0  0  0  0  0  0
  -23.9765  -27.3266   18.9597 H   0  0  0  0  0  0
  -23.8274  -30.5737   19.4000 H   0  0  0  0  0  0
  -22.7973  -29.2465   19.8354 H   0  0  0  0  0  0
  -25.1314  -36.1841   25.0812 H   0  0  0  0  0  0
  -21.0021  -28.3333   24.1338 H   0  0  0  0  0  0
  -20.5688  -26.2356   23.3627 H   0  0  0  0  0  0
  -21.6651  -26.7432   22.1192 H   0  0  0  0  0  0
  -19.6921  -25.6288   21.1268 H   0  0  0  0  0  0
  -19.6701  -27.3171   20.6730 H   0  0  0  0  0  0
  -17.4207  -26.6699   21.4027 H   0  0  0  0  0  0
  -18.0331  -26.0104   22.9034 H   0  0  0  0  0  0
  -19.7968  -30.7303   24.2233 H   0  0  0  0  0  0
  -17.5044  -31.6285   24.5164 H   0  0  0  0  0  0
  -15.5376  -30.2996   23.7694 H   0  0  0  0  0  0
  -15.8688  -28.0826   22.7106 H   0  0  0  0  0  0
  -24.5908  -30.7086   25.7743 H   0  0  0  0  0  0
  -24.8895  -32.2937   26.4786 H   0  0  0  0  0  0
  -25.7992  -30.8968   27.0244 H   0  0  0  0  0  0
  -26.3066  -29.6652   24.1369 H   0  0  0  0  0  0
  -27.4001  -29.7262   25.4977 H   0  0  0  0  0  0
  -27.8993  -30.4177   23.9742 H   0  0  0  0  0  0
  -27.2642  -33.3674   26.2015 H   0  0  0  0  0  0
  -28.3912  -32.6863   25.0380 H   0  0  0  0  0  0
  -28.0685  -31.8535   26.5514 H   0  0  0  0  0  0
  -28.2577  -38.0087   24.7505 H   0  0  0  0  0  0
  -28.1079  -36.2613   24.6297 H   0  0  0  0  0  0
  -27.2284  -37.1428   25.8867 H   0  0  0  0  0  0
  -20.9493  -29.8798   21.6783 H   0  0  0  0  0  0
  -26.0150  -38.2808   24.1410 H   0  0  0  0  0  0
  -28.3555  -20.1906   18.4649 H   0  0  0  0  0  0
  -30.5450  -17.4660   18.9221 H   0  0  0  0  0  0
  -28.8071  -17.0920   18.8039 H   0  0  0  0  0  0
  -29.8803  -17.3294   22.4449 H   0  0  0  0  0  0
  -31.2662  -17.6220   21.3622 H   0  0  0  0  0  0
  -28.2857  -18.2010   20.8745 H   0  0  0  0  0  0
  -30.7812  -19.6896   22.5785 H   0  0  0  0  0  0
  -29.3783  -20.2571   23.4882 H   0  0  0  0  0  0
  -30.7872  -21.2938   23.2298 H   0  0  0  0  0  0
  -30.4678  -23.5733   22.7207 H   0  0  0  0  0  0
  -28.9865  -22.9750   23.4810 H   0  0  0  0  0  0
  -28.9352  -24.3840   22.4379 H   0  0  0  0  0  0
  -26.8879  -24.4336   20.6191 H   0  0  0  0  0  0
  -27.4702  -24.5120   18.9868 H   0  0  0  0  0  0
  1 25  1  0  0  0
  1 30  2  0  0  0
  1 83  1  0  0  0
  2  3  1  0  0  0
  2 25  1  0  0  0
  2 84  1  0  0  0
  2 85  1  0  0  0
  3  4  1  0  0  0
  3 86  1  0  0  0
  3 87  1  0  0  0
  4  5  1  0  0  0
  4 88  1  0  0  0
  4 89  1  0  0  0
  5  6  1  0  0  0
  5 26  1  0  0  0
  5 90  1  0  0  0
  6 25  1  0  0  0
  6 91  1  0  0  0
  6 92  1  0  0  0
  7  8  2  0  0  0
  7 26  1  0  0  0
  7 29  1  0  0  0
  8  9  1  0  0  0
  8 22  1  0  0  0
  9 10  1  0  0  0
  9 27  2  0  0  0
 10 11  2  0  0  0
 10 15  1  0  0  0
 11 12  1  0  0  0
 11 93  1  0  0  0
 12 13  2  0  0  0
 12 94  1  0  0  0
 13 14  1  0  0  0
 13 31  1  0  0  0
 14 15  2  0  0  0
 14 95  1  0  0  0
 15 96  1  0  0  0
 16 17  2  0  0  0
 16 21  1  0  0  0
 16 31  1  0  0  0
 17 18  1  0  0  0
 17 97  1  0  0  0
 18 19  2  0  0  0
 18 98  1  0  0  0
 19 20  1  0  0  0
 19 24  1  0  0  0
 20 21  2  0  0  0
 20 99  1  0  0  0
 21 23  1  0  0  0
 22 28  1  0  0  0
 22 32  2  0  0  0
 26 27  1  0  0  0
 28100  1  0  0  0
 28101  1  0  0  0
 29102  1  0  0  0
 29103  1  0  0  0
 33 34  1  0  0  0
 33 66  1  0  0  0
 33 70  2  0  0  0
 34 36  1  0  0  0
 34 59  1  0  0  0
 34104  1  0  0  0
 35 44  2  0  0  0
 35 45  1  0  0  0
 35 68  1  0  0  0
 36 56  1  0  0  0
 36105  1  0  0  0
 37 39  1  0  0  0
 37 47  1  0  0  0
 37 66  1  0  0  0
 37106  1  0  0  0
 38 43  2  0  0  0
 38 46  1  0  0  0
 38 47  1  0  0  0
 39 64  1  0  0  0
 39 67  2  0  0  0
 40 52  1  0  0  0
 40 53  2  0  0  0
 40 58  1  0  0  0
 41107  1  0  0  0
 41108  1  0  0  0
 41109  1  0  0  0
 41 48  1  0  0  0
 42 43  1  0  0  0
 42 66  1  0  0  0
 42110  1  0  0  0
 42111  1  0  0  0
 43 44  1  0  0  0
 44112  1  0  0  0
 45 46  2  0  0  0
 45113  1  0  0  0
 46114  1  0  0  0
 47115  1  0  0  0
 47116  1  0  0  0
 48 56  1  0  0  0
 48 65  1  0  0  0
 48117  1  0  0  0
 49 50  1  0  0  0
 49 53  1  0  0  0
 49 64  1  0  0  0
 49118  1  0  0  0
 50 51  1  0  0  0
 50119  1  0  0  0
 50120  1  0  0  0
 51 52  1  0  0  0
 51121  1  0  0  0
 51122  1  0  0  0
 52123  1  0  0  0
 52124  1  0  0  0
 53 54  1  0  0  0
 54 55  2  0  0  0
 54125  1  0  0  0
 55 57  1  0  0  0
 55126  1  0  0  0
 56 69  2  0  0  0
 57 58  2  0  0  0
 57127  1  0  0  0
 58128  1  0  0  0
 59 60  1  0  0  0
 59 61  1  0  0  0
 59 62  1  0  0  0
 60129  1  0  0  0
 60130  1  0  0  0
 60131  1  0  0  0
 61132  1  0  0  0
 61133  1  0  0  0
 61134  1  0  0  0
 62135  1  0  0  0
 62136  1  0  0  0
 62137  1  0  0  0
 63 65  1  0  0  0
 63138  1  0  0  0
 63139  1  0  0  0
 63140  1  0  0  0
 64141  1  0  0  0
 65142  1  0  0  0
 68 81  1  0  0  0
 71 72  2  0  0  0
 71 82  1  0  0  0
 71143  1  0  0  0
 72 73  1  0  0  0
 72 78  1  0  0  0
 73 74  2  0  0  0
 73 79  1  0  0  0
 74 75  1  0  0  0
 74 80  1  0  0  0
 75 81  1  0  0  0
 75 82  2  0  0  0
 76 78  1  0  0  0
 76 83  1  0  0  0
 76144  1  0  0  0
 76145  1  0  0  0
 77 78  1  0  0  0
 77 83  1  0  0  0
 77146  1  0  0  0
 77147  1  0  0  0
 78148  1  0  0  0
 79149  1  0  0  0
 79150  1  0  0  0
 79151  1  0  0  0
 80152  1  0  0  0
 80153  1  0  0  0
 80154  1  0  0  0
 81155  1  0  0  0
 81156  1  0  0  0
M  ISO  4   1 100  68 101  81 101  83 100
M  END
> <chiral flag>
0

> <version>
0

> <s_m_source_file>
/data/baiqing/PycharmProjects/Reinvent-master-3.2/result/LINK_invent/BTK/process_docking_weight1_custom_sum_contain_oxygen_bond_distance_aromatic_linkinvent_7_9_3/rearranged_h_0180.sdf

> <i_m_source_file_index>
39

> <r_mmod_Potential_Energy-OPLS-2005>
558.851135253906

> <r_mmod_Stretch_Energy-OPLS-2005>
259.53466796875

> <r_mmod_Bend_Energy-OPLS-2005>
305.356994628906

> <r_mmod_Torsional_Energy-OPLS-2005>
273.361236572266

> <r_mmod_Improper_Torsional_Energy-OPLS-2005>
14.5485363006592

> <r_mmod_Van_der_Waal_Energy-OPLS-2005>
141.665084838867

> <r_mmod_Electrostatic_Energy-OPLS-2005>
-445.976684570312

> <r_mmod_Solvation_Energy-OPLS-2005>
-214.686340332031

> <b_mmod_Minimization_Converged-OPLS-2005>
0

> <r_mmod_RMS_Derivative-OPLS-2005>
1.05626487731934

$$$$
39
                    3D
 Structure written by MMmdl.
162171  0  0  1  0            999 V2000
  -30.6320  -14.5971   20.5123 C   0  0  0  0  0  0
  -30.4333  -12.3727   19.4269 C   0  0  0  0  0  0
  -29.4964  -12.4834   18.2069 C   0  0  0  0  0  0
  -28.0213  -12.3254   18.6292 C   0  0  0  0  0  0
  -27.6467  -13.2088   19.8504 C   0  0  2  0  0  0
  -28.6917  -13.0557   20.9745 C   0  0  0  0  0  0
  -25.2537  -13.8196   20.5662 C   0  0  0  0  0  0
  -24.1799  -13.0440   20.9189 C   0  0  0  0  0  0
  -24.6358  -11.6918   20.8739 C   0  0  0  0  0  0
  -23.9028  -10.4305   21.0398 C   0  0  0  0  0  0
  -24.3607   -9.4202   21.9148 C   0  0  0  0  0  0
  -23.6289   -8.2237   22.0730 C   0  0  0  0  0  0
  -22.4268   -8.0280   21.3529 C   0  0  0  0  0  0
  -21.9889   -9.0244   20.4637 C   0  0  0  0  0  0
  -22.7209  -10.2123   20.3032 C   0  0  0  0  0  0
  -21.6864   -6.0725   22.5267 C   0  0  0  0  0  0
  -21.4021   -6.5621   23.8204 C   0  0  0  0  0  0
  -21.3657   -5.6764   24.9163 C   0  0  0  0  0  0
  -21.6053   -4.3031   24.7214 C   0  0  0  0  0  0
  -21.8813   -3.8129   23.4336 C   0  0  0  0  0  0
  -21.9190   -4.6955   22.3387 C   0  0  0  0  0  0
  -22.7816  -13.5238   21.1851 C   0  0  0  0  0  0
  -22.1652   -4.2128   21.0967 F   0  0  0  0  0  0
  -21.5643   -3.4517   25.7729 F   0  0  0  0  0  0
  -30.0020  -13.3919   20.3990 N   0  0  0  0  0  0
  -26.2945  -12.9340   20.3254 N   0  0  0  0  0  0
  -25.9279  -11.6511   20.5738 N   0  0  0  0  0  0
  -22.0451  -12.8251   22.0447 N   0  0  0  0  0  0
  -25.4237  -15.1921   20.4089 N   0  0  0  0  0  0
  -31.8120  -14.7435   20.1806 O   0  0  0  0  0  0
  -21.6627   -6.8878   21.4237 O   0  0  0  0  0  0
  -22.3494  -14.5508   20.6666 O   0  0  0  0  0  0
  -24.6232  -31.8609   23.2040 C   0  0  0  0  0  0
  -25.9082  -32.4792   23.8346 C   0  0  1  0  0  0
  -27.2266  -27.3469   20.1260 C   0  0  0  0  0  0
  -25.5892  -33.8584   24.2279 N   0  0  0  0  0  0
  -23.4204  -30.4847   21.5435 C   0  0  2  0  0  0
  -24.8695  -28.9433   20.1089 C   0  0  0  0  0  0
  -22.7468  -29.4641   22.4915 C   0  0  0  0  0  0
  -18.0300  -28.1414   22.8489 C   0  0  0  0  0  0
  -24.1488  -36.7295   23.2646 C   0  0  0  0  0  0
  -25.9600  -30.8006   21.3752 C   0  0  0  0  0  0
  -26.0358  -29.4302   20.7167 C   0  0  0  0  0  0
  -27.2219  -28.6425   20.7180 C   0  0  0  0  0  0
  -26.0510  -26.9100   19.4833 C   0  0  0  0  0  0
  -24.8745  -27.6841   19.4864 C   0  0  0  0  0  0
  -23.6353  -29.8180   20.1586 C   0  0  0  0  0  0
  -25.4116  -36.3096   24.0334 C   0  0  1  0  0  0
  -20.5889  -28.3715   23.1281 C   0  0  2  0  0  0
  -20.6798  -26.9431   22.5425 C   0  0  0  0  0  0
  -19.5776  -26.6407   21.5231 C   0  0  0  0  0  0
  -18.1949  -26.7963   22.1619 C   0  0  0  0  0  0
  -19.1546  -28.8883   23.2886 C   0  0  0  0  0  0
  -18.9465  -30.1482   23.8912 C   0  0  0  0  0  0
  -17.6460  -30.6608   24.0577 C   0  0  0  0  0  0
  -25.9052  -34.9464   23.5121 C   0  0  0  0  0  0
  -16.5351  -29.9108   23.6336 C   0  0  0  0  0  0
  -16.7285  -28.6529   23.0355 C   0  0  0  0  0  0
  -26.4455  -31.6601   25.0725 C   0  0  0  0  0  0
  -25.3690  -31.3737   26.1450 C   0  0  0  0  0  0
  -27.0298  -30.3020   24.6204 C   0  0  0  0  0  0
  -27.6055  -32.4302   25.7481 C   0  0  0  0  0  0
  -27.5588  -37.1806   24.8460 C   0  0  0  0  0  0
  -21.4179  -29.3049   22.3653 N   0  0  0  0  0  0
  -26.4306  -37.3777   23.9403 N   0  0  0  0  0  0
  -24.6860  -31.0654   22.0968 N   0  0  0  0  0  0
  -23.4189  -28.8181   23.3005 O   0  0  0  0  0  0
  -28.2927  -26.4493   20.2073 O   0  0  0  0  0  0
  -26.5611  -34.8920   22.4681 O   0  0  0  0  0  0
  -23.5395  -32.1359   23.7387 O   0  0  0  0  0  0
  -27.8357  -22.8479   21.6592 C   0  0  0  0  0  0
  -28.3351  -21.5187   21.7159 C   0  0  0  0  0  0
  -29.5816  -21.2039   21.1004 C   0  0  0  0  0  0
  -28.5452  -23.8920   21.0198 C   0  0  0  0  0  0
  -30.2238  -22.3242   20.4738 C   0  0  0  0  0  0
  -29.2547  -17.5656   22.2655 C   0  0  0  0  0  0
  -29.5816  -18.4190   21.0711 C   0  0  2  0  0  0
  -30.2718  -17.0022   21.2915 C   0  0  2  0  0  0
  -27.5519  -20.4968   22.5155 C   0  0  0  0  0  0
  -31.6032  -22.1966   19.8551 C   0  0  0  0  0  0
  -31.1609  -19.8571   22.5577 C   0  0  0  0  0  0
  -28.0329  -25.3732   21.1826 C   0  0  0  0  0  0
  -30.3289  -19.8061   21.2561 C   0  0  2  0  0  0
  -29.7275  -23.6012   20.4249 N   0  0  0  0  0  0
  -29.8509  -15.6604   20.8606 N   0  0  0  0  0  0
  -31.4699  -12.5093   19.1142 H   0  0  0  0  0  0
  -30.3855  -11.3769   19.8690 H   0  0  0  0  0  0
  -29.7493  -11.7254   17.4634 H   0  0  0  0  0  0
  -29.6399  -13.4495   17.7201 H   0  0  0  0  0  0
  -27.8652  -11.2775   18.8857 H   0  0  0  0  0  0
  -27.3606  -12.5285   17.7858 H   0  0  0  0  0  0
  -27.6686  -14.2417   19.5034 H   0  0  0  0  0  0
  -28.7004  -12.0322   21.3550 H   0  0  0  0  0  0
  -28.4436  -13.6906   21.8260 H   0  0  0  0  0  0
  -25.2772   -9.5671   22.4682 H   0  0  0  0  0  0
  -23.9996   -7.4641   22.7445 H   0  0  0  0  0  0
  -21.0819   -8.8787   19.8951 H   0  0  0  0  0  0
  -22.3699  -10.9658   19.6130 H   0  0  0  0  0  0
  -21.2005   -7.6121   23.9717 H   0  0  0  0  0  0
  -21.1495   -6.0480   25.9071 H   0  0  0  0  0  0
  -22.0599   -2.7587   23.2826 H   0  0  0  0  0  0
  -22.4098  -11.9962   22.4891 H   0  0  0  0  0  0
  -21.1049  -13.1254   22.2617 H   0  0  0  0  0  0
  -24.6594  -15.8469   20.5384 H   0  0  0  0  0  0
  -26.2626  -15.6314   20.0526 H   0  0  0  0  0  0
  -26.7164  -32.5473   23.1106 H   0  0  0  0  0  0
  -25.0035  -33.9713   25.0422 H   0  0  0  0  0  0
  -22.7148  -31.3062   21.4010 H   0  0  0  0  0  0
  -23.3753  -35.9626   23.3321 H   0  0  0  0  0  0
  -24.3599  -36.8904   22.2066 H   0  0  0  0  0  0
  -23.7239  -37.6499   23.6652 H   0  0  0  0  0  0
  -26.1008  -31.5645   20.6080 H   0  0  0  0  0  0
  -26.8387  -30.8410   22.0101 H   0  0  0  0  0  0
  -28.1188  -29.0043   21.2024 H   0  0  0  0  0  0
  -26.0368  -25.9399   19.0092 H   0  0  0  0  0  0
  -23.9793  -27.2986   19.0184 H   0  0  0  0  0  0
  -23.7567  -30.5950   19.4025 H   0  0  0  0  0  0
  -22.7582  -29.2415   19.8591 H   0  0  0  0  0  0
  -25.1310  -36.1954   25.0827 H   0  0  0  0  0  0
  -21.0006  -28.3325   24.1389 H   0  0  0  0  0  0
  -20.5727  -26.2325   23.3632 H   0  0  0  0  0  0
  -21.6672  -26.7485   22.1211 H   0  0  0  0  0  0
  -19.6935  -25.6316   21.1282 H   0  0  0  0  0  0
  -19.6747  -27.3210   20.6753 H   0  0  0  0  0  0
  -17.4234  -26.6723   21.4009 H   0  0  0  0  0  0
  -18.0326  -26.0119   22.9017 H   0  0  0  0  0  0
  -19.7936  -30.7306   24.2295 H   0  0  0  0  0  0
  -17.5010  -31.6297   24.5161 H   0  0  0  0  0  0
  -15.5346  -30.3006   23.7684 H   0  0  0  0  0  0
  -15.8686  -28.0863   22.7047 H   0  0  0  0  0  0
  -24.5932  -30.7008   25.7780 H   0  0  0  0  0  0
  -24.8789  -32.2899   26.4761 H   0  0  0  0  0  0
  -25.8007  -30.9017   27.0288 H   0  0  0  0  0  0
  -26.2886  -29.6796   24.1196 H   0  0  0  0  0  0
  -27.3940  -29.7260   25.4716 H   0  0  0  0  0  0
  -27.8765  -30.4295   23.9469 H   0  0  0  0  0  0
  -27.2717  -33.3631   26.2013 H   0  0  0  0  0  0
  -28.3862  -32.6790   25.0296 H   0  0  0  0  0  0
  -28.0696  -31.8440   26.5413 H   0  0  0  0  0  0
  -28.2610  -38.0097   24.7507 H   0  0  0  0  0  0
  -28.1080  -36.2637   24.6280 H   0  0  0  0  0  0
  -27.2325  -37.1458   25.8867 H   0  0  0  0  0  0
  -20.9349  -29.8676   21.6789 H   0  0  0  0  0  0
  -26.0197  -38.2865   24.1364 H   0  0  0  0  0  0
  -26.9087  -23.0900   22.1615 H   0  0  0  0  0  0
  -28.2475  -17.1478   22.2775 H   0  0  0  0  0  0
  -29.6305  -17.8220   23.2534 H   0  0  0  0  0  0
  -28.8704  -18.4280   20.2454 H   0  0  0  0  0  0
  -31.3205  -17.0612   21.5806 H   0  0  0  0  0  0
  -28.1817  -20.0754   23.2976 H   0  0  0  0  0  0
  -27.1892  -19.7011   21.8645 H   0  0  0  0  0  0
  -26.6908  -20.9540   23.0083 H   0  0  0  0  0  0
  -32.2619  -21.5735   20.4596 H   0  0  0  0  0  0
  -32.0909  -23.1685   19.7645 H   0  0  0  0  0  0
  -31.5199  -21.7509   18.8639 H   0  0  0  0  0  0
  -31.8193  -20.7238   22.5864 H   0  0  0  0  0  0
  -31.7992  -18.9823   22.6772 H   0  0  0  0  0  0
  -30.5183  -19.9257   23.4354 H   0  0  0  0  0  0
  -26.9601  -25.2865   21.3579 H   0  0  0  0  0  0
  -28.4271  -25.7317   22.1324 H   0  0  0  0  0  0
  -31.0543  -19.7570   20.4439 H   0  0  0  0  0  0
  -28.8740  -15.4441   20.9717 H   0  0  0  0  0  0
  1 25  1  0  0  0
  1 30  2  0  0  0
  1 85  1  0  0  0
  2  3  1  0  0  0
  2 25  1  0  0  0
  2 86  1  0  0  0
  2 87  1  0  0  0
  3  4  1  0  0  0
  3 88  1  0  0  0
  3 89  1  0  0  0
  4  5  1  0  0  0
  4 90  1  0  0  0
  4 91  1  0  0  0
  5  6  1  0  0  0
  5 26  1  0  0  0
  5 92  1  0  0  0
  6 25  1  0  0  0
  6 93  1  0  0  0
  6 94  1  0  0  0
  7  8  2  0  0  0
  7 26  1  0  0  0
  7 29  1  0  0  0
  8  9  1  0  0  0
  8 22  1  0  0  0
  9 10  1  0  0  0
  9 27  2  0  0  0
 10 11  2  0  0  0
 10 15  1  0  0  0
 11 12  1  0  0  0
 11 95  1  0  0  0
 12 13  2  0  0  0
 12 96  1  0  0  0
 13 14  1  0  0  0
 13 31  1  0  0  0
 14 15  2  0  0  0
 14 97  1  0  0  0
 15 98  1  0  0  0
 16 17  2  0  0  0
 16 21  1  0  0  0
 16 31  1  0  0  0
 17 18  1  0  0  0
 17 99  1  0  0  0
 18 19  2  0  0  0
 18100  1  0  0  0
 19 20  1  0  0  0
 19 24  1  0  0  0
 20 21  2  0  0  0
 20101  1  0  0  0
 21 23  1  0  0  0
 22 28  1  0  0  0
 22 32  2  0  0  0
 26 27  1  0  0  0
 28102  1  0  0  0
 28103  1  0  0  0
 29104  1  0  0  0
 29105  1  0  0  0
 33 34  1  0  0  0
 33 66  1  0  0  0
 33 70  2  0  0  0
 34 36  1  0  0  0
 34 59  1  0  0  0
 34106  1  0  0  0
 35 44  2  0  0  0
 35 45  1  0  0  0
 35 68  1  0  0  0
 36 56  1  0  0  0
 36107  1  0  0  0
 37 39  1  0  0  0
 37 47  1  0  0  0
 37 66  1  0  0  0
 37108  1  0  0  0
 38 43  2  0  0  0
 38 46  1  0  0  0
 38 47  1  0  0  0
 39 64  1  0  0  0
 39 67  2  0  0  0
 40 52  1  0  0  0
 40 53  2  0  0  0
 40 58  1  0  0  0
 41109  1  0  0  0
 41110  1  0  0  0
 41111  1  0  0  0
 41 48  1  0  0  0
 42 43  1  0  0  0
 42 66  1  0  0  0
 42112  1  0  0  0
 42113  1  0  0  0
 43 44  1  0  0  0
 44114  1  0  0  0
 45 46  2  0  0  0
 45115  1  0  0  0
 46116  1  0  0  0
 47117  1  0  0  0
 47118  1  0  0  0
 48 56  1  0  0  0
 48 65  1  0  0  0
 48119  1  0  0  0
 49 50  1  0  0  0
 49 53  1  0  0  0
 49 64  1  0  0  0
 49120  1  0  0  0
 50 51  1  0  0  0
 50121  1  0  0  0
 50122  1  0  0  0
 51 52  1  0  0  0
 51123  1  0  0  0
 51124  1  0  0  0
 52125  1  0  0  0
 52126  1  0  0  0
 53 54  1  0  0  0
 54 55  2  0  0  0
 54127  1  0  0  0
 55 57  1  0  0  0
 55128  1  0  0  0
 56 69  2  0  0  0
 57 58  2  0  0  0
 57129  1  0  0  0
 58130  1  0  0  0
 59 60  1  0  0  0
 59 61  1  0  0  0
 59 62  1  0  0  0
 60131  1  0  0  0
 60132  1  0  0  0
 60133  1  0  0  0
 61134  1  0  0  0
 61135  1  0  0  0
 61136  1  0  0  0
 62137  1  0  0  0
 62138  1  0  0  0
 62139  1  0  0  0
 63 65  1  0  0  0
 63140  1  0  0  0
 63141  1  0  0  0
 63142  1  0  0  0
 64143  1  0  0  0
 65144  1  0  0  0
 68 82  1  0  0  0
 71 72  2  0  0  0
 71 74  1  0  0  0
 71145  1  0  0  0
 72 73  1  0  0  0
 72 79  1  0  0  0
 73 75  2  0  0  0
 73 83  1  0  0  0
 74 82  1  0  0  0
 74 84  2  0  0  0
 75 80  1  0  0  0
 75 84  1  0  0  0
 76 78  1  0  0  0
 76146  1  0  0  0
 76147  1  0  0  0
 76 77  1  0  0  0
 77 78  1  0  0  0
 77 83  1  0  0  0
 77148  1  0  0  0
 78 85  1  0  0  0
 78149  1  0  0  0
 79150  1  0  0  0
 79151  1  0  0  0
 79152  1  0  0  0
 80153  1  0  0  0
 80154  1  0  0  0
 80155  1  0  0  0
 81156  1  0  0  0
 81157  1  0  0  0
 81158  1  0  0  0
 81 83  1  0  0  0
 82159  1  0  0  0
 82160  1  0  0  0
 83161  1  0  0  0
 85162  1  0  0  0
M  ISO  4   1 100  68 101  82 101  85 100
M  END
> <chiral flag>
0

> <version>
0

> <s_m_source_file>
/data/baiqing/PycharmProjects/Reinvent-master-3.2/result/LINK_invent/BTK/process_docking_weight1_custom_sum_contain_oxygen_bond_distance_aromatic_linkinvent_7_9_3/rearranged_h_0180.sdf

> <i_m_source_file_index>
40

> <r_mmod_Potential_Energy-OPLS-2005>
35.2088088989258

> <r_mmod_Stretch_Energy-OPLS-2005>
81.8392639160156

> <r_mmod_Bend_Energy-OPLS-2005>
159.570236206055

> <r_mmod_Torsional_Energy-OPLS-2005>
299.966186523438

> <r_mmod_Improper_Torsional_Energy-OPLS-2005>
5.48863792419434

> <r_mmod_Van_der_Waal_Energy-OPLS-2005>
150.049209594727

> <r_mmod_Electrostatic_Energy-OPLS-2005>
-482.493988037109

> <r_mmod_Solvation_Energy-OPLS-2005>
-224.849502563477

> <b_mmod_Minimization_Converged-OPLS-2005>
0

> <r_mmod_RMS_Derivative-OPLS-2005>
4.3155779838562

$$$$
40
                    3D
 Structure written by MMmdl.
165174  0  0  1  0            999 V2000
  -30.4623  -15.2166   20.3674 C   0  0  0  0  0  0
  -30.4374  -12.7799   19.5046 C   0  0  0  0  0  0
  -29.5276  -12.5570   18.2725 C   0  0  0  0  0  0
  -28.0777  -12.2877   18.7108 C   0  0  0  0  0  0
  -27.6098  -13.2681   19.8153 C   0  0  2  0  0  0
  -28.6477  -13.4379   20.9432 C   0  0  0  0  0  0
  -25.2388  -13.8235   20.5740 C   0  0  0  0  0  0
  -24.1738  -13.0432   20.9265 C   0  0  0  0  0  0
  -24.6386  -11.6927   20.8768 C   0  0  0  0  0  0
  -23.9080  -10.4287   21.0408 C   0  0  0  0  0  0
  -24.3626   -9.4198   21.9187 C   0  0  0  0  0  0
  -23.6297   -8.2236   22.0757 C   0  0  0  0  0  0
  -22.4280   -8.0279   21.3541 C   0  0  0  0  0  0
  -21.9917   -9.0249   20.4647 C   0  0  0  0  0  0
  -22.7251  -10.2126   20.3056 C   0  0  0  0  0  0
  -21.6851   -6.0735   22.5277 C   0  0  0  0  0  0
  -21.4013   -6.5639   23.8205 C   0  0  0  0  0  0
  -21.3655   -5.6791   24.9171 C   0  0  0  0  0  0
  -21.6041   -4.3054   24.7225 C   0  0  0  0  0  0
  -21.8822   -3.8145   23.4344 C   0  0  0  0  0  0
  -21.9193   -4.6960   22.3401 C   0  0  0  0  0  0
  -22.7757  -13.5188   21.1914 C   0  0  0  0  0  0
  -22.1663   -4.2145   21.0980 F   0  0  0  0  0  0
  -21.5625   -3.4541   25.7735 F   0  0  0  0  0  0
  -29.8800  -13.9258   20.3062 N   0  0  0  0  0  0
  -26.2808  -12.9496   20.3199 N   0  0  0  0  0  0
  -25.9316  -11.6607   20.5719 N   0  0  0  0  0  0
  -22.0412  -12.8165   22.0461 N   0  0  0  0  0  0
  -25.4038  -15.1969   20.4167 N   0  0  0  0  0  0
  -31.6896  -15.2080   20.2072 O   0  0  0  0  0  0
  -21.6643   -6.8876   21.4232 O   0  0  0  0  0  0
  -22.3434  -14.5485   20.6749 O   0  0  0  0  0  0
  -24.6602  -31.8274   23.1760 C   0  0  0  0  0  0
  -25.9295  -32.4611   23.8201 C   0  0  1  0  0  0
  -27.2109  -26.9631   20.1679 C   0  0  0  0  0  0
  -25.5980  -33.8421   24.2100 N   0  0  0  0  0  0
  -23.4726  -30.4453   21.5237 C   0  0  2  0  0  0
  -24.9232  -28.8435   20.1122 C   0  0  0  0  0  0
  -22.7639  -29.4486   22.4785 C   0  0  0  0  0  0
  -18.0319  -28.1421   22.8479 C   0  0  0  0  0  0
  -24.1475  -36.7202   23.2648 C   0  0  0  0  0  0
  -26.0415  -30.6458   21.4004 C   0  0  0  0  0  0
  -26.1083  -29.2407   20.7422 C   0  0  0  0  0  0
  -27.2497  -28.3212   20.7499 C   0  0  0  0  0  0
  -25.9956  -26.7176   19.4885 C   0  0  0  0  0  0
  -24.8891  -27.6007   19.4667 C   0  0  0  0  0  0
  -23.7087  -29.7676   20.1475 C   0  0  0  0  0  0
  -25.4118  -36.2971   24.0305 C   0  0  1  0  0  0
  -20.5944  -28.3760   23.1188 C   0  0  2  0  0  0
  -20.6803  -26.9446   22.5400 C   0  0  0  0  0  0
  -19.5772  -26.6392   21.5217 C   0  0  0  0  0  0
  -18.1952  -26.7963   22.1622 C   0  0  0  0  0  0
  -19.1583  -28.8912   23.2825 C   0  0  0  0  0  0
  -18.9497  -30.1502   23.8858 C   0  0  0  0  0  0
  -17.6494  -30.6614   24.0562 C   0  0  0  0  0  0
  -25.9093  -34.9362   23.5023 C   0  0  0  0  0  0
  -16.5380  -29.9106   23.6357 C   0  0  0  0  0  0
  -16.7304  -28.6522   23.0375 C   0  0  0  0  0  0
  -26.4566  -31.6541   25.0705 C   0  0  0  0  0  0
  -25.3698  -31.3799   26.1363 C   0  0  0  0  0  0
  -27.0456  -30.2918   24.6417 C   0  0  0  0  0  0
  -27.6063  -32.4350   25.7501 C   0  0  0  0  0  0
  -27.5552  -37.1758   24.8464 C   0  0  0  0  0  0
  -21.4314  -29.3064   22.3540 N   0  0  0  0  0  0
  -26.4255  -37.3715   23.9418 N   0  0  0  0  0  0
  -24.7461  -30.9987   22.0869 N   0  0  0  0  0  0
  -23.4203  -28.8041   23.2999 O   0  0  0  0  0  0
  -28.1961  -25.8496   20.2381 O   0  0  0  0  0  0
  -26.5685  -34.8897   22.4609 O   0  0  0  0  0  0
  -23.5683  -32.1215   23.6881 O   0  0  0  0  0  0
  -28.4208  -20.1470   19.4787 C   0  0  0  0  0  0
  -27.9988  -21.5588   19.3678 C   0  0  0  0  0  0
  -29.4455  -19.6542   20.3707 C   0  0  0  0  0  0
  -29.9305  -20.8515   21.0711 C   0  0  0  0  0  0
  -28.5112  -22.6981   20.1137 C   0  0  0  0  0  0
  -30.6890  -18.1682   22.0323 C   0  0  0  0  0  0
  -30.1604  -18.0838   20.5887 C   0  0  1  0  0  0
  -31.1293  -20.7032   22.0201 C   0  0  2  0  0  0
  -32.3012  -21.5551   21.4763 C   0  0  0  0  0  0
  -33.5220  -18.1709   23.4799 C   0  0  0  0  0  0
  -31.4608  -18.9040   24.7870 C   0  0  0  0  0  0
  -27.7856  -24.2848   20.0214 C   0  0  0  0  0  0
  -32.3685  -19.1883   23.5701 C   0  0  0  0  0  0
  -29.4805  -22.2105   20.9829 N   0  0  0  0  0  0
  -29.7219  -16.4959   20.4168 N   0  0  0  0  0  0
  -31.6218  -19.3072   22.2749 N   0  3  1  0  0  0
  -31.4542  -12.9836   19.1661 H   0  0  0  0  0  0
  -30.5022  -11.8748   20.1109 H   0  0  0  0  0  0
  -29.8980  -11.7246   17.6725 H   0  0  0  0  0  0
  -29.5600  -13.4381   17.6293 H   0  0  0  0  0  0
  -28.0384  -11.2679   19.0944 H   0  0  0  0  0  0
  -27.4034  -12.3190   17.8544 H   0  0  0  0  0  0
  -27.5256  -14.2343   19.3158 H   0  0  0  0  0  0
  -28.8090  -12.5056   21.4862 H   0  0  0  0  0  0
  -28.2957  -14.1689   21.6726 H   0  0  0  0  0  0
  -25.2766   -9.5676   22.4768 H   0  0  0  0  0  0
  -23.9999   -7.4627   22.7480 H   0  0  0  0  0  0
  -21.0847   -8.8770   19.8955 H   0  0  0  0  0  0
  -22.3705  -10.9665   19.6169 H   0  0  0  0  0  0
  -21.2003   -7.6147   23.9706 H   0  0  0  0  0  0
  -21.1470   -6.0527   25.9074 H   0  0  0  0  0  0
  -22.0603   -2.7605   23.2848 H   0  0  0  0  0  0
  -22.4044  -11.9832   22.4851 H   0  0  0  0  0  0
  -21.1021  -13.1163   22.2670 H   0  0  0  0  0  0
  -24.6301  -15.8457   20.5191 H   0  0  0  0  0  0
  -26.2408  -15.6334   20.0552 H   0  0  0  0  0  0
  -26.7349  -32.5156   23.0904 H   0  0  0  0  0  0
  -25.0105  -33.9504   25.0236 H   0  0  0  0  0  0
  -22.7859  -31.2777   21.3577 H   0  0  0  0  0  0
  -23.3757  -35.9512   23.3280 H   0  0  0  0  0  0
  -24.3566  -36.8866   22.2071 H   0  0  0  0  0  0
  -23.7204  -37.6377   23.6714 H   0  0  0  0  0  0
  -26.2176  -31.3899   20.6222 H   0  0  0  0  0  0
  -26.9032  -30.7010   22.0529 H   0  0  0  0  0  0
  -28.1455  -28.6261   21.2723 H   0  0  0  0  0  0
  -25.8480  -25.7752   18.9856 H   0  0  0  0  0  0
  -23.9871  -27.2910   18.9577 H   0  0  0  0  0  0
  -23.8655  -30.5383   19.3919 H   0  0  0  0  0  0
  -22.8170  -29.2241   19.8283 H   0  0  0  0  0  0
  -25.1319  -36.1772   25.0801 H   0  0  0  0  0  0
  -21.0042  -28.3364   24.1303 H   0  0  0  0  0  0
  -20.5684  -26.2384   23.3641 H   0  0  0  0  0  0
  -21.6667  -26.7428   22.1202 H   0  0  0  0  0  0
  -19.6921  -25.6288   21.1280 H   0  0  0  0  0  0
  -19.6706  -27.3181   20.6729 H   0  0  0  0  0  0
  -17.4223  -26.6712   21.4022 H   0  0  0  0  0  0
  -18.0330  -26.0116   22.9027 H   0  0  0  0  0  0
  -19.7970  -30.7342   24.2183 H   0  0  0  0  0  0
  -17.5049  -31.6283   24.5182 H   0  0  0  0  0  0
  -15.5382  -30.2998   23.7718 H   0  0  0  0  0  0
  -15.8697  -28.0839   22.7106 H   0  0  0  0  0  0
  -24.5898  -30.7119   25.7693 H   0  0  0  0  0  0
  -24.8866  -32.3008   26.4643 H   0  0  0  0  0  0
  -25.7947  -30.9077   27.0228 H   0  0  0  0  0  0
  -26.3122  -29.6610   24.1394 H   0  0  0  0  0  0
  -27.3964  -29.7269   25.5058 H   0  0  0  0  0  0
  -27.9072  -30.4111   23.9849 H   0  0  0  0  0  0
  -27.2632  -33.3703   26.1943 H   0  0  0  0  0  0
  -28.3959  -32.6826   25.0388 H   0  0  0  0  0  0
  -28.0640  -31.8555   26.5527 H   0  0  0  0  0  0
  -28.2563  -38.0063   24.7538 H   0  0  0  0  0  0
  -28.1053  -36.2600   24.6261 H   0  0  0  0  0  0
  -27.2283  -37.1366   25.8869 H   0  0  0  0  0  0
  -20.9538  -29.8763   21.6697 H   0  0  0  0  0  0
  -26.0096  -38.2763   24.1473 H   0  0  0  0  0  0
  -27.9345  -19.4279   18.8341 H   0  0  0  0  0  0
  -27.2049  -21.7697   18.6633 H   0  0  0  0  0  0
  -31.2022  -17.2417   22.2865 H   0  0  0  0  0  0
  -29.8368  -18.2399   22.7093 H   0  0  0  0  0  0
  -31.0241  -18.1310   19.9227 H   0  0  0  0  0  0
  -30.7992  -21.1225   22.9717 H   0  0  0  0  0  0
  -32.5724  -21.2498   20.4656 H   0  0  0  0  0  0
  -33.1983  -21.4929   22.0900 H   0  0  0  0  0  0
  -32.0356  -22.6112   21.4335 H   0  0  0  0  0  0
  -34.1233  -18.1945   24.3890 H   0  0  0  0  0  0
  -34.1933  -18.3972   22.6511 H   0  0  0  0  0  0
  -33.1741  -17.1453   23.3598 H   0  0  0  0  0  0
  -32.0335  -18.9684   25.7128 H   0  0  0  0  0  0
  -31.0199  -17.9065   24.7576 H   0  0  0  0  0  0
  -30.6493  -19.6288   24.8630 H   0  0  0  0  0  0
  -26.8835  -24.1719   20.6221 H   0  0  0  0  0  0
  -27.4311  -24.2775   18.9918 H   0  0  0  0  0  0
  -32.8509  -20.1438   23.7746 H   0  0  0  0  0  0
  -28.7227  -16.3551   20.4271 H   0  0  0  0  0  0
  -32.3115  -19.1994   21.5485 H   0  0  0  0  0  0
  1 25  1  0  0  0
  1 30  2  0  0  0
  1 85  1  0  0  0
  2  3  1  0  0  0
  2 25  1  0  0  0
  2 87  1  0  0  0
  2 88  1  0  0  0
  3  4  1  0  0  0
  3 89  1  0  0  0
  3 90  1  0  0  0
  4  5  1  0  0  0
  4 91  1  0  0  0
  4 92  1  0  0  0
  5  6  1  0  0  0
  5 26  1  0  0  0
  5 93  1  0  0  0
  6 25  1  0  0  0
  6 94  1  0  0  0
  6 95  1  0  0  0
  7  8  2  0  0  0
  7 26  1  0  0  0
  7 29  1  0  0  0
  8  9  1  0  0  0
  8 22  1  0  0  0
  9 10  1  0  0  0
  9 27  2  0  0  0
 10 11  2  0  0  0
 10 15  1  0  0  0
 11 12  1  0  0  0
 11 96  1  0  0  0
 12 13  2  0  0  0
 12 97  1  0  0  0
 13 14  1  0  0  0
 13 31  1  0  0  0
 14 15  2  0  0  0
 14 98  1  0  0  0
 15 99  1  0  0  0
 16 17  2  0  0  0
 16 21  1  0  0  0
 16 31  1  0  0  0
 17 18  1  0  0  0
 17100  1  0  0  0
 18 19  2  0  0  0
 18101  1  0  0  0
 19 20  1  0  0  0
 19 24  1  0  0  0
 20 21  2  0  0  0
 20102  1  0  0  0
 21 23  1  0  0  0
 22 28  1  0  0  0
 22 32  2  0  0  0
 26 27  1  0  0  0
 28103  1  0  0  0
 28104  1  0  0  0
 29105  1  0  0  0
 29106  1  0  0  0
 33 34  1  0  0  0
 33 66  1  0  0  0
 33 70  2  0  0  0
 34 36  1  0  0  0
 34 59  1  0  0  0
 34107  1  0  0  0
 35 44  2  0  0  0
 35 45  1  0  0  0
 35 68  1  0  0  0
 36 56  1  0  0  0
 36108  1  0  0  0
 37 39  1  0  0  0
 37 47  1  0  0  0
 37 66  1  0  0  0
 37109  1  0  0  0
 38 43  2  0  0  0
 38 46  1  0  0  0
 38 47  1  0  0  0
 39 64  1  0  0  0
 39 67  2  0  0  0
 40 52  1  0  0  0
 40 53  2  0  0  0
 40 58  1  0  0  0
 41110  1  0  0  0
 41111  1  0  0  0
 41112  1  0  0  0
 41 48  1  0  0  0
 42 43  1  0  0  0
 42 66  1  0  0  0
 42113  1  0  0  0
 42114  1  0  0  0
 43 44  1  0  0  0
 44115  1  0  0  0
 45 46  2  0  0  0
 45116  1  0  0  0
 46117  1  0  0  0
 47118  1  0  0  0
 47119  1  0  0  0
 48 56  1  0  0  0
 48 65  1  0  0  0
 48120  1  0  0  0
 49 50  1  0  0  0
 49 53  1  0  0  0
 49 64  1  0  0  0
 49121  1  0  0  0
 50 51  1  0  0  0
 50122  1  0  0  0
 50123  1  0  0  0
 51 52  1  0  0  0
 51124  1  0  0  0
 51125  1  0  0  0
 52126  1  0  0  0
 52127  1  0  0  0
 53 54  1  0  0  0
 54 55  2  0  0  0
 54128  1  0  0  0
 55 57  1  0  0  0
 55129  1  0  0  0
 56 69  2  0  0  0
 57 58  2  0  0  0
 57130  1  0  0  0
 58131  1  0  0  0
 59 60  1  0  0  0
 59 61  1  0  0  0
 59 62  1  0  0  0
 60132  1  0  0  0
 60133  1  0  0  0
 60134  1  0  0  0
 61135  1  0  0  0
 61136  1  0  0  0
 61137  1  0  0  0
 62138  1  0  0  0
 62139  1  0  0  0
 62140  1  0  0  0
 63 65  1  0  0  0
 63141  1  0  0  0
 63142  1  0  0  0
 63143  1  0  0  0
 64144  1  0  0  0
 65145  1  0  0  0
 68 82  1  0  0  0
 71 72  2  0  0  0
 71 73  1  0  0  0
 71146  1  0  0  0
 72 75  1  0  0  0
 72147  1  0  0  0
 73 74  2  0  0  0
 73 77  1  0  0  0
 74 78  1  0  0  0
 74 84  1  0  0  0
 75 82  1  0  0  0
 75 84  2  0  0  0
 76 77  1  0  0  0
 76148  1  0  0  0
 76149  1  0  0  0
 76 86  1  0  0  0
 77 85  1  0  0  0
 77150  1  0  0  0
 78 79  1  0  0  0
 78 86  1  0  0  0
 78151  1  0  0  0
 79152  1  0  0  0
 79153  1  0  0  0
 79154  1  0  0  0
 80155  1  0  0  0
 80156  1  0  0  0
 80157  1  0  0  0
 80 83  1  0  0  0
 81 83  1  0  0  0
 81158  1  0  0  0
 81159  1  0  0  0
 81160  1  0  0  0
 82161  1  0  0  0
 82162  1  0  0  0
 83 86  1  0  0  0
 83163  1  0  0  0
 85164  1  0  0  0
 86165  1  0  0  0
M  CHG  1  86   1
M  ISO  4   1 100  68 101  82 101  85 100
M  END
> <chiral flag>
0

> <version>
0

> <s_m_source_file>
/data/baiqing/PycharmProjects/Reinvent-master-3.2/result/LINK_invent/BTK/process_docking_weight1_custom_sum_contain_oxygen_bond_distance_aromatic_linkinvent_7_9_3/rearranged_h_0180.sdf

> <i_m_source_file_index>
41

> <r_mmod_Potential_Energy-OPLS-2005>
863.39404296875

> <r_mmod_Stretch_Energy-OPLS-2005>
476.146209716797

> <r_mmod_Bend_Energy-OPLS-2005>
466.286926269531

> <r_mmod_Torsional_Energy-OPLS-2005>
237.425094604492

> <r_mmod_Improper_Torsional_Energy-OPLS-2005>
5.17699003219604

> <r_mmod_Van_der_Waal_Energy-OPLS-2005>
144.671127319336

> <r_mmod_Electrostatic_Energy-OPLS-2005>
-440.435455322266

> <r_mmod_Solvation_Energy-OPLS-2005>
-440.999908447266

> <b_mmod_Minimization_Converged-OPLS-2005>
0

> <r_mmod_RMS_Derivative-OPLS-2005>
1.92648112773895

$$$$
41
                    3D
 Structure written by MMmdl.
156165  0  0  1  0            999 V2000
  -30.5385  -14.8618   20.4256 C   0  0  0  0  0  0
  -30.4558  -12.5272   19.4937 C   0  0  0  0  0  0
  -29.5285  -12.5125   18.2572 C   0  0  0  0  0  0
  -28.0611  -12.3022   18.6763 C   0  0  0  0  0  0
  -27.6430  -13.2259   19.8505 C   0  0  2  0  0  0
  -28.6862  -13.1953   20.9914 C   0  0  0  0  0  0
  -25.2530  -13.8182   20.5707 C   0  0  0  0  0  0
  -24.1802  -13.0445   20.9214 C   0  0  0  0  0  0
  -24.6377  -11.6927   20.8768 C   0  0  0  0  0  0
  -23.9068  -10.4311   21.0421 C   0  0  0  0  0  0
  -24.3618   -9.4214   21.9198 C   0  0  0  0  0  0
  -23.6298   -8.2240   22.0760 C   0  0  0  0  0  0
  -22.4285   -8.0279   21.3537 C   0  0  0  0  0  0
  -21.9909   -9.0260   20.4651 C   0  0  0  0  0  0
  -22.7230  -10.2147   20.3070 C   0  0  0  0  0  0
  -21.6859   -6.0743   22.5275 C   0  0  0  0  0  0
  -21.4007   -6.5644   23.8208 C   0  0  0  0  0  0
  -21.3654   -5.6793   24.9177 C   0  0  0  0  0  0
  -21.6055   -4.3054   24.7222 C   0  0  0  0  0  0
  -21.8816   -3.8150   23.4338 C   0  0  0  0  0  0
  -21.9182   -4.6969   22.3401 C   0  0  0  0  0  0
  -22.7821  -13.5241   21.1873 C   0  0  0  0  0  0
  -22.1662   -4.2160   21.0976 F   0  0  0  0  0  0
  -21.5631   -3.4535   25.7732 F   0  0  0  0  0  0
  -29.9771  -13.5937   20.4098 N   0  0  0  0  0  0
  -26.2941  -12.9369   20.3250 N   0  0  0  0  0  0
  -25.9299  -11.6535   20.5743 N   0  0  0  0  0  0
  -22.0447  -12.8263   22.0444 N   0  0  0  0  0  0
  -25.4210  -15.1920   20.4115 N   0  0  0  0  0  0
  -31.7177  -14.9874   20.0704 O   0  0  0  0  0  0
  -21.6630   -6.8889   21.4248 O   0  0  0  0  0  0
  -22.3519  -14.5542   20.6713 O   0  0  0  0  0  0
  -24.6373  -31.8484   23.1926 C   0  0  0  0  0  0
  -25.9155  -32.4746   23.8293 C   0  0  1  0  0  0
  -27.2245  -27.2031   20.1454 C   0  0  0  0  0  0
  -25.5918  -33.8540   24.2228 N   0  0  0  0  0  0
  -23.4403  -30.4706   21.5367 C   0  0  2  0  0  0
  -24.8919  -28.9120   20.1102 C   0  0  0  0  0  0
  -22.7546  -29.4569   22.4872 C   0  0  0  0  0  0
  -18.0299  -28.1372   22.8502 C   0  0  0  0  0  0
  -24.1493  -36.7289   23.2646 C   0  0  0  0  0  0
  -25.9913  -30.7525   21.3755 C   0  0  0  0  0  0
  -26.0665  -29.3672   20.7201 C   0  0  0  0  0  0
  -27.2377  -28.5290   20.7201 C   0  0  0  0  0  0
  -26.0174  -26.8316   19.5084 C   0  0  0  0  0  0
  -24.8746  -27.6546   19.4931 C   0  0  0  0  0  0
  -23.6645  -29.8034   20.1550 C   0  0  0  0  0  0
  -25.4117  -36.3074   24.0332 C   0  0  1  0  0  0
  -20.5913  -28.3688   23.1264 C   0  0  2  0  0  0
  -20.6785  -26.9393   22.5428 C   0  0  0  0  0  0
  -19.5749  -26.6363   21.5234 C   0  0  0  0  0  0
  -18.1925  -26.7915   22.1643 C   0  0  0  0  0  0
  -19.1558  -28.8849   23.2881 C   0  0  0  0  0  0
  -18.9466  -30.1446   23.8902 C   0  0  0  0  0  0
  -17.6460  -30.6577   24.0553 C   0  0  0  0  0  0
  -25.9043  -34.9435   23.5096 C   0  0  0  0  0  0
  -16.5352  -29.9069   23.6327 C   0  0  0  0  0  0
  -16.7284  -28.6487   23.0357 C   0  0  0  0  0  0
  -26.4501  -31.6560   25.0675 C   0  0  0  0  0  0
  -25.3725  -31.3712   26.1404 C   0  0  0  0  0  0
  -27.0346  -30.2976   24.6148 C   0  0  0  0  0  0
  -27.6068  -32.4280   25.7445 C   0  0  0  0  0  0
  -27.5579  -37.1792   24.8465 C   0  0  0  0  0  0
  -21.4237  -29.3021   22.3627 N   0  0  0  0  0  0
  -26.4291  -37.3776   23.9410 N   0  0  0  0  0  0
  -24.7102  -31.0420   22.0924 N   0  0  0  0  0  0
  -23.4223  -28.8088   23.2968 O   0  0  0  0  0  0
  -28.2943  -26.2550   20.2213 O   0  0  0  0  0  0
  -26.5626  -34.8929   22.4664 O   0  0  0  0  0  0
  -23.5505  -32.1320   23.7167 O   0  0  0  0  0  0
  -30.0317  -18.1358   19.3420 C   0  0  0  0  0  0
  -28.9851  -19.6520   21.3404 C   0  0  0  0  0  0
  -29.2345  -20.4101   20.1535 C   0  0  0  0  0  0
  -29.7924  -19.5500   19.1399 C   0  0  0  0  0  0
  -29.7112  -17.4577   20.5542 C   0  0  0  0  0  0
  -29.6822  -22.9069   19.1884 C   0  0  0  0  0  0
  -28.7319  -21.9373   19.8521 C   0  0  1  0  0  0
  -28.9653  -23.4749   20.3899 C   0  0  1  0  0  0
  -30.0859  -20.1132   17.7613 C   0  0  0  0  0  0
  -29.7028  -23.6567   21.7045 C   0  0  0  0  0  0
  -27.9840  -24.7585   20.1104 C   0  0  0  0  0  0
  -29.1955  -18.2895   21.5167 N   0  0  0  0  0  0
  -29.7050  -15.9543   20.7185 N   0  0  0  0  0  0
  -31.4880  -12.6938   19.1812 H   0  0  0  0  0  0
  -30.4527  -11.5582   19.9939 H   0  0  0  0  0  0
  -29.8442  -11.7269   17.5711 H   0  0  0  0  0  0
  -29.6197  -13.4518   17.7104 H   0  0  0  0  0  0
  -27.9593  -11.2601   18.9821 H   0  0  0  0  0  0
  -27.3927  -12.4363   17.8260 H   0  0  0  0  0  0
  -27.6302  -14.2363   19.4444 H   0  0  0  0  0  0
  -28.7488  -12.2009   21.4358 H   0  0  0  0  0  0
  -28.3934  -13.8673   21.8005 H   0  0  0  0  0  0
  -25.2769   -9.5697   22.4754 H   0  0  0  0  0  0
  -24.0019   -7.4636   22.7458 H   0  0  0  0  0  0
  -21.0841   -8.8778   19.8951 H   0  0  0  0  0  0
  -22.3684  -10.9693   19.6173 H   0  0  0  0  0  0
  -21.1991   -7.6149   23.9728 H   0  0  0  0  0  0
  -21.1490   -6.0515   25.9084 H   0  0  0  0  0  0
  -22.0597   -2.7610   23.2827 H   0  0  0  0  0  0
  -22.4059  -11.9937   22.4886 H   0  0  0  0  0  0
  -21.1052  -13.1294   22.2608 H   0  0  0  0  0  0
  -24.6523  -15.8418   20.5365 H   0  0  0  0  0  0
  -26.2539  -15.6333   20.0450 H   0  0  0  0  0  0
  -26.7219  -32.5408   23.1034 H   0  0  0  0  0  0
  -25.0023  -33.9645   25.0347 H   0  0  0  0  0  0
  -22.7417  -31.2951   21.3839 H   0  0  0  0  0  0
  -23.3766  -35.9608   23.3287 H   0  0  0  0  0  0
  -24.3610  -36.8925   22.2069 H   0  0  0  0  0  0
  -23.7219  -37.6477   23.6674 H   0  0  0  0  0  0
  -26.1206  -31.5062   20.5981 H   0  0  0  0  0  0
  -26.8751  -30.8182   21.9990 H   0  0  0  0  0  0
  -28.1381  -28.8739   21.2089 H   0  0  0  0  0  0
  -25.9119  -25.8691   19.0325 H   0  0  0  0  0  0
  -23.9691  -27.3004   19.0202 H   0  0  0  0  0  0
  -23.7946  -30.5768   19.3980 H   0  0  0  0  0  0
  -22.7860  -29.2346   19.8499 H   0  0  0  0  0  0
  -25.1296  -36.1932   25.0826 H   0  0  0  0  0  0
  -21.0026  -28.3268   24.1370 H   0  0  0  0  0  0
  -20.5687  -26.2279   23.3629 H   0  0  0  0  0  0
  -21.6640  -26.7386   22.1203 H   0  0  0  0  0  0
  -19.6894  -25.6274   21.1241 H   0  0  0  0  0  0
  -19.6686  -27.3193   20.6778 H   0  0  0  0  0  0
  -17.4200  -26.6681   21.4038 H   0  0  0  0  0  0
  -18.0302  -26.0051   22.9033 H   0  0  0  0  0  0
  -19.7939  -30.7261   24.2278 H   0  0  0  0  0  0
  -17.5011  -31.6267   24.5127 H   0  0  0  0  0  0
  -15.5354  -30.2966   23.7642 H   0  0  0  0  0  0
  -15.8686  -28.0806   22.7059 H   0  0  0  0  0  0
  -24.5874  -30.7103   25.7721 H   0  0  0  0  0  0
  -24.8952  -32.2886   26.4857 H   0  0  0  0  0  0
  -25.8035  -30.8847   27.0161 H   0  0  0  0  0  0
  -26.2917  -29.6715   24.1195 H   0  0  0  0  0  0
  -27.4071  -29.7246   25.4647 H   0  0  0  0  0  0
  -27.8779  -30.4268   23.9362 H   0  0  0  0  0  0
  -27.2697  -33.3583   26.2030 H   0  0  0  0  0  0
  -28.3873  -32.6821   25.0259 H   0  0  0  0  0  0
  -28.0744  -31.8383   26.5344 H   0  0  0  0  0  0
  -28.2597  -38.0090   24.7516 H   0  0  0  0  0  0
  -28.1068  -36.2616   24.6283 H   0  0  0  0  0  0
  -27.2299  -37.1444   25.8870 H   0  0  0  0  0  0
  -20.9408  -29.8779   21.6865 H   0  0  0  0  0  0
  -26.0177  -38.2849   24.1424 H   0  0  0  0  0  0
  -30.4014  -17.5504   18.5111 H   0  0  0  0  0  0
  -28.5211  -20.1397   22.1841 H   0  0  0  0  0  0
  -29.3936  -23.2706   18.2041 H   0  0  0  0  0  0
  -30.7488  -22.7303   19.3056 H   0  0  0  0  0  0
  -27.7543  -21.8168   19.3903 H   0  0  0  0  0  0
  -30.1859  -19.3253   17.0155 H   0  0  0  0  0  0
  -31.0110  -20.6895   17.7745 H   0  0  0  0  0  0
  -29.2823  -20.7631   17.4202 H   0  0  0  0  0  0
  -30.5382  -22.9585   21.7776 H   0  0  0  0  0  0
  -29.0283  -23.4815   22.5426 H   0  0  0  0  0  0
  -30.0990  -24.6701   21.7828 H   0  0  0  0  0  0
  -27.1133  -24.5887   20.7484 H   0  0  0  0  0  0
  -27.6305  -24.6130   19.0922 H   0  0  0  0  0  0
  -28.8456  -15.6308   21.1290 H   0  0  0  0  0  0
  1 25  1  0  0  0
  1 30  2  0  0  0
  1 83  1  0  0  0
  2  3  1  0  0  0
  2 25  1  0  0  0
  2 84  1  0  0  0
  2 85  1  0  0  0
  3  4  1  0  0  0
  3 86  1  0  0  0
  3 87  1  0  0  0
  4  5  1  0  0  0
  4 88  1  0  0  0
  4 89  1  0  0  0
  5  6  1  0  0  0
  5 26  1  0  0  0
  5 90  1  0  0  0
  6 25  1  0  0  0
  6 91  1  0  0  0
  6 92  1  0  0  0
  7  8  2  0  0  0
  7 26  1  0  0  0
  7 29  1  0  0  0
  8  9  1  0  0  0
  8 22  1  0  0  0
  9 10  1  0  0  0
  9 27  2  0  0  0
 10 11  2  0  0  0
 10 15  1  0  0  0
 11 12  1  0  0  0
 11 93  1  0  0  0
 12 13  2  0  0  0
 12 94  1  0  0  0
 13 14  1  0  0  0
 13 31  1  0  0  0
 14 15  2  0  0  0
 14 95  1  0  0  0
 15 96  1  0  0  0
 16 17  2  0  0  0
 16 21  1  0  0  0
 16 31  1  0  0  0
 17 18  1  0  0  0
 17 97  1  0  0  0
 18 19  2  0  0  0
 18 98  1  0  0  0
 19 20  1  0  0  0
 19 24  1  0  0  0
 20 21  2  0  0  0
 20 99  1  0  0  0
 21 23  1  0  0  0
 22 28  1  0  0  0
 22 32  2  0  0  0
 26 27  1  0  0  0
 28100  1  0  0  0
 28101  1  0  0  0
 29102  1  0  0  0
 29103  1  0  0  0
 33 34  1  0  0  0
 33 66  1  0  0  0
 33 70  2  0  0  0
 34 36  1  0  0  0
 34 59  1  0  0  0
 34104  1  0  0  0
 35 44  2  0  0  0
 35 45  1  0  0  0
 35 68  1  0  0  0
 36 56  1  0  0  0
 36105  1  0  0  0
 37 39  1  0  0  0
 37 47  1  0  0  0
 37 66  1  0  0  0
 37106  1  0  0  0
 38 43  2  0  0  0
 38 46  1  0  0  0
 38 47  1  0  0  0
 39 64  1  0  0  0
 39 67  2  0  0  0
 40 52  1  0  0  0
 40 53  2  0  0  0
 40 58  1  0  0  0
 41107  1  0  0  0
 41108  1  0  0  0
 41109  1  0  0  0
 41 48  1  0  0  0
 42 43  1  0  0  0
 42 66  1  0  0  0
 42110  1  0  0  0
 42111  1  0  0  0
 43 44  1  0  0  0
 44112  1  0  0  0
 45 46  2  0  0  0
 45113  1  0  0  0
 46114  1  0  0  0
 47115  1  0  0  0
 47116  1  0  0  0
 48 56  1  0  0  0
 48 65  1  0  0  0
 48117  1  0  0  0
 49 50  1  0  0  0
 49 53  1  0  0  0
 49 64  1  0  0  0
 49118  1  0  0  0
 50 51  1  0  0  0
 50119  1  0  0  0
 50120  1  0  0  0
 51 52  1  0  0  0
 51121  1  0  0  0
 51122  1  0  0  0
 52123  1  0  0  0
 52124  1  0  0  0
 53 54  1  0  0  0
 54 55  2  0  0  0
 54125  1  0  0  0
 55 57  1  0  0  0
 55126  1  0  0  0
 56 69  2  0  0  0
 57 58  2  0  0  0
 57127  1  0  0  0
 58128  1  0  0  0
 59 60  1  0  0  0
 59 61  1  0  0  0
 59 62  1  0  0  0
 60129  1  0  0  0
 60130  1  0  0  0
 60131  1  0  0  0
 61132  1  0  0  0
 61133  1  0  0  0
 61134  1  0  0  0
 62135  1  0  0  0
 62136  1  0  0  0
 62137  1  0  0  0
 63 65  1  0  0  0
 63138  1  0  0  0
 63139  1  0  0  0
 63140  1  0  0  0
 64141  1  0  0  0
 65142  1  0  0  0
 68 81  1  0  0  0
 71 74  2  0  0  0
 71 75  1  0  0  0
 71143  1  0  0  0
 72 73  2  0  0  0
 72 82  1  0  0  0
 72144  1  0  0  0
 73 74  1  0  0  0
 73 77  1  0  0  0
 74 79  1  0  0  0
 75 82  2  0  0  0
 75 83  1  0  0  0
 76 77  1  0  0  0
 76 78  1  0  0  0
 76145  1  0  0  0
 76146  1  0  0  0
 77 78  1  0  0  0
 77147  1  0  0  0
 78 80  1  0  0  0
 78 81  1  0  0  0
 79148  1  0  0  0
 79149  1  0  0  0
 79150  1  0  0  0
 80151  1  0  0  0
 80152  1  0  0  0
 80153  1  0  0  0
 81154  1  0  0  0
 81155  1  0  0  0
 83156  1  0  0  0
M  ISO  4   1 100  68 101  81 101  83 100
M  END
> <chiral flag>
0

> <version>
0

> <s_m_source_file>
/data/baiqing/PycharmProjects/Reinvent-master-3.2/result/LINK_invent/BTK/process_docking_weight1_custom_sum_contain_oxygen_bond_distance_aromatic_linkinvent_7_9_3/rearranged_h_0180.sdf

> <i_m_source_file_index>
42

> <r_mmod_Potential_Energy-OPLS-2005>
264.806884765625

> <r_mmod_Stretch_Energy-OPLS-2005>
184.014251708984

> <r_mmod_Bend_Energy-OPLS-2005>
231.99430847168

> <r_mmod_Torsional_Energy-OPLS-2005>
275.140838623047

> <r_mmod_Improper_Torsional_Energy-OPLS-2005>
5.96122360229492

> <r_mmod_Van_der_Waal_Energy-OPLS-2005>
136.665496826172

> <r_mmod_Electrostatic_Energy-OPLS-2005>
-493.451385498047

> <r_mmod_Solvation_Energy-OPLS-2005>
-214.271102905273

> <b_mmod_Minimization_Converged-OPLS-2005>
0

> <r_mmod_RMS_Derivative-OPLS-2005>
4.20593738555908

$$$$
42
                    3D
 Structure written by MMmdl.
155164  0  0  1  0            999 V2000
  -30.5614  -15.1093   20.3768 C   0  0  0  0  0  0
  -30.4183  -12.6959   19.4995 C   0  0  0  0  0  0
  -29.5093  -12.5348   18.2605 C   0  0  0  0  0  0
  -28.0536  -12.2995   18.6994 C   0  0  0  0  0  0
  -27.6123  -13.2718   19.8253 C   0  0  2  0  0  0
  -28.6614  -13.4094   20.9487 C   0  0  0  0  0  0
  -25.2377  -13.8281   20.5747 C   0  0  0  0  0  0
  -24.1724  -13.0437   20.9247 C   0  0  0  0  0  0
  -24.6386  -11.6966   20.8760 C   0  0  0  0  0  0
  -23.9100  -10.4284   21.0408 C   0  0  0  0  0  0
  -24.3643   -9.4198   21.9186 C   0  0  0  0  0  0
  -23.6285   -8.2251   22.0763 C   0  0  0  0  0  0
  -22.4276   -8.0271   21.3544 C   0  0  0  0  0  0
  -21.9938   -9.0264   20.4652 C   0  0  0  0  0  0
  -22.7282  -10.2135   20.3044 C   0  0  0  0  0  0
  -21.6824   -6.0715   22.5271 C   0  0  0  0  0  0
  -21.4026   -6.5631   23.8204 C   0  0  0  0  0  0
  -21.3671   -5.6789   24.9158 C   0  0  0  0  0  0
  -21.6026   -4.3045   24.7224 C   0  0  0  0  0  0
  -21.8819   -3.8143   23.4348 C   0  0  0  0  0  0
  -21.9196   -4.6953   22.3398 C   0  0  0  0  0  0
  -22.7747  -13.5186   21.1896 C   0  0  0  0  0  0
  -22.1640   -4.2134   21.0962 F   0  0  0  0  0  0
  -21.5643   -3.4536   25.7735 F   0  0  0  0  0  0
  -29.9023  -13.8605   20.3021 N   0  0  0  0  0  0
  -26.2797  -12.9541   20.3266 N   0  0  0  0  0  0
  -25.9309  -11.6661   20.5788 N   0  0  0  0  0  0
  -22.0399  -12.8124   22.0449 N   0  0  0  0  0  0
  -25.4069  -15.2004   20.4208 N   0  0  0  0  0  0
  -31.7757  -15.0360   20.1558 O   0  0  0  0  0  0
  -21.6624   -6.8868   21.4231 O   0  0  0  0  0  0
  -22.3395  -14.5481   20.6742 O   0  0  0  0  0  0
  -24.6568  -31.8336   23.1788 C   0  0  0  0  0  0
  -25.9284  -32.4620   23.8222 C   0  0  1  0  0  0
  -27.2125  -27.0073   20.1574 C   0  0  0  0  0  0
  -25.5990  -33.8429   24.2143 N   0  0  0  0  0  0
  -23.4694  -30.4432   21.5263 C   0  0  2  0  0  0
  -24.9128  -28.8391   20.1194 C   0  0  0  0  0  0
  -22.7632  -29.4458   22.4793 C   0  0  0  0  0  0
  -18.0354  -28.1379   22.8386 C   0  0  0  0  0  0
  -24.1471  -36.7214   23.2633 C   0  0  0  0  0  0
  -26.0331  -30.6560   21.3989 C   0  0  0  0  0  0
  -26.1017  -29.2538   20.7388 C   0  0  0  0  0  0
  -27.2583  -28.3634   20.7217 C   0  0  0  0  0  0
  -25.9902  -26.7125   19.5170 C   0  0  0  0  0  0
  -24.8805  -27.5854   19.4888 C   0  0  0  0  0  0
  -23.7046  -29.7650   20.1515 C   0  0  0  0  0  0
  -25.4086  -36.2981   24.0320 C   0  0  1  0  0  0
  -20.5945  -28.3707   23.1149 C   0  0  2  0  0  0
  -20.6766  -26.9363   22.5392 C   0  0  0  0  0  0
  -19.5758  -26.6334   21.5167 C   0  0  0  0  0  0
  -18.1935  -26.7906   22.1565 C   0  0  0  0  0  0
  -19.1616  -28.8852   23.2727 C   0  0  0  0  0  0
  -18.9538  -30.1415   23.8790 C   0  0  0  0  0  0
  -17.6531  -30.6529   24.0502 C   0  0  0  0  0  0
  -25.9108  -34.9371   23.5052 C   0  0  0  0  0  0
  -16.5402  -29.9040   23.6297 C   0  0  0  0  0  0
  -16.7344  -28.6479   23.0291 C   0  0  0  0  0  0
  -26.4523  -31.6561   25.0746 C   0  0  0  0  0  0
  -25.3630  -31.3803   26.1362 C   0  0  0  0  0  0
  -27.0380  -30.2948   24.6399 C   0  0  0  0  0  0
  -27.6047  -32.4372   25.7476 C   0  0  0  0  0  0
  -27.5584  -37.1696   24.8459 C   0  0  0  0  0  0
  -21.4324  -29.3025   22.3531 N   0  0  0  0  0  0
  -26.4257  -37.3715   23.9488 N   0  0  0  0  0  0
  -24.7394  -31.0021   22.0902 N   0  0  0  0  0  0
  -23.4203  -28.7936   23.2946 O   0  0  0  0  0  0
  -28.2449  -25.9705   20.1068 O   0  0  0  0  0  0
  -26.5705  -34.8926   22.4651 O   0  0  0  0  0  0
  -23.5665  -32.1301   23.6903 O   0  0  0  0  0  0
  -28.9734  -21.6539   20.6440 C   0  0  0  0  0  0
  -29.0738  -20.3295   19.9297 C   0  0  0  0  0  0
  -28.4956  -22.9396   20.0044 C   0  0  0  0  0  0
  -28.3087  -21.5998   18.0942 C   0  0  0  0  0  0
  -28.9124  -17.3663   20.8754 C   0  0  0  0  0  0
  -30.4959  -17.6993   19.5547 C   0  0  0  0  0  0
  -29.6115  -18.7572   20.3889 C   0  0  0  0  0  0
  -29.3954  -21.6929   22.1052 C   0  0  0  0  0  0
  -27.9985  -21.6085   16.6030 C   0  0  0  0  0  0
  -28.1030  -24.4678   20.6636 C   0  0  0  0  0  0
  -28.6857  -20.4245   18.6333 N   0  0  0  0  0  0
  -28.1901  -22.7908   18.6982 N   0  0  0  0  0  0
  -29.9512  -16.4362   20.2296 N   0  0  0  0  0  0
  -31.4507  -12.8275   19.1727 H   0  0  0  0  0  0
  -30.4231  -11.7804   20.0954 H   0  0  0  0  0  0
  -29.8508  -11.7017   17.6474 H   0  0  0  0  0  0
  -29.5695  -13.4249   17.6325 H   0  0  0  0  0  0
  -27.9912  -11.2720   19.0638 H   0  0  0  0  0  0
  -27.3771  -12.3632   17.8471 H   0  0  0  0  0  0
  -27.5452  -14.2481   19.3440 H   0  0  0  0  0  0
  -28.7967  -12.4640   21.4793 H   0  0  0  0  0  0
  -28.3378  -14.1415   21.6920 H   0  0  0  0  0  0
  -25.2786   -9.5619   22.4751 H   0  0  0  0  0  0
  -23.9956   -7.4630   22.7489 H   0  0  0  0  0  0
  -21.0867   -8.8777   19.8945 H   0  0  0  0  0  0
  -22.3753  -10.9653   19.6126 H   0  0  0  0  0  0
  -21.2017   -7.6140   23.9698 H   0  0  0  0  0  0
  -21.1486   -6.0515   25.9056 H   0  0  0  0  0  0
  -22.0597   -2.7598   23.2845 H   0  0  0  0  0  0
  -22.4051  -11.9811   22.4823 H   0  0  0  0  0  0
  -21.1011  -13.1116   22.2702 H   0  0  0  0  0  0
  -24.6552  -15.8648   20.5548 H   0  0  0  0  0  0
  -26.2727  -15.6362   20.1255 H   0  0  0  0  0  0
  -26.7349  -32.5104   23.0931 H   0  0  0  0  0  0
  -24.9973  -33.9523   25.0177 H   0  0  0  0  0  0
  -22.7848  -31.2781   21.3650 H   0  0  0  0  0  0
  -23.3763  -35.9522   23.3252 H   0  0  0  0  0  0
  -24.3552  -36.8935   22.2078 H   0  0  0  0  0  0
  -23.7251  -37.6384   23.6756 H   0  0  0  0  0  0
  -26.1879  -31.4041   20.6202 H   0  0  0  0  0  0
  -26.9063  -30.7086   22.0405 H   0  0  0  0  0  0
  -28.1855  -28.6904   21.1747 H   0  0  0  0  0  0
  -25.8850  -25.7502   19.0306 H   0  0  0  0  0  0
  -23.9810  -27.2634   18.9830 H   0  0  0  0  0  0
  -23.8699  -30.5403   19.4050 H   0  0  0  0  0  0
  -22.8130  -29.2261   19.8275 H   0  0  0  0  0  0
  -25.1259  -36.1733   25.0817 H   0  0  0  0  0  0
  -21.0021  -28.3325   24.1276 H   0  0  0  0  0  0
  -20.5594  -26.2316   23.3638 H   0  0  0  0  0  0
  -21.6626  -26.7269   22.1229 H   0  0  0  0  0  0
  -19.6900  -25.6249   21.1212 H   0  0  0  0  0  0
  -19.6746  -27.3121   20.6690 H   0  0  0  0  0  0
  -17.4193  -26.6684   21.3949 H   0  0  0  0  0  0
  -18.0248  -26.0120   22.9040 H   0  0  0  0  0  0
  -19.8052  -30.7162   24.2186 H   0  0  0  0  0  0
  -17.5126  -31.6228   24.5072 H   0  0  0  0  0  0
  -15.5396  -30.2842   23.7705 H   0  0  0  0  0  0
  -15.8770  -28.0732   22.7019 H   0  0  0  0  0  0
  -24.5978  -30.6946   25.7665 H   0  0  0  0  0  0
  -24.8525  -32.2963   26.4422 H   0  0  0  0  0  0
  -25.7799  -30.9289   27.0366 H   0  0  0  0  0  0
  -26.3002  -29.6647   24.1385 H   0  0  0  0  0  0
  -27.3956  -29.7287   25.4998 H   0  0  0  0  0  0
  -27.8969  -30.4179   23.9747 H   0  0  0  0  0  0
  -27.2767  -33.3886   26.1658 H   0  0  0  0  0  0
  -28.3980  -32.6554   25.0332 H   0  0  0  0  0  0
  -28.0535  -31.8725   26.5658 H   0  0  0  0  0  0
  -28.2398  -38.0147   24.7577 H   0  0  0  0  0  0
  -28.1244  -36.2666   24.6112 H   0  0  0  0  0  0
  -27.2318  -37.1076   25.8846 H   0  0  0  0  0  0
  -20.9591  -29.8819   21.6759 H   0  0  0  0  0  0
  -26.0087  -38.2750   24.1608 H   0  0  0  0  0  0
  -27.9128  -17.2275   20.4604 H   0  0  0  0  0  0
  -28.8678  -17.2907   21.9647 H   0  0  0  0  0  0
  -31.5707  -17.8513   19.6748 H   0  0  0  0  0  0
  -30.2679  -17.7238   18.4869 H   0  0  0  0  0  0
  -30.2772  -19.0209   21.2106 H   0  0  0  0  0  0
  -30.2657  -21.0600   22.2867 H   0  0  0  0  0  0
  -28.5861  -21.3457   22.7531 H   0  0  0  0  0  0
  -29.6736  -22.6993   22.4200 H   0  0  0  0  0  0
  -28.2839  -20.6705   16.1267 H   0  0  0  0  0  0
  -28.5448  -22.4013   16.0875 H   0  0  0  0  0  0
  -26.9312  -21.7634   16.4295 H   0  0  0  0  0  0
  -28.6998  -24.5033   21.5692 H   0  0  0  0  0  0
  -27.0815  -24.3773   21.0340 H   0  0  0  0  0  0
  1 25  1  0  0  0
  1 30  2  0  0  0
  1 83  1  0  0  0
  2  3  1  0  0  0
  2 25  1  0  0  0
  2 84  1  0  0  0
  2 85  1  0  0  0
  3  4  1  0  0  0
  3 86  1  0  0  0
  3 87  1  0  0  0
  4  5  1  0  0  0
  4 88  1  0  0  0
  4 89  1  0  0  0
  5  6  1  0  0  0
  5 26  1  0  0  0
  5 90  1  0  0  0
  6 25  1  0  0  0
  6 91  1  0  0  0
  6 92  1  0  0  0
  7  8  2  0  0  0
  7 26  1  0  0  0
  7 29  1  0  0  0
  8  9  1  0  0  0
  8 22  1  0  0  0
  9 10  1  0  0  0
  9 27  2  0  0  0
 10 11  2  0  0  0
 10 15  1  0  0  0
 11 12  1  0  0  0
 11 93  1  0  0  0
 12 13  2  0  0  0
 12 94  1  0  0  0
 13 14  1  0  0  0
 13 31  1  0  0  0
 14 15  2  0  0  0
 14 95  1  0  0  0
 15 96  1  0  0  0
 16 17  2  0  0  0
 16 21  1  0  0  0
 16 31  1  0  0  0
 17 18  1  0  0  0
 17 97  1  0  0  0
 18 19  2  0  0  0
 18 98  1  0  0  0
 19 20  1  0  0  0
 19 24  1  0  0  0
 20 21  2  0  0  0
 20 99  1  0  0  0
 21 23  1  0  0  0
 22 28  1  0  0  0
 22 32  2  0  0  0
 26 27  1  0  0  0
 28100  1  0  0  0
 28101  1  0  0  0
 29102  1  0  0  0
 29103  1  0  0  0
 33 34  1  0  0  0
 33 66  1  0  0  0
 33 70  2  0  0  0
 34 36  1  0  0  0
 34 59  1  0  0  0
 34104  1  0  0  0
 35 44  2  0  0  0
 35 45  1  0  0  0
 35 68  1  0  0  0
 36 56  1  0  0  0
 36105  1  0  0  0
 37 39  1  0  0  0
 37 47  1  0  0  0
 37 66  1  0  0  0
 37106  1  0  0  0
 38 43  2  0  0  0
 38 46  1  0  0  0
 38 47  1  0  0  0
 39 64  1  0  0  0
 39 67  2  0  0  0
 40 52  1  0  0  0
 40 53  2  0  0  0
 40 58  1  0  0  0
 41107  1  0  0  0
 41108  1  0  0  0
 41109  1  0  0  0
 41 48  1  0  0  0
 42 43  1  0  0  0
 42 66  1  0  0  0
 42110  1  0  0  0
 42111  1  0  0  0
 43 44  1  0  0  0
 44112  1  0  0  0
 45 46  2  0  0  0
 45113  1  0  0  0
 46114  1  0  0  0
 47115  1  0  0  0
 47116  1  0  0  0
 48 56  1  0  0  0
 48 65  1  0  0  0
 48117  1  0  0  0
 49 50  1  0  0  0
 49 53  1  0  0  0
 49 64  1  0  0  0
 49118  1  0  0  0
 50 51  1  0  0  0
 50119  1  0  0  0
 50120  1  0  0  0
 51 52  1  0  0  0
 51121  1  0  0  0
 51122  1  0  0  0
 52123  1  0  0  0
 52124  1  0  0  0
 53 54  1  0  0  0
 54 55  2  0  0  0
 54125  1  0  0  0
 55 57  1  0  0  0
 55126  1  0  0  0
 56 69  2  0  0  0
 57 58  2  0  0  0
 57127  1  0  0  0
 58128  1  0  0  0
 59 60  1  0  0  0
 59 61  1  0  0  0
 59 62  1  0  0  0
 60129  1  0  0  0
 60130  1  0  0  0
 60131  1  0  0  0
 61132  1  0  0  0
 61133  1  0  0  0
 61134  1  0  0  0
 62135  1  0  0  0
 62136  1  0  0  0
 62137  1  0  0  0
 63 65  1  0  0  0
 63138  1  0  0  0
 63139  1  0  0  0
 63140  1  0  0  0
 64141  1  0  0  0
 65142  1  0  0  0
 68 80  1  0  0  0
 71 72  2  0  0  0
 71 73  1  0  0  0
 71 78  1  0  0  0
 72 81  1  0  0  0
 72 77  1  0  0  0
 73 80  1  0  0  0
 73 82  2  0  0  0
 74 79  1  0  0  0
 74 81  2  0  0  0
 74 82  1  0  0  0
 75 77  1  0  0  0
 75 83  1  0  0  0
 75143  1  0  0  0
 75144  1  0  0  0
 76 77  1  0  0  0
 76 83  1  0  0  0
 76145  1  0  0  0
 76146  1  0  0  0
 77147  1  0  0  0
 78148  1  0  0  0
 78149  1  0  0  0
 78150  1  0  0  0
 79151  1  0  0  0
 79152  1  0  0  0
 79153  1  0  0  0
 80154  1  0  0  0
 80155  1  0  0  0
M  ISO  4   1 100  68 101  80 101  83 100
M  END
> <chiral flag>
0

> <version>
0

> <s_m_source_file>
/data/baiqing/PycharmProjects/Reinvent-master-3.2/result/LINK_invent/BTK/process_docking_weight1_custom_sum_contain_oxygen_bond_distance_aromatic_linkinvent_7_9_3/rearranged_h_0180.sdf

> <i_m_source_file_index>
43

> <r_mmod_Potential_Energy-OPLS-2005>
586.887268066406

> <r_mmod_Stretch_Energy-OPLS-2005>
379.649841308594

> <r_mmod_Bend_Energy-OPLS-2005>
383.587432861328

> <r_mmod_Torsional_Energy-OPLS-2005>
284.957489013672

> <r_mmod_Improper_Torsional_Energy-OPLS-2005>
16.2786598205566

> <r_mmod_Van_der_Waal_Energy-OPLS-2005>
126.232078552246

> <r_mmod_Electrostatic_Energy-OPLS-2005>
-680.9931640625

> <r_mmod_Solvation_Energy-OPLS-2005>
-240.041915893555

> <b_mmod_Minimization_Converged-OPLS-2005>
0

> <r_mmod_RMS_Derivative-OPLS-2005>
8.54477787017822

$$$$
43
                    3D
 Structure written by MMmdl.
152161  0  0  1  0            999 V2000
  -30.4923  -15.1161   20.3904 C   0  0  0  0  0  0
  -30.4329  -12.7028   19.5121 C   0  0  0  0  0  0
  -29.5236  -12.5495   18.2699 C   0  0  0  0  0  0
  -28.0660  -12.3028   18.6947 C   0  0  0  0  0  0
  -27.6154  -13.2636   19.8247 C   0  0  2  0  0  0
  -28.6527  -13.3796   20.9609 C   0  0  0  0  0  0
  -25.2419  -13.8245   20.5735 C   0  0  0  0  0  0
  -24.1752  -13.0450   20.9240 C   0  0  0  0  0  0
  -24.6385  -11.6938   20.8741 C   0  0  0  0  0  0
  -23.9082  -10.4299   21.0389 C   0  0  0  0  0  0
  -24.3638   -9.4208   21.9164 C   0  0  0  0  0  0
  -23.6309   -8.2242   22.0739 C   0  0  0  0  0  0
  -22.4282   -8.0284   21.3545 C   0  0  0  0  0  0
  -21.9928   -9.0249   20.4631 C   0  0  0  0  0  0
  -22.7261  -10.2123   20.3031 C   0  0  0  0  0  0
  -21.6852   -6.0741   22.5279 C   0  0  0  0  0  0
  -21.4011   -6.5640   23.8215 C   0  0  0  0  0  0
  -21.3657   -5.6788   24.9176 C   0  0  0  0  0  0
  -21.6044   -4.3054   24.7217 C   0  0  0  0  0  0
  -21.8825   -3.8150   23.4338 C   0  0  0  0  0  0
  -21.9196   -4.6972   22.3396 C   0  0  0  0  0  0
  -22.7776  -13.5196   21.1904 C   0  0  0  0  0  0
  -22.1666   -4.2160   21.0972 F   0  0  0  0  0  0
  -21.5629   -3.4532   25.7727 F   0  0  0  0  0  0
  -29.9053  -13.8356   20.3453 N   0  0  0  0  0  0
  -26.2825  -12.9491   20.3211 N   0  0  0  0  0  0
  -25.9316  -11.6611   20.5714 N   0  0  0  0  0  0
  -22.0445  -12.8162   22.0450 N   0  0  0  0  0  0
  -25.4140  -15.1983   20.4215 N   0  0  0  0  0  0
  -31.7070  -15.1294   20.1478 O   0  0  0  0  0  0
  -21.6647   -6.8885   21.4238 O   0  0  0  0  0  0
  -22.3444  -14.5498   20.6758 O   0  0  0  0  0  0
  -24.6534  -31.8341   23.1782 C   0  0  0  0  0  0
  -25.9260  -32.4643   23.8208 C   0  0  1  0  0  0
  -27.2152  -27.0179   20.1754 C   0  0  0  0  0  0
  -25.5967  -33.8455   24.2126 N   0  0  0  0  0  0
  -23.4638  -30.4488   21.5264 C   0  0  2  0  0  0
  -24.9140  -28.8508   20.1150 C   0  0  0  0  0  0
  -22.7625  -29.4503   22.4826 C   0  0  0  0  0  0
  -18.0329  -28.1405   22.8479 C   0  0  0  0  0  0
  -24.1497  -36.7230   23.2644 C   0  0  0  0  0  0
  -26.0279  -30.6684   21.3963 C   0  0  0  0  0  0
  -26.0961  -29.2675   20.7403 C   0  0  0  0  0  0
  -27.2449  -28.3707   20.7470 C   0  0  0  0  0  0
  -26.0036  -26.7310   19.5085 C   0  0  0  0  0  0
  -24.8872  -27.5997   19.4811 C   0  0  0  0  0  0
  -23.6971  -29.7691   20.1504 C   0  0  0  0  0  0
  -25.4135  -36.3010   24.0313 C   0  0  1  0  0  0
  -20.5942  -28.3753   23.1210 C   0  0  2  0  0  0
  -20.6809  -26.9444   22.5403 C   0  0  0  0  0  0
  -19.5785  -26.6386   21.5212 C   0  0  0  0  0  0
  -18.1968  -26.7944   22.1621 C   0  0  0  0  0  0
  -19.1581  -28.8901   23.2835 C   0  0  0  0  0  0
  -18.9490  -30.1487   23.8874 C   0  0  0  0  0  0
  -17.6483  -30.6596   24.0561 C   0  0  0  0  0  0
  -25.9094  -34.9386   23.5038 C   0  0  0  0  0  0
  -16.5377  -29.9087   23.6333 C   0  0  0  0  0  0
  -16.7311  -28.6502   23.0366 C   0  0  0  0  0  0
  -26.4537  -31.6550   25.0696 C   0  0  0  0  0  0
  -25.3676  -31.3757   26.1356 C   0  0  0  0  0  0
  -27.0428  -30.2937   24.6361 C   0  0  0  0  0  0
  -27.6061  -32.4326   25.7489 C   0  0  0  0  0  0
  -27.5586  -37.1772   24.8470 C   0  0  0  0  0  0
  -21.4310  -29.3058   22.3571 N   0  0  0  0  0  0
  -26.4297  -37.3729   23.9413 N   0  0  0  0  0  0
  -24.7357  -31.0077   22.0880 N   0  0  0  0  0  0
  -23.4204  -28.8069   23.3041 O   0  0  0  0  0  0
  -28.2458  -25.9700   20.2328 O   0  0  0  0  0  0
  -26.5693  -34.8900   22.4627 O   0  0  0  0  0  0
  -23.5622  -32.1299   23.6911 O   0  0  0  0  0  0
  -28.5724  -21.3956   20.4511 C   0  0  0  0  0  0
  -30.4448  -23.2933   20.6467 C   0  0  0  0  0  0
  -30.1508  -23.1323   19.1872 C   0  0  0  0  0  0
  -29.4195  -17.4429   19.4841 C   0  0  0  0  0  0
  -30.1823  -17.6382   21.2980 C   0  0  0  0  0  0
  -29.1219  -18.5965   20.5651 C   0  0  0  0  0  0
  -29.0198  -23.0086   20.1966 C   0  0  0  0  0  0
  -27.9672  -24.3797   20.2510 C   0  0  0  0  0  0
  -29.7506  -16.3678   20.5399 N   0  0  0  0  0  0
  -29.3835  -20.1910   20.3052 N   0  0  0  0  0  0
  -27.4111  -21.2125   20.8165 O   0  0  0  0  0  0
  -31.4611  -12.8784   19.1927 H   0  0  0  0  0  0
  -30.4581  -11.7771   20.0886 H   0  0  0  0  0  0
  -29.8763  -11.7345   17.6364 H   0  0  0  0  0  0
  -29.5775  -13.4542   17.6630 H   0  0  0  0  0  0
  -27.9983  -11.2724   19.0450 H   0  0  0  0  0  0
  -27.3981  -12.3785   17.8353 H   0  0  0  0  0  0
  -27.5496  -14.2447   19.3528 H   0  0  0  0  0  0
  -28.7839  -12.4298   21.4799 H   0  0  0  0  0  0
  -28.3213  -14.1018   21.7086 H   0  0  0  0  0  0
  -25.2785   -9.5687   22.4743 H   0  0  0  0  0  0
  -24.0025   -7.4630   22.7452 H   0  0  0  0  0  0
  -21.0869   -8.8763   19.8928 H   0  0  0  0  0  0
  -22.3726  -10.9661   19.6134 H   0  0  0  0  0  0
  -21.2002   -7.6147   23.9725 H   0  0  0  0  0  0
  -21.1473   -6.0512   25.9080 H   0  0  0  0  0  0
  -22.0609   -2.7613   23.2827 H   0  0  0  0  0  0
  -22.4093  -11.9823   22.4827 H   0  0  0  0  0  0
  -21.1042  -13.1136   22.2644 H   0  0  0  0  0  0
  -24.6581  -15.8629   20.5458 H   0  0  0  0  0  0
  -26.2843  -15.6352   20.1441 H   0  0  0  0  0  0
  -26.7328  -32.5202   23.0925 H   0  0  0  0  0  0
  -25.0078  -33.9542   25.0252 H   0  0  0  0  0  0
  -22.7721  -31.2780   21.3610 H   0  0  0  0  0  0
  -23.3784  -35.9535   23.3279 H   0  0  0  0  0  0
  -24.3583  -36.8895   22.2064 H   0  0  0  0  0  0
  -23.7219  -37.6402   23.6705 H   0  0  0  0  0  0
  -26.1975  -31.4143   20.6186 H   0  0  0  0  0  0
  -26.8927  -30.7208   22.0468 H   0  0  0  0  0  0
  -28.1422  -28.6875   21.2590 H   0  0  0  0  0  0
  -25.8820  -25.7804   19.0132 H   0  0  0  0  0  0
  -23.9879  -27.2740   18.9773 H   0  0  0  0  0  0
  -23.8462  -30.5396   19.3931 H   0  0  0  0  0  0
  -22.8085  -29.2198   19.8354 H   0  0  0  0  0  0
  -25.1320  -36.1835   25.0804 H   0  0  0  0  0  0
  -21.0027  -28.3354   24.1334 H   0  0  0  0  0  0
  -20.5712  -26.2368   23.3636 H   0  0  0  0  0  0
  -21.6672  -26.7455   22.1194 H   0  0  0  0  0  0
  -19.6950  -25.6285   21.1279 H   0  0  0  0  0  0
  -19.6714  -27.3167   20.6715 H   0  0  0  0  0  0
  -17.4236  -26.6698   21.4024 H   0  0  0  0  0  0
  -18.0366  -26.0093   22.9022 H   0  0  0  0  0  0
  -19.7962  -30.7311   24.2235 H   0  0  0  0  0  0
  -17.5033  -31.6275   24.5161 H   0  0  0  0  0  0
  -15.5373  -30.2975   23.7666 H   0  0  0  0  0  0
  -15.8718  -28.0797   22.7102 H   0  0  0  0  0  0
  -24.5890  -30.7079   25.7646 H   0  0  0  0  0  0
  -24.8813  -32.2933   26.4678 H   0  0  0  0  0  0
  -25.7906  -30.8988   27.0209 H   0  0  0  0  0  0
  -26.3072  -29.6629   24.1359 H   0  0  0  0  0  0
  -27.4005  -29.7272   25.4973 H   0  0  0  0  0  0
  -27.8996  -30.4161   23.9731 H   0  0  0  0  0  0
  -27.2675  -33.3677   26.1968 H   0  0  0  0  0  0
  -28.3922  -32.6807   25.0340 H   0  0  0  0  0  0
  -28.0686  -31.8513   26.5483 H   0  0  0  0  0  0
  -28.2583  -38.0087   24.7535 H   0  0  0  0  0  0
  -28.1103  -36.2618   24.6280 H   0  0  0  0  0  0
  -27.2306  -37.1392   25.8871 H   0  0  0  0  0  0
  -20.9553  -29.8714   21.6686 H   0  0  0  0  0  0
  -26.0168  -38.2803   24.1398 H   0  0  0  0  0  0
  -30.6553  -24.2961   21.0165 H   0  0  0  0  0  0
  -31.0017  -22.4972   21.1387 H   0  0  0  0  0  0
  -30.5016  -22.2274   18.6951 H   0  0  0  0  0  0
  -30.1536  -24.0199   18.5574 H   0  0  0  0  0  0
  -30.2539  -17.6753   18.8164 H   0  0  0  0  0  0
  -28.5401  -17.2022   18.8836 H   0  0  0  0  0  0
  -31.2233  -17.9179   21.1122 H   0  0  0  0  0  0
  -30.0142  -17.5827   22.3749 H   0  0  0  0  0  0
  -28.1344  -18.4356   21.0014 H   0  0  0  0  0  0
  -27.2835  -24.2041   19.4222 H   0  0  0  0  0  0
  -27.3532  -24.2229   21.1378 H   0  0  0  0  0  0
  -30.3265  -20.3896   19.9999 H   0  0  0  0  0  0
  1 25  1  0  0  0
  1 30  2  0  0  0
  1 79  1  0  0  0
  2  3  1  0  0  0
  2 25  1  0  0  0
  2 82  1  0  0  0
  2 83  1  0  0  0
  3  4  1  0  0  0
  3 84  1  0  0  0
  3 85  1  0  0  0
  4  5  1  0  0  0
  4 86  1  0  0  0
  4 87  1  0  0  0
  5  6  1  0  0  0
  5 26  1  0  0  0
  5 88  1  0  0  0
  6 25  1  0  0  0
  6 89  1  0  0  0
  6 90  1  0  0  0
  7  8  2  0  0  0
  7 26  1  0  0  0
  7 29  1  0  0  0
  8  9  1  0  0  0
  8 22  1  0  0  0
  9 10  1  0  0  0
  9 27  2  0  0  0
 10 11  2  0  0  0
 10 15  1  0  0  0
 11 12  1  0  0  0
 11 91  1  0  0  0
 12 13  2  0  0  0
 12 92  1  0  0  0
 13 14  1  0  0  0
 13 31  1  0  0  0
 14 15  2  0  0  0
 14 93  1  0  0  0
 15 94  1  0  0  0
 16 17  2  0  0  0
 16 21  1  0  0  0
 16 31  1  0  0  0
 17 18  1  0  0  0
 17 95  1  0  0  0
 18 19  2  0  0  0
 18 96  1  0  0  0
 19 20  1  0  0  0
 19 24  1  0  0  0
 20 21  2  0  0  0
 20 97  1  0  0  0
 21 23  1  0  0  0
 22 28  1  0  0  0
 22 32  2  0  0  0
 26 27  1  0  0  0
 28 98  1  0  0  0
 28 99  1  0  0  0
 29100  1  0  0  0
 29101  1  0  0  0
 33 34  1  0  0  0
 33 66  1  0  0  0
 33 70  2  0  0  0
 34 36  1  0  0  0
 34 59  1  0  0  0
 34102  1  0  0  0
 35 44  2  0  0  0
 35 45  1  0  0  0
 35 68  1  0  0  0
 36 56  1  0  0  0
 36103  1  0  0  0
 37 39  1  0  0  0
 37 47  1  0  0  0
 37 66  1  0  0  0
 37104  1  0  0  0
 38 43  2  0  0  0
 38 46  1  0  0  0
 38 47  1  0  0  0
 39 64  1  0  0  0
 39 67  2  0  0  0
 40 52  1  0  0  0
 40 53  2  0  0  0
 40 58  1  0  0  0
 41105  1  0  0  0
 41106  1  0  0  0
 41107  1  0  0  0
 41 48  1  0  0  0
 42 43  1  0  0  0
 42 66  1  0  0  0
 42108  1  0  0  0
 42109  1  0  0  0
 43 44  1  0  0  0
 44110  1  0  0  0
 45 46  2  0  0  0
 45111  1  0  0  0
 46112  1  0  0  0
 47113  1  0  0  0
 47114  1  0  0  0
 48 56  1  0  0  0
 48 65  1  0  0  0
 48115  1  0  0  0
 49 50  1  0  0  0
 49 53  1  0  0  0
 49 64  1  0  0  0
 49116  1  0  0  0
 50 51  1  0  0  0
 50117  1  0  0  0
 50118  1  0  0  0
 51 52  1  0  0  0
 51119  1  0  0  0
 51120  1  0  0  0
 52121  1  0  0  0
 52122  1  0  0  0
 53 54  1  0  0  0
 54 55  2  0  0  0
 54123  1  0  0  0
 55 57  1  0  0  0
 55124  1  0  0  0
 56 69  2  0  0  0
 57 58  2  0  0  0
 57125  1  0  0  0
 58126  1  0  0  0
 59 60  1  0  0  0
 59 61  1  0  0  0
 59 62  1  0  0  0
 60127  1  0  0  0
 60128  1  0  0  0
 60129  1  0  0  0
 61130  1  0  0  0
 61131  1  0  0  0
 61132  1  0  0  0
 62133  1  0  0  0
 62134  1  0  0  0
 62135  1  0  0  0
 63 65  1  0  0  0
 63136  1  0  0  0
 63137  1  0  0  0
 63138  1  0  0  0
 64139  1  0  0  0
 65140  1  0  0  0
 68 78  1  0  0  0
 71 77  1  0  0  0
 71 80  1  0  0  0
 71 81  2  0  0  0
 72 73  1  0  0  0
 72 77  1  0  0  0
 72141  1  0  0  0
 72142  1  0  0  0
 73 77  1  0  0  0
 73143  1  0  0  0
 73144  1  0  0  0
 74 76  1  0  0  0
 74 79  1  0  0  0
 74145  1  0  0  0
 74146  1  0  0  0
 75 76  1  0  0  0
 75 79  1  0  0  0
 75147  1  0  0  0
 75148  1  0  0  0
 76 80  1  0  0  0
 76149  1  0  0  0
 77 78  1  0  0  0
 78150  1  0  0  0
 78151  1  0  0  0
 80152  1  0  0  0
M  ISO  4   1 100  68 101  78 101  79 100
M  END
> <chiral flag>
0

> <version>
0

> <s_m_source_file>
/data/baiqing/PycharmProjects/Reinvent-master-3.2/result/LINK_invent/BTK/process_docking_weight1_custom_sum_contain_oxygen_bond_distance_aromatic_linkinvent_7_9_3/rearranged_h_0180.sdf

> <i_m_source_file_index>
44

> <r_mmod_Potential_Energy-OPLS-2005>
881.952087402344

> <r_mmod_Stretch_Energy-OPLS-2005>
406.163513183594

> <r_mmod_Bend_Energy-OPLS-2005>
346.721832275391

> <r_mmod_Torsional_Energy-OPLS-2005>
296.762725830078

> <r_mmod_Improper_Torsional_Energy-OPLS-2005>
10.2810831069946

> <r_mmod_Van_der_Waal_Energy-OPLS-2005>
108.415298461914

> <r_mmod_Electrostatic_Energy-OPLS-2005>
-376.506530761719

> <r_mmod_Solvation_Energy-OPLS-2005>
-230.721694946289

> <b_mmod_Minimization_Converged-OPLS-2005>
0

> <r_mmod_RMS_Derivative-OPLS-2005>
1.82463121414185

$$$$
44
                    3D
 Structure written by MMmdl.
151160  0  0  1  0            999 V2000
  -30.5920  -14.7921   20.4465 C   0  0  0  0  0  0
  -30.4370  -12.4837   19.4762 C   0  0  0  0  0  0
  -29.5128  -12.5083   18.2383 C   0  0  0  0  0  0
  -28.0405  -12.3229   18.6547 C   0  0  0  0  0  0
  -27.6391  -13.2326   19.8461 C   0  0  2  0  0  0
  -28.6848  -13.1881   20.9816 C   0  0  0  0  0  0
  -25.2503  -13.8194   20.5692 C   0  0  0  0  0  0
  -24.1801  -13.0438   20.9217 C   0  0  0  0  0  0
  -24.6392  -11.6917   20.8752 C   0  0  0  0  0  0
  -23.9069  -10.4293   21.0410 C   0  0  0  0  0  0
  -24.3620   -9.4207   21.9186 C   0  0  0  0  0  0
  -23.6295   -8.2242   22.0754 C   0  0  0  0  0  0
  -22.4277   -8.0281   21.3544 C   0  0  0  0  0  0
  -21.9914   -9.0255   20.4647 C   0  0  0  0  0  0
  -22.7242  -10.2135   20.3058 C   0  0  0  0  0  0
  -21.6854   -6.0735   22.5278 C   0  0  0  0  0  0
  -21.4013   -6.5639   23.8212 C   0  0  0  0  0  0
  -21.3659   -5.6791   24.9174 C   0  0  0  0  0  0
  -21.6044   -4.3054   24.7224 C   0  0  0  0  0  0
  -21.8819   -3.8147   23.4346 C   0  0  0  0  0  0
  -21.9192   -4.6963   22.3402 C   0  0  0  0  0  0
  -22.7822  -13.5220   21.1873 C   0  0  0  0  0  0
  -22.1662   -4.2148   21.0980 F   0  0  0  0  0  0
  -21.5629   -3.4537   25.7738 F   0  0  0  0  0  0
  -29.9797  -13.5549   20.3942 N   0  0  0  0  0  0
  -26.2925  -12.9401   20.3263 N   0  0  0  0  0  0
  -25.9321  -11.6544   20.5750 N   0  0  0  0  0  0
  -22.0465  -12.8210   22.0428 N   0  0  0  0  0  0
  -25.4178  -15.1920   20.4090 N   0  0  0  0  0  0
  -31.7889  -14.8747   20.1550 O   0  0  0  0  0  0
  -21.6640   -6.8878   21.4241 O   0  0  0  0  0  0
  -22.3505  -14.5523   20.6714 O   0  0  0  0  0  0
  -24.6352  -31.8522   23.1955 C   0  0  0  0  0  0
  -25.9161  -32.4737   23.8314 C   0  0  1  0  0  0
  -27.2182  -27.2279   20.1318 C   0  0  0  0  0  0
  -25.5940  -33.8539   24.2235 N   0  0  0  0  0  0
  -23.4332  -30.4746   21.5401 C   0  0  2  0  0  0
  -24.8798  -28.9167   20.1106 C   0  0  0  0  0  0
  -22.7521  -29.4590   22.4899 C   0  0  0  0  0  0
  -18.0294  -28.1391   22.8485 C   0  0  0  0  0  0
  -24.1487  -36.7270   23.2641 C   0  0  0  0  0  0
  -25.9825  -30.7554   21.3794 C   0  0  0  0  0  0
  -26.0546  -29.3755   20.7196 C   0  0  0  0  0  0
  -27.2268  -28.5461   20.7146 C   0  0  0  0  0  0
  -26.0159  -26.8455   19.4946 C   0  0  0  0  0  0
  -24.8679  -27.6614   19.4858 C   0  0  0  0  0  0
  -23.6527  -29.8080   20.1570 C   0  0  0  0  0  0
  -25.4117  -36.3056   24.0323 C   0  0  1  0  0  0
  -20.5902  -28.3705   23.1259 C   0  0  2  0  0  0
  -20.6781  -26.9418   22.5407 C   0  0  0  0  0  0
  -19.5754  -26.6386   21.5212 C   0  0  0  0  0  0
  -18.1936  -26.7932   22.1628 C   0  0  0  0  0  0
  -19.1550  -28.8866   23.2865 C   0  0  0  0  0  0
  -18.9470  -30.1465   23.8885 C   0  0  0  0  0  0
  -17.6468  -30.6590   24.0563 C   0  0  0  0  0  0
  -25.9064  -34.9429   23.5085 C   0  0  0  0  0  0
  -16.5359  -29.9086   23.6336 C   0  0  0  0  0  0
  -16.7280  -28.6504   23.0357 C   0  0  0  0  0  0
  -26.4514  -31.6575   25.0720 C   0  0  0  0  0  0
  -25.3724  -31.3741   26.1432 C   0  0  0  0  0  0
  -27.0366  -30.2984   24.6236 C   0  0  0  0  0  0
  -27.6059  -32.4326   25.7496 C   0  0  0  0  0  0
  -27.5575  -37.1791   24.8467 C   0  0  0  0  0  0
  -21.4224  -29.3045   22.3642 N   0  0  0  0  0  0
  -26.4287  -37.3760   23.9410 N   0  0  0  0  0  0
  -24.7031  -31.0460   22.0944 N   0  0  0  0  0  0
  -23.4203  -28.8133   23.3016 O   0  0  0  0  0  0
  -28.3037  -26.3096   20.1905 O   0  0  0  0  0  0
  -26.5640  -34.8913   22.4657 O   0  0  0  0  0  0
  -23.5494  -32.1359   23.7234 O   0  0  0  0  0  0
  -31.6735  -19.3133   20.7042 C   0  0  0  0  0  0
  -31.3861  -17.9173   20.6993 C   0  0  0  0  0  0
  -29.0284  -18.4273   20.4205 C   0  0  0  0  0  0
  -30.6409  -20.2701   20.5643 C   0  0  0  0  0  0
  -29.3260  -19.8542   20.4154 C   0  0  0  0  0  0
  -30.0639  -17.4048   20.5597 C   0  0  0  0  0  0
  -30.7378  -21.7685   20.5503 C   0  0  0  0  0  0
  -29.3862  -22.3934   20.3623 C   0  0  0  0  0  0
  -29.2416  -23.7910   20.2924 C   0  0  0  0  0  0
  -28.4319  -21.1426   20.2719 C   0  0  0  0  0  0
  -28.0465  -24.8165   20.0588 C   0  0  0  0  0  0
  -29.7887  -15.9281   20.5986 N   0  0  0  0  0  0
  -31.7968  -22.3921   20.6754 O   0  0  0  0  0  0
  -31.4755  -12.6189   19.1693 H   0  0  0  0  0  0
  -30.3959  -11.5126   19.9720 H   0  0  0  0  0  0
  -29.8035  -11.7279   17.5337 H   0  0  0  0  0  0
  -29.6288  -13.4562   17.7104 H   0  0  0  0  0  0
  -27.9084  -11.2761   18.9312 H   0  0  0  0  0  0
  -27.3803  -12.4970   17.8042 H   0  0  0  0  0  0
  -27.6256  -14.2487   19.4518 H   0  0  0  0  0  0
  -28.7329  -12.1944   21.4294 H   0  0  0  0  0  0
  -28.4124  -13.8735   21.7859 H   0  0  0  0  0  0
  -25.2766   -9.5680   22.4761 H   0  0  0  0  0  0
  -24.0003   -7.4631   22.7471 H   0  0  0  0  0  0
  -21.0845   -8.8773   19.8952 H   0  0  0  0  0  0
  -22.3699  -10.9673   19.6166 H   0  0  0  0  0  0
  -21.2005   -7.6147   23.9714 H   0  0  0  0  0  0
  -21.1481   -6.0522   25.9077 H   0  0  0  0  0  0
  -22.0599   -2.7609   23.2845 H   0  0  0  0  0  0
  -22.4086  -11.9876   22.4821 H   0  0  0  0  0  0
  -21.1080  -13.1230   22.2629 H   0  0  0  0  0  0
  -24.6440  -15.8398   20.5120 H   0  0  0  0  0  0
  -26.2525  -15.6309   20.0435 H   0  0  0  0  0  0
  -26.7225  -32.5372   23.1049 H   0  0  0  0  0  0
  -25.0071  -33.9669   25.0370 H   0  0  0  0  0  0
  -22.7319  -31.2985   21.3928 H   0  0  0  0  0  0
  -23.3754  -35.9598   23.3300 H   0  0  0  0  0  0
  -24.3574  -36.8900   22.2056 H   0  0  0  0  0  0
  -23.7238  -37.6467   23.6673 H   0  0  0  0  0  0
  -26.1273  -31.5156   20.6105 H   0  0  0  0  0  0
  -26.8578  -30.8027   22.0158 H   0  0  0  0  0  0
  -28.1258  -28.8936   21.2046 H   0  0  0  0  0  0
  -25.9272  -25.8866   19.0080 H   0  0  0  0  0  0
  -23.9684  -27.3048   19.0026 H   0  0  0  0  0  0
  -23.7809  -30.5842   19.4016 H   0  0  0  0  0  0
  -22.7696  -29.2446   19.8503 H   0  0  0  0  0  0
  -25.1302  -36.1894   25.0816 H   0  0  0  0  0  0
  -20.9998  -28.3284   24.1378 H   0  0  0  0  0  0
  -20.5681  -26.2314   23.3615 H   0  0  0  0  0  0
  -21.6648  -26.7437   22.1200 H   0  0  0  0  0  0
  -19.6913  -25.6296   21.1246 H   0  0  0  0  0  0
  -19.6689  -27.3195   20.6739 H   0  0  0  0  0  0
  -17.4206  -26.6677   21.4031 H   0  0  0  0  0  0
  -18.0338  -26.0078   22.9028 H   0  0  0  0  0  0
  -19.7944  -30.7286   24.2249 H   0  0  0  0  0  0
  -17.5022  -31.6268   24.5167 H   0  0  0  0  0  0
  -15.5359  -30.2984   23.7668 H   0  0  0  0  0  0
  -15.8681  -28.0820   22.7080 H   0  0  0  0  0  0
  -24.5895  -30.7097   25.7758 H   0  0  0  0  0  0
  -24.8923  -32.2918   26.4840 H   0  0  0  0  0  0
  -25.8029  -30.8925   27.0221 H   0  0  0  0  0  0
  -26.2959  -29.6720   24.1250 H   0  0  0  0  0  0
  -27.4020  -29.7263   25.4774 H   0  0  0  0  0  0
  -27.8849  -30.4246   23.9505 H   0  0  0  0  0  0
  -27.2664  -33.3641   26.2039 H   0  0  0  0  0  0
  -28.3887  -32.6863   25.0335 H   0  0  0  0  0  0
  -28.0706  -31.8472   26.5441 H   0  0  0  0  0  0
  -28.2594  -38.0087   24.7513 H   0  0  0  0  0  0
  -28.1069  -36.2617   24.6296 H   0  0  0  0  0  0
  -27.2292  -37.1443   25.8871 H   0  0  0  0  0  0
  -20.9418  -29.8760   21.6834 H   0  0  0  0  0  0
  -26.0159  -38.2830   24.1417 H   0  0  0  0  0  0
  -32.6951  -19.6478   20.8209 H   0  0  0  0  0  0
  -32.2178  -17.2392   20.8228 H   0  0  0  0  0  0
  -27.9981  -18.1177   20.3146 H   0  0  0  0  0  0
  -30.1681  -24.3399   20.3832 H   0  0  0  0  0  0
  -27.6884  -21.1784   21.0685 H   0  0  0  0  0  0
  -27.9106  -21.1359   19.3144 H   0  0  0  0  0  0
  -27.2307  -24.5332   20.7254 H   0  0  0  0  0  0
  -27.7003  -24.6237   19.0434 H   0  0  0  0  0  0
  -28.8156  -15.6926   20.7164 H   0  0  0  0  0  0
  1 25  1  0  0  0
  1 30  2  0  0  0
  1 82  1  0  0  0
  2  3  1  0  0  0
  2 25  1  0  0  0
  2 84  1  0  0  0
  2 85  1  0  0  0
  3  4  1  0  0  0
  3 86  1  0  0  0
  3 87  1  0  0  0
  4  5  1  0  0  0
  4 88  1  0  0  0
  4 89  1  0  0  0
  5  6  1  0  0  0
  5 26  1  0  0  0
  5 90  1  0  0  0
  6 25  1  0  0  0
  6 91  1  0  0  0
  6 92  1  0  0  0
  7  8  2  0  0  0
  7 26  1  0  0  0
  7 29  1  0  0  0
  8  9  1  0  0  0
  8 22  1  0  0  0
  9 10  1  0  0  0
  9 27  2  0  0  0
 10 11  2  0  0  0
 10 15  1  0  0  0
 11 12  1  0  0  0
 11 93  1  0  0  0
 12 13  2  0  0  0
 12 94  1  0  0  0
 13 14  1  0  0  0
 13 31  1  0  0  0
 14 15  2  0  0  0
 14 95  1  0  0  0
 15 96  1  0  0  0
 16 17  2  0  0  0
 16 21  1  0  0  0
 16 31  1  0  0  0
 17 18  1  0  0  0
 17 97  1  0  0  0
 18 19  2  0  0  0
 18 98  1  0  0  0
 19 20  1  0  0  0
 19 24  1  0  0  0
 20 21  2  0  0  0
 20 99  1  0  0  0
 21 23  1  0  0  0
 22 28  1  0  0  0
 22 32  2  0  0  0
 26 27  1  0  0  0
 28100  1  0  0  0
 28101  1  0  0  0
 29102  1  0  0  0
 29103  1  0  0  0
 33 34  1  0  0  0
 33 66  1  0  0  0
 33 70  2  0  0  0
 34 36  1  0  0  0
 34 59  1  0  0  0
 34104  1  0  0  0
 35 44  2  0  0  0
 35 45  1  0  0  0
 35 68  1  0  0  0
 36 56  1  0  0  0
 36105  1  0  0  0
 37 39  1  0  0  0
 37 47  1  0  0  0
 37 66  1  0  0  0
 37106  1  0  0  0
 38 43  2  0  0  0
 38 46  1  0  0  0
 38 47  1  0  0  0
 39 64  1  0  0  0
 39 67  2  0  0  0
 40 52  1  0  0  0
 40 53  2  0  0  0
 40 58  1  0  0  0
 41107  1  0  0  0
 41108  1  0  0  0
 41109  1  0  0  0
 41 48  1  0  0  0
 42 43  1  0  0  0
 42 66  1  0  0  0
 42110  1  0  0  0
 42111  1  0  0  0
 43 44  1  0  0  0
 44112  1  0  0  0
 45 46  2  0  0  0
 45113  1  0  0  0
 46114  1  0  0  0
 47115  1  0  0  0
 47116  1  0  0  0
 48 56  1  0  0  0
 48 65  1  0  0  0
 48117  1  0  0  0
 49 50  1  0  0  0
 49 53  1  0  0  0
 49 64  1  0  0  0
 49118  1  0  0  0
 50 51  1  0  0  0
 50119  1  0  0  0
 50120  1  0  0  0
 51 52  1  0  0  0
 51121  1  0  0  0
 51122  1  0  0  0
 52123  1  0  0  0
 52124  1  0  0  0
 53 54  1  0  0  0
 54 55  2  0  0  0
 54125  1  0  0  0
 55 57  1  0  0  0
 55126  1  0  0  0
 56 69  2  0  0  0
 57 58  2  0  0  0
 57127  1  0  0  0
 58128  1  0  0  0
 59 60  1  0  0  0
 59 61  1  0  0  0
 59 62  1  0  0  0
 60129  1  0  0  0
 60130  1  0  0  0
 60131  1  0  0  0
 61132  1  0  0  0
 61133  1  0  0  0
 61134  1  0  0  0
 62135  1  0  0  0
 62136  1  0  0  0
 62137  1  0  0  0
 63 65  1  0  0  0
 63138  1  0  0  0
 63139  1  0  0  0
 63140  1  0  0  0
 64141  1  0  0  0
 65142  1  0  0  0
 68 81  1  0  0  0
 71 72  2  0  0  0
 71 74  1  0  0  0
 71143  1  0  0  0
 72 76  1  0  0  0
 72144  1  0  0  0
 73 75  1  0  0  0
 73 76  2  0  0  0
 73145  1  0  0  0
 74 75  2  0  0  0
 74 77  1  0  0  0
 75 80  1  0  0  0
 76 82  1  0  0  0
 77 78  1  0  0  0
 77 83  2  0  0  0
 78 79  2  0  0  0
 78 80  1  0  0  0
 79 81  1  0  0  0
 79146  1  0  0  0
 80147  1  0  0  0
 80148  1  0  0  0
 81149  1  0  0  0
 81150  1  0  0  0
 82151  1  0  0  0
M  ISO  4   1 100  68 101  81 101  82 100
M  END
> <chiral flag>
0

> <version>
0

> <s_m_source_file>
/data/baiqing/PycharmProjects/Reinvent-master-3.2/result/LINK_invent/BTK/process_docking_weight1_custom_sum_contain_oxygen_bond_distance_aromatic_linkinvent_7_9_3/rearranged_h_0180.sdf

> <i_m_source_file_index>
45

> <r_mmod_Potential_Energy-OPLS-2005>
253.258804321289

> <r_mmod_Stretch_Energy-OPLS-2005>
137.957397460938

> <r_mmod_Bend_Energy-OPLS-2005>
222.179748535156

> <r_mmod_Torsional_Energy-OPLS-2005>
207.928146362305

> <r_mmod_Improper_Torsional_Energy-OPLS-2005>
5.31223011016846

> <r_mmod_Van_der_Waal_Energy-OPLS-2005>
135.869598388672

> <r_mmod_Electrostatic_Energy-OPLS-2005>
-342.996948242188

> <r_mmod_Solvation_Energy-OPLS-2005>
-220.013854980469

> <b_mmod_Minimization_Converged-OPLS-2005>
0

> <r_mmod_RMS_Derivative-OPLS-2005>
0.339850604534149

$$$$
45
                    3D
 Structure written by MMmdl.
162170  0  0  1  0            999 V2000
  -30.4010  -15.3167   20.3073 C   0  0  0  0  0  0
  -30.4453  -12.8364   19.5258 C   0  0  0  0  0  0
  -29.5399  -12.5322   18.3040 C   0  0  0  0  0  0
  -28.0947  -12.2392   18.7515 C   0  0  0  0  0  0
  -27.6031  -13.2254   19.8379 C   0  0  2  0  0  0
  -28.6425  -13.4811   20.9526 C   0  0  0  0  0  0
  -25.2415  -13.8112   20.5957 C   0  0  0  0  0  0
  -24.1682  -13.0371   20.9317 C   0  0  0  0  0  0
  -24.6273  -11.6845   20.8832 C   0  0  0  0  0  0
  -23.8990  -10.4221   21.0439 C   0  0  0  0  0  0
  -24.3567   -9.4130   21.9183 C   0  0  0  0  0  0
  -23.6240   -8.2175   22.0716 C   0  0  0  0  0  0
  -22.4228   -8.0213   21.3510 C   0  0  0  0  0  0
  -21.9872   -9.0189   20.4615 C   0  0  0  0  0  0
  -22.7204  -10.2059   20.3048 C   0  0  0  0  0  0
  -21.6825   -6.0681   22.5272 C   0  0  0  0  0  0
  -21.4001   -6.5585   23.8205 C   0  0  0  0  0  0
  -21.3677   -5.6748   24.9175 C   0  0  0  0  0  0
  -21.6059   -4.3004   24.7250 C   0  0  0  0  0  0
  -21.8824   -3.8090   23.4368 C   0  0  0  0  0  0
  -21.9168   -4.6904   22.3414 C   0  0  0  0  0  0
  -22.7713  -13.5158   21.1953 C   0  0  0  0  0  0
  -22.1633   -4.2086   21.0999 F   0  0  0  0  0  0
  -21.5649   -3.4494   25.7765 F   0  0  0  0  0  0
  -29.8649  -13.9921   20.2994 N   0  0  0  0  0  0
  -26.2772  -12.9265   20.3439 N   0  0  0  0  0  0
  -25.9193  -11.6429   20.5837 N   0  0  0  0  0  0
  -22.0344  -12.8141   22.0488 N   0  0  0  0  0  0
  -25.4178  -15.1878   20.4622 N   0  0  0  0  0  0
  -31.6410  -15.3268   20.2439 O   0  0  0  0  0  0
  -21.6594   -6.8809   21.4224 O   0  0  0  0  0  0
  -22.3437  -14.5483   20.6777 O   0  0  0  0  0  0
  -24.6569  -31.8266   23.1700 C   0  0  0  0  0  0
  -25.9273  -32.4617   23.8128 C   0  0  1  0  0  0
  -27.2273  -26.9528   20.2026 C   0  0  0  0  0  0
  -25.5965  -33.8427   24.2051 N   0  0  0  0  0  0
  -23.4681  -30.4366   21.5214 C   0  0  2  0  0  0
  -24.9212  -28.8220   20.1144 C   0  0  0  0  0  0
  -22.7628  -29.4463   22.4831 C   0  0  0  0  0  0
  -18.0316  -28.1402   22.8487 C   0  0  0  0  0  0
  -24.1502  -36.7237   23.2646 C   0  0  0  0  0  0
  -26.0315  -30.6430   21.3911 C   0  0  0  0  0  0
  -26.1024  -29.2326   20.7450 C   0  0  0  0  0  0
  -27.2441  -28.3191   20.7660 C   0  0  0  0  0  0
  -26.0172  -26.6858   19.5160 C   0  0  0  0  0  0
  -24.9033  -27.5677   19.4793 C   0  0  0  0  0  0
  -23.7014  -29.7436   20.1499 C   0  0  0  0  0  0
  -25.4135  -36.2983   24.0294 C   0  0  1  0  0  0
  -20.5932  -28.3742   23.1225 C   0  0  2  0  0  0
  -20.6813  -26.9439   22.5414 C   0  0  0  0  0  0
  -19.5776  -26.6377   21.5239 C   0  0  0  0  0  0
  -18.1949  -26.7938   22.1631 C   0  0  0  0  0  0
  -19.1577  -28.8885   23.2837 C   0  0  0  0  0  0
  -18.9500  -30.1483   23.8852 C   0  0  0  0  0  0
  -17.6496  -30.6598   24.0559 C   0  0  0  0  0  0
  -25.9092  -34.9372   23.4988 C   0  0  0  0  0  0
  -16.5380  -29.9087   23.6358 C   0  0  0  0  0  0
  -16.7296  -28.6505   23.0373 C   0  0  0  0  0  0
  -26.4540  -31.6546   25.0634 C   0  0  0  0  0  0
  -25.3676  -31.3839   26.1310 C   0  0  0  0  0  0
  -27.0431  -30.2921   24.6322 C   0  0  0  0  0  0
  -27.6027  -32.4345   25.7436 C   0  0  0  0  0  0
  -27.5568  -37.1764   24.8460 C   0  0  0  0  0  0
  -21.4302  -29.3043   22.3572 N   0  0  0  0  0  0
  -26.4283  -37.3713   23.9404 N   0  0  0  0  0  0
  -24.7408  -30.9953   22.0829 N   0  0  0  0  0  0
  -23.4198  -28.8067   23.3083 O   0  0  0  0  0  0
  -28.2555  -25.8814   20.3172 O   0  0  0  0  0  0
  -26.5699  -34.8905   22.4586 O   0  0  0  0  0  0
  -23.5656  -32.1226   23.6830 O   0  0  0  0  0  0
  -29.8001  -18.4137   18.4381 C   0  0  0  0  0  0
  -28.7499  -16.2721   18.8656 C   0  0  0  0  0  0
  -28.8173  -17.4307   17.8497 C   0  0  2  0  0  0
  -29.4480  -18.2352   19.9076 C   0  0  2  0  0  0
  -29.2606  -19.5890   22.1950 C   0  0  0  0  0  0
  -27.9549  -17.0473   15.5566 C   0  0  0  0  0  0
  -29.0437  -22.8110   20.6184 C   0  0  0  0  0  0
  -28.0901  -24.2537   20.1183 C   0  0  0  0  0  0
  -29.6072  -19.8078   20.7164 C   0  0  2  0  0  0
  -29.5673  -16.5511   20.0893 N   0  0  0  0  0  0
  -29.1117  -16.9947   16.4721 N   0  3  0  0  0  0
  -28.8905  -21.2152   20.1616 N   0  3  0  0  0  0
  -31.4588  -13.0600   19.1883 H   0  0  0  0  0  0
  -30.5361  -11.9609   20.1668 H   0  0  0  0  0  0
  -29.9353  -11.6795   17.7484 H   0  0  0  0  0  0
  -29.5520  -13.3729   17.6113 H   0  0  0  0  0  0
  -28.0793  -11.2287   19.1631 H   0  0  0  0  0  0
  -27.4212  -12.2331   17.8943 H   0  0  0  0  0  0
  -27.4571  -14.1413   19.2929 H   0  0  0  0  0  0
  -28.8350  -12.5851   21.5457 H   0  0  0  0  0  0
  -28.2655  -14.2349   21.6486 H   0  0  0  0  0  0
  -25.2711   -9.5571   22.4763 H   0  0  0  0  0  0
  -23.9929   -7.4535   22.7409 H   0  0  0  0  0  0
  -21.0806   -8.8726   19.8898 H   0  0  0  0  0  0
  -22.3691  -10.9602   19.6148 H   0  0  0  0  0  0
  -21.1990   -7.6089   23.9712 H   0  0  0  0  0  0
  -21.1505   -6.0459   25.9078 H   0  0  0  0  0  0
  -22.0595   -2.7545   23.2898 H   0  0  0  0  0  0
  -22.3944  -11.9832   22.4962 H   0  0  0  0  0  0
  -21.0926  -13.1096   22.2668 H   0  0  0  0  0  0
  -24.6733  -15.8388   20.6902 H   0  0  0  0  0  0
  -26.3139  -15.6351   20.3375 H   0  0  0  0  0  0
  -26.7320  -32.5160   23.0816 H   0  0  0  0  0  0
  -25.0090  -33.9501   25.0186 H   0  0  0  0  0  0
  -22.7786  -31.2671   21.3552 H   0  0  0  0  0  0
  -23.3755  -35.9578   23.3285 H   0  0  0  0  0  0
  -24.3593  -36.8903   22.2067 H   0  0  0  0  0  0
  -23.7271  -37.6430   23.6712 H   0  0  0  0  0  0
  -26.1904  -31.3769   20.6007 H   0  0  0  0  0  0
  -26.9009  -30.7127   22.0342 H   0  0  0  0  0  0
  -28.1304  -28.6323   21.2993 H   0  0  0  0  0  0
  -25.8951  -25.7257   19.0342 H   0  0  0  0  0  0
  -24.0038  -27.2466   18.9710 H   0  0  0  0  0  0
  -23.8387  -30.5076   19.3836 H   0  0  0  0  0  0
  -22.8093  -29.1889   19.8512 H   0  0  0  0  0  0
  -25.1337  -36.1775   25.0785 H   0  0  0  0  0  0
  -21.0011  -28.3348   24.1348 H   0  0  0  0  0  0
  -20.5750  -26.2357   23.3647 H   0  0  0  0  0  0
  -21.6678  -26.7458   22.1191 H   0  0  0  0  0  0
  -19.6960  -25.6287   21.1275 H   0  0  0  0  0  0
  -19.6717  -27.3189   20.6775 H   0  0  0  0  0  0
  -17.4242  -26.6698   21.4007 H   0  0  0  0  0  0
  -18.0319  -26.0073   22.9015 H   0  0  0  0  0  0
  -19.7980  -30.7316   24.2181 H   0  0  0  0  0  0
  -17.5057  -31.6281   24.5171 H   0  0  0  0  0  0
  -15.5379  -30.2981   23.7721 H   0  0  0  0  0  0
  -15.8693  -28.0817   22.7110 H   0  0  0  0  0  0
  -24.5770  -30.7301   25.7624 H   0  0  0  0  0  0
  -24.8977  -32.3090   26.4659 H   0  0  0  0  0  0
  -25.7878  -30.9008   27.0134 H   0  0  0  0  0  0
  -26.3096  -29.6605   24.1304 H   0  0  0  0  0  0
  -27.3991  -29.7274   25.4946 H   0  0  0  0  0  0
  -27.9010  -30.4149   23.9707 H   0  0  0  0  0  0
  -27.2571  -33.3653   26.1944 H   0  0  0  0  0  0
  -28.3870  -32.6897   25.0299 H   0  0  0  0  0  0
  -28.0655  -31.8516   26.5410 H   0  0  0  0  0  0
  -28.2580  -38.0066   24.7490 H   0  0  0  0  0  0
  -28.1054  -36.2583   24.6291 H   0  0  0  0  0  0
  -27.2277  -37.1426   25.8862 H   0  0  0  0  0  0
  -20.9543  -29.8667   21.6658 H   0  0  0  0  0  0
  -26.0126  -38.2772   24.1409 H   0  0  0  0  0  0
  -29.6543  -19.4267   18.0588 H   0  0  0  0  0  0
  -30.8369  -18.1219   18.2659 H   0  0  0  0  0  0
  -28.9962  -15.3601   18.3275 H   0  0  0  0  0  0
  -27.7122  -16.1990   19.1865 H   0  0  0  0  0  0
  -27.8438  -17.9304   17.8293 H   0  0  0  0  0  0
  -28.3607  -18.2960   20.0052 H   0  0  0  0  0  0
  -29.4094  -20.4875   22.7923 H   0  0  0  0  0  0
  -29.9073  -18.8188   22.6182 H   0  0  0  0  0  0
  -28.2263  -19.2660   22.3227 H   0  0  0  0  0  0
  -28.2610  -16.6920   14.5746 H   0  0  0  0  0  0
  -27.5908  -18.0713   15.4564 H   0  0  0  0  0  0
  -27.1237  -16.4272   15.8969 H   0  0  0  0  0  0
  -29.0115  -22.8009   21.7076 H   0  0  0  0  0  0
  -30.0812  -23.0533   20.3927 H   0  0  0  0  0  0
  -27.0799  -24.0510   20.4779 H   0  0  0  0  0  0
  -28.0040  -24.1527   19.0373 H   0  0  0  0  0  0
  -30.6746  -20.0334   20.7008 H   0  0  0  0  0  0
  -29.4759  -16.0562   16.4914 H   0  0  0  0  0  0
  -29.8264  -17.5929   16.0929 H   0  0  0  0  0  0
  -29.1268  -21.2407   19.1833 H   0  0  0  0  0  0
  -27.8997  -21.0289   20.1881 H   0  0  0  0  0  0
  1 25  1  0  0  0
  1 30  2  0  0  0
  1 80  1  0  0  0
  2  3  1  0  0  0
  2 25  1  0  0  0
  2 83  1  0  0  0
  2 84  1  0  0  0
  3  4  1  0  0  0
  3 85  1  0  0  0
  3 86  1  0  0  0
  4  5  1  0  0  0
  4 87  1  0  0  0
  4 88  1  0  0  0
  5  6  1  0  0  0
  5 26  1  0  0  0
  5 89  1  0  0  0
  6 25  1  0  0  0
  6 90  1  0  0  0
  6 91  1  0  0  0
  7  8  2  0  0  0
  7 26  1  0  0  0
  7 29  1  0  0  0
  8  9  1  0  0  0
  8 22  1  0  0  0
  9 10  1  0  0  0
  9 27  2  0  0  0
 10 11  2  0  0  0
 10 15  1  0  0  0
 11 12  1  0  0  0
 11 92  1  0  0  0
 12 13  2  0  0  0
 12 93  1  0  0  0
 13 14  1  0  0  0
 13 31  1  0  0  0
 14 15  2  0  0  0
 14 94  1  0  0  0
 15 95  1  0  0  0
 16 17  2  0  0  0
 16 21  1  0  0  0
 16 31  1  0  0  0
 17 18  1  0  0  0
 17 96  1  0  0  0
 18 19  2  0  0  0
 18 97  1  0  0  0
 19 20  1  0  0  0
 19 24  1  0  0  0
 20 21  2  0  0  0
 20 98  1  0  0  0
 21 23  1  0  0  0
 22 28  1  0  0  0
 22 32  2  0  0  0
 26 27  1  0  0  0
 28 99  1  0  0  0
 28100  1  0  0  0
 29101  1  0  0  0
 29102  1  0  0  0
 33 34  1  0  0  0
 33 66  1  0  0  0
 33 70  2  0  0  0
 34 36  1  0  0  0
 34 59  1  0  0  0
 34103  1  0  0  0
 35 44  2  0  0  0
 35 45  1  0  0  0
 35 68  1  0  0  0
 36 56  1  0  0  0
 36104  1  0  0  0
 37 39  1  0  0  0
 37 47  1  0  0  0
 37 66  1  0  0  0
 37105  1  0  0  0
 38 43  2  0  0  0
 38 46  1  0  0  0
 38 47  1  0  0  0
 39 64  1  0  0  0
 39 67  2  0  0  0
 40 52  1  0  0  0
 40 53  2  0  0  0
 40 58  1  0  0  0
 41106  1  0  0  0
 41107  1  0  0  0
 41108  1  0  0  0
 41 48  1  0  0  0
 42 43  1  0  0  0
 42 66  1  0  0  0
 42109  1  0  0  0
 42110  1  0  0  0
 43 44  1  0  0  0
 44111  1  0  0  0
 45 46  2  0  0  0
 45112  1  0  0  0
 46113  1  0  0  0
 47114  1  0  0  0
 47115  1  0  0  0
 48 56  1  0  0  0
 48 65  1  0  0  0
 48116  1  0  0  0
 49 50  1  0  0  0
 49 53  1  0  0  0
 49 64  1  0  0  0
 49117  1  0  0  0
 50 51  1  0  0  0
 50118  1  0  0  0
 50119  1  0  0  0
 51 52  1  0  0  0
 51120  1  0  0  0
 51121  1  0  0  0
 52122  1  0  0  0
 52123  1  0  0  0
 53 54  1  0  0  0
 54 55  2  0  0  0
 54124  1  0  0  0
 55 57  1  0  0  0
 55125  1  0  0  0
 56 69  2  0  0  0
 57 58  2  0  0  0
 57126  1  0  0  0
 58127  1  0  0  0
 59 60  1  0  0  0
 59 61  1  0  0  0
 59 62  1  0  0  0
 60128  1  0  0  0
 60129  1  0  0  0
 60130  1  0  0  0
 61131  1  0  0  0
 61132  1  0  0  0
 61133  1  0  0  0
 62134  1  0  0  0
 62135  1  0  0  0
 62136  1  0  0  0
 63 65  1  0  0  0
 63137  1  0  0  0
 63138  1  0  0  0
 63139  1  0  0  0
 64140  1  0  0  0
 65141  1  0  0  0
 68 78  1  0  0  0
 71 73  1  0  0  0
 71142  1  0  0  0
 71143  1  0  0  0
 71 74  1  0  0  0
 72 73  1  0  0  0
 72 80  1  0  0  0
 72144  1  0  0  0
 72145  1  0  0  0
 73 81  1  0  0  0
 73146  1  0  0  0
 74 79  1  0  0  0
 74 80  1  0  0  0
 74147  1  0  0  0
 75148  1  0  0  0
 75149  1  0  0  0
 75150  1  0  0  0
 75 79  1  0  0  0
 76 81  1  0  0  0
 76151  1  0  0  0
 76152  1  0  0  0
 76153  1  0  0  0
 77 78  1  0  0  0
 77 82  1  0  0  0
 77154  1  0  0  0
 77155  1  0  0  0
 78156  1  0  0  0
 78157  1  0  0  0
 79 82  1  0  0  0
 79158  1  0  0  0
 81159  1  0  0  0
 81160  1  0  0  0
 82161  1  0  0  0
 82162  1  0  0  0
M  CHG  2  81   1  82   1
M  ISO  4   1 100  68 101  78 101  80 100
M  END
> <chiral flag>
0

> <version>
0

> <s_m_source_file>
/data/baiqing/PycharmProjects/Reinvent-master-3.2/result/LINK_invent/BTK/process_docking_weight1_custom_sum_contain_oxygen_bond_distance_aromatic_linkinvent_7_9_3/rearranged_h_0180.sdf

> <i_m_source_file_index>
46

> <r_mmod_Potential_Energy-OPLS-2005>
1356.1884765625

> <r_mmod_Stretch_Energy-OPLS-2005>
607.801818847656

> <r_mmod_Bend_Energy-OPLS-2005>
601.555908203125

> <r_mmod_Torsional_Energy-OPLS-2005>
380.697082519531

> <r_mmod_Improper_Torsional_Energy-OPLS-2005>
12.7668571472168

> <r_mmod_Van_der_Waal_Energy-OPLS-2005>
122.930732727051

> <r_mmod_Electrostatic_Energy-OPLS-2005>
111.502967834473

> <r_mmod_Solvation_Energy-OPLS-2005>
-965.133483886719

> <b_mmod_Minimization_Converged-OPLS-2005>
0

> <r_mmod_RMS_Derivative-OPLS-2005>
4.77758169174194

$$$$
46
                    3D
 Structure written by MMmdl.
155164  0  0  1  0            999 V2000
  -30.3932  -15.3870   20.3482 C   0  0  0  0  0  0
  -30.4353  -12.8916   19.5387 C   0  0  0  0  0  0
  -29.5425  -12.5988   18.3029 C   0  0  0  0  0  0
  -28.0944  -12.3021   18.7292 C   0  0  0  0  0  0
  -27.6064  -13.2888   19.8182 C   0  0  2  0  0  0
  -28.6347  -13.5139   20.9502 C   0  0  0  0  0  0
  -25.2367  -13.8271   20.5771 C   0  0  0  0  0  0
  -24.1732  -13.0443   20.9275 C   0  0  0  0  0  0
  -24.6411  -11.6942   20.8768 C   0  0  0  0  0  0
  -23.9109  -10.4296   21.0402 C   0  0  0  0  0  0
  -24.3645   -9.4205   21.9181 C   0  0  0  0  0  0
  -23.6316   -8.2242   22.0748 C   0  0  0  0  0  0
  -22.4296   -8.0284   21.3539 C   0  0  0  0  0  0
  -21.9934   -9.0260   20.4643 C   0  0  0  0  0  0
  -22.7277  -10.2139   20.3054 C   0  0  0  0  0  0
  -21.6858   -6.0745   22.5284 C   0  0  0  0  0  0
  -21.4020   -6.5647   23.8219 C   0  0  0  0  0  0
  -21.3656   -5.6795   24.9178 C   0  0  0  0  0  0
  -21.6036   -4.3061   24.7224 C   0  0  0  0  0  0
  -21.8816   -3.8153   23.4348 C   0  0  0  0  0  0
  -21.9194   -4.6969   22.3405 C   0  0  0  0  0  0
  -22.7742  -13.5178   21.1905 C   0  0  0  0  0  0
  -22.1660   -4.2156   21.0983 F   0  0  0  0  0  0
  -21.5621   -3.4543   25.7739 F   0  0  0  0  0  0
  -29.8534  -14.0549   20.3215 N   0  0  0  0  0  0
  -26.2802  -12.9576   20.3213 N   0  0  0  0  0  0
  -25.9349  -11.6668   20.5715 N   0  0  0  0  0  0
  -22.0407  -12.8165   22.0467 N   0  0  0  0  0  0
  -25.3988  -15.2009   20.4205 N   0  0  0  0  0  0
  -31.6114  -15.3809   20.1156 O   0  0  0  0  0  0
  -21.6644   -6.8892   21.4249 O   0  0  0  0  0  0
  -22.3422  -14.5471   20.6734 O   0  0  0  0  0  0
  -24.6700  -31.8147   23.1629 C   0  0  0  0  0  0
  -25.9352  -32.4538   23.8115 C   0  0  1  0  0  0
  -27.2233  -26.8493   20.1964 C   0  0  0  0  0  0
  -25.5992  -33.8357   24.2016 N   0  0  0  0  0  0
  -23.4890  -30.4231   21.5131 C   0  0  2  0  0  0
  -24.9449  -28.7937   20.1129 C   0  0  0  0  0  0
  -22.7703  -29.4393   22.4746 C   0  0  0  0  0  0
  -18.0327  -28.1412   22.8462 C   0  0  0  0  0  0
  -24.1500  -36.7186   23.2650 C   0  0  0  0  0  0
  -26.0623  -30.5954   21.4065 C   0  0  0  0  0  0
  -26.1304  -29.1771   20.7521 C   0  0  0  0  0  0
  -27.2605  -28.2285   20.7669 C   0  0  0  0  0  0
  -26.0080  -26.6387   19.5040 C   0  0  0  0  0  0
  -24.9138  -27.5466   19.4675 C   0  0  0  0  0  0
  -23.7349  -29.7311   20.1426 C   0  0  0  0  0  0
  -25.4144  -36.2937   24.0288 C   0  0  1  0  0  0
  -20.5954  -28.3761   23.1165 C   0  0  2  0  0  0
  -20.6807  -26.9434   22.5403 C   0  0  0  0  0  0
  -19.5782  -26.6380   21.5216 C   0  0  0  0  0  0
  -18.1962  -26.7947   22.1621 C   0  0  0  0  0  0
  -19.1590  -28.8909   23.2805 C   0  0  0  0  0  0
  -18.9503  -30.1498   23.8838 C   0  0  0  0  0  0
  -17.6494  -30.6602   24.0552 C   0  0  0  0  0  0
  -25.9107  -34.9321   23.4980 C   0  0  0  0  0  0
  -16.5382  -29.9087   23.6345 C   0  0  0  0  0  0
  -16.7311  -28.6509   23.0363 C   0  0  0  0  0  0
  -26.4574  -31.6516   25.0678 C   0  0  0  0  0  0
  -25.3672  -31.3799   26.1311 C   0  0  0  0  0  0
  -27.0490  -30.2872   24.6485 C   0  0  0  0  0  0
  -27.6046  -32.4345   25.7487 C   0  0  0  0  0  0
  -27.5570  -37.1749   24.8462 C   0  0  0  0  0  0
  -21.4361  -29.3043   22.3507 N   0  0  0  0  0  0
  -26.4278  -37.3687   23.9403 N   0  0  0  0  0  0
  -24.7624  -30.9735   22.0805 N   0  0  0  0  0  0
  -23.4214  -28.7981   23.3032 O   0  0  0  0  0  0
  -28.2050  -25.6994   20.2862 O   0  0  0  0  0  0
  -26.5735  -34.8873   22.4584 O   0  0  0  0  0  0
  -23.5756  -32.1151   23.6679 O   0  0  0  0  0  0
  -30.3498  -20.7827   20.9592 C   0  0  0  0  0  0
  -30.9631  -21.9566   21.3248 C   0  0  0  0  0  0
  -29.0063  -22.6819   20.4475 C   0  0  0  0  0  0
  -30.7186  -19.2537   21.0448 C   0  0  2  0  0  0
  -29.7556  -18.3663   20.1701 C   0  0  1  0  0  0
  -28.5863  -19.6767   20.0225 C   0  0  1  0  0  0
  -32.2959  -22.1378   21.9807 C   0  0  0  0  0  0
  -27.3393  -19.3613   20.8587 C   0  0  0  0  0  0
  -27.9313  -24.0452   20.0785 C   0  0  0  0  0  0
  -30.1635  -23.0688   21.0082 N   0  0  0  0  0  0
  -29.1324  -21.1559   20.3905 N   0  0  0  0  0  0
  -29.6213  -16.6789   20.4450 N   0  0  0  0  0  0
  -30.6207  -18.7551   22.3624 O   0  0  0  0  0  0
  -31.4494  -13.1087   19.2002 H   0  0  0  0  0  0
  -30.5279  -12.0058   20.1693 H   0  0  0  0  0  0
  -29.9454  -11.7642   17.7276 H   0  0  0  0  0  0
  -29.5539  -13.4625   17.6374 H   0  0  0  0  0  0
  -28.0636  -11.2831   19.1171 H   0  0  0  0  0  0
  -27.4299  -12.3201   17.8648 H   0  0  0  0  0  0
  -27.5036  -14.2420   19.2969 H   0  0  0  0  0  0
  -28.8287  -12.5964   21.5068 H   0  0  0  0  0  0
  -28.2519  -14.2397   21.6696 H   0  0  0  0  0  0
  -25.2785   -9.5679   22.4762 H   0  0  0  0  0  0
  -24.0018   -7.4634   22.7470 H   0  0  0  0  0  0
  -21.0863   -8.8792   19.8952 H   0  0  0  0  0  0
  -22.3739  -10.9676   19.6163 H   0  0  0  0  0  0
  -21.2022   -7.6158   23.9726 H   0  0  0  0  0  0
  -21.1476   -6.0529   25.9083 H   0  0  0  0  0  0
  -22.0600   -2.7617   23.2845 H   0  0  0  0  0  0
  -22.4050  -11.9848   22.4873 H   0  0  0  0  0  0
  -21.1001  -13.1153   22.2631 H   0  0  0  0  0  0
  -24.6301  -15.8521   20.5389 H   0  0  0  0  0  0
  -26.2362  -15.6395   20.0615 H   0  0  0  0  0  0
  -26.7419  -32.5052   23.0820 H   0  0  0  0  0  0
  -25.0064  -33.9412   25.0117 H   0  0  0  0  0  0
  -22.8068  -31.2572   21.3347 H   0  0  0  0  0  0
  -23.3772  -35.9505   23.3267 H   0  0  0  0  0  0
  -24.3575  -36.8883   22.2073 H   0  0  0  0  0  0
  -23.7246  -37.6354   23.6739 H   0  0  0  0  0  0
  -26.2533  -31.3326   20.6258 H   0  0  0  0  0  0
  -26.9181  -30.6549   22.0668 H   0  0  0  0  0  0
  -28.1545  -28.5205   21.2998 H   0  0  0  0  0  0
  -25.8648  -25.6874   19.0124 H   0  0  0  0  0  0
  -24.0153  -27.2456   18.9470 H   0  0  0  0  0  0
  -23.8981  -30.4960   19.3825 H   0  0  0  0  0  0
  -22.8434  -29.1900   19.8222 H   0  0  0  0  0  0
  -25.1348  -36.1712   25.0780 H   0  0  0  0  0  0
  -21.0040  -28.3385   24.1288 H   0  0  0  0  0  0
  -20.5682  -26.2384   23.3654 H   0  0  0  0  0  0
  -21.6671  -26.7411   22.1210 H   0  0  0  0  0  0
  -19.6939  -25.6277   21.1285 H   0  0  0  0  0  0
  -19.6720  -27.3155   20.6716 H   0  0  0  0  0  0
  -17.4233  -26.6683   21.4025 H   0  0  0  0  0  0
  -18.0356  -26.0102   22.9028 H   0  0  0  0  0  0
  -19.7978  -30.7340   24.2177 H   0  0  0  0  0  0
  -17.5043  -31.6271   24.5177 H   0  0  0  0  0  0
  -15.5378  -30.2973   23.7706 H   0  0  0  0  0  0
  -15.8713  -28.0817   22.7101 H   0  0  0  0  0  0
  -24.5867  -30.7141   25.7608 H   0  0  0  0  0  0
  -24.8849  -32.3015   26.4580 H   0  0  0  0  0  0
  -25.7872  -30.9058   27.0191 H   0  0  0  0  0  0
  -26.3181  -29.6511   24.1483 H   0  0  0  0  0  0
  -27.3976  -29.7280   25.5178 H   0  0  0  0  0  0
  -27.9139  -30.4027   23.9949 H   0  0  0  0  0  0
  -27.2599  -33.3697   26.1911 H   0  0  0  0  0  0
  -28.3937  -32.6826   25.0374 H   0  0  0  0  0  0
  -28.0624  -31.8574   26.5530 H   0  0  0  0  0  0
  -28.2558  -38.0074   24.7520 H   0  0  0  0  0  0
  -28.1095  -36.2598   24.6275 H   0  0  0  0  0  0
  -27.2285  -37.1372   25.8865 H   0  0  0  0  0  0
  -20.9628  -29.8707   21.6604 H   0  0  0  0  0  0
  -26.0111  -38.2738   24.1419 H   0  0  0  0  0  0
  -31.7457  -19.1065   20.7068 H   0  0  0  0  0  0
  -30.2164  -18.3691   19.1814 H   0  0  0  0  0  0
  -28.2702  -19.7205   18.9794 H   0  0  0  0  0  0
  -33.0605  -22.4166   21.2552 H   0  0  0  0  0  0
  -32.6254  -21.2206   22.4688 H   0  0  0  0  0  0
  -32.2613  -22.9153   22.7444 H   0  0  0  0  0  0
  -26.8845  -18.4218   20.5441 H   0  0  0  0  0  0
  -26.5874  -20.1441   20.7558 H   0  0  0  0  0  0
  -27.5895  -19.2726   21.9160 H   0  0  0  0  0  0
  -27.0102  -23.8413   20.6247 H   0  0  0  0  0  0
  -27.6587  -23.9261   19.0306 H   0  0  0  0  0  0
  -28.6607  -16.4542   20.6600 H   0  0  0  0  0  0
  -30.6656  -17.8063   22.2838 H   0  0  0  0  0  0
  1 25  1  0  0  0
  1 30  2  0  0  0
  1 82  1  0  0  0
  2  3  1  0  0  0
  2 25  1  0  0  0
  2 84  1  0  0  0
  2 85  1  0  0  0
  3  4  1  0  0  0
  3 86  1  0  0  0
  3 87  1  0  0  0
  4  5  1  0  0  0
  4 88  1  0  0  0
  4 89  1  0  0  0
  5  6  1  0  0  0
  5 26  1  0  0  0
  5 90  1  0  0  0
  6 25  1  0  0  0
  6 91  1  0  0  0
  6 92  1  0  0  0
  7  8  2  0  0  0
  7 26  1  0  0  0
  7 29  1  0  0  0
  8  9  1  0  0  0
  8 22  1  0  0  0
  9 10  1  0  0  0
  9 27  2  0  0  0
 10 11  2  0  0  0
 10 15  1  0  0  0
 11 12  1  0  0  0
 11 93  1  0  0  0
 12 13  2  0  0  0
 12 94  1  0  0  0
 13 14  1  0  0  0
 13 31  1  0  0  0
 14 15  2  0  0  0
 14 95  1  0  0  0
 15 96  1  0  0  0
 16 17  2  0  0  0
 16 21  1  0  0  0
 16 31  1  0  0  0
 17 18  1  0  0  0
 17 97  1  0  0  0
 18 19  2  0  0  0
 18 98  1  0  0  0
 19 20  1  0  0  0
 19 24  1  0  0  0
 20 21  2  0  0  0
 20 99  1  0  0  0
 21 23  1  0  0  0
 22 28  1  0  0  0
 22 32  2  0  0  0
 26 27  1  0  0  0
 28100  1  0  0  0
 28101  1  0  0  0
 29102  1  0  0  0
 29103  1  0  0  0
 33 34  1  0  0  0
 33 66  1  0  0  0
 33 70  2  0  0  0
 34 36  1  0  0  0
 34 59  1  0  0  0
 34104  1  0  0  0
 35 44  2  0  0  0
 35 45  1  0  0  0
 35 68  1  0  0  0
 36 56  1  0  0  0
 36105  1  0  0  0
 37 39  1  0  0  0
 37 47  1  0  0  0
 37 66  1  0  0  0
 37106  1  0  0  0
 38 43  2  0  0  0
 38 46  1  0  0  0
 38 47  1  0  0  0
 39 64  1  0  0  0
 39 67  2  0  0  0
 40 52  1  0  0  0
 40 53  2  0  0  0
 40 58  1  0  0  0
 41107  1  0  0  0
 41108  1  0  0  0
 41109  1  0  0  0
 41 48  1  0  0  0
 42 43  1  0  0  0
 42 66  1  0  0  0
 42110  1  0  0  0
 42111  1  0  0  0
 43 44  1  0  0  0
 44112  1  0  0  0
 45 46  2  0  0  0
 45113  1  0  0  0
 46114  1  0  0  0
 47115  1  0  0  0
 47116  1  0  0  0
 48 56  1  0  0  0
 48 65  1  0  0  0
 48117  1  0  0  0
 49 50  1  0  0  0
 49 53  1  0  0  0
 49 64  1  0  0  0
 49118  1  0  0  0
 50 51  1  0  0  0
 50119  1  0  0  0
 50120  1  0  0  0
 51 52  1  0  0  0
 51121  1  0  0  0
 51122  1  0  0  0
 52123  1  0  0  0
 52124  1  0  0  0
 53 54  1  0  0  0
 54 55  2  0  0  0
 54125  1  0  0  0
 55 57  1  0  0  0
 55126  1  0  0  0
 56 69  2  0  0  0
 57 58  2  0  0  0
 57127  1  0  0  0
 58128  1  0  0  0
 59 60  1  0  0  0
 59 61  1  0  0  0
 59 62  1  0  0  0
 60129  1  0  0  0
 60130  1  0  0  0
 60131  1  0  0  0
 61132  1  0  0  0
 61133  1  0  0  0
 61134  1  0  0  0
 62135  1  0  0  0
 62136  1  0  0  0
 62137  1  0  0  0
 63 65  1  0  0  0
 63138  1  0  0  0
 63139  1  0  0  0
 63140  1  0  0  0
 64141  1  0  0  0
 65142  1  0  0  0
 68 79  1  0  0  0
 71 72  2  0  0  0
 71 74  1  0  0  0
 71 81  1  0  0  0
 72 77  1  0  0  0
 72 80  1  0  0  0
 73 79  1  0  0  0
 73 80  2  0  0  0
 73 81  1  0  0  0
 74 75  1  0  0  0
 74 83  1  0  0  0
 74143  1  0  0  0
 75 76  1  0  0  0
 75 82  1  0  0  0
 75144  1  0  0  0
 76 78  1  0  0  0
 76 81  1  0  0  0
 76145  1  0  0  0
 77146  1  0  0  0
 77147  1  0  0  0
 77148  1  0  0  0
 78149  1  0  0  0
 78150  1  0  0  0
 78151  1  0  0  0
 79152  1  0  0  0
 79153  1  0  0  0
 82154  1  0  0  0
 83155  1  0  0  0
M  ISO  4   1 100  68 101  79 101  82 100
M  END
> <chiral flag>
0

> <version>
0

> <s_m_source_file>
/data/baiqing/PycharmProjects/Reinvent-master-3.2/result/LINK_invent/BTK/process_docking_weight1_custom_sum_contain_oxygen_bond_distance_aromatic_linkinvent_7_9_3/rearranged_h_0180.sdf

> <i_m_source_file_index>
47

> <r_mmod_Potential_Energy-OPLS-2005>
1522.09753417969

> <r_mmod_Stretch_Energy-OPLS-2005>
692.369689941406

> <r_mmod_Bend_Energy-OPLS-2005>
598.72412109375

> <r_mmod_Torsional_Energy-OPLS-2005>
261.978973388672

> <r_mmod_Improper_Torsional_Energy-OPLS-2005>
3.89246082305908

> <r_mmod_Van_der_Waal_Energy-OPLS-2005>
94.7496566772461

> <r_mmod_Electrostatic_Energy-OPLS-2005>
-465.468688964844

> <r_mmod_Solvation_Energy-OPLS-2005>
-256.835876464844

> <b_mmod_Minimization_Converged-OPLS-2005>
0

> <r_mmod_RMS_Derivative-OPLS-2005>
1.45969331264496

$$$$
47
                    3D
 Structure written by MMmdl.
154163  0  0  1  0            999 V2000
  -30.6245  -14.7802   20.4351 C   0  0  0  0  0  0
  -30.4209  -12.4762   19.4858 C   0  0  0  0  0  0
  -29.5114  -12.5233   18.2405 C   0  0  0  0  0  0
  -28.0386  -12.3388   18.6499 C   0  0  0  0  0  0
  -27.6361  -13.2447   19.8472 C   0  0  2  0  0  0
  -28.6789  -13.2153   20.9859 C   0  0  0  0  0  0
  -25.2477  -13.8219   20.5723 C   0  0  0  0  0  0
  -24.1776  -13.0437   20.9213 C   0  0  0  0  0  0
  -24.6385  -11.6923   20.8724 C   0  0  0  0  0  0
  -23.9064  -10.4293   21.0388 C   0  0  0  0  0  0
  -24.3616   -9.4220   21.9171 C   0  0  0  0  0  0
  -23.6307   -8.2238   22.0743 C   0  0  0  0  0  0
  -22.4286   -8.0266   21.3546 C   0  0  0  0  0  0
  -21.9913   -9.0226   20.4636 C   0  0  0  0  0  0
  -22.7224  -10.2116   20.3048 C   0  0  0  0  0  0
  -21.6858   -6.0734   22.5286 C   0  0  0  0  0  0
  -21.3995   -6.5633   23.8211 C   0  0  0  0  0  0
  -21.3667   -5.6790   24.9178 C   0  0  0  0  0  0
  -21.6050   -4.3056   24.7231 C   0  0  0  0  0  0
  -21.8819   -3.8146   23.4347 C   0  0  0  0  0  0
  -21.9199   -4.6962   22.3405 C   0  0  0  0  0  0
  -22.7800  -13.5208   21.1892 C   0  0  0  0  0  0
  -22.1671   -4.2147   21.0984 F   0  0  0  0  0  0
  -21.5649   -3.4542   25.7744 F   0  0  0  0  0  0
  -29.9758  -13.5620   20.3946 N   0  0  0  0  0  0
  -26.2916  -12.9440   20.3279 N   0  0  0  0  0  0
  -25.9322  -11.6575   20.5719 N   0  0  0  0  0  0
  -22.0461  -12.8166   22.0433 N   0  0  0  0  0  0
  -25.4122  -15.1941   20.4180 N   0  0  0  0  0  0
  -31.8200  -14.8207   20.1335 O   0  0  0  0  0  0
  -21.6657   -6.8860   21.4242 O   0  0  0  0  0  0
  -22.3472  -14.5531   20.6781 O   0  0  0  0  0  0
  -24.6316  -31.8505   23.1907 C   0  0  0  0  0  0
  -25.9132  -32.4728   23.8259 C   0  0  1  0  0  0
  -27.2390  -27.2608   20.1321 C   0  0  0  0  0  0
  -25.5918  -33.8532   24.2190 N   0  0  0  0  0  0
  -23.4290  -30.4686   21.5333 C   0  0  2  0  0  0
  -24.8822  -28.9113   20.1037 C   0  0  0  0  0  0
  -22.7486  -29.4579   22.4888 C   0  0  0  0  0  0
  -18.0280  -28.1388   22.8510 C   0  0  0  0  0  0
  -24.1474  -36.7242   23.2651 C   0  0  0  0  0  0
  -25.9720  -30.7687   21.3652 C   0  0  0  0  0  0
  -26.0486  -29.3875   20.7120 C   0  0  0  0  0  0
  -27.2258  -28.5747   20.7135 C   0  0  0  0  0  0
  -26.0462  -26.8410   19.5033 C   0  0  0  0  0  0
  -24.8871  -27.6478   19.4876 C   0  0  0  0  0  0
  -23.6498  -29.7961   20.1513 C   0  0  0  0  0  0
  -25.4097  -36.3023   24.0327 C   0  0  1  0  0  0
  -20.5888  -28.3687   23.1301 C   0  0  2  0  0  0
  -20.6767  -26.9400   22.5437 C   0  0  0  0  0  0
  -19.5740  -26.6389   21.5240 C   0  0  0  0  0  0
  -18.1919  -26.7936   22.1636 C   0  0  0  0  0  0
  -19.1541  -28.8845   23.2909 C   0  0  0  0  0  0
  -18.9481  -30.1457   23.8925 C   0  0  0  0  0  0
  -17.6483  -30.6597   24.0591 C   0  0  0  0  0  0
  -25.9052  -34.9427   23.5052 C   0  0  0  0  0  0
  -16.5369  -29.9096   23.6358 C   0  0  0  0  0  0
  -16.7271  -28.6520   23.0368 C   0  0  0  0  0  0
  -26.4507  -31.6560   25.0656 C   0  0  0  0  0  0
  -25.3749  -31.3713   26.1398 C   0  0  0  0  0  0
  -27.0365  -30.2978   24.6123 C   0  0  0  0  0  0
  -27.6053  -32.4309   25.7430 C   0  0  0  0  0  0
  -27.5555  -37.1749   24.8480 C   0  0  0  0  0  0
  -21.4185  -29.3032   22.3665 N   0  0  0  0  0  0
  -26.4240  -37.3752   23.9456 N   0  0  0  0  0  0
  -24.6969  -31.0470   22.0878 N   0  0  0  0  0  0
  -23.4190  -28.8128   23.2996 O   0  0  0  0  0  0
  -28.3648  -26.4102   20.2381 O   0  0  0  0  0  0
  -26.5654  -34.8936   22.4635 O   0  0  0  0  0  0
  -23.5462  -32.1322   23.7201 O   0  0  0  0  0  0
  -30.5727  -20.0573   20.1324 C   0  0  0  0  0  0
  -29.6942  -21.1226   20.2561 C   0  0  0  0  0  0
  -29.8584  -18.8145   20.3617 C   0  0  0  0  0  0
  -29.8121  -22.6665   20.0754 C   0  0  0  0  0  0
  -27.2753  -22.7525   20.2752 C   0  0  0  0  0  0
  -27.2893  -21.2965   20.8817 C   0  0  0  0  0  0
  -28.5703  -23.6182   20.4230 C   0  0  2  0  0  0
  -30.4939  -17.3501   20.1943 C   0  0  0  0  0  0
  -28.4997  -25.0453   19.6215 C   0  0  0  0  0  0
  -28.5844  -19.1432   20.6531 N   0  0  0  0  0  0
  -28.5028  -20.5320   20.5814 N   0  0  0  0  0  0
  -29.9174  -15.9761   20.5657 N   0  0  0  0  0  0
  -31.4678  -12.5761   19.1926 H   0  0  0  0  0  0
  -30.3427  -11.5051   19.9789 H   0  0  0  0  0  0
  -29.8032  -11.7552   17.5246 H   0  0  0  0  0  0
  -29.6378  -13.4806   17.7318 H   0  0  0  0  0  0
  -27.8995  -11.2899   18.9135 H   0  0  0  0  0  0
  -27.3847  -12.5245   17.7963 H   0  0  0  0  0  0
  -27.6173  -14.2619   19.4564 H   0  0  0  0  0  0
  -28.7154  -12.2310   21.4553 H   0  0  0  0  0  0
  -28.4108  -13.9233   21.7711 H   0  0  0  0  0  0
  -25.2747   -9.5728   22.4760 H   0  0  0  0  0  0
  -24.0040   -7.4636   22.7447 H   0  0  0  0  0  0
  -21.0860   -8.8715   19.8930 H   0  0  0  0  0  0
  -22.3654  -10.9655   19.6167 H   0  0  0  0  0  0
  -21.1938   -7.6130   23.9712 H   0  0  0  0  0  0
  -21.1514   -6.0521   25.9084 H   0  0  0  0  0  0
  -22.0589   -2.7610   23.2854 H   0  0  0  0  0  0
  -22.4093  -11.9834   22.4823 H   0  0  0  0  0  0
  -21.1061  -13.1155   22.2640 H   0  0  0  0  0  0
  -24.6397  -15.8428   20.5263 H   0  0  0  0  0  0
  -26.2641  -15.6433   20.1073 H   0  0  0  0  0  0
  -26.7199  -32.5383   23.1001 H   0  0  0  0  0  0
  -25.0069  -33.9660   25.0338 H   0  0  0  0  0  0
  -22.7289  -31.2926   21.3812 H   0  0  0  0  0  0
  -23.3758  -35.9555   23.3278 H   0  0  0  0  0  0
  -24.3584  -36.8881   22.2077 H   0  0  0  0  0  0
  -23.7203  -37.6415   23.6706 H   0  0  0  0  0  0
  -26.1034  -31.5266   20.5903 H   0  0  0  0  0  0
  -26.8531  -30.8247   21.9934 H   0  0  0  0  0  0
  -28.1192  -28.9364   21.2028 H   0  0  0  0  0  0
  -25.9737  -25.8618   19.0544 H   0  0  0  0  0  0
  -23.9901  -27.2732   19.0147 H   0  0  0  0  0  0
  -23.7750  -30.5737   19.3964 H   0  0  0  0  0  0
  -22.7701  -29.2293   19.8434 H   0  0  0  0  0  0
  -25.1269  -36.1818   25.0811 H   0  0  0  0  0  0
  -21.0014  -28.3259   24.1406 H   0  0  0  0  0  0
  -20.5681  -26.2280   23.3627 H   0  0  0  0  0  0
  -21.6627  -26.7409   22.1223 H   0  0  0  0  0  0
  -19.6913  -25.6310   21.1244 H   0  0  0  0  0  0
  -19.6699  -27.3244   20.6813 H   0  0  0  0  0  0
  -17.4189  -26.6735   21.4025 H   0  0  0  0  0  0
  -18.0285  -26.0054   22.8999 H   0  0  0  0  0  0
  -19.7961  -30.7278   24.2299 H   0  0  0  0  0  0
  -17.5041  -31.6294   24.5154 H   0  0  0  0  0  0
  -15.5380  -30.3027   23.7672 H   0  0  0  0  0  0
  -15.8653  -28.0865   22.7071 H   0  0  0  0  0  0
  -24.5964  -30.6987   25.7764 H   0  0  0  0  0  0
  -24.8926  -32.2895   26.4768 H   0  0  0  0  0  0
  -25.8116  -30.8965   27.0194 H   0  0  0  0  0  0
  -26.2935  -29.6685   24.1208 H   0  0  0  0  0  0
  -27.4142  -29.7258   25.4608 H   0  0  0  0  0  0
  -27.8754  -30.4259   23.9278 H   0  0  0  0  0  0
  -27.2673  -33.3683   26.1859 H   0  0  0  0  0  0
  -28.3943  -32.6717   25.0292 H   0  0  0  0  0  0
  -28.0612  -31.8506   26.5457 H   0  0  0  0  0  0
  -28.2525  -38.0093   24.7550 H   0  0  0  0  0  0
  -28.1063  -36.2607   24.6213 H   0  0  0  0  0  0
  -27.2298  -37.1284   25.8890 H   0  0  0  0  0  0
  -20.9357  -29.8719   21.6856 H   0  0  0  0  0  0
  -26.0078  -38.2779   24.1561 H   0  0  0  0  0  0
  -31.6170  -20.1489   19.8728 H   0  0  0  0  0  0
  -30.0793  -22.8397   19.0331 H   0  0  0  0  0  0
  -30.6761  -23.0202   20.6385 H   0  0  0  0  0  0
  -26.4314  -23.3032   20.6918 H   0  0  0  0  0  0
  -27.0594  -22.6585   19.2100 H   0  0  0  0  0  0
  -26.4233  -20.7379   20.5280 H   0  0  0  0  0  0
  -27.2053  -21.3545   21.9672 H   0  0  0  0  0  0
  -28.6663  -23.8508   21.4848 H   0  0  0  0  0  0
  -31.4724  -17.3891   20.6737 H   0  0  0  0  0  0
  -30.7336  -17.2619   19.1333 H   0  0  0  0  0  0
  -27.8556  -24.9426   18.7509 H   0  0  0  0  0  0
  -29.4810  -25.1361   19.1543 H   0  0  0  0  0  0
  -28.9344  -15.9365   20.7833 H   0  0  0  0  0  0
  1 25  1  0  0  0
  1 30  2  0  0  0
  1 82  1  0  0  0
  2  3  1  0  0  0
  2 25  1  0  0  0
  2 83  1  0  0  0
  2 84  1  0  0  0
  3  4  1  0  0  0
  3 85  1  0  0  0
  3 86  1  0  0  0
  4  5  1  0  0  0
  4 87  1  0  0  0
  4 88  1  0  0  0
  5  6  1  0  0  0
  5 26  1  0  0  0
  5 89  1  0  0  0
  6 25  1  0  0  0
  6 90  1  0  0  0
  6 91  1  0  0  0
  7  8  2  0  0  0
  7 26  1  0  0  0
  7 29  1  0  0  0
  8  9  1  0  0  0
  8 22  1  0  0  0
  9 10  1  0  0  0
  9 27  2  0  0  0
 10 11  2  0  0  0
 10 15  1  0  0  0
 11 12  1  0  0  0
 11 92  1  0  0  0
 12 13  2  0  0  0
 12 93  1  0  0  0
 13 14  1  0  0  0
 13 31  1  0  0  0
 14 15  2  0  0  0
 14 94  1  0  0  0
 15 95  1  0  0  0
 16 17  2  0  0  0
 16 21  1  0  0  0
 16 31  1  0  0  0
 17 18  1  0  0  0
 17 96  1  0  0  0
 18 19  2  0  0  0
 18 97  1  0  0  0
 19 20  1  0  0  0
 19 24  1  0  0  0
 20 21  2  0  0  0
 20 98  1  0  0  0
 21 23  1  0  0  0
 22 28  1  0  0  0
 22 32  2  0  0  0
 26 27  1  0  0  0
 28 99  1  0  0  0
 28100  1  0  0  0
 29101  1  0  0  0
 29102  1  0  0  0
 33 34  1  0  0  0
 33 66  1  0  0  0
 33 70  2  0  0  0
 34 36  1  0  0  0
 34 59  1  0  0  0
 34103  1  0  0  0
 35 44  2  0  0  0
 35 45  1  0  0  0
 35 68  1  0  0  0
 36 56  1  0  0  0
 36104  1  0  0  0
 37 39  1  0  0  0
 37 47  1  0  0  0
 37 66  1  0  0  0
 37105  1  0  0  0
 38 43  2  0  0  0
 38 46  1  0  0  0
 38 47  1  0  0  0
 39 64  1  0  0  0
 39 67  2  0  0  0
 40 52  1  0  0  0
 40 53  2  0  0  0
 40 58  1  0  0  0
 41106  1  0  0  0
 41107  1  0  0  0
 41108  1  0  0  0
 41 48  1  0  0  0
 42 43  1  0  0  0
 42 66  1  0  0  0
 42109  1  0  0  0
 42110  1  0  0  0
 43 44  1  0  0  0
 44111  1  0  0  0
 45 46  2  0  0  0
 45112  1  0  0  0
 46113  1  0  0  0
 47114  1  0  0  0
 47115  1  0  0  0
 48 56  1  0  0  0
 48 65  1  0  0  0
 48116  1  0  0  0
 49 50  1  0  0  0
 49 53  1  0  0  0
 49 64  1  0  0  0
 49117  1  0  0  0
 50 51  1  0  0  0
 50118  1  0  0  0
 50119  1  0  0  0
 51 52  1  0  0  0
 51120  1  0  0  0
 51121  1  0  0  0
 52122  1  0  0  0
 52123  1  0  0  0
 53 54  1  0  0  0
 54 55  2  0  0  0
 54124  1  0  0  0
 55 57  1  0  0  0
 55125  1  0  0  0
 56 69  2  0  0  0
 57 58  2  0  0  0
 57126  1  0  0  0
 58127  1  0  0  0
 59 60  1  0  0  0
 59 61  1  0  0  0
 59 62  1  0  0  0
 60128  1  0  0  0
 60129  1  0  0  0
 60130  1  0  0  0
 61131  1  0  0  0
 61132  1  0  0  0
 61133  1  0  0  0
 62134  1  0  0  0
 62135  1  0  0  0
 62136  1  0  0  0
 63 65  1  0  0  0
 63137  1  0  0  0
 63138  1  0  0  0
 63139  1  0  0  0
 64140  1  0  0  0
 65141  1  0  0  0
 68 79  1  0  0  0
 71 72  2  0  0  0
 71 73  1  0  0  0
 71142  1  0  0  0
 72 74  1  0  0  0
 72 81  1  0  0  0
 73 78  1  0  0  0
 73 80  2  0  0  0
 74 77  1  0  0  0
 74143  1  0  0  0
 74144  1  0  0  0
 75 76  1  0  0  0
 75 77  1  0  0  0
 75145  1  0  0  0
 75146  1  0  0  0
 76 81  1  0  0  0
 76147  1  0  0  0
 76148  1  0  0  0
 77 79  1  0  0  0
 77149  1  0  0  0
 78 82  1  0  0  0
 78150  1  0  0  0
 78151  1  0  0  0
 79152  1  0  0  0
 79153  1  0  0  0
 80 81  1  0  0  0
 82154  1  0  0  0
M  ISO  4   1 100  68 101  79 101  82 100
M  END
> <chiral flag>
0

> <version>
0

> <s_m_source_file>
/data/baiqing/PycharmProjects/Reinvent-master-3.2/result/LINK_invent/BTK/process_docking_weight1_custom_sum_contain_oxygen_bond_distance_aromatic_linkinvent_7_9_3/rearranged_h_0180.sdf

> <i_m_source_file_index>
48

> <r_mmod_Potential_Energy-OPLS-2005>
90.480354309082

> <r_mmod_Stretch_Energy-OPLS-2005>
125.894706726074

> <r_mmod_Bend_Energy-OPLS-2005>
217.209259033203

> <r_mmod_Torsional_Energy-OPLS-2005>
229.623916625977

> <r_mmod_Improper_Torsional_Energy-OPLS-2005>
5.92296123504639

> <r_mmod_Van_der_Waal_Energy-OPLS-2005>
118.515464782715

> <r_mmod_Electrostatic_Energy-OPLS-2005>
-480.634368896484

> <r_mmod_Solvation_Energy-OPLS-2005>
-220.440673828125

> <b_mmod_Minimization_Converged-OPLS-2005>
0

> <r_mmod_RMS_Derivative-OPLS-2005>
3.13647270202637

$$$$
48
                    3D
 Structure written by MMmdl.
149158  0  0  1  0            999 V2000
  -30.4581  -15.4632   20.3573 C   0  0  0  0  0  0
  -30.4045  -12.9733   19.5009 C   0  0  0  0  0  0
  -29.5185  -12.6063   18.2864 C   0  0  0  0  0  0
  -28.0880  -12.2908   18.7423 C   0  0  0  0  0  0
  -27.5909  -13.2991   19.8058 C   0  0  2  0  0  0
  -28.6246  -13.6112   20.9128 C   0  0  0  0  0  0
  -25.2327  -13.8295   20.5821 C   0  0  0  0  0  0
  -24.1702  -13.0453   20.9305 C   0  0  0  0  0  0
  -24.6391  -11.6957   20.8802 C   0  0  0  0  0  0
  -23.9102  -10.4300   21.0420 C   0  0  0  0  0  0
  -24.3640   -9.4209   21.9195 C   0  0  0  0  0  0
  -23.6305   -8.2248   22.0765 C   0  0  0  0  0  0
  -22.4291   -8.0283   21.3549 C   0  0  0  0  0  0
  -21.9941   -9.0260   20.4650 C   0  0  0  0  0  0
  -22.7279  -10.2133   20.3062 C   0  0  0  0  0  0
  -21.6851   -6.0736   22.5277 C   0  0  0  0  0  0
  -21.4009   -6.5640   23.8210 C   0  0  0  0  0  0
  -21.3668   -5.6796   24.9176 C   0  0  0  0  0  0
  -21.6045   -4.3058   24.7229 C   0  0  0  0  0  0
  -21.8817   -3.8149   23.4353 C   0  0  0  0  0  0
  -21.9193   -4.6963   22.3407 C   0  0  0  0  0  0
  -22.7714  -13.5189   21.1933 C   0  0  0  0  0  0
  -22.1661   -4.2147   21.0987 F   0  0  0  0  0  0
  -21.5639   -3.4547   25.7746 F   0  0  0  0  0  0
  -29.8045  -14.1789   20.2246 N   0  0  0  0  0  0
  -26.2753  -12.9606   20.3267 N   0  0  0  0  0  0
  -25.9332  -11.6686   20.5749 N   0  0  0  0  0  0
  -22.0380  -12.8145   22.0468 N   0  0  0  0  0  0
  -25.3956  -15.2031   20.4254 N   0  0  0  0  0  0
  -31.6840  -15.2565   20.2778 O   0  0  0  0  0  0
  -21.6648   -6.8880   21.4238 O   0  0  0  0  0  0
  -22.3394  -14.5492   20.6772 O   0  0  0  0  0  0
  -24.6753  -31.8107   23.1602 C   0  0  0  0  0  0
  -25.9376  -32.4520   23.8114 C   0  0  1  0  0  0
  -27.2115  -26.7960   20.1985 C   0  0  0  0  0  0
  -25.5988  -33.8342   24.2002 N   0  0  0  0  0  0
  -23.4963  -30.4185   21.5130 C   0  0  2  0  0  0
  -24.9488  -28.7804   20.1181 C   0  0  0  0  0  0
  -22.7720  -29.4383   22.4743 C   0  0  0  0  0  0
  -18.0327  -28.1416   22.8451 C   0  0  0  0  0  0
  -24.1498  -36.7174   23.2652 C   0  0  0  0  0  0
  -26.0735  -30.5742   21.4105 C   0  0  0  0  0  0
  -26.1383  -29.1502   20.7569 C   0  0  0  0  0  0
  -27.2619  -28.1835   20.7663 C   0  0  0  0  0  0
  -25.9916  -26.6157   19.5050 C   0  0  0  0  0  0
  -24.9086  -27.5368   19.4693 C   0  0  0  0  0  0
  -23.7434  -29.7259   20.1443 C   0  0  0  0  0  0
  -25.4147  -36.2925   24.0286 C   0  0  1  0  0  0
  -20.5958  -28.3775   23.1154 C   0  0  2  0  0  0
  -20.6799  -26.9444   22.5403 C   0  0  0  0  0  0
  -19.5783  -26.6376   21.5206 C   0  0  0  0  0  0
  -18.1960  -26.7948   22.1605 C   0  0  0  0  0  0
  -19.1593  -28.8915   23.2787 C   0  0  0  0  0  0
  -18.9499  -30.1494   23.8840 C   0  0  0  0  0  0
  -17.6497  -30.6601   24.0551 C   0  0  0  0  0  0
  -25.9118  -34.9312   23.4976 C   0  0  0  0  0  0
  -16.5384  -29.9087   23.6346 C   0  0  0  0  0  0
  -16.7310  -28.6505   23.0366 C   0  0  0  0  0  0
  -26.4584  -31.6518   25.0701 C   0  0  0  0  0  0
  -25.3669  -31.3796   26.1323 C   0  0  0  0  0  0
  -27.0508  -30.2870   24.6537 C   0  0  0  0  0  0
  -27.6041  -32.4367   25.7522 C   0  0  0  0  0  0
  -27.5568  -37.1752   24.8469 C   0  0  0  0  0  0
  -21.4378  -29.3039   22.3486 N   0  0  0  0  0  0
  -26.4282  -37.3676   23.9401 N   0  0  0  0  0  0
  -24.7713  -30.9650   22.0804 N   0  0  0  0  0  0
  -23.4207  -28.7969   23.3044 O   0  0  0  0  0  0
  -28.1755  -25.6108   20.2488 O   0  0  0  0  0  0
  -26.5748  -34.8870   22.4584 O   0  0  0  0  0  0
  -23.5794  -32.1131   23.6614 O   0  0  0  0  0  0
  -29.7102  -21.7463   19.4564 C   0  0  0  0  0  0
  -28.6342  -22.3149   20.1881 C   0  0  0  0  0  0
  -28.9383  -19.7849   20.4089 C   0  0  0  0  0  0
  -28.8828  -18.0539   20.6822 C   0  0  0  0  0  0
  -30.6996  -19.2748   18.9277 C   0  0  0  0  0  0
  -31.0532  -17.9057   19.7120 C   0  0  0  0  0  0
  -27.8106  -23.9401   20.2493 C   0  0  0  0  0  0
  -29.8448  -20.3117   19.6036 N   0  0  0  0  0  0
  -28.2181  -20.9915   20.7489 N   0  3  0  0  0  0
  -29.9851  -16.9256   20.1727 N   0  0  0  0  0  0
  -31.4099  -13.1778   19.1305 H   0  0  0  0  0  0
  -30.5162  -12.1185   20.1705 H   0  0  0  0  0  0
  -29.9378  -11.7560   17.7464 H   0  0  0  0  0  0
  -29.5022  -13.4399   17.5830 H   0  0  0  0  0  0
  -28.0907  -11.2857   19.1650 H   0  0  0  0  0  0
  -27.4103  -12.2617   17.8883 H   0  0  0  0  0  0
  -27.4595  -14.2272   19.2477 H   0  0  0  0  0  0
  -28.8623  -12.7304   21.5111 H   0  0  0  0  0  0
  -28.2221  -14.3557   21.6011 H   0  0  0  0  0  0
  -25.2776   -9.5681   22.4785 H   0  0  0  0  0  0
  -24.0007   -7.4641   22.7492 H   0  0  0  0  0  0
  -21.0880   -8.8783   19.8948 H   0  0  0  0  0  0
  -22.3743  -10.9674   19.6175 H   0  0  0  0  0  0
  -21.1985   -7.6145   23.9708 H   0  0  0  0  0  0
  -21.1498   -6.0533   25.9078 H   0  0  0  0  0  0
  -22.0587   -2.7612   23.2858 H   0  0  0  0  0  0
  -22.4024  -11.9803   22.4823 H   0  0  0  0  0  0
  -21.0989  -13.1127   22.2694 H   0  0  0  0  0  0
  -24.6249  -15.8537   20.5328 H   0  0  0  0  0  0
  -26.2419  -15.6417   20.0871 H   0  0  0  0  0  0
  -26.7455  -32.5017   23.0825 H   0  0  0  0  0  0
  -25.0049  -33.9408   25.0095 H   0  0  0  0  0  0
  -22.8166  -31.2536   21.3316 H   0  0  0  0  0  0
  -23.3774  -35.9490   23.3281 H   0  0  0  0  0  0
  -24.3563  -36.8868   22.2073 H   0  0  0  0  0  0
  -23.7249  -37.6344   23.6746 H   0  0  0  0  0  0
  -26.2700  -31.3071   20.6271 H   0  0  0  0  0  0
  -26.9268  -30.6353   22.0735 H   0  0  0  0  0  0
  -28.1606  -28.4694   21.2939 H   0  0  0  0  0  0
  -25.8331  -25.6767   18.9963 H   0  0  0  0  0  0
  -24.0102  -27.2476   18.9424 H   0  0  0  0  0  0
  -23.9108  -30.4902   19.3843 H   0  0  0  0  0  0
  -22.8497  -29.1888   19.8226 H   0  0  0  0  0  0
  -25.1359  -36.1702   25.0780 H   0  0  0  0  0  0
  -21.0039  -28.3394   24.1281 H   0  0  0  0  0  0
  -20.5640  -26.2407   23.3662 H   0  0  0  0  0  0
  -21.6666  -26.7387   22.1236 H   0  0  0  0  0  0
  -19.6945  -25.6268   21.1283 H   0  0  0  0  0  0
  -19.6727  -27.3144   20.6701 H   0  0  0  0  0  0
  -17.4234  -26.6685   21.4006 H   0  0  0  0  0  0
  -18.0348  -26.0103   22.9010 H   0  0  0  0  0  0
  -19.7976  -30.7312   24.2199 H   0  0  0  0  0  0
  -17.5050  -31.6276   24.5160 H   0  0  0  0  0  0
  -15.5382  -30.2972   23.7706 H   0  0  0  0  0  0
  -15.8707  -28.0800   22.7130 H   0  0  0  0  0  0
  -24.5933  -30.7045   25.7648 H   0  0  0  0  0  0
  -24.8753  -32.2987   26.4519 H   0  0  0  0  0  0
  -25.7877  -30.9155   27.0251 H   0  0  0  0  0  0
  -26.3210  -29.6511   24.1516 H   0  0  0  0  0  0
  -27.3954  -29.7285   25.5252 H   0  0  0  0  0  0
  -27.9184  -30.4019   24.0038 H   0  0  0  0  0  0
  -27.2581  -33.3723   26.1926 H   0  0  0  0  0  0
  -28.3943  -32.6841   25.0422 H   0  0  0  0  0  0
  -28.0608  -31.8614   26.5585 H   0  0  0  0  0  0
  -28.2572  -38.0058   24.7493 H   0  0  0  0  0  0
  -28.1077  -36.2580   24.6327 H   0  0  0  0  0  0
  -27.2276  -37.1427   25.8870 H   0  0  0  0  0  0
  -20.9662  -29.8717   21.6583 H   0  0  0  0  0  0
  -26.0116  -38.2733   24.1391 H   0  0  0  0  0  0
  -30.3748  -22.2667   18.7811 H   0  0  0  0  0  0
  -27.9216  -17.7486   20.2665 H   0  0  0  0  0  0
  -28.7821  -17.9427   21.7614 H   0  0  0  0  0  0
  -30.2007  -19.0275   17.9897 H   0  0  0  0  0  0
  -31.6283  -19.7733   18.6470 H   0  0  0  0  0  0
  -31.7353  -17.3764   19.0444 H   0  0  0  0  0  0
  -31.6584  -18.1574   20.5845 H   0  0  0  0  0  0
  -27.1780  -23.8604   21.1332 H   0  0  0  0  0  0
  -27.0991  -23.8640   19.4282 H   0  0  0  0  0  0
  -27.3975  -20.9346   21.3398 H   0  0  0  0  0  0
  1 25  1  0  0  0
  1 30  2  0  0  0
  1 80  1  0  0  0
  2  3  1  0  0  0
  2 25  1  0  0  0
  2 81  1  0  0  0
  2 82  1  0  0  0
  3  4  1  0  0  0
  3 83  1  0  0  0
  3 84  1  0  0  0
  4  5  1  0  0  0
  4 85  1  0  0  0
  4 86  1  0  0  0
  5  6  1  0  0  0
  5 26  1  0  0  0
  5 87  1  0  0  0
  6 25  1  0  0  0
  6 88  1  0  0  0
  6 89  1  0  0  0
  7  8  2  0  0  0
  7 26  1  0  0  0
  7 29  1  0  0  0
  8  9  1  0  0  0
  8 22  1  0  0  0
  9 10  1  0  0  0
  9 27  2  0  0  0
 10 11  2  0  0  0
 10 15  1  0  0  0
 11 12  1  0  0  0
 11 90  1  0  0  0
 12 13  2  0  0  0
 12 91  1  0  0  0
 13 14  1  0  0  0
 13 31  1  0  0  0
 14 15  2  0  0  0
 14 92  1  0  0  0
 15 93  1  0  0  0
 16 17  2  0  0  0
 16 21  1  0  0  0
 16 31  1  0  0  0
 17 18  1  0  0  0
 17 94  1  0  0  0
 18 19  2  0  0  0
 18 95  1  0  0  0
 19 20  1  0  0  0
 19 24  1  0  0  0
 20 21  2  0  0  0
 20 96  1  0  0  0
 21 23  1  0  0  0
 22 28  1  0  0  0
 22 32  2  0  0  0
 26 27  1  0  0  0
 28 97  1  0  0  0
 28 98  1  0  0  0
 29 99  1  0  0  0
 29100  1  0  0  0
 33 34  1  0  0  0
 33 66  1  0  0  0
 33 70  2  0  0  0
 34 36  1  0  0  0
 34 59  1  0  0  0
 34101  1  0  0  0
 35 44  2  0  0  0
 35 45  1  0  0  0
 35 68  1  0  0  0
 36 56  1  0  0  0
 36102  1  0  0  0
 37 39  1  0  0  0
 37 47  1  0  0  0
 37 66  1  0  0  0
 37103  1  0  0  0
 38 43  2  0  0  0
 38 46  1  0  0  0
 38 47  1  0  0  0
 39 64  1  0  0  0
 39 67  2  0  0  0
 40 52  1  0  0  0
 40 53  2  0  0  0
 40 58  1  0  0  0
 41104  1  0  0  0
 41105  1  0  0  0
 41106  1  0  0  0
 41 48  1  0  0  0
 42 43  1  0  0  0
 42 66  1  0  0  0
 42107  1  0  0  0
 42108  1  0  0  0
 43 44  1  0  0  0
 44109  1  0  0  0
 45 46  2  0  0  0
 45110  1  0  0  0
 46111  1  0  0  0
 47112  1  0  0  0
 47113  1  0  0  0
 48 56  1  0  0  0
 48 65  1  0  0  0
 48114  1  0  0  0
 49 50  1  0  0  0
 49 53  1  0  0  0
 49 64  1  0  0  0
 49115  1  0  0  0
 50 51  1  0  0  0
 50116  1  0  0  0
 50117  1  0  0  0
 51 52  1  0  0  0
 51118  1  0  0  0
 51119  1  0  0  0
 52120  1  0  0  0
 52121  1  0  0  0
 53 54  1  0  0  0
 54 55  2  0  0  0
 54122  1  0  0  0
 55 57  1  0  0  0
 55123  1  0  0  0
 56 69  2  0  0  0
 57 58  2  0  0  0
 57124  1  0  0  0
 58125  1  0  0  0
 59 60  1  0  0  0
 59 61  1  0  0  0
 59 62  1  0  0  0
 60126  1  0  0  0
 60127  1  0  0  0
 60128  1  0  0  0
 61129  1  0  0  0
 61130  1  0  0  0
 61131  1  0  0  0
 62132  1  0  0  0
 62133  1  0  0  0
 62134  1  0  0  0
 63 65  1  0  0  0
 63135  1  0  0  0
 63136  1  0  0  0
 63137  1  0  0  0
 64138  1  0  0  0
 65139  1  0  0  0
 68 77  1  0  0  0
 71 72  2  0  0  0
 71 78  1  0  0  0
 71140  1  0  0  0
 72 77  1  0  0  0
 72 79  1  0  0  0
 73 74  1  0  0  0
 73 78  1  0  0  0
 73 79  2  0  0  0
 74 80  1  0  0  0
 74141  1  0  0  0
 74142  1  0  0  0
 75 76  1  0  0  0
 75 78  1  0  0  0
 75143  1  0  0  0
 75144  1  0  0  0
 76 80  1  0  0  0
 76145  1  0  0  0
 76146  1  0  0  0
 77147  1  0  0  0
 77148  1  0  0  0
 79149  1  0  0  0
M  CHG  1  79   1
M  ISO  4   1 100  68 101  77 101  80 100
M  END
> <chiral flag>
0

> <version>
0

> <s_m_source_file>
/data/baiqing/PycharmProjects/Reinvent-master-3.2/result/LINK_invent/BTK/process_docking_weight1_custom_sum_contain_oxygen_bond_distance_aromatic_linkinvent_7_9_3/rearranged_h_0180.sdf

> <i_m_source_file_index>
49

> <r_mmod_Potential_Energy-OPLS-2005>
1780.43981933594

> <r_mmod_Stretch_Energy-OPLS-2005>
751.850708007812

> <r_mmod_Bend_Energy-OPLS-2005>
562.943176269531

> <r_mmod_Torsional_Energy-OPLS-2005>
295.095245361328

> <r_mmod_Improper_Torsional_Energy-OPLS-2005>
17.2411766052246

> <r_mmod_Van_der_Waal_Energy-OPLS-2005>
121.989524841309

> <r_mmod_Electrostatic_Energy-OPLS-2005>
-209.671173095703

> <r_mmod_Solvation_Energy-OPLS-2005>
-439.942718505859

> <b_mmod_Minimization_Converged-OPLS-2005>
0

> <r_mmod_RMS_Derivative-OPLS-2005>
1.40394377708435

$$$$
49
                    3D
 Structure written by MMmdl.
163172  0  0  1  0            999 V2000
  -28.7127  -16.7221   20.2620 C   0  0  0  0  0  0
  -29.9548  -14.0952   19.5214 C   0  0  0  0  0  0
  -29.4530  -13.0200   18.4569 C   0  0  0  0  0  0
  -28.1836  -12.3091   18.9269 C   0  0  0  0  0  0
  -27.4174  -13.3149   19.7870 C   0  0  2  0  0  0
  -28.2072  -14.0111   20.9010 C   0  0  0  0  0  0
  -25.1440  -13.8077   20.5721 C   0  0  0  0  0  0
  -24.1069  -13.0203   20.9434 C   0  0  0  0  0  0
  -24.5897  -11.6745   20.8887 C   0  0  0  0  0  0
  -23.8787  -10.4132   21.0507 C   0  0  0  0  0  0
  -24.3464   -9.4094   21.9244 C   0  0  0  0  0  0
  -23.6204   -8.2107   22.0763 C   0  0  0  0  0  0
  -22.4193   -8.0151   21.3539 C   0  0  0  0  0  0
  -21.9774   -9.0089   20.4640 C   0  0  0  0  0  0
  -22.7030  -10.1985   20.3086 C   0  0  0  0  0  0
  -21.6808   -6.0665   22.5290 C   0  0  0  0  0  0
  -21.3979   -6.5599   23.8213 C   0  0  0  0  0  0
  -21.3648   -5.6769   24.9187 C   0  0  0  0  0  0
  -21.6045   -4.3031   24.7247 C   0  0  0  0  0  0
  -21.8825   -3.8106   23.4376 C   0  0  0  0  0  0
  -21.9180   -4.6906   22.3423 C   0  0  0  0  0  0
  -22.7186  -13.4999   21.2096 C   0  0  0  0  0  0
  -22.1658   -4.2099   21.1000 F   0  0  0  0  0  0
  -21.5636   -3.4526   25.7767 F   0  0  0  0  0  0
  -28.8564  -15.1248   20.1657 N   0  0  0  0  0  0
  -26.1622  -12.9265   20.2957 N   0  0  0  0  0  0
  -25.8723  -11.6386   20.5589 N   0  0  0  0  0  0
  -21.9910  -12.8014   22.0692 N   0  0  0  0  0  0
  -25.2977  -15.1853   20.4056 N   0  0  0  0  0  0
  -30.0178  -16.7613   20.2087 O   0  0  0  0  0  0
  -21.6572   -6.8762   21.4235 O   0  0  0  0  0  0
  -22.2953  -14.5334   20.6924 O   0  0  0  0  0  0
  -24.6495  -31.8312   22.8601 C   0  0  0  0  0  0
  -25.9038  -32.4627   23.6599 C   0  0  1  0  0  0
  -26.6045  -27.9594   21.3620 C   0  0  0  0  0  0
  -25.5362  -33.8272   24.0867 N   0  0  0  0  0  0
  -23.8267  -29.5843   21.1833 C   0  0  2  0  0  0
  -25.1989  -29.0509   19.5484 C   0  0  0  0  0  0
  -23.5710  -27.8084   21.9901 C   0  0  0  0  0  0
  -18.3846  -27.3161   23.0377 C   0  0  0  0  0  0
  -24.1428  -36.7288   23.2709 C   0  0  0  0  0  0
  -25.9427  -31.0348   20.9549 C   0  0  0  0  0  0
  -26.2413  -29.7416   20.2331 C   0  0  0  0  0  0
  -27.2863  -28.9788   20.7447 C   0  0  0  0  0  0
  -26.0687  -27.0540   20.3548 C   0  0  0  0  0  0
  -25.2517  -27.6603   19.3904 C   0  0  0  0  0  0
  -23.8769  -29.6101   19.6890 C   0  0  0  0  0  0
  -25.4112  -36.2943   24.0223 C   0  0  1  0  0  0
  -21.1683  -27.4178   23.8438 C   0  0  2  0  0  0
  -20.6816  -25.9916   23.8042 C   0  0  0  0  0  0
  -19.7936  -25.5334   22.6785 C   0  0  0  0  0  0
  -18.3522  -25.9221   22.7193 C   0  0  0  0  0  0
  -19.7679  -28.1968   23.7649 C   0  0  0  0  0  0
  -19.7483  -29.9318   23.5639 C   0  0  0  0  0  0
  -18.5756  -30.6579   22.6611 C   0  0  0  0  0  0
  -25.9059  -34.9474   23.4570 C   0  0  0  0  0  0
  -17.3512  -29.7997   21.9882 C   0  0  0  0  0  0
  -17.2254  -28.1733   22.1501 C   0  0  0  0  0  0
  -26.4595  -31.7165   24.9820 C   0  0  0  0  0  0
  -25.4115  -31.5142   26.1247 C   0  0  0  0  0  0
  -27.1838  -30.3847   24.6317 C   0  0  0  0  0  0
  -27.5870  -32.5574   25.6453 C   0  0  0  0  0  0
  -27.5541  -37.1720   24.8466 C   0  0  0  0  0  0
  -22.5440  -27.2924   22.9569 N   0  0  0  0  0  0
  -26.4219  -37.3730   23.9465 N   0  0  0  0  0  0
  -24.7185  -30.9006   21.7442 N   0  0  0  0  0  0
  -24.3181  -27.0104   22.4147 O   0  0  0  0  0  0
  -26.0302  -28.5631   22.6453 O   0  0  0  0  0  0
  -26.6051  -34.9297   22.4421 O   0  0  0  0  0  0
  -23.5917  -32.1382   23.4287 O   0  0  0  0  0  0
  -20.3717  -26.2470   20.0811 C   0  0  0  0  0  0
  -19.5233  -28.6544   21.5587 C   0  0  0  0  0  0
  -21.1369  -28.6317   21.4798 C   0  0  0  0  0  0
  -21.8798  -25.7386   20.3443 C   0  0  0  0  0  0
  -25.2062  -20.9624   19.3622 C   0  0  0  0  0  0
  -25.3054  -21.0300   21.2348 C   0  0  0  0  0  0
  -26.6395  -19.4804   19.3461 C   0  0  0  0  0  0
  -26.7490  -19.5565   21.1951 C   0  0  0  0  0  0
  -24.5424  -22.5964   20.2789 C   0  0  0  0  0  0
  -17.7201  -29.1335   24.1804 C   0  0  0  0  0  0
  -22.3252  -29.6664   23.0074 C   0  0  0  0  0  0
  -24.4569  -29.2527   23.6415 C   0  0  0  0  0  0
  -19.4234  -27.4436   20.5703 N   0  0  0  0  0  0
  -21.7691  -27.3616   20.4716 N   0  0  0  0  0  0
  -27.4167  -18.1215   20.2836 N   0  0  0  0  0  0
  -22.9538  -24.0810   20.2629 N   0  0  0  0  0  0
  -30.6911  -14.7055   18.9969 H   0  0  0  0  0  0
  -30.5554  -13.6118   20.2951 H   0  0  0  0  0  0
  -30.2392  -12.3020   18.2197 H   0  0  0  0  0  0
  -29.2286  -13.5430   17.5260 H   0  0  0  0  0  0
  -28.4514  -11.4415   19.5318 H   0  0  0  0  0  0
  -27.5889  -11.9481   18.0866 H   0  0  0  0  0  0
  -27.1391  -14.0609   19.0371 H   0  0  0  0  0  0
  -28.8440  -13.3323   21.4725 H   0  0  0  0  0  0
  -27.5599  -14.4700   21.6489 H   0  0  0  0  0  0
  -25.2595   -9.5628   22.4825 H   0  0  0  0  0  0
  -23.9933   -7.4492   22.7464 H   0  0  0  0  0  0
  -21.0714   -8.8567   19.8943 H   0  0  0  0  0  0
  -22.3472  -10.9534   19.6215 H   0  0  0  0  0  0
  -21.1956   -7.6107   23.9700 H   0  0  0  0  0  0
  -21.1472   -6.0507   25.9087 H   0  0  0  0  0  0
  -22.0620   -2.7570   23.2890 H   0  0  0  0  0  0
  -22.3560  -11.9682   22.5061 H   0  0  0  0  0  0
  -21.0542  -13.1037   22.2954 H   0  0  0  0  0  0
  -24.5098  -15.8154   20.5109 H   0  0  0  0  0  0
  -26.0830  -15.6113   19.9365 H   0  0  0  0  0  0
  -26.7623  -32.5757   23.0085 H   0  0  0  0  0  0
  -24.9039  -33.9004   24.8705 H   0  0  0  0  0  0
  -22.9111  -30.1257   20.9561 H   0  0  0  0  0  0
  -23.3716  -35.9584   23.3241 H   0  0  0  0  0  0
  -24.3451  -36.9158   22.2152 H   0  0  0  0  0  0
  -23.7182  -37.6382   23.6967 H   0  0  0  0  0  0
  -25.7970  -31.8231   20.2144 H   0  0  0  0  0  0
  -26.8365  -31.3038   21.5016 H   0  0  0  0  0  0
  -27.9668  -29.5281   21.3794 H   0  0  0  0  0  0
  -25.8187  -26.0327   20.6071 H   0  0  0  0  0  0
  -24.4761  -27.0848   18.9031 H   0  0  0  0  0  0
  -23.8382  -30.6098   19.2452 H   0  0  0  0  0  0
  -23.1273  -29.0015   19.1855 H   0  0  0  0  0  0
  -25.1397  -36.1482   25.0705 H   0  0  0  0  0  0
  -21.5275  -27.5966   24.8590 H   0  0  0  0  0  0
  -20.1365  -25.7984   24.7303 H   0  0  0  0  0  0
  -21.5306  -25.3080   23.8807 H   0  0  0  0  0  0
  -19.9443  -24.4816   22.4343 H   0  0  0  0  0  0
  -20.4567  -26.1192   22.1906 H   0  0  0  0  0  0
  -17.8466  -25.7112   21.7762 H   0  0  0  0  0  0
  -17.8241  -25.3792   23.5029 H   0  0  0  0  0  0
  -20.3871  -30.6311   24.0789 H   0  0  0  0  0  0
  -18.5854  -31.7338   22.5521 H   0  0  0  0  0  0
  -16.6053  -30.3238   21.4061 H   0  0  0  0  0  0
  -16.4358  -27.6469   21.6323 H   0  0  0  0  0  0
  -24.3876  -31.3525   25.7954 H   0  0  0  0  0  0
  -25.3406  -32.4061   26.7486 H   0  0  0  0  0  0
  -25.6891  -30.6967   26.7912 H   0  0  0  0  0  0
  -26.6722  -29.4854   24.9660 H   0  0  0  0  0  0
  -28.1589  -30.3002   25.1138 H   0  0  0  0  0  0
  -27.3993  -30.3133   23.5689 H   0  0  0  0  0  0
  -27.2394  -33.5301   25.9950 H   0  0  0  0  0  0
  -28.4023  -32.7490   24.9461 H   0  0  0  0  0  0
  -28.0123  -32.0589   26.5180 H   0  0  0  0  0  0
  -28.2521  -38.0055   24.7569 H   0  0  0  0  0  0
  -28.1059  -36.2587   24.6187 H   0  0  0  0  0  0
  -27.2291  -37.1258   25.8874 H   0  0  0  0  0  0
  -22.9657  -26.4140   23.2181 H   0  0  0  0  0  0
  -26.0036  -38.2744   24.1596 H   0  0  0  0  0  0
  -19.7517  -25.4984   19.6102 H   0  0  0  0  0  0
  -24.2894  -20.3820   19.2068 H   0  0  0  0  0  0
  -25.3600  -21.3685   18.3615 H   0  0  0  0  0  0
  -25.5693  -21.5111   22.1775 H   0  0  0  0  0  0
  -24.4156  -20.4660   21.5362 H   0  0  0  0  0  0
  -27.5154  -19.9986   18.9437 H   0  0  0  0  0  0
  -26.3097  -18.9033   18.4811 H   0  0  0  0  0  0
  -26.5461  -19.0604   22.1450 H   0  0  0  0  0  0
  -27.6623  -20.1119   21.4311 H   0  0  0  0  0  0
  -25.3804  -23.2920   20.2179 H   0  0  0  0  0  0
  -18.2003  -29.1427   25.1739 H   0  0  0  0  0  0
  -16.9201  -28.4233   24.4527 H   0  0  0  0  0  0
  -17.1161  -30.0453   24.3246 H   0  0  0  0  0  0
  -22.0136  -29.6142   24.0427 H   0  0  0  0  0  0
  -22.0834  -30.6923   22.7601 H   0  0  0  0  0  0
  -24.3468  -28.4560   24.3835 H   0  0  0  0  0  0
  -24.7312  -29.9402   24.3952 H   0  0  0  0  0  0
  -22.1776  -23.4471   20.0821 H   0  0  0  0  0  0
  1 25  1  0  0  0
  1 30  2  0  0  0
  1 85  1  0  0  0
  2  3  1  0  0  0
  2 25  1  0  0  0
  2 87  1  0  0  0
  2 88  1  0  0  0
  3  4  1  0  0  0
  3 89  1  0  0  0
  3 90  1  0  0  0
  4  5  1  0  0  0
  4 91  1  0  0  0
  4 92  1  0  0  0
  5  6  1  0  0  0
  5 26  1  0  0  0
  5 93  1  0  0  0
  6 25  1  0  0  0
  6 94  1  0  0  0
  6 95  1  0  0  0
  7  8  2  0  0  0
  7 26  1  0  0  0
  7 29  1  0  0  0
  8  9  1  0  0  0
  8 22  1  0  0  0
  9 10  1  0  0  0
  9 27  2  0  0  0
 10 11  2  0  0  0
 10 15  1  0  0  0
 11 12  1  0  0  0
 11 96  1  0  0  0
 12 13  2  0  0  0
 12 97  1  0  0  0
 13 14  1  0  0  0
 13 31  1  0  0  0
 14 15  2  0  0  0
 14 98  1  0  0  0
 15 99  1  0  0  0
 16 17  2  0  0  0
 16 21  1  0  0  0
 16 31  1  0  0  0
 17 18  1  0  0  0
 17100  1  0  0  0
 18 19  2  0  0  0
 18101  1  0  0  0
 19 20  1  0  0  0
 19 24  1  0  0  0
 20 21  2  0  0  0
 20102  1  0  0  0
 21 23  1  0  0  0
 22 28  1  0  0  0
 22 32  2  0  0  0
 26 27  1  0  0  0
 28103  1  0  0  0
 28104  1  0  0  0
 29105  1  0  0  0
 29106  1  0  0  0
 33 34  1  0  0  0
 33 66  1  0  0  0
 33 70  2  0  0  0
 34 36  1  0  0  0
 34 59  1  0  0  0
 34107  1  0  0  0
 35 44  2  0  0  0
 35 45  1  0  0  0
 35 68  1  0  0  0
 36 56  1  0  0  0
 36108  1  0  0  0
 37 39  1  0  0  0
 37 47  1  0  0  0
 37 66  1  0  0  0
 37109  1  0  0  0
 38 43  2  0  0  0
 38 46  1  0  0  0
 38 47  1  0  0  0
 39 64  1  0  0  0
 39 67  2  0  0  0
 40 52  1  0  0  0
 40 53  2  0  0  0
 40 58  1  0  0  0
 41110  1  0  0  0
 41111  1  0  0  0
 41112  1  0  0  0
 41 48  1  0  0  0
 42 43  1  0  0  0
 42 66  1  0  0  0
 42113  1  0  0  0
 42114  1  0  0  0
 43 44  1  0  0  0
 44115  1  0  0  0
 45 46  2  0  0  0
 45116  1  0  0  0
 46117  1  0  0  0
 47118  1  0  0  0
 47119  1  0  0  0
 48 56  1  0  0  0
 48 65  1  0  0  0
 48120  1  0  0  0
 49 50  1  0  0  0
 49 53  1  0  0  0
 49 64  1  0  0  0
 49121  1  0  0  0
 50 51  1  0  0  0
 50122  1  0  0  0
 50123  1  0  0  0
 51 52  1  0  0  0
 51124  1  0  0  0
 51125  1  0  0  0
 52126  1  0  0  0
 52127  1  0  0  0
 53 54  1  0  0  0
 54 55  2  0  0  0
 54128  1  0  0  0
 55 57  1  0  0  0
 55129  1  0  0  0
 56 69  2  0  0  0
 57 58  2  0  0  0
 57130  1  0  0  0
 58131  1  0  0  0
 59 60  1  0  0  0
 59 61  1  0  0  0
 59 62  1  0  0  0
 60132  1  0  0  0
 60133  1  0  0  0
 60134  1  0  0  0
 61135  1  0  0  0
 61136  1  0  0  0
 61137  1  0  0  0
 62138  1  0  0  0
 62139  1  0  0  0
 62140  1  0  0  0
 63 65  1  0  0  0
 63141  1  0  0  0
 63142  1  0  0  0
 63143  1  0  0  0
 64144  1  0  0  0
 65145  1  0  0  0
 68 82  1  0  0  0
 71 74  2  0  0  0
 71 83  1  0  0  0
 71146  1  0  0  0
 72 73  1  0  0  0
 72 80  1  0  0  0
 72 83  2  0  0  0
 73 81  1  0  0  0
 73 84  2  0  0  0
 74 84  1  0  0  0
 74 86  1  0  0  0
 75 77  1  0  0  0
 75 79  1  0  0  0
 75147  1  0  0  0
 75148  1  0  0  0
 76 78  1  0  0  0
 76 79  1  0  0  0
 76149  1  0  0  0
 76150  1  0  0  0
 77 85  1  0  0  0
 77151  1  0  0  0
 77152  1  0  0  0
 78 85  1  0  0  0
 78153  1  0  0  0
 78154  1  0  0  0
 79 86  1  0  0  0
 79155  1  0  0  0
 80156  1  0  0  0
 80157  1  0  0  0
 80158  1  0  0  0
 81 82  1  0  0  0
 81159  1  0  0  0
 81160  1  0  0  0
 82161  1  0  0  0
 82162  1  0  0  0
 86163  1  0  0  0
M  ISO  4   1 100  68 101  82 101  85 100
M  END
> <chiral flag>
0

> <version>
0

> <s_m_source_file>
/data/baiqing/PycharmProjects/Reinvent-master-3.2/result/LINK_invent/BTK/process_docking_weight1_custom_sum_contain_oxygen_bond_distance_aromatic_linkinvent_7_9_3/rearranged_h_0180.sdf

> <i_m_source_file_index>
50

> <r_mmod_Potential_Energy-OPLS-2005>
28215.033203125

> <r_mmod_Stretch_Energy-OPLS-2005>
12072.9091796875

> <r_mmod_Bend_Energy-OPLS-2005>
3461.79370117188

> <r_mmod_Torsional_Energy-OPLS-2005>
926.292602539062

> <r_mmod_Improper_Torsional_Energy-OPLS-2005>
106.501541137695

> <r_mmod_Van_der_Waal_Energy-OPLS-2005>
3860.30981445312

> <r_mmod_Electrostatic_Energy-OPLS-2005>
-265.476257324219

> <r_mmod_Solvation_Energy-OPLS-2005>
-231.975494384766

> <b_mmod_Minimization_Converged-OPLS-2005>
0

> <r_mmod_RMS_Derivative-OPLS-2005>
1.44099104404449

$$$$
50
                    3D
 Structure written by MMmdl.
164173  0  0  1  0            999 V2000
  -30.6330  -14.7423   20.4012 C   0  0  0  0  0  0
  -30.4238  -12.4415   19.4814 C   0  0  0  0  0  0
  -29.5080  -12.4834   18.2385 C   0  0  0  0  0  0
  -28.0352  -12.3011   18.6507 C   0  0  0  0  0  0
  -27.6308  -13.2204   19.8310 C   0  0  2  0  0  0
  -28.6741  -13.2169   20.9679 C   0  0  0  0  0  0
  -25.2536  -13.8152   20.5750 C   0  0  0  0  0  0
  -24.1799  -13.0408   20.9208 C   0  0  0  0  0  0
  -24.6380  -11.6891   20.8750 C   0  0  0  0  0  0
  -23.9048  -10.4287   21.0435 C   0  0  0  0  0  0
  -24.3611   -9.4204   21.9198 C   0  0  0  0  0  0
  -23.6289   -8.2238   22.0762 C   0  0  0  0  0  0
  -22.4271   -8.0279   21.3549 C   0  0  0  0  0  0
  -21.9899   -9.0260   20.4651 C   0  0  0  0  0  0
  -22.7231  -10.2143   20.3071 C   0  0  0  0  0  0
  -21.6853   -6.0732   22.5278 C   0  0  0  0  0  0
  -21.4014   -6.5640   23.8210 C   0  0  0  0  0  0
  -21.3658   -5.6793   24.9171 C   0  0  0  0  0  0
  -21.6038   -4.3054   24.7226 C   0  0  0  0  0  0
  -21.8828   -3.8143   23.4349 C   0  0  0  0  0  0
  -21.9201   -4.6957   22.3402 C   0  0  0  0  0  0
  -22.7830  -13.5210   21.1865 C   0  0  0  0  0  0
  -22.1675   -4.2139   21.0981 F   0  0  0  0  0  0
  -21.5619   -3.4544   25.7747 F   0  0  0  0  0  0
  -29.9833  -13.5281   20.3859 N   0  0  0  0  0  0
  -26.2904  -12.9322   20.3227 N   0  0  0  0  0  0
  -25.9297  -11.6484   20.5722 N   0  0  0  0  0  0
  -22.0484  -12.8206   22.0439 N   0  0  0  0  0  0
  -25.4309  -15.1860   20.4334 N   0  0  0  0  0  0
  -31.8509  -14.7696   20.1999 O   0  0  0  0  0  0
  -21.6636   -6.8878   21.4242 O   0  0  0  0  0  0
  -22.3518  -14.5508   20.6712 O   0  0  0  0  0  0
  -24.6257  -31.8568   23.1976 C   0  0  0  0  0  0
  -25.9095  -32.4769   23.8320 C   0  0  1  0  0  0
  -27.2386  -27.2996   20.1237 C   0  0  0  0  0  0
  -25.5899  -33.8573   24.2251 N   0  0  0  0  0  0
  -23.4213  -30.4744   21.5408 C   0  0  2  0  0  0
  -24.8717  -28.9189   20.1078 C   0  0  0  0  0  0
  -22.7472  -29.4598   22.4938 C   0  0  0  0  0  0
  -18.0283  -28.1384   22.8482 C   0  0  0  0  0  0
  -24.1489  -36.7284   23.2641 C   0  0  0  0  0  0
  -25.9604  -30.7805   21.3700 C   0  0  0  0  0  0
  -26.0352  -29.4037   20.7157 C   0  0  0  0  0  0
  -27.2146  -28.6031   20.7151 C   0  0  0  0  0  0
  -26.0517  -26.8605   19.4972 C   0  0  0  0  0  0
  -24.8831  -27.6544   19.4917 C   0  0  0  0  0  0
  -23.6365  -29.7993   20.1575 C   0  0  0  0  0  0
  -25.4115  -36.3083   24.0328 C   0  0  1  0  0  0
  -20.5884  -28.3682   23.1290 C   0  0  2  0  0  0
  -20.6768  -26.9407   22.5415 C   0  0  0  0  0  0
  -19.5748  -26.6383   21.5215 C   0  0  0  0  0  0
  -18.1927  -26.7925   22.1623 C   0  0  0  0  0  0
  -19.1538  -28.8849   23.2880 C   0  0  0  0  0  0
  -18.9458  -30.1454   23.8892 C   0  0  0  0  0  0
  -17.6462  -30.6591   24.0561 C   0  0  0  0  0  0
  -25.9051  -34.9450   23.5099 C   0  0  0  0  0  0
  -16.5353  -29.9086   23.6337 C   0  0  0  0  0  0
  -16.7273  -28.6504   23.0353 C   0  0  0  0  0  0
  -26.4477  -31.6590   25.0702 C   0  0  0  0  0  0
  -25.3707  -31.3719   26.1425 C   0  0  0  0  0  0
  -27.0321  -30.3018   24.6161 C   0  0  0  0  0  0
  -27.6044  -32.4322   25.7461 C   0  0  0  0  0  0
  -27.5585  -37.1795   24.8466 C   0  0  0  0  0  0
  -21.4183  -29.3027   22.3678 N   0  0  0  0  0  0
  -26.4295  -37.3778   23.9411 N   0  0  0  0  0  0
  -24.6880  -31.0557   22.0931 N   0  0  0  0  0  0
  -23.4191  -28.8164   23.3039 O   0  0  0  0  0  0
  -28.3856  -26.4925   20.2176 O   0  0  0  0  0  0
  -26.5640  -34.8925   22.4683 O   0  0  0  0  0  0
  -23.5417  -32.1377   23.7292 O   0  0  0  0  0  0
  -28.6065  -17.7832   19.5568 C   0  0  0  0  0  0
  -29.5762  -18.4355   20.2883 C   0  0  0  0  0  0
  -29.8633  -16.1319   20.3592 C   0  0  0  0  0  0
  -26.1895  -18.6570   19.0611 C   0  0  0  0  0  0
  -26.4654  -17.6041   18.0157 C   0  0  0  0  0  0
  -27.6072  -18.3925   18.6149 C   0  0  0  0  0  0
  -31.0696  -20.2729   19.3889 C   0  0  0  0  0  0
  -31.5996  -17.5242   21.5526 C   0  0  0  0  0  0
  -28.2678  -23.7600   20.3550 C   0  0  0  0  0  0
  -28.7817  -21.1302   20.2604 C   0  0  0  0  0  0
  -28.5620  -25.1518   19.5948 C   0  0  0  0  0  0
  -29.9259  -19.9796   20.3767 C   0  0  1  0  0  0
  -28.7587  -16.3902   19.6496 N   0  0  0  0  0  0
  -30.3795  -17.3481   20.7795 N   0  0  0  0  0  0
  -29.2331  -22.5895   20.0963 N   0  3  0  0  0  0
  -31.4672  -12.5478   19.1775 H   0  0  0  0  0  0
  -30.3532  -11.4764   19.9857 H   0  0  0  0  0  0
  -29.7943  -11.7030   17.5331 H   0  0  0  0  0  0
  -29.6316  -13.4323   17.7145 H   0  0  0  0  0  0
  -27.8972  -11.2572   18.9344 H   0  0  0  0  0  0
  -27.3791  -12.4745   17.7969 H   0  0  0  0  0  0
  -27.5932  -14.2163   19.4020 H   0  0  0  0  0  0
  -28.7015  -12.2492   21.4714 H   0  0  0  0  0  0
  -28.4101  -13.9573   21.7266 H   0  0  0  0  0  0
  -25.2768   -9.5664   22.4762 H   0  0  0  0  0  0
  -23.9999   -7.4613   22.7471 H   0  0  0  0  0  0
  -21.0838   -8.8786   19.8943 H   0  0  0  0  0  0
  -22.3705  -10.9689   19.6177 H   0  0  0  0  0  0
  -21.2009   -7.6148   23.9709 H   0  0  0  0  0  0
  -21.1465   -6.0525   25.9074 H   0  0  0  0  0  0
  -22.0609   -2.7605   23.2859 H   0  0  0  0  0  0
  -22.4140  -11.9895   22.4842 H   0  0  0  0  0  0
  -21.1109  -13.1241   22.2660 H   0  0  0  0  0  0
  -24.6734  -15.8501   20.5459 H   0  0  0  0  0  0
  -26.3056  -15.6192   20.1544 H   0  0  0  0  0  0
  -26.7159  -32.5432   23.1060 H   0  0  0  0  0  0
  -25.0027  -33.9711   25.0380 H   0  0  0  0  0  0
  -22.7158  -31.2945   21.3936 H   0  0  0  0  0  0
  -23.3768  -35.9602   23.3294 H   0  0  0  0  0  0
  -24.3576  -36.8918   22.2059 H   0  0  0  0  0  0
  -23.7223  -37.6474   23.6669 H   0  0  0  0  0  0
  -26.0906  -31.5414   20.5996 H   0  0  0  0  0  0
  -26.8402  -30.8332   21.9993 H   0  0  0  0  0  0
  -28.1074  -28.9706   21.2014 H   0  0  0  0  0  0
  -26.0004  -25.8856   19.0355 H   0  0  0  0  0  0
  -23.9870  -27.2751   19.0203 H   0  0  0  0  0  0
  -23.7497  -30.5727   19.3964 H   0  0  0  0  0  0
  -22.7563  -29.2242   19.8629 H   0  0  0  0  0  0
  -25.1302  -36.1934   25.0821 H   0  0  0  0  0  0
  -20.9972  -28.3258   24.1415 H   0  0  0  0  0  0
  -20.5678  -26.2294   23.3612 H   0  0  0  0  0  0
  -21.6636  -26.7435   22.1215 H   0  0  0  0  0  0
  -19.6909  -25.6293   21.1251 H   0  0  0  0  0  0
  -19.6693  -27.3194   20.6746 H   0  0  0  0  0  0
  -17.4200  -26.6676   21.4023 H   0  0  0  0  0  0
  -18.0323  -26.0069   22.9023 H   0  0  0  0  0  0
  -19.7930  -30.7273   24.2262 H   0  0  0  0  0  0
  -17.5011  -31.6273   24.5159 H   0  0  0  0  0  0
  -15.5352  -30.2986   23.7656 H   0  0  0  0  0  0
  -15.8670  -28.0824   22.7064 H   0  0  0  0  0  0
  -24.5891  -30.7064   25.7740 H   0  0  0  0  0  0
  -24.8881  -32.2880   26.4843 H   0  0  0  0  0  0
  -25.8026  -30.8898   27.0205 H   0  0  0  0  0  0
  -26.2893  -29.6765   24.1199 H   0  0  0  0  0  0
  -27.4035  -29.7279   25.4659 H   0  0  0  0  0  0
  -27.8750  -30.4305   23.9368 H   0  0  0  0  0  0
  -27.2672  -33.3630   26.2027 H   0  0  0  0  0  0
  -28.3847  -32.6870   25.0279 H   0  0  0  0  0  0
  -28.0719  -31.8457   26.5378 H   0  0  0  0  0  0
  -28.2604  -38.0094   24.7533 H   0  0  0  0  0  0
  -28.1084  -36.2630   24.6275 H   0  0  0  0  0  0
  -27.2304  -37.1425   25.8869 H   0  0  0  0  0  0
  -20.9370  -29.8728   21.6863 H   0  0  0  0  0  0
  -26.0183  -38.2856   24.1418 H   0  0  0  0  0  0
  -25.8958  -18.3168   20.0516 H   0  0  0  0  0  0
  -25.7326  -19.5882   18.7337 H   0  0  0  0  0  0
  -26.1896  -17.8335   16.9886 H   0  0  0  0  0  0
  -26.3704  -16.5586   18.2961 H   0  0  0  0  0  0
  -28.0786  -19.1161   17.9527 H   0  0  0  0  0  0
  -31.9017  -19.5865   19.5400 H   0  0  0  0  0  0
  -31.4752  -21.2761   19.5122 H   0  0  0  0  0  0
  -30.7413  -20.1642   18.3553 H   0  0  0  0  0  0
  -32.4404  -17.6788   20.8780 H   0  0  0  0  0  0
  -31.7951  -16.6484   22.1716 H   0  0  0  0  0  0
  -31.5098  -18.3832   22.2158 H   0  0  0  0  0  0
  -27.2573  -23.4450   20.0935 H   0  0  0  0  0  0
  -28.2546  -23.9363   21.4300 H   0  0  0  0  0  0
  -28.1430  -21.0686   21.1423 H   0  0  0  0  0  0
  -28.1306  -20.9232   19.4143 H   0  0  0  0  0  0
  -28.0936  -25.1395   18.6111 H   0  0  0  0  0  0
  -29.6278  -25.1413   19.3661 H   0  0  0  0  0  0
  -30.3493  -20.1359   21.3692 H   0  0  0  0  0  0
  -30.0394  -22.7331   20.6852 H   0  0  0  0  0  0
  -29.5604  -22.6685   19.1451 H   0  0  0  0  0  0
  1 25  1  0  0  0
  1 30  2  0  0  0
  1 73  1  0  0  0
  2  3  1  0  0  0
  2 25  1  0  0  0
  2 86  1  0  0  0
  2 87  1  0  0  0
  3  4  1  0  0  0
  3 88  1  0  0  0
  3 89  1  0  0  0
  4  5  1  0  0  0
  4 90  1  0  0  0
  4 91  1  0  0  0
  5  6  1  0  0  0
  5 26  1  0  0  0
  5 92  1  0  0  0
  6 25  1  0  0  0
  6 93  1  0  0  0
  6 94  1  0  0  0
  7  8  2  0  0  0
  7 26  1  0  0  0
  7 29  1  0  0  0
  8  9  1  0  0  0
  8 22  1  0  0  0
  9 10  1  0  0  0
  9 27  2  0  0  0
 10 11  2  0  0  0
 10 15  1  0  0  0
 11 12  1  0  0  0
 11 95  1  0  0  0
 12 13  2  0  0  0
 12 96  1  0  0  0
 13 14  1  0  0  0
 13 31  1  0  0  0
 14 15  2  0  0  0
 14 97  1  0  0  0
 15 98  1  0  0  0
 16 17  2  0  0  0
 16 21  1  0  0  0
 16 31  1  0  0  0
 17 18  1  0  0  0
 17 99  1  0  0  0
 18 19  2  0  0  0
 18100  1  0  0  0
 19 20  1  0  0  0
 19 24  1  0  0  0
 20 21  2  0  0  0
 20101  1  0  0  0
 21 23  1  0  0  0
 22 28  1  0  0  0
 22 32  2  0  0  0
 26 27  1  0  0  0
 28102  1  0  0  0
 28103  1  0  0  0
 29104  1  0  0  0
 29105  1  0  0  0
 33 34  1  0  0  0
 33 66  1  0  0  0
 33 70  2  0  0  0
 34 36  1  0  0  0
 34 59  1  0  0  0
 34106  1  0  0  0
 35 44  2  0  0  0
 35 45  1  0  0  0
 35 68  1  0  0  0
 36 56  1  0  0  0
 36107  1  0  0  0
 37 39  1  0  0  0
 37 47  1  0  0  0
 37 66  1  0  0  0
 37108  1  0  0  0
 38 43  2  0  0  0
 38 46  1  0  0  0
 38 47  1  0  0  0
 39 64  1  0  0  0
 39 67  2  0  0  0
 40 52  1  0  0  0
 40 53  2  0  0  0
 40 58  1  0  0  0
 41109  1  0  0  0
 41110  1  0  0  0
 41111  1  0  0  0
 41 48  1  0  0  0
 42 43  1  0  0  0
 42 66  1  0  0  0
 42112  1  0  0  0
 42113  1  0  0  0
 43 44  1  0  0  0
 44114  1  0  0  0
 45 46  2  0  0  0
 45115  1  0  0  0
 46116  1  0  0  0
 47117  1  0  0  0
 47118  1  0  0  0
 48 56  1  0  0  0
 48 65  1  0  0  0
 48119  1  0  0  0
 49 50  1  0  0  0
 49 53  1  0  0  0
 49 64  1  0  0  0
 49120  1  0  0  0
 50 51  1  0  0  0
 50121  1  0  0  0
 50122  1  0  0  0
 51 52  1  0  0  0
 51123  1  0  0  0
 51124  1  0  0  0
 52125  1  0  0  0
 52126  1  0  0  0
 53 54  1  0  0  0
 54 55  2  0  0  0
 54127  1  0  0  0
 55 57  1  0  0  0
 55128  1  0  0  0
 56 69  2  0  0  0
 57 58  2  0  0  0
 57129  1  0  0  0
 58130  1  0  0  0
 59 60  1  0  0  0
 59 61  1  0  0  0
 59 62  1  0  0  0
 60131  1  0  0  0
 60132  1  0  0  0
 60133  1  0  0  0
 61134  1  0  0  0
 61135  1  0  0  0
 61136  1  0  0  0
 62137  1  0  0  0
 62138  1  0  0  0
 62139  1  0  0  0
 63 65  1  0  0  0
 63140  1  0  0  0
 63141  1  0  0  0
 63142  1  0  0  0
 64143  1  0  0  0
 65144  1  0  0  0
 68 81  1  0  0  0
 71 72  2  0  0  0
 71 83  1  0  0  0
 71 76  1  0  0  0
 72 82  1  0  0  0
 72 84  1  0  0  0
 73 83  2  0  0  0
 73 84  1  0  0  0
 74 75  1  0  0  0
 74 76  1  0  0  0
 74145  1  0  0  0
 74146  1  0  0  0
 75 76  1  0  0  0
 75147  1  0  0  0
 75148  1  0  0  0
 76149  1  0  0  0
 77150  1  0  0  0
 77151  1  0  0  0
 77152  1  0  0  0
 77 82  1  0  0  0
 78 84  1  0  0  0
 78153  1  0  0  0
 78154  1  0  0  0
 78155  1  0  0  0
 79 81  1  0  0  0
 79 85  1  0  0  0
 79156  1  0  0  0
 79157  1  0  0  0
 80 82  1  0  0  0
 80 85  1  0  0  0
 80158  1  0  0  0
 80159  1  0  0  0
 81160  1  0  0  0
 81161  1  0  0  0
 82162  1  0  0  0
 85163  1  0  0  0
 85164  1  0  0  0
M  CHG  1  85   1
M  ISO  4   1 100  68 101  73 100  81 101
M  END
> <chiral flag>
0

> <version>
0

> <s_m_source_file>
/data/baiqing/PycharmProjects/Reinvent-master-3.2/result/LINK_invent/BTK/process_docking_weight1_custom_sum_contain_oxygen_bond_distance_aromatic_linkinvent_7_9_3/rearranged_h_0180.sdf

> <i_m_source_file_index>
51

> <r_mmod_Potential_Energy-OPLS-2005>
169.265625

> <r_mmod_Stretch_Energy-OPLS-2005>
117.676338195801

> <r_mmod_Bend_Energy-OPLS-2005>
185.31901550293

> <r_mmod_Torsional_Energy-OPLS-2005>
261.068511962891

> <r_mmod_Improper_Torsional_Energy-OPLS-2005>
9.97065258026123

> <r_mmod_Van_der_Waal_Energy-OPLS-2005>
104.164237976074

> <r_mmod_Electrostatic_Energy-OPLS-2005>
-147.280303955078

> <r_mmod_Solvation_Energy-OPLS-2005>
-441.425354003906

> <b_mmod_Minimization_Converged-OPLS-2005>
0

> <r_mmod_RMS_Derivative-OPLS-2005>
1.91916453838348

$$$$
51
                    3D
 Structure written by MMmdl.
157166  0  0  1  0            999 V2000
  -30.6115  -14.9533   20.4386 C   0  0  0  0  0  0
  -30.4358  -12.6052   19.5052 C   0  0  0  0  0  0
  -29.5227  -12.5161   18.2654 C   0  0  0  0  0  0
  -28.0688  -12.2813   18.7042 C   0  0  0  0  0  0
  -27.6300  -13.2500   19.8340 C   0  0  2  0  0  0
  -28.6695  -13.3416   20.9709 C   0  0  0  0  0  0
  -25.2476  -13.8211   20.5724 C   0  0  0  0  0  0
  -24.1796  -13.0440   20.9224 C   0  0  0  0  0  0
  -24.6414  -11.6936   20.8759 C   0  0  0  0  0  0
  -23.9095  -10.4305   21.0415 C   0  0  0  0  0  0
  -24.3662   -9.4204   21.9170 C   0  0  0  0  0  0
  -23.6337   -8.2231   22.0725 C   0  0  0  0  0  0
  -22.4303   -8.0292   21.3536 C   0  0  0  0  0  0
  -21.9941   -9.0272   20.4643 C   0  0  0  0  0  0
  -22.7274  -10.2149   20.3071 C   0  0  0  0  0  0
  -21.6851   -6.0757   22.5287 C   0  0  0  0  0  0
  -21.4022   -6.5656   23.8227 C   0  0  0  0  0  0
  -21.3652   -5.6791   24.9182 C   0  0  0  0  0  0
  -21.6048   -4.3059   24.7224 C   0  0  0  0  0  0
  -21.8818   -3.8159   23.4339 C   0  0  0  0  0  0
  -21.9187   -4.6988   22.3405 C   0  0  0  0  0  0
  -22.7807  -13.5212   21.1860 C   0  0  0  0  0  0
  -22.1656   -4.2174   21.0980 F   0  0  0  0  0  0
  -21.5614   -3.4542   25.7730 F   0  0  0  0  0  0
  -29.9437  -13.7303   20.3566 N   0  0  0  0  0  0
  -26.2914  -12.9467   20.3280 N   0  0  0  0  0  0
  -25.9355  -11.6589   20.5769 N   0  0  0  0  0  0
  -22.0439  -12.8227   22.0417 N   0  0  0  0  0  0
  -25.4098  -15.1950   20.4139 N   0  0  0  0  0  0
  -31.8258  -14.9162   20.2127 O   0  0  0  0  0  0
  -21.6644   -6.8903   21.4247 O   0  0  0  0  0  0
  -22.3494  -14.5515   20.6680 O   0  0  0  0  0  0
  -24.6423  -31.8464   23.1891 C   0  0  0  0  0  0
  -25.9180  -32.4721   23.8292 C   0  0  1  0  0  0
  -27.2148  -27.1277   20.1680 C   0  0  0  0  0  0
  -25.5922  -33.8519   24.2202 N   0  0  0  0  0  0
  -23.4471  -30.4666   21.5341 C   0  0  2  0  0  0
  -24.9004  -28.8928   20.1169 C   0  0  0  0  0  0
  -22.7564  -29.4562   22.4852 C   0  0  0  0  0  0
  -18.0305  -28.1398   22.8490 C   0  0  0  0  0  0
  -24.1493  -36.7280   23.2629 C   0  0  0  0  0  0
  -26.0041  -30.7207   21.3895 C   0  0  0  0  0  0
  -26.0776  -29.3278   20.7387 C   0  0  0  0  0  0
  -27.2373  -28.4616   20.7470 C   0  0  0  0  0  0
  -26.0143  -26.8063   19.4951 C   0  0  0  0  0  0
  -24.8821  -27.6463   19.4794 C   0  0  0  0  0  0
  -23.6780  -29.7966   20.1543 C   0  0  0  0  0  0
  -25.4113  -36.3048   24.0321 C   0  0  1  0  0  0
  -20.5917  -28.3731   23.1247 C   0  0  2  0  0  0
  -20.6790  -26.9443   22.5409 C   0  0  0  0  0  0
  -19.5753  -26.6396   21.5219 C   0  0  0  0  0  0
  -18.1938  -26.7939   22.1640 C   0  0  0  0  0  0
  -19.1558  -28.8882   23.2863 C   0  0  0  0  0  0
  -18.9474  -30.1473   23.8902 C   0  0  0  0  0  0
  -17.6470  -30.6608   24.0557 C   0  0  0  0  0  0
  -25.9061  -34.9419   23.5076 C   0  0  0  0  0  0
  -16.5363  -29.9109   23.6315 C   0  0  0  0  0  0
  -16.7290  -28.6512   23.0368 C   0  0  0  0  0  0
  -26.4473  -31.6583   25.0734 C   0  0  0  0  0  0
  -25.3634  -31.3833   26.1429 C   0  0  0  0  0  0
  -27.0299  -30.2964   24.6322 C   0  0  0  0  0  0
  -27.6036  -32.4314   25.7497 C   0  0  0  0  0  0
  -27.5581  -37.1793   24.8449 C   0  0  0  0  0  0
  -21.4250  -29.3063   22.3610 N   0  0  0  0  0  0
  -26.4278  -37.3761   23.9406 N   0  0  0  0  0  0
  -24.7178  -31.0318   22.0940 N   0  0  0  0  0  0
  -23.4204  -28.8088   23.2981 O   0  0  0  0  0  0
  -28.2556  -26.1247   20.2265 O   0  0  0  0  0  0
  -26.5666  -34.8908   22.4667 O   0  0  0  0  0  0
  -23.5536  -32.1324   23.7116 O   0  0  0  0  0  0
  -30.7293  -21.2396   19.9217 C   0  0  0  0  0  0
  -31.0377  -22.5908   19.6851 C   0  0  0  0  0  0
  -29.4538  -20.9008   20.3670 C   0  0  0  0  0  0
  -28.9221  -23.3134   20.2710 C   0  0  0  0  0  0
  -30.0638  -18.7714   21.6602 C   0  0  0  0  0  0
  -28.9866  -18.4885   19.5408 C   0  0  0  0  0  0
  -30.7775  -17.3666   21.2886 C   0  0  0  0  0  0
  -28.9033  -16.8936   19.8894 C   0  0  0  0  0  0
  -32.4152  -22.9823   19.2010 C   0  0  0  0  0  0
  -27.8950  -24.6044   20.3511 C   0  0  0  0  0  0
  -30.1554  -23.5989   19.8619 N   0  0  0  0  0  0
  -28.5575  -21.9778   20.5252 N   0  0  0  0  0  0
  -29.2018  -19.4648   20.6523 N   0  0  0  0  0  0
  -29.9936  -16.2247   20.6891 N   0  0  0  0  0  0
  -31.4681  -12.7450   19.1813 H   0  0  0  0  0  0
  -30.4324  -11.6686   20.0669 H   0  0  0  0  0  0
  -29.8586  -11.7156   17.6047 H   0  0  0  0  0  0
  -29.5887  -13.4398   17.6864 H   0  0  0  0  0  0
  -28.0100  -11.2556   19.0702 H   0  0  0  0  0  0
  -27.3941  -12.3396   17.8503 H   0  0  0  0  0  0
  -27.5799  -14.2340   19.3664 H   0  0  0  0  0  0
  -28.7598  -12.4028   21.5188 H   0  0  0  0  0  0
  -28.3648  -14.0978   21.6965 H   0  0  0  0  0  0
  -25.2816   -9.5679   22.4735 H   0  0  0  0  0  0
  -24.0042   -7.4629   22.7462 H   0  0  0  0  0  0
  -21.0843   -8.8834   19.8989 H   0  0  0  0  0  0
  -22.3727  -10.9707   19.6205 H   0  0  0  0  0  0
  -21.2030   -7.6166   23.9745 H   0  0  0  0  0  0
  -21.1463   -6.0517   25.9083 H   0  0  0  0  0  0
  -22.0597   -2.7627   23.2826 H   0  0  0  0  0  0
  -22.4046  -11.9954   22.4940 H   0  0  0  0  0  0
  -21.1051  -13.1267   22.2570 H   0  0  0  0  0  0
  -24.6411  -15.8450   20.5406 H   0  0  0  0  0  0
  -26.2613  -15.6417   20.1028 H   0  0  0  0  0  0
  -26.7256  -32.5330   23.1026 H   0  0  0  0  0  0
  -24.9975  -33.9640   25.0288 H   0  0  0  0  0  0
  -22.7482  -31.2920   21.3795 H   0  0  0  0  0  0
  -23.3756  -35.9611   23.3263 H   0  0  0  0  0  0
  -24.3581  -36.8938   22.2047 H   0  0  0  0  0  0
  -23.7256  -37.6475   23.6677 H   0  0  0  0  0  0
  -26.1495  -31.4717   20.6111 H   0  0  0  0  0  0
  -26.8771  -30.7809   22.0281 H   0  0  0  0  0  0
  -28.1301  -28.7922   21.2591 H   0  0  0  0  0  0
  -25.9053  -25.8697   18.9748 H   0  0  0  0  0  0
  -23.9869  -27.3096   18.9742 H   0  0  0  0  0  0
  -23.8199  -30.5721   19.4008 H   0  0  0  0  0  0
  -22.7933  -29.2414   19.8371 H   0  0  0  0  0  0
  -25.1298  -36.1867   25.0818 H   0  0  0  0  0  0
  -21.0011  -28.3323   24.1363 H   0  0  0  0  0  0
  -20.5690  -26.2349   23.3622 H   0  0  0  0  0  0
  -21.6654  -26.7456   22.1198 H   0  0  0  0  0  0
  -19.6913  -25.6295   21.1279 H   0  0  0  0  0  0
  -19.6686  -27.3182   20.6724 H   0  0  0  0  0  0
  -17.4202  -26.6680   21.4051 H   0  0  0  0  0  0
  -18.0349  -26.0089   22.9045 H   0  0  0  0  0  0
  -19.7947  -30.7281   24.2298 H   0  0  0  0  0  0
  -17.5027  -31.6288   24.5156 H   0  0  0  0  0  0
  -15.5364  -30.3018   23.7637 H   0  0  0  0  0  0
  -15.8684  -28.0827   22.7109 H   0  0  0  0  0  0
  -24.5807  -30.7180   25.7755 H   0  0  0  0  0  0
  -24.8814  -32.3049   26.4717 H   0  0  0  0  0  0
  -25.7876  -30.9093   27.0292 H   0  0  0  0  0  0
  -26.2915  -29.6730   24.1271 H   0  0  0  0  0  0
  -27.3813  -29.7223   25.4902 H   0  0  0  0  0  0
  -27.8867  -30.4162   23.9693 H   0  0  0  0  0  0
  -27.2664  -33.3615   26.2076 H   0  0  0  0  0  0
  -28.3842  -32.6873   25.0322 H   0  0  0  0  0  0
  -28.0710  -31.8432   26.5401 H   0  0  0  0  0  0
  -28.2589  -38.0097   24.7496 H   0  0  0  0  0  0
  -28.1094  -36.2633   24.6264 H   0  0  0  0  0  0
  -27.2311  -37.1431   25.8855 H   0  0  0  0  0  0
  -20.9446  -29.8798   21.6822 H   0  0  0  0  0  0
  -26.0152  -38.2834   24.1408 H   0  0  0  0  0  0
  -31.4728  -20.4719   19.7653 H   0  0  0  0  0  0
  -30.8367  -19.4666   21.9985 H   0  0  0  0  0  0
  -29.4483  -18.6130   22.5449 H   0  0  0  0  0  0
  -28.0538  -18.7757   19.0497 H   0  0  0  0  0  0
  -29.7557  -18.6607   18.7868 H   0  0  0  0  0  0
  -31.2381  -16.9858   22.2025 H   0  0  0  0  0  0
  -31.6137  -17.5767   20.6206 H   0  0  0  0  0  0
  -28.8371  -16.3600   18.9404 H   0  0  0  0  0  0
  -27.9638  -16.6866   20.4014 H   0  0  0  0  0  0
  -32.9330  -22.1287   18.7624 H   0  0  0  0  0  0
  -33.0138  -23.3561   20.0309 H   0  0  0  0  0  0
  -32.3464  -23.7591   18.4406 H   0  0  0  0  0  0
  -27.3688  -24.5049   21.3000 H   0  0  0  0  0  0
  -27.1634  -24.3581   19.5868 H   0  0  0  0  0  0
  1 25  1  0  0  0
  1 30  2  0  0  0
  1 84  1  0  0  0
  2  3  1  0  0  0
  2 25  1  0  0  0
  2 85  1  0  0  0
  2 86  1  0  0  0
  3  4  1  0  0  0
  3 87  1  0  0  0
  3 88  1  0  0  0
  4  5  1  0  0  0
  4 89  1  0  0  0
  4 90  1  0  0  0
  5  6  1  0  0  0
  5 26  1  0  0  0
  5 91  1  0  0  0
  6 25  1  0  0  0
  6 92  1  0  0  0
  6 93  1  0  0  0
  7  8  2  0  0  0
  7 26  1  0  0  0
  7 29  1  0  0  0
  8  9  1  0  0  0
  8 22  1  0  0  0
  9 10  1  0  0  0
  9 27  2  0  0  0
 10 11  2  0  0  0
 10 15  1  0  0  0
 11 12  1  0  0  0
 11 94  1  0  0  0
 12 13  2  0  0  0
 12 95  1  0  0  0
 13 14  1  0  0  0
 13 31  1  0  0  0
 14 15  2  0  0  0
 14 96  1  0  0  0
 15 97  1  0  0  0
 16 17  2  0  0  0
 16 21  1  0  0  0
 16 31  1  0  0  0
 17 18  1  0  0  0
 17 98  1  0  0  0
 18 19  2  0  0  0
 18 99  1  0  0  0
 19 20  1  0  0  0
 19 24  1  0  0  0
 20 21  2  0  0  0
 20100  1  0  0  0
 21 23  1  0  0  0
 22 28  1  0  0  0
 22 32  2  0  0  0
 26 27  1  0  0  0
 28101  1  0  0  0
 28102  1  0  0  0
 29103  1  0  0  0
 29104  1  0  0  0
 33 34  1  0  0  0
 33 66  1  0  0  0
 33 70  2  0  0  0
 34 36  1  0  0  0
 34 59  1  0  0  0
 34105  1  0  0  0
 35 44  2  0  0  0
 35 45  1  0  0  0
 35 68  1  0  0  0
 36 56  1  0  0  0
 36106  1  0  0  0
 37 39  1  0  0  0
 37 47  1  0  0  0
 37 66  1  0  0  0
 37107  1  0  0  0
 38 43  2  0  0  0
 38 46  1  0  0  0
 38 47  1  0  0  0
 39 64  1  0  0  0
 39 67  2  0  0  0
 40 52  1  0  0  0
 40 53  2  0  0  0
 40 58  1  0  0  0
 41108  1  0  0  0
 41109  1  0  0  0
 41110  1  0  0  0
 41 48  1  0  0  0
 42 43  1  0  0  0
 42 66  1  0  0  0
 42111  1  0  0  0
 42112  1  0  0  0
 43 44  1  0  0  0
 44113  1  0  0  0
 45 46  2  0  0  0
 45114  1  0  0  0
 46115  1  0  0  0
 47116  1  0  0  0
 47117  1  0  0  0
 48 56  1  0  0  0
 48 65  1  0  0  0
 48118  1  0  0  0
 49 50  1  0  0  0
 49 53  1  0  0  0
 49 64  1  0  0  0
 49119  1  0  0  0
 50 51  1  0  0  0
 50120  1  0  0  0
 50121  1  0  0  0
 51 52  1  0  0  0
 51122  1  0  0  0
 51123  1  0  0  0
 52124  1  0  0  0
 52125  1  0  0  0
 53 54  1  0  0  0
 54 55  2  0  0  0
 54126  1  0  0  0
 55 57  1  0  0  0
 55127  1  0  0  0
 56 69  2  0  0  0
 57 58  2  0  0  0
 57128  1  0  0  0
 58129  1  0  0  0
 59 60  1  0  0  0
 59 61  1  0  0  0
 59 62  1  0  0  0
 60130  1  0  0  0
 60131  1  0  0  0
 60132  1  0  0  0
 61133  1  0  0  0
 61134  1  0  0  0
 61135  1  0  0  0
 62136  1  0  0  0
 62137  1  0  0  0
 62138  1  0  0  0
 63 65  1  0  0  0
 63139  1  0  0  0
 63140  1  0  0  0
 63141  1  0  0  0
 64142  1  0  0  0
 65143  1  0  0  0
 68 80  1  0  0  0
 71 72  2  0  0  0
 71 73  1  0  0  0
 71144  1  0  0  0
 72 79  1  0  0  0
 72 81  1  0  0  0
 73 82  2  0  0  0
 73 83  1  0  0  0
 74 80  1  0  0  0
 74 81  2  0  0  0
 74 82  1  0  0  0
 75 77  1  0  0  0
 75 83  1  0  0  0
 75145  1  0  0  0
 75146  1  0  0  0
 76 78  1  0  0  0
 76 83  1  0  0  0
 76147  1  0  0  0
 76148  1  0  0  0
 77 84  1  0  0  0
 77149  1  0  0  0
 77150  1  0  0  0
 78 84  1  0  0  0
 78151  1  0  0  0
 78152  1  0  0  0
 79153  1  0  0  0
 79154  1  0  0  0
 79155  1  0  0  0
 80156  1  0  0  0
 80157  1  0  0  0
M  ISO  4   1 100  68 101  80 101  84 100
M  END
> <chiral flag>
0

> <version>
0

> <s_m_source_file>
/data/baiqing/PycharmProjects/Reinvent-master-3.2/result/LINK_invent/BTK/process_docking_weight1_custom_sum_contain_oxygen_bond_distance_aromatic_linkinvent_7_9_3/rearranged_h_0180.sdf

> <i_m_source_file_index>
52

> <r_mmod_Potential_Energy-OPLS-2005>
187.816604614258

> <r_mmod_Stretch_Energy-OPLS-2005>
226.071762084961

> <r_mmod_Bend_Energy-OPLS-2005>
265.128082275391

> <r_mmod_Torsional_Energy-OPLS-2005>
372.582672119141

> <r_mmod_Improper_Torsional_Energy-OPLS-2005>
8.60567760467529

> <r_mmod_Van_der_Waal_Energy-OPLS-2005>
146.390243530273

> <r_mmod_Electrostatic_Energy-OPLS-2005>
-778.786254882812

> <r_mmod_Solvation_Energy-OPLS-2005>
-254.878784179688

> <b_mmod_Minimization_Converged-OPLS-2005>
0

> <r_mmod_RMS_Derivative-OPLS-2005>
3.61027765274048

$$$$
52
                    3D
 Structure written by MMmdl.
155164  0  0  1  0            999 V2000
  -30.3535  -15.3362   20.4528 C   0  0  0  0  0  0
  -30.4560  -12.8705   19.5486 C   0  0  0  0  0  0
  -29.5516  -12.6062   18.3107 C   0  0  0  0  0  0
  -28.0987  -12.3104   18.7202 C   0  0  0  0  0  0
  -27.6209  -13.2633   19.8400 C   0  0  2  0  0  0
  -28.6505  -13.3763   20.9845 C   0  0  0  0  0  0
  -25.2437  -13.8189   20.5706 C   0  0  0  0  0  0
  -24.1743  -13.0381   20.9201 C   0  0  0  0  0  0
  -24.6370  -11.6894   20.8684 C   0  0  0  0  0  0
  -23.9049  -10.4259   21.0341 C   0  0  0  0  0  0
  -24.3586   -9.4176   21.9120 C   0  0  0  0  0  0
  -23.6257   -8.2215   22.0720 C   0  0  0  0  0  0
  -22.4242   -8.0235   21.3514 C   0  0  0  0  0  0
  -21.9872   -9.0195   20.4603 C   0  0  0  0  0  0
  -22.7205  -10.2090   20.2990 C   0  0  0  0  0  0
  -21.6865   -6.0666   22.5246 C   0  0  0  0  0  0
  -21.4020   -6.5597   23.8173 C   0  0  0  0  0  0
  -21.3661   -5.6768   24.9157 C   0  0  0  0  0  0
  -21.6054   -4.3019   24.7250 C   0  0  0  0  0  0
  -21.8824   -3.8082   23.4369 C   0  0  0  0  0  0
  -21.9202   -4.6893   22.3408 C   0  0  0  0  0  0
  -22.7789  -13.5174   21.1871 C   0  0  0  0  0  0
  -22.1672   -4.2076   21.0969 F   0  0  0  0  0  0
  -21.5639   -3.4506   25.7767 F   0  0  0  0  0  0
  -29.8653  -13.9826   20.4024 N   0  0  0  0  0  0
  -26.2827  -12.9436   20.3205 N   0  0  0  0  0  0
  -25.9311  -11.6559   20.5651 N   0  0  0  0  0  0
  -22.0468  -12.8145   22.0460 N   0  0  0  0  0  0
  -25.4102  -15.1900   20.4147 N   0  0  0  0  0  0
  -31.5255  -15.4044   20.0429 O   0  0  0  0  0  0
  -21.6646   -6.8823   21.4216 O   0  0  0  0  0  0
  -22.3448  -14.5452   20.6713 O   0  0  0  0  0  0
  -24.6658  -31.8173   23.1651 C   0  0  0  0  0  0
  -25.9299  -32.4567   23.8120 C   0  0  1  0  0  0
  -27.2498  -26.8861   20.1958 C   0  0  0  0  0  0
  -25.5977  -33.8387   24.2028 N   0  0  0  0  0  0
  -23.4881  -30.4211   21.5133 C   0  0  2  0  0  0
  -24.9549  -28.8034   20.1145 C   0  0  0  0  0  0
  -22.7721  -29.4378   22.4734 C   0  0  0  0  0  0
  -18.0354  -28.1374   22.8443 C   0  0  0  0  0  0
  -24.1491  -36.7223   23.2653 C   0  0  0  0  0  0
  -26.0621  -30.6096   21.4107 C   0  0  0  0  0  0
  -26.1408  -29.1968   20.7513 C   0  0  0  0  0  0
  -27.2788  -28.2630   20.7636 C   0  0  0  0  0  0
  -26.0321  -26.6580   19.5107 C   0  0  0  0  0  0
  -24.9297  -27.5543   19.4750 C   0  0  0  0  0  0
  -23.7414  -29.7361   20.1410 C   0  0  0  0  0  0
  -25.4133  -36.2959   24.0285 C   0  0  1  0  0  0
  -20.5998  -28.3742   23.1129 C   0  0  2  0  0  0
  -20.6830  -26.9390   22.5387 C   0  0  0  0  0  0
  -19.5814  -26.6346   21.5195 C   0  0  0  0  0  0
  -18.1982  -26.7922   22.1576 C   0  0  0  0  0  0
  -19.1623  -28.8868   23.2772 C   0  0  0  0  0  0
  -18.9538  -30.1476   23.8779 C   0  0  0  0  0  0
  -17.6519  -30.6572   24.0543 C   0  0  0  0  0  0
  -25.9098  -34.9334   23.4975 C   0  0  0  0  0  0
  -16.5404  -29.9061   23.6328 C   0  0  0  0  0  0
  -16.7332  -28.6488   23.0324 C   0  0  0  0  0  0
  -26.4515  -31.6543   25.0677 C   0  0  0  0  0  0
  -25.3574  -31.3817   26.1303 C   0  0  0  0  0  0
  -27.0484  -30.2899   24.6540 C   0  0  0  0  0  0
  -27.6019  -32.4398   25.7427 C   0  0  0  0  0  0
  -27.5582  -37.1727   24.8443 C   0  0  0  0  0  0
  -21.4367  -29.3036   22.3486 N   0  0  0  0  0  0
  -26.4270  -37.3685   23.9403 N   0  0  0  0  0  0
  -24.7587  -30.9744   22.0825 N   0  0  0  0  0  0
  -23.4217  -28.7915   23.2987 O   0  0  0  0  0  0
  -28.2476  -25.7570   20.2654 O   0  0  0  0  0  0
  -26.5728  -34.8857   22.4585 O   0  0  0  0  0  0
  -23.5696  -32.1224   23.6665 O   0  0  0  0  0  0
  -28.4338  -21.1239   20.4048 C   0  0  0  0  0  0
  -29.3465  -19.8792   20.4135 C   0  0  0  0  0  0
  -28.8744  -22.5955   20.2695 C   0  0  0  0  0  0
  -31.0113  -21.5351   20.1595 C   0  0  0  0  0  0
  -28.7760  -17.9702   22.1527 C   0  0  0  0  0  0
  -28.6311  -16.4692   21.9553 C   0  0  0  0  0  0
  -28.9660  -18.1694   20.6477 C   0  0  2  0  0  0
  -26.9298  -20.8690   20.5494 C   0  0  0  0  0  0
  -32.5235  -21.7490   20.0096 C   0  0  0  0  0  0
  -27.9422  -24.1144   20.1491 C   0  0  0  0  0  0
  -30.6455  -20.2390   20.2861 N   0  0  0  0  0  0
  -30.2337  -22.6531   20.1412 N   0  0  0  0  0  0
  -29.5229  -16.5489   20.7799 N   0  0  0  0  0  0
  -31.4575  -13.1298   19.2053 H   0  0  0  0  0  0
  -30.5925  -11.9641   20.1383 H   0  0  0  0  0  0
  -29.9533  -11.7778   17.7267 H   0  0  0  0  0  0
  -29.5720  -13.4755   17.6543 H   0  0  0  0  0  0
  -28.0564  -11.2812   19.0769 H   0  0  0  0  0  0
  -27.4401  -12.3618   17.8529 H   0  0  0  0  0  0
  -27.5526  -14.2461   19.3708 H   0  0  0  0  0  0
  -28.8528  -12.3964   21.4186 H   0  0  0  0  0  0
  -28.2546  -13.9696   21.8033 H   0  0  0  0  0  0
  -25.2734   -9.5691   22.4674 H   0  0  0  0  0  0
  -23.9974   -7.4639   22.7456 H   0  0  0  0  0  0
  -21.0794   -8.8660   19.8928 H   0  0  0  0  0  0
  -22.3587  -10.9581   19.6081 H   0  0  0  0  0  0
  -21.1988   -7.6103   23.9664 H   0  0  0  0  0  0
  -21.1493   -6.0494   25.9062 H   0  0  0  0  0  0
  -22.0602   -2.7545   23.2893 H   0  0  0  0  0  0
  -22.4148  -11.9874   22.4903 H   0  0  0  0  0  0
  -21.1016  -13.1049   22.2558 H   0  0  0  0  0  0
  -24.6401  -15.8445   20.5145 H   0  0  0  0  0  0
  -26.2492  -15.6218   20.0452 H   0  0  0  0  0  0
  -26.7399  -32.5075   23.0869 H   0  0  0  0  0  0
  -25.0077  -33.9449   25.0146 H   0  0  0  0  0  0
  -22.8036  -31.2510   21.3275 H   0  0  0  0  0  0
  -23.3764  -35.9530   23.3238 H   0  0  0  0  0  0
  -24.3567  -36.8978   22.2081 H   0  0  0  0  0  0
  -23.7251  -37.6366   23.6813 H   0  0  0  0  0  0
  -26.2490  -31.3551   20.6385 H   0  0  0  0  0  0
  -26.9101  -30.6627   22.0766 H   0  0  0  0  0  0
  -28.1722  -28.5620   21.2910 H   0  0  0  0  0  0
  -25.9020  -25.7039   19.0202 H   0  0  0  0  0  0
  -24.0302  -27.2369   18.9644 H   0  0  0  0  0  0
  -23.9099  -30.5055   19.3859 H   0  0  0  0  0  0
  -22.8548  -29.1919   19.8186 H   0  0  0  0  0  0
  -25.1319  -36.1729   25.0768 H   0  0  0  0  0  0
  -21.0051  -28.3374   24.1289 H   0  0  0  0  0  0
  -20.5707  -26.2331   23.3642 H   0  0  0  0  0  0
  -21.6676  -26.7342   22.1183 H   0  0  0  0  0  0
  -19.6944  -25.6247   21.1279 H   0  0  0  0  0  0
  -19.6795  -27.3085   20.6668 H   0  0  0  0  0  0
  -17.4274  -26.6700   21.3958 H   0  0  0  0  0  0
  -18.0310  -26.0053   22.8938 H   0  0  0  0  0  0
  -19.8016  -30.7316   24.2073 H   0  0  0  0  0  0
  -17.5091  -31.6231   24.5188 H   0  0  0  0  0  0
  -15.5416  -30.2909   23.7759 H   0  0  0  0  0  0
  -15.8745  -28.0816   22.7021 H   0  0  0  0  0  0
  -24.5774  -30.7192   25.7553 H   0  0  0  0  0  0
  -24.8717  -32.3005   26.4564 H   0  0  0  0  0  0
  -25.7678  -30.9038   27.0207 H   0  0  0  0  0  0
  -26.3218  -29.6436   24.1619 H   0  0  0  0  0  0
  -27.4054  -29.7400   25.5261 H   0  0  0  0  0  0
  -27.9098  -30.4031   23.9961 H   0  0  0  0  0  0
  -27.2707  -33.3892   26.1613 H   0  0  0  0  0  0
  -28.3962  -32.6618   25.0300 H   0  0  0  0  0  0
  -28.0531  -31.8766   26.5607 H   0  0  0  0  0  0
  -28.2482  -38.0123   24.7578 H   0  0  0  0  0  0
  -28.1194  -36.2642   24.6181 H   0  0  0  0  0  0
  -27.2296  -37.1277   25.8837 H   0  0  0  0  0  0
  -20.9635  -29.8857   21.6719 H   0  0  0  0  0  0
  -26.0120  -38.2700   24.1528 H   0  0  0  0  0  0
  -29.6730  -18.2247   22.7253 H   0  0  0  0  0  0
  -27.9039  -18.4713   22.5827 H   0  0  0  0  0  0
  -27.6004  -16.1779   21.7361 H   0  0  0  0  0  0
  -29.0169  -15.9049   22.8086 H   0  0  0  0  0  0
  -27.9900  -18.1148   20.1544 H   0  0  0  0  0  0
  -26.7163  -20.2010   21.3868 H   0  0  0  0  0  0
  -26.5127  -20.4163   19.6436 H   0  0  0  0  0  0
  -26.3603  -21.7814   20.7377 H   0  0  0  0  0  0
  -33.0930  -20.8696   20.3163 H   0  0  0  0  0  0
  -32.8857  -22.5780   20.6167 H   0  0  0  0  0  0
  -32.8170  -21.9523   18.9781 H   0  0  0  0  0  0
  -27.1168  -23.9673   20.8458 H   0  0  0  0  0  0
  -27.4779  -24.0178   19.1661 H   0  0  0  0  0  0
  1 25  1  0  0  0
  1 30  2  0  0  0
  1 83  1  0  0  0
  2  3  1  0  0  0
  2 25  1  0  0  0
  2 84  1  0  0  0
  2 85  1  0  0  0
  3  4  1  0  0  0
  3 86  1  0  0  0
  3 87  1  0  0  0
  4  5  1  0  0  0
  4 88  1  0  0  0
  4 89  1  0  0  0
  5  6  1  0  0  0
  5 26  1  0  0  0
  5 90  1  0  0  0
  6 25  1  0  0  0
  6 91  1  0  0  0
  6 92  1  0  0  0
  7  8  2  0  0  0
  7 26  1  0  0  0
  7 29  1  0  0  0
  8  9  1  0  0  0
  8 22  1  0  0  0
  9 10  1  0  0  0
  9 27  2  0  0  0
 10 11  2  0  0  0
 10 15  1  0  0  0
 11 12  1  0  0  0
 11 93  1  0  0  0
 12 13  2  0  0  0
 12 94  1  0  0  0
 13 14  1  0  0  0
 13 31  1  0  0  0
 14 15  2  0  0  0
 14 95  1  0  0  0
 15 96  1  0  0  0
 16 17  2  0  0  0
 16 21  1  0  0  0
 16 31  1  0  0  0
 17 18  1  0  0  0
 17 97  1  0  0  0
 18 19  2  0  0  0
 18 98  1  0  0  0
 19 20  1  0  0  0
 19 24  1  0  0  0
 20 21  2  0  0  0
 20 99  1  0  0  0
 21 23  1  0  0  0
 22 28  1  0  0  0
 22 32  2  0  0  0
 26 27  1  0  0  0
 28100  1  0  0  0
 28101  1  0  0  0
 29102  1  0  0  0
 29103  1  0  0  0
 33 34  1  0  0  0
 33 66  1  0  0  0
 33 70  2  0  0  0
 34 36  1  0  0  0
 34 59  1  0  0  0
 34104  1  0  0  0
 35 44  2  0  0  0
 35 45  1  0  0  0
 35 68  1  0  0  0
 36 56  1  0  0  0
 36105  1  0  0  0
 37 39  1  0  0  0
 37 47  1  0  0  0
 37 66  1  0  0  0
 37106  1  0  0  0
 38 43  2  0  0  0
 38 46  1  0  0  0
 38 47  1  0  0  0
 39 64  1  0  0  0
 39 67  2  0  0  0
 40 52  1  0  0  0
 40 53  2  0  0  0
 40 58  1  0  0  0
 41107  1  0  0  0
 41108  1  0  0  0
 41109  1  0  0  0
 41 48  1  0  0  0
 42 43  1  0  0  0
 42 66  1  0  0  0
 42110  1  0  0  0
 42111  1  0  0  0
 43 44  1  0  0  0
 44112  1  0  0  0
 45 46  2  0  0  0
 45113  1  0  0  0
 46114  1  0  0  0
 47115  1  0  0  0
 47116  1  0  0  0
 48 56  1  0  0  0
 48 65  1  0  0  0
 48117  1  0  0  0
 49 50  1  0  0  0
 49 53  1  0  0  0
 49 64  1  0  0  0
 49118  1  0  0  0
 50 51  1  0  0  0
 50119  1  0  0  0
 50120  1  0  0  0
 51 52  1  0  0  0
 51121  1  0  0  0
 51122  1  0  0  0
 52123  1  0  0  0
 52124  1  0  0  0
 53 54  1  0  0  0
 54 55  2  0  0  0
 54125  1  0  0  0
 55 57  1  0  0  0
 55126  1  0  0  0
 56 69  2  0  0  0
 57 58  2  0  0  0
 57127  1  0  0  0
 58128  1  0  0  0
 59 60  1  0  0  0
 59 61  1  0  0  0
 59 62  1  0  0  0
 60129  1  0  0  0
 60130  1  0  0  0
 60131  1  0  0  0
 61132  1  0  0  0
 61133  1  0  0  0
 61134  1  0  0  0
 62135  1  0  0  0
 62136  1  0  0  0
 62137  1  0  0  0
 63 65  1  0  0  0
 63138  1  0  0  0
 63139  1  0  0  0
 63140  1  0  0  0
 64141  1  0  0  0
 65142  1  0  0  0
 68 80  1  0  0  0
 71 72  2  0  0  0
 71 73  1  0  0  0
 71 78  1  0  0  0
 72 81  1  0  0  0
 72 77  1  0  0  0
 73 80  1  0  0  0
 73 82  2  0  0  0
 74 79  1  0  0  0
 74 81  2  0  0  0
 74 82  1  0  0  0
 75 76  1  0  0  0
 75 77  1  0  0  0
 75143  1  0  0  0
 75144  1  0  0  0
 76 83  1  0  0  0
 76145  1  0  0  0
 76146  1  0  0  0
 77 83  1  0  0  0
 77147  1  0  0  0
 78148  1  0  0  0
 78149  1  0  0  0
 78150  1  0  0  0
 79151  1  0  0  0
 79152  1  0  0  0
 79153  1  0  0  0
 80154  1  0  0  0
 80155  1  0  0  0
M  ISO  4   1 100  68 101  80 101  83 100
M  END
> <chiral flag>
0

> <version>
0

> <s_m_source_file>
/data/baiqing/PycharmProjects/Reinvent-master-3.2/result/LINK_invent/BTK/process_docking_weight1_custom_sum_contain_oxygen_bond_distance_aromatic_linkinvent_7_9_3/rearranged_h_0180.sdf

> <i_m_source_file_index>
53

> <r_mmod_Potential_Energy-OPLS-2005>
1150.19409179688

> <r_mmod_Stretch_Energy-OPLS-2005>
669.06689453125

> <r_mmod_Bend_Energy-OPLS-2005>
568.67138671875

> <r_mmod_Torsional_Energy-OPLS-2005>
249.434555053711

> <r_mmod_Improper_Torsional_Energy-OPLS-2005>
4.0105094909668

> <r_mmod_Van_der_Waal_Energy-OPLS-2005>
129.97282409668

> <r_mmod_Electrostatic_Energy-OPLS-2005>
-745.570251464844

> <r_mmod_Solvation_Energy-OPLS-2005>
-255.798934936523

> <b_mmod_Minimization_Converged-OPLS-2005>
0

> <r_mmod_RMS_Derivative-OPLS-2005>
7.42501258850098

$$$$
53
                    3D
 Structure written by MMmdl.
158167  0  0  1  0            999 V2000
  -30.5738  -14.8903   20.4241 C   0  0  0  0  0  0
  -30.4343  -12.5513   19.4927 C   0  0  0  0  0  0
  -29.5169  -12.5178   18.2502 C   0  0  0  0  0  0
  -28.0469  -12.3204   18.6644 C   0  0  0  0  0  0
  -27.6306  -13.2461   19.8383 C   0  0  2  0  0  0
  -28.6731  -13.2595   20.9758 C   0  0  0  0  0  0
  -25.2467  -13.8224   20.5696 C   0  0  0  0  0  0
  -24.1783  -13.0452   20.9226 C   0  0  0  0  0  0
  -24.6396  -11.6938   20.8763 C   0  0  0  0  0  0
  -23.9082  -10.4308   21.0413 C   0  0  0  0  0  0
  -24.3635   -9.4217   21.9187 C   0  0  0  0  0  0
  -23.6310   -8.2253   22.0753 C   0  0  0  0  0  0
  -22.4287   -8.0293   21.3546 C   0  0  0  0  0  0
  -21.9931   -9.0266   20.4647 C   0  0  0  0  0  0
  -22.7261  -10.2144   20.3060 C   0  0  0  0  0  0
  -21.6862   -6.0741   22.5277 C   0  0  0  0  0  0
  -21.4020   -6.5643   23.8209 C   0  0  0  0  0  0
  -21.3662   -5.6794   24.9169 C   0  0  0  0  0  0
  -21.6049   -4.3056   24.7217 C   0  0  0  0  0  0
  -21.8821   -3.8152   23.4338 C   0  0  0  0  0  0
  -21.9194   -4.6972   22.3397 C   0  0  0  0  0  0
  -22.7798  -13.5223   21.1869 C   0  0  0  0  0  0
  -22.1661   -4.2160   21.0972 F   0  0  0  0  0  0
  -21.5630   -3.4536   25.7728 F   0  0  0  0  0  0
  -29.9542  -13.6484   20.3768 N   0  0  0  0  0  0
  -26.2887  -12.9450   20.3241 N   0  0  0  0  0  0
  -25.9325  -11.6585   20.5748 N   0  0  0  0  0  0
  -22.0443  -12.8218   22.0427 N   0  0  0  0  0  0
  -25.4136  -15.1952   20.4095 N   0  0  0  0  0  0
  -31.7781  -14.9373   20.1567 O   0  0  0  0  0  0
  -21.6654   -6.8891   21.4240 O   0  0  0  0  0  0
  -22.3478  -14.5515   20.6694 O   0  0  0  0  0  0
  -24.6416  -31.8465   23.1890 C   0  0  0  0  0  0
  -25.9197  -32.4703   23.8275 C   0  0  1  0  0  0
  -27.2141  -27.1621   20.1463 C   0  0  0  0  0  0
  -25.5947  -33.8506   24.2192 N   0  0  0  0  0  0
  -23.4425  -30.4666   21.5351 C   0  0  2  0  0  0
  -24.8900  -28.8966   20.1092 C   0  0  0  0  0  0
  -22.7552  -29.4562   22.4870 C   0  0  0  0  0  0
  -18.0300  -28.1399   22.8487 C   0  0  0  0  0  0
  -24.1491  -36.7268   23.2641 C   0  0  0  0  0  0
  -25.9958  -30.7297   21.3809 C   0  0  0  0  0  0
  -26.0669  -29.3428   20.7234 C   0  0  0  0  0  0
  -27.2311  -28.4920   20.7233 C   0  0  0  0  0  0
  -26.0108  -26.8073   19.4987 C   0  0  0  0  0  0
  -24.8730  -27.6420   19.4820 C   0  0  0  0  0  0
  -23.6665  -29.7971   20.1535 C   0  0  0  0  0  0
  -25.4119  -36.3034   24.0317 C   0  0  1  0  0  0
  -20.5913  -28.3726   23.1250 C   0  0  2  0  0  0
  -20.6788  -26.9430   22.5413 C   0  0  0  0  0  0
  -19.5756  -26.6386   21.5226 C   0  0  0  0  0  0
  -18.1936  -26.7939   22.1636 C   0  0  0  0  0  0
  -19.1557  -28.8879   23.2861 C   0  0  0  0  0  0
  -18.9473  -30.1475   23.8885 C   0  0  0  0  0  0
  -17.6470  -30.6595   24.0564 C   0  0  0  0  0  0
  -25.9070  -34.9410   23.5067 C   0  0  0  0  0  0
  -16.5361  -29.9091   23.6332 C   0  0  0  0  0  0
  -16.7285  -28.6511   23.0352 C   0  0  0  0  0  0
  -26.4520  -31.6553   25.0707 C   0  0  0  0  0  0
  -25.3708  -31.3743   26.1406 C   0  0  0  0  0  0
  -27.0373  -30.2946   24.6266 C   0  0  0  0  0  0
  -27.6042  -32.4318   25.7503 C   0  0  0  0  0  0
  -27.5574  -37.1792   24.8463 C   0  0  0  0  0  0
  -21.4248  -29.3055   22.3621 N   0  0  0  0  0  0
  -26.4283  -37.3747   23.9409 N   0  0  0  0  0  0
  -24.7133  -31.0345   22.0911 N   0  0  0  0  0  0
  -23.4208  -28.8111   23.3010 O   0  0  0  0  0  0
  -28.2778  -26.2000   20.2144 O   0  0  0  0  0  0
  -26.5658  -34.8908   22.4644 O   0  0  0  0  0  0
  -23.5544  -32.1335   23.7128 O   0  0  0  0  0  0
  -29.0984  -21.8676   20.3908 C   0  0  0  0  0  0
  -29.2367  -21.0492   19.2232 C   0  0  0  0  0  0
  -29.1549  -21.0251   21.5510 C   0  0  0  0  0  0
  -29.5870  -18.9800   20.3914 C   0  0  0  0  0  0
  -30.0675  -21.1673   16.7176 C   0  0  0  0  0  0
  -30.3121  -22.5142   17.3396 C   0  0  0  0  0  0
  -29.1771  -21.6488   17.8474 C   0  0  0  0  0  0
  -29.0134  -21.6200   22.9372 C   0  0  0  0  0  0
  -29.1716  -23.5214   20.4366 C   0  0  0  0  0  0
  -30.3745  -17.5410   20.3962 C   0  0  0  0  0  0
  -28.0240  -24.6771   20.0956 C   0  0  0  0  0  0
  -29.4625  -19.6794   19.2444 N   0  0  0  0  0  0
  -29.4026  -19.6613   21.5381 N   0  0  0  0  0  0
  -29.8377  -16.0858   20.5505 N   0  0  0  0  0  0
  -31.4703  -12.6963   19.1802 H   0  0  0  0  0  0
  -30.4139  -11.5963   20.0194 H   0  0  0  0  0  0
  -29.8258  -11.7215   17.5722 H   0  0  0  0  0  0
  -29.6203  -13.4518   17.6957 H   0  0  0  0  0  0
  -27.9273  -11.2765   18.9567 H   0  0  0  0  0  0
  -27.3889  -12.4736   17.8085 H   0  0  0  0  0  0
  -27.6002  -14.2522   19.4199 H   0  0  0  0  0  0
  -28.7464  -12.2840   21.4575 H   0  0  0  0  0  0
  -28.3834  -13.9686   21.7531 H   0  0  0  0  0  0
  -25.2780   -9.5694   22.4759 H   0  0  0  0  0  0
  -24.0019   -7.4652   22.7479 H   0  0  0  0  0  0
  -21.0861   -8.8790   19.8954 H   0  0  0  0  0  0
  -22.3722  -10.9685   19.6172 H   0  0  0  0  0  0
  -21.2010   -7.6153   23.9713 H   0  0  0  0  0  0
  -21.1485   -6.0523   25.9073 H   0  0  0  0  0  0
  -22.0593   -2.7617   23.2830 H   0  0  0  0  0  0
  -22.4065  -11.9899   22.4846 H   0  0  0  0  0  0
  -21.1049  -13.1232   22.2601 H   0  0  0  0  0  0
  -24.6433  -15.8462   20.5173 H   0  0  0  0  0  0
  -26.2515  -15.6328   20.0497 H   0  0  0  0  0  0
  -26.7259  -32.5319   23.1002 H   0  0  0  0  0  0
  -25.0045  -33.9610   25.0307 H   0  0  0  0  0  0
  -22.7445  -31.2924   21.3827 H   0  0  0  0  0  0
  -23.3749  -35.9605   23.3287 H   0  0  0  0  0  0
  -24.3580  -36.8919   22.2060 H   0  0  0  0  0  0
  -23.7255  -37.6465   23.6688 H   0  0  0  0  0  0
  -26.1434  -31.4845   20.6072 H   0  0  0  0  0  0
  -26.8698  -30.7825   22.0184 H   0  0  0  0  0  0
  -28.1288  -28.8300   21.2218 H   0  0  0  0  0  0
  -25.9175  -25.8462   19.0164 H   0  0  0  0  0  0
  -23.9734  -27.2951   18.9926 H   0  0  0  0  0  0
  -23.8025  -30.5732   19.3994 H   0  0  0  0  0  0
  -22.7813  -29.2400   19.8418 H   0  0  0  0  0  0
  -25.1304  -36.1862   25.0810 H   0  0  0  0  0  0
  -21.0005  -28.3317   24.1373 H   0  0  0  0  0  0
  -20.5701  -26.2337   23.3634 H   0  0  0  0  0  0
  -21.6650  -26.7450   22.1196 H   0  0  0  0  0  0
  -19.6914  -25.6295   21.1261 H   0  0  0  0  0  0
  -19.6681  -27.3196   20.6755 H   0  0  0  0  0  0
  -17.4208  -26.6695   21.4033 H   0  0  0  0  0  0
  -18.0319  -26.0084   22.9034 H   0  0  0  0  0  0
  -19.7945  -30.7296   24.2246 H   0  0  0  0  0  0
  -17.5021  -31.6272   24.5175 H   0  0  0  0  0  0
  -15.5359  -30.2990   23.7660 H   0  0  0  0  0  0
  -15.8687  -28.0826   22.7068 H   0  0  0  0  0  0
  -24.5891  -30.7081   25.7741 H   0  0  0  0  0  0
  -24.8891  -32.2927   26.4773 H   0  0  0  0  0  0
  -25.7998  -30.8963   27.0220 H   0  0  0  0  0  0
  -26.2977  -29.6678   24.1268 H   0  0  0  0  0  0
  -27.3984  -29.7233   25.4829 H   0  0  0  0  0  0
  -27.8887  -30.4178   23.9569 H   0  0  0  0  0  0
  -27.2610  -33.3624   26.2034 H   0  0  0  0  0  0
  -28.3879  -32.6870   25.0360 H   0  0  0  0  0  0
  -28.0674  -31.8477   26.5464 H   0  0  0  0  0  0
  -28.2577  -38.0099   24.7500 H   0  0  0  0  0  0
  -28.1078  -36.2626   24.6289 H   0  0  0  0  0  0
  -27.2292  -37.1441   25.8866 H   0  0  0  0  0  0
  -20.9455  -29.8765   21.6800 H   0  0  0  0  0  0
  -26.0148  -38.2817   24.1404 H   0  0  0  0  0  0
  -30.7853  -20.3779   16.9319 H   0  0  0  0  0  0
  -29.6466  -21.1557   15.7147 H   0  0  0  0  0  0
  -30.0530  -23.3910   16.7498 H   0  0  0  0  0  0
  -31.1997  -22.6119   17.9616 H   0  0  0  0  0  0
  -28.1609  -21.9487   17.5989 H   0  0  0  0  0  0
  -28.2216  -22.3680   22.9571 H   0  0  0  0  0  0
  -29.9457  -22.0943   23.2427 H   0  0  0  0  0  0
  -28.7627  -20.8560   23.6736 H   0  0  0  0  0  0
  -30.0238  -23.7749   19.8067 H   0  0  0  0  0  0
  -29.5294  -23.7696   21.4348 H   0  0  0  0  0  0
  -31.1390  -17.6433   21.1667 H   0  0  0  0  0  0
  -30.9429  -17.5320   19.4655 H   0  0  0  0  0  0
  -27.1580  -24.4581   20.7219 H   0  0  0  0  0  0
  -27.6975  -24.4959   19.0718 H   0  0  0  0  0  0
  -28.8465  -16.0077   20.7147 H   0  0  0  0  0  0
  1 25  1  0  0  0
  1 30  2  0  0  0
  1 84  1  0  0  0
  2  3  1  0  0  0
  2 25  1  0  0  0
  2 85  1  0  0  0
  2 86  1  0  0  0
  3  4  1  0  0  0
  3 87  1  0  0  0
  3 88  1  0  0  0
  4  5  1  0  0  0
  4 89  1  0  0  0
  4 90  1  0  0  0
  5  6  1  0  0  0
  5 26  1  0  0  0
  5 91  1  0  0  0
  6 25  1  0  0  0
  6 92  1  0  0  0
  6 93  1  0  0  0
  7  8  2  0  0  0
  7 26  1  0  0  0
  7 29  1  0  0  0
  8  9  1  0  0  0
  8 22  1  0  0  0
  9 10  1  0  0  0
  9 27  2  0  0  0
 10 11  2  0  0  0
 10 15  1  0  0  0
 11 12  1  0  0  0
 11 94  1  0  0  0
 12 13  2  0  0  0
 12 95  1  0  0  0
 13 14  1  0  0  0
 13 31  1  0  0  0
 14 15  2  0  0  0
 14 96  1  0  0  0
 15 97  1  0  0  0
 16 17  2  0  0  0
 16 21  1  0  0  0
 16 31  1  0  0  0
 17 18  1  0  0  0
 17 98  1  0  0  0
 18 19  2  0  0  0
 18 99  1  0  0  0
 19 20  1  0  0  0
 19 24  1  0  0  0
 20 21  2  0  0  0
 20100  1  0  0  0
 21 23  1  0  0  0
 22 28  1  0  0  0
 22 32  2  0  0  0
 26 27  1  0  0  0
 28101  1  0  0  0
 28102  1  0  0  0
 29103  1  0  0  0
 29104  1  0  0  0
 33 34  1  0  0  0
 33 66  1  0  0  0
 33 70  2  0  0  0
 34 36  1  0  0  0
 34 59  1  0  0  0
 34105  1  0  0  0
 35 44  2  0  0  0
 35 45  1  0  0  0
 35 68  1  0  0  0
 36 56  1  0  0  0
 36106  1  0  0  0
 37 39  1  0  0  0
 37 47  1  0  0  0
 37 66  1  0  0  0
 37107  1  0  0  0
 38 43  2  0  0  0
 38 46  1  0  0  0
 38 47  1  0  0  0
 39 64  1  0  0  0
 39 67  2  0  0  0
 40 52  1  0  0  0
 40 53  2  0  0  0
 40 58  1  0  0  0
 41108  1  0  0  0
 41109  1  0  0  0
 41110  1  0  0  0
 41 48  1  0  0  0
 42 43  1  0  0  0
 42 66  1  0  0  0
 42111  1  0  0  0
 42112  1  0  0  0
 43 44  1  0  0  0
 44113  1  0  0  0
 45 46  2  0  0  0
 45114  1  0  0  0
 46115  1  0  0  0
 47116  1  0  0  0
 47117  1  0  0  0
 48 56  1  0  0  0
 48 65  1  0  0  0
 48118  1  0  0  0
 49 50  1  0  0  0
 49 53  1  0  0  0
 49 64  1  0  0  0
 49119  1  0  0  0
 50 51  1  0  0  0
 50120  1  0  0  0
 50121  1  0  0  0
 51 52  1  0  0  0
 51122  1  0  0  0
 51123  1  0  0  0
 52124  1  0  0  0
 52125  1  0  0  0
 53 54  1  0  0  0
 54 55  2  0  0  0
 54126  1  0  0  0
 55 57  1  0  0  0
 55127  1  0  0  0
 56 69  2  0  0  0
 57 58  2  0  0  0
 57128  1  0  0  0
 58129  1  0  0  0
 59 60  1  0  0  0
 59 61  1  0  0  0
 59 62  1  0  0  0
 60130  1  0  0  0
 60131  1  0  0  0
 60132  1  0  0  0
 61133  1  0  0  0
 61134  1  0  0  0
 61135  1  0  0  0
 62136  1  0  0  0
 62137  1  0  0  0
 62138  1  0  0  0
 63 65  1  0  0  0
 63139  1  0  0  0
 63140  1  0  0  0
 63141  1  0  0  0
 64142  1  0  0  0
 65143  1  0  0  0
 68 81  1  0  0  0
 71 72  1  0  0  0
 71 73  2  0  0  0
 71 79  1  0  0  0
 72 82  2  0  0  0
 72 77  1  0  0  0
 73 78  1  0  0  0
 73 83  1  0  0  0
 74 80  1  0  0  0
 74 82  1  0  0  0
 74 83  2  0  0  0
 75 76  1  0  0  0
 75 77  1  0  0  0
 75144  1  0  0  0
 75145  1  0  0  0
 76 77  1  0  0  0
 76146  1  0  0  0
 76147  1  0  0  0
 77148  1  0  0  0
 78149  1  0  0  0
 78150  1  0  0  0
 78151  1  0  0  0
 79 81  1  0  0  0
 79152  1  0  0  0
 79153  1  0  0  0
 80 84  1  0  0  0
 80154  1  0  0  0
 80155  1  0  0  0
 81156  1  0  0  0
 81157  1  0  0  0
 84158  1  0  0  0
M  ISO  4   1 100  68 101  81 101  84 100
M  END
> <chiral flag>
0

> <version>
0

> <s_m_source_file>
/data/baiqing/PycharmProjects/Reinvent-master-3.2/result/LINK_invent/BTK/process_docking_weight1_custom_sum_contain_oxygen_bond_distance_aromatic_linkinvent_7_9_3/rearranged_h_0180.sdf

> <i_m_source_file_index>
54

> <r_mmod_Potential_Energy-OPLS-2005>
-164.959350585938

> <r_mmod_Stretch_Energy-OPLS-2005>
197.762664794922

> <r_mmod_Bend_Energy-OPLS-2005>
245.710205078125

> <r_mmod_Torsional_Energy-OPLS-2005>
243.752899169922

> <r_mmod_Improper_Torsional_Energy-OPLS-2005>
9.98849868774414

> <r_mmod_Van_der_Waal_Energy-OPLS-2005>
137.041320800781

> <r_mmod_Electrostatic_Energy-OPLS-2005>
-924.885375976562

> <r_mmod_Solvation_Energy-OPLS-2005>
-235.449493408203

> <b_mmod_Minimization_Converged-OPLS-2005>
0

> <r_mmod_RMS_Derivative-OPLS-2005>
1.07692992687225

$$$$
54
                    3D
 Structure written by MMmdl.
151160  0  0  1  0            999 V2000
  -30.5262  -15.0402   20.3992 C   0  0  0  0  0  0
  -30.4432  -12.6526   19.5040 C   0  0  0  0  0  0
  -29.5284  -12.5340   18.2638 C   0  0  0  0  0  0
  -28.0669  -12.2996   18.6892 C   0  0  0  0  0  0
  -27.6236  -13.2553   19.8272 C   0  0  2  0  0  0
  -28.6649  -13.3417   20.9616 C   0  0  0  0  0  0
  -25.2443  -13.8221   20.5706 C   0  0  0  0  0  0
  -24.1764  -13.0445   20.9239 C   0  0  0  0  0  0
  -24.6398  -11.6939   20.8767 C   0  0  0  0  0  0
  -23.9079  -10.4304   21.0416 C   0  0  0  0  0  0
  -24.3632   -9.4207   21.9178 C   0  0  0  0  0  0
  -23.6303   -8.2243   22.0740 C   0  0  0  0  0  0
  -22.4286   -8.0279   21.3537 C   0  0  0  0  0  0
  -21.9926   -9.0259   20.4644 C   0  0  0  0  0  0
  -22.7258  -10.2136   20.3063 C   0  0  0  0  0  0
  -21.6856   -6.0735   22.5275 C   0  0  0  0  0  0
  -21.4021   -6.5638   23.8213 C   0  0  0  0  0  0
  -21.3670   -5.6785   24.9176 C   0  0  0  0  0  0
  -21.6049   -4.3049   24.7222 C   0  0  0  0  0  0
  -21.8813   -3.8138   23.4343 C   0  0  0  0  0  0
  -21.9188   -4.6957   22.3398 C   0  0  0  0  0  0
  -22.7780  -13.5209   21.1873 C   0  0  0  0  0  0
  -22.1650   -4.2140   21.0974 F   0  0  0  0  0  0
  -21.5634   -3.4535   25.7731 F   0  0  0  0  0  0
  -29.9256  -13.7752   20.3443 N   0  0  0  0  0  0
  -26.2868  -12.9467   20.3217 N   0  0  0  0  0  0
  -25.9328  -11.6600   20.5726 N   0  0  0  0  0  0
  -22.0412  -12.8235   22.0447 N   0  0  0  0  0  0
  -25.4084  -15.1950   20.4105 N   0  0  0  0  0  0
  -31.7453  -15.0617   20.1934 O   0  0  0  0  0  0
  -21.6638   -6.8883   21.4239 O   0  0  0  0  0  0
  -22.3464  -14.5496   20.6674 O   0  0  0  0  0  0
  -24.6501  -31.8369   23.1830 C   0  0  0  0  0  0
  -25.9251  -32.4659   23.8245 C   0  0  1  0  0  0
  -27.2185  -27.0634   20.1677 C   0  0  0  0  0  0
  -25.5978  -33.8473   24.2158 N   0  0  0  0  0  0
  -23.4575  -30.4538   21.5298 C   0  0  2  0  0  0
  -24.9087  -28.8651   20.1147 C   0  0  0  0  0  0
  -22.7600  -29.4509   22.4845 C   0  0  0  0  0  0
  -18.0311  -28.1388   22.8475 C   0  0  0  0  0  0
  -24.1496  -36.7236   23.2641 C   0  0  0  0  0  0
  -26.0190  -30.6871   21.3938 C   0  0  0  0  0  0
  -26.0893  -29.2907   20.7374 C   0  0  0  0  0  0
  -27.2456  -28.4101   20.7395 C   0  0  0  0  0  0
  -26.0118  -26.7560   19.5031 C   0  0  0  0  0  0
  -24.8880  -27.6141   19.4787 C   0  0  0  0  0  0
  -23.6901  -29.7785   20.1514 C   0  0  0  0  0  0
  -25.4137  -36.3012   24.0307 C   0  0  1  0  0  0
  -20.5926  -28.3724   23.1222 C   0  0  2  0  0  0
  -20.6806  -26.9425   22.5398 C   0  0  0  0  0  0
  -19.5774  -26.6368   21.5219 C   0  0  0  0  0  0
  -18.1955  -26.7923   22.1625 C   0  0  0  0  0  0
  -19.1564  -28.8878   23.2836 C   0  0  0  0  0  0
  -18.9476  -30.1473   23.8861 C   0  0  0  0  0  0
  -17.6470  -30.6584   24.0553 C   0  0  0  0  0  0
  -25.9087  -34.9391   23.5043 C   0  0  0  0  0  0
  -16.5364  -29.9070   23.6339 C   0  0  0  0  0  0
  -16.7295  -28.6489   23.0365 C   0  0  0  0  0  0
  -26.4549  -31.6547   25.0716 C   0  0  0  0  0  0
  -25.3720  -31.3756   26.1404 C   0  0  0  0  0  0
  -27.0417  -30.2930   24.6351 C   0  0  0  0  0  0
  -27.6071  -32.4325   25.7498 C   0  0  0  0  0  0
  -27.5581  -37.1776   24.8468 C   0  0  0  0  0  0
  -21.4284  -29.3040   22.3586 N   0  0  0  0  0  0
  -26.4292  -37.3737   23.9402 N   0  0  0  0  0  0
  -24.7292  -31.0152   22.0903 N   0  0  0  0  0  0
  -23.4210  -28.8072   23.3031 O   0  0  0  0  0  0
  -28.2663  -26.0475   20.1914 O   0  0  0  0  0  0
  -26.5674  -34.8902   22.4619 O   0  0  0  0  0  0
  -23.5609  -32.1283   23.7014 O   0  0  0  0  0  0
  -28.8245  -21.1246   21.7930 C   0  0  0  0  0  0
  -29.1745  -19.7793   21.8721 C   0  0  0  0  0  0
  -29.4452  -19.2622   20.5989 C   0  0  0  0  0  0
  -29.5626  -18.8026   22.9303 C   0  0  0  0  0  0
  -30.5917  -17.8769   22.1996 C   0  0  0  0  0  0
  -30.2497  -17.7928   20.6707 C   0  0  1  0  0  0
  -28.9897  -23.1282   19.9523 C   0  0  0  0  0  0
  -28.0284  -24.4853   20.4182 C   0  0  0  0  0  0
  -29.4129  -20.4048   19.7739 N   0  0  0  0  0  0
  -28.9622  -21.5961   20.4819 N   0  0  0  0  0  0
  -29.7812  -16.2694   20.4890 N   0  0  0  0  0  0
  -31.4733  -12.8250   19.1855 H   0  0  0  0  0  0
  -30.4578  -11.7192   20.0713 H   0  0  0  0  0  0
  -29.8712  -11.7253   17.6173 H   0  0  0  0  0  0
  -29.5937  -13.4493   17.6735 H   0  0  0  0  0  0
  -27.9897  -11.2652   19.0284 H   0  0  0  0  0  0
  -27.4015  -12.3871   17.8297 H   0  0  0  0  0  0
  -27.5697  -14.2434   19.3685 H   0  0  0  0  0  0
  -28.7774  -12.3829   21.4688 H   0  0  0  0  0  0
  -28.3491  -14.0622   21.7174 H   0  0  0  0  0  0
  -25.2779   -9.5667   22.4753 H   0  0  0  0  0  0
  -24.0001   -7.4633   22.7457 H   0  0  0  0  0  0
  -21.0851   -8.8803   19.8957 H   0  0  0  0  0  0
  -22.3723  -10.9684   19.6175 H   0  0  0  0  0  0
  -21.2016   -7.6146   23.9720 H   0  0  0  0  0  0
  -21.1504   -6.0513   25.9080 H   0  0  0  0  0  0
  -22.0579   -2.7600   23.2843 H   0  0  0  0  0  0
  -22.4028  -11.9955   22.4945 H   0  0  0  0  0  0
  -21.1002  -13.1233   22.2568 H   0  0  0  0  0  0
  -24.6336  -15.8410   20.5133 H   0  0  0  0  0  0
  -26.2435  -15.6351   20.0486 H   0  0  0  0  0  0
  -26.7316  -32.5237   23.0968 H   0  0  0  0  0  0
  -25.0147  -33.9578   25.0324 H   0  0  0  0  0  0
  -22.7639  -31.2824   21.3707 H   0  0  0  0  0  0
  -23.3771  -35.9552   23.3291 H   0  0  0  0  0  0
  -24.3579  -36.8884   22.2055 H   0  0  0  0  0  0
  -23.7241  -37.6425   23.6689 H   0  0  0  0  0  0
  -26.1897  -31.4370   20.6204 H   0  0  0  0  0  0
  -26.8834  -30.7354   22.0445 H   0  0  0  0  0  0
  -28.1471  -28.7369   21.2397 H   0  0  0  0  0  0
  -25.9156  -25.8057   18.9982 H   0  0  0  0  0  0
  -23.9929  -27.2860   18.9672 H   0  0  0  0  0  0
  -23.8379  -30.5515   19.3968 H   0  0  0  0  0  0
  -22.8021  -29.2281   19.8358 H   0  0  0  0  0  0
  -25.1328  -36.1833   25.0800 H   0  0  0  0  0  0
  -21.0029  -28.3321   24.1341 H   0  0  0  0  0  0
  -20.5723  -26.2335   23.3620 H   0  0  0  0  0  0
  -21.6665  -26.7442   22.1177 H   0  0  0  0  0  0
  -19.6939  -25.6273   21.1265 H   0  0  0  0  0  0
  -19.6708  -27.3160   20.6736 H   0  0  0  0  0  0
  -17.4228  -26.6672   21.4023 H   0  0  0  0  0  0
  -18.0353  -26.0063   22.9020 H   0  0  0  0  0  0
  -19.7949  -30.7299   24.2219 H   0  0  0  0  0  0
  -17.5019  -31.6265   24.5145 H   0  0  0  0  0  0
  -15.5362  -30.2959   23.7674 H   0  0  0  0  0  0
  -15.8699  -28.0789   22.7109 H   0  0  0  0  0  0
  -24.5877  -30.7140   25.7712 H   0  0  0  0  0  0
  -24.8944  -32.2945   26.4810 H   0  0  0  0  0  0
  -25.7986  -30.8918   27.0200 H   0  0  0  0  0  0
  -26.3044  -29.6637   24.1357 H   0  0  0  0  0  0
  -27.3995  -29.7261   25.4957 H   0  0  0  0  0  0
  -27.8975  -30.4148   23.9710 H   0  0  0  0  0  0
  -27.2656  -33.3636   26.2038 H   0  0  0  0  0  0
  -28.3896  -32.6872   25.0335 H   0  0  0  0  0  0
  -28.0732  -31.8482   26.5445 H   0  0  0  0  0  0
  -28.2591  -38.0080   24.7513 H   0  0  0  0  0  0
  -28.1075  -36.2605   24.6292 H   0  0  0  0  0  0
  -27.2288  -37.1427   25.8869 H   0  0  0  0  0  0
  -20.9520  -29.8715   21.6718 H   0  0  0  0  0  0
  -26.0152  -38.2800   24.1404 H   0  0  0  0  0  0
  -28.6215  -21.8248   22.5921 H   0  0  0  0  0  0
  -28.7016  -18.2213   23.2622 H   0  0  0  0  0  0
  -30.0045  -19.2676   23.8117 H   0  0  0  0  0  0
  -30.7081  -16.9135   22.6974 H   0  0  0  0  0  0
  -31.5683  -18.3587   22.2789 H   0  0  0  0  0  0
  -31.1718  -17.8797   20.0955 H   0  0  0  0  0  0
  -30.0167  -23.4493   20.1241 H   0  0  0  0  0  0
  -28.9176  -23.0638   18.8669 H   0  0  0  0  0  0
  -27.9324  -24.3996   21.5003 H   0  0  0  0  0  0
  -27.0283  -24.2582   20.0549 H   0  0  0  0  0  0
  -28.7813  -16.1451   20.5230 H   0  0  0  0  0  0
  1 25  1  0  0  0
  1 30  2  0  0  0
  1 81  1  0  0  0
  2  3  1  0  0  0
  2 25  1  0  0  0
  2 82  1  0  0  0
  2 83  1  0  0  0
  3  4  1  0  0  0
  3 84  1  0  0  0
  3 85  1  0  0  0
  4  5  1  0  0  0
  4 86  1  0  0  0
  4 87  1  0  0  0
  5  6  1  0  0  0
  5 26  1  0  0  0
  5 88  1  0  0  0
  6 25  1  0  0  0
  6 89  1  0  0  0
  6 90  1  0  0  0
  7  8  2  0  0  0
  7 26  1  0  0  0
  7 29  1  0  0  0
  8  9  1  0  0  0
  8 22  1  0  0  0
  9 10  1  0  0  0
  9 27  2  0  0  0
 10 11  2  0  0  0
 10 15  1  0  0  0
 11 12  1  0  0  0
 11 91  1  0  0  0
 12 13  2  0  0  0
 12 92  1  0  0  0
 13 14  1  0  0  0
 13 31  1  0  0  0
 14 15  2  0  0  0
 14 93  1  0  0  0
 15 94  1  0  0  0
 16 17  2  0  0  0
 16 21  1  0  0  0
 16 31  1  0  0  0
 17 18  1  0  0  0
 17 95  1  0  0  0
 18 19  2  0  0  0
 18 96  1  0  0  0
 19 20  1  0  0  0
 19 24  1  0  0  0
 20 21  2  0  0  0
 20 97  1  0  0  0
 21 23  1  0  0  0
 22 28  1  0  0  0
 22 32  2  0  0  0
 26 27  1  0  0  0
 28 98  1  0  0  0
 28 99  1  0  0  0
 29100  1  0  0  0
 29101  1  0  0  0
 33 34  1  0  0  0
 33 66  1  0  0  0
 33 70  2  0  0  0
 34 36  1  0  0  0
 34 59  1  0  0  0
 34102  1  0  0  0
 35 44  2  0  0  0
 35 45  1  0  0  0
 35 68  1  0  0  0
 36 56  1  0  0  0
 36103  1  0  0  0
 37 39  1  0  0  0
 37 47  1  0  0  0
 37 66  1  0  0  0
 37104  1  0  0  0
 38 43  2  0  0  0
 38 46  1  0  0  0
 38 47  1  0  0  0
 39 64  1  0  0  0
 39 67  2  0  0  0
 40 52  1  0  0  0
 40 53  2  0  0  0
 40 58  1  0  0  0
 41105  1  0  0  0
 41106  1  0  0  0
 41107  1  0  0  0
 41 48  1  0  0  0
 42 43  1  0  0  0
 42 66  1  0  0  0
 42108  1  0  0  0
 42109  1  0  0  0
 43 44  1  0  0  0
 44110  1  0  0  0
 45 46  2  0  0  0
 45111  1  0  0  0
 46112  1  0  0  0
 47113  1  0  0  0
 47114  1  0  0  0
 48 56  1  0  0  0
 48 65  1  0  0  0
 48115  1  0  0  0
 49 50  1  0  0  0
 49 53  1  0  0  0
 49 64  1  0  0  0
 49116  1  0  0  0
 50 51  1  0  0  0
 50117  1  0  0  0
 50118  1  0  0  0
 51 52  1  0  0  0
 51119  1  0  0  0
 51120  1  0  0  0
 52121  1  0  0  0
 52122  1  0  0  0
 53 54  1  0  0  0
 54 55  2  0  0  0
 54123  1  0  0  0
 55 57  1  0  0  0
 55124  1  0  0  0
 56 69  2  0  0  0
 57 58  2  0  0  0
 57125  1  0  0  0
 58126  1  0  0  0
 59 60  1  0  0  0
 59 61  1  0  0  0
 59 62  1  0  0  0
 60127  1  0  0  0
 60128  1  0  0  0
 60129  1  0  0  0
 61130  1  0  0  0
 61131  1  0  0  0
 61132  1  0  0  0
 62133  1  0  0  0
 62134  1  0  0  0
 62135  1  0  0  0
 63 65  1  0  0  0
 63136  1  0  0  0
 63137  1  0  0  0
 63138  1  0  0  0
 64139  1  0  0  0
 65140  1  0  0  0
 68 78  1  0  0  0
 71 72  2  0  0  0
 71 80  1  0  0  0
 71141  1  0  0  0
 72 73  1  0  0  0
 72 74  1  0  0  0
 73 76  1  0  0  0
 73 79  2  0  0  0
 74 75  1  0  0  0
 74142  1  0  0  0
 74143  1  0  0  0
 75 76  1  0  0  0
 75144  1  0  0  0
 75145  1  0  0  0
 76 81  1  0  0  0
 76146  1  0  0  0
 77 78  1  0  0  0
 77 80  1  0  0  0
 77147  1  0  0  0
 77148  1  0  0  0
 78149  1  0  0  0
 78150  1  0  0  0
 79 80  1  0  0  0
 81151  1  0  0  0
M  ISO  4   1 100  68 101  78 101  81 100
M  END
> <chiral flag>
0

> <version>
0

> <s_m_source_file>
/data/baiqing/PycharmProjects/Reinvent-master-3.2/result/LINK_invent/BTK/process_docking_weight1_custom_sum_contain_oxygen_bond_distance_aromatic_linkinvent_7_9_3/rearranged_h_0180.sdf

> <i_m_source_file_index>
55

> <r_mmod_Potential_Energy-OPLS-2005>
725.298156738281

> <r_mmod_Stretch_Energy-OPLS-2005>
343.743286132812

> <r_mmod_Bend_Energy-OPLS-2005>
415.066955566406

> <r_mmod_Torsional_Energy-OPLS-2005>
247.771499633789

> <r_mmod_Improper_Torsional_Energy-OPLS-2005>
17.3916015625

> <r_mmod_Van_der_Waal_Energy-OPLS-2005>
106.998268127441

> <r_mmod_Electrostatic_Energy-OPLS-2005>
-432.482788085938

> <r_mmod_Solvation_Energy-OPLS-2005>
-234.230026245117

> <b_mmod_Minimization_Converged-OPLS-2005>
0

> <r_mmod_RMS_Derivative-OPLS-2005>
2.05939817428589

$$$$
55
                    3D
 Structure written by MMmdl.
153162  0  0  1  0            999 V2000
  -30.5759  -14.8679   20.4245 C   0  0  0  0  0  0
  -30.4276  -12.5326   19.4930 C   0  0  0  0  0  0
  -29.5105  -12.5160   18.2489 C   0  0  0  0  0  0
  -28.0405  -12.3236   18.6640 C   0  0  0  0  0  0
  -27.6298  -13.2460   19.8425 C   0  0  2  0  0  0
  -28.6728  -13.2456   20.9812 C   0  0  0  0  0  0
  -25.2464  -13.8219   20.5722 C   0  0  0  0  0  0
  -24.1783  -13.0447   20.9235 C   0  0  0  0  0  0
  -24.6386  -11.6926   20.8768 C   0  0  0  0  0  0
  -23.9065  -10.4303   21.0421 C   0  0  0  0  0  0
  -24.3619   -9.4215   21.9184 C   0  0  0  0  0  0
  -23.6303   -8.2246   22.0747 C   0  0  0  0  0  0
  -22.4283   -8.0277   21.3549 C   0  0  0  0  0  0
  -21.9924   -9.0244   20.4644 C   0  0  0  0  0  0
  -22.7249  -10.2126   20.3058 C   0  0  0  0  0  0
  -21.6854   -6.0737   22.5279 C   0  0  0  0  0  0
  -21.4009   -6.5642   23.8208 C   0  0  0  0  0  0
  -21.3657   -5.6796   24.9175 C   0  0  0  0  0  0
  -21.6050   -4.3056   24.7234 C   0  0  0  0  0  0
  -21.8818   -3.8147   23.4354 C   0  0  0  0  0  0
  -21.9192   -4.6963   22.3409 C   0  0  0  0  0  0
  -22.7801  -13.5202   21.1906 C   0  0  0  0  0  0
  -22.1665   -4.2142   21.0992 F   0  0  0  0  0  0
  -21.5631   -3.4540   25.7750 F   0  0  0  0  0  0
  -29.9557  -13.6277   20.3848 N   0  0  0  0  0  0
  -26.2881  -12.9447   20.3272 N   0  0  0  0  0  0
  -25.9312  -11.6576   20.5750 N   0  0  0  0  0  0
  -22.0462  -12.8163   22.0453 N   0  0  0  0  0  0
  -25.4165  -15.1949   20.4152 N   0  0  0  0  0  0
  -31.7759  -14.9159   20.1387 O   0  0  0  0  0  0
  -21.6649   -6.8879   21.4239 O   0  0  0  0  0  0
  -22.3476  -14.5515   20.6768 O   0  0  0  0  0  0
  -24.6413  -31.8479   23.1905 C   0  0  0  0  0  0
  -25.9215  -32.4698   23.8290 C   0  0  1  0  0  0
  -27.2158  -27.1791   20.1511 C   0  0  0  0  0  0
  -25.5976  -33.8513   24.2205 N   0  0  0  0  0  0
  -23.4401  -30.4665   21.5346 C   0  0  2  0  0  0
  -24.8886  -28.8981   20.1059 C   0  0  0  0  0  0
  -22.7542  -29.4568   22.4873 C   0  0  0  0  0  0
  -18.0298  -28.1401   22.8494 C   0  0  0  0  0  0
  -24.1493  -36.7226   23.2629 C   0  0  0  0  0  0
  -25.9911  -30.7362   21.3805 C   0  0  0  0  0  0
  -26.0616  -29.3509   20.7226 C   0  0  0  0  0  0
  -27.2271  -28.5059   20.7281 C   0  0  0  0  0  0
  -26.0228  -26.8137   19.4929 C   0  0  0  0  0  0
  -24.8797  -27.6427   19.4760 C   0  0  0  0  0  0
  -23.6621  -29.7937   20.1531 C   0  0  0  0  0  0
  -25.4133  -36.3034   24.0310 C   0  0  1  0  0  0
  -20.5911  -28.3720   23.1250 C   0  0  2  0  0  0
  -20.6783  -26.9428   22.5408 C   0  0  0  0  0  0
  -19.5759  -26.6391   21.5214 C   0  0  0  0  0  0
  -18.1936  -26.7941   22.1626 C   0  0  0  0  0  0
  -19.1557  -28.8881   23.2862 C   0  0  0  0  0  0
  -18.9474  -30.1480   23.8881 C   0  0  0  0  0  0
  -17.6472  -30.6601   24.0565 C   0  0  0  0  0  0
  -25.9084  -34.9407   23.5059 C   0  0  0  0  0  0
  -16.5364  -29.9096   23.6344 C   0  0  0  0  0  0
  -16.7282  -28.6511   23.0373 C   0  0  0  0  0  0
  -26.4568  -31.6539   25.0704 C   0  0  0  0  0  0
  -25.3769  -31.3722   26.1399 C   0  0  0  0  0  0
  -27.0433  -30.2939   24.6245 C   0  0  0  0  0  0
  -27.6117  -32.4307   25.7472 C   0  0  0  0  0  0
  -27.5582  -37.1764   24.8452 C   0  0  0  0  0  0
  -21.4238  -29.3045   22.3620 N   0  0  0  0  0  0
  -26.4308  -37.3740   23.9386 N   0  0  0  0  0  0
  -24.7096  -31.0392   22.0901 N   0  0  0  0  0  0
  -23.4204  -28.8111   23.3009 O   0  0  0  0  0  0
  -28.2854  -26.2262   20.2569 O   0  0  0  0  0  0
  -26.5654  -34.8894   22.4630 O   0  0  0  0  0  0
  -23.5543  -32.1338   23.7153 O   0  0  0  0  0  0
  -28.0018  -20.7949   20.7642 C   0  0  0  0  0  0
  -28.3728  -19.3916   20.6692 C   0  0  0  0  0  0
  -30.2046  -21.3682   20.2353 C   0  0  0  0  0  0
  -28.9197  -21.8890   20.5753 C   0  0  0  0  0  0
  -29.7077  -18.9888   20.3744 C   0  0  0  0  0  0
  -29.6226  -23.8994   22.1391 C   0  0  0  0  0  0
  -28.2281  -23.5258   22.5108 C   0  0  0  0  0  0
  -28.6640  -23.4390   21.0440 C   0  0  0  0  0  0
  -30.3718  -17.4943   20.2440 C   0  0  0  0  0  0
  -28.1576  -24.6847   20.0773 C   0  0  0  0  0  0
  -30.5656  -20.0337   20.1429 N   0  0  0  0  0  0
  -29.8395  -16.0641   20.5505 N   0  0  0  0  0  0
  -31.4656  -12.6666   19.1824 H   0  0  0  0  0  0
  -30.3930  -11.5725   20.0105 H   0  0  0  0  0  0
  -29.8116  -11.7215   17.5638 H   0  0  0  0  0  0
  -29.6179  -13.4529   17.7002 H   0  0  0  0  0  0
  -27.9156  -11.2794   18.9533 H   0  0  0  0  0  0
  -27.3806  -12.4827   17.8105 H   0  0  0  0  0  0
  -27.6037  -14.2548   19.4298 H   0  0  0  0  0  0
  -28.7389  -12.2659   21.4561 H   0  0  0  0  0  0
  -28.3869  -13.9502   21.7635 H   0  0  0  0  0  0
  -25.2752   -9.5686   22.4772 H   0  0  0  0  0  0
  -24.0005   -7.4635   22.7458 H   0  0  0  0  0  0
  -21.0858   -8.8767   19.8949 H   0  0  0  0  0  0
  -22.3701  -10.9670   19.6176 H   0  0  0  0  0  0
  -21.1996   -7.6142   23.9709 H   0  0  0  0  0  0
  -21.1484   -6.0531   25.9079 H   0  0  0  0  0  0
  -22.0602   -2.7606   23.2861 H   0  0  0  0  0  0
  -22.4081  -11.9791   22.4785 H   0  0  0  0  0  0
  -21.1080  -13.1167   22.2704 H   0  0  0  0  0  0
  -24.6507  -15.8505   20.5282 H   0  0  0  0  0  0
  -26.2574  -15.6293   20.0586 H   0  0  0  0  0  0
  -26.7296  -32.5313   23.1034 H   0  0  0  0  0  0
  -25.0132  -33.9637   25.0356 H   0  0  0  0  0  0
  -22.7405  -31.2905   21.3816 H   0  0  0  0  0  0
  -23.3775  -35.9537   23.3290 H   0  0  0  0  0  0
  -24.3568  -36.8846   22.2046 H   0  0  0  0  0  0
  -23.7228  -37.6416   23.6647 H   0  0  0  0  0  0
  -26.1422  -31.4941   20.6101 H   0  0  0  0  0  0
  -26.8639  -30.7834   22.0207 H   0  0  0  0  0  0
  -28.1234  -28.8458   21.2287 H   0  0  0  0  0  0
  -25.9532  -25.8464   19.0165 H   0  0  0  0  0  0
  -23.9818  -27.2916   18.9867 H   0  0  0  0  0  0
  -23.7916  -30.5681   19.3968 H   0  0  0  0  0  0
  -22.7783  -29.2294   19.8479 H   0  0  0  0  0  0
  -25.1332  -36.1862   25.0809 H   0  0  0  0  0  0
  -21.0011  -28.3316   24.1374 H   0  0  0  0  0  0
  -20.5687  -26.2334   23.3632 H   0  0  0  0  0  0
  -21.6640  -26.7444   22.1193 H   0  0  0  0  0  0
  -19.6911  -25.6296   21.1262 H   0  0  0  0  0  0
  -19.6691  -27.3179   20.6725 H   0  0  0  0  0  0
  -17.4200  -26.6705   21.4032 H   0  0  0  0  0  0
  -18.0321  -26.0086   22.9020 H   0  0  0  0  0  0
  -19.7951  -30.7302   24.2235 H   0  0  0  0  0  0
  -17.5025  -31.6274   24.5167 H   0  0  0  0  0  0
  -15.5361  -30.2989   23.7679 H   0  0  0  0  0  0
  -15.8681  -28.0812   22.7123 H   0  0  0  0  0  0
  -24.5879  -30.7159   25.7713 H   0  0  0  0  0  0
  -24.9044  -32.2914   26.4860 H   0  0  0  0  0  0
  -25.8041  -30.8850   27.0178 H   0  0  0  0  0  0
  -26.3036  -29.6677   24.1237 H   0  0  0  0  0  0
  -27.4039  -29.7238   25.4821 H   0  0  0  0  0  0
  -27.8954  -30.4178   23.9558 H   0  0  0  0  0  0
  -27.2735  -33.3638   26.1981 H   0  0  0  0  0  0
  -28.3989  -32.6826   25.0341 H   0  0  0  0  0  0
  -28.0726  -31.8477   26.5465 H   0  0  0  0  0  0
  -28.2620  -38.0040   24.7517 H   0  0  0  0  0  0
  -28.1063  -36.2588   24.6274 H   0  0  0  0  0  0
  -27.2279  -37.1397   25.8843 H   0  0  0  0  0  0
  -20.9442  -29.8755   21.6802 H   0  0  0  0  0  0
  -26.0203  -38.2825   24.1341 H   0  0  0  0  0  0
  -26.9916  -21.0307   21.0643 H   0  0  0  0  0  0
  -27.6233  -18.6332   20.8563 H   0  0  0  0  0  0
  -31.0291  -22.0574   20.1198 H   0  0  0  0  0  0
  -30.4190  -23.2272   22.4520 H   0  0  0  0  0  0
  -29.8690  -24.9583   22.2023 H   0  0  0  0  0  0
  -27.5876  -24.3412   22.8411 H   0  0  0  0  0  0
  -28.0880  -22.5964   23.0604 H   0  0  0  0  0  0
  -31.3034  -17.5633   20.8071 H   0  0  0  0  0  0
  -30.6943  -17.4424   19.2034 H   0  0  0  0  0  0
  -29.1784  -24.9709   19.8230 H   0  0  0  0  0  0
  -27.3766  -24.9519   20.7828 H   0  0  0  0  0  0
  -28.8537  -15.9867   20.7462 H   0  0  0  0  0  0
  1 25  1  0  0  0
  1 30  2  0  0  0
  1 82  1  0  0  0
  2  3  1  0  0  0
  2 25  1  0  0  0
  2 83  1  0  0  0
  2 84  1  0  0  0
  3  4  1  0  0  0
  3 85  1  0  0  0
  3 86  1  0  0  0
  4  5  1  0  0  0
  4 87  1  0  0  0
  4 88  1  0  0  0
  5  6  1  0  0  0
  5 26  1  0  0  0
  5 89  1  0  0  0
  6 25  1  0  0  0
  6 90  1  0  0  0
  6 91  1  0  0  0
  7  8  2  0  0  0
  7 26  1  0  0  0
  7 29  1  0  0  0
  8  9  1  0  0  0
  8 22  1  0  0  0
  9 10  1  0  0  0
  9 27  2  0  0  0
 10 11  2  0  0  0
 10 15  1  0  0  0
 11 12  1  0  0  0
 11 92  1  0  0  0
 12 13  2  0  0  0
 12 93  1  0  0  0
 13 14  1  0  0  0
 13 31  1  0  0  0
 14 15  2  0  0  0
 14 94  1  0  0  0
 15 95  1  0  0  0
 16 17  2  0  0  0
 16 21  1  0  0  0
 16 31  1  0  0  0
 17 18  1  0  0  0
 17 96  1  0  0  0
 18 19  2  0  0  0
 18 97  1  0  0  0
 19 20  1  0  0  0
 19 24  1  0  0  0
 20 21  2  0  0  0
 20 98  1  0  0  0
 21 23  1  0  0  0
 22 28  1  0  0  0
 22 32  2  0  0  0
 26 27  1  0  0  0
 28 99  1  0  0  0
 28100  1  0  0  0
 29101  1  0  0  0
 29102  1  0  0  0
 33 34  1  0  0  0
 33 66  1  0  0  0
 33 70  2  0  0  0
 34 36  1  0  0  0
 34 59  1  0  0  0
 34103  1  0  0  0
 35 44  2  0  0  0
 35 45  1  0  0  0
 35 68  1  0  0  0
 36 56  1  0  0  0
 36104  1  0  0  0
 37 39  1  0  0  0
 37 47  1  0  0  0
 37 66  1  0  0  0
 37105  1  0  0  0
 38 43  2  0  0  0
 38 46  1  0  0  0
 38 47  1  0  0  0
 39 64  1  0  0  0
 39 67  2  0  0  0
 40 52  1  0  0  0
 40 53  2  0  0  0
 40 58  1  0  0  0
 41106  1  0  0  0
 41107  1  0  0  0
 41108  1  0  0  0
 41 48  1  0  0  0
 42 43  1  0  0  0
 42 66  1  0  0  0
 42109  1  0  0  0
 42110  1  0  0  0
 43 44  1  0  0  0
 44111  1  0  0  0
 45 46  2  0  0  0
 45112  1  0  0  0
 46113  1  0  0  0
 47114  1  0  0  0
 47115  1  0  0  0
 48 56  1  0  0  0
 48 65  1  0  0  0
 48116  1  0  0  0
 49 50  1  0  0  0
 49 53  1  0  0  0
 49 64  1  0  0  0
 49117  1  0  0  0
 50 51  1  0  0  0
 50118  1  0  0  0
 50119  1  0  0  0
 51 52  1  0  0  0
 51120  1  0  0  0
 51121  1  0  0  0
 52122  1  0  0  0
 52123  1  0  0  0
 53 54  1  0  0  0
 54 55  2  0  0  0
 54124  1  0  0  0
 55 57  1  0  0  0
 55125  1  0  0  0
 56 69  2  0  0  0
 57 58  2  0  0  0
 57126  1  0  0  0
 58127  1  0  0  0
 59 60  1  0  0  0
 59 61  1  0  0  0
 59 62  1  0  0  0
 60128  1  0  0  0
 60129  1  0  0  0
 60130  1  0  0  0
 61131  1  0  0  0
 61132  1  0  0  0
 61133  1  0  0  0
 62134  1  0  0  0
 62135  1  0  0  0
 62136  1  0  0  0
 63 65  1  0  0  0
 63137  1  0  0  0
 63138  1  0  0  0
 63139  1  0  0  0
 64140  1  0  0  0
 65141  1  0  0  0
 68 80  1  0  0  0
 71 72  2  0  0  0
 71 74  1  0  0  0
 71142  1  0  0  0
 72 75  1  0  0  0
 72143  1  0  0  0
 73 74  2  0  0  0
 73 81  1  0  0  0
 73144  1  0  0  0
 74 78  1  0  0  0
 75 79  1  0  0  0
 75 81  2  0  0  0
 76 77  1  0  0  0
 76 78  1  0  0  0
 76145  1  0  0  0
 76146  1  0  0  0
 77 78  1  0  0  0
 77147  1  0  0  0
 77148  1  0  0  0
 78 80  1  0  0  0
 79 82  1  0  0  0
 79149  1  0  0  0
 79150  1  0  0  0
 80151  1  0  0  0
 80152  1  0  0  0
 82153  1  0  0  0
M  ISO  4   1 100  68 101  80 101  82 100
M  END
> <chiral flag>
0

> <version>
0

> <s_m_source_file>
/data/baiqing/PycharmProjects/Reinvent-master-3.2/result/LINK_invent/BTK/process_docking_weight1_custom_sum_contain_oxygen_bond_distance_aromatic_linkinvent_7_9_3/rearranged_h_0180.sdf

> <i_m_source_file_index>
56

> <r_mmod_Potential_Energy-OPLS-2005>
405.449554443359

> <r_mmod_Stretch_Energy-OPLS-2005>
204.710144042969

> <r_mmod_Bend_Energy-OPLS-2005>
465.200439453125

> <r_mmod_Torsional_Energy-OPLS-2005>
248.704208374023

> <r_mmod_Improper_Torsional_Energy-OPLS-2005>
8.15449810028076

> <r_mmod_Van_der_Waal_Energy-OPLS-2005>
143.83659362793

> <r_mmod_Electrostatic_Energy-OPLS-2005>
-591.315063476562

> <r_mmod_Solvation_Energy-OPLS-2005>
-222.897155761719

> <b_mmod_Minimization_Converged-OPLS-2005>
0

> <r_mmod_RMS_Derivative-OPLS-2005>
2.10241651535034

$$$$
56
                    3D
 Structure written by MMmdl.
167176  0  0  1  0            999 V2000
  -30.7318  -14.4308   20.5003 C   0  0  0  0  0  0
  -30.4083  -12.2646   19.4139 C   0  0  0  0  0  0
  -29.4842  -12.4698   18.1972 C   0  0  0  0  0  0
  -28.0052  -12.3491   18.6140 C   0  0  0  0  0  0
  -27.6569  -13.2046   19.8617 C   0  0  2  0  0  0
  -28.7042  -13.0189   20.9830 C   0  0  0  0  0  0
  -25.2604  -13.8135   20.5768 C   0  0  0  0  0  0
  -24.1810  -13.0417   20.9183 C   0  0  0  0  0  0
  -24.6364  -11.6894   20.8722 C   0  0  0  0  0  0
  -23.9039  -10.4271   21.0387 C   0  0  0  0  0  0
  -24.3599   -9.4192   21.9169 C   0  0  0  0  0  0
  -23.6279   -8.2236   22.0746 C   0  0  0  0  0  0
  -22.4261   -8.0280   21.3534 C   0  0  0  0  0  0
  -21.9896   -9.0247   20.4637 C   0  0  0  0  0  0
  -22.7220  -10.2127   20.3033 C   0  0  0  0  0  0
  -21.6848   -6.0741   22.5274 C   0  0  0  0  0  0
  -21.4020   -6.5646   23.8213 C   0  0  0  0  0  0
  -21.3648   -5.6795   24.9173 C   0  0  0  0  0  0
  -21.6044   -4.3050   24.7216 C   0  0  0  0  0  0
  -21.8818   -3.8146   23.4336 C   0  0  0  0  0  0
  -21.9193   -4.6970   22.3400 C   0  0  0  0  0  0
  -22.7848  -13.5230   21.1861 C   0  0  0  0  0  0
  -22.1666   -4.2165   21.0977 F   0  0  0  0  0  0
  -21.5617   -3.4525   25.7716 F   0  0  0  0  0  0
  -30.0347  -13.2731   20.4103 N   0  0  0  0  0  0
  -26.3017  -12.9301   20.3365 N   0  0  0  0  0  0
  -25.9297  -11.6470   20.5757 N   0  0  0  0  0  0
  -22.0479  -12.8228   22.0427 N   0  0  0  0  0  0
  -25.4382  -15.1839   20.4325 N   0  0  0  0  0  0
  -31.9243  -14.5229   20.2107 O   0  0  0  0  0  0
  -21.6624   -6.8879   21.4238 O   0  0  0  0  0  0
  -22.3571  -14.5555   20.6726 O   0  0  0  0  0  0
  -24.6132  -31.8693   23.2138 C   0  0  0  0  0  0
  -25.9038  -32.4832   23.8409 C   0  0  1  0  0  0
  -27.2216  -27.4416   20.0941 C   0  0  0  0  0  0
  -25.5911  -33.8629   24.2349 N   0  0  0  0  0  0
  -23.3987  -30.4966   21.5527 C   0  0  2  0  0  0
  -24.8420  -28.9649   20.1193 C   0  0  0  0  0  0
  -22.7374  -29.4690   22.4985 C   0  0  0  0  0  0
  -18.0261  -28.1368   22.8506 C   0  0  0  0  0  0
  -24.1483  -36.7302   23.2641 C   0  0  0  0  0  0
  -25.9274  -30.8371   21.3652 C   0  0  0  0  0  0
  -26.0031  -29.4731   20.7127 C   0  0  0  0  0  0
  -27.1969  -28.7191   20.6975 C   0  0  0  0  0  0
  -26.0447  -26.9526   19.4807 C   0  0  0  0  0  0
  -24.8556  -27.7022   19.5034 C   0  0  0  0  0  0
  -23.6060  -29.8323   20.1663 C   0  0  0  0  0  0
  -25.4104  -36.3114   24.0349 C   0  0  1  0  0  0
  -20.5849  -28.3663   23.1313 C   0  0  2  0  0  0
  -20.6763  -26.9403   22.5415 C   0  0  0  0  0  0
  -19.5745  -26.6391   21.5204 C   0  0  0  0  0  0
  -18.1920  -26.7926   22.1621 C   0  0  0  0  0  0
  -19.1510  -28.8818   23.2919 C   0  0  0  0  0  0
  -18.9453  -30.1424   23.8930 C   0  0  0  0  0  0
  -17.6459  -30.6587   24.0560 C   0  0  0  0  0  0
  -25.9025  -34.9484   23.5139 C   0  0  0  0  0  0
  -16.5345  -29.9092   23.6323 C   0  0  0  0  0  0
  -16.7253  -28.6497   23.0366 C   0  0  0  0  0  0
  -26.4484  -31.6598   25.0712 C   0  0  0  0  0  0
  -25.3771  -31.3691   26.1468 C   0  0  0  0  0  0
  -27.0297  -30.3046   24.6066 C   0  0  0  0  0  0
  -27.6060  -32.4309   25.7475 C   0  0  0  0  0  0
  -27.5580  -37.1810   24.8476 C   0  0  0  0  0  0
  -21.4109  -29.3036   22.3699 N   0  0  0  0  0  0
  -26.4290  -37.3798   23.9411 N   0  0  0  0  0  0
  -24.6649  -31.0806   22.1033 N   0  0  0  0  0  0
  -23.4151  -28.8212   23.3001 O   0  0  0  0  0  0
  -28.3957  -26.7250   20.0827 O   0  0  0  0  0  0
  -26.5579  -34.8929   22.4693 O   0  0  0  0  0  0
  -23.5328  -32.1437   23.7540 O   0  0  0  0  0  0
  -29.4568  -19.0413   21.4102 C   0  0  0  0  0  0
  -28.4021  -19.9599   21.3744 C   0  0  0  0  0  0
  -29.3032  -17.8681   20.6669 C   0  0  0  0  0  0
  -27.2358  -18.5563   19.9918 C   0  0  0  0  0  0
  -27.2359  -21.7821   22.8284 C   0  0  0  0  0  0
  -27.4476  -23.3068   22.9467 C   0  0  0  0  0  0
  -28.9284  -22.4913   21.2773 C   0  0  0  0  0  0
  -28.5029  -21.2871   22.1149 C   0  0  2  0  0  0
  -25.9808  -18.2962   19.1869 C   0  0  0  0  0  0
  -31.0874  -17.1804   19.0930 C   0  0  0  0  0  0
  -28.8784  -25.0101   21.7233 C   0  0  0  0  0  0
  -28.3148  -25.3110   20.3209 C   0  0  0  0  0  0
  -30.4556  -16.9044   20.4802 C   0  0  2  0  0  0
  -27.3080  -19.7248   20.6254 N   0  0  0  0  0  0
  -28.1659  -17.6064   19.9909 N   0  0  0  0  0  0
  -29.9893  -15.5299   20.6496 N   0  0  0  0  0  0
  -28.6988  -23.6134   22.2112 N   0  3  2  0  0  0
  -31.4546  -12.3368   19.1109 H   0  0  0  0  0  0
  -30.2833  -11.2648   19.8328 H   0  0  0  0  0  0
  -29.7165  -11.7356   17.4231 H   0  0  0  0  0  0
  -29.6623  -13.4521   17.7551 H   0  0  0  0  0  0
  -27.8074  -11.2955   18.8193 H   0  0  0  0  0  0
  -27.3572  -12.6234   17.7812 H   0  0  0  0  0  0
  -27.6899  -14.2458   19.5440 H   0  0  0  0  0  0
  -28.6653  -12.0030   21.3781 H   0  0  0  0  0  0
  -28.4948  -13.6786   21.8271 H   0  0  0  0  0  0
  -25.2749   -9.5676   22.4728 H   0  0  0  0  0  0
  -23.9987   -7.4636   22.7464 H   0  0  0  0  0  0
  -21.0833   -8.8773   19.8945 H   0  0  0  0  0  0
  -22.3687  -10.9670   19.6136 H   0  0  0  0  0  0
  -21.2025   -7.6149   23.9726 H   0  0  0  0  0  0
  -21.1469   -6.0512   25.9081 H   0  0  0  0  0  0
  -22.0606   -2.7604   23.2824 H   0  0  0  0  0  0
  -22.4083  -11.9895   22.4809 H   0  0  0  0  0  0
  -21.1094  -13.1261   22.2600 H   0  0  0  0  0  0
  -24.6776  -15.8363   20.5784 H   0  0  0  0  0  0
  -26.3161  -15.6352   20.2034 H   0  0  0  0  0  0
  -26.7091  -32.5555   23.1155 H   0  0  0  0  0  0
  -25.0089  -33.9799   25.0520 H   0  0  0  0  0  0
  -22.6900  -31.3155   21.4173 H   0  0  0  0  0  0
  -23.3750  -35.9628   23.3320 H   0  0  0  0  0  0
  -24.3569  -36.8889   22.2048 H   0  0  0  0  0  0
  -23.7229  -37.6518   23.6626 H   0  0  0  0  0  0
  -26.0386  -31.6029   20.5960 H   0  0  0  0  0  0
  -26.8160  -30.8888   21.9825 H   0  0  0  0  0  0
  -28.0948  -29.1115   21.1525 H   0  0  0  0  0  0
  -26.0300  -26.0058   18.9590 H   0  0  0  0  0  0
  -23.9620  -27.3097   19.0377 H   0  0  0  0  0  0
  -23.7186  -30.6081   19.4079 H   0  0  0  0  0  0
  -22.7294  -29.2544   19.8685 H   0  0  0  0  0  0
  -25.1283  -36.1991   25.0844 H   0  0  0  0  0  0
  -20.9971  -28.3236   24.1421 H   0  0  0  0  0  0
  -20.5643  -26.2273   23.3589 H   0  0  0  0  0  0
  -21.6640  -26.7446   22.1211 H   0  0  0  0  0  0
  -19.6908  -25.6305   21.1216 H   0  0  0  0  0  0
  -19.6690  -27.3204   20.6723 H   0  0  0  0  0  0
  -17.4194  -26.6660   21.4022 H   0  0  0  0  0  0
  -18.0351  -26.0049   22.8994 H   0  0  0  0  0  0
  -19.7922  -30.7231   24.2335 H   0  0  0  0  0  0
  -17.5012  -31.6287   24.5139 H   0  0  0  0  0  0
  -15.5347  -30.3014   23.7627 H   0  0  0  0  0  0
  -15.8651  -28.0821   22.7097 H   0  0  0  0  0  0
  -24.5941  -30.7044   25.7814 H   0  0  0  0  0  0
  -24.8966  -32.2835   26.4949 H   0  0  0  0  0  0
  -25.8141  -30.8846   27.0205 H   0  0  0  0  0  0
  -26.2821  -29.6811   24.1145 H   0  0  0  0  0  0
  -27.4106  -29.7280   25.4503 H   0  0  0  0  0  0
  -27.8643  -30.4367   23.9175 H   0  0  0  0  0  0
  -27.2689  -33.3590   26.2102 H   0  0  0  0  0  0
  -28.3853  -32.6899   25.0298 H   0  0  0  0  0  0
  -28.0743  -31.8402   26.5357 H   0  0  0  0  0  0
  -28.2626  -38.0083   24.7508 H   0  0  0  0  0  0
  -28.1047  -36.2620   24.6323 H   0  0  0  0  0  0
  -27.2287  -37.1491   25.8876 H   0  0  0  0  0  0
  -20.9242  -29.8762   21.6951 H   0  0  0  0  0  0
  -26.0188  -38.2876   24.1420 H   0  0  0  0  0  0
  -30.3723  -19.2431   21.9502 H   0  0  0  0  0  0
  -26.3470  -21.5943   22.2243 H   0  0  0  0  0  0
  -27.0865  -21.2883   23.7896 H   0  0  0  0  0  0
  -27.5488  -23.6153   23.9876 H   0  0  0  0  0  0
  -26.5950  -23.8400   22.5229 H   0  0  0  0  0  0
  -28.2778  -22.5681   20.4043 H   0  0  0  0  0  0
  -29.9627  -22.4217   20.9386 H   0  0  0  0  0  0
  -29.2649  -21.1447   22.8834 H   0  0  0  0  0  0
  -25.7195  -19.1662   18.5864 H   0  0  0  0  0  0
  -25.1460  -18.0789   19.8513 H   0  0  0  0  0  0
  -26.1077  -17.4468   18.5151 H   0  0  0  0  0  0
  -30.3990  -16.9402   18.2826 H   0  0  0  0  0  0
  -32.0091  -16.6266   18.9223 H   0  0  0  0  0  0
  -31.3427  -18.2351   18.9905 H   0  0  0  0  0  0
  -28.4375  -25.6898   22.4532 H   0  0  0  0  0  0
  -29.9485  -25.2288   21.7173 H   0  0  0  0  0  0
  -27.3107  -24.8974   20.2535 H   0  0  0  0  0  0
  -28.9053  -24.8057   19.5550 H   0  0  0  0  0  0
  -31.1987  -17.1015   21.2552 H   0  0  0  0  0  0
  -28.9937  -15.4373   20.7763 H   0  0  0  0  0  0
  -29.4183  -23.5042   22.9116 H   0  0  0  0  0  0
  1 25  1  0  0  0
  1 30  2  0  0  0
  1 86  1  0  0  0
  2  3  1  0  0  0
  2 25  1  0  0  0
  2 88  1  0  0  0
  2 89  1  0  0  0
  3  4  1  0  0  0
  3 90  1  0  0  0
  3 91  1  0  0  0
  4  5  1  0  0  0
  4 92  1  0  0  0
  4 93  1  0  0  0
  5  6  1  0  0  0
  5 26  1  0  0  0
  5 94  1  0  0  0
  6 25  1  0  0  0
  6 95  1  0  0  0
  6 96  1  0  0  0
  7  8  2  0  0  0
  7 26  1  0  0  0
  7 29  1  0  0  0
  8  9  1  0  0  0
  8 22  1  0  0  0
  9 10  1  0  0  0
  9 27  2  0  0  0
 10 11  2  0  0  0
 10 15  1  0  0  0
 11 12  1  0  0  0
 11 97  1  0  0  0
 12 13  2  0  0  0
 12 98  1  0  0  0
 13 14  1  0  0  0
 13 31  1  0  0  0
 14 15  2  0  0  0
 14 99  1  0  0  0
 15100  1  0  0  0
 16 17  2  0  0  0
 16 21  1  0  0  0
 16 31  1  0  0  0
 17 18  1  0  0  0
 17101  1  0  0  0
 18 19  2  0  0  0
 18102  1  0  0  0
 19 20  1  0  0  0
 19 24  1  0  0  0
 20 21  2  0  0  0
 20103  1  0  0  0
 21 23  1  0  0  0
 22 28  1  0  0  0
 22 32  2  0  0  0
 26 27  1  0  0  0
 28104  1  0  0  0
 28105  1  0  0  0
 29106  1  0  0  0
 29107  1  0  0  0
 33 34  1  0  0  0
 33 66  1  0  0  0
 33 70  2  0  0  0
 34 36  1  0  0  0
 34 59  1  0  0  0
 34108  1  0  0  0
 35 44  2  0  0  0
 35 45  1  0  0  0
 35 68  1  0  0  0
 36 56  1  0  0  0
 36109  1  0  0  0
 37 39  1  0  0  0
 37 47  1  0  0  0
 37 66  1  0  0  0
 37110  1  0  0  0
 38 43  2  0  0  0
 38 46  1  0  0  0
 38 47  1  0  0  0
 39 64  1  0  0  0
 39 67  2  0  0  0
 40 52  1  0  0  0
 40 53  2  0  0  0
 40 58  1  0  0  0
 41111  1  0  0  0
 41112  1  0  0  0
 41113  1  0  0  0
 41 48  1  0  0  0
 42 43  1  0  0  0
 42 66  1  0  0  0
 42114  1  0  0  0
 42115  1  0  0  0
 43 44  1  0  0  0
 44116  1  0  0  0
 45 46  2  0  0  0
 45117  1  0  0  0
 46118  1  0  0  0
 47119  1  0  0  0
 47120  1  0  0  0
 48 56  1  0  0  0
 48 65  1  0  0  0
 48121  1  0  0  0
 49 50  1  0  0  0
 49 53  1  0  0  0
 49 64  1  0  0  0
 49122  1  0  0  0
 50 51  1  0  0  0
 50123  1  0  0  0
 50124  1  0  0  0
 51 52  1  0  0  0
 51125  1  0  0  0
 51126  1  0  0  0
 52127  1  0  0  0
 52128  1  0  0  0
 53 54  1  0  0  0
 54 55  2  0  0  0
 54129  1  0  0  0
 55 57  1  0  0  0
 55130  1  0  0  0
 56 69  2  0  0  0
 57 58  2  0  0  0
 57131  1  0  0  0
 58132  1  0  0  0
 59 60  1  0  0  0
 59 61  1  0  0  0
 59 62  1  0  0  0
 60133  1  0  0  0
 60134  1  0  0  0
 60135  1  0  0  0
 61136  1  0  0  0
 61137  1  0  0  0
 61138  1  0  0  0
 62139  1  0  0  0
 62140  1  0  0  0
 62141  1  0  0  0
 63 65  1  0  0  0
 63142  1  0  0  0
 63143  1  0  0  0
 63144  1  0  0  0
 64145  1  0  0  0
 65146  1  0  0  0
 68 82  1  0  0  0
 71 72  2  0  0  0
 71 73  1  0  0  0
 71147  1  0  0  0
 72 84  1  0  0  0
 72 78  1  0  0  0
 73 83  1  0  0  0
 73 85  2  0  0  0
 74 79  1  0  0  0
 74 84  2  0  0  0
 74 85  1  0  0  0
 75 76  1  0  0  0
 75 78  1  0  0  0
 75148  1  0  0  0
 75149  1  0  0  0
 76 87  1  0  0  0
 76150  1  0  0  0
 76151  1  0  0  0
 77 78  1  0  0  0
 77 87  1  0  0  0
 77152  1  0  0  0
 77153  1  0  0  0
 78154  1  0  0  0
 79155  1  0  0  0
 79156  1  0  0  0
 79157  1  0  0  0
 80158  1  0  0  0
 80159  1  0  0  0
 80160  1  0  0  0
 80 83  1  0  0  0
 81 82  1  0  0  0
 81161  1  0  0  0
 81162  1  0  0  0
 81 87  1  0  0  0
 82163  1  0  0  0
 82164  1  0  0  0
 83 86  1  0  0  0
 83165  1  0  0  0
 86166  1  0  0  0
 87167  1  0  0  0
M  CHG  1  87   1
M  ISO  4   1 100  68 101  82 101  86 100
M  END
> <chiral flag>
0

> <version>
0

> <s_m_source_file>
/data/baiqing/PycharmProjects/Reinvent-master-3.2/result/LINK_invent/BTK/process_docking_weight1_custom_sum_contain_oxygen_bond_distance_aromatic_linkinvent_7_9_3/rearranged_h_0180.sdf

> <i_m_source_file_index>
57

> <r_mmod_Potential_Energy-OPLS-2005>
-713.851013183594

> <r_mmod_Stretch_Energy-OPLS-2005>
31.4592628479004

> <r_mmod_Bend_Energy-OPLS-2005>
138.411117553711

> <r_mmod_Torsional_Energy-OPLS-2005>
261.251892089844

> <r_mmod_Improper_Torsional_Energy-OPLS-2005>
7.0694751739502

> <r_mmod_Van_der_Waal_Energy-OPLS-2005>
158.703872680664

> <r_mmod_Electrostatic_Energy-OPLS-2005>
-890.457580566406

> <r_mmod_Solvation_Energy-OPLS-2005>
-439.613800048828

> <b_mmod_Minimization_Converged-OPLS-2005>
0

> <r_mmod_RMS_Derivative-OPLS-2005>
3.14646100997925

$$$$
57
                    3D
 Structure written by MMmdl.
152160  0  0  1  0            999 V2000
  -30.4303  -15.1984   20.3780 C   0  0  0  0  0  0
  -30.4465  -12.7529   19.5278 C   0  0  0  0  0  0
  -29.5372  -12.5696   18.2857 C   0  0  0  0  0  0
  -28.0805  -12.3036   18.7074 C   0  0  0  0  0  0
  -27.6195  -13.2639   19.8319 C   0  0  2  0  0  0
  -28.6546  -13.3895   20.9704 C   0  0  0  0  0  0
  -25.2410  -13.8228   20.5721 C   0  0  0  0  0  0
  -24.1751  -13.0433   20.9244 C   0  0  0  0  0  0
  -24.6386  -11.6923   20.8748 C   0  0  0  0  0  0
  -23.9072  -10.4286   21.0391 C   0  0  0  0  0  0
  -24.3622   -9.4207   21.9174 C   0  0  0  0  0  0
  -23.6292   -8.2244   22.0751 C   0  0  0  0  0  0
  -22.4277   -8.0275   21.3542 C   0  0  0  0  0  0
  -21.9909   -9.0247   20.4642 C   0  0  0  0  0  0
  -22.7240  -10.2125   20.3044 C   0  0  0  0  0  0
  -21.6856   -6.0726   22.5273 C   0  0  0  0  0  0
  -21.4024   -6.5630   23.8205 C   0  0  0  0  0  0
  -21.3663   -5.6787   24.9170 C   0  0  0  0  0  0
  -21.6043   -4.3048   24.7223 C   0  0  0  0  0  0
  -21.8819   -3.8137   23.4347 C   0  0  0  0  0  0
  -21.9197   -4.6949   22.3400 C   0  0  0  0  0  0
  -22.7771  -13.5192   21.1896 C   0  0  0  0  0  0
  -22.1660   -4.2130   21.0979 F   0  0  0  0  0  0
  -21.5627   -3.4535   25.7742 F   0  0  0  0  0  0
  -29.9006  -13.8815   20.3609 N   0  0  0  0  0  0
  -26.2841  -12.9482   20.3226 N   0  0  0  0  0  0
  -25.9325  -11.6597   20.5721 N   0  0  0  0  0  0
  -22.0434  -12.8177   22.0457 N   0  0  0  0  0  0
  -25.4038  -15.1963   20.4128 N   0  0  0  0  0  0
  -31.6413  -15.2467   20.1110 O   0  0  0  0  0  0
  -21.6645   -6.8871   21.4235 O   0  0  0  0  0  0
  -22.3446  -14.5492   20.6737 O   0  0  0  0  0  0
  -24.6583  -31.8276   23.1731 C   0  0  0  0  0  0
  -25.9287  -32.4606   23.8170 C   0  0  1  0  0  0
  -27.2233  -26.9731   20.1815 C   0  0  0  0  0  0
  -25.5973  -33.8416   24.2083 N   0  0  0  0  0  0
  -23.4709  -30.4390   21.5216 C   0  0  2  0  0  0
  -24.9249  -28.8322   20.1121 C   0  0  0  0  0  0
  -22.7638  -29.4454   22.4793 C   0  0  0  0  0  0
  -18.0315  -28.1402   22.8449 C   0  0  0  0  0  0
  -24.1494  -36.7224   23.2643 C   0  0  0  0  0  0
  -26.0366  -30.6491   21.3954 C   0  0  0  0  0  0
  -26.1071  -29.2432   20.7398 C   0  0  0  0  0  0
  -27.2530  -28.3348   20.7478 C   0  0  0  0  0  0
  -26.0113  -26.6997   19.5098 C   0  0  0  0  0  0
  -24.8995  -27.5800   19.4763 C   0  0  0  0  0  0
  -23.7085  -29.7551   20.1474 C   0  0  0  0  0  0
  -25.4130  -36.2975   24.0297 C   0  0  1  0  0  0
  -20.5936  -28.3744   23.1190 C   0  0  2  0  0  0
  -20.6795  -26.9429   22.5400 C   0  0  0  0  0  0
  -19.5780  -26.6372   21.5203 C   0  0  0  0  0  0
  -18.1955  -26.7932   22.1608 C   0  0  0  0  0  0
  -19.1577  -28.8892   23.2804 C   0  0  0  0  0  0
  -18.9489  -30.1482   23.8840 C   0  0  0  0  0  0
  -17.6488  -30.6594   24.0547 C   0  0  0  0  0  0
  -25.9092  -34.9357   23.5012 C   0  0  0  0  0  0
  -16.5379  -29.9082   23.6339 C   0  0  0  0  0  0
  -16.7302  -28.6505   23.0348 C   0  0  0  0  0  0
  -26.4555  -31.6535   25.0682 C   0  0  0  0  0  0
  -25.3688  -31.3786   26.1342 C   0  0  0  0  0  0
  -27.0437  -30.2896   24.6398 C   0  0  0  0  0  0
  -27.6036  -32.4357   25.7490 C   0  0  0  0  0  0
  -27.5576  -37.1763   24.8459 C   0  0  0  0  0  0
  -21.4313  -29.3040   22.3545 N   0  0  0  0  0  0
  -26.4278  -37.3709   23.9412 N   0  0  0  0  0  0
  -24.7427  -30.9975   22.0843 N   0  0  0  0  0  0
  -23.4196  -28.8015   23.3015 O   0  0  0  0  0  0
  -28.2464  -25.9037   20.2600 O   0  0  0  0  0  0
  -26.5703  -34.8884   22.4606 O   0  0  0  0  0  0
  -23.5670  -32.1229   23.6859 O   0  0  0  0  0  0
  -28.4091  -18.7516   20.9755 C   0  0  0  0  0  0
  -28.2085  -20.2212   20.9446 C   0  0  0  0  0  0
  -29.1162  -21.1736   20.3342 C   0  0  0  0  0  0
  -30.2079  -20.3415   19.8104 C   0  0  0  0  0  0
  -29.5319  -17.9919   20.4457 C   0  0  0  0  0  0
  -26.9850  -20.7843   21.6404 C   0  0  0  0  0  0
  -31.3661  -21.0412   19.1269 C   0  0  0  0  0  0
  -29.1208  -22.9222   20.4235 C   0  0  0  0  0  0
  -28.0200  -24.2889   20.1419 C   0  0  0  0  0  0
  -30.3875  -18.9249   19.8631 N   0  0  0  0  0  0
  -29.5843  -16.3892   20.5494 N   0  0  0  0  0  0
  -31.4687  -12.9518   19.2034 H   0  0  0  0  0  0
  -30.4995  -11.8309   20.1096 H   0  0  0  0  0  0
  -29.9036  -11.7539   17.6610 H   0  0  0  0  0  0
  -29.5781  -13.4702   17.6722 H   0  0  0  0  0  0
  -28.0219  -11.2730   19.0600 H   0  0  0  0  0  0
  -27.4141  -12.3702   17.8460 H   0  0  0  0  0  0
  -27.5507  -14.2428   19.3564 H   0  0  0  0  0  0
  -28.8012  -12.4364   21.4810 H   0  0  0  0  0  0
  -28.3058  -14.0927   21.7285 H   0  0  0  0  0  0
  -25.2761   -9.5688   22.4752 H   0  0  0  0  0  0
  -23.9998   -7.4638   22.7474 H   0  0  0  0  0  0
  -21.0843   -8.8760   19.8946 H   0  0  0  0  0  0
  -22.3689  -10.9661   19.6152 H   0  0  0  0  0  0
  -21.2022   -7.6138   23.9704 H   0  0  0  0  0  0
  -21.1485   -6.0518   25.9071 H   0  0  0  0  0  0
  -22.0596   -2.7595   23.2854 H   0  0  0  0  0  0
  -22.4077  -11.9854   22.4855 H   0  0  0  0  0  0
  -21.1038  -13.1167   22.2657 H   0  0  0  0  0  0
  -24.6219  -15.8357   20.5058 H   0  0  0  0  0  0
  -26.2251  -15.6349   20.0192 H   0  0  0  0  0  0
  -26.7345  -32.5155   23.0877 H   0  0  0  0  0  0
  -25.0050  -33.9500   25.0187 H   0  0  0  0  0  0
  -22.7809  -31.2687   21.3529 H   0  0  0  0  0  0
  -23.3762  -35.9549   23.3264 H   0  0  0  0  0  0
  -24.3572  -36.8925   22.2066 H   0  0  0  0  0  0
  -23.7249  -37.6398   23.6733 H   0  0  0  0  0  0
  -26.2090  -31.3931   20.6164 H   0  0  0  0  0  0
  -26.8990  -30.7060   22.0479 H   0  0  0  0  0  0
  -28.1511  -28.6492   21.2613 H   0  0  0  0  0  0
  -25.8912  -25.7400   19.0287 H   0  0  0  0  0  0
  -23.9996  -27.2584   18.9706 H   0  0  0  0  0  0
  -23.8597  -30.5247   19.3895 H   0  0  0  0  0  0
  -22.8190  -29.2080   19.8309 H   0  0  0  0  0  0
  -25.1324  -36.1769   25.0785 H   0  0  0  0  0  0
  -21.0016  -28.3356   24.1318 H   0  0  0  0  0  0
  -20.5689  -26.2352   23.3634 H   0  0  0  0  0  0
  -21.6659  -26.7417   22.1205 H   0  0  0  0  0  0
  -19.6943  -25.6270   21.1275 H   0  0  0  0  0  0
  -19.6736  -27.3139   20.6698 H   0  0  0  0  0  0
  -17.4226  -26.6662   21.4013 H   0  0  0  0  0  0
  -18.0359  -26.0091   22.9022 H   0  0  0  0  0  0
  -19.7972  -30.7299   24.2193 H   0  0  0  0  0  0
  -17.5048  -31.6272   24.5156 H   0  0  0  0  0  0
  -15.5378  -30.2964   23.7708 H   0  0  0  0  0  0
  -15.8698  -28.0817   22.7089 H   0  0  0  0  0  0
  -24.5876  -30.7127   25.7653 H   0  0  0  0  0  0
  -24.8860  -32.2988   26.4642 H   0  0  0  0  0  0
  -25.7911  -30.9034   27.0204 H   0  0  0  0  0  0
  -26.3086  -29.6581   24.1396 H   0  0  0  0  0  0
  -27.3954  -29.7253   25.5047 H   0  0  0  0  0  0
  -27.9035  -30.4059   23.9797 H   0  0  0  0  0  0
  -27.2584  -33.3704   26.1924 H   0  0  0  0  0  0
  -28.3913  -32.6866   25.0371 H   0  0  0  0  0  0
  -28.0626  -31.8590   26.5535 H   0  0  0  0  0  0
  -28.2547  -38.0100   24.7521 H   0  0  0  0  0  0
  -28.1124  -36.2627   24.6263 H   0  0  0  0  0  0
  -27.2297  -37.1366   25.8861 H   0  0  0  0  0  0
  -20.9557  -29.8738   21.6686 H   0  0  0  0  0  0
  -26.0131  -38.2765   24.1438 H   0  0  0  0  0  0
  -27.6414  -18.1703   21.4679 H   0  0  0  0  0  0
  -26.2878  -19.9999   21.9357 H   0  0  0  0  0  0
  -26.4526  -21.4752   20.9871 H   0  0  0  0  0  0
  -27.2823  -21.3259   22.5388 H   0  0  0  0  0  0
  -31.0040  -21.6778   18.3193 H   0  0  0  0  0  0
  -32.0707  -20.3307   18.6930 H   0  0  0  0  0  0
  -31.9109  -21.6606   19.8388 H   0  0  0  0  0  0
  -29.9870  -23.2038   19.8278 H   0  0  0  0  0  0
  -29.4598  -23.0874   21.4458 H   0  0  0  0  0  0
  -27.1603  -24.0990   20.7841 H   0  0  0  0  0  0
  -27.6425  -24.1458   19.1293 H   0  0  0  0  0  0
  -28.6777  -16.0495   20.8253 H   0  0  0  0  0  0
  1 25  1  0  0  0
  1 30  2  0  0  0
  1 81  1  0  0  0
  2  3  1  0  0  0
  2 25  1  0  0  0
  2 82  1  0  0  0
  2 83  1  0  0  0
  3  4  1  0  0  0
  3 84  1  0  0  0
  3 85  1  0  0  0
  4  5  1  0  0  0
  4 86  1  0  0  0
  4 87  1  0  0  0
  5  6  1  0  0  0
  5 26  1  0  0  0
  5 88  1  0  0  0
  6 25  1  0  0  0
  6 89  1  0  0  0
  6 90  1  0  0  0
  7  8  2  0  0  0
  7 26  1  0  0  0
  7 29  1  0  0  0
  8  9  1  0  0  0
  8 22  1  0  0  0
  9 10  1  0  0  0
  9 27  2  0  0  0
 10 11  2  0  0  0
 10 15  1  0  0  0
 11 12  1  0  0  0
 11 91  1  0  0  0
 12 13  2  0  0  0
 12 92  1  0  0  0
 13 14  1  0  0  0
 13 31  1  0  0  0
 14 15  2  0  0  0
 14 93  1  0  0  0
 15 94  1  0  0  0
 16 17  2  0  0  0
 16 21  1  0  0  0
 16 31  1  0  0  0
 17 18  1  0  0  0
 17 95  1  0  0  0
 18 19  2  0  0  0
 18 96  1  0  0  0
 19 20  1  0  0  0
 19 24  1  0  0  0
 20 21  2  0  0  0
 20 97  1  0  0  0
 21 23  1  0  0  0
 22 28  1  0  0  0
 22 32  2  0  0  0
 26 27  1  0  0  0
 28 98  1  0  0  0
 28 99  1  0  0  0
 29100  1  0  0  0
 29101  1  0  0  0
 33 34  1  0  0  0
 33 66  1  0  0  0
 33 70  2  0  0  0
 34 36  1  0  0  0
 34 59  1  0  0  0
 34102  1  0  0  0
 35 44  2  0  0  0
 35 45  1  0  0  0
 35 68  1  0  0  0
 36 56  1  0  0  0
 36103  1  0  0  0
 37 39  1  0  0  0
 37 47  1  0  0  0
 37 66  1  0  0  0
 37104  1  0  0  0
 38 43  2  0  0  0
 38 46  1  0  0  0
 38 47  1  0  0  0
 39 64  1  0  0  0
 39 67  2  0  0  0
 40 52  1  0  0  0
 40 53  2  0  0  0
 40 58  1  0  0  0
 41105  1  0  0  0
 41106  1  0  0  0
 41107  1  0  0  0
 41 48  1  0  0  0
 42 43  1  0  0  0
 42 66  1  0  0  0
 42108  1  0  0  0
 42109  1  0  0  0
 43 44  1  0  0  0
 44110  1  0  0  0
 45 46  2  0  0  0
 45111  1  0  0  0
 46112  1  0  0  0
 47113  1  0  0  0
 47114  1  0  0  0
 48 56  1  0  0  0
 48 65  1  0  0  0
 48115  1  0  0  0
 49 50  1  0  0  0
 49 53  1  0  0  0
 49 64  1  0  0  0
 49116  1  0  0  0
 50 51  1  0  0  0
 50117  1  0  0  0
 50118  1  0  0  0
 51 52  1  0  0  0
 51119  1  0  0  0
 51120  1  0  0  0
 52121  1  0  0  0
 52122  1  0  0  0
 53 54  1  0  0  0
 54 55  2  0  0  0
 54123  1  0  0  0
 55 57  1  0  0  0
 55124  1  0  0  0
 56 69  2  0  0  0
 57 58  2  0  0  0
 57125  1  0  0  0
 58126  1  0  0  0
 59 60  1  0  0  0
 59 61  1  0  0  0
 59 62  1  0  0  0
 60127  1  0  0  0
 60128  1  0  0  0
 60129  1  0  0  0
 61130  1  0  0  0
 61131  1  0  0  0
 61132  1  0  0  0
 62133  1  0  0  0
 62134  1  0  0  0
 62135  1  0  0  0
 63 65  1  0  0  0
 63136  1  0  0  0
 63137  1  0  0  0
 63138  1  0  0  0
 64139  1  0  0  0
 65140  1  0  0  0
 68 79  1  0  0  0
 71 72  2  0  0  0
 71 75  1  0  0  0
 71141  1  0  0  0
 72 73  1  0  0  0
 72 76  1  0  0  0
 73 74  2  0  0  0
 73 78  1  0  0  0
 74 77  1  0  0  0
 74 80  1  0  0  0
 75 80  2  0  0  0
 75 81  1  0  0  0
 76142  1  0  0  0
 76143  1  0  0  0
 76144  1  0  0  0
 77145  1  0  0  0
 77146  1  0  0  0
 77147  1  0  0  0
 78 79  1  0  0  0
 78148  1  0  0  0
 78149  1  0  0  0
 79150  1  0  0  0
 79151  1  0  0  0
 81152  1  0  0  0
M  ISO  4   1 100  68 101  79 101  81 100
M  END
> <chiral flag>
0

> <version>
0

> <s_m_source_file>
/data/baiqing/PycharmProjects/Reinvent-master-3.2/result/LINK_invent/BTK/process_docking_weight1_custom_sum_contain_oxygen_bond_distance_aromatic_linkinvent_7_9_3/rearranged_h_0180.sdf

> <i_m_source_file_index>
58

> <r_mmod_Potential_Energy-OPLS-2005>
873.646423339844

> <r_mmod_Stretch_Energy-OPLS-2005>
469.356811523438

> <r_mmod_Bend_Energy-OPLS-2005>
418.096466064453

> <r_mmod_Torsional_Energy-OPLS-2005>
206.963500976562

> <r_mmod_Improper_Torsional_Energy-OPLS-2005>
4.85232353210449

> <r_mmod_Van_der_Waal_Energy-OPLS-2005>
129.341293334961

> <r_mmod_Electrostatic_Energy-OPLS-2005>
-508.470947265625

> <r_mmod_Solvation_Energy-OPLS-2005>
-236.605758666992

> <b_mmod_Minimization_Converged-OPLS-2005>
0

> <r_mmod_RMS_Derivative-OPLS-2005>
1.04177498817444

$$$$
58
                    3D
 Structure written by MMmdl.
151160  0  0  1  0            999 V2000
  -30.5456  -15.0061   20.3827 C   0  0  0  0  0  0
  -30.4202  -12.6285   19.4924 C   0  0  0  0  0  0
  -29.5034  -12.5070   18.2556 C   0  0  0  0  0  0
  -28.0516  -12.2460   18.6978 C   0  0  0  0  0  0
  -27.6107  -13.2058   19.8260 C   0  0  2  0  0  0
  -28.6561  -13.3271   20.9592 C   0  0  0  0  0  0
  -25.2361  -13.8120   20.5750 C   0  0  0  0  0  0
  -24.1657  -13.0391   20.9340 C   0  0  0  0  0  0
  -24.6233  -11.6868   20.8800 C   0  0  0  0  0  0
  -23.8923  -10.4277   21.0430 C   0  0  0  0  0  0
  -24.3511   -9.4204   21.9165 C   0  0  0  0  0  0
  -23.6259   -8.2199   22.0713 C   0  0  0  0  0  0
  -22.4240   -8.0232   21.3521 C   0  0  0  0  0  0
  -21.9861   -9.0190   20.4633 C   0  0  0  0  0  0
  -22.7112  -10.2084   20.3048 C   0  0  0  0  0  0
  -21.6826   -6.0711   22.5285 C   0  0  0  0  0  0
  -21.4003   -6.5590   23.8226 C   0  0  0  0  0  0
  -21.3663   -5.6726   24.9185 C   0  0  0  0  0  0
  -21.6055   -4.3001   24.7211 C   0  0  0  0  0  0
  -21.8828   -3.8106   23.4334 C   0  0  0  0  0  0
  -21.9199   -4.6933   22.3408 C   0  0  0  0  0  0
  -22.7688  -13.5228   21.1953 C   0  0  0  0  0  0
  -22.1676   -4.2120   21.0981 F   0  0  0  0  0  0
  -21.5657   -3.4483   25.7737 F   0  0  0  0  0  0
  -29.9140  -13.7563   20.3318 N   0  0  0  0  0  0
  -26.2739  -12.9260   20.3239 N   0  0  0  0  0  0
  -25.9143  -11.6455   20.5771 N   0  0  0  0  0  0
  -22.0314  -12.8250   22.0542 N   0  0  0  0  0  0
  -25.3907  -15.1833   20.4202 N   0  0  0  0  0  0
  -31.7728  -14.9935   20.2028 O   0  0  0  0  0  0
  -21.6621   -6.8824   21.4241 O   0  0  0  0  0  0
  -22.3420  -14.5557   20.6776 O   0  0  0  0  0  0
  -24.6428  -31.8454   23.1878 C   0  0  0  0  0  0
  -25.9222  -32.4662   23.8279 C   0  0  1  0  0  0
  -27.2122  -27.1627   20.1392 C   0  0  0  0  0  0
  -25.5981  -33.8459   24.2183 N   0  0  0  0  0  0
  -23.4429  -30.4648   21.5334 C   0  0  2  0  0  0
  -24.8843  -28.8845   20.1172 C   0  0  0  0  0  0
  -22.7530  -29.4584   22.4873 C   0  0  0  0  0  0
  -18.0285  -28.1419   22.8471 C   0  0  0  0  0  0
  -24.1510  -36.7247   23.2642 C   0  0  0  0  0  0
  -25.9940  -30.7209   21.3879 C   0  0  0  0  0  0
  -26.0581  -29.3308   20.7388 C   0  0  0  0  0  0
  -27.2164  -28.4785   20.7396 C   0  0  0  0  0  0
  -26.0212  -26.8130   19.4724 C   0  0  0  0  0  0
  -24.8748  -27.6364   19.4723 C   0  0  0  0  0  0
  -23.6657  -29.7887   20.1548 C   0  0  0  0  0  0
  -25.4123  -36.2985   24.0316 C   0  0  1  0  0  0
  -20.5893  -28.3752   23.1244 C   0  0  2  0  0  0
  -20.6762  -26.9465   22.5399 C   0  0  0  0  0  0
  -19.5737  -26.6399   21.5209 C   0  0  0  0  0  0
  -18.1933  -26.7956   22.1635 C   0  0  0  0  0  0
  -19.1535  -28.8907   23.2850 C   0  0  0  0  0  0
  -18.9454  -30.1490   23.8880 C   0  0  0  0  0  0
  -17.6453  -30.6618   24.0561 C   0  0  0  0  0  0
  -25.9097  -34.9370   23.5061 C   0  0  0  0  0  0
  -16.5347  -29.9109   23.6328 C   0  0  0  0  0  0
  -16.7267  -28.6532   23.0353 C   0  0  0  0  0  0
  -26.4541  -31.6516   25.0721 C   0  0  0  0  0  0
  -25.3741  -31.3761   26.1450 C   0  0  0  0  0  0
  -27.0391  -30.2885   24.6330 C   0  0  0  0  0  0
  -27.6107  -32.4276   25.7507 C   0  0  0  0  0  0
  -27.5564  -37.1773   24.8452 C   0  0  0  0  0  0
  -21.4246  -29.3067   22.3618 N   0  0  0  0  0  0
  -26.4261  -37.3705   23.9424 N   0  0  0  0  0  0
  -24.7134  -31.0349   22.0903 N   0  0  0  0  0  0
  -23.4216  -28.8120   23.3020 O   0  0  0  0  0  0
  -28.3352  -26.2743   20.1049 O   0  0  0  0  0  0
  -26.5664  -34.8879   22.4630 O   0  0  0  0  0  0
  -23.5560  -32.1344   23.7129 O   0  0  0  0  0  0
  -29.6080  -24.2123   20.7287 C   0  0  0  0  0  0
  -27.5682  -23.7410   19.7763 C   0  0  0  0  0  0
  -28.4281  -24.8112   20.2108 C   0  0  0  0  0  0
  -29.0022  -21.9165   20.4135 C   0  0  0  0  0  0
  -29.3201  -20.3234   20.8582 C   0  0  0  0  0  0
  -28.0463  -18.0563   20.1119 C   0  0  0  0  0  0
  -28.4022  -16.5419   20.3049 C   0  0  0  0  0  0
  -30.4247  -17.7107   20.3307 C   0  0  0  0  0  0
  -29.3336  -18.9091   20.0073 C   0  0  2  0  0  0
  -29.8720  -22.8622   20.8367 N   0  0  0  0  0  0
  -27.8395  -22.3735   19.8801 N   0  0  0  0  0  0
  -29.8520  -16.2742   20.4096 N   0  0  0  0  0  0
  -29.6288  -20.2012   22.0564 O   0  0  0  0  0  0
  -31.4495  -12.7960   19.1678 H   0  0  0  0  0  0
  -30.4311  -11.6944   20.0593 H   0  0  0  0  0  0
  -29.8549  -11.7039   17.6072 H   0  0  0  0  0  0
  -29.5518  -13.4284   17.6720 H   0  0  0  0  0  0
  -27.9947  -11.2193   19.0536 H   0  0  0  0  0  0
  -27.3690  -12.3105   17.8470 H   0  0  0  0  0  0
  -27.5268  -14.1427   19.3004 H   0  0  0  0  0  0
  -28.7802  -12.3826   21.4903 H   0  0  0  0  0  0
  -28.3295  -14.0451   21.7129 H   0  0  0  0  0  0
  -25.2640   -9.5737   22.4729 H   0  0  0  0  0  0
  -24.0023   -7.4582   22.7366 H   0  0  0  0  0  0
  -21.0815   -8.8633   19.8922 H   0  0  0  0  0  0
  -22.3530  -10.9596   19.6153 H   0  0  0  0  0  0
  -21.1938   -7.6097   23.9728 H   0  0  0  0  0  0
  -21.1500   -6.0447   25.9088 H   0  0  0  0  0  0
  -22.0606   -2.7575   23.2809 H   0  0  0  0  0  0
  -22.3867  -11.9927   22.4992 H   0  0  0  0  0  0
  -21.0882  -13.1244   22.2623 H   0  0  0  0  0  0
  -24.6180  -15.8198   20.5844 H   0  0  0  0  0  0
  -26.2228  -15.6518   20.0800 H   0  0  0  0  0  0
  -26.7309  -32.5282   23.1018 H   0  0  0  0  0  0
  -25.0079  -33.9578   25.0311 H   0  0  0  0  0  0
  -22.7447  -31.2897   21.3786 H   0  0  0  0  0  0
  -23.3739  -35.9615   23.3264 H   0  0  0  0  0  0
  -24.3603  -36.8907   22.2063 H   0  0  0  0  0  0
  -23.7305  -37.6454   23.6702 H   0  0  0  0  0  0
  -26.1485  -31.4692   20.6109 H   0  0  0  0  0  0
  -26.8697  -30.7722   22.0283 H   0  0  0  0  0  0
  -28.1209  -28.8132   21.2304 H   0  0  0  0  0  0
  -25.9603  -25.8848   18.9310 H   0  0  0  0  0  0
  -23.9810  -27.3012   18.9642 H   0  0  0  0  0  0
  -23.8046  -30.5585   19.3937 H   0  0  0  0  0  0
  -22.7815  -29.2268   19.8489 H   0  0  0  0  0  0
  -25.1307  -36.1779   25.0800 H   0  0  0  0  0  0
  -20.9975  -28.3348   24.1367 H   0  0  0  0  0  0
  -20.5657  -26.2402   23.3622 H   0  0  0  0  0  0
  -21.6651  -26.7468   22.1206 H   0  0  0  0  0  0
  -19.6913  -25.6296   21.1280 H   0  0  0  0  0  0
  -19.6669  -27.3175   20.6707 H   0  0  0  0  0  0
  -17.4193  -26.6664   21.4036 H   0  0  0  0  0  0
  -18.0346  -26.0099   22.9049 H   0  0  0  0  0  0
  -19.7936  -30.7292   24.2258 H   0  0  0  0  0  0
  -17.5023  -31.6287   24.5170 H   0  0  0  0  0  0
  -15.5348  -30.3017   23.7672 H   0  0  0  0  0  0
  -15.8671  -28.0849   22.7086 H   0  0  0  0  0  0
  -24.5812  -30.7223   25.7752 H   0  0  0  0  0  0
  -24.9073  -32.2990   26.4903 H   0  0  0  0  0  0
  -25.8011  -30.8844   27.0201 H   0  0  0  0  0  0
  -26.2989  -29.6593   24.1345 H   0  0  0  0  0  0
  -27.3960  -29.7191   25.4923 H   0  0  0  0  0  0
  -27.8936  -30.4046   23.9664 H   0  0  0  0  0  0
  -27.2680  -33.3566   26.2074 H   0  0  0  0  0  0
  -28.3922  -32.6827   25.0340 H   0  0  0  0  0  0
  -28.0769  -31.8398   26.5420 H   0  0  0  0  0  0
  -28.2548  -38.0096   24.7481 H   0  0  0  0  0  0
  -28.1082  -36.2617   24.6262 H   0  0  0  0  0  0
  -27.2304  -37.1405   25.8860 H   0  0  0  0  0  0
  -20.9476  -29.8796   21.6781 H   0  0  0  0  0  0
  -26.0102  -38.2778   24.1380 H   0  0  0  0  0  0
  -30.4028  -24.8554   21.0708 H   0  0  0  0  0  0
  -26.6202  -23.9579   19.3111 H   0  0  0  0  0  0
  -27.3762  -18.3984   20.9028 H   0  0  0  0  0  0
  -27.4501  -18.1605   19.1992 H   0  0  0  0  0  0
  -28.0494  -16.0424   19.4170 H   0  0  0  0  0  0
  -27.8740  -16.1436   21.1673 H   0  0  0  0  0  0
  -30.9668  -17.9332   21.2559 H   0  0  0  0  0  0
  -31.2078  -17.7292   19.5650 H   0  0  0  0  0  0
  -29.4316  -19.1950   18.9556 H   0  0  0  0  0  0
  1 25  1  0  0  0
  1 30  2  0  0  0
  1 82  1  0  0  0
  2  3  1  0  0  0
  2 25  1  0  0  0
  2 84  1  0  0  0
  2 85  1  0  0  0
  3  4  1  0  0  0
  3 86  1  0  0  0
  3 87  1  0  0  0
  4  5  1  0  0  0
  4 88  1  0  0  0
  4 89  1  0  0  0
  5  6  1  0  0  0
  5 26  1  0  0  0
  5 90  1  0  0  0
  6 25  1  0  0  0
  6 91  1  0  0  0
  6 92  1  0  0  0
  7  8  2  0  0  0
  7 26  1  0  0  0
  7 29  1  0  0  0
  8  9  1  0  0  0
  8 22  1  0  0  0
  9 10  1  0  0  0
  9 27  2  0  0  0
 10 11  2  0  0  0
 10 15  1  0  0  0
 11 12  1  0  0  0
 11 93  1  0  0  0
 12 13  2  0  0  0
 12 94  1  0  0  0
 13 14  1  0  0  0
 13 31  1  0  0  0
 14 15  2  0  0  0
 14 95  1  0  0  0
 15 96  1  0  0  0
 16 17  2  0  0  0
 16 21  1  0  0  0
 16 31  1  0  0  0
 17 18  1  0  0  0
 17 97  1  0  0  0
 18 19  2  0  0  0
 18 98  1  0  0  0
 19 20  1  0  0  0
 19 24  1  0  0  0
 20 21  2  0  0  0
 20 99  1  0  0  0
 21 23  1  0  0  0
 22 28  1  0  0  0
 22 32  2  0  0  0
 26 27  1  0  0  0
 28100  1  0  0  0
 28101  1  0  0  0
 29102  1  0  0  0
 29103  1  0  0  0
 33 34  1  0  0  0
 33 66  1  0  0  0
 33 70  2  0  0  0
 34 36  1  0  0  0
 34 59  1  0  0  0
 34104  1  0  0  0
 35 44  2  0  0  0
 35 45  1  0  0  0
 35 68  1  0  0  0
 36 56  1  0  0  0
 36105  1  0  0  0
 37 39  1  0  0  0
 37 47  1  0  0  0
 37 66  1  0  0  0
 37106  1  0  0  0
 38 43  2  0  0  0
 38 46  1  0  0  0
 38 47  1  0  0  0
 39 64  1  0  0  0
 39 67  2  0  0  0
 40 52  1  0  0  0
 40 53  2  0  0  0
 40 58  1  0  0  0
 41107  1  0  0  0
 41108  1  0  0  0
 41109  1  0  0  0
 41 48  1  0  0  0
 42 43  1  0  0  0
 42 66  1  0  0  0
 42110  1  0  0  0
 42111  1  0  0  0
 43 44  1  0  0  0
 44112  1  0  0  0
 45 46  2  0  0  0
 45113  1  0  0  0
 46114  1  0  0  0
 47115  1  0  0  0
 47116  1  0  0  0
 48 56  1  0  0  0
 48 65  1  0  0  0
 48117  1  0  0  0
 49 50  1  0  0  0
 49 53  1  0  0  0
 49 64  1  0  0  0
 49118  1  0  0  0
 50 51  1  0  0  0
 50119  1  0  0  0
 50120  1  0  0  0
 51 52  1  0  0  0
 51121  1  0  0  0
 51122  1  0  0  0
 52123  1  0  0  0
 52124  1  0  0  0
 53 54  1  0  0  0
 54 55  2  0  0  0
 54125  1  0  0  0
 55 57  1  0  0  0
 55126  1  0  0  0
 56 69  2  0  0  0
 57 58  2  0  0  0
 57127  1  0  0  0
 58128  1  0  0  0
 59 60  1  0  0  0
 59 61  1  0  0  0
 59 62  1  0  0  0
 60129  1  0  0  0
 60130  1  0  0  0
 60131  1  0  0  0
 61132  1  0  0  0
 61133  1  0  0  0
 61134  1  0  0  0
 62135  1  0  0  0
 62136  1  0  0  0
 62137  1  0  0  0
 63 65  1  0  0  0
 63138  1  0  0  0
 63139  1  0  0  0
 63140  1  0  0  0
 64141  1  0  0  0
 65142  1  0  0  0
 68 73  1  0  0  0
 71 73  2  0  0  0
 71 80  1  0  0  0
 71143  1  0  0  0
 72 73  1  0  0  0
 72 81  2  0  0  0
 72144  1  0  0  0
 74 75  1  0  0  0
 74 80  2  0  0  0
 74 81  1  0  0  0
 75 83  2  0  0  0
 75 79  1  0  0  0
 76 77  1  0  0  0
 76 79  1  0  0  0
 76145  1  0  0  0
 76146  1  0  0  0
 77 82  1  0  0  0
 77147  1  0  0  0
 77148  1  0  0  0
 78 79  1  0  0  0
 78 82  1  0  0  0
 78149  1  0  0  0
 78150  1  0  0  0
 79151  1  0  0  0
M  ISO  4   1 100  68 101  73 101  82 100
M  END
> <chiral flag>
0

> <version>
0

> <s_m_source_file>
/data/baiqing/PycharmProjects/Reinvent-master-3.2/result/LINK_invent/BTK/process_docking_weight1_custom_sum_contain_oxygen_bond_distance_aromatic_linkinvent_7_9_3/rearranged_h_0180.sdf

> <i_m_source_file_index>
59

> <r_mmod_Potential_Energy-OPLS-2005>
453.577697753906

> <r_mmod_Stretch_Energy-OPLS-2005>
217.463684082031

> <r_mmod_Bend_Energy-OPLS-2005>
295.613830566406

> <r_mmod_Torsional_Energy-OPLS-2005>
333.423950195312

> <r_mmod_Improper_Torsional_Energy-OPLS-2005>
6.90707063674927

> <r_mmod_Van_der_Waal_Energy-OPLS-2005>
137.189102172852

> <r_mmod_Electrostatic_Energy-OPLS-2005>
-490.327209472656

> <r_mmod_Solvation_Energy-OPLS-2005>
-244.839828491211

> <b_mmod_Minimization_Converged-OPLS-2005>
0

> <r_mmod_RMS_Derivative-OPLS-2005>
8.18752002716064

$$$$
59
                    3D
 Structure written by MMmdl.
162171  0  0  1  0            999 V2000
  -30.6619  -14.6724   20.4809 C   0  0  0  0  0  0
  -30.4258  -12.4128   19.4651 C   0  0  0  0  0  0
  -29.5055  -12.5019   18.2293 C   0  0  0  0  0  0
  -28.0296  -12.3422   18.6417 C   0  0  0  0  0  0
  -27.6465  -13.2290   19.8578 C   0  0  2  0  0  0
  -28.6934  -13.1310   20.9888 C   0  0  0  0  0  0
  -25.2537  -13.8197   20.5705 C   0  0  0  0  0  0
  -24.1816  -13.0448   20.9203 C   0  0  0  0  0  0
  -24.6399  -11.6923   20.8752 C   0  0  0  0  0  0
  -23.9069  -10.4298   21.0408 C   0  0  0  0  0  0
  -24.3619   -9.4213   21.9188 C   0  0  0  0  0  0
  -23.6298   -8.2244   22.0755 C   0  0  0  0  0  0
  -22.4283   -8.0278   21.3539 C   0  0  0  0  0  0
  -21.9915   -9.0254   20.4642 C   0  0  0  0  0  0
  -22.7242  -10.2139   20.3052 C   0  0  0  0  0  0
  -21.6850   -6.0737   22.5281 C   0  0  0  0  0  0
  -21.4010   -6.5641   23.8215 C   0  0  0  0  0  0
  -21.3663   -5.6793   24.9178 C   0  0  0  0  0  0
  -21.6047   -4.3056   24.7224 C   0  0  0  0  0  0
  -21.8819   -3.8147   23.4343 C   0  0  0  0  0  0
  -21.9192   -4.6965   22.3402 C   0  0  0  0  0  0
  -22.7836  -13.5236   21.1851 C   0  0  0  0  0  0
  -22.1660   -4.2153   21.0980 F   0  0  0  0  0  0
  -21.5634   -3.4540   25.7734 F   0  0  0  0  0  0
  -29.9969  -13.4711   20.4067 N   0  0  0  0  0  0
  -26.2968  -12.9399   20.3331 N   0  0  0  0  0  0
  -25.9336  -11.6545   20.5780 N   0  0  0  0  0  0
  -22.0463  -12.8236   22.0396 N   0  0  0  0  0  0
  -25.4247  -15.1909   20.4096 N   0  0  0  0  0  0
  -31.8498  -14.7283   20.1485 O   0  0  0  0  0  0
  -21.6641   -6.8879   21.4241 O   0  0  0  0  0  0
  -22.3535  -14.5550   20.6698 O   0  0  0  0  0  0
  -24.6291  -31.8590   23.2041 C   0  0  0  0  0  0
  -25.9129  -32.4775   23.8368 C   0  0  1  0  0  0
  -27.2101  -27.2887   20.1140 C   0  0  0  0  0  0
  -25.5938  -33.8578   24.2291 N   0  0  0  0  0  0
  -23.4230  -30.4858   21.5483 C   0  0  2  0  0  0
  -24.8670  -28.9470   20.1087 C   0  0  0  0  0  0
  -22.7495  -29.4619   22.4940 C   0  0  0  0  0  0
  -18.0290  -28.1381   22.8486 C   0  0  0  0  0  0
  -24.1488  -36.7288   23.2636 C   0  0  0  0  0  0
  -25.9688  -30.7799   21.3817 C   0  0  0  0  0  0
  -26.0396  -29.4067   20.7211 C   0  0  0  0  0  0
  -27.2131  -28.5881   20.7199 C   0  0  0  0  0  0
  -26.0163  -26.9114   19.4492 C   0  0  0  0  0  0
  -24.8588  -27.7050   19.4643 C   0  0  0  0  0  0
  -23.6375  -29.8288   20.1617 C   0  0  0  0  0  0
  -25.4112  -36.3083   24.0330 C   0  0  1  0  0  0
  -20.5893  -28.3687   23.1277 C   0  0  2  0  0  0
  -20.6777  -26.9409   22.5407 C   0  0  0  0  0  0
  -19.5753  -26.6380   21.5209 C   0  0  0  0  0  0
  -18.1932  -26.7927   22.1617 C   0  0  0  0  0  0
  -19.1544  -28.8851   23.2875 C   0  0  0  0  0  0
  -18.9465  -30.1454   23.8892 C   0  0  0  0  0  0
  -17.6464  -30.6585   24.0557 C   0  0  0  0  0  0
  -25.9054  -34.9451   23.5110 C   0  0  0  0  0  0
  -16.5355  -29.9081   23.6330 C   0  0  0  0  0  0
  -16.7276  -28.6496   23.0357 C   0  0  0  0  0  0
  -26.4509  -31.6585   25.0742 C   0  0  0  0  0  0
  -25.3741  -31.3709   26.1466 C   0  0  0  0  0  0
  -27.0357  -30.3012   24.6194 C   0  0  0  0  0  0
  -27.6064  -32.4319   25.7517 C   0  0  0  0  0  0
  -27.5583  -37.1797   24.8461 C   0  0  0  0  0  0
  -21.4207  -29.3041   22.3680 N   0  0  0  0  0  0
  -26.4286  -37.3782   23.9416 N   0  0  0  0  0  0
  -24.6927  -31.0582   22.1010 N   0  0  0  0  0  0
  -23.4211  -28.8145   23.3014 O   0  0  0  0  0  0
  -28.2896  -26.3793   20.2017 O   0  0  0  0  0  0
  -26.5616  -34.8916   22.4675 O   0  0  0  0  0  0
  -23.5448  -32.1401   23.7349 O   0  0  0  0  0  0
  -28.7376  -22.3267   20.1179 C   0  0  0  0  0  0
  -28.8718  -23.7492   20.4056 C   0  0  0  0  0  0
  -29.6731  -21.6536   20.8839 C   0  0  0  0  0  0
  -29.4774  -17.9525   21.8710 C   0  0  0  0  0  0
  -30.4362  -18.2682   19.6463 C   0  0  0  0  0  0
  -29.1240  -16.4514   21.5266 C   0  0  0  0  0  0
  -30.0175  -16.7974   19.2905 C   0  0  0  0  0  0
  -29.5321  -18.9789   20.6895 C   0  0  0  0  0  0
  -30.8737  -22.5662   23.9785 C   0  0  0  0  0  0
  -27.9874  -24.9436   19.9047 C   0  0  0  0  0  0
  -31.4079  -22.5873   22.5394 C   0  0  0  0  0  0
  -29.8509  -23.9260   21.2801 N   0  0  0  0  0  0
  -30.3293  -22.6812   21.5654 N   0  0  0  0  0  0
  -29.9140  -15.8427   20.4287 N   0  0  0  0  0  0
  -30.0913  -20.2970   21.1314 N   0  0  0  0  0  0
  -31.4690  -12.5153   19.1615 H   0  0  0  0  0  0
  -30.3499  -11.4309   19.9351 H   0  0  0  0  0  0
  -29.7761  -11.7374   17.4994 H   0  0  0  0  0  0
  -29.6471  -13.4628   17.7318 H   0  0  0  0  0  0
  -27.8712  -11.2914   18.8883 H   0  0  0  0  0  0
  -27.3760  -12.5574   17.7959 H   0  0  0  0  0  0
  -27.6501  -14.2576   19.4969 H   0  0  0  0  0  0
  -28.7173  -12.1244   21.4086 H   0  0  0  0  0  0
  -28.4383  -13.7945   21.8136 H   0  0  0  0  0  0
  -25.2754   -9.5701   22.4780 H   0  0  0  0  0  0
  -24.0003   -7.4641   22.7483 H   0  0  0  0  0  0
  -21.0842   -8.8774   19.8953 H   0  0  0  0  0  0
  -22.3690  -10.9683   19.6168 H   0  0  0  0  0  0
  -21.1998   -7.6147   23.9722 H   0  0  0  0  0  0
  -21.1491   -6.0520   25.9085 H   0  0  0  0  0  0
  -22.0594   -2.7608   23.2840 H   0  0  0  0  0  0
  -22.4047  -11.9888   22.4790 H   0  0  0  0  0  0
  -21.1083  -13.1291   22.2580 H   0  0  0  0  0  0
  -24.6621  -15.8499   20.5194 H   0  0  0  0  0  0
  -26.2798  -15.6242   20.0855 H   0  0  0  0  0  0
  -26.7194  -32.5438   23.1109 H   0  0  0  0  0  0
  -25.0094  -33.9720   25.0444 H   0  0  0  0  0  0
  -22.7174  -31.3075   21.4086 H   0  0  0  0  0  0
  -23.3759  -35.9610   23.3281 H   0  0  0  0  0  0
  -24.3589  -36.8923   22.2055 H   0  0  0  0  0  0
  -23.7223  -37.6477   23.6667 H   0  0  0  0  0  0
  -26.1036  -31.5423   20.6131 H   0  0  0  0  0  0
  -26.8485  -30.8277   22.0119 H   0  0  0  0  0  0
  -28.1056  -28.9290   21.2257 H   0  0  0  0  0  0
  -25.9263  -25.9760   18.9185 H   0  0  0  0  0  0
  -23.9629  -27.3515   18.9717 H   0  0  0  0  0  0
  -23.7589  -30.6080   19.4085 H   0  0  0  0  0  0
  -22.7563  -29.2609   19.8570 H   0  0  0  0  0  0
  -25.1290  -36.1934   25.0822 H   0  0  0  0  0  0
  -20.9975  -28.3252   24.1401 H   0  0  0  0  0  0
  -20.5670  -26.2297   23.3609 H   0  0  0  0  0  0
  -21.6645  -26.7436   22.1200 H   0  0  0  0  0  0
  -19.6913  -25.6289   21.1240 H   0  0  0  0  0  0
  -19.6688  -27.3188   20.6736 H   0  0  0  0  0  0
  -17.4204  -26.6678   21.4014 H   0  0  0  0  0  0
  -18.0325  -26.0063   22.9007 H   0  0  0  0  0  0
  -19.7942  -30.7269   24.2254 H   0  0  0  0  0  0
  -17.5021  -31.6267   24.5155 H   0  0  0  0  0  0
  -15.5354  -30.2980   23.7661 H   0  0  0  0  0  0
  -15.8675  -28.0810   22.7082 H   0  0  0  0  0  0
  -24.5926  -30.7052   25.7792 H   0  0  0  0  0  0
  -24.8926  -32.2867   26.4902 H   0  0  0  0  0  0
  -25.8071  -30.8882   27.0236 H   0  0  0  0  0  0
  -26.2938  -29.6759   24.1215 H   0  0  0  0  0  0
  -27.4060  -29.7265   25.4694 H   0  0  0  0  0  0
  -27.8807  -30.4303   23.9425 H   0  0  0  0  0  0
  -27.2679  -33.3626   26.2084 H   0  0  0  0  0  0
  -28.3891  -32.6865   25.0357 H   0  0  0  0  0  0
  -28.0719  -31.8449   26.5446 H   0  0  0  0  0  0
  -28.2578  -38.0118   24.7546 H   0  0  0  0  0  0
  -28.1104  -36.2651   24.6241 H   0  0  0  0  0  0
  -27.2309  -37.1388   25.8864 H   0  0  0  0  0  0
  -20.9390  -29.8781   21.6905 H   0  0  0  0  0  0
  -26.0165  -38.2853   24.1435 H   0  0  0  0  0  0
  -28.0210  -21.8709   19.4504 H   0  0  0  0  0  0
  -30.4482  -17.9457   22.3687 H   0  0  0  0  0  0
  -28.7723  -18.3118   22.6218 H   0  0  0  0  0  0
  -30.4607  -18.8610   18.7309 H   0  0  0  0  0  0
  -31.4645  -18.2471   20.0117 H   0  0  0  0  0  0
  -28.0704  -16.3865   21.2533 H   0  0  0  0  0  0
  -29.2358  -15.8534   22.4317 H   0  0  0  0  0  0
  -30.7011  -16.4104   18.5321 H   0  0  0  0  0  0
  -29.0418  -16.8212   18.8031 H   0  0  0  0  0  0
  -28.5310  -19.1247   20.2782 H   0  0  0  0  0  0
  -31.6919  -22.4982   24.6957 H   0  0  0  0  0  0
  -30.2133  -21.7140   24.1429 H   0  0  0  0  0  0
  -30.3113  -23.4736   24.2017 H   0  0  0  0  0  0
  -27.0004  -24.7220   20.3115 H   0  0  0  0  0  0
  -27.8934  -24.8562   18.8216 H   0  0  0  0  0  0
  -32.0035  -21.6965   22.3401 H   0  0  0  0  0  0
  -32.0788  -23.4366   22.4033 H   0  0  0  0  0  0
  -30.8322  -20.2208   21.8199 H   0  0  0  0  0  0
  1 25  1  0  0  0
  1 30  2  0  0  0
  1 84  1  0  0  0
  2  3  1  0  0  0
  2 25  1  0  0  0
  2 86  1  0  0  0
  2 87  1  0  0  0
  3  4  1  0  0  0
  3 88  1  0  0  0
  3 89  1  0  0  0
  4  5  1  0  0  0
  4 90  1  0  0  0
  4 91  1  0  0  0
  5  6  1  0  0  0
  5 26  1  0  0  0
  5 92  1  0  0  0
  6 25  1  0  0  0
  6 93  1  0  0  0
  6 94  1  0  0  0
  7  8  2  0  0  0
  7 26  1  0  0  0
  7 29  1  0  0  0
  8  9  1  0  0  0
  8 22  1  0  0  0
  9 10  1  0  0  0
  9 27  2  0  0  0
 10 11  2  0  0  0
 10 15  1  0  0  0
 11 12  1  0  0  0
 11 95  1  0  0  0
 12 13  2  0  0  0
 12 96  1  0  0  0
 13 14  1  0  0  0
 13 31  1  0  0  0
 14 15  2  0  0  0
 14 97  1  0  0  0
 15 98  1  0  0  0
 16 17  2  0  0  0
 16 21  1  0  0  0
 16 31  1  0  0  0
 17 18  1  0  0  0
 17 99  1  0  0  0
 18 19  2  0  0  0
 18100  1  0  0  0
 19 20  1  0  0  0
 19 24  1  0  0  0
 20 21  2  0  0  0
 20101  1  0  0  0
 21 23  1  0  0  0
 22 28  1  0  0  0
 22 32  2  0  0  0
 26 27  1  0  0  0
 28102  1  0  0  0
 28103  1  0  0  0
 29104  1  0  0  0
 29105  1  0  0  0
 33 34  1  0  0  0
 33 66  1  0  0  0
 33 70  2  0  0  0
 34 36  1  0  0  0
 34 59  1  0  0  0
 34106  1  0  0  0
 35 44  2  0  0  0
 35 45  1  0  0  0
 35 68  1  0  0  0
 36 56  1  0  0  0
 36107  1  0  0  0
 37 39  1  0  0  0
 37 47  1  0  0  0
 37 66  1  0  0  0
 37108  1  0  0  0
 38 43  2  0  0  0
 38 46  1  0  0  0
 38 47  1  0  0  0
 39 64  1  0  0  0
 39 67  2  0  0  0
 40 52  1  0  0  0
 40 53  2  0  0  0
 40 58  1  0  0  0
 41109  1  0  0  0
 41110  1  0  0  0
 41111  1  0  0  0
 41 48  1  0  0  0
 42 43  1  0  0  0
 42 66  1  0  0  0
 42112  1  0  0  0
 42113  1  0  0  0
 43 44  1  0  0  0
 44114  1  0  0  0
 45 46  2  0  0  0
 45115  1  0  0  0
 46116  1  0  0  0
 47117  1  0  0  0
 47118  1  0  0  0
 48 56  1  0  0  0
 48 65  1  0  0  0
 48119  1  0  0  0
 49 50  1  0  0  0
 49 53  1  0  0  0
 49 64  1  0  0  0
 49120  1  0  0  0
 50 51  1  0  0  0
 50121  1  0  0  0
 50122  1  0  0  0
 51 52  1  0  0  0
 51123  1  0  0  0
 51124  1  0  0  0
 52125  1  0  0  0
 52126  1  0  0  0
 53 54  1  0  0  0
 54 55  2  0  0  0
 54127  1  0  0  0
 55 57  1  0  0  0
 55128  1  0  0  0
 56 69  2  0  0  0
 57 58  2  0  0  0
 57129  1  0  0  0
 58130  1  0  0  0
 59 60  1  0  0  0
 59 61  1  0  0  0
 59 62  1  0  0  0
 60131  1  0  0  0
 60132  1  0  0  0
 60133  1  0  0  0
 61134  1  0  0  0
 61135  1  0  0  0
 61136  1  0  0  0
 62137  1  0  0  0
 62138  1  0  0  0
 62139  1  0  0  0
 63 65  1  0  0  0
 63140  1  0  0  0
 63141  1  0  0  0
 63142  1  0  0  0
 64143  1  0  0  0
 65144  1  0  0  0
 68 80  1  0  0  0
 71 72  1  0  0  0
 71 73  2  0  0  0
 71145  1  0  0  0
 72 80  1  0  0  0
 72 82  2  0  0  0
 73 83  1  0  0  0
 73 85  1  0  0  0
 74 76  1  0  0  0
 74 78  1  0  0  0
 74146  1  0  0  0
 74147  1  0  0  0
 75 77  1  0  0  0
 75 78  1  0  0  0
 75148  1  0  0  0
 75149  1  0  0  0
 76 84  1  0  0  0
 76150  1  0  0  0
 76151  1  0  0  0
 77 84  1  0  0  0
 77152  1  0  0  0
 77153  1  0  0  0
 78 85  1  0  0  0
 78154  1  0  0  0
 79 81  1  0  0  0
 79155  1  0  0  0
 79156  1  0  0  0
 79157  1  0  0  0
 80158  1  0  0  0
 80159  1  0  0  0
 81 83  1  0  0  0
 81160  1  0  0  0
 81161  1  0  0  0
 82 83  1  0  0  0
 85162  1  0  0  0
M  ISO  4   1 100  68 101  80 101  84 100
M  END
> <chiral flag>
0

> <version>
0

> <s_m_source_file>
/data/baiqing/PycharmProjects/Reinvent-master-3.2/result/LINK_invent/BTK/process_docking_weight1_custom_sum_contain_oxygen_bond_distance_aromatic_linkinvent_7_9_3/rearranged_h_0180.sdf

> <i_m_source_file_index>
60

> <r_mmod_Potential_Energy-OPLS-2005>
281.637542724609

> <r_mmod_Stretch_Energy-OPLS-2005>
88.1311416625977

> <r_mmod_Bend_Energy-OPLS-2005>
174.481811523438

> <r_mmod_Torsional_Energy-OPLS-2005>
331.834686279297

> <r_mmod_Improper_Torsional_Energy-OPLS-2005>
16.563232421875

> <r_mmod_Van_der_Waal_Energy-OPLS-2005>
125.522171020508

> <r_mmod_Electrostatic_Energy-OPLS-2005>
-304.452178955078

> <r_mmod_Solvation_Energy-OPLS-2005>
-217.382415771484

> <b_mmod_Minimization_Converged-OPLS-2005>
0

> <r_mmod_RMS_Derivative-OPLS-2005>
0.926094055175781

$$$$
60
                    3D
 Structure written by MMmdl.
157166  0  0  1  0            999 V2000
  -30.6270  -14.8429   20.4451 C   0  0  0  0  0  0
  -30.4339  -12.5309   19.4648 C   0  0  0  0  0  0
  -29.5013  -12.4988   18.2346 C   0  0  0  0  0  0
  -28.0407  -12.2732   18.6690 C   0  0  0  0  0  0
  -27.6260  -13.2025   19.8353 C   0  0  2  0  0  0
  -28.6857  -13.2208   20.9644 C   0  0  0  0  0  0
  -25.2437  -13.8079   20.5657 C   0  0  0  0  0  0
  -24.1747  -13.0360   20.9237 C   0  0  0  0  0  0
  -24.6334  -11.6845   20.8799 C   0  0  0  0  0  0
  -23.9016  -10.4247   21.0440 C   0  0  0  0  0  0
  -24.3584   -9.4171   21.9207 C   0  0  0  0  0  0
  -23.6261   -8.2211   22.0761 C   0  0  0  0  0  0
  -22.4247   -8.0256   21.3545 C   0  0  0  0  0  0
  -21.9881   -9.0229   20.4649 C   0  0  0  0  0  0
  -22.7203  -10.2105   20.3070 C   0  0  0  0  0  0
  -21.6835   -6.0726   22.5282 C   0  0  0  0  0  0
  -21.4007   -6.5638   23.8216 C   0  0  0  0  0  0
  -21.3650   -5.6791   24.9175 C   0  0  0  0  0  0
  -21.6042   -4.3056   24.7227 C   0  0  0  0  0  0
  -21.8821   -3.8145   23.4349 C   0  0  0  0  0  0
  -21.9190   -4.6958   22.3404 C   0  0  0  0  0  0
  -22.7784  -13.5179   21.1874 C   0  0  0  0  0  0
  -22.1661   -4.2151   21.0978 F   0  0  0  0  0  0
  -21.5617   -3.4537   25.7738 F   0  0  0  0  0  0
  -29.9618  -13.6246   20.3550 N   0  0  0  0  0  0
  -26.2854  -12.9238   20.3276 N   0  0  0  0  0  0
  -25.9256  -11.6422   20.5823 N   0  0  0  0  0  0
  -22.0422  -12.8199   22.0439 N   0  0  0  0  0  0
  -25.3982  -15.1796   20.3943 N   0  0  0  0  0  0
  -31.8429  -14.8464   20.2288 O   0  0  0  0  0  0
  -21.6612   -6.8860   21.4241 O   0  0  0  0  0  0
  -22.3490  -14.5491   20.6707 O   0  0  0  0  0  0
  -24.6331  -31.8525   23.1963 C   0  0  0  0  0  0
  -25.9147  -32.4738   23.8318 C   0  0  1  0  0  0
  -27.2284  -27.2448   20.1468 C   0  0  0  0  0  0
  -25.5930  -33.8540   24.2240 N   0  0  0  0  0  0
  -23.4322  -30.4725   21.5398 C   0  0  2  0  0  0
  -24.8826  -28.9113   20.1167 C   0  0  0  0  0  0
  -22.7512  -29.4593   22.4916 C   0  0  0  0  0  0
  -18.0289  -28.1395   22.8478 C   0  0  0  0  0  0
  -24.1484  -36.7273   23.2643 C   0  0  0  0  0  0
  -25.9789  -30.7620   21.3774 C   0  0  0  0  0  0
  -26.0550  -29.3808   20.7241 C   0  0  0  0  0  0
  -27.2327  -28.5625   20.7223 C   0  0  0  0  0  0
  -26.0346  -26.8452   19.5085 C   0  0  0  0  0  0
  -24.8782  -27.6510   19.4976 C   0  0  0  0  0  0
  -23.6527  -29.7997   20.1592 C   0  0  0  0  0  0
  -25.4114  -36.3059   24.0323 C   0  0  1  0  0  0
  -20.5892  -28.3712   23.1258 C   0  0  2  0  0  0
  -20.6774  -26.9425   22.5404 C   0  0  0  0  0  0
  -19.5750  -26.6389   21.5207 C   0  0  0  0  0  0
  -18.1933  -26.7934   22.1623 C   0  0  0  0  0  0
  -19.1543  -28.8870   23.2862 C   0  0  0  0  0  0
  -18.9466  -30.1469   23.8884 C   0  0  0  0  0  0
  -17.6463  -30.6594   24.0563 C   0  0  0  0  0  0
  -25.9058  -34.9430   23.5089 C   0  0  0  0  0  0
  -16.5355  -29.9088   23.6334 C   0  0  0  0  0  0
  -16.7275  -28.6506   23.0356 C   0  0  0  0  0  0
  -26.4507  -31.6578   25.0723 C   0  0  0  0  0  0
  -25.3723  -31.3738   26.1442 C   0  0  0  0  0  0
  -27.0364  -30.2990   24.6236 C   0  0  0  0  0  0
  -27.6054  -32.4329   25.7502 C   0  0  0  0  0  0
  -27.5571  -37.1794   24.8472 C   0  0  0  0  0  0
  -21.4217  -29.3048   22.3645 N   0  0  0  0  0  0
  -26.4287  -37.3760   23.9408 N   0  0  0  0  0  0
  -24.7006  -31.0473   22.0945 N   0  0  0  0  0  0
  -23.4189  -28.8141   23.3038 O   0  0  0  0  0  0
  -28.3188  -26.3398   20.1566 O   0  0  0  0  0  0
  -26.5638  -34.8912   22.4664 O   0  0  0  0  0  0
  -23.5473  -32.1358   23.7240 O   0  0  0  0  0  0
  -29.2412  -23.6782   18.7243 C   0  0  0  0  0  0
  -29.7413  -22.4949   18.1564 C   0  0  0  0  0  0
  -28.7958  -23.6413   20.0516 C   0  0  0  0  0  0
  -29.3914  -21.3055   20.0941 C   0  0  0  0  0  0
  -28.2628  -17.8878   20.4232 C   0  0  0  0  0  0
  -28.5566  -16.3746   20.2661 C   0  0  0  0  0  0
  -30.5590  -17.4780   20.7558 C   0  0  0  0  0  0
  -29.5769  -18.6256   20.1998 C   0  0  2  0  0  0
  -30.2386  -22.4709   16.7264 C   0  0  0  0  0  0
  -28.1002  -24.9383   20.6913 C   0  0  0  0  0  0
  -29.7991  -21.3271   18.8349 N   0  0  0  0  0  0
  -28.8996  -22.4169   20.7243 N   0  0  0  0  0  0
  -29.9564  -16.0821   20.6008 N   0  0  0  0  0  0
  -29.5498  -20.0443   20.7711 N   0  0  0  0  0  0
  -31.4654  -12.6760   19.1397 H   0  0  0  0  0  0
  -30.4199  -11.5735   19.9878 H   0  0  0  0  0  0
  -29.8113  -11.7127   17.5448 H   0  0  0  0  0  0
  -29.5826  -13.4378   17.6849 H   0  0  0  0  0  0
  -27.9440  -11.2319   18.9784 H   0  0  0  0  0  0
  -27.3669  -12.4038   17.8210 H   0  0  0  0  0  0
  -27.5694  -14.1766   19.3693 H   0  0  0  0  0  0
  -28.7730  -12.2352   21.4240 H   0  0  0  0  0  0
  -28.4071  -13.8961   21.7729 H   0  0  0  0  0  0
  -25.2724   -9.5652   22.4786 H   0  0  0  0  0  0
  -23.9969   -7.4600   22.7477 H   0  0  0  0  0  0
  -21.0814   -8.8748   19.8950 H   0  0  0  0  0  0
  -22.3665  -10.9652   19.6188 H   0  0  0  0  0  0
  -21.2003   -7.6148   23.9718 H   0  0  0  0  0  0
  -21.1461   -6.0519   25.9076 H   0  0  0  0  0  0
  -22.0605   -2.7608   23.2846 H   0  0  0  0  0  0
  -22.4028  -11.9871   22.4857 H   0  0  0  0  0  0
  -21.1047  -13.1259   22.2631 H   0  0  0  0  0  0
  -24.6224  -15.8224   20.5071 H   0  0  0  0  0  0
  -26.2371  -15.6284   20.0522 H   0  0  0  0  0  0
  -26.7218  -32.5391   23.1065 H   0  0  0  0  0  0
  -25.0060  -33.9674   25.0372 H   0  0  0  0  0  0
  -22.7305  -31.2954   21.3889 H   0  0  0  0  0  0
  -23.3741  -35.9612   23.3316 H   0  0  0  0  0  0
  -24.3569  -36.8888   22.2056 H   0  0  0  0  0  0
  -23.7244  -37.6477   23.6664 H   0  0  0  0  0  0
  -26.1165  -31.5186   20.6037 H   0  0  0  0  0  0
  -26.8557  -30.8156   22.0112 H   0  0  0  0  0  0
  -28.1330  -28.9214   21.2019 H   0  0  0  0  0  0
  -25.9859  -25.8812   19.0225 H   0  0  0  0  0  0
  -23.9815  -27.2856   19.0163 H   0  0  0  0  0  0
  -23.7782  -30.5723   19.3997 H   0  0  0  0  0  0
  -22.7719  -29.2309   19.8555 H   0  0  0  0  0  0
  -25.1296  -36.1904   25.0813 H   0  0  0  0  0  0
  -20.9979  -28.3293   24.1381 H   0  0  0  0  0  0
  -20.5662  -26.2325   23.3615 H   0  0  0  0  0  0
  -21.6644  -26.7441   22.1208 H   0  0  0  0  0  0
  -19.6912  -25.6295   21.1246 H   0  0  0  0  0  0
  -19.6684  -27.3191   20.6729 H   0  0  0  0  0  0
  -17.4197  -26.6673   21.4034 H   0  0  0  0  0  0
  -18.0345  -26.0083   22.9027 H   0  0  0  0  0  0
  -19.7944  -30.7287   24.2247 H   0  0  0  0  0  0
  -17.5021  -31.6273   24.5170 H   0  0  0  0  0  0
  -15.5354  -30.2988   23.7675 H   0  0  0  0  0  0
  -15.8676  -28.0824   22.7081 H   0  0  0  0  0  0
  -24.5899  -30.7088   25.7770 H   0  0  0  0  0  0
  -24.8915  -32.2911   26.4848 H   0  0  0  0  0  0
  -25.8030  -30.8927   27.0233 H   0  0  0  0  0  0
  -26.2964  -29.6729   24.1239 H   0  0  0  0  0  0
  -27.4009  -29.7265   25.4776 H   0  0  0  0  0  0
  -27.8850  -30.4252   23.9512 H   0  0  0  0  0  0
  -27.2652  -33.3634   26.2063 H   0  0  0  0  0  0
  -28.3873  -32.6886   25.0338 H   0  0  0  0  0  0
  -28.0717  -31.8470   26.5435 H   0  0  0  0  0  0
  -28.2604  -38.0077   24.7491 H   0  0  0  0  0  0
  -28.1049  -36.2603   24.6329 H   0  0  0  0  0  0
  -27.2286  -37.1485   25.8877 H   0  0  0  0  0  0
  -20.9416  -29.8751   21.6824 H   0  0  0  0  0  0
  -26.0160  -38.2833   24.1401 H   0  0  0  0  0  0
  -29.1782  -24.5966   18.1537 H   0  0  0  0  0  0
  -27.9072  -18.0702   21.4386 H   0  0  0  0  0  0
  -27.4767  -18.2268   19.7466 H   0  0  0  0  0  0
  -27.8793  -15.8227   20.9096 H   0  0  0  0  0  0
  -28.3931  -16.1037   19.2234 H   0  0  0  0  0  0
  -30.7362  -17.6313   21.8212 H   0  0  0  0  0  0
  -31.5331  -17.5353   20.2682 H   0  0  0  0  0  0
  -29.7395  -18.7007   19.1236 H   0  0  0  0  0  0
  -31.0412  -21.7443   16.6021 H   0  0  0  0  0  0
  -30.6250  -23.4468   16.4328 H   0  0  0  0  0  0
  -29.4289  -22.2079   16.0466 H   0  0  0  0  0  0
  -28.4113  -24.9720   21.7353 H   0  0  0  0  0  0
  -27.0336  -24.7178   20.7340 H   0  0  0  0  0  0
  -29.3031  -20.0929   21.7521 H   0  0  0  0  0  0
  1 25  1  0  0  0
  1 30  2  0  0  0
  1 83  1  0  0  0
  2  3  1  0  0  0
  2 25  1  0  0  0
  2 85  1  0  0  0
  2 86  1  0  0  0
  3  4  1  0  0  0
  3 87  1  0  0  0
  3 88  1  0  0  0
  4  5  1  0  0  0
  4 89  1  0  0  0
  4 90  1  0  0  0
  5  6  1  0  0  0
  5 26  1  0  0  0
  5 91  1  0  0  0
  6 25  1  0  0  0
  6 92  1  0  0  0
  6 93  1  0  0  0
  7  8  2  0  0  0
  7 26  1  0  0  0
  7 29  1  0  0  0
  8  9  1  0  0  0
  8 22  1  0  0  0
  9 10  1  0  0  0
  9 27  2  0  0  0
 10 11  2  0  0  0
 10 15  1  0  0  0
 11 12  1  0  0  0
 11 94  1  0  0  0
 12 13  2  0  0  0
 12 95  1  0  0  0
 13 14  1  0  0  0
 13 31  1  0  0  0
 14 15  2  0  0  0
 14 96  1  0  0  0
 15 97  1  0  0  0
 16 17  2  0  0  0
 16 21  1  0  0  0
 16 31  1  0  0  0
 17 18  1  0  0  0
 17 98  1  0  0  0
 18 19  2  0  0  0
 18 99  1  0  0  0
 19 20  1  0  0  0
 19 24  1  0  0  0
 20 21  2  0  0  0
 20100  1  0  0  0
 21 23  1  0  0  0
 22 28  1  0  0  0
 22 32  2  0  0  0
 26 27  1  0  0  0
 28101  1  0  0  0
 28102  1  0  0  0
 29103  1  0  0  0
 29104  1  0  0  0
 33 34  1  0  0  0
 33 66  1  0  0  0
 33 70  2  0  0  0
 34 36  1  0  0  0
 34 59  1  0  0  0
 34105  1  0  0  0
 35 44  2  0  0  0
 35 45  1  0  0  0
 35 68  1  0  0  0
 36 56  1  0  0  0
 36106  1  0  0  0
 37 39  1  0  0  0
 37 47  1  0  0  0
 37 66  1  0  0  0
 37107  1  0  0  0
 38 43  2  0  0  0
 38 46  1  0  0  0
 38 47  1  0  0  0
 39 64  1  0  0  0
 39 67  2  0  0  0
 40 52  1  0  0  0
 40 53  2  0  0  0
 40 58  1  0  0  0
 41108  1  0  0  0
 41109  1  0  0  0
 41110  1  0  0  0
 41 48  1  0  0  0
 42 43  1  0  0  0
 42 66  1  0  0  0
 42111  1  0  0  0
 42112  1  0  0  0
 43 44  1  0  0  0
 44113  1  0  0  0
 45 46  2  0  0  0
 45114  1  0  0  0
 46115  1  0  0  0
 47116  1  0  0  0
 47117  1  0  0  0
 48 56  1  0  0  0
 48 65  1  0  0  0
 48118  1  0  0  0
 49 50  1  0  0  0
 49 53  1  0  0  0
 49 64  1  0  0  0
 49119  1  0  0  0
 50 51  1  0  0  0
 50120  1  0  0  0
 50121  1  0  0  0
 51 52  1  0  0  0
 51122  1  0  0  0
 51123  1  0  0  0
 52124  1  0  0  0
 52125  1  0  0  0
 53 54  1  0  0  0
 54 55  2  0  0  0
 54126  1  0  0  0
 55 57  1  0  0  0
 55127  1  0  0  0
 56 69  2  0  0  0
 57 58  2  0  0  0
 57128  1  0  0  0
 58129  1  0  0  0
 59 60  1  0  0  0
 59 61  1  0  0  0
 59 62  1  0  0  0
 60130  1  0  0  0
 60131  1  0  0  0
 60132  1  0  0  0
 61133  1  0  0  0
 61134  1  0  0  0
 61135  1  0  0  0
 62136  1  0  0  0
 62137  1  0  0  0
 62138  1  0  0  0
 63 65  1  0  0  0
 63139  1  0  0  0
 63140  1  0  0  0
 63141  1  0  0  0
 64142  1  0  0  0
 65143  1  0  0  0
 68 80  1  0  0  0
 71 72  2  0  0  0
 71 73  1  0  0  0
 71144  1  0  0  0
 72 79  1  0  0  0
 72 81  1  0  0  0
 73 80  1  0  0  0
 73 82  2  0  0  0
 74 81  2  0  0  0
 74 82  1  0  0  0
 74 84  1  0  0  0
 75 76  1  0  0  0
 75 78  1  0  0  0
 75145  1  0  0  0
 75146  1  0  0  0
 76 83  1  0  0  0
 76147  1  0  0  0
 76148  1  0  0  0
 77 78  1  0  0  0
 77 83  1  0  0  0
 77149  1  0  0  0
 77150  1  0  0  0
 78 84  1  0  0  0
 78151  1  0  0  0
 79152  1  0  0  0
 79153  1  0  0  0
 79154  1  0  0  0
 80155  1  0  0  0
 80156  1  0  0  0
 84157  1  0  0  0
M  ISO  4   1 100  68 101  80 101  83 100
M  END
> <chiral flag>
0

> <version>
0

> <s_m_source_file>
/data/baiqing/PycharmProjects/Reinvent-master-3.2/result/LINK_invent/BTK/process_docking_weight1_custom_sum_contain_oxygen_bond_distance_aromatic_linkinvent_7_9_3/rearranged_h_0180.sdf

> <i_m_source_file_index>
61

> <r_mmod_Potential_Energy-OPLS-2005>
-129.391952514648

> <r_mmod_Stretch_Energy-OPLS-2005>
135.448822021484

> <r_mmod_Bend_Energy-OPLS-2005>
215.566604614258

> <r_mmod_Torsional_Energy-OPLS-2005>
327.542816162109

> <r_mmod_Improper_Torsional_Energy-OPLS-2005>
5.68355751037598

> <r_mmod_Van_der_Waal_Energy-OPLS-2005>
143.240615844727

> <r_mmod_Electrostatic_Energy-OPLS-2005>
-830.935607910156

> <r_mmod_Solvation_Energy-OPLS-2005>
-243.473846435547

> <b_mmod_Minimization_Converged-OPLS-2005>
0

> <r_mmod_RMS_Derivative-OPLS-2005>
0.971842646598816

$$$$
61
                    3D
 Structure written by MMmdl.
159167  0  0  1  0            999 V2000
  -30.5514  -14.9608   20.3383 C   0  0  0  0  0  0
  -30.4443  -12.5754   19.4843 C   0  0  0  0  0  0
  -29.5213  -12.4377   18.2506 C   0  0  0  0  0  0
  -28.0446  -12.2816   18.6725 C   0  0  0  0  0  0
  -27.6210  -13.2267   19.8289 C   0  0  2  0  0  0
  -28.6787  -13.3031   20.9488 C   0  0  0  0  0  0
  -25.2476  -13.8152   20.5754 C   0  0  0  0  0  0
  -24.1769  -13.0411   20.9246 C   0  0  0  0  0  0
  -24.6362  -11.6887   20.8795 C   0  0  0  0  0  0
  -23.9048  -10.4275   21.0439 C   0  0  0  0  0  0
  -24.3604   -9.4188   21.9209 C   0  0  0  0  0  0
  -23.6279   -8.2226   22.0765 C   0  0  0  0  0  0
  -22.4266   -8.0270   21.3548 C   0  0  0  0  0  0
  -21.9900   -9.0247   20.4656 C   0  0  0  0  0  0
  -22.7230  -10.2125   20.3075 C   0  0  0  0  0  0
  -21.6848   -6.0732   22.5281 C   0  0  0  0  0  0
  -21.4013   -6.5640   23.8214 C   0  0  0  0  0  0
  -21.3652   -5.6792   24.9175 C   0  0  0  0  0  0
  -21.6041   -4.3055   24.7228 C   0  0  0  0  0  0
  -21.8820   -3.8148   23.4350 C   0  0  0  0  0  0
  -21.9191   -4.6962   22.3406 C   0  0  0  0  0  0
  -22.7797  -13.5209   21.1882 C   0  0  0  0  0  0
  -22.1660   -4.2150   21.0982 F   0  0  0  0  0  0
  -21.5621   -3.4537   25.7739 F   0  0  0  0  0  0
  -29.9423  -13.7035   20.3161 N   0  0  0  0  0  0
  -26.2869  -12.9323   20.3304 N   0  0  0  0  0  0
  -25.9290  -11.6488   20.5817 N   0  0  0  0  0  0
  -22.0426  -12.8203   22.0425 N   0  0  0  0  0  0
  -25.4178  -15.1883   20.4186 N   0  0  0  0  0  0
  -31.7852  -14.9826   20.2704 O   0  0  0  0  0  0
  -21.6630   -6.8871   21.4240 O   0  0  0  0  0  0
  -22.3503  -14.5526   20.6729 O   0  0  0  0  0  0
  -24.6419  -31.8453   23.1907 C   0  0  0  0  0  0
  -25.9201  -32.4704   23.8286 C   0  0  1  0  0  0
  -27.2173  -27.1488   20.1482 C   0  0  0  0  0  0
  -25.5962  -33.8512   24.2213 N   0  0  0  0  0  0
  -23.4444  -30.4663   21.5358 C   0  0  2  0  0  0
  -24.8934  -28.8961   20.1102 C   0  0  0  0  0  0
  -22.7554  -29.4551   22.4864 C   0  0  0  0  0  0
  -18.0302  -28.1398   22.8477 C   0  0  0  0  0  0
  -24.1491  -36.7251   23.2644 C   0  0  0  0  0  0
  -25.9992  -30.7232   21.3869 C   0  0  0  0  0  0
  -26.0711  -29.3357   20.7279 C   0  0  0  0  0  0
  -27.2336  -28.4789   20.7293 C   0  0  0  0  0  0
  -26.0111  -26.8071   19.4950 C   0  0  0  0  0  0
  -24.8757  -27.6445   19.4788 C   0  0  0  0  0  0
  -23.6702  -29.7979   20.1540 C   0  0  0  0  0  0
  -25.4124  -36.3038   24.0320 C   0  0  1  0  0  0
  -20.5912  -28.3721   23.1245 C   0  0  2  0  0  0
  -20.6791  -26.9427   22.5408 C   0  0  0  0  0  0
  -19.5767  -26.6387   21.5216 C   0  0  0  0  0  0
  -18.1945  -26.7938   22.1622 C   0  0  0  0  0  0
  -19.1557  -28.8877   23.2855 C   0  0  0  0  0  0
  -18.9476  -30.1475   23.8878 C   0  0  0  0  0  0
  -17.6474  -30.6597   24.0559 C   0  0  0  0  0  0
  -25.9073  -34.9414   23.5071 C   0  0  0  0  0  0
  -16.5366  -29.9086   23.6341 C   0  0  0  0  0  0
  -16.7286  -28.6507   23.0361 C   0  0  0  0  0  0
  -26.4535  -31.6563   25.0716 C   0  0  0  0  0  0
  -25.3732  -31.3730   26.1421 C   0  0  0  0  0  0
  -27.0398  -30.2966   24.6279 C   0  0  0  0  0  0
  -27.6085  -32.4315   25.7486 C   0  0  0  0  0  0
  -27.5576  -37.1783   24.8470 C   0  0  0  0  0  0
  -21.4249  -29.3050   22.3613 N   0  0  0  0  0  0
  -26.4287  -37.3752   23.9413 N   0  0  0  0  0  0
  -24.7149  -31.0319   22.0935 N   0  0  0  0  0  0
  -23.4203  -28.8097   23.3007 O   0  0  0  0  0  0
  -28.2782  -26.1745   20.2112 O   0  0  0  0  0  0
  -26.5648  -34.8900   22.4641 O   0  0  0  0  0  0
  -23.5545  -32.1324   23.7141 O   0  0  0  0  0  0
  -29.8367  -17.1589   17.8766 C   0  0  0  0  0  0
  -30.7671  -17.9431   18.7847 C   0  0  0  0  0  0
  -29.1351  -16.1472   18.7919 C   0  0  0  0  0  0
  -30.2061  -17.7013   20.1883 C   0  0  1  0  0  0
  -27.7264  -18.7487   20.0983 C   0  0  0  0  0  0
  -29.0497  -23.3574   20.3172 C   0  0  0  0  0  0
  -28.5847  -21.7389   20.3959 C   0  0  0  0  0  0
  -27.9855  -24.6488   20.1496 C   0  0  0  0  0  0
  -29.1681  -18.9910   20.5804 C   0  0  2  0  0  0
  -29.7916  -16.1647   20.1177 N   0  0  0  0  0  0
  -29.5849  -20.5083   20.3383 N   0  3  0  0  0  0
  -31.4738  -12.7369   19.1605 H   0  0  0  0  0  0
  -30.4523  -11.6493   20.0606 H   0  0  0  0  0  0
  -29.8208  -11.5672   17.6659 H   0  0  0  0  0  0
  -29.6466  -13.2804   17.5741 H   0  0  0  0  0  0
  -27.9158  -11.2459   18.9885 H   0  0  0  0  0  0
  -27.3876  -12.4151   17.8123 H   0  0  0  0  0  0
  -27.5415  -14.2091   19.3803 H   0  0  0  0  0  0
  -28.7788  -12.3464   21.4635 H   0  0  0  0  0  0
  -28.3865  -14.0369   21.7020 H   0  0  0  0  0  0
  -25.2748   -9.5663   22.4789 H   0  0  0  0  0  0
  -23.9984   -7.4619   22.7489 H   0  0  0  0  0  0
  -21.0829   -8.8777   19.8965 H   0  0  0  0  0  0
  -22.3697  -10.9672   19.6191 H   0  0  0  0  0  0
  -21.2010   -7.6150   23.9717 H   0  0  0  0  0  0
  -21.1465   -6.0524   25.9077 H   0  0  0  0  0  0
  -22.0604   -2.7610   23.2852 H   0  0  0  0  0  0
  -22.4019  -11.9838   22.4783 H   0  0  0  0  0  0
  -21.1056  -13.1251   22.2647 H   0  0  0  0  0  0
  -24.6515  -15.8426   20.5328 H   0  0  0  0  0  0
  -26.2776  -15.6299   20.1216 H   0  0  0  0  0  0
  -26.7261  -32.5310   23.1008 H   0  0  0  0  0  0
  -25.0123  -33.9640   25.0369 H   0  0  0  0  0  0
  -22.7470  -31.2927   21.3833 H   0  0  0  0  0  0
  -23.3766  -35.9568   23.3293 H   0  0  0  0  0  0
  -24.3578  -36.8892   22.2062 H   0  0  0  0  0  0
  -23.7229  -37.6436   23.6684 H   0  0  0  0  0  0
  -26.1518  -31.4784   20.6149 H   0  0  0  0  0  0
  -26.8718  -30.7744   22.0260 H   0  0  0  0  0  0
  -28.1303  -28.8110   21.2337 H   0  0  0  0  0  0
  -25.9060  -25.8536   19.0021 H   0  0  0  0  0  0
  -23.9764  -27.3043   18.9836 H   0  0  0  0  0  0
  -23.8065  -30.5747   19.4007 H   0  0  0  0  0  0
  -22.7849  -29.2414   19.8416 H   0  0  0  0  0  0
  -25.1307  -36.1872   25.0810 H   0  0  0  0  0  0
  -21.0006  -28.3309   24.1366 H   0  0  0  0  0  0
  -20.5701  -26.2327   23.3620 H   0  0  0  0  0  0
  -21.6656  -26.7447   22.1195 H   0  0  0  0  0  0
  -19.6932  -25.6294   21.1258 H   0  0  0  0  0  0
  -19.6712  -27.3188   20.6737 H   0  0  0  0  0  0
  -17.4217  -26.6692   21.4021 H   0  0  0  0  0  0
  -18.0339  -26.0082   22.9021 H   0  0  0  0  0  0
  -19.7952  -30.7297   24.2240 H   0  0  0  0  0  0
  -17.5027  -31.6277   24.5165 H   0  0  0  0  0  0
  -15.5367  -30.2984   23.7682 H   0  0  0  0  0  0
  -15.8684  -28.0820   22.7094 H   0  0  0  0  0  0
  -24.5937  -30.7048   25.7742 H   0  0  0  0  0  0
  -24.8889  -32.2895   26.4804 H   0  0  0  0  0  0
  -25.8035  -30.8942   27.0227 H   0  0  0  0  0  0
  -26.3007  -29.6689   24.1292 H   0  0  0  0  0  0
  -27.4026  -29.7267   25.4842 H   0  0  0  0  0  0
  -27.8903  -30.4214   23.9577 H   0  0  0  0  0  0
  -27.2720  -33.3658   26.1992 H   0  0  0  0  0  0
  -28.3927  -32.6806   25.0324 H   0  0  0  0  0  0
  -28.0712  -31.8477   26.5454 H   0  0  0  0  0  0
  -28.2589  -38.0088   24.7518 H   0  0  0  0  0  0
  -28.1075  -36.2614   24.6292 H   0  0  0  0  0  0
  -27.2288  -37.1419   25.8872 H   0  0  0  0  0  0
  -20.9454  -29.8752   21.6785 H   0  0  0  0  0  0
  -26.0153  -38.2813   24.1431 H   0  0  0  0  0  0
  -30.4004  -16.6599   17.0855 H   0  0  0  0  0  0
  -29.1078  -17.8078   17.3897 H   0  0  0  0  0  0
  -30.8441  -18.9915   18.4988 H   0  0  0  0  0  0
  -31.7732  -17.5246   18.7194 H   0  0  0  0  0  0
  -29.1601  -15.1900   18.2835 H   0  0  0  0  0  0
  -28.0785  -16.3849   18.8917 H   0  0  0  0  0  0
  -31.0401  -17.7637   20.8890 H   0  0  0  0  0  0
  -27.3594  -17.7839   20.4463 H   0  0  0  0  0  0
  -27.6482  -18.7818   19.0125 H   0  0  0  0  0  0
  -27.0355  -19.4877   20.5020 H   0  0  0  0  0  0
  -29.7640  -23.4424   19.4985 H   0  0  0  0  0  0
  -29.6356  -23.5517   21.2152 H   0  0  0  0  0  0
  -27.8689  -21.5814   19.5889 H   0  0  0  0  0  0
  -28.0070  -21.6243   21.3132 H   0  0  0  0  0  0
  -27.1942  -24.4799   20.8809 H   0  0  0  0  0  0
  -27.5170  -24.4744   19.1816 H   0  0  0  0  0  0
  -29.0867  -18.9377   21.6672 H   0  0  0  0  0  0
  -30.3259  -20.7037   20.9927 H   0  0  0  0  0  0
  -30.0087  -20.5483   19.4259 H   0  0  0  0  0  0
  1 25  1  0  0  0
  1 30  2  0  0  0
  1 80  1  0  0  0
  2  3  1  0  0  0
  2 25  1  0  0  0
  2 82  1  0  0  0
  2 83  1  0  0  0
  3  4  1  0  0  0
  3 84  1  0  0  0
  3 85  1  0  0  0
  4  5  1  0  0  0
  4 86  1  0  0  0
  4 87  1  0  0  0
  5  6  1  0  0  0
  5 26  1  0  0  0
  5 88  1  0  0  0
  6 25  1  0  0  0
  6 89  1  0  0  0
  6 90  1  0  0  0
  7  8  2  0  0  0
  7 26  1  0  0  0
  7 29  1  0  0  0
  8  9  1  0  0  0
  8 22  1  0  0  0
  9 10  1  0  0  0
  9 27  2  0  0  0
 10 11  2  0  0  0
 10 15  1  0  0  0
 11 12  1  0  0  0
 11 91  1  0  0  0
 12 13  2  0  0  0
 12 92  1  0  0  0
 13 14  1  0  0  0
 13 31  1  0  0  0
 14 15  2  0  0  0
 14 93  1  0  0  0
 15 94  1  0  0  0
 16 17  2  0  0  0
 16 21  1  0  0  0
 16 31  1  0  0  0
 17 18  1  0  0  0
 17 95  1  0  0  0
 18 19  2  0  0  0
 18 96  1  0  0  0
 19 20  1  0  0  0
 19 24  1  0  0  0
 20 21  2  0  0  0
 20 97  1  0  0  0
 21 23  1  0  0  0
 22 28  1  0  0  0
 22 32  2  0  0  0
 26 27  1  0  0  0
 28 98  1  0  0  0
 28 99  1  0  0  0
 29100  1  0  0  0
 29101  1  0  0  0
 33 34  1  0  0  0
 33 66  1  0  0  0
 33 70  2  0  0  0
 34 36  1  0  0  0
 34 59  1  0  0  0
 34102  1  0  0  0
 35 44  2  0  0  0
 35 45  1  0  0  0
 35 68  1  0  0  0
 36 56  1  0  0  0
 36103  1  0  0  0
 37 39  1  0  0  0
 37 47  1  0  0  0
 37 66  1  0  0  0
 37104  1  0  0  0
 38 43  2  0  0  0
 38 46  1  0  0  0
 38 47  1  0  0  0
 39 64  1  0  0  0
 39 67  2  0  0  0
 40 52  1  0  0  0
 40 53  2  0  0  0
 40 58  1  0  0  0
 41105  1  0  0  0
 41106  1  0  0  0
 41107  1  0  0  0
 41 48  1  0  0  0
 42 43  1  0  0  0
 42 66  1  0  0  0
 42108  1  0  0  0
 42109  1  0  0  0
 43 44  1  0  0  0
 44110  1  0  0  0
 45 46  2  0  0  0
 45111  1  0  0  0
 46112  1  0  0  0
 47113  1  0  0  0
 47114  1  0  0  0
 48 56  1  0  0  0
 48 65  1  0  0  0
 48115  1  0  0  0
 49 50  1  0  0  0
 49 53  1  0  0  0
 49 64  1  0  0  0
 49116  1  0  0  0
 50 51  1  0  0  0
 50117  1  0  0  0
 50118  1  0  0  0
 51 52  1  0  0  0
 51119  1  0  0  0
 51120  1  0  0  0
 52121  1  0  0  0
 52122  1  0  0  0
 53 54  1  0  0  0
 54 55  2  0  0  0
 54123  1  0  0  0
 55 57  1  0  0  0
 55124  1  0  0  0
 56 69  2  0  0  0
 57 58  2  0  0  0
 57125  1  0  0  0
 58126  1  0  0  0
 59 60  1  0  0  0
 59 61  1  0  0  0
 59 62  1  0  0  0
 60127  1  0  0  0
 60128  1  0  0  0
 60129  1  0  0  0
 61130  1  0  0  0
 61131  1  0  0  0
 61132  1  0  0  0
 62133  1  0  0  0
 62134  1  0  0  0
 62135  1  0  0  0
 63 65  1  0  0  0
 63136  1  0  0  0
 63137  1  0  0  0
 63138  1  0  0  0
 64139  1  0  0  0
 65140  1  0  0  0
 68 78  1  0  0  0
 71 72  1  0  0  0
 71 73  1  0  0  0
 71141  1  0  0  0
 71142  1  0  0  0
 72143  1  0  0  0
 72144  1  0  0  0
 72 74  1  0  0  0
 73 80  1  0  0  0
 73145  1  0  0  0
 73146  1  0  0  0
 74 79  1  0  0  0
 74 80  1  0  0  0
 74147  1  0  0  0
 75148  1  0  0  0
 75149  1  0  0  0
 75150  1  0  0  0
 75 79  1  0  0  0
 76 77  1  0  0  0
 76 78  1  0  0  0
 76151  1  0  0  0
 76152  1  0  0  0
 77 81  1  0  0  0
 77153  1  0  0  0
 77154  1  0  0  0
 78155  1  0  0  0
 78156  1  0  0  0
 79 81  1  0  0  0
 79157  1  0  0  0
 81158  1  0  0  0
 81159  1  0  0  0
M  CHG  1  81   1
M  ISO  4   1 100  68 101  78 101  80 100
M  END
> <chiral flag>
0

> <version>
0

> <s_m_source_file>
/data/baiqing/PycharmProjects/Reinvent-master-3.2/result/LINK_invent/BTK/process_docking_weight1_custom_sum_contain_oxygen_bond_distance_aromatic_linkinvent_7_9_3/rearranged_h_0180.sdf

> <i_m_source_file_index>
62

> <r_mmod_Potential_Energy-OPLS-2005>
624.349548339844

> <r_mmod_Stretch_Energy-OPLS-2005>
272.716613769531

> <r_mmod_Bend_Energy-OPLS-2005>
293.194305419922

> <r_mmod_Torsional_Energy-OPLS-2005>
379.497161865234

> <r_mmod_Improper_Torsional_Energy-OPLS-2005>
13.077410697937

> <r_mmod_Van_der_Waal_Energy-OPLS-2005>
119.639999389648

> <r_mmod_Electrostatic_Energy-OPLS-2005>
-188.975570678711

> <r_mmod_Solvation_Energy-OPLS-2005>
-464.043334960938

> <b_mmod_Minimization_Converged-OPLS-2005>
0

> <r_mmod_RMS_Derivative-OPLS-2005>
1.00333321094513

$$$$
62
                    3D
 Structure written by MMmdl.
167177  0  0  1  0            999 V2000
  -30.7977  -14.5413   20.2018 C   0  0  0  0  0  0
  -31.3386  -12.6179   19.4501 C   0  0  0  0  0  0
  -30.4071  -12.6425   17.7980 C   0  0  0  0  0  0
  -27.5581  -14.0909   18.0672 C   0  0  0  0  0  0
  -27.2130  -13.8433   20.1787 C   0  0  2  0  0  0
  -28.7892  -13.5997   21.4254 C   0  0  0  0  0  0
  -24.9063  -13.9198   20.6152 C   0  0  0  0  0  0
  -23.9636  -13.0362   20.9566 C   0  0  0  0  0  0
  -24.5488  -11.7325   20.9189 C   0  0  0  0  0  0
  -23.8916  -10.4285   21.0452 C   0  0  0  0  0  0
  -24.3596   -9.4237   21.9188 C   0  0  0  0  0  0
  -23.6352   -8.2207   22.0714 C   0  0  0  0  0  0
  -22.4333   -8.0180   21.3506 C   0  0  0  0  0  0
  -21.9938   -9.0088   20.4568 C   0  0  0  0  0  0
  -22.7186  -10.1995   20.3006 C   0  0  0  0  0  0
  -21.6869   -6.0702   22.5292 C   0  0  0  0  0  0
  -21.4031   -6.5628   23.8217 C   0  0  0  0  0  0
  -21.3665   -5.6791   24.9186 C   0  0  0  0  0  0
  -21.6042   -4.3050   24.7244 C   0  0  0  0  0  0
  -21.8812   -3.8122   23.4371 C   0  0  0  0  0  0
  -21.9199   -4.6930   22.3421 C   0  0  0  0  0  0
  -22.5686  -13.4506   21.2123 C   0  0  0  0  0  0
  -22.1666   -4.2118   21.0998 F   0  0  0  0  0  0
  -21.5621   -3.4542   25.7762 F   0  0  0  0  0  0
  -30.5003  -13.4312   20.7912 N   0  0  0  0  0  0
  -26.0265  -13.1780   20.5070 N   0  0  0  0  0  0
  -25.8550  -11.8349   20.6983 N   0  0  0  0  0  0
  -21.8897  -12.7415   22.0957 N   0  0  0  0  0  0
  -24.8754  -15.3030   20.4000 N   0  0  0  0  0  0
  -31.8872  -15.0880   20.0391 O   0  0  0  0  0  0
  -21.6675   -6.8807   21.4236 O   0  0  0  0  0  0
  -22.1178  -14.4744   20.6981 O   0  0  0  0  0  0
  -24.6830  -31.8026   23.1555 C   0  0  0  0  0  0
  -25.9431  -32.4471   23.8077 C   0  0  1  0  0  0
  -27.1488  -26.7142   20.1511 C   0  0  0  0  0  0
  -25.6015  -33.8300   24.1960 N   0  0  0  0  0  0
  -23.5018  -30.4153   21.5120 C   0  0  2  0  0  0
  -24.9390  -28.7710   20.1020 C   0  0  0  0  0  0
  -22.7747  -29.4347   22.4718 C   0  0  0  0  0  0
  -18.0341  -28.1419   22.8460 C   0  0  0  0  0  0
  -24.1497  -36.7154   23.2650 C   0  0  0  0  0  0
  -26.0841  -30.5325   21.4187 C   0  0  0  0  0  0
  -26.1329  -29.1052   20.7526 C   0  0  0  0  0  0
  -27.2313  -28.0984   20.7529 C   0  0  0  0  0  0
  -25.9357  -26.5959   19.4418 C   0  0  0  0  0  0
  -24.8786  -27.5442   19.4259 C   0  0  0  0  0  0
  -23.7447  -29.7310   20.1394 C   0  0  0  0  0  0
  -25.4149  -36.2897   24.0279 C   0  0  1  0  0  0
  -20.5974  -28.3777   23.1146 C   0  0  2  0  0  0
  -20.6805  -26.9439   22.5399 C   0  0  0  0  0  0
  -19.5777  -26.6370   21.5216 C   0  0  0  0  0  0
  -18.1962  -26.7948   22.1624 C   0  0  0  0  0  0
  -19.1605  -28.8923   23.2786 C   0  0  0  0  0  0
  -18.9510  -30.1508   23.8829 C   0  0  0  0  0  0
  -17.6499  -30.6600   24.0551 C   0  0  0  0  0  0
  -25.9132  -34.9288   23.4952 C   0  0  0  0  0  0
  -16.5390  -29.9082   23.6348 C   0  0  0  0  0  0
  -16.7323  -28.6505   23.0367 C   0  0  0  0  0  0
  -26.4601  -31.6508   25.0702 C   0  0  0  0  0  0
  -25.3658  -31.3832   26.1309 C   0  0  0  0  0  0
  -27.0533  -30.2844   24.6613 C   0  0  0  0  0  0
  -27.6051  -32.4372   25.7516 C   0  0  0  0  0  0
  -27.5566  -37.1736   24.8463 C   0  0  0  0  0  0
  -21.4399  -29.3034   22.3473 N   0  0  0  0  0  0
  -26.4273  -37.3659   23.9405 N   0  0  0  0  0  0
  -24.7806  -30.9490   22.0805 N   0  0  0  0  0  0
  -23.4217  -28.7923   23.3024 O   0  0  0  0  0  0
  -28.0291  -25.4496   20.2100 O   0  0  0  0  0  0
  -26.5766  -34.8859   22.4565 O   0  0  0  0  0  0
  -23.5862  -32.1108   23.6531 O   0  0  0  0  0  0
  -28.4313  -19.6539   21.1966 C   0  0  0  0  0  0
  -28.4087  -20.9727   18.9391 C   0  0  0  0  0  0
  -28.2079  -21.1519   21.1509 C   0  0  0  0  0  0
  -28.1912  -22.0410   19.9773 C   0  0  0  0  0  0
  -28.6356  -18.6430   20.1230 C   0  0  0  0  0  0
  -29.0758  -12.1083   19.6435 C   0  0  0  0  0  0
  -28.3035  -12.1747   16.9197 C   0  0  0  0  0  0
  -29.7437  -14.7753   17.1778 C   0  0  0  0  0  0
  -28.4287  -12.3534   18.8777 C   0  0  2  0  0  0
  -29.0182  -15.0293   19.4882 C   0  0  2  0  0  0
  -29.7872  -14.3003   19.1196 C   0  0  2  0  0  0
  -27.8842  -21.8148   22.4754 C   0  0  0  0  0  0
  -27.8842  -16.7420   21.6642 C   0  0  0  0  0  0
  -27.6403  -23.8059   19.7912 C   0  0  0  0  0  0
  -28.8136  -16.7917   20.4074 C   0  0  2  0  0  0
  -28.6032  -19.5062   18.9873 N   0  0  0  0  0  0
  -28.9527  -13.5971   16.1705 N   0  3  0  0  0  0
  -32.3766  -12.9266   19.2834 H   0  0  0  0  0  0
  -31.5306  -11.5884   19.7630 H   0  0  0  0  0  0
  -30.4680  -11.5793   17.5293 H   0  0  0  0  0  0
  -31.1498  -12.9429   17.0488 H   0  0  0  0  0  0
  -26.6533  -13.6577   17.6248 H   0  0  0  0  0  0
  -27.3632  -15.1035   17.6937 H   0  0  0  0  0  0
  -27.0183  -14.8392   20.4759 H   0  0  0  0  0  0
  -28.5770  -12.8009   22.1387 H   0  0  0  0  0  0
  -28.8966  -14.3952   22.1484 H   0  0  0  0  0  0
  -25.2640   -9.5864   22.4887 H   0  0  0  0  0  0
  -24.0073   -7.4631   22.7469 H   0  0  0  0  0  0
  -21.0874   -8.8561   19.8870 H   0  0  0  0  0  0
  -22.3532  -10.9533   19.6169 H   0  0  0  0  0  0
  -21.2033   -7.6140   23.9718 H   0  0  0  0  0  0
  -21.1489   -6.0523   25.9091 H   0  0  0  0  0  0
  -22.0576   -2.7582   23.2881 H   0  0  0  0  0  0
  -22.2965  -11.9280   22.5337 H   0  0  0  0  0  0
  -20.9473  -13.0103   22.3378 H   0  0  0  0  0  0
  -23.9979  -15.8098   20.4411 H   0  0  0  0  0  0
  -25.6507  -15.8682   20.0794 H   0  0  0  0  0  0
  -26.7501  -32.4917   23.0775 H   0  0  0  0  0  0
  -25.0078  -33.9344   25.0053 H   0  0  0  0  0  0
  -22.8264  -31.2552   21.3358 H   0  0  0  0  0  0
  -23.3779  -35.9463   23.3263 H   0  0  0  0  0  0
  -24.3566  -36.8868   22.2074 H   0  0  0  0  0  0
  -23.7238  -37.6312   23.6761 H   0  0  0  0  0  0
  -26.2981  -31.2652   20.6391 H   0  0  0  0  0  0
  -26.9326  -30.5811   22.0887 H   0  0  0  0  0  0
  -28.1287  -28.3450   21.3030 H   0  0  0  0  0  0
  -25.7499  -25.6696   18.9179 H   0  0  0  0  0  0
  -23.9765  -27.2885   18.8863 H   0  0  0  0  0  0
  -23.9227  -30.4996   19.3866 H   0  0  0  0  0  0
  -22.8446  -29.2083   19.8119 H   0  0  0  0  0  0
  -25.1358  -36.1661   25.0770 H   0  0  0  0  0  0
  -21.0066  -28.3400   24.1268 H   0  0  0  0  0  0
  -20.5673  -26.2403   23.3660 H   0  0  0  0  0  0
  -21.6666  -26.7382   22.1212 H   0  0  0  0  0  0
  -19.6926  -25.6261   21.1292 H   0  0  0  0  0  0
  -19.6713  -27.3143   20.6716 H   0  0  0  0  0  0
  -17.4229  -26.6699   21.4028 H   0  0  0  0  0  0
  -18.0346  -26.0105   22.9035 H   0  0  0  0  0  0
  -19.7985  -30.7345   24.2164 H   0  0  0  0  0  0
  -17.5048  -31.6273   24.5168 H   0  0  0  0  0  0
  -15.5386  -30.2958   23.7710 H   0  0  0  0  0  0
  -15.8726  -28.0797   22.7117 H   0  0  0  0  0  0
  -24.5865  -30.7162   25.7602 H   0  0  0  0  0  0
  -24.8821  -32.3057   26.4528 H   0  0  0  0  0  0
  -25.7819  -30.9122   27.0222 H   0  0  0  0  0  0
  -26.3245  -29.6448   24.1621 H   0  0  0  0  0  0
  -27.3965  -29.7305   25.5362 H   0  0  0  0  0  0
  -27.9229  -30.3965   24.0136 H   0  0  0  0  0  0
  -27.2588  -33.3740   26.1895 H   0  0  0  0  0  0
  -28.3957  -32.6829   25.0415 H   0  0  0  0  0  0
  -28.0613  -31.8640   26.5595 H   0  0  0  0  0  0
  -28.2544  -38.0067   24.7521 H   0  0  0  0  0  0
  -28.1101  -36.2590   24.6280 H   0  0  0  0  0  0
  -27.2282  -37.1358   25.8864 H   0  0  0  0  0  0
  -20.9689  -29.8724   21.6574 H   0  0  0  0  0  0
  -26.0100  -38.2706   24.1421 H   0  0  0  0  0  0
  -28.4038  -19.2657   22.2017 H   0  0  0  0  0  0
  -28.3806  -21.3215   17.9170 H   0  0  0  0  0  0
  -29.5208  -11.1577   19.3206 H   0  0  0  0  0  0
  -28.5916  -11.6374   20.5123 H   0  0  0  0  0  0
  -27.2781  -12.0189   16.5816 H   0  0  0  0  0  0
  -28.7462  -11.2592   16.5208 H   0  0  0  0  0  0
  -30.7601  -14.9525   16.8194 H   0  0  0  0  0  0
  -29.3232  -15.7422   16.8860 H   0  0  0  0  0  0
  -27.4928  -11.8247   19.0573 H   0  0  0  0  0  0
  -28.8601  -15.7910   18.7460 H   0  0  0  0  0  0
  -28.3870  -21.3154   23.3036 H   0  0  0  0  0  0
  -26.8089  -21.7753   22.6551 H   0  0  0  0  0  0
  -28.1909  -22.8611   22.4811 H   0  0  0  0  0  0
  -28.3680  -17.2341   22.5056 H   0  0  0  0  0  0
  -27.5607  -15.8145   22.1037 H   0  0  0  0  0  0
  -26.9542  -17.2739   21.4603 H   0  0  0  0  0  0
  -26.6053  -23.7337   20.1263 H   0  0  0  0  0  0
  -27.5525  -23.8822   18.7072 H   0  0  0  0  0  0
  -29.8022  -16.8900   20.8541 H   0  0  0  0  0  0
  -28.1918  -14.0655   15.7073 H   0  0  0  0  0  0
  -29.5886  -13.3144   15.4425 H   0  0  0  0  0  0
  1 25  1  0  0  0
  1 30  2  0  0  0
  1 81  1  0  0  0
  2  3  1  0  0  0
  2 25  1  0  0  0
  2 88  1  0  0  0
  2 89  1  0  0  0
  3  4  1  0  0  0
  3 90  1  0  0  0
  3 91  1  0  0  0
  4  5  1  0  0  0
  4 92  1  0  0  0
  4 93  1  0  0  0
  5  6  1  0  0  0
  5 26  1  0  0  0
  5 94  1  0  0  0
  6 25  1  0  0  0
  6 95  1  0  0  0
  6 96  1  0  0  0
  7  8  2  0  0  0
  7 26  1  0  0  0
  7 29  1  0  0  0
  8  9  1  0  0  0
  8 22  1  0  0  0
  9 10  1  0  0  0
  9 27  2  0  0  0
 10 11  2  0  0  0
 10 15  1  0  0  0
 11 12  1  0  0  0
 11 97  1  0  0  0
 12 13  2  0  0  0
 12 98  1  0  0  0
 13 14  1  0  0  0
 13 31  1  0  0  0
 14 15  2  0  0  0
 14 99  1  0  0  0
 15100  1  0  0  0
 16 17  2  0  0  0
 16 21  1  0  0  0
 16 31  1  0  0  0
 17 18  1  0  0  0
 17101  1  0  0  0
 18 19  2  0  0  0
 18102  1  0  0  0
 19 20  1  0  0  0
 19 24  1  0  0  0
 20 21  2  0  0  0
 20103  1  0  0  0
 21 23  1  0  0  0
 22 28  1  0  0  0
 22 32  2  0  0  0
 26 27  1  0  0  0
 28104  1  0  0  0
 28105  1  0  0  0
 29106  1  0  0  0
 29107  1  0  0  0
 33 34  1  0  0  0
 33 66  1  0  0  0
 33 70  2  0  0  0
 34 36  1  0  0  0
 34 59  1  0  0  0
 34108  1  0  0  0
 35 44  2  0  0  0
 35 45  1  0  0  0
 35 68  1  0  0  0
 36 56  1  0  0  0
 36109  1  0  0  0
 37 39  1  0  0  0
 37 47  1  0  0  0
 37 66  1  0  0  0
 37110  1  0  0  0
 38 43  2  0  0  0
 38 46  1  0  0  0
 38 47  1  0  0  0
 39 64  1  0  0  0
 39 67  2  0  0  0
 40 52  1  0  0  0
 40 53  2  0  0  0
 40 58  1  0  0  0
 41111  1  0  0  0
 41112  1  0  0  0
 41113  1  0  0  0
 41 48  1  0  0  0
 42 43  1  0  0  0
 42 66  1  0  0  0
 42114  1  0  0  0
 42115  1  0  0  0
 43 44  1  0  0  0
 44116  1  0  0  0
 45 46  2  0  0  0
 45117  1  0  0  0
 46118  1  0  0  0
 47119  1  0  0  0
 47120  1  0  0  0
 48 56  1  0  0  0
 48 65  1  0  0  0
 48121  1  0  0  0
 49 50  1  0  0  0
 49 53  1  0  0  0
 49 64  1  0  0  0
 49122  1  0  0  0
 50 51  1  0  0  0
 50123  1  0  0  0
 50124  1  0  0  0
 51 52  1  0  0  0
 51125  1  0  0  0
 51126  1  0  0  0
 52127  1  0  0  0
 52128  1  0  0  0
 53 54  1  0  0  0
 54 55  2  0  0  0
 54129  1  0  0  0
 55 57  1  0  0  0
 55130  1  0  0  0
 56 69  2  0  0  0
 57 58  2  0  0  0
 57131  1  0  0  0
 58132  1  0  0  0
 59 60  1  0  0  0
 59 61  1  0  0  0
 59 62  1  0  0  0
 60133  1  0  0  0
 60134  1  0  0  0
 60135  1  0  0  0
 61136  1  0  0  0
 61137  1  0  0  0
 61138  1  0  0  0
 62139  1  0  0  0
 62140  1  0  0  0
 62141  1  0  0  0
 63 65  1  0  0  0
 63142  1  0  0  0
 63143  1  0  0  0
 63144  1  0  0  0
 64145  1  0  0  0
 65146  1  0  0  0
 68 84  1  0  0  0
 71 73  2  0  0  0
 71 75  1  0  0  0
 71147  1  0  0  0
 72 74  2  0  0  0
 72 86  1  0  0  0
 72148  1  0  0  0
 73 74  1  0  0  0
 73 82  1  0  0  0
 74 84  1  0  0  0
 75 85  1  0  0  0
 75 86  2  0  0  0
 76 79  1  0  0  0
 76 81  1  0  0  0
 76149  1  0  0  0
 76150  1  0  0  0
 77 87  1  0  0  0
 77151  1  0  0  0
 77152  1  0  0  0
 77 79  1  0  0  0
 78 81  1  0  0  0
 78 87  1  0  0  0
 78153  1  0  0  0
 78154  1  0  0  0
 79 80  1  0  0  0
 79155  1  0  0  0
 80 81  1  0  0  0
 80 85  1  0  0  0
 80156  1  0  0  0
 82157  1  0  0  0
 82158  1  0  0  0
 82159  1  0  0  0
 83160  1  0  0  0
 83161  1  0  0  0
 83162  1  0  0  0
 83 85  1  0  0  0
 84163  1  0  0  0
 84164  1  0  0  0
 85165  1  0  0  0
 87166  1  0  0  0
 87167  1  0  0  0
M  CHG  1  87   1
M  ISO  4   1 100  68 101  81 100  84 101
M  END
> <chiral flag>
0

> <version>
0

> <s_m_source_file>
/data/baiqing/PycharmProjects/Reinvent-master-3.2/result/LINK_invent/BTK/process_docking_weight1_custom_sum_contain_oxygen_bond_distance_aromatic_linkinvent_7_9_3/rearranged_h_0180.sdf

> <i_m_source_file_index>
63

> <r_mmod_Potential_Energy-OPLS-2005>
14897.5263671875

> <r_mmod_Stretch_Energy-OPLS-2005>
9174.4326171875

> <r_mmod_Bend_Energy-OPLS-2005>
1593.83959960938

> <r_mmod_Torsional_Energy-OPLS-2005>
378.466918945312

> <r_mmod_Improper_Torsional_Energy-OPLS-2005>
38.8275527954102

> <r_mmod_Van_der_Waal_Energy-OPLS-2005>
3355.56860351562

> <r_mmod_Electrostatic_Energy-OPLS-2005>
-377.353118896484

> <r_mmod_Solvation_Energy-OPLS-2005>
-464.831634521484

> <b_mmod_Minimization_Converged-OPLS-2005>
0

> <r_mmod_RMS_Derivative-OPLS-2005>
2.65143203735352

$$$$
63
                    3D
 Structure written by MMmdl.
160169  0  0  1  0            999 V2000
  -30.6811  -14.6262   20.4731 C   0  0  0  0  0  0
  -30.4164  -12.3823   19.4565 C   0  0  0  0  0  0
  -29.4989  -12.4886   18.2216 C   0  0  0  0  0  0
  -28.0241  -12.3359   18.6381 C   0  0  0  0  0  0
  -27.6446  -13.2270   19.8518 C   0  0  2  0  0  0
  -28.6903  -13.1385   20.9841 C   0  0  0  0  0  0
  -25.2539  -13.8205   20.5702 C   0  0  0  0  0  0
  -24.1812  -13.0456   20.9193 C   0  0  0  0  0  0
  -24.6399  -11.6926   20.8753 C   0  0  0  0  0  0
  -23.9071  -10.4301   21.0415 C   0  0  0  0  0  0
  -24.3623   -9.4211   21.9193 C   0  0  0  0  0  0
  -23.6296   -8.2246   22.0764 C   0  0  0  0  0  0
  -22.4279   -8.0285   21.3550 C   0  0  0  0  0  0
  -21.9919   -9.0258   20.4647 C   0  0  0  0  0  0
  -22.7245  -10.2141   20.3060 C   0  0  0  0  0  0
  -21.6854   -6.0737   22.5281 C   0  0  0  0  0  0
  -21.4014   -6.5645   23.8216 C   0  0  0  0  0  0
  -21.3659   -5.6805   24.9182 C   0  0  0  0  0  0
  -21.6048   -4.3065   24.7236 C   0  0  0  0  0  0
  -21.8823   -3.8151   23.4355 C   0  0  0  0  0  0
  -21.9196   -4.6962   22.3408 C   0  0  0  0  0  0
  -22.7831  -13.5231   21.1849 C   0  0  0  0  0  0
  -22.1661   -4.2146   21.0984 F   0  0  0  0  0  0
  -21.5628   -3.4550   25.7751 F   0  0  0  0  0  0
  -29.9996  -13.4409   20.3966 N   0  0  0  0  0  0
  -26.2958  -12.9400   20.3303 N   0  0  0  0  0  0
  -25.9330  -11.6545   20.5770 N   0  0  0  0  0  0
  -22.0486  -12.8209   22.0400 N   0  0  0  0  0  0
  -25.4304  -15.1926   20.4159 N   0  0  0  0  0  0
  -31.8787  -14.6811   20.1770 O   0  0  0  0  0  0
  -21.6644   -6.8878   21.4243 O   0  0  0  0  0  0
  -22.3512  -14.5542   20.6704 O   0  0  0  0  0  0
  -24.6270  -31.8623   23.2067 C   0  0  0  0  0  0
  -25.9122  -32.4798   23.8378 C   0  0  1  0  0  0
  -27.2081  -27.3186   20.1036 C   0  0  0  0  0  0
  -25.5948  -33.8602   24.2302 N   0  0  0  0  0  0
  -23.4188  -30.4912   21.5512 C   0  0  2  0  0  0
  -24.8610  -28.9576   20.1086 C   0  0  0  0  0  0
  -22.7467  -29.4650   22.4949 C   0  0  0  0  0  0
  -18.0282  -28.1388   22.8502 C   0  0  0  0  0  0
  -24.1490  -36.7294   23.2628 C   0  0  0  0  0  0
  -25.9631  -30.7932   21.3789 C   0  0  0  0  0  0
  -26.0342  -29.4239   20.7150 C   0  0  0  0  0  0
  -27.2123  -28.6160   20.7058 C   0  0  0  0  0  0
  -26.0086  -26.9217   19.4603 C   0  0  0  0  0  0
  -24.8505  -27.7121   19.4724 C   0  0  0  0  0  0
  -23.6310  -29.8363   20.1636 C   0  0  0  0  0  0
  -25.4114  -36.3098   24.0330 C   0  0  1  0  0  0
  -20.5884  -28.3703   23.1292 C   0  0  2  0  0  0
  -20.6781  -26.9431   22.5415 C   0  0  0  0  0  0
  -19.5759  -26.6392   21.5219 C   0  0  0  0  0  0
  -18.1933  -26.7937   22.1624 C   0  0  0  0  0  0
  -19.1534  -28.8859   23.2891 C   0  0  0  0  0  0
  -18.9454  -30.1457   23.8912 C   0  0  0  0  0  0
  -17.6456  -30.6597   24.0563 C   0  0  0  0  0  0
  -25.9063  -34.9469   23.5111 C   0  0  0  0  0  0
  -16.5348  -29.9094   23.6331 C   0  0  0  0  0  0
  -16.7266  -28.6502   23.0371 C   0  0  0  0  0  0
  -26.4501  -31.6597   25.0735 C   0  0  0  0  0  0
  -25.3734  -31.3712   26.1456 C   0  0  0  0  0  0
  -27.0341  -30.3026   24.6174 C   0  0  0  0  0  0
  -27.6069  -32.4314   25.7512 C   0  0  0  0  0  0
  -27.5595  -37.1781   24.8441 C   0  0  0  0  0  0
  -21.4177  -29.3065   22.3680 N   0  0  0  0  0  0
  -26.4280  -37.3805   23.9430 N   0  0  0  0  0  0
  -24.6891  -31.0636   22.1025 N   0  0  0  0  0  0
  -23.4197  -28.8169   23.3010 O   0  0  0  0  0  0
  -28.3005  -26.4323   20.1680 O   0  0  0  0  0  0
  -26.5614  -34.8926   22.4667 O   0  0  0  0  0  0
  -23.5432  -32.1420   23.7390 O   0  0  0  0  0  0
  -30.3602  -24.0823   20.4271 C   0  0  0  0  0  0
  -31.1869  -22.9584   20.5960 C   0  0  0  0  0  0
  -28.9883  -23.8504   20.2644 C   0  0  0  0  0  0
  -29.3925  -21.5409   20.4454 C   0  0  0  0  0  0
  -29.0398  -17.9234   19.3766 C   0  0  0  0  0  0
  -29.5887  -18.1168   21.7331 C   0  0  0  0  0  0
  -29.8137  -16.5637   19.3084 C   0  0  0  0  0  0
  -30.3582  -16.7473   21.6662 C   0  0  0  0  0  0
  -29.6193  -18.9209   20.4090 C   0  0  0  0  0  0
  -32.6847  -23.0997   20.7636 C   0  0  0  0  0  0
  -27.9696  -24.9974   19.9706 C   0  0  0  0  0  0
  -30.6981  -21.6979   20.5994 N   0  0  0  0  0  0
  -28.5270  -22.5545   20.2825 N   0  0  0  0  0  0
  -29.9648  -15.8038   20.5816 N   0  0  0  0  0  0
  -28.8871  -20.2266   20.4493 N   0  0  0  0  0  0
  -31.4617  -12.4738   19.1560 H   0  0  0  0  0  0
  -30.3239  -11.4019   19.9260 H   0  0  0  0  0  0
  -29.7601  -11.7228   17.4904 H   0  0  0  0  0  0
  -29.6471  -13.4497   17.7268 H   0  0  0  0  0  0
  -27.8614  -11.2864   18.8856 H   0  0  0  0  0  0
  -27.3694  -12.5506   17.7928 H   0  0  0  0  0  0
  -27.6475  -14.2536   19.4858 H   0  0  0  0  0  0
  -28.6968  -12.1451   21.4354 H   0  0  0  0  0  0
  -28.4496  -13.8414   21.7834 H   0  0  0  0  0  0
  -25.2773   -9.5692   22.4759 H   0  0  0  0  0  0
  -24.0010   -7.4647   22.7492 H   0  0  0  0  0  0
  -21.0854   -8.8780   19.8946 H   0  0  0  0  0  0
  -22.3709  -10.9684   19.6165 H   0  0  0  0  0  0
  -21.2008   -7.6155   23.9708 H   0  0  0  0  0  0
  -21.1471   -6.0542   25.9083 H   0  0  0  0  0  0
  -22.0601   -2.7611   23.2866 H   0  0  0  0  0  0
  -22.4114  -11.9860   22.4756 H   0  0  0  0  0  0
  -21.1108  -13.1221   22.2626 H   0  0  0  0  0  0
  -24.6773  -15.8599   20.5429 H   0  0  0  0  0  0
  -26.3044  -15.6247   20.1442 H   0  0  0  0  0  0
  -26.7186  -32.5471   23.1123 H   0  0  0  0  0  0
  -25.0116  -33.9760   25.0461 H   0  0  0  0  0  0
  -22.7133  -31.3134   21.4136 H   0  0  0  0  0  0
  -23.3787  -35.9581   23.3222 H   0  0  0  0  0  0
  -24.3600  -36.8989   22.2055 H   0  0  0  0  0  0
  -23.7185  -37.6449   23.6699 H   0  0  0  0  0  0
  -26.0930  -31.5587   20.6125 H   0  0  0  0  0  0
  -26.8456  -30.8409   22.0057 H   0  0  0  0  0  0
  -28.1105  -28.9650   21.1963 H   0  0  0  0  0  0
  -25.9107  -25.9803   18.9428 H   0  0  0  0  0  0
  -23.9530  -27.3545   18.9865 H   0  0  0  0  0  0
  -23.7489  -30.6167   19.4110 H   0  0  0  0  0  0
  -22.7505  -29.2669   19.8612 H   0  0  0  0  0  0
  -25.1277  -36.1944   25.0820 H   0  0  0  0  0  0
  -20.9976  -28.3292   24.1415 H   0  0  0  0  0  0
  -20.5723  -26.2309   23.3608 H   0  0  0  0  0  0
  -21.6649  -26.7500   22.1199 H   0  0  0  0  0  0
  -19.6935  -25.6305   21.1246 H   0  0  0  0  0  0
  -19.6695  -27.3195   20.6745 H   0  0  0  0  0  0
  -17.4216  -26.6708   21.4008 H   0  0  0  0  0  0
  -18.0312  -26.0065   22.9001 H   0  0  0  0  0  0
  -19.7924  -30.7262   24.2309 H   0  0  0  0  0  0
  -17.5012  -31.6289   24.5144 H   0  0  0  0  0  0
  -15.5351  -30.3006   23.7644 H   0  0  0  0  0  0
  -15.8662  -28.0810   22.7113 H   0  0  0  0  0  0
  -24.5943  -30.7025   25.7778 H   0  0  0  0  0  0
  -24.8875  -32.2859   26.4856 H   0  0  0  0  0  0
  -25.8064  -30.8916   27.0244 H   0  0  0  0  0  0
  -26.2913  -29.6779   24.1197 H   0  0  0  0  0  0
  -27.4045  -29.7274   25.4668 H   0  0  0  0  0  0
  -27.8783  -30.4313   23.9397 H   0  0  0  0  0  0
  -27.2699  -33.3615   26.2096 H   0  0  0  0  0  0
  -28.3883  -32.6865   25.0346 H   0  0  0  0  0  0
  -28.0733  -31.8427   26.5417 H   0  0  0  0  0  0
  -28.2538  -38.0158   24.7635 H   0  0  0  0  0  0
  -28.1175  -36.2701   24.6093 H   0  0  0  0  0  0
  -27.2335  -37.1220   25.8843 H   0  0  0  0  0  0
  -20.9334  -29.8797   21.6902 H   0  0  0  0  0  0
  -26.0157  -38.2855   24.1530 H   0  0  0  0  0  0
  -30.7581  -25.0890   20.4046 H   0  0  0  0  0  0
  -27.9914  -17.7216   19.6028 H   0  0  0  0  0  0
  -29.0486  -18.3809   18.3859 H   0  0  0  0  0  0
  -30.0124  -18.7238   22.5347 H   0  0  0  0  0  0
  -28.5532  -17.9273   22.0217 H   0  0  0  0  0  0
  -30.8064  -16.7614   18.8992 H   0  0  0  0  0  0
  -29.3188  -15.9213   18.5782 H   0  0  0  0  0  0
  -30.2470  -16.2374   22.6244 H   0  0  0  0  0  0
  -31.4246  -16.9627   21.5694 H   0  0  0  0  0  0
  -30.6587  -19.1270   20.1470 H   0  0  0  0  0  0
  -32.9739  -24.1447   20.8741 H   0  0  0  0  0  0
  -33.2058  -22.6947   19.8954 H   0  0  0  0  0  0
  -33.0243  -22.5624   21.6492 H   0  0  0  0  0  0
  -27.0875  -24.7597   20.5681 H   0  0  0  0  0  0
  -27.7014  -24.8529   18.9241 H   0  0  0  0  0  0
  -27.8820  -20.1761   20.3403 H   0  0  0  0  0  0
  1 25  1  0  0  0
  1 30  2  0  0  0
  1 84  1  0  0  0
  2  3  1  0  0  0
  2 25  1  0  0  0
  2 86  1  0  0  0
  2 87  1  0  0  0
  3  4  1  0  0  0
  3 88  1  0  0  0
  3 89  1  0  0  0
  4  5  1  0  0  0
  4 90  1  0  0  0
  4 91  1  0  0  0
  5  6  1  0  0  0
  5 26  1  0  0  0
  5 92  1  0  0  0
  6 25  1  0  0  0
  6 93  1  0  0  0
  6 94  1  0  0  0
  7  8  2  0  0  0
  7 26  1  0  0  0
  7 29  1  0  0  0
  8  9  1  0  0  0
  8 22  1  0  0  0
  9 10  1  0  0  0
  9 27  2  0  0  0
 10 11  2  0  0  0
 10 15  1  0  0  0
 11 12  1  0  0  0
 11 95  1  0  0  0
 12 13  2  0  0  0
 12 96  1  0  0  0
 13 14  1  0  0  0
 13 31  1  0  0  0
 14 15  2  0  0  0
 14 97  1  0  0  0
 15 98  1  0  0  0
 16 17  2  0  0  0
 16 21  1  0  0  0
 16 31  1  0  0  0
 17 18  1  0  0  0
 17 99  1  0  0  0
 18 19  2  0  0  0
 18100  1  0  0  0
 19 20  1  0  0  0
 19 24  1  0  0  0
 20 21  2  0  0  0
 20101  1  0  0  0
 21 23  1  0  0  0
 22 28  1  0  0  0
 22 32  2  0  0  0
 26 27  1  0  0  0
 28102  1  0  0  0
 28103  1  0  0  0
 29104  1  0  0  0
 29105  1  0  0  0
 33 34  1  0  0  0
 33 66  1  0  0  0
 33 70  2  0  0  0
 34 36  1  0  0  0
 34 59  1  0  0  0
 34106  1  0  0  0
 35 44  2  0  0  0
 35 45  1  0  0  0
 35 68  1  0  0  0
 36 56  1  0  0  0
 36107  1  0  0  0
 37 39  1  0  0  0
 37 47  1  0  0  0
 37 66  1  0  0  0
 37108  1  0  0  0
 38 43  2  0  0  0
 38 46  1  0  0  0
 38 47  1  0  0  0
 39 64  1  0  0  0
 39 67  2  0  0  0
 40 52  1  0  0  0
 40 53  2  0  0  0
 40 58  1  0  0  0
 41109  1  0  0  0
 41110  1  0  0  0
 41111  1  0  0  0
 41 48  1  0  0  0
 42 43  1  0  0  0
 42 66  1  0  0  0
 42112  1  0  0  0
 42113  1  0  0  0
 43 44  1  0  0  0
 44114  1  0  0  0
 45 46  2  0  0  0
 45115  1  0  0  0
 46116  1  0  0  0
 47117  1  0  0  0
 47118  1  0  0  0
 48 56  1  0  0  0
 48 65  1  0  0  0
 48119  1  0  0  0
 49 50  1  0  0  0
 49 53  1  0  0  0
 49 64  1  0  0  0
 49120  1  0  0  0
 50 51  1  0  0  0
 50121  1  0  0  0
 50122  1  0  0  0
 51 52  1  0  0  0
 51123  1  0  0  0
 51124  1  0  0  0
 52125  1  0  0  0
 52126  1  0  0  0
 53 54  1  0  0  0
 54 55  2  0  0  0
 54127  1  0  0  0
 55 57  1  0  0  0
 55128  1  0  0  0
 56 69  2  0  0  0
 57 58  2  0  0  0
 57129  1  0  0  0
 58130  1  0  0  0
 59 60  1  0  0  0
 59 61  1  0  0  0
 59 62  1  0  0  0
 60131  1  0  0  0
 60132  1  0  0  0
 60133  1  0  0  0
 61134  1  0  0  0
 61135  1  0  0  0
 61136  1  0  0  0
 62137  1  0  0  0
 62138  1  0  0  0
 62139  1  0  0  0
 63 65  1  0  0  0
 63140  1  0  0  0
 63141  1  0  0  0
 63142  1  0  0  0
 64143  1  0  0  0
 65144  1  0  0  0
 68 81  1  0  0  0
 71 72  2  0  0  0
 71 73  1  0  0  0
 71145  1  0  0  0
 72 80  1  0  0  0
 72 82  1  0  0  0
 73 81  1  0  0  0
 73 83  2  0  0  0
 74 82  2  0  0  0
 74 83  1  0  0  0
 74 85  1  0  0  0
 75 77  1  0  0  0
 75 79  1  0  0  0
 75146  1  0  0  0
 75147  1  0  0  0
 76 78  1  0  0  0
 76 79  1  0  0  0
 76148  1  0  0  0
 76149  1  0  0  0
 77 84  1  0  0  0
 77150  1  0  0  0
 77151  1  0  0  0
 78 84  1  0  0  0
 78152  1  0  0  0
 78153  1  0  0  0
 79 85  1  0  0  0
 79154  1  0  0  0
 80155  1  0  0  0
 80156  1  0  0  0
 80157  1  0  0  0
 81158  1  0  0  0
 81159  1  0  0  0
 85160  1  0  0  0
M  ISO  4   1 100  68 101  81 101  84 100
M  END
> <chiral flag>
0

> <version>
0

> <s_m_source_file>
/data/baiqing/PycharmProjects/Reinvent-master-3.2/result/LINK_invent/BTK/process_docking_weight1_custom_sum_contain_oxygen_bond_distance_aromatic_linkinvent_7_9_3/rearranged_h_0180.sdf

> <i_m_source_file_index>
64

> <r_mmod_Potential_Energy-OPLS-2005>
-248.348220825195

> <r_mmod_Stretch_Energy-OPLS-2005>
72.5944900512695

> <r_mmod_Bend_Energy-OPLS-2005>
154.803070068359

> <r_mmod_Torsional_Energy-OPLS-2005>
320.030731201172

> <r_mmod_Improper_Torsional_Energy-OPLS-2005>
12.3572988510132

> <r_mmod_Van_der_Waal_Energy-OPLS-2005>
159.823379516602

> <r_mmod_Electrostatic_Energy-OPLS-2005>
-795.451232910156

> <r_mmod_Solvation_Energy-OPLS-2005>
-227.500457763672

> <b_mmod_Minimization_Converged-OPLS-2005>
0

> <r_mmod_RMS_Derivative-OPLS-2005>
1.29733276367188

$$$$
64
                    3D
 Structure written by MMmdl.
159168  0  0  1  0            999 V2000
  -30.3964  -15.3651   20.3490 C   0  0  0  0  0  0
  -30.4385  -12.8714   19.5548 C   0  0  0  0  0  0
  -29.5476  -12.6033   18.3121 C   0  0  0  0  0  0
  -28.0982  -12.3136   18.7325 C   0  0  0  0  0  0
  -27.6137  -13.2877   19.8343 C   0  0  2  0  0  0
  -28.6389  -13.4934   20.9730 C   0  0  0  0  0  0
  -25.2393  -13.8251   20.5782 C   0  0  0  0  0  0
  -24.1736  -13.0438   20.9257 C   0  0  0  0  0  0
  -24.6415  -11.6941   20.8753 C   0  0  0  0  0  0
  -23.9111  -10.4288   21.0407 C   0  0  0  0  0  0
  -24.3648   -9.4204   21.9193 C   0  0  0  0  0  0
  -23.6312   -8.2241   22.0754 C   0  0  0  0  0  0
  -22.4279   -8.0288   21.3553 C   0  0  0  0  0  0
  -21.9942   -9.0266   20.4644 C   0  0  0  0  0  0
  -22.7284  -10.2140   20.3057 C   0  0  0  0  0  0
  -21.6845   -6.0747   22.5275 C   0  0  0  0  0  0
  -21.4013   -6.5645   23.8214 C   0  0  0  0  0  0
  -21.3670   -5.6797   24.9174 C   0  0  0  0  0  0
  -21.6047   -4.3063   24.7227 C   0  0  0  0  0  0
  -21.8829   -3.8157   23.4346 C   0  0  0  0  0  0
  -21.9197   -4.6976   22.3397 C   0  0  0  0  0  0
  -22.7758  -13.5190   21.1916 C   0  0  0  0  0  0
  -22.1663   -4.2162   21.0976 F   0  0  0  0  0  0
  -21.5626   -3.4553   25.7749 F   0  0  0  0  0  0
  -29.8665  -14.0292   20.3558 N   0  0  0  0  0  0
  -26.2838  -12.9553   20.3280 N   0  0  0  0  0  0
  -25.9355  -11.6645   20.5735 N   0  0  0  0  0  0
  -22.0411  -12.8146   22.0449 N   0  0  0  0  0  0
  -25.4070  -15.1987   20.4256 N   0  0  0  0  0  0
  -31.5954  -15.3692   20.0308 O   0  0  0  0  0  0
  -21.6642   -6.8893   21.4236 O   0  0  0  0  0  0
  -22.3445  -14.5513   20.6788 O   0  0  0  0  0  0
  -24.6709  -31.8157   23.1641 C   0  0  0  0  0  0
  -25.9358  -32.4546   23.8131 C   0  0  1  0  0  0
  -27.2287  -26.8534   20.2001 C   0  0  0  0  0  0
  -25.6018  -33.8364   24.2055 N   0  0  0  0  0  0
  -23.4891  -30.4232   21.5131 C   0  0  2  0  0  0
  -24.9473  -28.7942   20.1129 C   0  0  0  0  0  0
  -22.7706  -29.4387   22.4754 C   0  0  0  0  0  0
  -18.0337  -28.1398   22.8471 C   0  0  0  0  0  0
  -24.1484  -36.7136   23.2646 C   0  0  0  0  0  0
  -26.0621  -30.5998   21.4047 C   0  0  0  0  0  0
  -26.1317  -29.1802   20.7530 C   0  0  0  0  0  0
  -27.2623  -28.2320   20.7693 C   0  0  0  0  0  0
  -26.0142  -26.6391   19.5067 C   0  0  0  0  0  0
  -24.9184  -27.5469   19.4681 C   0  0  0  0  0  0
  -23.7358  -29.7310   20.1424 C   0  0  0  0  0  0
  -25.4128  -36.2928   24.0307 C   0  0  1  0  0  0
  -20.5962  -28.3734   23.1182 C   0  0  2  0  0  0
  -20.6796  -26.9409   22.5402 C   0  0  0  0  0  0
  -19.5777  -26.6373   21.5202 C   0  0  0  0  0  0
  -18.1961  -26.7932   22.1616 C   0  0  0  0  0  0
  -19.1599  -28.8892   23.2812 C   0  0  0  0  0  0
  -18.9504  -30.1476   23.8853 C   0  0  0  0  0  0
  -17.6493  -30.6587   24.0547 C   0  0  0  0  0  0
  -25.9111  -34.9316   23.5003 C   0  0  0  0  0  0
  -16.5384  -29.9069   23.6343 C   0  0  0  0  0  0
  -16.7312  -28.6486   23.0376 C   0  0  0  0  0  0
  -26.4603  -31.6513   25.0674 C   0  0  0  0  0  0
  -25.3739  -31.3746   26.1336 C   0  0  0  0  0  0
  -27.0519  -30.2893   24.6418 C   0  0  0  0  0  0
  -27.6115  -32.4306   25.7469 C   0  0  0  0  0  0
  -27.5555  -37.1715   24.8467 C   0  0  0  0  0  0
  -21.4368  -29.3010   22.3506 N   0  0  0  0  0  0
  -26.4248  -37.3693   23.9441 N   0  0  0  0  0  0
  -24.7621  -30.9755   22.0806 N   0  0  0  0  0  0
  -23.4215  -28.7989   23.3036 O   0  0  0  0  0  0
  -28.2152  -25.7087   20.2995 O   0  0  0  0  0  0
  -26.5719  -34.8868   22.4591 O   0  0  0  0  0  0
  -23.5759  -32.1149   23.6696 O   0  0  0  0  0  0
  -30.0113  -22.7351   21.3065 C   0  0  0  0  0  0
  -30.7933  -21.6207   21.7148 C   0  0  0  0  0  0
  -30.5203  -20.2882   21.3561 C   0  0  0  0  0  0
  -28.8924  -22.5749   20.4622 C   0  0  0  0  0  0
  -29.4706  -19.9132   20.4992 C   0  0  0  0  0  0
  -31.5462  -19.3423   21.9254 C   0  0  0  0  0  0
  -32.6230  -20.2605   22.5315 C   0  0  0  0  0  0
  -32.0657  -21.7125   22.5420 C   0  0  0  0  0  0
  -31.7506  -22.1601   23.9774 C   0  0  0  0  0  0
  -33.0777  -22.6797   21.8976 C   0  0  0  0  0  0
  -29.4964  -18.2306   19.9199 C   0  0  0  0  0  0
  -27.9661  -24.0543   20.0783 C   0  0  0  0  0  0
  -28.6941  -21.1293   20.0810 N   0  0  0  0  0  0
  -29.6229  -16.6410   20.5211 N   0  0  0  0  0  0
  -31.4562  -13.0794   19.2222 H   0  0  0  0  0  0
  -30.5150  -11.9745   20.1725 H   0  0  0  0  0  0
  -29.9453  -11.7686   17.7332 H   0  0  0  0  0  0
  -29.5697  -13.4712   17.6511 H   0  0  0  0  0  0
  -28.0631  -11.2902   19.1078 H   0  0  0  0  0  0
  -27.4336  -12.3531   17.8690 H   0  0  0  0  0  0
  -27.5206  -14.2496   19.3284 H   0  0  0  0  0  0
  -28.8224  -12.5668   21.5181 H   0  0  0  0  0  0
  -28.2544  -14.2099   21.7007 H   0  0  0  0  0  0
  -25.2788   -9.5672   22.4791 H   0  0  0  0  0  0
  -24.0018   -7.4630   22.7477 H   0  0  0  0  0  0
  -21.0870   -8.8796   19.8949 H   0  0  0  0  0  0
  -22.3741  -10.9691   19.6170 H   0  0  0  0  0  0
  -21.1997   -7.6154   23.9721 H   0  0  0  0  0  0
  -21.1471   -6.0521   25.9081 H   0  0  0  0  0  0
  -22.0601   -2.7625   23.2838 H   0  0  0  0  0  0
  -22.4018  -11.9787   22.4814 H   0  0  0  0  0  0
  -21.1044  -13.1168   22.2692 H   0  0  0  0  0  0
  -24.6430  -15.8541   20.5438 H   0  0  0  0  0  0
  -26.2587  -15.6415   20.1068 H   0  0  0  0  0  0
  -26.7432  -32.5087   23.0845 H   0  0  0  0  0  0
  -25.0150  -33.9424   25.0201 H   0  0  0  0  0  0
  -22.8044  -31.2555   21.3340 H   0  0  0  0  0  0
  -23.3796  -35.9414   23.3254 H   0  0  0  0  0  0
  -24.3557  -36.8826   22.2067 H   0  0  0  0  0  0
  -23.7171  -37.6280   23.6730 H   0  0  0  0  0  0
  -26.2478  -31.3348   20.6203 H   0  0  0  0  0  0
  -26.9197  -30.6644   22.0622 H   0  0  0  0  0  0
  -28.1541  -28.5233   21.3072 H   0  0  0  0  0  0
  -25.8719  -25.6884   19.0143 H   0  0  0  0  0  0
  -24.0201  -27.2460   18.9470 H   0  0  0  0  0  0
  -23.8995  -30.4937   19.3801 H   0  0  0  0  0  0
  -22.8447  -29.1878   19.8250 H   0  0  0  0  0  0
  -25.1322  -36.1697   25.0796 H   0  0  0  0  0  0
  -21.0061  -28.3337   24.1303 H   0  0  0  0  0  0
  -20.5634  -26.2352   23.3641 H   0  0  0  0  0  0
  -21.6660  -26.7351   22.1227 H   0  0  0  0  0  0
  -19.6916  -25.6278   21.1244 H   0  0  0  0  0  0
  -19.6712  -27.3171   20.6723 H   0  0  0  0  0  0
  -17.4224  -26.6687   21.4026 H   0  0  0  0  0  0
  -18.0345  -26.0077   22.9019 H   0  0  0  0  0  0
  -19.7977  -30.7301   24.2209 H   0  0  0  0  0  0
  -17.5047  -31.6267   24.5142 H   0  0  0  0  0  0
  -15.5380  -30.2956   23.7687 H   0  0  0  0  0  0
  -15.8717  -28.0771   22.7147 H   0  0  0  0  0  0
  -24.5985  -30.7018   25.7656 H   0  0  0  0  0  0
  -24.8857  -32.2925   26.4619 H   0  0  0  0  0  0
  -25.8008  -30.9034   27.0203 H   0  0  0  0  0  0
  -26.3214  -29.6563   24.1377 H   0  0  0  0  0  0
  -27.4020  -29.7254   25.5074 H   0  0  0  0  0  0
  -27.9159  -30.4096   23.9881 H   0  0  0  0  0  0
  -27.2752  -33.3697   26.1872 H   0  0  0  0  0  0
  -28.4031  -32.6699   25.0356 H   0  0  0  0  0  0
  -28.0673  -31.8522   26.5516 H   0  0  0  0  0  0
  -28.2538  -38.0047   24.7582 H   0  0  0  0  0  0
  -28.1091  -36.2581   24.6227 H   0  0  0  0  0  0
  -27.2281  -37.1273   25.8870 H   0  0  0  0  0  0
  -20.9644  -29.8673   21.6609 H   0  0  0  0  0  0
  -26.0076  -38.2727   24.1537 H   0  0  0  0  0  0
  -30.2771  -23.7293   21.6393 H   0  0  0  0  0  0
  -31.9669  -18.6912   21.1573 H   0  0  0  0  0  0
  -31.0810  -18.7189   22.6896 H   0  0  0  0  0  0
  -33.5020  -20.2038   21.8873 H   0  0  0  0  0  0
  -32.9549  -19.9179   23.5123 H   0  0  0  0  0  0
  -31.0282  -21.4925   24.4481 H   0  0  0  0  0  0
  -31.3367  -23.1681   23.9981 H   0  0  0  0  0  0
  -32.6493  -22.1617   24.5949 H   0  0  0  0  0  0
  -33.2952  -22.3982   20.8659 H   0  0  0  0  0  0
  -34.0227  -22.6821   22.4405 H   0  0  0  0  0  0
  -32.7047  -23.7036   21.8851 H   0  0  0  0  0  0
  -30.2835  -18.2551   19.1665 H   0  0  0  0  0  0
  -28.5852  -18.1813   19.3251 H   0  0  0  0  0  0
  -27.0059  -23.8713   20.5618 H   0  0  0  0  0  0
  -27.7548  -23.9563   19.0135 H   0  0  0  0  0  0
  -28.7416  -16.4071   20.9540 H   0  0  0  0  0  0
  1 25  1  0  0  0
  1 30  2  0  0  0
  1 84  1  0  0  0
  2  3  1  0  0  0
  2 25  1  0  0  0
  2 85  1  0  0  0
  2 86  1  0  0  0
  3  4  1  0  0  0
  3 87  1  0  0  0
  3 88  1  0  0  0
  4  5  1  0  0  0
  4 89  1  0  0  0
  4 90  1  0  0  0
  5  6  1  0  0  0
  5 26  1  0  0  0
  5 91  1  0  0  0
  6 25  1  0  0  0
  6 92  1  0  0  0
  6 93  1  0  0  0
  7  8  2  0  0  0
  7 26  1  0  0  0
  7 29  1  0  0  0
  8  9  1  0  0  0
  8 22  1  0  0  0
  9 10  1  0  0  0
  9 27  2  0  0  0
 10 11  2  0  0  0
 10 15  1  0  0  0
 11 12  1  0  0  0
 11 94  1  0  0  0
 12 13  2  0  0  0
 12 95  1  0  0  0
 13 14  1  0  0  0
 13 31  1  0  0  0
 14 15  2  0  0  0
 14 96  1  0  0  0
 15 97  1  0  0  0
 16 17  2  0  0  0
 16 21  1  0  0  0
 16 31  1  0  0  0
 17 18  1  0  0  0
 17 98  1  0  0  0
 18 19  2  0  0  0
 18 99  1  0  0  0
 19 20  1  0  0  0
 19 24  1  0  0  0
 20 21  2  0  0  0
 20100  1  0  0  0
 21 23  1  0  0  0
 22 28  1  0  0  0
 22 32  2  0  0  0
 26 27  1  0  0  0
 28101  1  0  0  0
 28102  1  0  0  0
 29103  1  0  0  0
 29104  1  0  0  0
 33 34  1  0  0  0
 33 66  1  0  0  0
 33 70  2  0  0  0
 34 36  1  0  0  0
 34 59  1  0  0  0
 34105  1  0  0  0
 35 44  2  0  0  0
 35 45  1  0  0  0
 35 68  1  0  0  0
 36 56  1  0  0  0
 36106  1  0  0  0
 37 39  1  0  0  0
 37 47  1  0  0  0
 37 66  1  0  0  0
 37107  1  0  0  0
 38 43  2  0  0  0
 38 46  1  0  0  0
 38 47  1  0  0  0
 39 64  1  0  0  0
 39 67  2  0  0  0
 40 52  1  0  0  0
 40 53  2  0  0  0
 40 58  1  0  0  0
 41108  1  0  0  0
 41109  1  0  0  0
 41110  1  0  0  0
 41 48  1  0  0  0
 42 43  1  0  0  0
 42 66  1  0  0  0
 42111  1  0  0  0
 42112  1  0  0  0
 43 44  1  0  0  0
 44113  1  0  0  0
 45 46  2  0  0  0
 45114  1  0  0  0
 46115  1  0  0  0
 47116  1  0  0  0
 47117  1  0  0  0
 48 56  1  0  0  0
 48 65  1  0  0  0
 48118  1  0  0  0
 49 50  1  0  0  0
 49 53  1  0  0  0
 49 64  1  0  0  0
 49119  1  0  0  0
 50 51  1  0  0  0
 50120  1  0  0  0
 50121  1  0  0  0
 51 52  1  0  0  0
 51122  1  0  0  0
 51123  1  0  0  0
 52124  1  0  0  0
 52125  1  0  0  0
 53 54  1  0  0  0
 54 55  2  0  0  0
 54126  1  0  0  0
 55 57  1  0  0  0
 55127  1  0  0  0
 56 69  2  0  0  0
 57 58  2  0  0  0
 57128  1  0  0  0
 58129  1  0  0  0
 59 60  1  0  0  0
 59 61  1  0  0  0
 59 62  1  0  0  0
 60130  1  0  0  0
 60131  1  0  0  0
 60132  1  0  0  0
 61133  1  0  0  0
 61134  1  0  0  0
 61135  1  0  0  0
 62136  1  0  0  0
 62137  1  0  0  0
 62138  1  0  0  0
 63 65  1  0  0  0
 63139  1  0  0  0
 63140  1  0  0  0
 63141  1  0  0  0
 64142  1  0  0  0
 65143  1  0  0  0
 68 82  1  0  0  0
 71 72  2  0  0  0
 71 74  1  0  0  0
 71144  1  0  0  0
 72 73  1  0  0  0
 72 78  1  0  0  0
 73 75  2  0  0  0
 73 76  1  0  0  0
 74 82  1  0  0  0
 74 83  2  0  0  0
 75 81  1  0  0  0
 75 83  1  0  0  0
 76 77  1  0  0  0
 76145  1  0  0  0
 76146  1  0  0  0
 77 78  1  0  0  0
 77147  1  0  0  0
 77148  1  0  0  0
 78 79  1  0  0  0
 78 80  1  0  0  0
 79149  1  0  0  0
 79150  1  0  0  0
 79151  1  0  0  0
 80152  1  0  0  0
 80153  1  0  0  0
 80154  1  0  0  0
 81 84  1  0  0  0
 81155  1  0  0  0
 81156  1  0  0  0
 82157  1  0  0  0
 82158  1  0  0  0
 84159  1  0  0  0
M  ISO  4   1 100  68 101  82 101  84 100
M  END
> <chiral flag>
0

> <version>
0

> <s_m_source_file>
/data/baiqing/PycharmProjects/Reinvent-master-3.2/result/LINK_invent/BTK/process_docking_weight1_custom_sum_contain_oxygen_bond_distance_aromatic_linkinvent_7_9_3/rearranged_h_0180.sdf

> <i_m_source_file_index>
65

> <r_mmod_Potential_Energy-OPLS-2005>
1319.45373535156

> <r_mmod_Stretch_Energy-OPLS-2005>
703.455505371094

> <r_mmod_Bend_Energy-OPLS-2005>
523.810180664062

> <r_mmod_Torsional_Energy-OPLS-2005>
245.765823364258

> <r_mmod_Improper_Torsional_Energy-OPLS-2005>
6.25296831130981

> <r_mmod_Van_der_Waal_Energy-OPLS-2005>
119.350761413574

> <r_mmod_Electrostatic_Energy-OPLS-2005>
-615.413269042969

> <r_mmod_Solvation_Energy-OPLS-2005>
-236.993118286133

> <b_mmod_Minimization_Converged-OPLS-2005>
0

> <r_mmod_RMS_Derivative-OPLS-2005>
2.42304563522339

$$$$
65
                    3D
 Structure written by MMmdl.
149157  0  0  1  0            999 V2000
  -30.4739  -15.2030   20.3816 C   0  0  0  0  0  0
  -30.4364  -12.7678   19.5181 C   0  0  0  0  0  0
  -29.5285  -12.5653   18.2795 C   0  0  0  0  0  0
  -28.0753  -12.2999   18.7091 C   0  0  0  0  0  0
  -27.6127  -13.2714   19.8237 C   0  0  2  0  0  0
  -28.6499  -13.4240   20.9575 C   0  0  0  0  0  0
  -25.2388  -13.8248   20.5750 C   0  0  0  0  0  0
  -24.1740  -13.0437   20.9260 C   0  0  0  0  0  0
  -24.6396  -11.6935   20.8770 C   0  0  0  0  0  0
  -23.9093  -10.4289   21.0412 C   0  0  0  0  0  0
  -24.3637   -9.4204   21.9192 C   0  0  0  0  0  0
  -23.6305   -8.2243   22.0762 C   0  0  0  0  0  0
  -22.4286   -8.0284   21.3549 C   0  0  0  0  0  0
  -21.9926   -9.0259   20.4651 C   0  0  0  0  0  0
  -22.7265  -10.2135   20.3060 C   0  0  0  0  0  0
  -21.6850   -6.0742   22.5282 C   0  0  0  0  0  0
  -21.4013   -6.5643   23.8216 C   0  0  0  0  0  0
  -21.3659   -5.6793   24.9174 C   0  0  0  0  0  0
  -21.6043   -4.3055   24.7220 C   0  0  0  0  0  0
  -21.8819   -3.8151   23.4338 C   0  0  0  0  0  0
  -21.9191   -4.6972   22.3398 C   0  0  0  0  0  0
  -22.7756  -13.5188   21.1906 C   0  0  0  0  0  0
  -22.1659   -4.2160   21.0975 F   0  0  0  0  0  0
  -21.5628   -3.4539   25.7729 F   0  0  0  0  0  0
  -29.8902  -13.9107   20.3334 N   0  0  0  0  0  0
  -26.2816  -12.9518   20.3225 N   0  0  0  0  0  0
  -25.9330  -11.6626   20.5731 N   0  0  0  0  0  0
  -22.0411  -12.8169   22.0459 N   0  0  0  0  0  0
  -25.4024  -15.1981   20.4183 N   0  0  0  0  0  0
  -31.6927  -15.1993   20.1633 O   0  0  0  0  0  0
  -21.6642   -6.8890   21.4244 O   0  0  0  0  0  0
  -22.3432  -14.5488   20.6744 O   0  0  0  0  0  0
  -24.6605  -31.8274   23.1745 C   0  0  0  0  0  0
  -25.9296  -32.4609   23.8197 C   0  0  1  0  0  0
  -27.2171  -26.9608   20.1759 C   0  0  0  0  0  0
  -25.5979  -33.8422   24.2105 N   0  0  0  0  0  0
  -23.4740  -30.4423   21.5229 C   0  0  2  0  0  0
  -24.9266  -28.8398   20.1114 C   0  0  0  0  0  0
  -22.7662  -29.4467   22.4796 C   0  0  0  0  0  0
  -18.0325  -28.1414   22.8472 C   0  0  0  0  0  0
  -24.1489  -36.7214   23.2651 C   0  0  0  0  0  0
  -26.0431  -30.6450   21.4002 C   0  0  0  0  0  0
  -26.1115  -29.2396   20.7428 C   0  0  0  0  0  0
  -27.2529  -28.3211   20.7520 C   0  0  0  0  0  0
  -26.0028  -26.7127   19.4935 C   0  0  0  0  0  0
  -24.8967  -27.5958   19.4665 C   0  0  0  0  0  0
  -23.7119  -29.7630   20.1475 C   0  0  0  0  0  0
  -25.4129  -36.2981   24.0305 C   0  0  1  0  0  0
  -20.5947  -28.3754   23.1196 C   0  0  2  0  0  0
  -20.6802  -26.9439   22.5403 C   0  0  0  0  0  0
  -19.5771  -26.6384   21.5218 C   0  0  0  0  0  0
  -18.1954  -26.7949   22.1622 C   0  0  0  0  0  0
  -19.1587  -28.8904   23.2822 C   0  0  0  0  0  0
  -18.9498  -30.1494   23.8855 C   0  0  0  0  0  0
  -17.6492  -30.6603   24.0559 C   0  0  0  0  0  0
  -25.9090  -34.9360   23.5023 C   0  0  0  0  0  0
  -16.5383  -29.9091   23.6345 C   0  0  0  0  0  0
  -16.7303  -28.6511   23.0360 C   0  0  0  0  0  0
  -26.4558  -31.6538   25.0707 C   0  0  0  0  0  0
  -25.3690  -31.3775   26.1366 C   0  0  0  0  0  0
  -27.0460  -30.2916   24.6411 C   0  0  0  0  0  0
  -27.6055  -32.4346   25.7505 C   0  0  0  0  0  0
  -27.5570  -37.1769   24.8469 C   0  0  0  0  0  0
  -21.4336  -29.3052   22.3549 N   0  0  0  0  0  0
  -26.4277  -37.3718   23.9411 N   0  0  0  0  0  0
  -24.7473  -30.9971   22.0863 N   0  0  0  0  0  0
  -23.4226  -28.8028   23.3019 O   0  0  0  0  0  0
  -28.2041  -25.8493   20.2584 O   0  0  0  0  0  0
  -26.5704  -34.8892   22.4620 O   0  0  0  0  0  0
  -23.5676  -32.1221   23.6854 O   0  0  0  0  0  0
  -29.3070  -22.1046   21.2670 C   0  0  0  0  0  0
  -29.7153  -20.6812   21.3575 C   0  0  0  0  0  0
  -28.5545  -22.7077   20.1815 C   0  0  0  0  0  0
  -29.4160  -19.6268   20.4025 C   0  0  0  0  0  0
  -28.2958  -21.5790   19.2738 C   0  0  0  0  0  0
  -27.4490  -21.8321   18.0409 C   0  0  0  0  0  0
  -27.8063  -24.2827   20.0447 C   0  0  0  0  0  0
  -30.1685  -18.0590   20.3336 C   0  0  0  0  0  0
  -28.7048  -20.2140   19.3630 N   0  0  0  0  0  0
  -29.7375  -16.4745   20.4668 N   0  0  0  0  0  0
  -31.4578  -12.9598   19.1871 H   0  0  0  0  0  0
  -30.4894  -11.8554   20.1142 H   0  0  0  0  0  0
  -29.8965  -11.7405   17.6681 H   0  0  0  0  0  0
  -29.5665  -13.4557   17.6500 H   0  0  0  0  0  0
  -28.0230  -11.2737   19.0752 H   0  0  0  0  0  0
  -27.4047  -12.3517   17.8504 H   0  0  0  0  0  0
  -27.5344  -14.2434   19.3349 H   0  0  0  0  0  0
  -28.8037  -12.4817   21.4857 H   0  0  0  0  0  0
  -28.3008  -14.1449   21.6983 H   0  0  0  0  0  0
  -25.2785   -9.5672   22.4771 H   0  0  0  0  0  0
  -24.0008   -7.4628   22.7482 H   0  0  0  0  0  0
  -21.0861   -8.8782   19.8953 H   0  0  0  0  0  0
  -22.3731  -10.9674   19.6166 H   0  0  0  0  0  0
  -21.2008   -7.6151   23.9723 H   0  0  0  0  0  0
  -21.1481   -6.0521   25.9079 H   0  0  0  0  0  0
  -22.0599   -2.7615   23.2831 H   0  0  0  0  0  0
  -22.4027  -11.9820   22.4828 H   0  0  0  0  0  0
  -21.1031  -13.1188   22.2682 H   0  0  0  0  0  0
  -24.6313  -15.8478   20.5310 H   0  0  0  0  0  0
  -26.2434  -15.6405   20.0723 H   0  0  0  0  0  0
  -26.7364  -32.5154   23.0913 H   0  0  0  0  0  0
  -25.0072  -33.9507   25.0218 H   0  0  0  0  0  0
  -22.7849  -31.2730   21.3555 H   0  0  0  0  0  0
  -23.3765  -35.9532   23.3280 H   0  0  0  0  0  0
  -24.3577  -36.8884   22.2075 H   0  0  0  0  0  0
  -23.7219  -37.6388   23.6714 H   0  0  0  0  0  0
  -26.2199  -31.3877   20.6215 H   0  0  0  0  0  0
  -26.9055  -30.7013   22.0526 H   0  0  0  0  0  0
  -28.1469  -28.6250   21.2771 H   0  0  0  0  0  0
  -25.8596  -25.7665   18.9950 H   0  0  0  0  0  0
  -23.9968  -27.2839   18.9541 H   0  0  0  0  0  0
  -23.8655  -30.5334   19.3911 H   0  0  0  0  0  0
  -22.8222  -29.2172   19.8291 H   0  0  0  0  0  0
  -25.1324  -36.1794   25.0796 H   0  0  0  0  0  0
  -21.0035  -28.3349   24.1316 H   0  0  0  0  0  0
  -20.5698  -26.2371   23.3640 H   0  0  0  0  0  0
  -21.6663  -26.7428   22.1197 H   0  0  0  0  0  0
  -19.6934  -25.6286   21.1264 H   0  0  0  0  0  0
  -19.6702  -27.3179   20.6733 H   0  0  0  0  0  0
  -17.4228  -26.6698   21.4020 H   0  0  0  0  0  0
  -18.0340  -26.0106   22.9028 H   0  0  0  0  0  0
  -19.7972  -30.7322   24.2203 H   0  0  0  0  0  0
  -17.5042  -31.6275   24.5175 H   0  0  0  0  0  0
  -15.5379  -30.2980   23.7697 H   0  0  0  0  0  0
  -15.8699  -28.0814   22.7100 H   0  0  0  0  0  0
  -24.5890  -30.7105   25.7679 H   0  0  0  0  0  0
  -24.8860  -32.2971   26.4681 H   0  0  0  0  0  0
  -25.7934  -30.9019   27.0215 H   0  0  0  0  0  0
  -26.3125  -29.6596   24.1395 H   0  0  0  0  0  0
  -27.3994  -29.7275   25.5052 H   0  0  0  0  0  0
  -27.9058  -30.4128   23.9820 H   0  0  0  0  0  0
  -27.2630  -33.3700   26.1946 H   0  0  0  0  0  0
  -28.3936  -32.6821   25.0378 H   0  0  0  0  0  0
  -28.0639  -31.8555   26.5533 H   0  0  0  0  0  0
  -28.2573  -38.0081   24.7527 H   0  0  0  0  0  0
  -28.1077  -36.2609   24.6277 H   0  0  0  0  0  0
  -27.2290  -37.1390   25.8873 H   0  0  0  0  0  0
  -20.9588  -29.8749   21.6684 H   0  0  0  0  0  0
  -26.0125  -38.2777   24.1423 H   0  0  0  0  0  0
  -29.5856  -22.7505   22.0877 H   0  0  0  0  0  0
  -30.3228  -20.4046   22.2088 H   0  0  0  0  0  0
  -26.4705  -22.2226   18.3206 H   0  0  0  0  0  0
  -27.2853  -20.9189   17.4673 H   0  0  0  0  0  0
  -27.9374  -22.5518   17.3843 H   0  0  0  0  0  0
  -26.8977  -24.1668   20.6363 H   0  0  0  0  0  0
  -27.4619  -24.2866   19.0137 H   0  0  0  0  0  0
  -30.9739  -18.1456   21.0635 H   0  0  0  0  0  0
  -30.6945  -18.0877   19.3790 H   0  0  0  0  0  0
  -28.7446  -16.3511   20.5949 H   0  0  0  0  0  0
  1 25  1  0  0  0
  1 30  2  0  0  0
  1 80  1  0  0  0
  2  3  1  0  0  0
  2 25  1  0  0  0
  2 81  1  0  0  0
  2 82  1  0  0  0
  3  4  1  0  0  0
  3 83  1  0  0  0
  3 84  1  0  0  0
  4  5  1  0  0  0
  4 85  1  0  0  0
  4 86  1  0  0  0
  5  6  1  0  0  0
  5 26  1  0  0  0
  5 87  1  0  0  0
  6 25  1  0  0  0
  6 88  1  0  0  0
  6 89  1  0  0  0
  7  8  2  0  0  0
  7 26  1  0  0  0
  7 29  1  0  0  0
  8  9  1  0  0  0
  8 22  1  0  0  0
  9 10  1  0  0  0
  9 27  2  0  0  0
 10 11  2  0  0  0
 10 15  1  0  0  0
 11 12  1  0  0  0
 11 90  1  0  0  0
 12 13  2  0  0  0
 12 91  1  0  0  0
 13 14  1  0  0  0
 13 31  1  0  0  0
 14 15  2  0  0  0
 14 92  1  0  0  0
 15 93  1  0  0  0
 16 17  2  0  0  0
 16 21  1  0  0  0
 16 31  1  0  0  0
 17 18  1  0  0  0
 17 94  1  0  0  0
 18 19  2  0  0  0
 18 95  1  0  0  0
 19 20  1  0  0  0
 19 24  1  0  0  0
 20 21  2  0  0  0
 20 96  1  0  0  0
 21 23  1  0  0  0
 22 28  1  0  0  0
 22 32  2  0  0  0
 26 27  1  0  0  0
 28 97  1  0  0  0
 28 98  1  0  0  0
 29 99  1  0  0  0
 29100  1  0  0  0
 33 34  1  0  0  0
 33 66  1  0  0  0
 33 70  2  0  0  0
 34 36  1  0  0  0
 34 59  1  0  0  0
 34101  1  0  0  0
 35 44  2  0  0  0
 35 45  1  0  0  0
 35 68  1  0  0  0
 36 56  1  0  0  0
 36102  1  0  0  0
 37 39  1  0  0  0
 37 47  1  0  0  0
 37 66  1  0  0  0
 37103  1  0  0  0
 38 43  2  0  0  0
 38 46  1  0  0  0
 38 47  1  0  0  0
 39 64  1  0  0  0
 39 67  2  0  0  0
 40 52  1  0  0  0
 40 53  2  0  0  0
 40 58  1  0  0  0
 41104  1  0  0  0
 41105  1  0  0  0
 41106  1  0  0  0
 41 48  1  0  0  0
 42 43  1  0  0  0
 42 66  1  0  0  0
 42107  1  0  0  0
 42108  1  0  0  0
 43 44  1  0  0  0
 44109  1  0  0  0
 45 46  2  0  0  0
 45110  1  0  0  0
 46111  1  0  0  0
 47112  1  0  0  0
 47113  1  0  0  0
 48 56  1  0  0  0
 48 65  1  0  0  0
 48114  1  0  0  0
 49 50  1  0  0  0
 49 53  1  0  0  0
 49 64  1  0  0  0
 49115  1  0  0  0
 50 51  1  0  0  0
 50116  1  0  0  0
 50117  1  0  0  0
 51 52  1  0  0  0
 51118  1  0  0  0
 51119  1  0  0  0
 52120  1  0  0  0
 52121  1  0  0  0
 53 54  1  0  0  0
 54 55  2  0  0  0
 54122  1  0  0  0
 55 57  1  0  0  0
 55123  1  0  0  0
 56 69  2  0  0  0
 57 58  2  0  0  0
 57124  1  0  0  0
 58125  1  0  0  0
 59 60  1  0  0  0
 59 61  1  0  0  0
 59 62  1  0  0  0
 60126  1  0  0  0
 60127  1  0  0  0
 60128  1  0  0  0
 61129  1  0  0  0
 61130  1  0  0  0
 61131  1  0  0  0
 62132  1  0  0  0
 62133  1  0  0  0
 62134  1  0  0  0
 63 65  1  0  0  0
 63135  1  0  0  0
 63136  1  0  0  0
 63137  1  0  0  0
 64138  1  0  0  0
 65139  1  0  0  0
 68 77  1  0  0  0
 71 72  2  0  0  0
 71 73  1  0  0  0
 71140  1  0  0  0
 72 74  1  0  0  0
 72141  1  0  0  0
 73 75  2  0  0  0
 73 77  1  0  0  0
 74 78  1  0  0  0
 74 79  2  0  0  0
 75 76  1  0  0  0
 75 79  1  0  0  0
 76142  1  0  0  0
 76143  1  0  0  0
 76144  1  0  0  0
 77145  1  0  0  0
 77146  1  0  0  0
 78 80  1  0  0  0
 78147  1  0  0  0
 78148  1  0  0  0
 80149  1  0  0  0
M  ISO  4   1 100  68 101  77 101  80 100
M  END
> <chiral flag>
0

> <version>
0

> <s_m_source_file>
/data/baiqing/PycharmProjects/Reinvent-master-3.2/result/LINK_invent/BTK/process_docking_weight1_custom_sum_contain_oxygen_bond_distance_aromatic_linkinvent_7_9_3/rearranged_h_0180.sdf

> <i_m_source_file_index>
66

> <r_mmod_Potential_Energy-OPLS-2005>
842.110778808594

> <r_mmod_Stretch_Energy-OPLS-2005>
464.574462890625

> <r_mmod_Bend_Energy-OPLS-2005>
427.154541015625

> <r_mmod_Torsional_Energy-OPLS-2005>
220.413452148438

> <r_mmod_Improper_Torsional_Energy-OPLS-2005>
8.39016819000244

> <r_mmod_Van_der_Waal_Energy-OPLS-2005>
136.458740234375

> <r_mmod_Electrostatic_Energy-OPLS-2005>
-589.089965820312

> <r_mmod_Solvation_Energy-OPLS-2005>
-230.841384887695

> <b_mmod_Minimization_Converged-OPLS-2005>
0

> <r_mmod_RMS_Derivative-OPLS-2005>
1.11412215232849

$$$$
66
                    3D
 Structure written by MMmdl.
176185  0  0  1  0            999 V2000
  -30.6229  -14.5811   20.5078 C   0  0  0  0  0  0
  -30.4327  -12.3481   19.4501 C   0  0  0  0  0  0
  -29.5068  -12.4804   18.2205 C   0  0  0  0  0  0
  -28.0292  -12.3168   18.6350 C   0  0  0  0  0  0
  -27.6507  -13.1983   19.8564 C   0  0  2  0  0  0
  -28.6899  -13.0351   20.9884 C   0  0  0  0  0  0
  -25.2541  -13.8123   20.5611 C   0  0  0  0  0  0
  -24.1794  -13.0409   20.9176 C   0  0  0  0  0  0
  -24.6341  -11.6880   20.8732 C   0  0  0  0  0  0
  -23.9002  -10.4271   21.0397 C   0  0  0  0  0  0
  -24.3556   -9.4200   21.9190 C   0  0  0  0  0  0
  -23.6245   -8.2228   22.0770 C   0  0  0  0  0  0
  -22.4235   -8.0247   21.3542 C   0  0  0  0  0  0
  -21.9857   -9.0207   20.4642 C   0  0  0  0  0  0
  -22.7167  -10.2098   20.3043 C   0  0  0  0  0  0
  -21.6840   -6.0698   22.5269 C   0  0  0  0  0  0
  -21.4003   -6.5609   23.8202 C   0  0  0  0  0  0
  -21.3665   -5.6773   24.9172 C   0  0  0  0  0  0
  -21.6048   -4.3040   24.7240 C   0  0  0  0  0  0
  -21.8815   -3.8116   23.4361 C   0  0  0  0  0  0
  -21.9187   -4.6928   22.3411 C   0  0  0  0  0  0
  -22.7832  -13.5238   21.1850 C   0  0  0  0  0  0
  -22.1651   -4.2110   21.0988 F   0  0  0  0  0  0
  -21.5645   -3.4529   25.7757 F   0  0  0  0  0  0
  -30.0088  -13.3649   20.4283 N   0  0  0  0  0  0
  -26.2945  -12.9267   20.3250 N   0  0  0  0  0  0
  -25.9263  -11.6441   20.5716 N   0  0  0  0  0  0
  -22.0442  -12.8229   22.0392 N   0  0  0  0  0  0
  -25.4250  -15.1830   20.3967 N   0  0  0  0  0  0
  -31.7881  -14.7546   20.1384 O   0  0  0  0  0  0
  -21.6621   -6.8832   21.4233 O   0  0  0  0  0  0
  -22.3542  -14.5573   20.6734 O   0  0  0  0  0  0
  -24.6169  -31.8641   23.2046 C   0  0  0  0  0  0
  -25.9035  -32.4798   23.8351 C   0  0  1  0  0  0
  -27.2208  -27.3707   20.1265 C   0  0  0  0  0  0
  -25.5856  -33.8595   24.2279 N   0  0  0  0  0  0
  -23.4038  -30.4853   21.5469 C   0  0  2  0  0  0
  -24.8492  -28.9462   20.1055 C   0  0  0  0  0  0
  -22.7403  -29.4619   22.4982 C   0  0  0  0  0  0
  -18.0238  -28.1353   22.8446 C   0  0  0  0  0  0
  -24.1469  -36.7287   23.2645 C   0  0  0  0  0  0
  -25.9360  -30.8128   21.3646 C   0  0  0  0  0  0
  -26.0093  -29.4407   20.7164 C   0  0  0  0  0  0
  -27.1887  -28.6563   20.7289 C   0  0  0  0  0  0
  -26.0389  -26.9019   19.5066 C   0  0  0  0  0  0
  -24.8639  -27.6792   19.4971 C   0  0  0  0  0  0
  -23.6119  -29.8190   20.1590 C   0  0  0  0  0  0
  -25.4097  -36.3092   24.0340 C   0  0  1  0  0  0
  -20.5826  -28.3633   23.1312 C   0  0  2  0  0  0
  -20.6735  -26.9375   22.5403 C   0  0  0  0  0  0
  -19.5731  -26.6387   21.5176 C   0  0  0  0  0  0
  -18.1895  -26.7905   22.1579 C   0  0  0  0  0  0
  -19.1489  -28.8817   23.2867 C   0  0  0  0  0  0
  -18.9455  -30.1418   23.8888 C   0  0  0  0  0  0
  -17.6456  -30.6576   24.0564 C   0  0  0  0  0  0
  -25.9034  -34.9459   23.5121 C   0  0  0  0  0  0
  -16.5342  -29.9084   23.6336 C   0  0  0  0  0  0
  -16.7231  -28.6501   23.0339 C   0  0  0  0  0  0
  -26.4424  -31.6579   25.0702 C   0  0  0  0  0  0
  -25.3647  -31.3688   26.1422 C   0  0  0  0  0  0
  -27.0261  -30.3027   24.6077 C   0  0  0  0  0  0
  -27.5997  -32.4311   25.7453 C   0  0  0  0  0  0
  -27.5559  -37.1794   24.8463 C   0  0  0  0  0  0
  -21.4125  -29.3010   22.3741 N   0  0  0  0  0  0
  -26.4256  -37.3793   23.9409 N   0  0  0  0  0  0
  -24.6704  -31.0696   22.0964 N   0  0  0  0  0  0
  -23.4162  -28.8157   23.3031 O   0  0  0  0  0  0
  -28.3797  -26.6092   20.2221 O   0  0  0  0  0  0
  -26.5639  -34.8937   22.4708 O   0  0  0  0  0  0
  -23.5355  -32.1416   23.7407 O   0  0  0  0  0  0
  -27.8628  -22.4209   21.4128 C   0  0  0  0  0  0
  -28.1784  -21.8505   20.1483 C   0  0  0  0  0  0
  -28.4725  -22.9194   19.3451 C   0  0  0  0  0  0
  -27.9858  -23.7902   21.3387 C   0  0  0  0  0  0
  -28.8403  -22.7858   17.9123 C   0  0  0  0  0  0
  -28.0465  -21.6182   17.3079 C   0  0  0  0  0  0
  -28.1255  -20.3755   19.6859 C   0  0  1  0  0  0
  -28.1154  -20.2732   18.1095 C   0  0  1  0  0  0
  -27.7921  -24.7838   22.4356 C   0  0  0  0  0  0
  -25.5823  -19.7248   17.7067 C   0  0  0  0  0  0
  -27.3450  -18.7921   16.1646 C   0  0  0  0  0  0
  -30.3726  -17.4925   22.3450 C   0  0  0  0  0  0
  -28.9964  -17.9989   20.2204 C   0  0  0  0  0  0
  -28.5769  -25.4698   19.3956 C   0  0  0  0  0  0
  -27.0486  -19.2552   17.5989 C   0  0  0  0  0  0
  -30.1166  -17.0940   20.8802 C   0  0  2  0  0  0
  -28.3378  -24.1357   20.0305 N   0  0  0  0  0  0
  -29.8111  -15.6276   20.8313 N   0  0  0  0  0  0
  -29.1857  -19.4986   20.3010 N   0  3  0  0  0  0
  -31.4805  -12.4553   19.1632 H   0  0  0  0  0  0
  -30.3455  -11.3520   19.8855 H   0  0  0  0  0  0
  -29.7684  -11.7287   17.4740 H   0  0  0  0  0  0
  -29.6550  -13.4511   17.7440 H   0  0  0  0  0  0
  -27.8798  -11.2656   18.8866 H   0  0  0  0  0  0
  -27.3693  -12.5204   17.7907 H   0  0  0  0  0  0
  -27.6743  -14.2316   19.5108 H   0  0  0  0  0  0
  -28.6899  -12.0074   21.3547 H   0  0  0  0  0  0
  -28.4414  -13.6558   21.8509 H   0  0  0  0  0  0
  -25.2690   -9.5699   22.4777 H   0  0  0  0  0  0
  -23.9949   -7.4632   22.7511 H   0  0  0  0  0  0
  -21.0783   -8.8693   19.8955 H   0  0  0  0  0  0
  -22.3597  -10.9621   19.6148 H   0  0  0  0  0  0
  -21.1976   -7.6113   23.9695 H   0  0  0  0  0  0
  -21.1503   -6.0509   25.9076 H   0  0  0  0  0  0
  -22.0594   -2.7574   23.2880 H   0  0  0  0  0  0
  -22.3985  -11.9851   22.4746 H   0  0  0  0  0  0
  -21.1081  -13.1320   22.2616 H   0  0  0  0  0  0
  -24.6376  -15.8186   20.4560 H   0  0  0  0  0  0
  -26.2395  -15.6047   19.9719 H   0  0  0  0  0  0
  -26.7093  -32.5502   23.1102 H   0  0  0  0  0  0
  -24.9943  -33.9747   25.0372 H   0  0  0  0  0  0
  -22.6935  -31.3034   21.4096 H   0  0  0  0  0  0
  -23.3746  -35.9602   23.3296 H   0  0  0  0  0  0
  -24.3581  -36.8924   22.2062 H   0  0  0  0  0  0
  -23.7201  -37.6476   23.6676 H   0  0  0  0  0  0
  -26.0508  -31.5742   20.5910 H   0  0  0  0  0  0
  -26.8241  -30.8703   21.9825 H   0  0  0  0  0  0
  -28.0744  -29.0199   21.2310 H   0  0  0  0  0  0
  -25.9886  -25.9159   19.0670 H   0  0  0  0  0  0
  -23.9692  -27.2857   19.0320 H   0  0  0  0  0  0
  -23.7155  -30.5976   19.4035 H   0  0  0  0  0  0
  -22.7329  -29.2436   19.8609 H   0  0  0  0  0  0
  -25.1265  -36.1955   25.0835 H   0  0  0  0  0  0
  -20.9878  -28.3195   24.1448 H   0  0  0  0  0  0
  -20.5614  -26.2236   23.3570 H   0  0  0  0  0  0
  -21.6624  -26.7414   22.1218 H   0  0  0  0  0  0
  -19.6915  -25.6315   21.1179 H   0  0  0  0  0  0
  -19.6696  -27.3233   20.6728 H   0  0  0  0  0  0
  -17.4161  -26.6625   21.3980 H   0  0  0  0  0  0
  -18.0312  -26.0034   22.8969 H   0  0  0  0  0  0
  -19.7940  -30.7207   24.2258 H   0  0  0  0  0  0
  -17.5041  -31.6266   24.5162 H   0  0  0  0  0  0
  -15.5354  -30.3007   23.7687 H   0  0  0  0  0  0
  -15.8606  -28.0861   22.7047 H   0  0  0  0  0  0
  -24.5894  -30.6944   25.7756 H   0  0  0  0  0  0
  -24.8733  -32.2831   26.4771 H   0  0  0  0  0  0
  -25.7978  -30.8948   27.0244 H   0  0  0  0  0  0
  -26.2821  -29.6820   24.1078 H   0  0  0  0  0  0
  -27.3977  -29.7232   25.4537 H   0  0  0  0  0  0
  -27.8656  -30.4356   23.9253 H   0  0  0  0  0  0
  -27.2619  -33.3650   26.1968 H   0  0  0  0  0  0
  -28.3808  -32.6815   25.0256 H   0  0  0  0  0  0
  -28.0629  -31.8464   26.5415 H   0  0  0  0  0  0
  -28.2557  -38.0102   24.7548 H   0  0  0  0  0  0
  -28.1071  -36.2649   24.6232 H   0  0  0  0  0  0
  -27.2307  -37.1385   25.8873 H   0  0  0  0  0  0
  -20.9285  -29.8742   21.6970 H   0  0  0  0  0  0
  -26.0145  -38.2858   24.1477 H   0  0  0  0  0  0
  -27.5553  -21.8745   22.2968 H   0  0  0  0  0  0
  -29.9150  -22.6161   17.8294 H   0  0  0  0  0  0
  -28.6264  -23.6920   17.3502 H   0  0  0  0  0  0
  -28.3722  -21.4622   16.2788 H   0  0  0  0  0  0
  -27.0163  -21.9606   17.2375 H   0  0  0  0  0  0
  -27.1670  -20.0202   20.0669 H   0  0  0  0  0  0
  -29.0939  -19.8760   17.8371 H   0  0  0  0  0  0
  -27.7484  -24.2754   23.3992 H   0  0  0  0  0  0
  -26.8614  -25.3370   22.3094 H   0  0  0  0  0  0
  -28.6199  -25.4907   22.4796 H   0  0  0  0  0  0
  -25.3198  -20.0465   18.7145 H   0  0  0  0  0  0
  -24.9015  -18.9128   17.4465 H   0  0  0  0  0  0
  -25.3591  -20.5453   17.0254 H   0  0  0  0  0  0
  -28.3757  -18.4499   16.0576 H   0  0  0  0  0  0
  -27.1801  -19.5985   15.4493 H   0  0  0  0  0  0
  -26.6944  -17.9630   15.8801 H   0  0  0  0  0  0
  -30.7942  -18.4960   22.4197 H   0  0  0  0  0  0
  -31.0867  -16.8202   22.8238 H   0  0  0  0  0  0
  -29.4519  -17.4706   22.9297 H   0  0  0  0  0  0
  -28.0236  -17.7551   20.6499 H   0  0  0  0  0  0
  -28.9502  -17.7187   19.1696 H   0  0  0  0  0  0
  -28.0196  -25.5400   18.4639 H   0  0  0  0  0  0
  -29.6333  -25.4876   19.1258 H   0  0  0  0  0  0
  -27.1121  -18.3675   18.2246 H   0  0  0  0  0  0
  -31.0443  -17.2580   20.3275 H   0  0  0  0  0  0
  -28.8669  -15.3611   21.0671 H   0  0  0  0  0  0
  -29.2268  -19.7568   21.2727 H   0  0  0  0  0  0
  -30.0681  -19.7495   19.8874 H   0  0  0  0  0  0
  1 25  1  0  0  0
  1 30  2  0  0  0
  1 88  1  0  0  0
  2  3  1  0  0  0
  2 25  1  0  0  0
  2 90  1  0  0  0
  2 91  1  0  0  0
  3  4  1  0  0  0
  3 92  1  0  0  0
  3 93  1  0  0  0
  4  5  1  0  0  0
  4 94  1  0  0  0
  4 95  1  0  0  0
  5  6  1  0  0  0
  5 26  1  0  0  0
  5 96  1  0  0  0
  6 25  1  0  0  0
  6 97  1  0  0  0
  6 98  1  0  0  0
  7  8  2  0  0  0
  7 26  1  0  0  0
  7 29  1  0  0  0
  8  9  1  0  0  0
  8 22  1  0  0  0
  9 10  1  0  0  0
  9 27  2  0  0  0
 10 11  2  0  0  0
 10 15  1  0  0  0
 11 12  1  0  0  0
 11 99  1  0  0  0
 12 13  2  0  0  0
 12100  1  0  0  0
 13 14  1  0  0  0
 13 31  1  0  0  0
 14 15  2  0  0  0
 14101  1  0  0  0
 15102  1  0  0  0
 16 17  2  0  0  0
 16 21  1  0  0  0
 16 31  1  0  0  0
 17 18  1  0  0  0
 17103  1  0  0  0
 18 19  2  0  0  0
 18104  1  0  0  0
 19 20  1  0  0  0
 19 24  1  0  0  0
 20 21  2  0  0  0
 20105  1  0  0  0
 21 23  1  0  0  0
 22 28  1  0  0  0
 22 32  2  0  0  0
 26 27  1  0  0  0
 28106  1  0  0  0
 28107  1  0  0  0
 29108  1  0  0  0
 29109  1  0  0  0
 33 34  1  0  0  0
 33 66  1  0  0  0
 33 70  2  0  0  0
 34 36  1  0  0  0
 34 59  1  0  0  0
 34110  1  0  0  0
 35 44  2  0  0  0
 35 45  1  0  0  0
 35 68  1  0  0  0
 36 56  1  0  0  0
 36111  1  0  0  0
 37 39  1  0  0  0
 37 47  1  0  0  0
 37 66  1  0  0  0
 37112  1  0  0  0
 38 43  2  0  0  0
 38 46  1  0  0  0
 38 47  1  0  0  0
 39 64  1  0  0  0
 39 67  2  0  0  0
 40 52  1  0  0  0
 40 53  2  0  0  0
 40 58  1  0  0  0
 41113  1  0  0  0
 41114  1  0  0  0
 41115  1  0  0  0
 41 48  1  0  0  0
 42 43  1  0  0  0
 42 66  1  0  0  0
 42116  1  0  0  0
 42117  1  0  0  0
 43 44  1  0  0  0
 44118  1  0  0  0
 45 46  2  0  0  0
 45119  1  0  0  0
 46120  1  0  0  0
 47121  1  0  0  0
 47122  1  0  0  0
 48 56  1  0  0  0
 48 65  1  0  0  0
 48123  1  0  0  0
 49 50  1  0  0  0
 49 53  1  0  0  0
 49 64  1  0  0  0
 49124  1  0  0  0
 50 51  1  0  0  0
 50125  1  0  0  0
 50126  1  0  0  0
 51 52  1  0  0  0
 51127  1  0  0  0
 51128  1  0  0  0
 52129  1  0  0  0
 52130  1  0  0  0
 53 54  1  0  0  0
 54 55  2  0  0  0
 54131  1  0  0  0
 55 57  1  0  0  0
 55132  1  0  0  0
 56 69  2  0  0  0
 57 58  2  0  0  0
 57133  1  0  0  0
 58134  1  0  0  0
 59 60  1  0  0  0
 59 61  1  0  0  0
 59 62  1  0  0  0
 60135  1  0  0  0
 60136  1  0  0  0
 60137  1  0  0  0
 61138  1  0  0  0
 61139  1  0  0  0
 61140  1  0  0  0
 62141  1  0  0  0
 62142  1  0  0  0
 62143  1  0  0  0
 63 65  1  0  0  0
 63144  1  0  0  0
 63145  1  0  0  0
 63146  1  0  0  0
 64147  1  0  0  0
 65148  1  0  0  0
 68 84  1  0  0  0
 71 72  1  0  0  0
 71 74  2  0  0  0
 71149  1  0  0  0
 72 73  2  0  0  0
 72 77  1  0  0  0
 73 75  1  0  0  0
 73 87  1  0  0  0
 74 79  1  0  0  0
 74 87  1  0  0  0
 75 76  1  0  0  0
 75150  1  0  0  0
 75151  1  0  0  0
 76152  1  0  0  0
 76153  1  0  0  0
 76 78  1  0  0  0
 77 78  1  0  0  0
 77 89  1  0  0  0
 77154  1  0  0  0
 78 85  1  0  0  0
 78155  1  0  0  0
 79156  1  0  0  0
 79157  1  0  0  0
 79158  1  0  0  0
 80159  1  0  0  0
 80160  1  0  0  0
 80161  1  0  0  0
 80 85  1  0  0  0
 81 85  1  0  0  0
 81162  1  0  0  0
 81163  1  0  0  0
 81164  1  0  0  0
 82165  1  0  0  0
 82166  1  0  0  0
 82167  1  0  0  0
 82 86  1  0  0  0
 83 86  1  0  0  0
 83 89  1  0  0  0
 83168  1  0  0  0
 83169  1  0  0  0
 84 87  1  0  0  0
 84170  1  0  0  0
 84171  1  0  0  0
 85172  1  0  0  0
 86 88  1  0  0  0
 86173  1  0  0  0
 88174  1  0  0  0
 89175  1  0  0  0
 89176  1  0  0  0
M  CHG  1  89   1
M  ISO  4   1 100  68 101  84 101  88 100
M  END
> <chiral flag>
0

> <version>
0

> <s_m_source_file>
/data/baiqing/PycharmProjects/Reinvent-master-3.2/result/LINK_invent/BTK/process_docking_weight1_custom_sum_contain_oxygen_bond_distance_aromatic_linkinvent_7_9_3/rearranged_h_0180.sdf

> <i_m_source_file_index>
67

> <r_mmod_Potential_Energy-OPLS-2005>
-173.597091674805

> <r_mmod_Stretch_Energy-OPLS-2005>
62.0320472717285

> <r_mmod_Bend_Energy-OPLS-2005>
151.415771484375

> <r_mmod_Torsional_Energy-OPLS-2005>
227.800323486328

> <r_mmod_Improper_Torsional_Energy-OPLS-2005>
5.37385034561157

> <r_mmod_Van_der_Waal_Energy-OPLS-2005>
125.161468505859

> <r_mmod_Electrostatic_Energy-OPLS-2005>
-333.835479736328

> <r_mmod_Solvation_Energy-OPLS-2005>
-445.159759521484

> <b_mmod_Minimization_Converged-OPLS-2005>
0

> <r_mmod_RMS_Derivative-OPLS-2005>
3.96413397789001

$$$$
67
                    3D
 Structure written by MMmdl.
157166  0  0  1  0            999 V2000
  -30.5770  -14.8406   20.4580 C   0  0  0  0  0  0
  -30.4398  -12.5220   19.4784 C   0  0  0  0  0  0
  -29.5170  -12.5243   18.2385 C   0  0  0  0  0  0
  -28.0463  -12.3262   18.6543 C   0  0  0  0  0  0
  -27.6348  -13.2383   19.8400 C   0  0  2  0  0  0
  -28.6790  -13.2139   20.9761 C   0  0  0  0  0  0
  -25.2485  -13.8196   20.5701 C   0  0  0  0  0  0
  -24.1782  -13.0440   20.9233 C   0  0  0  0  0  0
  -24.6380  -11.6918   20.8734 C   0  0  0  0  0  0
  -23.9051  -10.4297   21.0404 C   0  0  0  0  0  0
  -24.3608   -9.4218   21.9185 C   0  0  0  0  0  0
  -23.6295   -8.2248   22.0751 C   0  0  0  0  0  0
  -22.4269   -8.0273   21.3545 C   0  0  0  0  0  0
  -21.9901   -9.0249   20.4649 C   0  0  0  0  0  0
  -22.7223  -10.2137   20.3053 C   0  0  0  0  0  0
  -21.6850   -6.0727   22.5289 C   0  0  0  0  0  0
  -21.4016   -6.5630   23.8226 C   0  0  0  0  0  0
  -21.3661   -5.6784   24.9187 C   0  0  0  0  0  0
  -21.6039   -4.3044   24.7233 C   0  0  0  0  0  0
  -21.8816   -3.8138   23.4353 C   0  0  0  0  0  0
  -21.9199   -4.6956   22.3409 C   0  0  0  0  0  0
  -22.7808  -13.5232   21.1885 C   0  0  0  0  0  0
  -22.1665   -4.2147   21.0983 F   0  0  0  0  0  0
  -21.5640   -3.4518   25.7740 F   0  0  0  0  0  0
  -29.9674  -13.5989   20.3858 N   0  0  0  0  0  0
  -26.2898  -12.9412   20.3221 N   0  0  0  0  0  0
  -25.9299  -11.6544   20.5691 N   0  0  0  0  0  0
  -22.0443  -12.8234   22.0432 N   0  0  0  0  0  0
  -25.4145  -15.1932   20.4133 N   0  0  0  0  0  0
  -31.7787  -14.9267   20.1865 O   0  0  0  0  0  0
  -21.6638   -6.8864   21.4243 O   0  0  0  0  0  0
  -22.3498  -14.5533   20.6714 O   0  0  0  0  0  0
  -24.6393  -31.8492   23.1920 C   0  0  0  0  0  0
  -25.9184  -32.4714   23.8301 C   0  0  1  0  0  0
  -27.2153  -27.1856   20.1515 C   0  0  0  0  0  0
  -25.5944  -33.8520   24.2211 N   0  0  0  0  0  0
  -23.4402  -30.4703   21.5369 C   0  0  2  0  0  0
  -24.8887  -28.9044   20.1130 C   0  0  0  0  0  0
  -22.7542  -29.4578   22.4874 C   0  0  0  0  0  0
  -18.0300  -28.1396   22.8472 C   0  0  0  0  0  0
  -24.1488  -36.7266   23.2634 C   0  0  0  0  0  0
  -25.9925  -30.7374   21.3854 C   0  0  0  0  0  0
  -26.0637  -29.3524   20.7306 C   0  0  0  0  0  0
  -27.2308  -28.5084   20.7342 C   0  0  0  0  0  0
  -26.0205  -26.8324   19.4865 C   0  0  0  0  0  0
  -24.8767  -27.6555   19.4755 C   0  0  0  0  0  0
  -23.6644  -29.8016   20.1554 C   0  0  0  0  0  0
  -25.4110  -36.3045   24.0321 C   0  0  1  0  0  0
  -20.5911  -28.3726   23.1242 C   0  0  2  0  0  0
  -20.6784  -26.9432   22.5404 C   0  0  0  0  0  0
  -19.5763  -26.6385   21.5205 C   0  0  0  0  0  0
  -18.1941  -26.7933   22.1620 C   0  0  0  0  0  0
  -19.1554  -28.8879   23.2847 C   0  0  0  0  0  0
  -18.9472  -30.1473   23.8878 C   0  0  0  0  0  0
  -17.6470  -30.6594   24.0559 C   0  0  0  0  0  0
  -25.9068  -34.9419   23.5073 C   0  0  0  0  0  0
  -16.5359  -29.9089   23.6333 C   0  0  0  0  0  0
  -16.7285  -28.6506   23.0352 C   0  0  0  0  0  0
  -26.4524  -31.6564   25.0726 C   0  0  0  0  0  0
  -25.3716  -31.3746   26.1429 C   0  0  0  0  0  0
  -27.0377  -30.2958   24.6281 C   0  0  0  0  0  0
  -27.6067  -32.4319   25.7504 C   0  0  0  0  0  0
  -27.5592  -37.1758   24.8438 C   0  0  0  0  0  0
  -21.4242  -29.3051   22.3615 N   0  0  0  0  0  0
  -26.4267  -37.3769   23.9448 N   0  0  0  0  0  0
  -24.7099  -31.0397   22.0933 N   0  0  0  0  0  0
  -23.4202  -28.8119   23.3007 O   0  0  0  0  0  0
  -28.2784  -26.2290   20.1814 O   0  0  0  0  0  0
  -26.5653  -34.8919   22.4650 O   0  0  0  0  0  0
  -23.5525  -32.1345   23.7171 O   0  0  0  0  0  0
  -28.7664  -22.0895   20.6529 C   0  0  0  0  0  0
  -28.8752  -23.4776   20.1610 C   0  0  0  0  0  0
  -29.6274  -21.0146   20.1568 C   0  0  0  0  0  0
  -30.5508  -22.6952   18.8033 C   0  0  0  0  0  0
  -29.0588  -18.5588   21.2586 C   0  0  0  0  0  0
  -30.3699  -18.4870   19.6518 C   0  0  0  0  0  0
  -30.1737  -17.4883   20.8575 C   0  0  0  0  0  0
  -27.7527  -21.7407   21.7287 C   0  0  0  0  0  0
  -31.6140  -23.0142   17.7746 C   0  0  0  0  0  0
  -27.9711  -24.7689   20.5657 C   0  0  0  0  0  0
  -29.8059  -23.7133   19.2216 N   0  0  0  0  0  0
  -30.4907  -21.4262   19.2103 N   0  0  0  0  0  0
  -29.8674  -19.5706   20.5397 N   0  0  0  0  0  0
  -29.7980  -15.9919   20.6467 N   0  0  0  0  0  0
  -31.4775  -12.6690   19.1739 H   0  0  0  0  0  0
  -30.4085  -11.5548   19.9819 H   0  0  0  0  0  0
  -29.8198  -11.7429   17.5401 H   0  0  0  0  0  0
  -29.6255  -13.4710   17.7044 H   0  0  0  0  0  0
  -27.9223  -11.2794   18.9372 H   0  0  0  0  0  0
  -27.3846  -12.4904   17.8027 H   0  0  0  0  0  0
  -27.6160  -14.2515   19.4375 H   0  0  0  0  0  0
  -28.7405  -12.2229   21.4287 H   0  0  0  0  0  0
  -28.3930  -13.8985   21.7764 H   0  0  0  0  0  0
  -25.2761   -9.5697   22.4756 H   0  0  0  0  0  0
  -24.0016   -7.4625   22.7450 H   0  0  0  0  0  0
  -21.0840   -8.8753   19.8952 H   0  0  0  0  0  0
  -22.3679  -10.9663   19.6152 H   0  0  0  0  0  0
  -21.1998   -7.6143   23.9726 H   0  0  0  0  0  0
  -21.1487   -6.0515   25.9095 H   0  0  0  0  0  0
  -22.0591   -2.7598   23.2849 H   0  0  0  0  0  0
  -22.4049  -11.9920   22.4877 H   0  0  0  0  0  0
  -21.1054  -13.1263   22.2590 H   0  0  0  0  0  0
  -24.6364  -15.8367   20.5103 H   0  0  0  0  0  0
  -26.2482  -15.6359   20.0518 H   0  0  0  0  0  0
  -26.7248  -32.5343   23.1038 H   0  0  0  0  0  0
  -25.0075  -33.9638   25.0346 H   0  0  0  0  0  0
  -22.7401  -31.2947   21.3852 H   0  0  0  0  0  0
  -23.3780  -35.9562   23.3210 H   0  0  0  0  0  0
  -24.3601  -36.8983   22.2067 H   0  0  0  0  0  0
  -23.7186  -37.6417   23.6718 H   0  0  0  0  0  0
  -26.1426  -31.4916   20.6123 H   0  0  0  0  0  0
  -26.8646  -30.7865   22.0256 H   0  0  0  0  0  0
  -28.1281  -28.8468   21.2331 H   0  0  0  0  0  0
  -25.9494  -25.8882   18.9676 H   0  0  0  0  0  0
  -23.9825  -27.3122   18.9723 H   0  0  0  0  0  0
  -23.7991  -30.5758   19.3989 H   0  0  0  0  0  0
  -22.7808  -29.2409   19.8461 H   0  0  0  0  0  0
  -25.1278  -36.1865   25.0807 H   0  0  0  0  0  0
  -21.0002  -28.3313   24.1368 H   0  0  0  0  0  0
  -20.5679  -26.2341   23.3620 H   0  0  0  0  0  0
  -21.6650  -26.7441   22.1207 H   0  0  0  0  0  0
  -19.6925  -25.6285   21.1259 H   0  0  0  0  0  0
  -19.6702  -27.3178   20.6719 H   0  0  0  0  0  0
  -17.4210  -26.6675   21.4018 H   0  0  0  0  0  0
  -18.0347  -26.0079   22.9028 H   0  0  0  0  0  0
  -19.7950  -30.7283   24.2241 H   0  0  0  0  0  0
  -17.5030  -31.6273   24.5163 H   0  0  0  0  0  0
  -15.5358  -30.2985   23.7673 H   0  0  0  0  0  0
  -15.8689  -28.0820   22.7079 H   0  0  0  0  0  0
  -24.5879  -30.7118   25.7742 H   0  0  0  0  0  0
  -24.8926  -32.2932   26.4830 H   0  0  0  0  0  0
  -25.8006  -30.8923   27.0223 H   0  0  0  0  0  0
  -26.2985  -29.6687   24.1284 H   0  0  0  0  0  0
  -27.3988  -29.7252   25.4850 H   0  0  0  0  0  0
  -27.8900  -30.4190   23.9592 H   0  0  0  0  0  0
  -27.2660  -33.3628   26.2056 H   0  0  0  0  0  0
  -28.3892  -32.6866   25.0340 H   0  0  0  0  0  0
  -28.0725  -31.8458   26.5441 H   0  0  0  0  0  0
  -28.2505  -38.0161   24.7642 H   0  0  0  0  0  0
  -28.1194  -36.2699   24.6052 H   0  0  0  0  0  0
  -27.2351  -37.1148   25.8844 H   0  0  0  0  0  0
  -20.9447  -29.8769   21.6803 H   0  0  0  0  0  0
  -26.0126  -38.2820   24.1540 H   0  0  0  0  0  0
  -28.9793  -18.7388   22.3312 H   0  0  0  0  0  0
  -28.0842  -18.3965   20.7944 H   0  0  0  0  0  0
  -29.7122  -18.3072   18.7986 H   0  0  0  0  0  0
  -31.4075  -18.6188   19.3460 H   0  0  0  0  0  0
  -31.0228  -17.5729   21.5411 H   0  0  0  0  0  0
  -27.0163  -22.5299   21.8810 H   0  0  0  0  0  0
  -28.2595  -21.5561   22.6766 H   0  0  0  0  0  0
  -27.2145  -20.8322   21.4561 H   0  0  0  0  0  0
  -31.4449  -23.9881   17.3147 H   0  0  0  0  0  0
  -31.6248  -22.2677   16.9808 H   0  0  0  0  0  0
  -32.5977  -23.0290   18.2436 H   0  0  0  0  0  0
  -27.9184  -24.7660   21.6541 H   0  0  0  0  0  0
  -26.9653  -24.5048   20.2471 H   0  0  0  0  0  0
  -28.8170  -15.7941   20.7716 H   0  0  0  0  0  0
  1 25  1  0  0  0
  1 30  2  0  0  0
  1 84  1  0  0  0
  2  3  1  0  0  0
  2 25  1  0  0  0
  2 85  1  0  0  0
  2 86  1  0  0  0
  3  4  1  0  0  0
  3 87  1  0  0  0
  3 88  1  0  0  0
  4  5  1  0  0  0
  4 89  1  0  0  0
  4 90  1  0  0  0
  5  6  1  0  0  0
  5 26  1  0  0  0
  5 91  1  0  0  0
  6 25  1  0  0  0
  6 92  1  0  0  0
  6 93  1  0  0  0
  7  8  2  0  0  0
  7 26  1  0  0  0
  7 29  1  0  0  0
  8  9  1  0  0  0
  8 22  1  0  0  0
  9 10  1  0  0  0
  9 27  2  0  0  0
 10 11  2  0  0  0
 10 15  1  0  0  0
 11 12  1  0  0  0
 11 94  1  0  0  0
 12 13  2  0  0  0
 12 95  1  0  0  0
 13 14  1  0  0  0
 13 31  1  0  0  0
 14 15  2  0  0  0
 14 96  1  0  0  0
 15 97  1  0  0  0
 16 17  2  0  0  0
 16 21  1  0  0  0
 16 31  1  0  0  0
 17 18  1  0  0  0
 17 98  1  0  0  0
 18 19  2  0  0  0
 18 99  1  0  0  0
 19 20  1  0  0  0
 19 24  1  0  0  0
 20 21  2  0  0  0
 20100  1  0  0  0
 21 23  1  0  0  0
 22 28  1  0  0  0
 22 32  2  0  0  0
 26 27  1  0  0  0
 28101  1  0  0  0
 28102  1  0  0  0
 29103  1  0  0  0
 29104  1  0  0  0
 33 34  1  0  0  0
 33 66  1  0  0  0
 33 70  2  0  0  0
 34 36  1  0  0  0
 34 59  1  0  0  0
 34105  1  0  0  0
 35 44  2  0  0  0
 35 45  1  0  0  0
 35 68  1  0  0  0
 36 56  1  0  0  0
 36106  1  0  0  0
 37 39  1  0  0  0
 37 47  1  0  0  0
 37 66  1  0  0  0
 37107  1  0  0  0
 38 43  2  0  0  0
 38 46  1  0  0  0
 38 47  1  0  0  0
 39 64  1  0  0  0
 39 67  2  0  0  0
 40 52  1  0  0  0
 40 53  2  0  0  0
 40 58  1  0  0  0
 41108  1  0  0  0
 41109  1  0  0  0
 41110  1  0  0  0
 41 48  1  0  0  0
 42 43  1  0  0  0
 42 66  1  0  0  0
 42111  1  0  0  0
 42112  1  0  0  0
 43 44  1  0  0  0
 44113  1  0  0  0
 45 46  2  0  0  0
 45114  1  0  0  0
 46115  1  0  0  0
 47116  1  0  0  0
 47117  1  0  0  0
 48 56  1  0  0  0
 48 65  1  0  0  0
 48118  1  0  0  0
 49 50  1  0  0  0
 49 53  1  0  0  0
 49 64  1  0  0  0
 49119  1  0  0  0
 50 51  1  0  0  0
 50120  1  0  0  0
 50121  1  0  0  0
 51 52  1  0  0  0
 51122  1  0  0  0
 51123  1  0  0  0
 52124  1  0  0  0
 52125  1  0  0  0
 53 54  1  0  0  0
 54 55  2  0  0  0
 54126  1  0  0  0
 55 57  1  0  0  0
 55127  1  0  0  0
 56 69  2  0  0  0
 57 58  2  0  0  0
 57128  1  0  0  0
 58129  1  0  0  0
 59 60  1  0  0  0
 59 61  1  0  0  0
 59 62  1  0  0  0
 60130  1  0  0  0
 60131  1  0  0  0
 60132  1  0  0  0
 61133  1  0  0  0
 61134  1  0  0  0
 61135  1  0  0  0
 62136  1  0  0  0
 62137  1  0  0  0
 62138  1  0  0  0
 63 65  1  0  0  0
 63139  1  0  0  0
 63140  1  0  0  0
 63141  1  0  0  0
 64142  1  0  0  0
 65143  1  0  0  0
 68 80  1  0  0  0
 71 72  2  0  0  0
 71 73  1  0  0  0
 71 78  1  0  0  0
 72 80  1  0  0  0
 72 81  1  0  0  0
 73 82  2  0  0  0
 73 83  1  0  0  0
 74 79  1  0  0  0
 74 81  2  0  0  0
 74 82  1  0  0  0
 75 77  1  0  0  0
 75 83  1  0  0  0
 75144  1  0  0  0
 75145  1  0  0  0
 76 77  1  0  0  0
 76 83  1  0  0  0
 76146  1  0  0  0
 76147  1  0  0  0
 77 84  1  0  0  0
 77148  1  0  0  0
 78149  1  0  0  0
 78150  1  0  0  0
 78151  1  0  0  0
 79152  1  0  0  0
 79153  1  0  0  0
 79154  1  0  0  0
 80155  1  0  0  0
 80156  1  0  0  0
 84157  1  0  0  0
M  ISO  4   1 100  68 101  80 101  84 100
M  END
> <chiral flag>
0

> <version>
0

> <s_m_source_file>
/data/baiqing/PycharmProjects/Reinvent-master-3.2/result/LINK_invent/BTK/process_docking_weight1_custom_sum_contain_oxygen_bond_distance_aromatic_linkinvent_7_9_3/rearranged_h_0180.sdf

> <i_m_source_file_index>
68

> <r_mmod_Potential_Energy-OPLS-2005>
-141.24186706543

> <r_mmod_Stretch_Energy-OPLS-2005>
168.602600097656

> <r_mmod_Bend_Energy-OPLS-2005>
287.793670654297

> <r_mmod_Torsional_Energy-OPLS-2005>
238.768951416016

> <r_mmod_Improper_Torsional_Energy-OPLS-2005>
9.32462120056152

> <r_mmod_Van_der_Waal_Energy-OPLS-2005>
139.999542236328

> <r_mmod_Electrostatic_Energy-OPLS-2005>
-856.356201171875

> <r_mmod_Solvation_Energy-OPLS-2005>
-265.936279296875

> <b_mmod_Minimization_Converged-OPLS-2005>
0

> <r_mmod_RMS_Derivative-OPLS-2005>
1.94807589054108

$$$$
68
                    3D
 Structure written by MMmdl.
153162  0  0  1  0            999 V2000
  -30.6133  -14.8402   20.4611 C   0  0  0  0  0  0
  -30.4490  -12.5358   19.4692 C   0  0  0  0  0  0
  -29.5103  -12.5256   18.2414 C   0  0  0  0  0  0
  -28.0400  -12.3452   18.6633 C   0  0  0  0  0  0
  -27.6433  -13.2496   19.8585 C   0  0  2  0  0  0
  -28.6969  -13.2196   20.9888 C   0  0  0  0  0  0
  -25.2492  -13.8226   20.5811 C   0  0  0  0  0  0
  -24.1783  -13.0479   20.9280 C   0  0  0  0  0  0
  -24.6362  -11.6939   20.8772 C   0  0  0  0  0  0
  -23.9024  -10.4306   21.0397 C   0  0  0  0  0  0
  -24.3581   -9.4221   21.9174 C   0  0  0  0  0  0
  -23.6284   -8.2229   22.0727 C   0  0  0  0  0  0
  -22.4270   -8.0253   21.3517 C   0  0  0  0  0  0
  -21.9889   -9.0219   20.4619 C   0  0  0  0  0  0
  -22.7193  -10.2125   20.3037 C   0  0  0  0  0  0
  -21.6849   -6.0703   22.5271 C   0  0  0  0  0  0
  -21.4003   -6.5602   23.8207 C   0  0  0  0  0  0
  -21.3675   -5.6759   24.9171 C   0  0  0  0  0  0
  -21.6057   -4.3029   24.7231 C   0  0  0  0  0  0
  -21.8817   -3.8108   23.4352 C   0  0  0  0  0  0
  -21.9191   -4.6920   22.3409 C   0  0  0  0  0  0
  -22.7774  -13.5229   21.1943 C   0  0  0  0  0  0
  -22.1659   -4.2102   21.0987 F   0  0  0  0  0  0
  -21.5652   -3.4514   25.7752 F   0  0  0  0  0  0
  -29.9926  -13.5995   20.4040 N   0  0  0  0  0  0
  -26.2938  -12.9469   20.3361 N   0  0  0  0  0  0
  -25.9308  -11.6592   20.5774 N   0  0  0  0  0  0
  -22.0390  -12.8224   22.0472 N   0  0  0  0  0  0
  -25.4238  -15.1972   20.4287 N   0  0  0  0  0  0
  -31.7859  -14.9347   20.0900 O   0  0  0  0  0  0
  -21.6640   -6.8839   21.4226 O   0  0  0  0  0  0
  -22.3452  -14.5525   20.6767 O   0  0  0  0  0  0
  -24.6400  -31.8524   23.1995 C   0  0  0  0  0  0
  -25.9202  -32.4755   23.8362 C   0  0  1  0  0  0
  -27.2237  -27.1944   20.1715 C   0  0  0  0  0  0
  -25.5993  -33.8552   24.2298 N   0  0  0  0  0  0
  -23.4415  -30.4787   21.5399 C   0  0  2  0  0  0
  -24.8936  -28.9167   20.1180 C   0  0  0  0  0  0
  -22.7570  -29.4606   22.4855 C   0  0  0  0  0  0
  -18.0302  -28.1408   22.8473 C   0  0  0  0  0  0
  -24.1477  -36.7256   23.2623 C   0  0  0  0  0  0
  -25.9926  -30.7510   21.3844 C   0  0  0  0  0  0
  -26.0681  -29.3633   20.7369 C   0  0  0  0  0  0
  -27.2357  -28.5191   20.7505 C   0  0  0  0  0  0
  -26.0249  -26.8443   19.5052 C   0  0  0  0  0  0
  -24.8808  -27.6669   19.4878 C   0  0  0  0  0  0
  -23.6712  -29.8193   20.1548 C   0  0  0  0  0  0
  -25.4087  -36.3061   24.0348 C   0  0  1  0  0  0
  -20.5917  -28.3753   23.1226 C   0  0  2  0  0  0
  -20.6794  -26.9455   22.5391 C   0  0  0  0  0  0
  -19.5757  -26.6386   21.5216 C   0  0  0  0  0  0
  -18.1943  -26.7949   22.1627 C   0  0  0  0  0  0
  -19.1562  -28.8887   23.2844 C   0  0  0  0  0  0
  -18.9475  -30.1481   23.8882 C   0  0  0  0  0  0
  -17.6469  -30.6597   24.0563 C   0  0  0  0  0  0
  -25.9057  -34.9436   23.5112 C   0  0  0  0  0  0
  -16.5361  -29.9096   23.6341 C   0  0  0  0  0  0
  -16.7284  -28.6519   23.0344 C   0  0  0  0  0  0
  -26.4531  -31.6578   25.0761 C   0  0  0  0  0  0
  -25.3749  -31.3792   26.1499 C   0  0  0  0  0  0
  -27.0357  -30.2987   24.6252 C   0  0  0  0  0  0
  -27.6097  -32.4295   25.7536 C   0  0  0  0  0  0
  -27.5607  -37.1742   24.8436 C   0  0  0  0  0  0
  -21.4255  -29.3107   22.3632 N   0  0  0  0  0  0
  -26.4242  -37.3796   23.9491 N   0  0  0  0  0  0
  -24.7116  -31.0454   22.0996 N   0  0  0  0  0  0
  -23.4240  -28.8106   23.2952 O   0  0  0  0  0  0
  -28.2796  -26.2239   20.2410 O   0  0  0  0  0  0
  -26.5594  -34.8927   22.4666 O   0  0  0  0  0  0
  -23.5524  -32.1353   23.7257 O   0  0  0  0  0  0
  -29.5142  -21.3473   21.7764 C   0  0  0  0  0  0
  -29.2289  -22.7584   21.7394 C   0  0  0  0  0  0
  -29.3953  -20.4723   20.6481 C   0  0  0  0  0  0
  -28.7828  -23.4129   20.5558 C   0  0  0  0  0  0
  -29.1040  -21.2529   19.4712 C   0  0  0  0  0  0
  -28.6724  -17.9745   19.8800 C   0  0  0  0  0  0
  -29.3752  -18.8456   20.8809 C   0  0  1  0  0  0
  -30.0281  -17.4488   20.2831 C   0  0  1  0  0  0
  -29.0904  -20.6198   18.0970 C   0  0  0  0  0  0
  -27.8846  -24.7764   20.5677 C   0  0  0  0  0  0
  -28.7875  -22.6077   19.4447 N   0  0  0  0  0  0
  -29.8486  -15.9877   20.7089 N   0  0  0  0  0  0
  -31.4679  -12.7086   19.1186 H   0  0  0  0  0  0
  -30.4667  -11.5649   19.9650 H   0  0  0  0  0  0
  -29.8011  -11.7283   17.5550 H   0  0  0  0  0  0
  -29.6211  -13.4587   17.6859 H   0  0  0  0  0  0
  -27.9061  -11.2978   18.9339 H   0  0  0  0  0  0
  -27.3797  -12.5353   17.8160 H   0  0  0  0  0  0
  -27.6274  -14.2689   19.4705 H   0  0  0  0  0  0
  -28.7532  -12.2316   21.4475 H   0  0  0  0  0  0
  -28.4159  -13.9154   21.7804 H   0  0  0  0  0  0
  -25.2711   -9.5709   22.4781 H   0  0  0  0  0  0
  -23.9995   -7.4605   22.7422 H   0  0  0  0  0  0
  -21.0819   -8.8699   19.8928 H   0  0  0  0  0  0
  -22.3603  -10.9649   19.6145 H   0  0  0  0  0  0
  -21.1975   -7.6109   23.9698 H   0  0  0  0  0  0
  -21.1515   -6.0496   25.9087 H   0  0  0  0  0  0
  -22.0595   -2.7560   23.2868 H   0  0  0  0  0  0
  -22.3955  -11.9899   22.4941 H   0  0  0  0  0  0
  -21.0975  -13.1227   22.2595 H   0  0  0  0  0  0
  -24.6811  -15.8683   20.5838 H   0  0  0  0  0  0
  -26.2742  -15.6225   20.0845 H   0  0  0  0  0  0
  -26.7278  -32.5407   23.1115 H   0  0  0  0  0  0
  -25.0284  -33.9680   25.0548 H   0  0  0  0  0  0
  -22.7421  -31.3046   21.3927 H   0  0  0  0  0  0
  -23.3793  -35.9530   23.3183 H   0  0  0  0  0  0
  -24.3627  -36.8964   22.2068 H   0  0  0  0  0  0
  -23.7141  -37.6398   23.6681 H   0  0  0  0  0  0
  -26.1235  -31.5010   20.6020 H   0  0  0  0  0  0
  -26.8750  -30.8191   22.0097 H   0  0  0  0  0  0
  -28.1261  -28.8613   21.2602 H   0  0  0  0  0  0
  -25.9328  -25.9032   18.9865 H   0  0  0  0  0  0
  -23.9876  -27.3243   18.9837 H   0  0  0  0  0  0
  -23.8240  -30.6052   19.4138 H   0  0  0  0  0  0
  -22.7858  -29.2733   19.8254 H   0  0  0  0  0  0
  -25.1233  -36.1886   25.0830 H   0  0  0  0  0  0
  -20.9998  -28.3333   24.1353 H   0  0  0  0  0  0
  -20.5708  -26.2375   23.3622 H   0  0  0  0  0  0
  -21.6656  -26.7473   22.1175 H   0  0  0  0  0  0
  -19.6923  -25.6283   21.1288 H   0  0  0  0  0  0
  -19.6691  -27.3161   20.6721 H   0  0  0  0  0  0
  -17.4217  -26.6690   21.4029 H   0  0  0  0  0  0
  -18.0334  -26.0094   22.9022 H   0  0  0  0  0  0
  -19.7944  -30.7299   24.2252 H   0  0  0  0  0  0
  -17.5022  -31.6284   24.5160 H   0  0  0  0  0  0
  -15.5362  -30.2989   23.7671 H   0  0  0  0  0  0
  -15.8688  -28.0837   22.7058 H   0  0  0  0  0  0
  -24.5846  -30.7223   25.7861 H   0  0  0  0  0  0
  -24.9046  -32.3001   26.4954 H   0  0  0  0  0  0
  -25.8045  -30.8936   27.0272 H   0  0  0  0  0  0
  -26.2943  -29.6746   24.1257 H   0  0  0  0  0  0
  -27.4024  -29.7239   25.4769 H   0  0  0  0  0  0
  -27.8831  -30.4271   23.9518 H   0  0  0  0  0  0
  -27.2740  -33.3625   26.2074 H   0  0  0  0  0  0
  -28.3949  -32.6787   25.0387 H   0  0  0  0  0  0
  -28.0709  -31.8429   26.5494 H   0  0  0  0  0  0
  -28.2438  -38.0219   24.7757 H   0  0  0  0  0  0
  -28.1276  -36.2786   24.5865 H   0  0  0  0  0  0
  -27.2408  -37.0912   25.8836 H   0  0  0  0  0  0
  -20.9442  -29.8929   21.6916 H   0  0  0  0  0  0
  -26.0102  -38.2821   24.1670 H   0  0  0  0  0  0
  -29.7477  -20.9182   22.7397 H   0  0  0  0  0  0
  -29.2393  -23.3003   22.6766 H   0  0  0  0  0  0
  -28.6459  -18.1703   18.8148 H   0  0  0  0  0  0
  -27.7663  -17.5063   20.2645 H   0  0  0  0  0  0
  -29.0504  -18.7303   21.9126 H   0  0  0  0  0  0
  -30.8342  -17.6140   19.5690 H   0  0  0  0  0  0
  -29.1853  -21.3737   17.3149 H   0  0  0  0  0  0
  -28.1488  -20.1029   17.9214 H   0  0  0  0  0  0
  -29.9201  -19.9184   17.9874 H   0  0  0  0  0  0
  -27.4514  -24.8211   21.5678 H   0  0  0  0  0  0
  -27.0513  -24.4854   19.9360 H   0  0  0  0  0  0
  -28.9284  -15.7777   21.0666 H   0  0  0  0  0  0
  1 25  1  0  0  0
  1 30  2  0  0  0
  1 82  1  0  0  0
  2  3  1  0  0  0
  2 25  1  0  0  0
  2 83  1  0  0  0
  2 84  1  0  0  0
  3  4  1  0  0  0
  3 85  1  0  0  0
  3 86  1  0  0  0
  4  5  1  0  0  0
  4 87  1  0  0  0
  4 88  1  0  0  0
  5  6  1  0  0  0
  5 26  1  0  0  0
  5 89  1  0  0  0
  6 25  1  0  0  0
  6 90  1  0  0  0
  6 91  1  0  0  0
  7  8  2  0  0  0
  7 26  1  0  0  0
  7 29  1  0  0  0
  8  9  1  0  0  0
  8 22  1  0  0  0
  9 10  1  0  0  0
  9 27  2  0  0  0
 10 11  2  0  0  0
 10 15  1  0  0  0
 11 12  1  0  0  0
 11 92  1  0  0  0
 12 13  2  0  0  0
 12 93  1  0  0  0
 13 14  1  0  0  0
 13 31  1  0  0  0
 14 15  2  0  0  0
 14 94  1  0  0  0
 15 95  1  0  0  0
 16 17  2  0  0  0
 16 21  1  0  0  0
 16 31  1  0  0  0
 17 18  1  0  0  0
 17 96  1  0  0  0
 18 19  2  0  0  0
 18 97  1  0  0  0
 19 20  1  0  0  0
 19 24  1  0  0  0
 20 21  2  0  0  0
 20 98  1  0  0  0
 21 23  1  0  0  0
 22 28  1  0  0  0
 22 32  2  0  0  0
 26 27  1  0  0  0
 28 99  1  0  0  0
 28100  1  0  0  0
 29101  1  0  0  0
 29102  1  0  0  0
 33 34  1  0  0  0
 33 66  1  0  0  0
 33 70  2  0  0  0
 34 36  1  0  0  0
 34 59  1  0  0  0
 34103  1  0  0  0
 35 44  2  0  0  0
 35 45  1  0  0  0
 35 68  1  0  0  0
 36 56  1  0  0  0
 36104  1  0  0  0
 37 39  1  0  0  0
 37 47  1  0  0  0
 37 66  1  0  0  0
 37105  1  0  0  0
 38 43  2  0  0  0
 38 46  1  0  0  0
 38 47  1  0  0  0
 39 64  1  0  0  0
 39 67  2  0  0  0
 40 52  1  0  0  0
 40 53  2  0  0  0
 40 58  1  0  0  0
 41106  1  0  0  0
 41107  1  0  0  0
 41108  1  0  0  0
 41 48  1  0  0  0
 42 43  1  0  0  0
 42 66  1  0  0  0
 42109  1  0  0  0
 42110  1  0  0  0
 43 44  1  0  0  0
 44111  1  0  0  0
 45 46  2  0  0  0
 45112  1  0  0  0
 46113  1  0  0  0
 47114  1  0  0  0
 47115  1  0  0  0
 48 56  1  0  0  0
 48 65  1  0  0  0
 48116  1  0  0  0
 49 50  1  0  0  0
 49 53  1  0  0  0
 49 64  1  0  0  0
 49117  1  0  0  0
 50 51  1  0  0  0
 50118  1  0  0  0
 50119  1  0  0  0
 51 52  1  0  0  0
 51120  1  0  0  0
 51121  1  0  0  0
 52122  1  0  0  0
 52123  1  0  0  0
 53 54  1  0  0  0
 54 55  2  0  0  0
 54124  1  0  0  0
 55 57  1  0  0  0
 55125  1  0  0  0
 56 69  2  0  0  0
 57 58  2  0  0  0
 57126  1  0  0  0
 58127  1  0  0  0
 59 60  1  0  0  0
 59 61  1  0  0  0
 59 62  1  0  0  0
 60128  1  0  0  0
 60129  1  0  0  0
 60130  1  0  0  0
 61131  1  0  0  0
 61132  1  0  0  0
 61133  1  0  0  0
 62134  1  0  0  0
 62135  1  0  0  0
 62136  1  0  0  0
 63 65  1  0  0  0
 63137  1  0  0  0
 63138  1  0  0  0
 63139  1  0  0  0
 64140  1  0  0  0
 65141  1  0  0  0
 68 80  1  0  0  0
 71 72  2  0  0  0
 71 73  1  0  0  0
 71142  1  0  0  0
 72 74  1  0  0  0
 72143  1  0  0  0
 73 75  2  0  0  0
 73 77  1  0  0  0
 74 80  1  0  0  0
 74 81  2  0  0  0
 75 79  1  0  0  0
 75 81  1  0  0  0
 76 77  1  0  0  0
 76 78  1  0  0  0
 76144  1  0  0  0
 76145  1  0  0  0
 77 78  1  0  0  0
 77146  1  0  0  0
 78 82  1  0  0  0
 78147  1  0  0  0
 79148  1  0  0  0
 79149  1  0  0  0
 79150  1  0  0  0
 80151  1  0  0  0
 80152  1  0  0  0
 82153  1  0  0  0
M  ISO  4   1 100  68 101  80 101  82 100
M  END
> <chiral flag>
0

> <version>
0

> <s_m_source_file>
/data/baiqing/PycharmProjects/Reinvent-master-3.2/result/LINK_invent/BTK/process_docking_weight1_custom_sum_contain_oxygen_bond_distance_aromatic_linkinvent_7_9_3/rearranged_h_0180.sdf

> <i_m_source_file_index>
69

> <r_mmod_Potential_Energy-OPLS-2005>
302.662780761719

> <r_mmod_Stretch_Energy-OPLS-2005>
191.463333129883

> <r_mmod_Bend_Energy-OPLS-2005>
260.078186035156

> <r_mmod_Torsional_Energy-OPLS-2005>
293.79150390625

> <r_mmod_Improper_Torsional_Energy-OPLS-2005>
10.5308933258057

> <r_mmod_Van_der_Waal_Energy-OPLS-2005>
141.388046264648

> <r_mmod_Electrostatic_Energy-OPLS-2005>
-501.742218017578

> <r_mmod_Solvation_Energy-OPLS-2005>
-227.755020141602

> <b_mmod_Minimization_Converged-OPLS-2005>
0

> <r_mmod_RMS_Derivative-OPLS-2005>
4.31981086730957

$$$$
69
                    3D
 Structure written by MMmdl.
153162  0  0  1  0            999 V2000
  -30.4275  -15.1998   20.3795 C   0  0  0  0  0  0
  -30.4513  -12.7577   19.5238 C   0  0  0  0  0  0
  -29.5394  -12.5688   18.2838 C   0  0  0  0  0  0
  -28.0842  -12.2998   18.7084 C   0  0  0  0  0  0
  -27.6203  -13.2628   19.8291 C   0  0  2  0  0  0
  -28.6561  -13.3892   20.9674 C   0  0  0  0  0  0
  -25.2420  -13.8221   20.5714 C   0  0  0  0  0  0
  -24.1758  -13.0428   20.9237 C   0  0  0  0  0  0
  -24.6396  -11.6920   20.8743 C   0  0  0  0  0  0
  -23.9075  -10.4290   21.0387 C   0  0  0  0  0  0
  -24.3619   -9.4204   21.9166 C   0  0  0  0  0  0
  -23.6293   -8.2243   22.0745 C   0  0  0  0  0  0
  -22.4274   -8.0275   21.3541 C   0  0  0  0  0  0
  -21.9907   -9.0247   20.4640 C   0  0  0  0  0  0
  -22.7239  -10.2125   20.3043 C   0  0  0  0  0  0
  -21.6857   -6.0722   22.5275 C   0  0  0  0  0  0
  -21.4018   -6.5626   23.8208 C   0  0  0  0  0  0
  -21.3662   -5.6782   24.9171 C   0  0  0  0  0  0
  -21.6043   -4.3044   24.7223 C   0  0  0  0  0  0
  -21.8819   -3.8134   23.4347 C   0  0  0  0  0  0
  -21.9195   -4.6947   22.3402 C   0  0  0  0  0  0
  -22.7774  -13.5191   21.1891 C   0  0  0  0  0  0
  -22.1663   -4.2128   21.0979 F   0  0  0  0  0  0
  -21.5627   -3.4535   25.7740 F   0  0  0  0  0  0
  -29.9021  -13.8827   20.3583 N   0  0  0  0  0  0
  -26.2848  -12.9474   20.3210 N   0  0  0  0  0  0
  -25.9332  -11.6592   20.5711 N   0  0  0  0  0  0
  -22.0431  -12.8191   22.0462 N   0  0  0  0  0  0
  -25.4050  -15.1957   20.4133 N   0  0  0  0  0  0
  -31.6378  -15.2626   20.1208 O   0  0  0  0  0  0
  -21.6644   -6.8867   21.4238 O   0  0  0  0  0  0
  -22.3451  -14.5482   20.6720 O   0  0  0  0  0  0
  -24.6581  -31.8283   23.1734 C   0  0  0  0  0  0
  -25.9275  -32.4616   23.8191 C   0  0  1  0  0  0
  -27.2236  -26.9728   20.1808 C   0  0  0  0  0  0
  -25.5963  -33.8431   24.2093 N   0  0  0  0  0  0
  -23.4718  -30.4394   21.5219 C   0  0  2  0  0  0
  -24.9257  -28.8330   20.1127 C   0  0  0  0  0  0
  -22.7646  -29.4461   22.4797 C   0  0  0  0  0  0
  -18.0320  -28.1406   22.8470 C   0  0  0  0  0  0
  -24.1495  -36.7223   23.2644 C   0  0  0  0  0  0
  -26.0374  -30.6495   21.3963 C   0  0  0  0  0  0
  -26.1076  -29.2428   20.7424 C   0  0  0  0  0  0
  -27.2523  -28.3334   20.7515 C   0  0  0  0  0  0
  -26.0145  -26.7054   19.5001 C   0  0  0  0  0  0
  -24.9021  -27.5838   19.4716 C   0  0  0  0  0  0
  -23.7095  -29.7548   20.1477 C   0  0  0  0  0  0
  -25.4133  -36.2985   24.0298 C   0  0  1  0  0  0
  -20.5943  -28.3749   23.1198 C   0  0  2  0  0  0
  -20.6794  -26.9433   22.5402 C   0  0  0  0  0  0
  -19.5764  -26.6375   21.5216 C   0  0  0  0  0  0
  -18.1952  -26.7939   22.1632 C   0  0  0  0  0  0
  -19.1581  -28.8897   23.2822 C   0  0  0  0  0  0
  -18.9490  -30.1486   23.8854 C   0  0  0  0  0  0
  -17.6484  -30.6596   24.0554 C   0  0  0  0  0  0
  -25.9093  -34.9367   23.5017 C   0  0  0  0  0  0
  -16.5372  -29.9084   23.6343 C   0  0  0  0  0  0
  -16.7302  -28.6504   23.0361 C   0  0  0  0  0  0
  -26.4542  -31.6549   25.0705 C   0  0  0  0  0  0
  -25.3682  -31.3796   26.1373 C   0  0  0  0  0  0
  -27.0427  -30.2921   24.6406 C   0  0  0  0  0  0
  -27.6049  -32.4347   25.7498 C   0  0  0  0  0  0
  -27.5572  -37.1765   24.8464 C   0  0  0  0  0  0
  -21.4317  -29.3049   22.3548 N   0  0  0  0  0  0
  -26.4282  -37.3714   23.9404 N   0  0  0  0  0  0
  -24.7435  -30.9981   22.0849 N   0  0  0  0  0  0
  -23.4211  -28.8025   23.3021 O   0  0  0  0  0  0
  -28.2450  -25.9016   20.2600 O   0  0  0  0  0  0
  -26.5708  -34.8893   22.4614 O   0  0  0  0  0  0
  -23.5657  -32.1236   23.6847 O   0  0  0  0  0  0
  -29.0269  -21.0947   20.3860 C   0  0  0  0  0  0
  -30.4011  -18.9998   19.9928 C   0  0  0  0  0  0
  -29.4686  -17.9788   20.4626 C   0  0  0  0  0  0
  -28.0958  -20.0660   20.8606 C   0  0  0  0  0  0
  -28.9634  -23.6552   19.1540 C   0  0  0  0  0  0
  -29.0043  -22.8511   20.4414 C   0  0  1  0  0  0
  -28.0161  -24.2836   20.1544 C   0  0  1  0  0  0
  -31.7491  -18.5632   19.4607 C   0  0  0  0  0  0
  -26.6714  -21.5786   22.0618 C   0  0  0  0  0  0
  -30.1854  -20.4171   19.9638 N   0  0  0  0  0  0
  -28.3164  -18.6623   20.8607 N   0  0  0  0  0  0
  -29.5634  -16.3769   20.5303 N   0  0  0  0  0  0
  -26.8626  -20.3361   21.4068 O   0  0  0  0  0  0
  -31.4720  -12.9647   19.1984 H   0  0  0  0  0  0
  -30.5105  -11.8367   20.1058 H   0  0  0  0  0  0
  -29.9097  -11.7532   17.6613 H   0  0  0  0  0  0
  -29.5768  -13.4675   17.6660 H   0  0  0  0  0  0
  -28.0333  -11.2718   19.0689 H   0  0  0  0  0  0
  -27.4156  -12.3536   17.8481 H   0  0  0  0  0  0
  -27.5517  -14.2404   19.3505 H   0  0  0  0  0  0
  -28.8048  -12.4368   21.4780 H   0  0  0  0  0  0
  -28.3062  -14.0927   21.7246 H   0  0  0  0  0  0
  -25.2760   -9.5687   22.4742 H   0  0  0  0  0  0
  -23.9998   -7.4633   22.7470 H   0  0  0  0  0  0
  -21.0830   -8.8758   19.8960 H   0  0  0  0  0  0
  -22.3674  -10.9656   19.6156 H   0  0  0  0  0  0
  -21.2017   -7.6136   23.9706 H   0  0  0  0  0  0
  -21.1483   -6.0514   25.9073 H   0  0  0  0  0  0
  -22.0600   -2.7597   23.2855 H   0  0  0  0  0  0
  -22.4067  -11.9873   22.4874 H   0  0  0  0  0  0
  -21.1038  -13.1203   22.2648 H   0  0  0  0  0  0
  -24.6289  -15.8397   20.5204 H   0  0  0  0  0  0
  -26.2339  -15.6407   20.0431 H   0  0  0  0  0  0
  -26.7348  -32.5170   23.0914 H   0  0  0  0  0  0
  -25.0047  -33.9525   25.0201 H   0  0  0  0  0  0
  -22.7826  -31.2696   21.3526 H   0  0  0  0  0  0
  -23.3769  -35.9543   23.3278 H   0  0  0  0  0  0
  -24.3572  -36.8899   22.2064 H   0  0  0  0  0  0
  -23.7239  -37.6398   23.6720 H   0  0  0  0  0  0
  -26.2098  -31.3932   20.6172 H   0  0  0  0  0  0
  -26.9003  -30.7082   22.0479 H   0  0  0  0  0  0
  -28.1497  -28.6462   21.2675 H   0  0  0  0  0  0
  -25.8988  -25.7557   18.9995 H   0  0  0  0  0  0
  -24.0044  -27.2670   18.9582 H   0  0  0  0  0  0
  -23.8591  -30.5231   19.3887 H   0  0  0  0  0  0
  -22.8212  -29.2047   19.8324 H   0  0  0  0  0  0
  -25.1328  -36.1789   25.0790 H   0  0  0  0  0  0
  -21.0035  -28.3352   24.1320 H   0  0  0  0  0  0
  -20.5682  -26.2364   23.3636 H   0  0  0  0  0  0
  -21.6653  -26.7413   22.1198 H   0  0  0  0  0  0
  -19.6919  -25.6274   21.1273 H   0  0  0  0  0  0
  -19.6694  -27.3158   20.6723 H   0  0  0  0  0  0
  -17.4212  -26.6677   21.4047 H   0  0  0  0  0  0
  -18.0355  -26.0092   22.9041 H   0  0  0  0  0  0
  -19.7962  -30.7316   24.2205 H   0  0  0  0  0  0
  -17.5032  -31.6273   24.5158 H   0  0  0  0  0  0
  -15.5370  -30.2972   23.7684 H   0  0  0  0  0  0
  -15.8703  -28.0805   22.7103 H   0  0  0  0  0  0
  -24.5825  -30.7205   25.7659 H   0  0  0  0  0  0
  -24.8925  -32.3009   26.4745 H   0  0  0  0  0  0
  -25.7907  -30.8958   27.0189 H   0  0  0  0  0  0
  -26.3078  -29.6607   24.1401 H   0  0  0  0  0  0
  -27.3959  -29.7271   25.5042 H   0  0  0  0  0  0
  -27.9020  -30.4107   23.9805 H   0  0  0  0  0  0
  -27.2623  -33.3674   26.1990 H   0  0  0  0  0  0
  -28.3902  -32.6868   25.0360 H   0  0  0  0  0  0
  -28.0679  -31.8537   26.5484 H   0  0  0  0  0  0
  -28.2569  -38.0081   24.7513 H   0  0  0  0  0  0
  -28.1088  -36.2604   24.6290 H   0  0  0  0  0  0
  -27.2289  -37.1404   25.8868 H   0  0  0  0  0  0
  -20.9563  -29.8741   21.6683 H   0  0  0  0  0  0
  -26.0137  -38.2774   24.1419 H   0  0  0  0  0  0
  -28.4884  -23.1860   18.2952 H   0  0  0  0  0  0
  -29.8733  -24.1964   18.9049 H   0  0  0  0  0  0
  -29.8173  -23.0791   21.1272 H   0  0  0  0  0  0
  -26.9542  -24.0848   20.0364 H   0  0  0  0  0  0
  -32.3584  -18.1536   20.2663 H   0  0  0  0  0  0
  -32.2927  -19.3932   19.0092 H   0  0  0  0  0  0
  -31.6221  -17.7924   18.7011 H   0  0  0  0  0  0
  -26.3935  -22.3530   21.3510 H   0  0  0  0  0  0
  -27.5478  -21.8917   22.6305 H   0  0  0  0  0  0
  -25.8456  -21.4810   22.7665 H   0  0  0  0  0  0
  -28.6550  -16.0149   20.7681 H   0  0  0  0  0  0
  1 25  1  0  0  0
  1 30  2  0  0  0
  1 82  1  0  0  0
  2  3  1  0  0  0
  2 25  1  0  0  0
  2 84  1  0  0  0
  2 85  1  0  0  0
  3  4  1  0  0  0
  3 86  1  0  0  0
  3 87  1  0  0  0
  4  5  1  0  0  0
  4 88  1  0  0  0
  4 89  1  0  0  0
  5  6  1  0  0  0
  5 26  1  0  0  0
  5 90  1  0  0  0
  6 25  1  0  0  0
  6 91  1  0  0  0
  6 92  1  0  0  0
  7  8  2  0  0  0
  7 26  1  0  0  0
  7 29  1  0  0  0
  8  9  1  0  0  0
  8 22  1  0  0  0
  9 10  1  0  0  0
  9 27  2  0  0  0
 10 11  2  0  0  0
 10 15  1  0  0  0
 11 12  1  0  0  0
 11 93  1  0  0  0
 12 13  2  0  0  0
 12 94  1  0  0  0
 13 14  1  0  0  0
 13 31  1  0  0  0
 14 15  2  0  0  0
 14 95  1  0  0  0
 15 96  1  0  0  0
 16 17  2  0  0  0
 16 21  1  0  0  0
 16 31  1  0  0  0
 17 18  1  0  0  0
 17 97  1  0  0  0
 18 19  2  0  0  0
 18 98  1  0  0  0
 19 20  1  0  0  0
 19 24  1  0  0  0
 20 21  2  0  0  0
 20 99  1  0  0  0
 21 23  1  0  0  0
 22 28  1  0  0  0
 22 32  2  0  0  0
 26 27  1  0  0  0
 28100  1  0  0  0
 28101  1  0  0  0
 29102  1  0  0  0
 29103  1  0  0  0
 33 34  1  0  0  0
 33 66  1  0  0  0
 33 70  2  0  0  0
 34 36  1  0  0  0
 34 59  1  0  0  0
 34104  1  0  0  0
 35 44  2  0  0  0
 35 45  1  0  0  0
 35 68  1  0  0  0
 36 56  1  0  0  0
 36105  1  0  0  0
 37 39  1  0  0  0
 37 47  1  0  0  0
 37 66  1  0  0  0
 37106  1  0  0  0
 38 43  2  0  0  0
 38 46  1  0  0  0
 38 47  1  0  0  0
 39 64  1  0  0  0
 39 67  2  0  0  0
 40 52  1  0  0  0
 40 53  2  0  0  0
 40 58  1  0  0  0
 41107  1  0  0  0
 41108  1  0  0  0
 41109  1  0  0  0
 41 48  1  0  0  0
 42 43  1  0  0  0
 42 66  1  0  0  0
 42110  1  0  0  0
 42111  1  0  0  0
 43 44  1  0  0  0
 44112  1  0  0  0
 45 46  2  0  0  0
 45113  1  0  0  0
 46114  1  0  0  0
 47115  1  0  0  0
 47116  1  0  0  0
 48 56  1  0  0  0
 48 65  1  0  0  0
 48117  1  0  0  0
 49 50  1  0  0  0
 49 53  1  0  0  0
 49 64  1  0  0  0
 49118  1  0  0  0
 50 51  1  0  0  0
 50119  1  0  0  0
 50120  1  0  0  0
 51 52  1  0  0  0
 51121  1  0  0  0
 51122  1  0  0  0
 52123  1  0  0  0
 52124  1  0  0  0
 53 54  1  0  0  0
 54 55  2  0  0  0
 54125  1  0  0  0
 55 57  1  0  0  0
 55126  1  0  0  0
 56 69  2  0  0  0
 57 58  2  0  0  0
 57127  1  0  0  0
 58128  1  0  0  0
 59 60  1  0  0  0
 59 61  1  0  0  0
 59 62  1  0  0  0
 60129  1  0  0  0
 60130  1  0  0  0
 60131  1  0  0  0
 61132  1  0  0  0
 61133  1  0  0  0
 61134  1  0  0  0
 62135  1  0  0  0
 62136  1  0  0  0
 62137  1  0  0  0
 63 65  1  0  0  0
 63138  1  0  0  0
 63139  1  0  0  0
 63140  1  0  0  0
 64141  1  0  0  0
 65142  1  0  0  0
 68 77  1  0  0  0
 71 74  1  0  0  0
 71 80  2  0  0  0
 71 76  1  0  0  0
 72 73  2  0  0  0
 72 78  1  0  0  0
 72 80  1  0  0  0
 73 81  1  0  0  0
 73 82  1  0  0  0
 74 81  2  0  0  0
 74 83  1  0  0  0
 75 76  1  0  0  0
 75 77  1  0  0  0
 75143  1  0  0  0
 75144  1  0  0  0
 76 77  1  0  0  0
 76145  1  0  0  0
 77146  1  0  0  0
 78147  1  0  0  0
 78148  1  0  0  0
 78149  1  0  0  0
 79 83  1  0  0  0
 79150  1  0  0  0
 79151  1  0  0  0
 79152  1  0  0  0
 82153  1  0  0  0
M  ISO  4   1 100  68 101  77 101  82 100
M  END
> <chiral flag>
0

> <version>
0

> <s_m_source_file>
/data/baiqing/PycharmProjects/Reinvent-master-3.2/result/LINK_invent/BTK/process_docking_weight1_custom_sum_contain_oxygen_bond_distance_aromatic_linkinvent_7_9_3/rearranged_h_0180.sdf

> <i_m_source_file_index>
70

> <r_mmod_Potential_Energy-OPLS-2005>
1080.10986328125

> <r_mmod_Stretch_Energy-OPLS-2005>
485.442077636719

> <r_mmod_Bend_Energy-OPLS-2005>
430.522430419922

> <r_mmod_Torsional_Energy-OPLS-2005>
239.667816162109

> <r_mmod_Improper_Torsional_Energy-OPLS-2005>
4.23406600952148

> <r_mmod_Van_der_Waal_Energy-OPLS-2005>
128.82243347168

> <r_mmod_Electrostatic_Energy-OPLS-2005>
-382.312530517578

> <r_mmod_Solvation_Energy-OPLS-2005>
-219.705993652344

> <b_mmod_Minimization_Converged-OPLS-2005>
0

> <r_mmod_RMS_Derivative-OPLS-2005>
1.04606425762177

$$$$
70
                    3D
 Structure written by MMmdl.
156164  0  0  1  0            999 V2000
  -30.6752  -14.6367   20.4955 C   0  0  0  0  0  0
  -30.4196  -12.3932   19.4627 C   0  0  0  0  0  0
  -29.5005  -12.4963   18.2280 C   0  0  0  0  0  0
  -28.0255  -12.3392   18.6429 C   0  0  0  0  0  0
  -27.6462  -13.2281   19.8577 C   0  0  2  0  0  0
  -28.6914  -13.1307   20.9911 C   0  0  0  0  0  0
  -25.2524  -13.8199   20.5707 C   0  0  0  0  0  0
  -24.1811  -13.0445   20.9217 C   0  0  0  0  0  0
  -24.6400  -11.6922   20.8764 C   0  0  0  0  0  0
  -23.9080  -10.4292   21.0417 C   0  0  0  0  0  0
  -24.3628   -9.4199   21.9190 C   0  0  0  0  0  0
  -23.6299   -8.2235   22.0756 C   0  0  0  0  0  0
  -22.4279   -8.0281   21.3547 C   0  0  0  0  0  0
  -21.9919   -9.0259   20.4650 C   0  0  0  0  0  0
  -22.7250  -10.2139   20.3065 C   0  0  0  0  0  0
  -21.6849   -6.0738   22.5280 C   0  0  0  0  0  0
  -21.4006   -6.5637   23.8214 C   0  0  0  0  0  0
  -21.3667   -5.6792   24.9178 C   0  0  0  0  0  0
  -21.6053   -4.3056   24.7224 C   0  0  0  0  0  0
  -21.8814   -3.8148   23.4344 C   0  0  0  0  0  0
  -21.9188   -4.6964   22.3399 C   0  0  0  0  0  0
  -22.7827  -13.5229   21.1868 C   0  0  0  0  0  0
  -22.1657   -4.2152   21.0977 F   0  0  0  0  0  0
  -21.5642   -3.4540   25.7737 F   0  0  0  0  0  0
  -30.0020  -13.4470   20.4110 N   0  0  0  0  0  0
  -26.2960  -12.9405   20.3326 N   0  0  0  0  0  0
  -25.9331  -11.6549   20.5782 N   0  0  0  0  0  0
  -22.0474  -12.8218   22.0423 N   0  0  0  0  0  0
  -25.4212  -15.1923   20.4103 N   0  0  0  0  0  0
  -31.8575  -14.7133   20.1530 O   0  0  0  0  0  0
  -21.6637   -6.8883   21.4243 O   0  0  0  0  0  0
  -22.3510  -14.5534   20.6715 O   0  0  0  0  0  0
  -24.6245  -31.8597   23.2018 C   0  0  0  0  0  0
  -25.9090  -32.4782   23.8350 C   0  0  1  0  0  0
  -27.2264  -27.3335   20.1245 C   0  0  0  0  0  0
  -25.5906  -33.8583   24.2272 N   0  0  0  0  0  0
  -23.4193  -30.4814   21.5430 C   0  0  2  0  0  0
  -24.8700  -28.9355   20.1109 C   0  0  0  0  0  0
  -22.7472  -29.4617   22.4930 C   0  0  0  0  0  0
  -18.0286  -28.1384   22.8485 C   0  0  0  0  0  0
  -24.1489  -36.7306   23.2631 C   0  0  0  0  0  0
  -25.9580  -30.7964   21.3701 C   0  0  0  0  0  0
  -26.0370  -29.4229   20.7155 C   0  0  0  0  0  0
  -27.2231  -28.6324   20.7145 C   0  0  0  0  0  0
  -26.0448  -26.8908   19.4980 C   0  0  0  0  0  0
  -24.8745  -27.6739   19.4924 C   0  0  0  0  0  0
  -23.6356  -29.8132   20.1591 C   0  0  0  0  0  0
  -25.4108  -36.3087   24.0324 C   0  0  1  0  0  0
  -20.5888  -28.3685   23.1289 C   0  0  2  0  0  0
  -20.6779  -26.9411   22.5413 C   0  0  0  0  0  0
  -19.5755  -26.6385   21.5214 C   0  0  0  0  0  0
  -18.1937  -26.7924   22.1630 C   0  0  0  0  0  0
  -19.1539  -28.8851   23.2882 C   0  0  0  0  0  0
  -18.9460  -30.1454   23.8898 C   0  0  0  0  0  0
  -17.6459  -30.6584   24.0566 C   0  0  0  0  0  0
  -25.9045  -34.9456   23.5102 C   0  0  0  0  0  0
  -16.5352  -29.9084   23.6326 C   0  0  0  0  0  0
  -16.7273  -28.6504   23.0342 C   0  0  0  0  0  0
  -26.4480  -31.6588   25.0716 C   0  0  0  0  0  0
  -25.3721  -31.3723   26.1450 C   0  0  0  0  0  0
  -27.0317  -30.3014   24.6153 C   0  0  0  0  0  0
  -27.6041  -32.4321   25.7491 C   0  0  0  0  0  0
  -27.5588  -37.1790   24.8446 C   0  0  0  0  0  0
  -21.4187  -29.3036   22.3679 N   0  0  0  0  0  0
  -26.4282  -37.3787   23.9417 N   0  0  0  0  0  0
  -24.6859  -31.0619   22.0959 N   0  0  0  0  0  0
  -23.4202  -28.8159   23.3005 O   0  0  0  0  0  0
  -28.3044  -26.4463   20.1632 O   0  0  0  0  0  0
  -26.5626  -34.8925   22.4675 O   0  0  0  0  0  0
  -23.5413  -32.1386   23.7352 O   0  0  0  0  0  0
  -29.4087  -19.6280   20.6595 C   0  0  0  0  0  0
  -29.8041  -18.4515   20.7040 C   0  0  0  0  0  0
  -29.0420  -21.0881   20.6626 C   0  0  0  0  0  0
  -29.7583  -22.1124   19.9533 C   0  0  0  0  0  0
  -27.6884  -22.8093   21.5251 C   0  0  0  0  0  0
  -28.4129  -23.8388   20.8407 C   0  0  0  0  0  0
  -26.5362  -23.1224   22.4639 C   0  0  0  0  0  0
  -32.2859  -21.8898   19.8061 C   0  0  0  0  0  0
  -30.5992  -17.1610   20.7870 C   0  0  0  0  0  0
  -30.9484  -21.7873   19.0612 C   0  0  0  0  0  0
  -28.1591  -25.3709   21.1614 C   0  0  0  0  0  0
  -27.9923  -21.4784   21.4314 N   0  0  0  0  0  0
  -29.4561  -23.4554   20.0484 N   0  0  0  0  0  0
  -29.9757  -15.7867   20.7707 N   0  0  0  0  0  0
  -31.4646  -12.4871   19.1633 H   0  0  0  0  0  0
  -30.3315  -11.4105   19.9287 H   0  0  0  0  0  0
  -29.7653  -11.7334   17.4948 H   0  0  0  0  0  0
  -29.6452  -13.4594   17.7362 H   0  0  0  0  0  0
  -27.8670  -11.2894   18.8917 H   0  0  0  0  0  0
  -27.3685  -12.5530   17.7989 H   0  0  0  0  0  0
  -27.6534  -14.2560   19.4949 H   0  0  0  0  0  0
  -28.7031  -12.1299   21.4251 H   0  0  0  0  0  0
  -28.4456  -13.8128   21.8065 H   0  0  0  0  0  0
  -25.2772   -9.5672   22.4770 H   0  0  0  0  0  0
  -24.0008   -7.4622   22.7470 H   0  0  0  0  0  0
  -21.0853   -8.8786   19.8952 H   0  0  0  0  0  0
  -22.3710  -10.9689   19.6183 H   0  0  0  0  0  0
  -21.1984   -7.6142   23.9718 H   0  0  0  0  0  0
  -21.1507   -6.0522   25.9087 H   0  0  0  0  0  0
  -22.0589   -2.7612   23.2838 H   0  0  0  0  0  0
  -22.4096  -11.9887   22.4819 H   0  0  0  0  0  0
  -21.1092  -13.1243   22.2624 H   0  0  0  0  0  0
  -24.6528  -15.8456   20.5169 H   0  0  0  0  0  0
  -26.2662  -15.6319   20.0684 H   0  0  0  0  0  0
  -26.7159  -32.5462   23.1104 H   0  0  0  0  0  0
  -25.0027  -33.9727   25.0400 H   0  0  0  0  0  0
  -22.7124  -31.3011   21.3976 H   0  0  0  0  0  0
  -23.3753  -35.9635   23.3271 H   0  0  0  0  0  0
  -24.3591  -36.8952   22.2052 H   0  0  0  0  0  0
  -23.7240  -37.6500   23.6669 H   0  0  0  0  0  0
  -26.0837  -31.5589   20.6001 H   0  0  0  0  0  0
  -26.8407  -30.8505   21.9957 H   0  0  0  0  0  0
  -28.1190  -28.9985   21.1965 H   0  0  0  0  0  0
  -26.0228  -25.9143   19.0347 H   0  0  0  0  0  0
  -23.9793  -27.2932   19.0201 H   0  0  0  0  0  0
  -23.7533  -30.5881   19.4009 H   0  0  0  0  0  0
  -22.7578  -29.2392   19.8570 H   0  0  0  0  0  0
  -25.1285  -36.1931   25.0816 H   0  0  0  0  0  0
  -20.9982  -28.3259   24.1409 H   0  0  0  0  0  0
  -20.5685  -26.2292   23.3610 H   0  0  0  0  0  0
  -21.6647  -26.7442   22.1202 H   0  0  0  0  0  0
  -19.6919  -25.6298   21.1241 H   0  0  0  0  0  0
  -19.6693  -27.3201   20.6747 H   0  0  0  0  0  0
  -17.4204  -26.6657   21.4038 H   0  0  0  0  0  0
  -18.0348  -26.0069   22.9033 H   0  0  0  0  0  0
  -19.7936  -30.7270   24.2266 H   0  0  0  0  0  0
  -17.5014  -31.6263   24.5169 H   0  0  0  0  0  0
  -15.5354  -30.2988   23.7642 H   0  0  0  0  0  0
  -15.8674  -28.0827   22.7046 H   0  0  0  0  0  0
  -24.5880  -30.7090   25.7777 H   0  0  0  0  0  0
  -24.8933  -32.2892   26.4895 H   0  0  0  0  0  0
  -25.8053  -30.8882   27.0211 H   0  0  0  0  0  0
  -26.2885  -29.6781   24.1165 H   0  0  0  0  0  0
  -27.4006  -29.7250   25.4646 H   0  0  0  0  0  0
  -27.8758  -30.4303   23.9375 H   0  0  0  0  0  0
  -27.2632  -33.3597   26.2101 H   0  0  0  0  0  0
  -28.3834  -32.6922   25.0316 H   0  0  0  0  0  0
  -28.0727  -31.8431   26.5383 H   0  0  0  0  0  0
  -28.2549  -38.0142   24.7575 H   0  0  0  0  0  0
  -28.1142  -36.2680   24.6164 H   0  0  0  0  0  0
  -27.2324  -37.1307   25.8848 H   0  0  0  0  0  0
  -20.9362  -29.8761   21.6894 H   0  0  0  0  0  0
  -26.0162  -38.2849   24.1471 H   0  0  0  0  0  0
  -25.7388  -23.6404   21.9311 H   0  0  0  0  0  0
  -26.8718  -23.7517   23.2882 H   0  0  0  0  0  0
  -26.1090  -22.2155   22.8934 H   0  0  0  0  0  0
  -33.1182  -21.6477   19.1447 H   0  0  0  0  0  0
  -32.3213  -21.1997   20.6497 H   0  0  0  0  0  0
  -32.4478  -22.8976   20.1894 H   0  0  0  0  0  0
  -31.1936  -17.2343   21.6995 H   0  0  0  0  0  0
  -31.3174  -17.2245   19.9674 H   0  0  0  0  0  0
  -30.9505  -22.4731   18.2133 H   0  0  0  0  0  0
  -30.8355  -20.7934   18.6284 H   0  0  0  0  0  0
  -28.8513  -25.6201   21.9659 H   0  0  0  0  0  0
  -27.1759  -25.4620   21.6218 H   0  0  0  0  0  0
  -28.9935  -15.7029   20.9873 H   0  0  0  0  0  0
  1 25  1  0  0  0
  1 30  2  0  0  0
  1 84  1  0  0  0
  2  3  1  0  0  0
  2 25  1  0  0  0
  2 85  1  0  0  0
  2 86  1  0  0  0
  3  4  1  0  0  0
  3 87  1  0  0  0
  3 88  1  0  0  0
  4  5  1  0  0  0
  4 89  1  0  0  0
  4 90  1  0  0  0
  5  6  1  0  0  0
  5 26  1  0  0  0
  5 91  1  0  0  0
  6 25  1  0  0  0
  6 92  1  0  0  0
  6 93  1  0  0  0
  7  8  2  0  0  0
  7 26  1  0  0  0
  7 29  1  0  0  0
  8  9  1  0  0  0
  8 22  1  0  0  0
  9 10  1  0  0  0
  9 27  2  0  0  0
 10 11  2  0  0  0
 10 15  1  0  0  0
 11 12  1  0  0  0
 11 94  1  0  0  0
 12 13  2  0  0  0
 12 95  1  0  0  0
 13 14  1  0  0  0
 13 31  1  0  0  0
 14 15  2  0  0  0
 14 96  1  0  0  0
 15 97  1  0  0  0
 16 17  2  0  0  0
 16 21  1  0  0  0
 16 31  1  0  0  0
 17 18  1  0  0  0
 17 98  1  0  0  0
 18 19  2  0  0  0
 18 99  1  0  0  0
 19 20  1  0  0  0
 19 24  1  0  0  0
 20 21  2  0  0  0
 20100  1  0  0  0
 21 23  1  0  0  0
 22 28  1  0  0  0
 22 32  2  0  0  0
 26 27  1  0  0  0
 28101  1  0  0  0
 28102  1  0  0  0
 29103  1  0  0  0
 29104  1  0  0  0
 33 34  1  0  0  0
 33 66  1  0  0  0
 33 70  2  0  0  0
 34 36  1  0  0  0
 34 59  1  0  0  0
 34105  1  0  0  0
 35 44  2  0  0  0
 35 45  1  0  0  0
 35 68  1  0  0  0
 36 56  1  0  0  0
 36106  1  0  0  0
 37 39  1  0  0  0
 37 47  1  0  0  0
 37 66  1  0  0  0
 37107  1  0  0  0
 38 43  2  0  0  0
 38 46  1  0  0  0
 38 47  1  0  0  0
 39 64  1  0  0  0
 39 67  2  0  0  0
 40 52  1  0  0  0
 40 53  2  0  0  0
 40 58  1  0  0  0
 41108  1  0  0  0
 41109  1  0  0  0
 41110  1  0  0  0
 41 48  1  0  0  0
 42 43  1  0  0  0
 42 66  1  0  0  0
 42111  1  0  0  0
 42112  1  0  0  0
 43 44  1  0  0  0
 44113  1  0  0  0
 45 46  2  0  0  0
 45114  1  0  0  0
 46115  1  0  0  0
 47116  1  0  0  0
 47117  1  0  0  0
 48 56  1  0  0  0
 48 65  1  0  0  0
 48118  1  0  0  0
 49 50  1  0  0  0
 49 53  1  0  0  0
 49 64  1  0  0  0
 49119  1  0  0  0
 50 51  1  0  0  0
 50120  1  0  0  0
 50121  1  0  0  0
 51 52  1  0  0  0
 51122  1  0  0  0
 51123  1  0  0  0
 52124  1  0  0  0
 52125  1  0  0  0
 53 54  1  0  0  0
 54 55  2  0  0  0
 54126  1  0  0  0
 55 57  1  0  0  0
 55127  1  0  0  0
 56 69  2  0  0  0
 57 58  2  0  0  0
 57128  1  0  0  0
 58129  1  0  0  0
 59 60  1  0  0  0
 59 61  1  0  0  0
 59 62  1  0  0  0
 60130  1  0  0  0
 60131  1  0  0  0
 60132  1  0  0  0
 61133  1  0  0  0
 61134  1  0  0  0
 61135  1  0  0  0
 62136  1  0  0  0
 62137  1  0  0  0
 62138  1  0  0  0
 63 65  1  0  0  0
 63139  1  0  0  0
 63140  1  0  0  0
 63141  1  0  0  0
 64142  1  0  0  0
 65143  1  0  0  0
 68 81  1  0  0  0
 71 72  3  0  0  0
 71 73  1  0  0  0
 72 79  1  0  0  0
 73 74  2  0  0  0
 73 82  1  0  0  0
 74 80  1  0  0  0
 74 83  1  0  0  0
 75 76  1  0  0  0
 75 77  1  0  0  0
 75 82  2  0  0  0
 76 81  1  0  0  0
 76 83  2  0  0  0
 77144  1  0  0  0
 77145  1  0  0  0
 77146  1  0  0  0
 78 80  1  0  0  0
 78147  1  0  0  0
 78148  1  0  0  0
 78149  1  0  0  0
 79 84  1  0  0  0
 79150  1  0  0  0
 79151  1  0  0  0
 80152  1  0  0  0
 80153  1  0  0  0
 81154  1  0  0  0
 81155  1  0  0  0
 84156  1  0  0  0
M  ISO  4   1 100  68 101  81 101  84 100
M  END
> <chiral flag>
0

> <version>
0

> <s_m_source_file>
/data/baiqing/PycharmProjects/Reinvent-master-3.2/result/LINK_invent/BTK/process_docking_weight1_custom_sum_contain_oxygen_bond_distance_aromatic_linkinvent_7_9_3/rearranged_h_0180.sdf

> <i_m_source_file_index>
71

> <r_mmod_Potential_Energy-OPLS-2005>
121.264846801758

> <r_mmod_Stretch_Energy-OPLS-2005>
79.6783142089844

> <r_mmod_Bend_Energy-OPLS-2005>
142.233184814453

> <r_mmod_Torsional_Energy-OPLS-2005>
223.970306396484

> <r_mmod_Improper_Torsional_Energy-OPLS-2005>
5.23704099655151

> <r_mmod_Van_der_Waal_Energy-OPLS-2005>
144.707733154297

> <r_mmod_Electrostatic_Energy-OPLS-2005>
-307.892578125

> <r_mmod_Solvation_Energy-OPLS-2005>
-217.960083007812

> <b_mmod_Minimization_Converged-OPLS-2005>
0

> <r_mmod_RMS_Derivative-OPLS-2005>
0.903090238571167

$$$$
71
                    3D
 Structure written by MMmdl.
161170  0  0  1  0            999 V2000
  -30.3917  -15.2895   20.2842 C   0  0  0  0  0  0
  -30.4498  -12.8031   19.5197 C   0  0  0  0  0  0
  -29.5438  -12.4865   18.3000 C   0  0  0  0  0  0
  -28.0800  -12.2604   18.7253 C   0  0  0  0  0  0
  -27.6049  -13.2535   19.8156 C   0  0  2  0  0  0
  -28.6443  -13.4623   20.9341 C   0  0  0  0  0  0
  -25.2413  -13.8198   20.5793 C   0  0  0  0  0  0
  -24.1731  -13.0419   20.9264 C   0  0  0  0  0  0
  -24.6355  -11.6906   20.8788 C   0  0  0  0  0  0
  -23.9049  -10.4281   21.0426 C   0  0  0  0  0  0
  -24.3611   -9.4195   21.9197 C   0  0  0  0  0  0
  -23.6292   -8.2228   22.0757 C   0  0  0  0  0  0
  -22.4267   -8.0272   21.3548 C   0  0  0  0  0  0
  -21.9899   -9.0244   20.4652 C   0  0  0  0  0  0
  -22.7228  -10.2124   20.3067 C   0  0  0  0  0  0
  -21.6845   -6.0736   22.5283 C   0  0  0  0  0  0
  -21.4018   -6.5642   23.8218 C   0  0  0  0  0  0
  -21.3657   -5.6794   24.9180 C   0  0  0  0  0  0
  -21.6042   -4.3057   24.7230 C   0  0  0  0  0  0
  -21.8818   -3.8149   23.4351 C   0  0  0  0  0  0
  -21.9194   -4.6966   22.3409 C   0  0  0  0  0  0
  -22.7760  -13.5191   21.1911 C   0  0  0  0  0  0
  -22.1667   -4.2156   21.0987 F   0  0  0  0  0  0
  -21.5618   -3.4540   25.7743 F   0  0  0  0  0  0
  -29.8666  -13.9619   20.2837 N   0  0  0  0  0  0
  -26.2797  -12.9412   20.3269 N   0  0  0  0  0  0
  -25.9280  -11.6545   20.5772 N   0  0  0  0  0  0
  -22.0414  -12.8173   22.0466 N   0  0  0  0  0  0
  -25.4116  -15.1934   20.4283 N   0  0  0  0  0  0
  -31.6331  -15.3091   20.2471 O   0  0  0  0  0  0
  -21.6630   -6.8871   21.4241 O   0  0  0  0  0  0
  -22.3457  -14.5503   20.6764 O   0  0  0  0  0  0
  -24.6590  -31.8251   23.1692 C   0  0  0  0  0  0
  -25.9289  -32.4594   23.8147 C   0  0  1  0  0  0
  -27.2318  -26.9419   20.1969 C   0  0  0  0  0  0
  -25.5961  -33.8403   24.2072 N   0  0  0  0  0  0
  -23.4735  -30.4345   21.5161 C   0  0  2  0  0  0
  -24.9274  -28.8119   20.1187 C   0  0  0  0  0  0
  -22.7645  -29.4452   22.4773 C   0  0  0  0  0  0
  -18.0323  -28.1425   22.8474 C   0  0  0  0  0  0
  -24.1481  -36.7194   23.2648 C   0  0  0  0  0  0
  -26.0385  -30.6368   21.3961 C   0  0  0  0  0  0
  -26.1060  -29.2229   20.7516 C   0  0  0  0  0  0
  -27.2480  -28.3087   20.7645 C   0  0  0  0  0  0
  -26.0210  -26.6706   19.5200 C   0  0  0  0  0  0
  -24.9081  -27.5544   19.4868 C   0  0  0  0  0  0
  -23.7143  -29.7413   20.1446 C   0  0  0  0  0  0
  -25.4125  -36.2971   24.0306 C   0  0  1  0  0  0
  -20.5944  -28.3764   23.1196 C   0  0  2  0  0  0
  -20.6793  -26.9442   22.5415 C   0  0  0  0  0  0
  -19.5775  -26.6397   21.5216 C   0  0  0  0  0  0
  -18.1959  -26.7961   22.1625 C   0  0  0  0  0  0
  -19.1586  -28.8912   23.2826 C   0  0  0  0  0  0
  -18.9503  -30.1495   23.8872 C   0  0  0  0  0  0
  -17.6499  -30.6611   24.0577 C   0  0  0  0  0  0
  -25.9093  -34.9355   23.5017 C   0  0  0  0  0  0
  -16.5391  -29.9106   23.6340 C   0  0  0  0  0  0
  -16.7306  -28.6522   23.0362 C   0  0  0  0  0  0
  -26.4554  -31.6531   25.0667 C   0  0  0  0  0  0
  -25.3685  -31.3798   26.1336 C   0  0  0  0  0  0
  -27.0441  -30.2898   24.6385 C   0  0  0  0  0  0
  -27.6066  -32.4317   25.7461 C   0  0  0  0  0  0
  -27.5570  -37.1753   24.8465 C   0  0  0  0  0  0
  -21.4315  -29.3046   22.3521 N   0  0  0  0  0  0
  -26.4269  -37.3713   23.9422 N   0  0  0  0  0  0
  -24.7449  -30.9928   22.0812 N   0  0  0  0  0  0
  -23.4196  -28.8034   23.3017 O   0  0  0  0  0  0
  -28.3324  -25.9425   20.2111 O   0  0  0  0  0  0
  -26.5713  -34.8894   22.4616 O   0  0  0  0  0  0
  -23.5672  -32.1213   23.6810 O   0  0  0  0  0  0
  -29.9220  -22.4805   20.3959 C   0  0  0  0  0  0
  -28.9762  -21.3821   20.3893 C   0  0  0  0  0  0
  -27.6942  -22.0853   20.2840 C   0  0  0  0  0  0
  -28.4341  -24.4428   20.2495 C   0  0  0  0  0  0
  -30.1077  -18.4541   18.4866 C   0  0  0  0  0  0
  -29.0218  -16.2650   18.6304 C   0  0  0  0  0  0
  -29.6878  -17.2541   17.6411 C   0  0  2  0  0  0
  -29.4439  -18.1942   19.8247 C   0  0  2  0  0  0
  -26.4344  -21.2498   20.2824 C   0  0  0  0  0  0
  -30.4689  -15.7387   15.7038 C   0  0  0  0  0  0
  -29.3371  -19.6987   20.7613 C   0  0  0  0  0  0
  -30.8784  -16.6641   16.8581 C   0  0  0  0  0  0
  -29.6711  -23.8707   20.3274 N   0  0  0  0  0  0
  -27.4457  -23.4950   20.2161 N   0  0  0  0  0  0
  -29.5542  -16.5042   20.0032 N   0  0  0  0  0  0
  -31.4579  -13.0340   19.1717 H   0  0  0  0  0  0
  -30.5484  -11.9296   20.1666 H   0  0  0  0  0  0
  -29.9127  -11.5981   17.7859 H   0  0  0  0  0  0
  -29.6031  -13.2818   17.5637 H   0  0  0  0  0  0
  -28.0157  -11.2433   19.1146 H   0  0  0  0  0  0
  -27.4195  -12.2948   17.8585 H   0  0  0  0  0  0
  -27.4891  -14.2001   19.2968 H   0  0  0  0  0  0
  -28.8215  -12.5453   21.4974 H   0  0  0  0  0  0
  -28.2834  -14.2048   21.6476 H   0  0  0  0  0  0
  -25.2753   -9.5673   22.4779 H   0  0  0  0  0  0
  -24.0010   -7.4605   22.7454 H   0  0  0  0  0  0
  -21.0838   -8.8759   19.8948 H   0  0  0  0  0  0
  -22.3684  -10.9671   19.6185 H   0  0  0  0  0  0
  -21.2016   -7.6151   23.9725 H   0  0  0  0  0  0
  -21.1476   -6.0526   25.9083 H   0  0  0  0  0  0
  -22.0598   -2.7612   23.2851 H   0  0  0  0  0  0
  -22.4044  -11.9848   22.4867 H   0  0  0  0  0  0
  -21.1033  -13.1197   22.2679 H   0  0  0  0  0  0
  -24.6484  -15.8491   20.5526 H   0  0  0  0  0  0
  -26.2782  -15.6400   20.1589 H   0  0  0  0  0  0
  -26.7354  -32.5160   23.0860 H   0  0  0  0  0  0
  -25.0042  -33.9456   25.0181 H   0  0  0  0  0  0
  -22.7863  -31.2651   21.3412 H   0  0  0  0  0  0
  -23.3769  -35.9494   23.3271 H   0  0  0  0  0  0
  -24.3557  -36.8875   22.2068 H   0  0  0  0  0  0
  -23.7201  -37.6359   23.6721 H   0  0  0  0  0  0
  -26.2114  -31.3740   20.6111 H   0  0  0  0  0  0
  -26.9016  -30.7012   22.0466 H   0  0  0  0  0  0
  -28.1497  -28.6323   21.2653 H   0  0  0  0  0  0
  -25.9148  -25.7124   19.0298 H   0  0  0  0  0  0
  -24.0112  -27.2349   18.9742 H   0  0  0  0  0  0
  -23.8727  -30.5048   19.3815 H   0  0  0  0  0  0
  -22.8245  -29.1943   19.8275 H   0  0  0  0  0  0
  -25.1317  -36.1768   25.0796 H   0  0  0  0  0  0
  -21.0050  -28.3391   24.1314 H   0  0  0  0  0  0
  -20.5665  -26.2384   23.3657 H   0  0  0  0  0  0
  -21.6660  -26.7411   22.1242 H   0  0  0  0  0  0
  -19.6925  -25.6298   21.1270 H   0  0  0  0  0  0
  -19.6718  -27.3185   20.6729 H   0  0  0  0  0  0
  -17.4225  -26.6707   21.4035 H   0  0  0  0  0  0
  -18.0353  -26.0117   22.9033 H   0  0  0  0  0  0
  -19.7978  -30.7311   24.2246 H   0  0  0  0  0  0
  -17.5056  -31.6283   24.5196 H   0  0  0  0  0  0
  -15.5396  -30.3009   23.7674 H   0  0  0  0  0  0
  -15.8706  -28.0834   22.7098 H   0  0  0  0  0  0
  -24.5878  -30.7124   25.7664 H   0  0  0  0  0  0
  -24.8863  -32.3011   26.4616 H   0  0  0  0  0  0
  -25.7927  -30.9074   27.0205 H   0  0  0  0  0  0
  -26.3100  -29.6579   24.1381 H   0  0  0  0  0  0
  -27.3965  -29.7259   25.5032 H   0  0  0  0  0  0
  -27.9039  -30.4076   23.9787 H   0  0  0  0  0  0
  -27.2659  -33.3665   26.1921 H   0  0  0  0  0  0
  -28.3942  -32.6799   25.0332 H   0  0  0  0  0  0
  -28.0654  -31.8512   26.5475 H   0  0  0  0  0  0
  -28.2575  -38.0065   24.7535 H   0  0  0  0  0  0
  -28.1084  -36.2599   24.6262 H   0  0  0  0  0  0
  -27.2293  -37.1361   25.8869 H   0  0  0  0  0  0
  -20.9560  -29.8708   21.6634 H   0  0  0  0  0  0
  -26.0120  -38.2765   24.1468 H   0  0  0  0  0  0
  -30.9680  -22.2405   20.5188 H   0  0  0  0  0  0
  -29.7820  -19.3948   18.0392 H   0  0  0  0  0  0
  -31.1896  -18.5062   18.6175 H   0  0  0  0  0  0
  -29.1254  -15.2633   18.2251 H   0  0  0  0  0  0
  -27.9408  -16.4179   18.6403 H   0  0  0  0  0  0
  -28.9324  -17.5807   16.9233 H   0  0  0  0  0  0
  -28.3758  -18.2581   19.6031 H   0  0  0  0  0  0
  -26.6126  -20.2907   19.7961 H   0  0  0  0  0  0
  -25.6302  -21.7520   19.7444 H   0  0  0  0  0  0
  -26.1074  -21.0622   21.3048 H   0  0  0  0  0  0
  -31.3497  -15.3673   15.1785 H   0  0  0  0  0  0
  -29.8508  -16.2632   14.9749 H   0  0  0  0  0  0
  -29.9079  -14.8726   16.0471 H   0  0  0  0  0  0
  -28.6420  -19.4691   21.5698 H   0  0  0  0  0  0
  -30.2992  -19.7632   21.2693 H   0  0  0  0  0  0
  -31.5477  -16.1355   17.5377 H   0  0  0  0  0  0
  -31.4673  -17.4792   16.4346 H   0  0  0  0  0  0
  1 25  1  0  0  0
  1 30  2  0  0  0
  1 85  1  0  0  0
  2  3  1  0  0  0
  2 25  1  0  0  0
  2 86  1  0  0  0
  2 87  1  0  0  0
  3  4  1  0  0  0
  3 88  1  0  0  0
  3 89  1  0  0  0
  4  5  1  0  0  0
  4 90  1  0  0  0
  4 91  1  0  0  0
  5  6  1  0  0  0
  5 26  1  0  0  0
  5 92  1  0  0  0
  6 25  1  0  0  0
  6 93  1  0  0  0
  6 94  1  0  0  0
  7  8  2  0  0  0
  7 26  1  0  0  0
  7 29  1  0  0  0
  8  9  1  0  0  0
  8 22  1  0  0  0
  9 10  1  0  0  0
  9 27  2  0  0  0
 10 11  2  0  0  0
 10 15  1  0  0  0
 11 12  1  0  0  0
 11 95  1  0  0  0
 12 13  2  0  0  0
 12 96  1  0  0  0
 13 14  1  0  0  0
 13 31  1  0  0  0
 14 15  2  0  0  0
 14 97  1  0  0  0
 15 98  1  0  0  0
 16 17  2  0  0  0
 16 21  1  0  0  0
 16 31  1  0  0  0
 17 18  1  0  0  0
 17 99  1  0  0  0
 18 19  2  0  0  0
 18100  1  0  0  0
 19 20  1  0  0  0
 19 24  1  0  0  0
 20 21  2  0  0  0
 20101  1  0  0  0
 21 23  1  0  0  0
 22 28  1  0  0  0
 22 32  2  0  0  0
 26 27  1  0  0  0
 28102  1  0  0  0
 28103  1  0  0  0
 29104  1  0  0  0
 29105  1  0  0  0
 33 34  1  0  0  0
 33 66  1  0  0  0
 33 70  2  0  0  0
 34 36  1  0  0  0
 34 59  1  0  0  0
 34106  1  0  0  0
 35 44  2  0  0  0
 35 45  1  0  0  0
 35 68  1  0  0  0
 36 56  1  0  0  0
 36107  1  0  0  0
 37 39  1  0  0  0
 37 47  1  0  0  0
 37 66  1  0  0  0
 37108  1  0  0  0
 38 43  2  0  0  0
 38 46  1  0  0  0
 38 47  1  0  0  0
 39 64  1  0  0  0
 39 67  2  0  0  0
 40 52  1  0  0  0
 40 53  2  0  0  0
 40 58  1  0  0  0
 41109  1  0  0  0
 41110  1  0  0  0
 41111  1  0  0  0
 41 48  1  0  0  0
 42 43  1  0  0  0
 42 66  1  0  0  0
 42112  1  0  0  0
 42113  1  0  0  0
 43 44  1  0  0  0
 44114  1  0  0  0
 45 46  2  0  0  0
 45115  1  0  0  0
 46116  1  0  0  0
 47117  1  0  0  0
 47118  1  0  0  0
 48 56  1  0  0  0
 48 65  1  0  0  0
 48119  1  0  0  0
 49 50  1  0  0  0
 49 53  1  0  0  0
 49 64  1  0  0  0
 49120  1  0  0  0
 50 51  1  0  0  0
 50121  1  0  0  0
 50122  1  0  0  0
 51 52  1  0  0  0
 51123  1  0  0  0
 51124  1  0  0  0
 52125  1  0  0  0
 52126  1  0  0  0
 53 54  1  0  0  0
 54 55  2  0  0  0
 54127  1  0  0  0
 55 57  1  0  0  0
 55128  1  0  0  0
 56 69  2  0  0  0
 57 58  2  0  0  0
 57129  1  0  0  0
 58130  1  0  0  0
 59 60  1  0  0  0
 59 61  1  0  0  0
 59 62  1  0  0  0
 60131  1  0  0  0
 60132  1  0  0  0
 60133  1  0  0  0
 61134  1  0  0  0
 61135  1  0  0  0
 61136  1  0  0  0
 62137  1  0  0  0
 62138  1  0  0  0
 62139  1  0  0  0
 63 65  1  0  0  0
 63140  1  0  0  0
 63141  1  0  0  0
 63142  1  0  0  0
 64143  1  0  0  0
 65144  1  0  0  0
 68 74  1  0  0  0
 71 72  2  0  0  0
 71 83  1  0  0  0
 71145  1  0  0  0
 72 73  1  0  0  0
 72 81  1  0  0  0
 73 79  1  0  0  0
 73 84  2  0  0  0
 74 83  2  0  0  0
 74 84  1  0  0  0
 75 77  1  0  0  0
 75 78  1  0  0  0
 75146  1  0  0  0
 75147  1  0  0  0
 76 77  1  0  0  0
 76 85  1  0  0  0
 76148  1  0  0  0
 76149  1  0  0  0
 77 82  1  0  0  0
 77150  1  0  0  0
 78 81  1  0  0  0
 78 85  1  0  0  0
 78151  1  0  0  0
 79152  1  0  0  0
 79153  1  0  0  0
 79154  1  0  0  0
 80 82  1  0  0  0
 80155  1  0  0  0
 80156  1  0  0  0
 80157  1  0  0  0
 81158  1  0  0  0
 81159  1  0  0  0
 82160  1  0  0  0
 82161  1  0  0  0
M  ISO  4   1 100  68 101  74 101  85 100
M  END
> <chiral flag>
0

> <version>
0

> <s_m_source_file>
/data/baiqing/PycharmProjects/Reinvent-master-3.2/result/LINK_invent/BTK/process_docking_weight1_custom_sum_contain_oxygen_bond_distance_aromatic_linkinvent_7_9_3/rearranged_h_0180.sdf

> <i_m_source_file_index>
72

> <r_mmod_Potential_Energy-OPLS-2005>
1197.38488769531

> <r_mmod_Stretch_Energy-OPLS-2005>
516.425659179688

> <r_mmod_Bend_Energy-OPLS-2005>
613.666870117188

> <r_mmod_Torsional_Energy-OPLS-2005>
344.772155761719

> <r_mmod_Improper_Torsional_Energy-OPLS-2005>
16.7206287384033

> <r_mmod_Van_der_Waal_Energy-OPLS-2005>
137.031326293945

> <r_mmod_Electrostatic_Energy-OPLS-2005>
-670.528381347656

> <r_mmod_Solvation_Energy-OPLS-2005>
-217.230285644531

> <b_mmod_Minimization_Converged-OPLS-2005>
0

> <r_mmod_RMS_Derivative-OPLS-2005>
1.5358327627182

$$$$
72
                    3D
 Structure written by MMmdl.
157166  0  0  1  0            999 V2000
  -30.6549  -14.6948   20.4894 C   0  0  0  0  0  0
  -30.4265  -12.4336   19.4591 C   0  0  0  0  0  0
  -29.5016  -12.5144   18.2260 C   0  0  0  0  0  0
  -28.0254  -12.3507   18.6385 C   0  0  0  0  0  0
  -27.6461  -13.2274   19.8624 C   0  0  2  0  0  0
  -28.6964  -13.1087   20.9880 C   0  0  0  0  0  0
  -25.2507  -13.8176   20.5675 C   0  0  0  0  0  0
  -24.1802  -13.0427   20.9203 C   0  0  0  0  0  0
  -24.6401  -11.6909   20.8766 C   0  0  0  0  0  0
  -23.9075  -10.4291   21.0415 C   0  0  0  0  0  0
  -24.3619   -9.4200   21.9192 C   0  0  0  0  0  0
  -23.6291   -8.2238   22.0752 C   0  0  0  0  0  0
  -22.4274   -8.0284   21.3541 C   0  0  0  0  0  0
  -21.9917   -9.0258   20.4641 C   0  0  0  0  0  0
  -22.7250  -10.2137   20.3056 C   0  0  0  0  0  0
  -21.6846   -6.0742   22.5277 C   0  0  0  0  0  0
  -21.4007   -6.5648   23.8212 C   0  0  0  0  0  0
  -21.3659   -5.6794   24.9173 C   0  0  0  0  0  0
  -21.6043   -4.3059   24.7220 C   0  0  0  0  0  0
  -21.8814   -3.8154   23.4338 C   0  0  0  0  0  0
  -21.9189   -4.6969   22.3395 C   0  0  0  0  0  0
  -22.7823  -13.5213   21.1853 C   0  0  0  0  0  0
  -22.1658   -4.2160   21.0975 F   0  0  0  0  0  0
  -21.5630   -3.4543   25.7729 F   0  0  0  0  0  0
  -29.9917  -13.4871   20.4066 N   0  0  0  0  0  0
  -26.2961  -12.9388   20.3352 N   0  0  0  0  0  0
  -25.9338  -11.6531   20.5805 N   0  0  0  0  0  0
  -22.0473  -12.8206   22.0413 N   0  0  0  0  0  0
  -25.4147  -15.1893   20.4001 N   0  0  0  0  0  0
  -31.8348  -14.7522   20.1267 O   0  0  0  0  0  0
  -21.6631   -6.8887   21.4242 O   0  0  0  0  0  0
  -22.3504  -14.5522   20.6708 O   0  0  0  0  0  0
  -24.6287  -31.8583   23.2019 C   0  0  0  0  0  0
  -25.9133  -32.4766   23.8355 C   0  0  1  0  0  0
  -27.2200  -27.3030   20.1213 C   0  0  0  0  0  0
  -25.5948  -33.8568   24.2288 N   0  0  0  0  0  0
  -23.4242  -30.4820   21.5438 C   0  0  2  0  0  0
  -24.8732  -28.9363   20.1090 C   0  0  0  0  0  0
  -22.7488  -29.4621   22.4920 C   0  0  0  0  0  0
  -18.0289  -28.1385   22.8481 C   0  0  0  0  0  0
  -24.1483  -36.7273   23.2640 C   0  0  0  0  0  0
  -25.9676  -30.7824   21.3775 C   0  0  0  0  0  0
  -26.0436  -29.4093   20.7188 C   0  0  0  0  0  0
  -27.2247  -28.6042   20.7164 C   0  0  0  0  0  0
  -26.0346  -26.8931   19.4764 C   0  0  0  0  0  0
  -24.8712  -27.6837   19.4766 C   0  0  0  0  0  0
  -23.6418  -29.8178   20.1590 C   0  0  0  0  0  0
  -25.4111  -36.3072   24.0335 C   0  0  1  0  0  0
  -20.5890  -28.3692   23.1268 C   0  0  2  0  0  0
  -20.6775  -26.9410   22.5405 C   0  0  0  0  0  0
  -19.5757  -26.6383   21.5203 C   0  0  0  0  0  0
  -18.1935  -26.7935   22.1604 C   0  0  0  0  0  0
  -19.1542  -28.8853   23.2875 C   0  0  0  0  0  0
  -18.9466  -30.1450   23.8898 C   0  0  0  0  0  0
  -17.6466  -30.6585   24.0560 C   0  0  0  0  0  0
  -25.9052  -34.9446   23.5105 C   0  0  0  0  0  0
  -16.5356  -29.9082   23.6335 C   0  0  0  0  0  0
  -16.7273  -28.6498   23.0358 C   0  0  0  0  0  0
  -26.4517  -31.6575   25.0729 C   0  0  0  0  0  0
  -25.3746  -31.3702   26.1451 C   0  0  0  0  0  0
  -27.0361  -30.2999   24.6187 C   0  0  0  0  0  0
  -27.6077  -32.4310   25.7502 C   0  0  0  0  0  0
  -27.5579  -37.1791   24.8466 C   0  0  0  0  0  0
  -21.4198  -29.3045   22.3661 N   0  0  0  0  0  0
  -26.4283  -37.3777   23.9420 N   0  0  0  0  0  0
  -24.6921  -31.0579   22.0978 N   0  0  0  0  0  0
  -23.4201  -28.8162   23.3010 O   0  0  0  0  0  0
  -28.2868  -26.3888   20.1574 O   0  0  0  0  0  0
  -26.5610  -34.8920   22.4663 O   0  0  0  0  0  0
  -23.5446  -32.1386   23.7335 O   0  0  0  0  0  0
  -29.8884  -23.3137   20.9358 C   0  0  0  0  0  0
  -28.5953  -23.7082   20.5289 C   0  0  0  0  0  0
  -27.8283  -22.6095   20.0413 C   0  0  0  0  0  0
  -29.5114  -21.0610   20.4696 C   0  0  0  0  0  0
  -28.9425  -17.8049   21.7486 C   0  0  0  0  0  0
  -28.9571  -16.2572   21.6117 C   0  0  0  0  0  0
  -30.3734  -17.1915   19.9715 C   0  0  0  0  0  0
  -29.4191  -18.3735   20.4096 C   0  0  2  0  0  0
  -26.4069  -22.7937   19.5457 C   0  0  0  0  0  0
  -27.9850  -25.1309   20.8904 C   0  0  0  0  0  0
  -30.3300  -22.0200   20.8942 N   0  0  0  0  0  0
  -28.2848  -21.3147   20.0223 N   0  0  0  0  0  0
  -29.9378  -15.8869   20.5815 N   0  0  0  0  0  0
  -30.0356  -19.7408   20.5050 N   0  0  0  0  0  0
  -31.4676  -12.5440   19.1514 H   0  0  0  0  0  0
  -30.3649  -11.4483   19.9241 H   0  0  0  0  0  0
  -29.7734  -11.7514   17.4960 H   0  0  0  0  0  0
  -29.6387  -13.4750   17.7268 H   0  0  0  0  0  0
  -27.8635  -11.2982   18.8741 H   0  0  0  0  0  0
  -27.3694  -12.5768   17.7971 H   0  0  0  0  0  0
  -27.6529  -14.2597   19.5115 H   0  0  0  0  0  0
  -28.7349  -12.0852   21.3648 H   0  0  0  0  0  0
  -28.4347  -13.7189   21.8488 H   0  0  0  0  0  0
  -25.2756   -9.5678   22.4779 H   0  0  0  0  0  0
  -23.9997   -7.4624   22.7466 H   0  0  0  0  0  0
  -21.0854   -8.8778   19.8937 H   0  0  0  0  0  0
  -22.3710  -10.9680   19.6169 H   0  0  0  0  0  0
  -21.1997   -7.6152   23.9721 H   0  0  0  0  0  0
  -21.1485   -6.0522   25.9078 H   0  0  0  0  0  0
  -22.0594   -2.7616   23.2828 H   0  0  0  0  0  0
  -22.4087  -11.9857   22.4781 H   0  0  0  0  0  0
  -21.1094  -13.1231   22.2631 H   0  0  0  0  0  0
  -24.6373  -15.8354   20.4819 H   0  0  0  0  0  0
  -26.2586  -15.6277   20.0554 H   0  0  0  0  0  0
  -26.7203  -32.5431   23.1105 H   0  0  0  0  0  0
  -25.0141  -33.9710   25.0466 H   0  0  0  0  0  0
  -22.7196  -31.3035   21.3991 H   0  0  0  0  0  0
  -23.3757  -35.9589   23.3291 H   0  0  0  0  0  0
  -24.3581  -36.8896   22.2055 H   0  0  0  0  0  0
  -23.7219  -37.6467   23.6662 H   0  0  0  0  0  0
  -26.1032  -31.5449   20.6097 H   0  0  0  0  0  0
  -26.8465  -30.8308   22.0081 H   0  0  0  0  0  0
  -28.1201  -28.9577   21.2083 H   0  0  0  0  0  0
  -25.9985  -25.9298   18.9888 H   0  0  0  0  0  0
  -23.9776  -27.3176   18.9899 H   0  0  0  0  0  0
  -23.7646  -30.5958   19.4046 H   0  0  0  0  0  0
  -22.7611  -29.2500   19.8524 H   0  0  0  0  0  0
  -25.1292  -36.1916   25.0827 H   0  0  0  0  0  0
  -20.9981  -28.3264   24.1386 H   0  0  0  0  0  0
  -20.5656  -26.2303   23.3610 H   0  0  0  0  0  0
  -21.6645  -26.7431   22.1200 H   0  0  0  0  0  0
  -19.6913  -25.6291   21.1242 H   0  0  0  0  0  0
  -19.6703  -27.3188   20.6732 H   0  0  0  0  0  0
  -17.4206  -26.6686   21.4004 H   0  0  0  0  0  0
  -18.0327  -26.0072   22.8991 H   0  0  0  0  0  0
  -19.7943  -30.7266   24.2270 H   0  0  0  0  0  0
  -17.5023  -31.6272   24.5154 H   0  0  0  0  0  0
  -15.5360  -30.2983   23.7673 H   0  0  0  0  0  0
  -15.8667  -28.0820   22.7085 H   0  0  0  0  0  0
  -24.5962  -30.7002   25.7787 H   0  0  0  0  0  0
  -24.8890  -32.2849   26.4854 H   0  0  0  0  0  0
  -25.8083  -30.8916   27.0239 H   0  0  0  0  0  0
  -26.2931  -29.6740   24.1231 H   0  0  0  0  0  0
  -27.4082  -29.7270   25.4691 H   0  0  0  0  0  0
  -27.8795  -30.4288   23.9399 H   0  0  0  0  0  0
  -27.2705  -33.3631   26.2049 H   0  0  0  0  0  0
  -28.3909  -32.6828   25.0338 H   0  0  0  0  0  0
  -28.0718  -31.8444   26.5441 H   0  0  0  0  0  0
  -28.2582  -38.0102   24.7534 H   0  0  0  0  0  0
  -28.1089  -36.2639   24.6261 H   0  0  0  0  0  0
  -27.2304  -37.1391   25.8869 H   0  0  0  0  0  0
  -20.9381  -29.8767   21.6869 H   0  0  0  0  0  0
  -26.0158  -38.2842   24.1444 H   0  0  0  0  0  0
  -30.5638  -24.0322   21.3761 H   0  0  0  0  0  0
  -29.6369  -18.0947   22.5387 H   0  0  0  0  0  0
  -27.9604  -18.1854   22.0327 H   0  0  0  0  0  0
  -27.9715  -15.9123   21.3040 H   0  0  0  0  0  0
  -29.1912  -15.7898   22.5697 H   0  0  0  0  0  0
  -31.3921  -17.3937   20.3054 H   0  0  0  0  0  0
  -30.4096  -17.1065   18.8845 H   0  0  0  0  0  0
  -28.5713  -18.4180   19.7231 H   0  0  0  0  0  0
  -26.3703  -23.5669   18.7792 H   0  0  0  0  0  0
  -25.7460  -23.0811   20.3626 H   0  0  0  0  0  0
  -26.0149  -21.8759   19.1071 H   0  0  0  0  0  0
  -28.3123  -25.3265   21.9123 H   0  0  0  0  0  0
  -26.9098  -24.9995   21.0037 H   0  0  0  0  0  0
  -31.0002  -19.7273   20.8103 H   0  0  0  0  0  0
  1 25  1  0  0  0
  1 30  2  0  0  0
  1 83  1  0  0  0
  2  3  1  0  0  0
  2 25  1  0  0  0
  2 85  1  0  0  0
  2 86  1  0  0  0
  3  4  1  0  0  0
  3 87  1  0  0  0
  3 88  1  0  0  0
  4  5  1  0  0  0
  4 89  1  0  0  0
  4 90  1  0  0  0
  5  6  1  0  0  0
  5 26  1  0  0  0
  5 91  1  0  0  0
  6 25  1  0  0  0
  6 92  1  0  0  0
  6 93  1  0  0  0
  7  8  2  0  0  0
  7 26  1  0  0  0
  7 29  1  0  0  0
  8  9  1  0  0  0
  8 22  1  0  0  0
  9 10  1  0  0  0
  9 27  2  0  0  0
 10 11  2  0  0  0
 10 15  1  0  0  0
 11 12  1  0  0  0
 11 94  1  0  0  0
 12 13  2  0  0  0
 12 95  1  0  0  0
 13 14  1  0  0  0
 13 31  1  0  0  0
 14 15  2  0  0  0
 14 96  1  0  0  0
 15 97  1  0  0  0
 16 17  2  0  0  0
 16 21  1  0  0  0
 16 31  1  0  0  0
 17 18  1  0  0  0
 17 98  1  0  0  0
 18 19  2  0  0  0
 18 99  1  0  0  0
 19 20  1  0  0  0
 19 24  1  0  0  0
 20 21  2  0  0  0
 20100  1  0  0  0
 21 23  1  0  0  0
 22 28  1  0  0  0
 22 32  2  0  0  0
 26 27  1  0  0  0
 28101  1  0  0  0
 28102  1  0  0  0
 29103  1  0  0  0
 29104  1  0  0  0
 33 34  1  0  0  0
 33 66  1  0  0  0
 33 70  2  0  0  0
 34 36  1  0  0  0
 34 59  1  0  0  0
 34105  1  0  0  0
 35 44  2  0  0  0
 35 45  1  0  0  0
 35 68  1  0  0  0
 36 56  1  0  0  0
 36106  1  0  0  0
 37 39  1  0  0  0
 37 47  1  0  0  0
 37 66  1  0  0  0
 37107  1  0  0  0
 38 43  2  0  0  0
 38 46  1  0  0  0
 38 47  1  0  0  0
 39 64  1  0  0  0
 39 67  2  0  0  0
 40 52  1  0  0  0
 40 53  2  0  0  0
 40 58  1  0  0  0
 41108  1  0  0  0
 41109  1  0  0  0
 41110  1  0  0  0
 41 48  1  0  0  0
 42 43  1  0  0  0
 42 66  1  0  0  0
 42111  1  0  0  0
 42112  1  0  0  0
 43 44  1  0  0  0
 44113  1  0  0  0
 45 46  2  0  0  0
 45114  1  0  0  0
 46115  1  0  0  0
 47116  1  0  0  0
 47117  1  0  0  0
 48 56  1  0  0  0
 48 65  1  0  0  0
 48118  1  0  0  0
 49 50  1  0  0  0
 49 53  1  0  0  0
 49 64  1  0  0  0
 49119  1  0  0  0
 50 51  1  0  0  0
 50120  1  0  0  0
 50121  1  0  0  0
 51 52  1  0  0  0
 51122  1  0  0  0
 51123  1  0  0  0
 52124  1  0  0  0
 52125  1  0  0  0
 53 54  1  0  0  0
 54 55  2  0  0  0
 54126  1  0  0  0
 55 57  1  0  0  0
 55127  1  0  0  0
 56 69  2  0  0  0
 57 58  2  0  0  0
 57128  1  0  0  0
 58129  1  0  0  0
 59 60  1  0  0  0
 59 61  1  0  0  0
 59 62  1  0  0  0
 60130  1  0  0  0
 60131  1  0  0  0
 60132  1  0  0  0
 61133  1  0  0  0
 61134  1  0  0  0
 61135  1  0  0  0
 62136  1  0  0  0
 62137  1  0  0  0
 62138  1  0  0  0
 63 65  1  0  0  0
 63139  1  0  0  0
 63140  1  0  0  0
 63141  1  0  0  0
 64142  1  0  0  0
 65143  1  0  0  0
 68 80  1  0  0  0
 71 72  2  0  0  0
 71 81  1  0  0  0
 71144  1  0  0  0
 72 73  1  0  0  0
 72 80  1  0  0  0
 73 79  1  0  0  0
 73 82  2  0  0  0
 74 81  2  0  0  0
 74 82  1  0  0  0
 74 84  1  0  0  0
 75 76  1  0  0  0
 75 78  1  0  0  0
 75145  1  0  0  0
 75146  1  0  0  0
 76 83  1  0  0  0
 76147  1  0  0  0
 76148  1  0  0  0
 77 78  1  0  0  0
 77 83  1  0  0  0
 77149  1  0  0  0
 77150  1  0  0  0
 78 84  1  0  0  0
 78151  1  0  0  0
 79152  1  0  0  0
 79153  1  0  0  0
 79154  1  0  0  0
 80155  1  0  0  0
 80156  1  0  0  0
 84157  1  0  0  0
M  ISO  4   1 100  68 101  80 101  83 100
M  END
> <chiral flag>
0

> <version>
0

> <s_m_source_file>
/data/baiqing/PycharmProjects/Reinvent-master-3.2/result/LINK_invent/BTK/process_docking_weight1_custom_sum_contain_oxygen_bond_distance_aromatic_linkinvent_7_9_3/rearranged_h_0180.sdf

> <i_m_source_file_index>
73

> <r_mmod_Potential_Energy-OPLS-2005>
-214.688247680664

> <r_mmod_Stretch_Energy-OPLS-2005>
86.5154876708984

> <r_mmod_Bend_Energy-OPLS-2005>
190.556076049805

> <r_mmod_Torsional_Energy-OPLS-2005>
338.353942871094

> <r_mmod_Improper_Torsional_Energy-OPLS-2005>
15.0767135620117

> <r_mmod_Van_der_Waal_Energy-OPLS-2005>
142.029724121094

> <r_mmod_Electrostatic_Energy-OPLS-2005>
-818.404357910156

> <r_mmod_Solvation_Energy-OPLS-2005>
-233.702056884766

> <b_mmod_Minimization_Converged-OPLS-2005>
0

> <r_mmod_RMS_Derivative-OPLS-2005>
1.25563061237335

$$$$
73
                    3D
 Structure written by MMmdl.
167177  0  0  1  0            999 V2000
  -30.6034  -14.6943   20.5968 C   0  0  0  0  0  0
  -30.4633  -12.4601   19.4583 C   0  0  0  0  0  0
  -29.5162  -12.5139   18.2376 C   0  0  0  0  0  0
  -28.0361  -12.3261   18.6403 C   0  0  0  0  0  0
  -27.6554  -13.2023   19.8633 C   0  0  2  0  0  0
  -28.7068  -12.9993   20.9686 C   0  0  0  0  0  0
  -25.2495  -13.8162   20.5734 C   0  0  0  0  0  0
  -24.1811  -13.0416   20.9278 C   0  0  0  0  0  0
  -24.6383  -11.6885   20.8774 C   0  0  0  0  0  0
  -23.9035  -10.4291   21.0395 C   0  0  0  0  0  0
  -24.3564   -9.4199   21.9175 C   0  0  0  0  0  0
  -23.6266   -8.2241   22.0772 C   0  0  0  0  0  0
  -22.4216   -8.0317   21.3599 C   0  0  0  0  0  0
  -21.9937   -9.0285   20.4655 C   0  0  0  0  0  0
  -22.7227  -10.2140   20.3016 C   0  0  0  0  0  0
  -21.6873   -6.0762   22.5302 C   0  0  0  0  0  0
  -21.3995   -6.5608   23.8262 C   0  0  0  0  0  0
  -21.3681   -5.6754   24.9168 C   0  0  0  0  0  0
  -21.6064   -4.3015   24.7173 C   0  0  0  0  0  0
  -21.8814   -3.8129   23.4281 C   0  0  0  0  0  0
  -21.9165   -4.6986   22.3387 C   0  0  0  0  0  0
  -22.7780  -13.5170   21.1932 C   0  0  0  0  0  0
  -22.1623   -4.2173   21.0968 F   0  0  0  0  0  0
  -21.5690   -3.4493   25.7682 F   0  0  0  0  0  0
  -29.9891  -13.4622   20.4404 N   0  0  0  0  0  0
  -26.2982  -12.9339   20.3317 N   0  0  0  0  0  0
  -25.9285  -11.6498   20.5646 N   0  0  0  0  0  0
  -22.0448  -12.8165   22.0513 N   0  0  0  0  0  0
  -25.3834  -15.1924   20.4335 N   0  0  0  0  0  0
  -31.7828  -14.8006   20.2671 O   0  0  0  0  0  0
  -21.6606   -6.8928   21.4290 O   0  0  0  0  0  0
  -22.3307  -14.5372   20.6777 O   0  0  0  0  0  0
  -24.6294  -31.8604   23.1961 C   0  0  0  0  0  0
  -25.9107  -32.4785   23.8322 C   0  0  1  0  0  0
  -27.2369  -27.2944   20.1491 C   0  0  0  0  0  0
  -25.5897  -33.8590   24.2246 N   0  0  0  0  0  0
  -23.4256  -30.4780   21.5408 C   0  0  2  0  0  0
  -24.8765  -28.9272   20.1125 C   0  0  0  0  0  0
  -22.7513  -29.4612   22.4893 C   0  0  0  0  0  0
  -18.0292  -28.1401   22.8514 C   0  0  0  0  0  0
  -24.1473  -36.7336   23.2653 C   0  0  0  0  0  0
  -25.9663  -30.7878   21.3625 C   0  0  0  0  0  0
  -26.0448  -29.4097   20.7166 C   0  0  0  0  0  0
  -27.2300  -28.6101   20.7184 C   0  0  0  0  0  0
  -26.0482  -26.8758   19.5082 C   0  0  0  0  0  0
  -24.8840  -27.6674   19.4937 C   0  0  0  0  0  0
  -23.6439  -29.8100   20.1574 C   0  0  0  0  0  0
  -25.4099  -36.3114   24.0335 C   0  0  1  0  0  0
  -20.5916  -28.3695   23.1274 C   0  0  2  0  0  0
  -20.6760  -26.9397   22.5414 C   0  0  0  0  0  0
  -19.5735  -26.6367   21.5227 C   0  0  0  0  0  0
  -18.1922  -26.7940   22.1641 C   0  0  0  0  0  0
  -19.1549  -28.8841   23.2889 C   0  0  0  0  0  0
  -18.9481  -30.1455   23.8912 C   0  0  0  0  0  0
  -17.6473  -30.6581   24.0577 C   0  0  0  0  0  0
  -25.9034  -34.9459   23.5106 C   0  0  0  0  0  0
  -16.5370  -29.9094   23.6335 C   0  0  0  0  0  0
  -16.7269  -28.6517   23.0338 C   0  0  0  0  0  0
  -26.4449  -31.6640   25.0728 C   0  0  0  0  0  0
  -25.3663  -31.3821   26.1451 C   0  0  0  0  0  0
  -27.0317  -30.3087   24.6185 C   0  0  0  0  0  0
  -27.5970  -32.4396   25.7520 C   0  0  0  0  0  0
  -27.5562  -37.1846   24.8462 C   0  0  0  0  0  0
  -21.4225  -29.3054   22.3687 N   0  0  0  0  0  0
  -26.4287  -37.3784   23.9380 N   0  0  0  0  0  0
  -24.6930  -31.0586   22.0940 N   0  0  0  0  0  0
  -23.4216  -28.8179   23.3003 O   0  0  0  0  0  0
  -28.3481  -26.4246   20.1963 O   0  0  0  0  0  0
  -26.5632  -34.8956   22.4675 O   0  0  0  0  0  0
  -23.5440  -32.1387   23.7305 O   0  0  0  0  0  0
  -30.3792  -17.3528   20.6176 C   0  0  0  0  0  0
  -29.8208  -16.0361   20.8329 C   0  0  0  0  0  0
  -29.5206  -18.5015   20.3812 C   0  0  0  0  0  0
  -28.2187  -18.1107   20.0118 C   0  0  0  0  0  0
  -28.4607  -16.1294   21.2207 C   0  0  0  0  0  0
  -28.0987  -17.6149   17.4617 C   0  0  0  0  0  0
  -28.5851  -19.0342   17.5665 C   0  0  0  0  0  0
  -29.5647  -20.4642   22.0660 C   0  0  0  0  0  0
  -29.4930  -22.0112   22.0556 C   0  0  0  0  0  0
  -29.3449  -21.2720   19.7977 C   0  0  0  0  0  0
  -29.9070  -20.0291   20.6328 C   0  0  2  0  0  0
  -27.6739  -18.4766   18.6459 C   0  0  0  0  0  0
  -28.0206  -15.8042   22.6547 C   0  0  0  0  0  0
  -29.2671  -23.8864   20.3126 C   0  0  0  0  0  0
  -28.1206  -24.9886   20.5600 C   0  0  0  0  0  0
  -27.6531  -17.0184   20.5841 N   0  0  0  0  0  0
  -28.9804  -22.4229   20.7226 N   0  3  2  0  0  0
  -31.4920  -12.6405   19.1393 H   0  0  0  0  0  0
  -30.4559  -11.4622   19.8920 H   0  0  0  0  0  0
  -29.7945  -11.7490   17.5127 H   0  0  0  0  0  0
  -29.6350  -13.4735   17.7379 H   0  0  0  0  0  0
  -27.8957  -11.2736   18.8944 H   0  0  0  0  0  0
  -27.3791  -12.5261   17.7901 H   0  0  0  0  0  0
  -27.6812  -14.2378   19.5227 H   0  0  0  0  0  0
  -28.7486  -11.9317   21.2068 H   0  0  0  0  0  0
  -28.4839  -13.4494   21.9250 H   0  0  0  0  0  0
  -25.2757   -9.5682   22.4625 H   0  0  0  0  0  0
  -24.0090   -7.4542   22.7381 H   0  0  0  0  0  0
  -21.0951   -8.8693   19.8859 H   0  0  0  0  0  0
  -22.3733  -10.9629   19.6008 H   0  0  0  0  0  0
  -21.1936   -7.6090   23.9755 H   0  0  0  0  0  0
  -21.1575   -6.0443   25.9123 H   0  0  0  0  0  0
  -22.0592   -2.7589   23.2682 H   0  0  0  0  0  0
  -22.4121  -12.0000   22.5088 H   0  0  0  0  0  0
  -21.1078  -13.1247   22.2749 H   0  0  0  0  0  0
  -24.6290  -15.8132   20.7032 H   0  0  0  0  0  0
  -26.2524  -15.7162   20.3180 H   0  0  0  0  0  0
  -26.7189  -32.5474   23.1078 H   0  0  0  0  0  0
  -24.9987  -33.9692   25.0369 H   0  0  0  0  0  0
  -22.7226  -31.3015   21.3946 H   0  0  0  0  0  0
  -23.3700  -35.9712   23.3371 H   0  0  0  0  0  0
  -24.3538  -36.8898   22.2055 H   0  0  0  0  0  0
  -23.7278  -37.6580   23.6625 H   0  0  0  0  0  0
  -26.0829  -31.5389   20.5815 H   0  0  0  0  0  0
  -26.8541  -30.8544   21.9810 H   0  0  0  0  0  0
  -28.1251  -28.9907   21.1883 H   0  0  0  0  0  0
  -25.9980  -25.9221   19.0030 H   0  0  0  0  0  0
  -23.9926  -27.2926   19.0079 H   0  0  0  0  0  0
  -23.7624  -30.5826   19.4004 H   0  0  0  0  0  0
  -22.7644  -29.2333   19.8594 H   0  0  0  0  0  0
  -25.1292  -36.1979   25.0833 H   0  0  0  0  0  0
  -21.0011  -28.3233   24.1398 H   0  0  0  0  0  0
  -20.5617  -26.2304   23.3619 H   0  0  0  0  0  0
  -21.6612  -26.7369   22.1232 H   0  0  0  0  0  0
  -19.6854  -25.6274   21.1253 H   0  0  0  0  0  0
  -19.6674  -27.3164   20.6761 H   0  0  0  0  0  0
  -17.4195  -26.6711   21.4045 H   0  0  0  0  0  0
  -18.0298  -26.0072   22.9032 H   0  0  0  0  0  0
  -19.7933  -30.7271   24.2273 H   0  0  0  0  0  0
  -17.5013  -31.6262   24.5186 H   0  0  0  0  0  0
  -15.5365  -30.2983   23.7632 H   0  0  0  0  0  0
  -15.8684  -28.0831   22.7015 H   0  0  0  0  0  0
  -24.5756  -30.7265   25.7758 H   0  0  0  0  0  0
  -24.8950  -32.3028   26.4893 H   0  0  0  0  0  0
  -25.7930  -30.8941   27.0218 H   0  0  0  0  0  0
  -26.2935  -29.6857   24.1126 H   0  0  0  0  0  0
  -27.3953  -29.7306   25.4678 H   0  0  0  0  0  0
  -27.8784  -30.4403   23.9459 H   0  0  0  0  0  0
  -27.2528  -33.3678   26.2082 H   0  0  0  0  0  0
  -28.3791  -32.7010   25.0389 H   0  0  0  0  0  0
  -28.0622  -31.8568   26.5473 H   0  0  0  0  0  0
  -28.2625  -38.0100   24.7425 H   0  0  0  0  0  0
  -28.1024  -36.2630   24.6386 H   0  0  0  0  0  0
  -27.2281  -37.1608   25.8872 H   0  0  0  0  0  0
  -20.9385  -29.8837   21.6964 H   0  0  0  0  0  0
  -26.0200  -38.2888   24.1298 H   0  0  0  0  0  0
  -31.4460  -17.4732   20.6207 H   0  0  0  0  0  0
  -28.8299  -16.8216   17.6459 H   0  0  0  0  0  0
  -27.4010  -17.4111   16.6548 H   0  0  0  0  0  0
  -28.1683  -19.7506   16.8597 H   0  0  0  0  0  0
  -29.6382  -19.1811   17.8090 H   0  0  0  0  0  0
  -28.5873  -20.0705   22.3476 H   0  0  0  0  0  0
  -30.2759  -20.0752   22.7966 H   0  0  0  0  0  0
  -30.4999  -22.3984   22.1931 H   0  0  0  0  0  0
  -28.8703  -22.3917   22.8631 H   0  0  0  0  0  0
  -28.4441  -21.0411   19.2392 H   0  0  0  0  0  0
  -30.1018  -21.5929   19.0763 H   0  0  0  0  0  0
  -30.9868  -20.0611   20.5136 H   0  0  0  0  0  0
  -26.6350  -18.8096   18.6733 H   0  0  0  0  0  0
  -27.3325  -14.9608   22.7222 H   0  0  0  0  0  0
  -27.4910  -16.6702   23.0649 H   0  0  0  0  0  0
  -28.8744  -15.6368   23.3294 H   0  0  0  0  0  0
  -30.1697  -24.2201   20.8279 H   0  0  0  0  0  0
  -29.5260  -23.9091   19.2538 H   0  0  0  0  0  0
  -27.8749  -24.9786   21.6231 H   0  0  0  0  0  0
  -27.2290  -24.6013   20.0709 H   0  0  0  0  0  0
  -27.9768  -22.3519   20.7854 H   0  0  0  0  0  0
  1 25  1  0  0  0
  1 30  2  0  0  0
  1 72  1  0  0  0
  2  3  1  0  0  0
  2 25  1  0  0  0
  2 88  1  0  0  0
  2 89  1  0  0  0
  3  4  1  0  0  0
  3 90  1  0  0  0
  3 91  1  0  0  0
  4  5  1  0  0  0
  4 92  1  0  0  0
  4 93  1  0  0  0
  5  6  1  0  0  0
  5 26  1  0  0  0
  5 94  1  0  0  0
  6 25  1  0  0  0
  6 95  1  0  0  0
  6 96  1  0  0  0
  7  8  2  0  0  0
  7 26  1  0  0  0
  7 29  1  0  0  0
  8  9  1  0  0  0
  8 22  1  0  0  0
  9 10  1  0  0  0
  9 27  2  0  0  0
 10 11  2  0  0  0
 10 15  1  0  0  0
 11 12  1  0  0  0
 11 97  1  0  0  0
 12 13  2  0  0  0
 12 98  1  0  0  0
 13 14  1  0  0  0
 13 31  1  0  0  0
 14 15  2  0  0  0
 14 99  1  0  0  0
 15100  1  0  0  0
 16 17  2  0  0  0
 16 21  1  0  0  0
 16 31  1  0  0  0
 17 18  1  0  0  0
 17101  1  0  0  0
 18 19  2  0  0  0
 18102  1  0  0  0
 19 20  1  0  0  0
 19 24  1  0  0  0
 20 21  2  0  0  0
 20103  1  0  0  0
 21 23  1  0  0  0
 22 28  1  0  0  0
 22 32  2  0  0  0
 26 27  1  0  0  0
 28104  1  0  0  0
 28105  1  0  0  0
 29106  1  0  0  0
 29107  1  0  0  0
 33 34  1  0  0  0
 33 66  1  0  0  0
 33 70  2  0  0  0
 34 36  1  0  0  0
 34 59  1  0  0  0
 34108  1  0  0  0
 35 44  2  0  0  0
 35 45  1  0  0  0
 35 68  1  0  0  0
 36 56  1  0  0  0
 36109  1  0  0  0
 37 39  1  0  0  0
 37 47  1  0  0  0
 37 66  1  0  0  0
 37110  1  0  0  0
 38 43  2  0  0  0
 38 46  1  0  0  0
 38 47  1  0  0  0
 39 64  1  0  0  0
 39 67  2  0  0  0
 40 52  1  0  0  0
 40 53  2  0  0  0
 40 58  1  0  0  0
 41111  1  0  0  0
 41112  1  0  0  0
 41113  1  0  0  0
 41 48  1  0  0  0
 42 43  1  0  0  0
 42 66  1  0  0  0
 42114  1  0  0  0
 42115  1  0  0  0
 43 44  1  0  0  0
 44116  1  0  0  0
 45 46  2  0  0  0
 45117  1  0  0  0
 46118  1  0  0  0
 47119  1  0  0  0
 47120  1  0  0  0
 48 56  1  0  0  0
 48 65  1  0  0  0
 48121  1  0  0  0
 49 50  1  0  0  0
 49 53  1  0  0  0
 49 64  1  0  0  0
 49122  1  0  0  0
 50 51  1  0  0  0
 50123  1  0  0  0
 50124  1  0  0  0
 51 52  1  0  0  0
 51125  1  0  0  0
 51126  1  0  0  0
 52127  1  0  0  0
 52128  1  0  0  0
 53 54  1  0  0  0
 54 55  2  0  0  0
 54129  1  0  0  0
 55 57  1  0  0  0
 55130  1  0  0  0
 56 69  2  0  0  0
 57 58  2  0  0  0
 57131  1  0  0  0
 58132  1  0  0  0
 59 60  1  0  0  0
 59 61  1  0  0  0
 59 62  1  0  0  0
 60133  1  0  0  0
 60134  1  0  0  0
 60135  1  0  0  0
 61136  1  0  0  0
 61137  1  0  0  0
 61138  1  0  0  0
 62139  1  0  0  0
 62140  1  0  0  0
 62141  1  0  0  0
 63 65  1  0  0  0
 63142  1  0  0  0
 63143  1  0  0  0
 63144  1  0  0  0
 64145  1  0  0  0
 65146  1  0  0  0
 68 85  1  0  0  0
 71 72  2  0  0  0
 71 73  1  0  0  0
 71147  1  0  0  0
 72 75  1  0  0  0
 73 74  2  0  0  0
 73 81  1  0  0  0
 74 86  1  0  0  0
 74 82  1  0  0  0
 75 83  1  0  0  0
 75 86  2  0  0  0
 76 77  1  0  0  0
 76 82  1  0  0  0
 76148  1  0  0  0
 76149  1  0  0  0
 77 82  1  0  0  0
 77150  1  0  0  0
 77151  1  0  0  0
 78 79  1  0  0  0
 78 81  1  0  0  0
 78152  1  0  0  0
 78153  1  0  0  0
 79 87  1  0  0  0
 79154  1  0  0  0
 79155  1  0  0  0
 80 81  1  0  0  0
 80 87  1  0  0  0
 80156  1  0  0  0
 80157  1  0  0  0
 81158  1  0  0  0
 82159  1  0  0  0
 83160  1  0  0  0
 83161  1  0  0  0
 83162  1  0  0  0
 84 85  1  0  0  0
 84163  1  0  0  0
 84164  1  0  0  0
 84 87  1  0  0  0
 85165  1  0  0  0
 85166  1  0  0  0
 87167  1  0  0  0
M  CHG  1  87   1
M  ISO  4   1 100  68 101  72 100  85 101
M  END
> <chiral flag>
0

> <version>
0

> <s_m_source_file>
/data/baiqing/PycharmProjects/Reinvent-master-3.2/result/LINK_invent/BTK/process_docking_weight1_custom_sum_contain_oxygen_bond_distance_aromatic_linkinvent_7_9_3/rearranged_h_0180.sdf

> <i_m_source_file_index>
74

> <r_mmod_Potential_Energy-OPLS-2005>
310.210693359375

> <r_mmod_Stretch_Energy-OPLS-2005>
114.871612548828

> <r_mmod_Bend_Energy-OPLS-2005>
204.727966308594

> <r_mmod_Torsional_Energy-OPLS-2005>
535.210205078125

> <r_mmod_Improper_Torsional_Energy-OPLS-2005>
21.5498847961426

> <r_mmod_Van_der_Waal_Energy-OPLS-2005>
145.942687988281

> <r_mmod_Electrostatic_Energy-OPLS-2005>
-362.15380859375

> <r_mmod_Solvation_Energy-OPLS-2005>
-415.132263183594

> <b_mmod_Minimization_Converged-OPLS-2005>
0

> <r_mmod_RMS_Derivative-OPLS-2005>
10.8787746429443

$$$$
74
                    3D
 Structure written by MMmdl.
153161  0  0  1  0            999 V2000
  -30.5365  -14.9360   20.3922 C   0  0  0  0  0  0
  -30.4415  -12.5715   19.5115 C   0  0  0  0  0  0
  -29.5229  -12.5204   18.2672 C   0  0  0  0  0  0
  -28.0594  -12.2999   18.6882 C   0  0  0  0  0  0
  -27.6330  -13.2430   19.8423 C   0  0  2  0  0  0
  -28.6721  -13.2697   20.9853 C   0  0  0  0  0  0
  -25.2476  -13.8211   20.5716 C   0  0  0  0  0  0
  -24.1780  -13.0445   20.9223 C   0  0  0  0  0  0
  -24.6397  -11.6925   20.8769 C   0  0  0  0  0  0
  -23.9082  -10.4294   21.0418 C   0  0  0  0  0  0
  -24.3632   -9.4203   21.9195 C   0  0  0  0  0  0
  -23.6298   -8.2242   22.0757 C   0  0  0  0  0  0
  -22.4276   -8.0295   21.3545 C   0  0  0  0  0  0
  -21.9923   -9.0274   20.4639 C   0  0  0  0  0  0
  -22.7260  -10.2149   20.3054 C   0  0  0  0  0  0
  -21.6851   -6.0746   22.5278 C   0  0  0  0  0  0
  -21.4008   -6.5643   23.8216 C   0  0  0  0  0  0
  -21.3654   -5.6791   24.9176 C   0  0  0  0  0  0
  -21.6043   -4.3057   24.7223 C   0  0  0  0  0  0
  -21.8821   -3.8154   23.4344 C   0  0  0  0  0  0
  -21.9190   -4.6972   22.3401 C   0  0  0  0  0  0
  -22.7799  -13.5220   21.1883 C   0  0  0  0  0  0
  -22.1659   -4.2163   21.0978 F   0  0  0  0  0  0
  -21.5631   -3.4537   25.7733 F   0  0  0  0  0  0
  -29.9584  -13.6688   20.3978 N   0  0  0  0  0  0
  -26.2897  -12.9434   20.3264 N   0  0  0  0  0  0
  -25.9326  -11.6571   20.5750 N   0  0  0  0  0  0
  -22.0445  -12.8212   22.0430 N   0  0  0  0  0  0
  -25.4192  -15.1941   20.4164 N   0  0  0  0  0  0
  -31.7216  -15.0140   20.0549 O   0  0  0  0  0  0
  -21.6635   -6.8899   21.4242 O   0  0  0  0  0  0
  -22.3494  -14.5535   20.6730 O   0  0  0  0  0  0
  -24.6414  -31.8429   23.1857 C   0  0  0  0  0  0
  -25.9205  -32.4686   23.8241 C   0  0  1  0  0  0
  -27.2309  -27.1544   20.1334 C   0  0  0  0  0  0
  -25.5951  -33.8484   24.2149 N   0  0  0  0  0  0
  -23.4458  -30.4596   21.5295 C   0  0  2  0  0  0
  -24.8975  -28.8838   20.1056 C   0  0  0  0  0  0
  -22.7554  -29.4546   22.4845 C   0  0  0  0  0  0
  -18.0299  -28.1371   22.8478 C   0  0  0  0  0  0
  -24.1488  -36.7235   23.2635 C   0  0  0  0  0  0
  -25.9977  -30.7223   21.3813 C   0  0  0  0  0  0
  -26.0714  -29.3349   20.7200 C   0  0  0  0  0  0
  -27.2351  -28.4822   20.7201 C   0  0  0  0  0  0
  -26.0300  -26.7920   19.4901 C   0  0  0  0  0  0
  -24.8872  -27.6263   19.4778 C   0  0  0  0  0  0
  -23.6697  -29.7799   20.1515 C   0  0  0  0  0  0
  -25.4121  -36.2996   24.0289 C   0  0  1  0  0  0
  -20.5911  -28.3706   23.1217 C   0  0  2  0  0  0
  -20.6772  -26.9411   22.5383 C   0  0  0  0  0  0
  -19.5749  -26.6374   21.5180 C   0  0  0  0  0  0
  -18.1933  -26.7925   22.1597 C   0  0  0  0  0  0
  -19.1556  -28.8859   23.2847 C   0  0  0  0  0  0
  -18.9488  -30.1464   23.8864 C   0  0  0  0  0  0
  -17.6484  -30.6583   24.0548 C   0  0  0  0  0  0
  -25.9080  -34.9387   23.5028 C   0  0  0  0  0  0
  -16.5367  -29.9068   23.6337 C   0  0  0  0  0  0
  -16.7290  -28.6482   23.0365 C   0  0  0  0  0  0
  -26.4546  -31.6585   25.0703 C   0  0  0  0  0  0
  -25.3742  -31.3795   26.1420 C   0  0  0  0  0  0
  -27.0407  -30.2966   24.6313 C   0  0  0  0  0  0
  -27.6083  -32.4370   25.7479 C   0  0  0  0  0  0
  -27.5571  -37.1739   24.8450 C   0  0  0  0  0  0
  -21.4244  -29.3045   22.3600 N   0  0  0  0  0  0
  -26.4270  -37.3722   23.9411 N   0  0  0  0  0  0
  -24.7143  -31.0299   22.0877 N   0  0  0  0  0  0
  -23.4210  -28.8113   23.3006 O   0  0  0  0  0  0
  -28.3072  -26.2099   20.2608 O   0  0  0  0  0  0
  -26.5675  -34.8888   22.4617 O   0  0  0  0  0  0
  -23.5529  -32.1277   23.7096 O   0  0  0  0  0  0
  -28.5892  -22.3897   18.8002 C   0  0  0  0  0  0
  -28.2954  -23.2326   20.0182 C   0  0  1  0  0  0
  -29.2294  -21.8056   20.0244 C   0  0  1  0  0  0
  -30.6345  -17.6552   18.7275 C   0  0  0  0  0  0
  -28.4750  -24.8363   19.5647 C   0  0  0  0  0  0
  -29.5100  -19.0292   20.6662 C   0  0  0  0  0  0
  -29.6196  -17.5357   19.8796 C   0  0  2  0  0  0
  -29.7308  -16.0971   20.5536 N   0  0  0  0  0  0
  -28.7882  -20.2762   19.9988 N   0  3  0  0  0  0
  -31.4762  -12.7200   19.1991 H   0  0  0  0  0  0
  -30.4297  -11.6187   20.0430 H   0  0  0  0  0  0
  -29.8428  -11.7246   17.5935 H   0  0  0  0  0  0
  -29.6074  -13.4517   17.7051 H   0  0  0  0  0  0
  -27.9695  -11.2633   19.0151 H   0  0  0  0  0  0
  -27.3913  -12.4071   17.8328 H   0  0  0  0  0  0
  -27.6000  -14.2422   19.4084 H   0  0  0  0  0  0
  -28.7482  -12.2945   21.4682 H   0  0  0  0  0  0
  -28.3701  -13.9734   21.7625 H   0  0  0  0  0  0
  -25.2775   -9.5676   22.4775 H   0  0  0  0  0  0
  -24.0003   -7.4628   22.7475 H   0  0  0  0  0  0
  -21.0857   -8.8805   19.8942 H   0  0  0  0  0  0
  -22.3734  -10.9694   19.6168 H   0  0  0  0  0  0
  -21.1998   -7.6151   23.9726 H   0  0  0  0  0  0
  -21.1465   -6.0518   25.9081 H   0  0  0  0  0  0
  -22.0606   -2.7619   23.2837 H   0  0  0  0  0  0
  -22.4051  -11.9861   22.4814 H   0  0  0  0  0  0
  -21.1062  -13.1239   22.2633 H   0  0  0  0  0  0
  -24.6540  -15.8500   20.5298 H   0  0  0  0  0  0
  -26.2687  -15.6312   20.0856 H   0  0  0  0  0  0
  -26.7277  -32.5293   23.0972 H   0  0  0  0  0  0
  -25.0072  -33.9599   25.0277 H   0  0  0  0  0  0
  -22.7470  -31.2832   21.3706 H   0  0  0  0  0  0
  -23.3768  -35.9552   23.3224 H   0  0  0  0  0  0
  -24.3560  -36.8966   22.2064 H   0  0  0  0  0  0
  -23.7240  -37.6388   23.6760 H   0  0  0  0  0  0
  -26.1485  -31.4793   20.6103 H   0  0  0  0  0  0
  -26.8682  -30.7732   22.0245 H   0  0  0  0  0  0
  -28.1323  -28.8177   21.2208 H   0  0  0  0  0  0
  -25.9353  -25.8153   19.0390 H   0  0  0  0  0  0
  -23.9838  -27.2709   19.0009 H   0  0  0  0  0  0
  -23.7924  -30.5462   19.3854 H   0  0  0  0  0  0
  -22.7884  -29.2107   19.8554 H   0  0  0  0  0  0
  -25.1312  -36.1778   25.0774 H   0  0  0  0  0  0
  -21.0000  -28.3302   24.1337 H   0  0  0  0  0  0
  -20.5586  -26.2342   23.3611 H   0  0  0  0  0  0
  -21.6647  -26.7382   22.1224 H   0  0  0  0  0  0
  -19.6900  -25.6274   21.1238 H   0  0  0  0  0  0
  -19.6675  -27.3153   20.6690 H   0  0  0  0  0  0
  -17.4195  -26.6676   21.4005 H   0  0  0  0  0  0
  -18.0334  -26.0051   22.8969 H   0  0  0  0  0  0
  -19.7967  -30.7273   24.2208 H   0  0  0  0  0  0
  -17.5047  -31.6262   24.5160 H   0  0  0  0  0  0
  -15.5365  -30.2955   23.7703 H   0  0  0  0  0  0
  -15.8687  -28.0794   22.7097 H   0  0  0  0  0  0
  -24.5887  -30.7194   25.7723 H   0  0  0  0  0  0
  -24.8988  -32.2995   26.4828 H   0  0  0  0  0  0
  -25.8021  -30.8949   27.0205 H   0  0  0  0  0  0
  -26.3014  -29.6663   24.1358 H   0  0  0  0  0  0
  -27.4025  -29.7309   25.4906 H   0  0  0  0  0  0
  -27.8922  -30.4147   23.9613 H   0  0  0  0  0  0
  -27.2734  -33.3787   26.1831 H   0  0  0  0  0  0
  -28.4018  -32.6727   25.0382 H   0  0  0  0  0  0
  -28.0602  -31.8630   26.5571 H   0  0  0  0  0  0
  -28.2528  -38.0090   24.7556 H   0  0  0  0  0  0
  -28.1125  -36.2616   24.6215 H   0  0  0  0  0  0
  -27.2272  -37.1292   25.8843 H   0  0  0  0  0  0
  -20.9445  -29.8790   21.6799 H   0  0  0  0  0  0
  -26.0110  -38.2748   24.1527 H   0  0  0  0  0  0
  -29.2823  -22.7867   18.0593 H   0  0  0  0  0  0
  -27.7197  -21.9088   18.3549 H   0  0  0  0  0  0
  -27.3249  -23.0900   20.4884 H   0  0  0  0  0  0
  -30.3123  -21.8962   20.0871 H   0  0  0  0  0  0
  -30.4743  -18.5648   18.1489 H   0  0  0  0  0  0
  -30.5479  -16.8202   18.0324 H   0  0  0  0  0  0
  -31.6614  -17.6795   19.0932 H   0  0  0  0  0  0
  -27.9158  -24.9319   18.6336 H   0  0  0  0  0  0
  -29.5108  -24.8964   19.2285 H   0  0  0  0  0  0
  -30.5167  -19.3460   20.9392 H   0  0  0  0  0  0
  -28.9993  -18.8708   21.6159 H   0  0  0  0  0  0
  -28.6493  -17.4456   19.3873 H   0  0  0  0  0  0
  -28.8552  -15.8406   20.9851 H   0  0  0  0  0  0
  -28.7657  -20.0422   19.0211 H   0  0  0  0  0  0
  -27.8280  -20.2264   20.2988 H   0  0  0  0  0  0
  1 25  1  0  0  0
  1 30  2  0  0  0
  1 78  1  0  0  0
  2  3  1  0  0  0
  2 25  1  0  0  0
  2 80  1  0  0  0
  2 81  1  0  0  0
  3  4  1  0  0  0
  3 82  1  0  0  0
  3 83  1  0  0  0
  4  5  1  0  0  0
  4 84  1  0  0  0
  4 85  1  0  0  0
  5  6  1  0  0  0
  5 26  1  0  0  0
  5 86  1  0  0  0
  6 25  1  0  0  0
  6 87  1  0  0  0
  6 88  1  0  0  0
  7  8  2  0  0  0
  7 26  1  0  0  0
  7 29  1  0  0  0
  8  9  1  0  0  0
  8 22  1  0  0  0
  9 10  1  0  0  0
  9 27  2  0  0  0
 10 11  2  0  0  0
 10 15  1  0  0  0
 11 12  1  0  0  0
 11 89  1  0  0  0
 12 13  2  0  0  0
 12 90  1  0  0  0
 13 14  1  0  0  0
 13 31  1  0  0  0
 14 15  2  0  0  0
 14 91  1  0  0  0
 15 92  1  0  0  0
 16 17  2  0  0  0
 16 21  1  0  0  0
 16 31  1  0  0  0
 17 18  1  0  0  0
 17 93  1  0  0  0
 18 19  2  0  0  0
 18 94  1  0  0  0
 19 20  1  0  0  0
 19 24  1  0  0  0
 20 21  2  0  0  0
 20 95  1  0  0  0
 21 23  1  0  0  0
 22 28  1  0  0  0
 22 32  2  0  0  0
 26 27  1  0  0  0
 28 96  1  0  0  0
 28 97  1  0  0  0
 29 98  1  0  0  0
 29 99  1  0  0  0
 33 34  1  0  0  0
 33 66  1  0  0  0
 33 70  2  0  0  0
 34 36  1  0  0  0
 34 59  1  0  0  0
 34100  1  0  0  0
 35 44  2  0  0  0
 35 45  1  0  0  0
 35 68  1  0  0  0
 36 56  1  0  0  0
 36101  1  0  0  0
 37 39  1  0  0  0
 37 47  1  0  0  0
 37 66  1  0  0  0
 37102  1  0  0  0
 38 43  2  0  0  0
 38 46  1  0  0  0
 38 47  1  0  0  0
 39 64  1  0  0  0
 39 67  2  0  0  0
 40 52  1  0  0  0
 40 53  2  0  0  0
 40 58  1  0  0  0
 41103  1  0  0  0
 41104  1  0  0  0
 41105  1  0  0  0
 41 48  1  0  0  0
 42 43  1  0  0  0
 42 66  1  0  0  0
 42106  1  0  0  0
 42107  1  0  0  0
 43 44  1  0  0  0
 44108  1  0  0  0
 45 46  2  0  0  0
 45109  1  0  0  0
 46110  1  0  0  0
 47111  1  0  0  0
 47112  1  0  0  0
 48 56  1  0  0  0
 48 65  1  0  0  0
 48113  1  0  0  0
 49 50  1  0  0  0
 49 53  1  0  0  0
 49 64  1  0  0  0
 49114  1  0  0  0
 50 51  1  0  0  0
 50115  1  0  0  0
 50116  1  0  0  0
 51 52  1  0  0  0
 51117  1  0  0  0
 51118  1  0  0  0
 52119  1  0  0  0
 52120  1  0  0  0
 53 54  1  0  0  0
 54 55  2  0  0  0
 54121  1  0  0  0
 55 57  1  0  0  0
 55122  1  0  0  0
 56 69  2  0  0  0
 57 58  2  0  0  0
 57123  1  0  0  0
 58124  1  0  0  0
 59 60  1  0  0  0
 59 61  1  0  0  0
 59 62  1  0  0  0
 60125  1  0  0  0
 60126  1  0  0  0
 60127  1  0  0  0
 61128  1  0  0  0
 61129  1  0  0  0
 61130  1  0  0  0
 62131  1  0  0  0
 62132  1  0  0  0
 62133  1  0  0  0
 63 65  1  0  0  0
 63134  1  0  0  0
 63135  1  0  0  0
 63136  1  0  0  0
 64137  1  0  0  0
 65138  1  0  0  0
 68 75  1  0  0  0
 71 72  1  0  0  0
 71 73  1  0  0  0
 71139  1  0  0  0
 71140  1  0  0  0
 72 73  1  0  0  0
 72 75  1  0  0  0
 72141  1  0  0  0
 73 79  1  0  0  0
 73142  1  0  0  0
 74143  1  0  0  0
 74144  1  0  0  0
 74145  1  0  0  0
 74 77  1  0  0  0
 75146  1  0  0  0
 75147  1  0  0  0
 76 77  1  0  0  0
 76 79  1  0  0  0
 76148  1  0  0  0
 76149  1  0  0  0
 77 78  1  0  0  0
 77150  1  0  0  0
 78151  1  0  0  0
 79152  1  0  0  0
 79153  1  0  0  0
M  CHG  1  79   1
M  ISO  4   1 100  68 101  75 101  78 100
M  END
> <chiral flag>
0

> <version>
0

> <s_m_source_file>
/data/baiqing/PycharmProjects/Reinvent-master-3.2/result/LINK_invent/BTK/process_docking_weight1_custom_sum_contain_oxygen_bond_distance_aromatic_linkinvent_7_9_3/rearranged_h_0180.sdf

> <i_m_source_file_index>
75

> <r_mmod_Potential_Energy-OPLS-2005>
444.203338623047

> <r_mmod_Stretch_Energy-OPLS-2005>
276.723266601562

> <r_mmod_Bend_Energy-OPLS-2005>
361.923522949219

> <r_mmod_Torsional_Energy-OPLS-2005>
272.877960205078

> <r_mmod_Improper_Torsional_Energy-OPLS-2005>
6.3188943862915

> <r_mmod_Van_der_Waal_Energy-OPLS-2005>
112.904724121094

> <r_mmod_Electrostatic_Energy-OPLS-2005>
-258.036224365234

> <r_mmod_Solvation_Energy-OPLS-2005>
-509.993774414062

> <b_mmod_Minimization_Converged-OPLS-2005>
0

> <r_mmod_RMS_Derivative-OPLS-2005>
2.44226455688477

$$$$
75
                    3D
 Structure written by MMmdl.
149158  0  0  1  0            999 V2000
  -30.4709  -15.2470   20.3860 C   0  0  0  0  0  0
  -30.4384  -12.7962   19.5234 C   0  0  0  0  0  0
  -29.5300  -12.5545   18.2914 C   0  0  0  0  0  0
  -28.0853  -12.2735   18.7351 C   0  0  0  0  0  0
  -27.6133  -13.2681   19.8238 C   0  0  2  0  0  0
  -28.6505  -13.4578   20.9530 C   0  0  0  0  0  0
  -25.2410  -13.8246   20.5757 C   0  0  0  0  0  0
  -24.1742  -13.0449   20.9268 C   0  0  0  0  0  0
  -24.6386  -11.6942   20.8766 C   0  0  0  0  0  0
  -23.9075  -10.4294   21.0409 C   0  0  0  0  0  0
  -24.3620   -9.4205   21.9183 C   0  0  0  0  0  0
  -23.6303   -8.2238   22.0749 C   0  0  0  0  0  0
  -22.4288   -8.0275   21.3536 C   0  0  0  0  0  0
  -21.9924   -9.0242   20.4634 C   0  0  0  0  0  0
  -22.7248  -10.2133   20.3051 C   0  0  0  0  0  0
  -21.6850   -6.0732   22.5266 C   0  0  0  0  0  0
  -21.4011   -6.5635   23.8191 C   0  0  0  0  0  0
  -21.3668   -5.6796   24.9158 C   0  0  0  0  0  0
  -21.6044   -4.3050   24.7211 C   0  0  0  0  0  0
  -21.8824   -3.8147   23.4326 C   0  0  0  0  0  0
  -21.9195   -4.6967   22.3385 C   0  0  0  0  0  0
  -22.7753  -13.5185   21.1910 C   0  0  0  0  0  0
  -22.1655   -4.2149   21.0959 F   0  0  0  0  0  0
  -21.5648   -3.4539   25.7724 F   0  0  0  0  0  0
  -29.8832  -13.9528   20.3190 N   0  0  0  0  0  0
  -26.2830  -12.9500   20.3259 N   0  0  0  0  0  0
  -25.9326  -11.6622   20.5772 N   0  0  0  0  0  0
  -22.0427  -12.8149   22.0456 N   0  0  0  0  0  0
  -25.4114  -15.1976   20.4167 N   0  0  0  0  0  0
  -31.6950  -15.2289   20.1987 O   0  0  0  0  0  0
  -21.6641   -6.8882   21.4229 O   0  0  0  0  0  0
  -22.3418  -14.5475   20.6748 O   0  0  0  0  0  0
  -24.6618  -31.8276   23.1663 C   0  0  0  0  0  0
  -25.9288  -32.4620   23.8133 C   0  0  1  0  0  0
  -27.2218  -26.9403   20.1874 C   0  0  0  0  0  0
  -25.5964  -33.8417   24.2073 N   0  0  0  0  0  0
  -23.4740  -30.4407   21.5167 C   0  0  2  0  0  0
  -24.9283  -28.8276   20.1154 C   0  0  0  0  0  0
  -22.7672  -29.4487   22.4766 C   0  0  0  0  0  0
  -18.0331  -28.1434   22.8511 C   0  0  0  0  0  0
  -24.1477  -36.7211   23.2643 C   0  0  0  0  0  0
  -26.0419  -30.6402   21.3890 C   0  0  0  0  0  0
  -26.1120  -29.2268   20.7455 C   0  0  0  0  0  0
  -27.2564  -28.3060   20.7559 C   0  0  0  0  0  0
  -26.0036  -26.6926   19.5108 C   0  0  0  0  0  0
  -24.8981  -27.5815   19.4741 C   0  0  0  0  0  0
  -23.7125  -29.7536   20.1442 C   0  0  0  0  0  0
  -25.4117  -36.2998   24.0317 C   0  0  1  0  0  0
  -20.5973  -28.3768   23.1220 C   0  0  2  0  0  0
  -20.6823  -26.9461   22.5409 C   0  0  0  0  0  0
  -19.5776  -26.6423   21.5235 C   0  0  0  0  0  0
  -18.1952  -26.7981   22.1645 C   0  0  0  0  0  0
  -19.1603  -28.8924   23.2861 C   0  0  0  0  0  0
  -18.9514  -30.1514   23.8894 C   0  0  0  0  0  0
  -17.6508  -30.6630   24.0590 C   0  0  0  0  0  0
  -25.9091  -34.9377   23.5022 C   0  0  0  0  0  0
  -16.5393  -29.9124   23.6354 C   0  0  0  0  0  0
  -16.7320  -28.6536   23.0394 C   0  0  0  0  0  0
  -26.4547  -31.6533   25.0616 C   0  0  0  0  0  0
  -25.3686  -31.3773   26.1285 C   0  0  0  0  0  0
  -27.0416  -30.2924   24.6254 C   0  0  0  0  0  0
  -27.6069  -32.4293   25.7417 C   0  0  0  0  0  0
  -27.5564  -37.1783   24.8487 C   0  0  0  0  0  0
  -21.4334  -29.3056   22.3554 N   0  0  0  0  0  0
  -26.4276  -37.3732   23.9437 N   0  0  0  0  0  0
  -24.7475  -30.9975   22.0764 N   0  0  0  0  0  0
  -23.4255  -28.8076   23.2994 O   0  0  0  0  0  0
  -28.2292  -25.8361   20.2375 O   0  0  0  0  0  0
  -26.5684  -34.8910   22.4611 O   0  0  0  0  0  0
  -23.5690  -32.1198   23.6807 O   0  0  0  0  0  0
  -29.9022  -20.7480   19.3901 C   0  0  0  0  0  0
  -28.2689  -21.7506   21.1877 C   0  0  0  0  0  0
  -28.7197  -22.7358   20.2514 C   0  0  0  0  0  0
  -29.4450  -19.7247   20.3453 C   0  0  0  0  0  0
  -27.2526  -22.4275   22.0830 C   0  0  0  0  0  0
  -27.2477  -23.9644   21.7214 C   0  0  0  0  0  0
  -27.8739  -24.2314   20.3197 C   0  0  1  0  0  0
  -30.1667  -18.1391   20.5364 C   0  0  0  0  0  0
  -29.5479  -22.1334   19.3103 N   0  0  0  0  0  0
  -28.5970  -20.3592   21.2715 N   0  0  0  0  0  0
  -29.7405  -16.5342   20.4630 N   0  0  0  0  0  0
  -31.4571  -12.9886   19.1836 H   0  0  0  0  0  0
  -30.5013  -11.8974   20.1408 H   0  0  0  0  0  0
  -29.9051  -11.7211   17.6946 H   0  0  0  0  0  0
  -29.5502  -13.4339   17.6471 H   0  0  0  0  0  0
  -28.0585  -11.2604   19.1384 H   0  0  0  0  0  0
  -27.4066  -12.2826   17.8814 H   0  0  0  0  0  0
  -27.5247  -14.2234   19.3056 H   0  0  0  0  0  0
  -28.8219  -12.5317   21.5041 H   0  0  0  0  0  0
  -28.2932  -14.1930   21.6770 H   0  0  0  0  0  0
  -25.2767   -9.5683   22.4770 H   0  0  0  0  0  0
  -24.0010   -7.4621   22.7458 H   0  0  0  0  0  0
  -21.0870   -8.8746   19.8920 H   0  0  0  0  0  0
  -22.3694  -10.9669   19.6156 H   0  0  0  0  0  0
  -21.1986   -7.6148   23.9693 H   0  0  0  0  0  0
  -21.1495   -6.0523   25.9061 H   0  0  0  0  0  0
  -22.0602   -2.7617   23.2812 H   0  0  0  0  0  0
  -22.4069  -11.9799   22.4798 H   0  0  0  0  0  0
  -21.1036  -13.1135   22.2685 H   0  0  0  0  0  0
  -24.6525  -15.8607   20.5298 H   0  0  0  0  0  0
  -26.2608  -15.6261   20.0736 H   0  0  0  0  0  0
  -26.7355  -32.5206   23.0845 H   0  0  0  0  0  0
  -25.0153  -33.9495   25.0260 H   0  0  0  0  0  0
  -22.7846  -31.2710   21.3492 H   0  0  0  0  0  0
  -23.3756  -35.9530   23.3301 H   0  0  0  0  0  0
  -24.3547  -36.8832   22.2053 H   0  0  0  0  0  0
  -23.7204  -37.6393   23.6669 H   0  0  0  0  0  0
  -26.2055  -31.3724   20.5972 H   0  0  0  0  0  0
  -26.9102  -30.7166   22.0314 H   0  0  0  0  0  0
  -28.1518  -28.6178   21.2744 H   0  0  0  0  0  0
  -25.8635  -25.7452   19.0124 H   0  0  0  0  0  0
  -23.9991  -27.2735   18.9560 H   0  0  0  0  0  0
  -23.8654  -30.5169   19.3824 H   0  0  0  0  0  0
  -22.8215  -29.2083   19.8278 H   0  0  0  0  0  0
  -25.1322  -36.1795   25.0810 H   0  0  0  0  0  0
  -21.0073  -28.3356   24.1343 H   0  0  0  0  0  0
  -20.5733  -26.2378   23.3647 H   0  0  0  0  0  0
  -21.6681  -26.7474   22.1193 H   0  0  0  0  0  0
  -19.6899  -25.6327   21.1268 H   0  0  0  0  0  0
  -19.6687  -27.3245   20.6777 H   0  0  0  0  0  0
  -17.4235  -26.6791   21.4019 H   0  0  0  0  0  0
  -18.0313  -26.0118   22.9037 H   0  0  0  0  0  0
  -19.7980  -30.7357   24.2247 H   0  0  0  0  0  0
  -17.5053  -31.6303   24.5204 H   0  0  0  0  0  0
  -15.5390  -30.3042   23.7661 H   0  0  0  0  0  0
  -15.8728  -28.0845   22.7129 H   0  0  0  0  0  0
  -24.5933  -30.7027   25.7619 H   0  0  0  0  0  0
  -24.8780  -32.2965   26.4496 H   0  0  0  0  0  0
  -25.7940  -30.9118   27.0193 H   0  0  0  0  0  0
  -26.3044  -29.6638   24.1239 H   0  0  0  0  0  0
  -27.3991  -29.7207   25.4823 H   0  0  0  0  0  0
  -27.8973  -30.4143   23.9610 H   0  0  0  0  0  0
  -27.2712  -33.3690   26.1816 H   0  0  0  0  0  0
  -28.4004  -32.6669   25.0318 H   0  0  0  0  0  0
  -28.0595  -31.8490   26.5472 H   0  0  0  0  0  0
  -28.2640  -38.0034   24.7556 H   0  0  0  0  0  0
  -28.1015  -36.2582   24.6325 H   0  0  0  0  0  0
  -27.2290  -37.1462   25.8893 H   0  0  0  0  0  0
  -20.9538  -29.8744   21.6717 H   0  0  0  0  0  0
  -26.0115  -38.2796   24.1439 H   0  0  0  0  0  0
  -30.6395  -20.4460   18.6617 H   0  0  0  0  0  0
  -27.4966  -22.2599   23.1334 H   0  0  0  0  0  0
  -26.2733  -21.9893   21.8936 H   0  0  0  0  0  0
  -27.9097  -24.4489   22.4398 H   0  0  0  0  0  0
  -26.2701  -24.4300   21.8451 H   0  0  0  0  0  0
  -27.1039  -24.0766   19.5650 H   0  0  0  0  0  0
  -30.6191  -18.2156   21.5268 H   0  0  0  0  0  0
  -31.0229  -18.1933   19.8640 H   0  0  0  0  0  0
  -28.7426  -16.4010   20.5204 H   0  0  0  0  0  0
  1 25  1  0  0  0
  1 30  2  0  0  0
  1 81  1  0  0  0
  2  3  1  0  0  0
  2 25  1  0  0  0
  2 82  1  0  0  0
  2 83  1  0  0  0
  3  4  1  0  0  0
  3 84  1  0  0  0
  3 85  1  0  0  0
  4  5  1  0  0  0
  4 86  1  0  0  0
  4 87  1  0  0  0
  5  6  1  0  0  0
  5 26  1  0  0  0
  5 88  1  0  0  0
  6 25  1  0  0  0
  6 89  1  0  0  0
  6 90  1  0  0  0
  7  8  2  0  0  0
  7 26  1  0  0  0
  7 29  1  0  0  0
  8  9  1  0  0  0
  8 22  1  0  0  0
  9 10  1  0  0  0
  9 27  2  0  0  0
 10 11  2  0  0  0
 10 15  1  0  0  0
 11 12  1  0  0  0
 11 91  1  0  0  0
 12 13  2  0  0  0
 12 92  1  0  0  0
 13 14  1  0  0  0
 13 31  1  0  0  0
 14 15  2  0  0  0
 14 93  1  0  0  0
 15 94  1  0  0  0
 16 17  2  0  0  0
 16 21  1  0  0  0
 16 31  1  0  0  0
 17 18  1  0  0  0
 17 95  1  0  0  0
 18 19  2  0  0  0
 18 96  1  0  0  0
 19 20  1  0  0  0
 19 24  1  0  0  0
 20 21  2  0  0  0
 20 97  1  0  0  0
 21 23  1  0  0  0
 22 28  1  0  0  0
 22 32  2  0  0  0
 26 27  1  0  0  0
 28 98  1  0  0  0
 28 99  1  0  0  0
 29100  1  0  0  0
 29101  1  0  0  0
 33 34  1  0  0  0
 33 66  1  0  0  0
 33 70  2  0  0  0
 34 36  1  0  0  0
 34 59  1  0  0  0
 34102  1  0  0  0
 35 44  2  0  0  0
 35 45  1  0  0  0
 35 68  1  0  0  0
 36 56  1  0  0  0
 36103  1  0  0  0
 37 39  1  0  0  0
 37 47  1  0  0  0
 37 66  1  0  0  0
 37104  1  0  0  0
 38 43  2  0  0  0
 38 46  1  0  0  0
 38 47  1  0  0  0
 39 64  1  0  0  0
 39 67  2  0  0  0
 40 52  1  0  0  0
 40 53  2  0  0  0
 40 58  1  0  0  0
 41105  1  0  0  0
 41106  1  0  0  0
 41107  1  0  0  0
 41 48  1  0  0  0
 42 43  1  0  0  0
 42 66  1  0  0  0
 42108  1  0  0  0
 42109  1  0  0  0
 43 44  1  0  0  0
 44110  1  0  0  0
 45 46  2  0  0  0
 45111  1  0  0  0
 46112  1  0  0  0
 47113  1  0  0  0
 47114  1  0  0  0
 48 56  1  0  0  0
 48 65  1  0  0  0
 48115  1  0  0  0
 49 50  1  0  0  0
 49 53  1  0  0  0
 49 64  1  0  0  0
 49116  1  0  0  0
 50 51  1  0  0  0
 50117  1  0  0  0
 50118  1  0  0  0
 51 52  1  0  0  0
 51119  1  0  0  0
 51120  1  0  0  0
 52121  1  0  0  0
 52122  1  0  0  0
 53 54  1  0  0  0
 54 55  2  0  0  0
 54123  1  0  0  0
 55 57  1  0  0  0
 55124  1  0  0  0
 56 69  2  0  0  0
 57 58  2  0  0  0
 57125  1  0  0  0
 58126  1  0  0  0
 59 60  1  0  0  0
 59 61  1  0  0  0
 59 62  1  0  0  0
 60127  1  0  0  0
 60128  1  0  0  0
 60129  1  0  0  0
 61130  1  0  0  0
 61131  1  0  0  0
 61132  1  0  0  0
 62133  1  0  0  0
 62134  1  0  0  0
 62135  1  0  0  0
 63 65  1  0  0  0
 63136  1  0  0  0
 63137  1  0  0  0
 63138  1  0  0  0
 64139  1  0  0  0
 65140  1  0  0  0
 68 77  1  0  0  0
 71 74  2  0  0  0
 71 79  1  0  0  0
 71141  1  0  0  0
 72 73  1  0  0  0
 72 75  1  0  0  0
 72 80  2  0  0  0
 73 77  1  0  0  0
 73 79  2  0  0  0
 74 78  1  0  0  0
 74 80  1  0  0  0
 75 76  1  0  0  0
 75142  1  0  0  0
 75143  1  0  0  0
 76 77  1  0  0  0
 76144  1  0  0  0
 76145  1  0  0  0
 77146  1  0  0  0
 78 81  1  0  0  0
 78147  1  0  0  0
 78148  1  0  0  0
 81149  1  0  0  0
M  ISO  4   1 100  68 101  77 101  81 100
M  END
> <chiral flag>
0

> <version>
0

> <s_m_source_file>
/data/baiqing/PycharmProjects/Reinvent-master-3.2/result/LINK_invent/BTK/process_docking_weight1_custom_sum_contain_oxygen_bond_distance_aromatic_linkinvent_7_9_3/rearranged_h_0180.sdf

> <i_m_source_file_index>
76

> <r_mmod_Potential_Energy-OPLS-2005>
1214.49877929688

> <r_mmod_Stretch_Energy-OPLS-2005>
496.174530029297

> <r_mmod_Bend_Energy-OPLS-2005>
496.280914306641

> <r_mmod_Torsional_Energy-OPLS-2005>
225.458480834961

> <r_mmod_Improper_Torsional_Energy-OPLS-2005>
8.91056823730469

> <r_mmod_Van_der_Waal_Energy-OPLS-2005>
129.56950378418

> <r_mmod_Electrostatic_Energy-OPLS-2005>
-343.608551025391

> <r_mmod_Solvation_Energy-OPLS-2005>
-236.679824829102

> <b_mmod_Minimization_Converged-OPLS-2005>
0

> <r_mmod_RMS_Derivative-OPLS-2005>
3.71221327781677

$$$$
76
                    3D
 Structure written by MMmdl.
155164  0  0  1  0            999 V2000
  -30.6071  -14.7597   20.4535 C   0  0  0  0  0  0
  -30.4317  -12.4649   19.4729 C   0  0  0  0  0  0
  -29.5114  -12.5125   18.2340 C   0  0  0  0  0  0
  -28.0376  -12.3350   18.6477 C   0  0  0  0  0  0
  -27.6408  -13.2361   19.8483 C   0  0  2  0  0  0
  -28.6851  -13.1820   20.9830 C   0  0  0  0  0  0
  -25.2517  -13.8208   20.5707 C   0  0  0  0  0  0
  -24.1803  -13.0448   20.9192 C   0  0  0  0  0  0
  -24.6402  -11.6926   20.8736 C   0  0  0  0  0  0
  -23.9079  -10.4301   21.0403 C   0  0  0  0  0  0
  -24.3632   -9.4213   21.9180 C   0  0  0  0  0  0
  -23.6304   -8.2249   22.0751 C   0  0  0  0  0  0
  -22.4284   -8.0286   21.3544 C   0  0  0  0  0  0
  -21.9919   -9.0259   20.4644 C   0  0  0  0  0  0
  -22.7251  -10.2139   20.3051 C   0  0  0  0  0  0
  -21.6852   -6.0742   22.5281 C   0  0  0  0  0  0
  -21.4013   -6.5643   23.8216 C   0  0  0  0  0  0
  -21.3661   -5.6794   24.9178 C   0  0  0  0  0  0
  -21.6046   -4.3056   24.7226 C   0  0  0  0  0  0
  -21.8816   -3.8151   23.4346 C   0  0  0  0  0  0
  -21.9194   -4.6971   22.3403 C   0  0  0  0  0  0
  -22.7824  -13.5227   21.1858 C   0  0  0  0  0  0
  -22.1658   -4.2153   21.0981 F   0  0  0  0  0  0
  -21.5633   -3.4544   25.7740 F   0  0  0  0  0  0
  -29.9816  -13.5335   20.3945 N   0  0  0  0  0  0
  -26.2942  -12.9420   20.3282 N   0  0  0  0  0  0
  -25.9335  -11.6557   20.5741 N   0  0  0  0  0  0
  -22.0479  -12.8208   22.0417 N   0  0  0  0  0  0
  -25.4242  -15.1930   20.4163 N   0  0  0  0  0  0
  -31.8044  -14.8433   20.1625 O   0  0  0  0  0  0
  -21.6642   -6.8885   21.4244 O   0  0  0  0  0  0
  -22.3505  -14.5536   20.6716 O   0  0  0  0  0  0
  -24.6342  -31.8536   23.1971 C   0  0  0  0  0  0
  -25.9164  -32.4737   23.8322 C   0  0  1  0  0  0
  -27.2191  -27.2405   20.1149 C   0  0  0  0  0  0
  -25.5955  -33.8542   24.2249 N   0  0  0  0  0  0
  -23.4312  -30.4773   21.5413 C   0  0  2  0  0  0
  -24.8767  -28.9249   20.1066 C   0  0  0  0  0  0
  -22.7519  -29.4593   22.4900 C   0  0  0  0  0  0
  -18.0298  -28.1384   22.8481 C   0  0  0  0  0  0
  -24.1499  -36.7272   23.2635 C   0  0  0  0  0  0
  -25.9801  -30.7582   21.3815 C   0  0  0  0  0  0
  -26.0498  -29.3809   20.7185 C   0  0  0  0  0  0
  -27.2193  -28.5499   20.7150 C   0  0  0  0  0  0
  -26.0092  -26.8530   19.4920 C   0  0  0  0  0  0
  -24.8628  -27.6696   19.4848 C   0  0  0  0  0  0
  -23.6493  -29.8145   20.1563 C   0  0  0  0  0  0
  -25.4125  -36.3058   24.0324 C   0  0  1  0  0  0
  -20.5906  -28.3703   23.1259 C   0  0  2  0  0  0
  -20.6787  -26.9416   22.5406 C   0  0  0  0  0  0
  -19.5760  -26.6379   21.5212 C   0  0  0  0  0  0
  -18.1940  -26.7925   22.1623 C   0  0  0  0  0  0
  -19.1553  -28.8861   23.2866 C   0  0  0  0  0  0
  -18.9468  -30.1459   23.8886 C   0  0  0  0  0  0
  -17.6465  -30.6583   24.0557 C   0  0  0  0  0  0
  -25.9069  -34.9429   23.5088 C   0  0  0  0  0  0
  -16.5359  -29.9074   23.6332 C   0  0  0  0  0  0
  -16.7283  -28.6495   23.0353 C   0  0  0  0  0  0
  -26.4517  -31.6561   25.0719 C   0  0  0  0  0  0
  -25.3738  -31.3723   26.1440 C   0  0  0  0  0  0
  -27.0344  -30.2961   24.6228 C   0  0  0  0  0  0
  -27.6085  -32.4288   25.7483 C   0  0  0  0  0  0
  -27.5587  -37.1788   24.8460 C   0  0  0  0  0  0
  -21.4223  -29.3046   22.3644 N   0  0  0  0  0  0
  -26.4297  -37.3761   23.9408 N   0  0  0  0  0  0
  -24.7010  -31.0483   22.0955 N   0  0  0  0  0  0
  -23.4209  -28.8139   23.3009 O   0  0  0  0  0  0
  -28.3148  -26.3383   20.2082 O   0  0  0  0  0  0
  -26.5640  -34.8910   22.4656 O   0  0  0  0  0  0
  -23.5488  -32.1372   23.7251 O   0  0  0  0  0  0
  -28.1374  -21.1870   20.3582 C   0  0  0  0  0  0
  -30.0660  -23.0926   20.0312 C   0  0  0  0  0  0
  -27.7584  -22.5679   20.1693 C   0  0  0  0  0  0
  -28.7374  -23.5964   19.9727 C   0  0  0  0  0  0
  -29.4984  -20.7853   20.3518 C   0  0  0  0  0  0
  -29.8383  -16.9952   19.5150 C   0  0  0  0  0  0
  -30.0742  -17.0315   21.5239 C   0  0  0  0  0  0
  -29.4014  -18.0633   20.5611 C   0  0  0  0  0  0
  -26.2831  -22.9168   20.1150 C   0  0  0  0  0  0
  -28.4152  -25.0689   19.4013 C   0  0  0  0  0  0
  -30.4220  -21.7737   20.2125 N   0  0  0  0  0  0
  -29.8256  -15.9136   20.5570 N   0  0  0  0  0  0
  -30.0339  -19.4411   20.4676 N   0  0  0  0  0  0
  -31.4734  -12.5889   19.1726 H   0  0  0  0  0  0
  -30.3742  -11.4909   19.9612 H   0  0  0  0  0  0
  -29.7970  -11.7397   17.5191 H   0  0  0  0  0  0
  -29.6365  -13.4663   17.7188 H   0  0  0  0  0  0
  -27.8944  -11.2860   18.9102 H   0  0  0  0  0  0
  -27.3809  -12.5254   17.7982 H   0  0  0  0  0  0
  -27.6315  -14.2570   19.4656 H   0  0  0  0  0  0
  -28.7233  -12.1901   21.4354 H   0  0  0  0  0  0
  -28.4219  -13.8802   21.7793 H   0  0  0  0  0  0
  -25.2781   -9.5686   22.4751 H   0  0  0  0  0  0
  -24.0012   -7.4640   22.7467 H   0  0  0  0  0  0
  -21.0852   -8.8781   19.8953 H   0  0  0  0  0  0
  -22.3710  -10.9679   19.6157 H   0  0  0  0  0  0
  -21.1998   -7.6149   23.9723 H   0  0  0  0  0  0
  -21.1486   -6.0524   25.9082 H   0  0  0  0  0  0
  -22.0594   -2.7612   23.2847 H   0  0  0  0  0  0
  -22.4098  -11.9866   22.4801 H   0  0  0  0  0  0
  -21.1099  -13.1226   22.2639 H   0  0  0  0  0  0
  -24.6667  -15.8560   20.5380 H   0  0  0  0  0  0
  -26.2943  -15.6305   20.1393 H   0  0  0  0  0  0
  -26.7225  -32.5367   23.1055 H   0  0  0  0  0  0
  -25.0104  -33.9673   25.0395 H   0  0  0  0  0  0
  -22.7288  -31.3007   21.3961 H   0  0  0  0  0  0
  -23.3771  -35.9593   23.3275 H   0  0  0  0  0  0
  -24.3598  -36.8918   22.2055 H   0  0  0  0  0  0
  -23.7240  -37.6461   23.6676 H   0  0  0  0  0  0
  -26.1281  -31.5205   20.6153 H   0  0  0  0  0  0
  -26.8542  -30.8002   22.0196 H   0  0  0  0  0  0
  -28.1153  -28.8938   21.2127 H   0  0  0  0  0  0
  -25.8792  -25.8841   19.0412 H   0  0  0  0  0  0
  -23.9596  -27.3077   19.0130 H   0  0  0  0  0  0
  -23.7754  -30.5926   19.4025 H   0  0  0  0  0  0
  -22.7668  -29.2506   19.8494 H   0  0  0  0  0  0
  -25.1308  -36.1896   25.0815 H   0  0  0  0  0  0
  -20.9999  -28.3282   24.1379 H   0  0  0  0  0  0
  -20.5689  -26.2314   23.3616 H   0  0  0  0  0  0
  -21.6654  -26.7433   22.1195 H   0  0  0  0  0  0
  -19.6922  -25.6287   21.1249 H   0  0  0  0  0  0
  -19.6698  -27.3188   20.6741 H   0  0  0  0  0  0
  -17.4214  -26.6678   21.4022 H   0  0  0  0  0  0
  -18.0334  -26.0066   22.9016 H   0  0  0  0  0  0
  -19.7944  -30.7280   24.2250 H   0  0  0  0  0  0
  -17.5017  -31.6265   24.5152 H   0  0  0  0  0  0
  -15.5357  -30.2969   23.7661 H   0  0  0  0  0  0
  -15.8688  -28.0805   22.7072 H   0  0  0  0  0  0
  -24.5889  -30.7108   25.7755 H   0  0  0  0  0  0
  -24.8968  -32.2900   26.4890 H   0  0  0  0  0  0
  -25.8045  -30.8860   27.0203 H   0  0  0  0  0  0
  -26.2917  -29.6708   24.1258 H   0  0  0  0  0  0
  -27.4003  -29.7229   25.4758 H   0  0  0  0  0  0
  -27.8820  -30.4203   23.9485 H   0  0  0  0  0  0
  -27.2715  -33.3602   26.2044 H   0  0  0  0  0  0
  -28.3903  -32.6814   25.0307 H   0  0  0  0  0  0
  -28.0744  -31.8415   26.5406 H   0  0  0  0  0  0
  -28.2583  -38.0105   24.7532 H   0  0  0  0  0  0
  -28.1107  -36.2637   24.6257 H   0  0  0  0  0  0
  -27.2308  -37.1393   25.8864 H   0  0  0  0  0  0
  -20.9415  -29.8763   21.6841 H   0  0  0  0  0  0
  -26.0171  -38.2832   24.1413 H   0  0  0  0  0  0
  -27.3707  -20.4330   20.4768 H   0  0  0  0  0  0
  -30.8923  -23.7628   19.8451 H   0  0  0  0  0  0
  -30.8263  -17.1808   19.0855 H   0  0  0  0  0  0
  -29.1056  -16.8586   18.7181 H   0  0  0  0  0  0
  -29.5434  -16.9275   22.4711 H   0  0  0  0  0  0
  -31.1345  -17.2220   21.7068 H   0  0  0  0  0  0
  -28.3181  -18.0979   20.6853 H   0  0  0  0  0  0
  -25.6709  -22.1168   20.5315 H   0  0  0  0  0  0
  -25.9688  -23.0816   19.0843 H   0  0  0  0  0  0
  -26.0785  -23.8219   20.6876 H   0  0  0  0  0  0
  -27.6172  -24.9561   18.6758 H   0  0  0  0  0  0
  -29.2631  -25.2798   18.7488 H   0  0  0  0  0  0
  -31.0471  -19.4173   20.4489 H   0  0  0  0  0  0
  1 25  1  0  0  0
  1 30  2  0  0  0
  1 82  1  0  0  0
  2  3  1  0  0  0
  2 25  1  0  0  0
  2 84  1  0  0  0
  2 85  1  0  0  0
  3  4  1  0  0  0
  3 86  1  0  0  0
  3 87  1  0  0  0
  4  5  1  0  0  0
  4 88  1  0  0  0
  4 89  1  0  0  0
  5  6  1  0  0  0
  5 26  1  0  0  0
  5 90  1  0  0  0
  6 25  1  0  0  0
  6 91  1  0  0  0
  6 92  1  0  0  0
  7  8  2  0  0  0
  7 26  1  0  0  0
  7 29  1  0  0  0
  8  9  1  0  0  0
  8 22  1  0  0  0
  9 10  1  0  0  0
  9 27  2  0  0  0
 10 11  2  0  0  0
 10 15  1  0  0  0
 11 12  1  0  0  0
 11 93  1  0  0  0
 12 13  2  0  0  0
 12 94  1  0  0  0
 13 14  1  0  0  0
 13 31  1  0  0  0
 14 15  2  0  0  0
 14 95  1  0  0  0
 15 96  1  0  0  0
 16 17  2  0  0  0
 16 21  1  0  0  0
 16 31  1  0  0  0
 17 18  1  0  0  0
 17 97  1  0  0  0
 18 19  2  0  0  0
 18 98  1  0  0  0
 19 20  1  0  0  0
 19 24  1  0  0  0
 20 21  2  0  0  0
 20 99  1  0  0  0
 21 23  1  0  0  0
 22 28  1  0  0  0
 22 32  2  0  0  0
 26 27  1  0  0  0
 28100  1  0  0  0
 28101  1  0  0  0
 29102  1  0  0  0
 29103  1  0  0  0
 33 34  1  0  0  0
 33 66  1  0  0  0
 33 70  2  0  0  0
 34 36  1  0  0  0
 34 59  1  0  0  0
 34104  1  0  0  0
 35 44  2  0  0  0
 35 45  1  0  0  0
 35 68  1  0  0  0
 36 56  1  0  0  0
 36105  1  0  0  0
 37 39  1  0  0  0
 37 47  1  0  0  0
 37 66  1  0  0  0
 37106  1  0  0  0
 38 43  2  0  0  0
 38 46  1  0  0  0
 38 47  1  0  0  0
 39 64  1  0  0  0
 39 67  2  0  0  0
 40 52  1  0  0  0
 40 53  2  0  0  0
 40 58  1  0  0  0
 41107  1  0  0  0
 41108  1  0  0  0
 41109  1  0  0  0
 41 48  1  0  0  0
 42 43  1  0  0  0
 42 66  1  0  0  0
 42110  1  0  0  0
 42111  1  0  0  0
 43 44  1  0  0  0
 44112  1  0  0  0
 45 46  2  0  0  0
 45113  1  0  0  0
 46114  1  0  0  0
 47115  1  0  0  0
 47116  1  0  0  0
 48 56  1  0  0  0
 48 65  1  0  0  0
 48117  1  0  0  0
 49 50  1  0  0  0
 49 53  1  0  0  0
 49 64  1  0  0  0
 49118  1  0  0  0
 50 51  1  0  0  0
 50119  1  0  0  0
 50120  1  0  0  0
 51 52  1  0  0  0
 51121  1  0  0  0
 51122  1  0  0  0
 52123  1  0  0  0
 52124  1  0  0  0
 53 54  1  0  0  0
 54 55  2  0  0  0
 54125  1  0  0  0
 55 57  1  0  0  0
 55126  1  0  0  0
 56 69  2  0  0  0
 57 58  2  0  0  0
 57127  1  0  0  0
 58128  1  0  0  0
 59 60  1  0  0  0
 59 61  1  0  0  0
 59 62  1  0  0  0
 60129  1  0  0  0
 60130  1  0  0  0
 60131  1  0  0  0
 61132  1  0  0  0
 61133  1  0  0  0
 61134  1  0  0  0
 62135  1  0  0  0
 62136  1  0  0  0
 62137  1  0  0  0
 63 65  1  0  0  0
 63138  1  0  0  0
 63139  1  0  0  0
 63140  1  0  0  0
 64141  1  0  0  0
 65142  1  0  0  0
 68 80  1  0  0  0
 71 73  2  0  0  0
 71 75  1  0  0  0
 71143  1  0  0  0
 72 74  2  0  0  0
 72 81  1  0  0  0
 72144  1  0  0  0
 73 74  1  0  0  0
 73 79  1  0  0  0
 74 80  1  0  0  0
 75 81  2  0  0  0
 75 83  1  0  0  0
 76 78  1  0  0  0
 76 82  1  0  0  0
 76145  1  0  0  0
 76146  1  0  0  0
 77 78  1  0  0  0
 77 82  1  0  0  0
 77147  1  0  0  0
 77148  1  0  0  0
 78 83  1  0  0  0
 78149  1  0  0  0
 79150  1  0  0  0
 79151  1  0  0  0
 79152  1  0  0  0
 80153  1  0  0  0
 80154  1  0  0  0
 83155  1  0  0  0
M  ISO  4   1 100  68 101  80 101  82 100
M  END
> <chiral flag>
0

> <version>
0

> <s_m_source_file>
/data/baiqing/PycharmProjects/Reinvent-master-3.2/result/LINK_invent/BTK/process_docking_weight1_custom_sum_contain_oxygen_bond_distance_aromatic_linkinvent_7_9_3/rearranged_h_0180.sdf

> <i_m_source_file_index>
77

> <r_mmod_Potential_Energy-OPLS-2005>
106.304801940918

> <r_mmod_Stretch_Energy-OPLS-2005>
116.684303283691

> <r_mmod_Bend_Energy-OPLS-2005>
218.498168945312

> <r_mmod_Torsional_Energy-OPLS-2005>
270.735168457031

> <r_mmod_Improper_Torsional_Energy-OPLS-2005>
16.7682800292969

> <r_mmod_Van_der_Waal_Energy-OPLS-2005>
136.865158081055

> <r_mmod_Electrostatic_Energy-OPLS-2005>
-528.011901855469

> <r_mmod_Solvation_Energy-OPLS-2005>
-221.382629394531

> <b_mmod_Minimization_Converged-OPLS-2005>
0

> <r_mmod_RMS_Derivative-OPLS-2005>
0.757155954837799

$$$$
77
                    3D
 Structure written by MMmdl.
149158  0  0  1  0            999 V2000
  -30.4710  -15.2183   20.3864 C   0  0  0  0  0  0
  -30.4369  -12.7761   19.5290 C   0  0  0  0  0  0
  -29.5361  -12.5762   18.2848 C   0  0  0  0  0  0
  -28.0851  -12.3005   18.7127 C   0  0  0  0  0  0
  -27.6153  -13.2714   19.8246 C   0  0  2  0  0  0
  -28.6466  -13.4364   20.9614 C   0  0  0  0  0  0
  -25.2392  -13.8235   20.5686 C   0  0  0  0  0  0
  -24.1740  -13.0437   20.9219 C   0  0  0  0  0  0
  -24.6398  -11.6935   20.8740 C   0  0  0  0  0  0
  -23.9101  -10.4289   21.0394 C   0  0  0  0  0  0
  -24.3640   -9.4202   21.9174 C   0  0  0  0  0  0
  -23.6295   -8.2251   22.0763 C   0  0  0  0  0  0
  -22.4270   -8.0301   21.3562 C   0  0  0  0  0  0
  -21.9915   -9.0276   20.4658 C   0  0  0  0  0  0
  -22.7266  -10.2140   20.3057 C   0  0  0  0  0  0
  -21.6863   -6.0744   22.5282 C   0  0  0  0  0  0
  -21.4022   -6.5642   23.8219 C   0  0  0  0  0  0
  -21.3655   -5.6789   24.9174 C   0  0  0  0  0  0
  -21.6037   -4.3058   24.7220 C   0  0  0  0  0  0
  -21.8818   -3.8156   23.4344 C   0  0  0  0  0  0
  -21.9190   -4.6970   22.3397 C   0  0  0  0  0  0
  -22.7763  -13.5196   21.1873 C   0  0  0  0  0  0
  -22.1657   -4.2164   21.0974 F   0  0  0  0  0  0
  -21.5622   -3.4537   25.7728 F   0  0  0  0  0  0
  -29.8897  -13.9220   20.3429 N   0  0  0  0  0  0
  -26.2827  -12.9508   20.3194 N   0  0  0  0  0  0
  -25.9339  -11.6618   20.5691 N   0  0  0  0  0  0
  -22.0419  -12.8212   22.0447 N   0  0  0  0  0  0
  -25.4016  -15.1969   20.4088 N   0  0  0  0  0  0
  -31.6868  -15.2118   20.1559 O   0  0  0  0  0  0
  -21.6643   -6.8893   21.4254 O   0  0  0  0  0  0
  -22.3447  -14.5488   20.6701 O   0  0  0  0  0  0
  -24.6621  -31.8241   23.1768 C   0  0  0  0  0  0
  -25.9321  -32.4581   23.8207 C   0  0  1  0  0  0
  -27.2028  -26.9226   20.1574 C   0  0  0  0  0  0
  -25.6002  -33.8397   24.2087 N   0  0  0  0  0  0
  -23.4760  -30.4427   21.5247 C   0  0  2  0  0  0
  -24.9280  -28.8477   20.1060 C   0  0  0  0  0  0
  -22.7663  -29.4446   22.4771 C   0  0  0  0  0  0
  -18.0328  -28.1402   22.8469 C   0  0  0  0  0  0
  -24.1498  -36.7201   23.2647 C   0  0  0  0  0  0
  -26.0490  -30.6234   21.4194 C   0  0  0  0  0  0
  -26.1106  -29.2188   20.7558 C   0  0  0  0  0  0
  -27.2349  -28.2723   20.7741 C   0  0  0  0  0  0
  -26.0048  -26.7455   19.4251 C   0  0  0  0  0  0
  -24.9030  -27.6298   19.4205 C   0  0  0  0  0  0
  -23.7162  -29.7730   20.1461 C   0  0  0  0  0  0
  -25.4133  -36.2949   24.0297 C   0  0  1  0  0  0
  -20.5952  -28.3747   23.1164 C   0  0  2  0  0  0
  -20.6805  -26.9422   22.5385 C   0  0  0  0  0  0
  -19.5774  -26.6366   21.5207 C   0  0  0  0  0  0
  -18.1959  -26.7930   22.1628 C   0  0  0  0  0  0
  -19.1586  -28.8893   23.2809 C   0  0  0  0  0  0
  -18.9498  -30.1493   23.8842 C   0  0  0  0  0  0
  -17.6491  -30.6590   24.0550 C   0  0  0  0  0  0
  -25.9100  -34.9338   23.5001 C   0  0  0  0  0  0
  -16.5380  -29.9074   23.6348 C   0  0  0  0  0  0
  -16.7308  -28.6490   23.0359 C   0  0  0  0  0  0
  -26.4557  -31.6547   25.0754 C   0  0  0  0  0  0
  -25.3673  -31.3815   26.1406 C   0  0  0  0  0  0
  -27.0474  -30.2902   24.6555 C   0  0  0  0  0  0
  -27.6030  -32.4376   25.7552 C   0  0  0  0  0  0
  -27.5571  -37.1740   24.8455 C   0  0  0  0  0  0
  -21.4331  -29.3040   22.3518 N   0  0  0  0  0  0
  -26.4272  -37.3691   23.9418 N   0  0  0  0  0  0
  -24.7494  -30.9906   22.0921 N   0  0  0  0  0  0
  -23.4214  -28.7989   23.2995 O   0  0  0  0  0  0
  -28.1745  -25.7875   20.2938 O   0  0  0  0  0  0
  -26.5713  -34.8869   22.4597 O   0  0  0  0  0  0
  -23.5696  -32.1229   23.6863 O   0  0  0  0  0  0
  -30.2304  -20.8482   20.9132 C   0  0  0  0  0  0
  -27.9846  -21.5564   19.7626 C   0  0  0  0  0  0
  -28.7233  -22.6829   20.2619 C   0  0  0  0  0  0
  -29.4772  -19.6876   20.4094 C   0  0  0  0  0  0
  -26.7881  -22.0921   19.0132 C   0  0  0  0  0  0
  -26.7764  -23.6590   19.1759 C   0  0  0  0  0  0
  -28.1226  -24.2141   19.7533 C   0  0  1  0  0  0
  -30.1617  -18.0826   20.2775 C   0  0  0  0  0  0
  -29.9053  -22.2411   20.8416 N   0  0  0  0  0  0
  -28.3044  -20.1625   19.8074 N   0  0  0  0  0  0
  -29.7366  -16.4964   20.4794 N   0  0  0  0  0  0
  -31.4606  -12.9669   19.2055 H   0  0  0  0  0  0
  -30.4838  -11.8621   20.1225 H   0  0  0  0  0  0
  -29.9072  -11.7593   17.6621 H   0  0  0  0  0  0
  -29.5711  -13.4753   17.6678 H   0  0  0  0  0  0
  -28.0388  -11.2731   19.0791 H   0  0  0  0  0  0
  -27.4197  -12.3526   17.8507 H   0  0  0  0  0  0
  -27.5370  -14.2401   19.3316 H   0  0  0  0  0  0
  -28.7992  -12.5024   21.5030 H   0  0  0  0  0  0
  -28.2918  -14.1671   21.6890 H   0  0  0  0  0  0
  -25.2795   -9.5670   22.4733 H   0  0  0  0  0  0
  -24.0008   -7.4636   22.7482 H   0  0  0  0  0  0
  -21.0842   -8.8803   19.8957 H   0  0  0  0  0  0
  -22.3732  -10.9680   19.6159 H   0  0  0  0  0  0
  -21.2038   -7.6154   23.9727 H   0  0  0  0  0  0
  -21.1463   -6.0517   25.9072 H   0  0  0  0  0  0
  -22.0599   -2.7621   23.2833 H   0  0  0  0  0  0
  -22.4057  -11.9907   22.4876 H   0  0  0  0  0  0
  -21.1031  -13.1253   22.2637 H   0  0  0  0  0  0
  -24.6219  -15.8400   20.4956 H   0  0  0  0  0  0
  -26.2347  -15.6377   20.0417 H   0  0  0  0  0  0
  -26.7404  -32.5102   23.0935 H   0  0  0  0  0  0
  -25.0074  -33.9469   25.0187 H   0  0  0  0  0  0
  -22.7902  -31.2758   21.3615 H   0  0  0  0  0  0
  -23.3762  -35.9529   23.3260 H   0  0  0  0  0  0
  -24.3578  -36.8897   22.2071 H   0  0  0  0  0  0
  -23.7260  -37.6376   23.6737 H   0  0  0  0  0  0
  -26.2447  -31.3683   20.6462 H   0  0  0  0  0  0
  -26.9048  -30.6651   22.0817 H   0  0  0  0  0  0
  -28.1141  -28.5433   21.3412 H   0  0  0  0  0  0
  -25.8386  -25.8686   18.8406 H   0  0  0  0  0  0
  -24.0153  -27.3516   18.8667 H   0  0  0  0  0  0
  -23.8686  -30.5475   19.3933 H   0  0  0  0  0  0
  -22.8257  -29.2270   19.8280 H   0  0  0  0  0  0
  -25.1321  -36.1725   25.0786 H   0  0  0  0  0  0
  -21.0034  -28.3360   24.1291 H   0  0  0  0  0  0
  -20.5659  -26.2360   23.3628 H   0  0  0  0  0  0
  -21.6663  -26.7382   22.1197 H   0  0  0  0  0  0
  -19.6910  -25.6255   21.1279 H   0  0  0  0  0  0
  -19.6703  -27.3139   20.6704 H   0  0  0  0  0  0
  -17.4205  -26.6657   21.4057 H   0  0  0  0  0  0
  -18.0378  -26.0087   22.9039 H   0  0  0  0  0  0
  -19.7972  -30.7336   24.2157 H   0  0  0  0  0  0
  -17.5037  -31.6260   24.5167 H   0  0  0  0  0  0
  -15.5370  -30.2952   23.7697 H   0  0  0  0  0  0
  -15.8719  -28.0797   22.7090 H   0  0  0  0  0  0
  -24.5820  -30.7215   25.7707 H   0  0  0  0  0  0
  -24.8917  -32.3031   26.4759 H   0  0  0  0  0  0
  -25.7874  -30.8999   27.0243 H   0  0  0  0  0  0
  -26.3172  -29.6553   24.1523 H   0  0  0  0  0  0
  -27.3924  -29.7292   25.5254 H   0  0  0  0  0  0
  -27.9149  -30.4067   24.0057 H   0  0  0  0  0  0
  -27.2565  -33.3684   26.2051 H   0  0  0  0  0  0
  -28.3874  -32.6930   25.0417 H   0  0  0  0  0  0
  -28.0683  -31.8586   26.5541 H   0  0  0  0  0  0
  -28.2517  -38.0095   24.7534 H   0  0  0  0  0  0
  -28.1123  -36.2617   24.6218 H   0  0  0  0  0  0
  -27.2296  -37.1312   25.8856 H   0  0  0  0  0  0
  -20.9570  -29.8746   21.6684 H   0  0  0  0  0  0
  -26.0097  -38.2732   24.1455 H   0  0  0  0  0  0
  -31.2007  -20.6553   21.3486 H   0  0  0  0  0  0
  -25.8646  -21.6428   19.3794 H   0  0  0  0  0  0
  -26.8847  -21.8205   17.9613 H   0  0  0  0  0  0
  -25.9718  -23.9064   19.8679 H   0  0  0  0  0  0
  -26.5525  -24.0883   18.2005 H   0  0  0  0  0  0
  -28.7531  -24.3470   18.8739 H   0  0  0  0  0  0
  -31.0596  -18.1648   20.8905 H   0  0  0  0  0  0
  -30.5522  -18.0901   19.2595 H   0  0  0  0  0  0
  -28.7479  -16.3743   20.6438 H   0  0  0  0  0  0
  1 25  1  0  0  0
  1 30  2  0  0  0
  1 81  1  0  0  0
  2  3  1  0  0  0
  2 25  1  0  0  0
  2 82  1  0  0  0
  2 83  1  0  0  0
  3  4  1  0  0  0
  3 84  1  0  0  0
  3 85  1  0  0  0
  4  5  1  0  0  0
  4 86  1  0  0  0
  4 87  1  0  0  0
  5  6  1  0  0  0
  5 26  1  0  0  0
  5 88  1  0  0  0
  6 25  1  0  0  0
  6 89  1  0  0  0
  6 90  1  0  0  0
  7  8  2  0  0  0
  7 26  1  0  0  0
  7 29  1  0  0  0
  8  9  1  0  0  0
  8 22  1  0  0  0
  9 10  1  0  0  0
  9 27  2  0  0  0
 10 11  2  0  0  0
 10 15  1  0  0  0
 11 12  1  0  0  0
 11 91  1  0  0  0
 12 13  2  0  0  0
 12 92  1  0  0  0
 13 14  1  0  0  0
 13 31  1  0  0  0
 14 15  2  0  0  0
 14 93  1  0  0  0
 15 94  1  0  0  0
 16 17  2  0  0  0
 16 21  1  0  0  0
 16 31  1  0  0  0
 17 18  1  0  0  0
 17 95  1  0  0  0
 18 19  2  0  0  0
 18 96  1  0  0  0
 19 20  1  0  0  0
 19 24  1  0  0  0
 20 21  2  0  0  0
 20 97  1  0  0  0
 21 23  1  0  0  0
 22 28  1  0  0  0
 22 32  2  0  0  0
 26 27  1  0  0  0
 28 98  1  0  0  0
 28 99  1  0  0  0
 29100  1  0  0  0
 29101  1  0  0  0
 33 34  1  0  0  0
 33 66  1  0  0  0
 33 70  2  0  0  0
 34 36  1  0  0  0
 34 59  1  0  0  0
 34102  1  0  0  0
 35 44  2  0  0  0
 35 45  1  0  0  0
 35 68  1  0  0  0
 36 56  1  0  0  0
 36103  1  0  0  0
 37 39  1  0  0  0
 37 47  1  0  0  0
 37 66  1  0  0  0
 37104  1  0  0  0
 38 43  2  0  0  0
 38 46  1  0  0  0
 38 47  1  0  0  0
 39 64  1  0  0  0
 39 67  2  0  0  0
 40 52  1  0  0  0
 40 53  2  0  0  0
 40 58  1  0  0  0
 41105  1  0  0  0
 41106  1  0  0  0
 41107  1  0  0  0
 41 48  1  0  0  0
 42 43  1  0  0  0
 42 66  1  0  0  0
 42108  1  0  0  0
 42109  1  0  0  0
 43 44  1  0  0  0
 44110  1  0  0  0
 45 46  2  0  0  0
 45111  1  0  0  0
 46112  1  0  0  0
 47113  1  0  0  0
 47114  1  0  0  0
 48 56  1  0  0  0
 48 65  1  0  0  0
 48115  1  0  0  0
 49 50  1  0  0  0
 49 53  1  0  0  0
 49 64  1  0  0  0
 49116  1  0  0  0
 50 51  1  0  0  0
 50117  1  0  0  0
 50118  1  0  0  0
 51 52  1  0  0  0
 51119  1  0  0  0
 51120  1  0  0  0
 52121  1  0  0  0
 52122  1  0  0  0
 53 54  1  0  0  0
 54 55  2  0  0  0
 54123  1  0  0  0
 55 57  1  0  0  0
 55124  1  0  0  0
 56 69  2  0  0  0
 57 58  2  0  0  0
 57125  1  0  0  0
 58126  1  0  0  0
 59 60  1  0  0  0
 59 61  1  0  0  0
 59 62  1  0  0  0
 60127  1  0  0  0
 60128  1  0  0  0
 60129  1  0  0  0
 61130  1  0  0  0
 61131  1  0  0  0
 61132  1  0  0  0
 62133  1  0  0  0
 62134  1  0  0  0
 62135  1  0  0  0
 63 65  1  0  0  0
 63136  1  0  0  0
 63137  1  0  0  0
 63138  1  0  0  0
 64139  1  0  0  0
 65140  1  0  0  0
 68 77  1  0  0  0
 71 74  2  0  0  0
 71 79  1  0  0  0
 71141  1  0  0  0
 72 73  1  0  0  0
 72 75  1  0  0  0
 72 80  2  0  0  0
 73 77  1  0  0  0
 73 79  2  0  0  0
 74 78  1  0  0  0
 74 80  1  0  0  0
 75 76  1  0  0  0
 75142  1  0  0  0
 75143  1  0  0  0
 76 77  1  0  0  0
 76144  1  0  0  0
 76145  1  0  0  0
 77146  1  0  0  0
 78 81  1  0  0  0
 78147  1  0  0  0
 78148  1  0  0  0
 81149  1  0  0  0
M  ISO  4   1 100  68 101  77 101  81 100
M  END
> <chiral flag>
0

> <version>
0

> <s_m_source_file>
/data/baiqing/PycharmProjects/Reinvent-master-3.2/result/LINK_invent/BTK/process_docking_weight1_custom_sum_contain_oxygen_bond_distance_aromatic_linkinvent_7_9_3/rearranged_h_0180.sdf

> <i_m_source_file_index>
78

> <r_mmod_Potential_Energy-OPLS-2005>
1258.79809570312

> <r_mmod_Stretch_Energy-OPLS-2005>
501.4755859375

> <r_mmod_Bend_Energy-OPLS-2005>
527.231872558594

> <r_mmod_Torsional_Energy-OPLS-2005>
226.165420532227

> <r_mmod_Improper_Torsional_Energy-OPLS-2005>
8.80985546112061

> <r_mmod_Van_der_Waal_Energy-OPLS-2005>
139.884826660156

> <r_mmod_Electrostatic_Energy-OPLS-2005>
-343.765289306641

> <r_mmod_Solvation_Energy-OPLS-2005>
-239.669326782227

> <b_mmod_Minimization_Converged-OPLS-2005>
0

> <r_mmod_RMS_Derivative-OPLS-2005>
2.56142520904541

$$$$
78
                    3D
 Structure written by MMmdl.
157166  0  0  1  0            999 V2000
  -30.5255  -14.9548   20.4159 C   0  0  0  0  0  0
  -30.4443  -12.5867   19.5018 C   0  0  0  0  0  0
  -29.5246  -12.5329   18.2588 C   0  0  0  0  0  0
  -28.0567  -12.3182   18.6738 C   0  0  0  0  0  0
  -27.6325  -13.2463   19.8419 C   0  0  2  0  0  0
  -28.6750  -13.2629   20.9810 C   0  0  0  0  0  0
  -25.2471  -13.8212   20.5710 C   0  0  0  0  0  0
  -24.1785  -13.0437   20.9231 C   0  0  0  0  0  0
  -24.6398  -11.6921   20.8756 C   0  0  0  0  0  0
  -23.9077  -10.4291   21.0408 C   0  0  0  0  0  0
  -24.3627   -9.4205   21.9183 C   0  0  0  0  0  0
  -23.6301   -8.2241   22.0752 C   0  0  0  0  0  0
  -22.4283   -8.0279   21.3542 C   0  0  0  0  0  0
  -21.9918   -9.0252   20.4645 C   0  0  0  0  0  0
  -22.7248  -10.2132   20.3056 C   0  0  0  0  0  0
  -21.6855   -6.0734   22.5279 C   0  0  0  0  0  0
  -21.4015   -6.5638   23.8212 C   0  0  0  0  0  0
  -21.3661   -5.6793   24.9176 C   0  0  0  0  0  0
  -21.6047   -4.3055   24.7227 C   0  0  0  0  0  0
  -21.8821   -3.8144   23.4349 C   0  0  0  0  0  0
  -21.9192   -4.6960   22.3404 C   0  0  0  0  0  0
  -22.7804  -13.5206   21.1882 C   0  0  0  0  0  0
  -22.1662   -4.2146   21.0982 F   0  0  0  0  0  0
  -21.5630   -3.4538   25.7739 F   0  0  0  0  0  0
  -29.9541  -13.6807   20.3901 N   0  0  0  0  0  0
  -26.2897  -12.9439   20.3248 N   0  0  0  0  0  0
  -25.9331  -11.6572   20.5741 N   0  0  0  0  0  0
  -22.0454  -12.8194   22.0439 N   0  0  0  0  0  0
  -25.4130  -15.1943   20.4122 N   0  0  0  0  0  0
  -31.7246  -15.0290   20.1160 O   0  0  0  0  0  0
  -21.6644   -6.8879   21.4242 O   0  0  0  0  0  0
  -22.3489  -14.5509   20.6723 O   0  0  0  0  0  0
  -24.6452  -31.8428   23.1874 C   0  0  0  0  0  0
  -25.9218  -32.4688   23.8268 C   0  0  1  0  0  0
  -27.2181  -27.1188   20.1376 C   0  0  0  0  0  0
  -25.5959  -33.8495   24.2183 N   0  0  0  0  0  0
  -23.4491  -30.4629   21.5336 C   0  0  2  0  0  0
  -24.8979  -28.8914   20.1060 C   0  0  0  0  0  0
  -22.7575  -29.4539   22.4850 C   0  0  0  0  0  0
  -18.0307  -28.1394   22.8480 C   0  0  0  0  0  0
  -24.1491  -36.7249   23.2642 C   0  0  0  0  0  0
  -26.0072  -30.7091   21.3909 C   0  0  0  0  0  0
  -26.0757  -29.3205   20.7286 C   0  0  0  0  0  0
  -27.2307  -28.4485   20.7323 C   0  0  0  0  0  0
  -26.0062  -26.7973   19.4813 C   0  0  0  0  0  0
  -24.8774  -27.6436   19.4693 C   0  0  0  0  0  0
  -23.6754  -29.7946   20.1520 C   0  0  0  0  0  0
  -25.4124  -36.3028   24.0315 C   0  0  1  0  0  0
  -20.5921  -28.3724   23.1229 C   0  0  2  0  0  0
  -20.6789  -26.9424   22.5404 C   0  0  0  0  0  0
  -19.5761  -26.6379   21.5213 C   0  0  0  0  0  0
  -18.1943  -26.7934   22.1624 C   0  0  0  0  0  0
  -19.1565  -28.8877   23.2846 C   0  0  0  0  0  0
  -18.9479  -30.1473   23.8873 C   0  0  0  0  0  0
  -17.6475  -30.6593   24.0558 C   0  0  0  0  0  0
  -25.9078  -34.9404   23.5059 C   0  0  0  0  0  0
  -16.5366  -29.9084   23.6337 C   0  0  0  0  0  0
  -16.7291  -28.6501   23.0363 C   0  0  0  0  0  0
  -26.4529  -31.6564   25.0722 C   0  0  0  0  0  0
  -25.3705  -31.3763   26.1411 C   0  0  0  0  0  0
  -27.0396  -30.2955   24.6327 C   0  0  0  0  0  0
  -27.6058  -32.4334   25.7506 C   0  0  0  0  0  0
  -27.5578  -37.1778   24.8461 C   0  0  0  0  0  0
  -21.4265  -29.3048   22.3598 N   0  0  0  0  0  0
  -26.4283  -37.3745   23.9413 N   0  0  0  0  0  0
  -24.7204  -31.0266   22.0919 N   0  0  0  0  0  0
  -23.4210  -28.8088   23.3008 O   0  0  0  0  0  0
  -28.2754  -26.1328   20.2532 O   0  0  0  0  0  0
  -26.5665  -34.8903   22.4639 O   0  0  0  0  0  0
  -23.5567  -32.1317   23.7080 O   0  0  0  0  0  0
  -28.7161  -18.5127   20.8551 C   0  0  0  0  0  0
  -29.8140  -20.6404   20.0909 C   0  0  0  0  0  0
  -28.7151  -19.9704   20.6931 C   0  0  0  0  0  0
  -30.8286  -19.6919   19.6710 C   0  0  0  0  0  0
  -29.7898  -17.6260   20.4435 C   0  0  0  0  0  0
  -29.8327  -22.2242   19.9904 C   0  0  0  0  0  0
  -30.9886  -22.9089   19.9221 C   0  0  0  0  0  0
  -27.5032  -20.8463   21.1175 C   0  0  0  0  0  0
  -27.6493  -22.4332   21.1741 C   0  0  0  0  0  0
  -28.4908  -23.0805   20.0408 C   0  0  1  0  0  0
  -32.0562  -20.1328   18.8945 C   0  0  0  0  0  0
  -28.3205  -24.7257   19.5744 C   0  0  0  0  0  0
  -30.8126  -18.3124   19.8513 N   0  0  0  0  0  0
  -29.7036  -16.1007   20.6249 N   0  0  0  0  0  0
  -31.4784  -12.7449   19.1915 H   0  0  0  0  0  0
  -30.4373  -11.6319   20.0301 H   0  0  0  0  0  0
  -29.8433  -11.7372   17.5842 H   0  0  0  0  0  0
  -29.6136  -13.4647   17.6982 H   0  0  0  0  0  0
  -27.9508  -11.2758   18.9768 H   0  0  0  0  0  0
  -27.3947  -12.4551   17.8180 H   0  0  0  0  0  0
  -27.5984  -14.2503   19.4188 H   0  0  0  0  0  0
  -28.7613  -12.2808   21.4486 H   0  0  0  0  0  0
  -28.3730  -13.9519   21.7711 H   0  0  0  0  0  0
  -25.2771   -9.5681   22.4758 H   0  0  0  0  0  0
  -24.0008   -7.4634   22.7473 H   0  0  0  0  0  0
  -21.0846   -8.8771   19.8954 H   0  0  0  0  0  0
  -22.3702  -10.9670   19.6166 H   0  0  0  0  0  0
  -21.2007   -7.6147   23.9714 H   0  0  0  0  0  0
  -21.1484   -6.0524   25.9080 H   0  0  0  0  0  0
  -22.0598   -2.7604   23.2852 H   0  0  0  0  0  0
  -22.4077  -11.9864   22.4838 H   0  0  0  0  0  0
  -21.1065  -13.1206   22.2633 H   0  0  0  0  0  0
  -24.6367  -15.8391   20.5152 H   0  0  0  0  0  0
  -26.2390  -15.6324   20.0268 H   0  0  0  0  0  0
  -26.7283  -32.5285   23.0993 H   0  0  0  0  0  0
  -25.0085  -33.9609   25.0317 H   0  0  0  0  0  0
  -22.7526  -31.2897   21.3795 H   0  0  0  0  0  0
  -23.3764  -35.9568   23.3284 H   0  0  0  0  0  0
  -24.3575  -36.8902   22.2059 H   0  0  0  0  0  0
  -23.7233  -37.6433   23.6690 H   0  0  0  0  0  0
  -26.1684  -31.4641   20.6202 H   0  0  0  0  0  0
  -26.8757  -30.7558   22.0364 H   0  0  0  0  0  0
  -28.1244  -28.7700   21.2488 H   0  0  0  0  0  0
  -25.8561  -25.8451   19.0029 H   0  0  0  0  0  0
  -23.9756  -27.3067   18.9767 H   0  0  0  0  0  0
  -23.8117  -30.5701   19.3974 H   0  0  0  0  0  0
  -22.7899  -29.2374   19.8412 H   0  0  0  0  0  0
  -25.1310  -36.1853   25.0806 H   0  0  0  0  0  0
  -21.0015  -28.3317   24.1350 H   0  0  0  0  0  0
  -20.5681  -26.2338   23.3624 H   0  0  0  0  0  0
  -21.6654  -26.7424   22.1203 H   0  0  0  0  0  0
  -19.6919  -25.6283   21.1259 H   0  0  0  0  0  0
  -19.6698  -27.3175   20.6730 H   0  0  0  0  0  0
  -17.4212  -26.6685   21.4026 H   0  0  0  0  0  0
  -18.0338  -26.0078   22.9023 H   0  0  0  0  0  0
  -19.7954  -30.7296   24.2233 H   0  0  0  0  0  0
  -17.5028  -31.6272   24.5161 H   0  0  0  0  0  0
  -15.5366  -30.2977   23.7672 H   0  0  0  0  0  0
  -15.8692  -28.0806   22.7097 H   0  0  0  0  0  0
  -24.5891  -30.7104   25.7727 H   0  0  0  0  0  0
  -24.8886  -32.2947   26.4771 H   0  0  0  0  0  0
  -25.7980  -30.8977   27.0231 H   0  0  0  0  0  0
  -26.3019  -29.6672   24.1320 H   0  0  0  0  0  0
  -27.3976  -29.7262   25.4916 H   0  0  0  0  0  0
  -27.8943  -30.4176   23.9671 H   0  0  0  0  0  0
  -27.2653  -33.3659   26.2018 H   0  0  0  0  0  0
  -28.3901  -32.6855   25.0357 H   0  0  0  0  0  0
  -28.0688  -31.8503   26.5477 H   0  0  0  0  0  0
  -28.2574  -38.0098   24.7533 H   0  0  0  0  0  0
  -28.1099  -36.2628   24.6256 H   0  0  0  0  0  0
  -27.2299  -37.1385   25.8864 H   0  0  0  0  0  0
  -20.9475  -29.8766   21.6782 H   0  0  0  0  0  0
  -26.0150  -38.2809   24.1433 H   0  0  0  0  0  0
  -27.8440  -18.0666   21.3132 H   0  0  0  0  0  0
  -31.9582  -22.4428   19.9470 H   0  0  0  0  0  0
  -30.9928  -23.9885   19.8835 H   0  0  0  0  0  0
  -27.1479  -20.4908   22.0852 H   0  0  0  0  0  0
  -26.7052  -20.6114   20.4127 H   0  0  0  0  0  0
  -28.1229  -22.6975   22.1200 H   0  0  0  0  0  0
  -26.6571  -22.8840   21.2060 H   0  0  0  0  0  0
  -28.0231  -22.6361   19.1605 H   0  0  0  0  0  0
  -31.8172  -20.9376   18.2001 H   0  0  0  0  0  0
  -32.4618  -19.3152   18.2974 H   0  0  0  0  0  0
  -32.8430  -20.4603   19.5733 H   0  0  0  0  0  0
  -27.4732  -24.6850   18.9008 H   0  0  0  0  0  0
  -29.1307  -24.8700   18.8599 H   0  0  0  0  0  0
  -28.7870  -15.8120   20.9255 H   0  0  0  0  0  0
  1 25  1  0  0  0
  1 30  2  0  0  0
  1 84  1  0  0  0
  2  3  1  0  0  0
  2 25  1  0  0  0
  2 85  1  0  0  0
  2 86  1  0  0  0
  3  4  1  0  0  0
  3 87  1  0  0  0
  3 88  1  0  0  0
  4  5  1  0  0  0
  4 89  1  0  0  0
  4 90  1  0  0  0
  5  6  1  0  0  0
  5 26  1  0  0  0
  5 91  1  0  0  0
  6 25  1  0  0  0
  6 92  1  0  0  0
  6 93  1  0  0  0
  7  8  2  0  0  0
  7 26  1  0  0  0
  7 29  1  0  0  0
  8  9  1  0  0  0
  8 22  1  0  0  0
  9 10  1  0  0  0
  9 27  2  0  0  0
 10 11  2  0  0  0
 10 15  1  0  0  0
 11 12  1  0  0  0
 11 94  1  0  0  0
 12 13  2  0  0  0
 12 95  1  0  0  0
 13 14  1  0  0  0
 13 31  1  0  0  0
 14 15  2  0  0  0
 14 96  1  0  0  0
 15 97  1  0  0  0
 16 17  2  0  0  0
 16 21  1  0  0  0
 16 31  1  0  0  0
 17 18  1  0  0  0
 17 98  1  0  0  0
 18 19  2  0  0  0
 18 99  1  0  0  0
 19 20  1  0  0  0
 19 24  1  0  0  0
 20 21  2  0  0  0
 20100  1  0  0  0
 21 23  1  0  0  0
 22 28  1  0  0  0
 22 32  2  0  0  0
 26 27  1  0  0  0
 28101  1  0  0  0
 28102  1  0  0  0
 29103  1  0  0  0
 29104  1  0  0  0
 33 34  1  0  0  0
 33 66  1  0  0  0
 33 70  2  0  0  0
 34 36  1  0  0  0
 34 59  1  0  0  0
 34105  1  0  0  0
 35 44  2  0  0  0
 35 45  1  0  0  0
 35 68  1  0  0  0
 36 56  1  0  0  0
 36106  1  0  0  0
 37 39  1  0  0  0
 37 47  1  0  0  0
 37 66  1  0  0  0
 37107  1  0  0  0
 38 43  2  0  0  0
 38 46  1  0  0  0
 38 47  1  0  0  0
 39 64  1  0  0  0
 39 67  2  0  0  0
 40 52  1  0  0  0
 40 53  2  0  0  0
 40 58  1  0  0  0
 41108  1  0  0  0
 41109  1  0  0  0
 41110  1  0  0  0
 41 48  1  0  0  0
 42 43  1  0  0  0
 42 66  1  0  0  0
 42111  1  0  0  0
 42112  1  0  0  0
 43 44  1  0  0  0
 44113  1  0  0  0
 45 46  2  0  0  0
 45114  1  0  0  0
 46115  1  0  0  0
 47116  1  0  0  0
 47117  1  0  0  0
 48 56  1  0  0  0
 48 65  1  0  0  0
 48118  1  0  0  0
 49 50  1  0  0  0
 49 53  1  0  0  0
 49 64  1  0  0  0
 49119  1  0  0  0
 50 51  1  0  0  0
 50120  1  0  0  0
 50121  1  0  0  0
 51 52  1  0  0  0
 51122  1  0  0  0
 51123  1  0  0  0
 52124  1  0  0  0
 52125  1  0  0  0
 53 54  1  0  0  0
 54 55  2  0  0  0
 54126  1  0  0  0
 55 57  1  0  0  0
 55127  1  0  0  0
 56 69  2  0  0  0
 57 58  2  0  0  0
 57128  1  0  0  0
 58129  1  0  0  0
 59 60  1  0  0  0
 59 61  1  0  0  0
 59 62  1  0  0  0
 60130  1  0  0  0
 60131  1  0  0  0
 60132  1  0  0  0
 61133  1  0  0  0
 61134  1  0  0  0
 61135  1  0  0  0
 62136  1  0  0  0
 62137  1  0  0  0
 62138  1  0  0  0
 63 65  1  0  0  0
 63139  1  0  0  0
 63140  1  0  0  0
 63141  1  0  0  0
 64142  1  0  0  0
 65143  1  0  0  0
 68 82  1  0  0  0
 71 73  2  0  0  0
 71 75  1  0  0  0
 71144  1  0  0  0
 72 73  1  0  0  0
 72 74  2  0  0  0
 72 76  1  0  0  0
 73 78  1  0  0  0
 74 81  1  0  0  0
 74 83  1  0  0  0
 75 83  2  0  0  0
 75 84  1  0  0  0
 76 77  2  0  0  0
 76 80  1  0  0  0
 77145  1  0  0  0
 77146  1  0  0  0
 78 79  1  0  0  0
 78147  1  0  0  0
 78148  1  0  0  0
 79 80  1  0  0  0
 79149  1  0  0  0
 79150  1  0  0  0
 80 82  1  0  0  0
 80151  1  0  0  0
 81152  1  0  0  0
 81153  1  0  0  0
 81154  1  0  0  0
 82155  1  0  0  0
 82156  1  0  0  0
 84157  1  0  0  0
M  ISO  4   1 100  68 101  82 101  84 100
M  END
> <chiral flag>
0

> <version>
0

> <s_m_source_file>
/data/baiqing/PycharmProjects/Reinvent-master-3.2/result/LINK_invent/BTK/process_docking_weight1_custom_sum_contain_oxygen_bond_distance_aromatic_linkinvent_7_9_3/rearranged_h_0180.sdf

> <i_m_source_file_index>
79

> <r_mmod_Potential_Energy-OPLS-2005>
436.25830078125

> <r_mmod_Stretch_Energy-OPLS-2005>
247.888397216797

> <r_mmod_Bend_Energy-OPLS-2005>
324.523590087891

> <r_mmod_Torsional_Energy-OPLS-2005>
209.775527954102

> <r_mmod_Improper_Torsional_Energy-OPLS-2005>
4.03621339797974

> <r_mmod_Van_der_Waal_Energy-OPLS-2005>
145.698928833008

> <r_mmod_Electrostatic_Energy-OPLS-2005>
-462.315826416016

> <r_mmod_Solvation_Energy-OPLS-2005>
-233.844314575195

> <b_mmod_Minimization_Converged-OPLS-2005>
0

> <r_mmod_RMS_Derivative-OPLS-2005>
0.452709048986435

$$$$
79
                    3D
 Structure written by MMmdl.
158168  0  0  1  0            999 V2000
  -30.7101  -14.5052   20.5726 C   0  0  0  0  0  0
  -30.4257  -12.3328   19.4246 C   0  0  0  0  0  0
  -29.4947  -12.5129   18.2066 C   0  0  0  0  0  0
  -28.0143  -12.3757   18.6175 C   0  0  0  0  0  0
  -27.6619  -13.2087   19.8799 C   0  0  2  0  0  0
  -28.7090  -12.9704   20.9900 C   0  0  0  0  0  0
  -25.2592  -13.8163   20.5699 C   0  0  0  0  0  0
  -24.1839  -13.0439   20.9178 C   0  0  0  0  0  0
  -24.6395  -11.6905   20.8738 C   0  0  0  0  0  0
  -23.9059  -10.4292   21.0403 C   0  0  0  0  0  0
  -24.3612   -9.4209   21.9182 C   0  0  0  0  0  0
  -23.6289   -8.2244   22.0753 C   0  0  0  0  0  0
  -22.4272   -8.0280   21.3543 C   0  0  0  0  0  0
  -21.9905   -9.0252   20.4644 C   0  0  0  0  0  0
  -22.7232  -10.2134   20.3052 C   0  0  0  0  0  0
  -21.6852   -6.0735   22.5279 C   0  0  0  0  0  0
  -21.4012   -6.5639   23.8212 C   0  0  0  0  0  0
  -21.3660   -5.6791   24.9174 C   0  0  0  0  0  0
  -21.6045   -4.3054   24.7224 C   0  0  0  0  0  0
  -21.8819   -3.8146   23.4344 C   0  0  0  0  0  0
  -21.9193   -4.6962   22.3401 C   0  0  0  0  0  0
  -22.7862  -13.5240   21.1835 C   0  0  0  0  0  0
  -22.1661   -4.2149   21.0979 F   0  0  0  0  0  0
  -21.5631   -3.4539   25.7737 F   0  0  0  0  0  0
  -30.0256  -13.3271   20.4391 N   0  0  0  0  0  0
  -26.3033  -12.9334   20.3408 N   0  0  0  0  0  0
  -25.9325  -11.6490   20.5783 N   0  0  0  0  0  0
  -22.0499  -12.8237   22.0392 N   0  0  0  0  0  0
  -25.4324  -15.1879   20.4107 N   0  0  0  0  0  0
  -31.8499  -14.6293   20.1109 O   0  0  0  0  0  0
  -21.6638   -6.8877   21.4240 O   0  0  0  0  0  0
  -22.3551  -14.5549   20.6687 O   0  0  0  0  0  0
  -24.6187  -31.8676   23.2119 C   0  0  0  0  0  0
  -25.9072  -32.4819   23.8412 C   0  0  1  0  0  0
  -27.2205  -27.3982   20.0868 C   0  0  0  0  0  0
  -25.5920  -33.8619   24.2336 N   0  0  0  0  0  0
  -23.4069  -30.4965   21.5539 C   0  0  2  0  0  0
  -24.8497  -28.9714   20.1097 C   0  0  0  0  0  0
  -22.7431  -29.4665   22.4975 C   0  0  0  0  0  0
  -18.0276  -28.1375   22.8490 C   0  0  0  0  0  0
  -24.1487  -36.7310   23.2637 C   0  0  0  0  0  0
  -25.9437  -30.8195   21.3757 C   0  0  0  0  0  0
  -26.0162  -29.4560   20.7144 C   0  0  0  0  0  0
  -27.2030  -28.6769   20.7039 C   0  0  0  0  0  0
  -26.0311  -26.9626   19.4468 C   0  0  0  0  0  0
  -24.8546  -27.7249   19.4725 C   0  0  0  0  0  0
  -23.6152  -29.8413   20.1652 C   0  0  0  0  0  0
  -25.4109  -36.3108   24.0337 C   0  0  1  0  0  0
  -20.5871  -28.3668   23.1300 C   0  0  2  0  0  0
  -20.6766  -26.9401   22.5406 C   0  0  0  0  0  0
  -19.5741  -26.6381   21.5206 C   0  0  0  0  0  0
  -18.1921  -26.7921   22.1620 C   0  0  0  0  0  0
  -19.1527  -28.8838   23.2892 C   0  0  0  0  0  0
  -18.9456  -30.1444   23.8903 C   0  0  0  0  0  0
  -17.6458  -30.6582   24.0562 C   0  0  0  0  0  0
  -25.9039  -34.9473   23.5130 C   0  0  0  0  0  0
  -16.5348  -29.9082   23.6329 C   0  0  0  0  0  0
  -16.7265  -28.6498   23.0352 C   0  0  0  0  0  0
  -26.4484  -31.6600   25.0749 C   0  0  0  0  0  0
  -25.3743  -31.3710   26.1492 C   0  0  0  0  0  0
  -27.0320  -30.3035   24.6154 C   0  0  0  0  0  0
  -27.6056  -32.4324   25.7511 C   0  0  0  0  0  0
  -27.5582  -37.1810   24.8465 C   0  0  0  0  0  0
  -21.4155  -29.3042   22.3711 N   0  0  0  0  0  0
  -26.4293  -37.3794   23.9411 N   0  0  0  0  0  0
  -24.6748  -31.0754   22.1042 N   0  0  0  0  0  0
  -23.4194  -28.8188   23.3009 O   0  0  0  0  0  0
  -28.3562  -26.5923   20.1423 O   0  0  0  0  0  0
  -26.5597  -34.8923   22.4688 O   0  0  0  0  0  0
  -23.5371  -32.1448   23.7489 O   0  0  0  0  0  0
  -31.3082  -23.4430   21.1572 C   0  0  0  0  0  0
  -30.4490  -24.4825   20.7436 C   0  0  0  0  0  0
  -29.1310  -20.5163   20.5567 C   0  0  0  0  0  0
  -31.6398  -21.0228   21.4915 C   0  0  0  0  0  0
  -30.8461  -22.1111   21.0871 C   0  0  0  0  0  0
  -29.5539  -21.8565   20.6053 C   0  0  0  0  0  0
  -29.9798  -19.4785   20.9867 C   0  0  0  0  0  0
  -29.1647  -24.1506   20.2775 C   0  0  0  0  0  0
  -29.3484  -17.3949   22.4040 C   0  0  0  0  0  0
  -29.2601  -15.8859   22.1172 C   0  0  0  0  0  0
  -30.3587  -16.9539   20.2955 C   0  0  0  0  0  0
  -29.5023  -18.0104   21.0206 C   0  0  2  0  0  0
  -28.1504  -25.1962   19.7962 C   0  0  0  0  0  0
  -31.2187  -19.7393   21.4501 N   0  0  0  0  0  0
  -28.7388  -22.8616   20.2088 N   0  0  0  0  0  0
  -29.9976  -15.6340   20.8690 N   0  0  0  0  0  0
  -31.4679  -12.4334   19.1167 H   0  0  0  0  0  0
  -30.3398  -11.3224   19.8272 H   0  0  0  0  0  0
  -29.7372  -11.7812   17.4349 H   0  0  0  0  0  0
  -29.6606  -13.4942   17.7590 H   0  0  0  0  0  0
  -27.8209  -11.3192   18.8068 H   0  0  0  0  0  0
  -27.3652  -12.6575   17.7876 H   0  0  0  0  0  0
  -27.7081  -14.2599   19.5945 H   0  0  0  0  0  0
  -28.7072  -11.9180   21.2774 H   0  0  0  0  0  0
  -28.4640  -13.4927   21.9090 H   0  0  0  0  0  0
  -25.2758   -9.5688   22.4756 H   0  0  0  0  0  0
  -24.0001   -7.4636   22.7473 H   0  0  0  0  0  0
  -21.0837   -8.8767   19.8951 H   0  0  0  0  0  0
  -22.3688  -10.9671   19.6161 H   0  0  0  0  0  0
  -21.2002   -7.6147   23.9715 H   0  0  0  0  0  0
  -21.1483   -6.0521   25.9077 H   0  0  0  0  0  0
  -22.0599   -2.7608   23.2844 H   0  0  0  0  0  0
  -22.4106  -11.9896   22.4782 H   0  0  0  0  0  0
  -21.1120  -13.1274   22.2596 H   0  0  0  0  0  0
  -24.6685  -15.8461   20.5188 H   0  0  0  0  0  0
  -26.2916  -15.6252   20.1024 H   0  0  0  0  0  0
  -26.7141  -32.5512   23.1168 H   0  0  0  0  0  0
  -25.0085  -33.9784   25.0491 H   0  0  0  0  0  0
  -22.6970  -31.3154   21.4199 H   0  0  0  0  0  0
  -23.3747  -35.9645   23.3307 H   0  0  0  0  0  0
  -24.3582  -36.8917   22.2050 H   0  0  0  0  0  0
  -23.7240  -37.6518   23.6647 H   0  0  0  0  0  0
  -26.0702  -31.5883   20.6122 H   0  0  0  0  0  0
  -26.8268  -30.8624   22.0014 H   0  0  0  0  0  0
  -28.0967  -29.0423   21.1904 H   0  0  0  0  0  0
  -25.9669  -26.0251   18.9153 H   0  0  0  0  0  0
  -23.9624  -27.3516   18.9885 H   0  0  0  0  0  0
  -23.7267  -30.6224   19.4123 H   0  0  0  0  0  0
  -22.7369  -29.2671   19.8641 H   0  0  0  0  0  0
  -25.1284  -36.1973   25.0830 H   0  0  0  0  0  0
  -20.9963  -28.3230   24.1420 H   0  0  0  0  0  0
  -20.5664  -26.2277   23.3597 H   0  0  0  0  0  0
  -21.6636  -26.7437   22.1198 H   0  0  0  0  0  0
  -19.6901  -25.6293   21.1232 H   0  0  0  0  0  0
  -19.6678  -27.3195   20.6739 H   0  0  0  0  0  0
  -17.4190  -26.6672   21.4022 H   0  0  0  0  0  0
  -18.0321  -26.0057   22.9010 H   0  0  0  0  0  0
  -19.7934  -30.7258   24.2273 H   0  0  0  0  0  0
  -17.5015  -31.6267   24.5156 H   0  0  0  0  0  0
  -15.5351  -30.2990   23.7647 H   0  0  0  0  0  0
  -15.8662  -28.0820   22.7068 H   0  0  0  0  0  0
  -24.5919  -30.7052   25.7830 H   0  0  0  0  0  0
  -24.8932  -32.2864   26.4947 H   0  0  0  0  0  0
  -25.8094  -30.8878   27.0249 H   0  0  0  0  0  0
  -26.2878  -29.6794   24.1193 H   0  0  0  0  0  0
  -27.4057  -29.7275   25.4631 H   0  0  0  0  0  0
  -27.8731  -30.4342   23.9341 H   0  0  0  0  0  0
  -27.2674  -33.3616   26.2108 H   0  0  0  0  0  0
  -28.3855  -32.6896   25.0331 H   0  0  0  0  0  0
  -28.0737  -31.8438   26.5411 H   0  0  0  0  0  0
  -28.2598  -38.0108   24.7518 H   0  0  0  0  0  0
  -28.1078  -36.2642   24.6281 H   0  0  0  0  0  0
  -27.2302  -37.1446   25.8868 H   0  0  0  0  0  0
  -20.9311  -29.8794   21.6962 H   0  0  0  0  0  0
  -26.0180  -38.2871   24.1414 H   0  0  0  0  0  0
  -32.3008  -23.6664   21.5242 H   0  0  0  0  0  0
  -30.7652  -25.5186   20.7839 H   0  0  0  0  0  0
  -28.1339  -20.2974   20.2019 H   0  0  0  0  0  0
  -32.6389  -21.1832   21.8704 H   0  0  0  0  0  0
  -30.2353  -17.6025   23.0045 H   0  0  0  0  0  0
  -28.4836  -17.7828   22.9432 H   0  0  0  0  0  0
  -28.2113  -15.6287   21.9665 H   0  0  0  0  0  0
  -29.6427  -15.2970   22.9529 H   0  0  0  0  0  0
  -31.4163  -17.1479   20.4828 H   0  0  0  0  0  0
  -30.2054  -16.9849   19.2162 H   0  0  0  0  0  0
  -28.5163  -17.9870   20.5527 H   0  0  0  0  0  0
  -27.2083  -24.8516   20.2267 H   0  0  0  0  0  0
  -28.0722  -25.1084   18.7115 H   0  0  0  0  0  0
  1 25  1  0  0  0
  1 30  2  0  0  0
  1 86  1  0  0  0
  2  3  1  0  0  0
  2 25  1  0  0  0
  2 87  1  0  0  0
  2 88  1  0  0  0
  3  4  1  0  0  0
  3 89  1  0  0  0
  3 90  1  0  0  0
  4  5  1  0  0  0
  4 91  1  0  0  0
  4 92  1  0  0  0
  5  6  1  0  0  0
  5 26  1  0  0  0
  5 93  1  0  0  0
  6 25  1  0  0  0
  6 94  1  0  0  0
  6 95  1  0  0  0
  7  8  2  0  0  0
  7 26  1  0  0  0
  7 29  1  0  0  0
  8  9  1  0  0  0
  8 22  1  0  0  0
  9 10  1  0  0  0
  9 27  2  0  0  0
 10 11  2  0  0  0
 10 15  1  0  0  0
 11 12  1  0  0  0
 11 96  1  0  0  0
 12 13  2  0  0  0
 12 97  1  0  0  0
 13 14  1  0  0  0
 13 31  1  0  0  0
 14 15  2  0  0  0
 14 98  1  0  0  0
 15 99  1  0  0  0
 16 17  2  0  0  0
 16 21  1  0  0  0
 16 31  1  0  0  0
 17 18  1  0  0  0
 17100  1  0  0  0
 18 19  2  0  0  0
 18101  1  0  0  0
 19 20  1  0  0  0
 19 24  1  0  0  0
 20 21  2  0  0  0
 20102  1  0  0  0
 21 23  1  0  0  0
 22 28  1  0  0  0
 22 32  2  0  0  0
 26 27  1  0  0  0
 28103  1  0  0  0
 28104  1  0  0  0
 29105  1  0  0  0
 29106  1  0  0  0
 33 34  1  0  0  0
 33 66  1  0  0  0
 33 70  2  0  0  0
 34 36  1  0  0  0
 34 59  1  0  0  0
 34107  1  0  0  0
 35 44  2  0  0  0
 35 45  1  0  0  0
 35 68  1  0  0  0
 36 56  1  0  0  0
 36108  1  0  0  0
 37 39  1  0  0  0
 37 47  1  0  0  0
 37 66  1  0  0  0
 37109  1  0  0  0
 38 43  2  0  0  0
 38 46  1  0  0  0
 38 47  1  0  0  0
 39 64  1  0  0  0
 39 67  2  0  0  0
 40 52  1  0  0  0
 40 53  2  0  0  0
 40 58  1  0  0  0
 41110  1  0  0  0
 41111  1  0  0  0
 41112  1  0  0  0
 41 48  1  0  0  0
 42 43  1  0  0  0
 42 66  1  0  0  0
 42113  1  0  0  0
 42114  1  0  0  0
 43 44  1  0  0  0
 44115  1  0  0  0
 45 46  2  0  0  0
 45116  1  0  0  0
 46117  1  0  0  0
 47118  1  0  0  0
 47119  1  0  0  0
 48 56  1  0  0  0
 48 65  1  0  0  0
 48120  1  0  0  0
 49 50  1  0  0  0
 49 53  1  0  0  0
 49 64  1  0  0  0
 49121  1  0  0  0
 50 51  1  0  0  0
 50122  1  0  0  0
 50123  1  0  0  0
 51 52  1  0  0  0
 51124  1  0  0  0
 51125  1  0  0  0
 52126  1  0  0  0
 52127  1  0  0  0
 53 54  1  0  0  0
 54 55  2  0  0  0
 54128  1  0  0  0
 55 57  1  0  0  0
 55129  1  0  0  0
 56 69  2  0  0  0
 57 58  2  0  0  0
 57130  1  0  0  0
 58131  1  0  0  0
 59 60  1  0  0  0
 59 61  1  0  0  0
 59 62  1  0  0  0
 60132  1  0  0  0
 60133  1  0  0  0
 60134  1  0  0  0
 61135  1  0  0  0
 61136  1  0  0  0
 61137  1  0  0  0
 62138  1  0  0  0
 62139  1  0  0  0
 62140  1  0  0  0
 63 65  1  0  0  0
 63141  1  0  0  0
 63142  1  0  0  0
 63143  1  0  0  0
 64144  1  0  0  0
 65145  1  0  0  0
 68 83  1  0  0  0
 71 72  2  0  0  0
 71 75  1  0  0  0
 71146  1  0  0  0
 72 78  1  0  0  0
 72147  1  0  0  0
 73 76  2  0  0  0
 73 77  1  0  0  0
 73148  1  0  0  0
 74 75  2  0  0  0
 74 84  1  0  0  0
 74149  1  0  0  0
 75 76  1  0  0  0
 76 85  1  0  0  0
 77 84  2  0  0  0
 77 82  1  0  0  0
 78 83  1  0  0  0
 78 85  2  0  0  0
 79 80  1  0  0  0
 79 82  1  0  0  0
 79150  1  0  0  0
 79151  1  0  0  0
 80 86  1  0  0  0
 80152  1  0  0  0
 80153  1  0  0  0
 81 82  1  0  0  0
 81 86  1  0  0  0
 81154  1  0  0  0
 81155  1  0  0  0
 82156  1  0  0  0
 83157  1  0  0  0
 83158  1  0  0  0
M  ISO  4   1 100  68 101  83 101  86 100
M  END
> <chiral flag>
0

> <version>
0

> <s_m_source_file>
/data/baiqing/PycharmProjects/Reinvent-master-3.2/result/LINK_invent/BTK/process_docking_weight1_custom_sum_contain_oxygen_bond_distance_aromatic_linkinvent_7_9_3/rearranged_h_0180.sdf

> <i_m_source_file_index>
80

> <r_mmod_Potential_Energy-OPLS-2005>
-318.250549316406

> <r_mmod_Stretch_Energy-OPLS-2005>
45.5580978393555

> <r_mmod_Bend_Energy-OPLS-2005>
136.678298950195

> <r_mmod_Torsional_Energy-OPLS-2005>
296.718292236328

> <r_mmod_Improper_Torsional_Energy-OPLS-2005>
12.189884185791

> <r_mmod_Van_der_Waal_Energy-OPLS-2005>
183.861480712891

> <r_mmod_Electrostatic_Energy-OPLS-2005>
-789.619140625

> <r_mmod_Solvation_Energy-OPLS-2005>
-224.259140014648

> <b_mmod_Minimization_Converged-OPLS-2005>
0

> <r_mmod_RMS_Derivative-OPLS-2005>
0.285520434379578

$$$$
80
                    3D
 Structure written by MMmdl.
154163  0  0  1  0            999 V2000
  -30.7116  -14.5232   20.5584 C   0  0  0  0  0  0
  -30.4157  -12.3396   19.4326 C   0  0  0  0  0  0
  -29.4902  -12.4995   18.2105 C   0  0  0  0  0  0
  -28.0155  -12.3505   18.6286 C   0  0  0  0  0  0
  -27.6533  -13.2158   19.8655 C   0  0  2  0  0  0
  -28.6972  -13.0528   20.9924 C   0  0  0  0  0  0
  -25.2556  -13.8181   20.5692 C   0  0  0  0  0  0
  -24.1821  -13.0442   20.9183 C   0  0  0  0  0  0
  -24.6390  -11.6913   20.8743 C   0  0  0  0  0  0
  -23.9062  -10.4294   21.0404 C   0  0  0  0  0  0
  -24.3614   -9.4210   21.9182 C   0  0  0  0  0  0
  -23.6291   -8.2245   22.0754 C   0  0  0  0  0  0
  -22.4275   -8.0280   21.3543 C   0  0  0  0  0  0
  -21.9909   -9.0253   20.4646 C   0  0  0  0  0  0
  -22.7235  -10.2134   20.3055 C   0  0  0  0  0  0
  -21.6855   -6.0736   22.5280 C   0  0  0  0  0  0
  -21.4014   -6.5640   23.8211 C   0  0  0  0  0  0
  -21.3660   -5.6794   24.9174 C   0  0  0  0  0  0
  -21.6044   -4.3057   24.7225 C   0  0  0  0  0  0
  -21.8820   -3.8149   23.4347 C   0  0  0  0  0  0
  -21.9193   -4.6964   22.3403 C   0  0  0  0  0  0
  -22.7844  -13.5231   21.1848 C   0  0  0  0  0  0
  -22.1663   -4.2151   21.0981 F   0  0  0  0  0  0
  -21.5627   -3.4540   25.7737 F   0  0  0  0  0  0
  -30.0190  -13.3558   20.4246 N   0  0  0  0  0  0
  -26.2989  -12.9364   20.3345 N   0  0  0  0  0  0
  -25.9319  -11.6517   20.5778 N   0  0  0  0  0  0
  -22.0494  -12.8219   22.0407 N   0  0  0  0  0  0
  -25.4278  -15.1903   20.4122 N   0  0  0  0  0  0
  -31.8555  -14.6514   20.1157 O   0  0  0  0  0  0
  -21.6640   -6.8878   21.4240 O   0  0  0  0  0  0
  -22.3527  -14.5540   20.6705 O   0  0  0  0  0  0
  -24.6207  -31.8650   23.2071 C   0  0  0  0  0  0
  -25.9083  -32.4799   23.8390 C   0  0  1  0  0  0
  -27.2234  -27.3793   20.1041 C   0  0  0  0  0  0
  -25.5932  -33.8601   24.2324 N   0  0  0  0  0  0
  -23.4109  -30.4900   21.5488 C   0  0  2  0  0  0
  -24.8550  -28.9543   20.1115 C   0  0  0  0  0  0
  -22.7446  -29.4651   22.4961 C   0  0  0  0  0  0
  -18.0279  -28.1381   22.8492 C   0  0  0  0  0  0
  -24.1488  -36.7306   23.2637 C   0  0  0  0  0  0
  -25.9467  -30.8138   21.3697 C   0  0  0  0  0  0
  -26.0209  -29.4472   20.7105 C   0  0  0  0  0  0
  -27.2092  -28.6703   20.6978 C   0  0  0  0  0  0
  -26.0349  -26.9214   19.4888 C   0  0  0  0  0  0
  -24.8600  -27.6940   19.4951 C   0  0  0  0  0  0
  -23.6209  -29.8278   20.1623 C   0  0  0  0  0  0
  -25.4110  -36.3097   24.0333 C   0  0  1  0  0  0
  -20.5876  -28.3680   23.1298 C   0  0  2  0  0  0
  -20.6776  -26.9408   22.5413 C   0  0  0  0  0  0
  -19.5749  -26.6386   21.5216 C   0  0  0  0  0  0
  -18.1927  -26.7926   22.1626 C   0  0  0  0  0  0
  -19.1530  -28.8846   23.2891 C   0  0  0  0  0  0
  -18.9452  -30.1451   23.8905 C   0  0  0  0  0  0
  -17.6455  -30.6588   24.0563 C   0  0  0  0  0  0
  -25.9043  -34.9460   23.5120 C   0  0  0  0  0  0
  -16.5346  -29.9088   23.6329 C   0  0  0  0  0  0
  -16.7267  -28.6501   23.0357 C   0  0  0  0  0  0
  -26.4470  -31.6579   25.0738 C   0  0  0  0  0  0
  -25.3707  -31.3695   26.1464 C   0  0  0  0  0  0
  -27.0298  -30.3006   24.6155 C   0  0  0  0  0  0
  -27.6043  -32.4287   25.7523 C   0  0  0  0  0  0
  -27.5578  -37.1808   24.8463 C   0  0  0  0  0  0
  -21.4166  -29.3041   22.3702 N   0  0  0  0  0  0
  -26.4294  -37.3783   23.9404 N   0  0  0  0  0  0
  -24.6779  -31.0713   22.0994 N   0  0  0  0  0  0
  -23.4196  -28.8186   23.3016 O   0  0  0  0  0  0
  -28.3663  -26.5862   20.1452 O   0  0  0  0  0  0
  -26.5592  -34.8914   22.4674 O   0  0  0  0  0  0
  -23.5386  -32.1425   23.7435 O   0  0  0  0  0  0
  -30.7577  -19.4054   21.1865 C   0  0  0  0  0  0
  -28.1135  -19.3530   20.3499 C   0  0  0  0  0  0
  -28.7815  -20.5883   20.4708 C   0  0  0  0  0  0
  -30.0892  -20.6104   20.8818 C   0  0  0  0  0  0
  -30.0342  -18.1896   21.0539 C   0  0  0  0  0  0
  -28.3004  -21.9866   20.2393 C   0  0  0  0  0  0
  -30.5393  -22.0561   20.9369 C   0  0  0  0  0  0
  -30.7126  -16.8642   21.4556 C   0  0  0  0  0  0
  -29.4186  -24.3166   20.5300 C   0  0  0  0  0  0
  -28.1835  -25.1430   20.0520 C   0  0  0  0  0  0
  -28.7352  -18.1683   20.6392 N   0  0  0  0  0  0
  -29.3357  -22.8249   20.5238 N   0  0  0  0  0  0
  -30.0652  -15.5794   21.1003 N   0  0  0  0  0  0
  -27.1622  -22.2824   19.8699 O   0  0  0  0  0  0
  -31.4595  -12.4316   19.1281 H   0  0  0  0  0  0
  -30.3200  -11.3403   19.8602 H   0  0  0  0  0  0
  -29.7385  -11.7590   17.4489 H   0  0  0  0  0  0
  -29.6469  -13.4768   17.7514 H   0  0  0  0  0  0
  -27.8424  -11.2972   18.8524 H   0  0  0  0  0  0
  -27.3591  -12.5942   17.7927 H   0  0  0  0  0  0
  -27.6816  -14.2550   19.5368 H   0  0  0  0  0  0
  -28.6865  -12.0336   21.3821 H   0  0  0  0  0  0
  -28.4556  -13.6963   21.8396 H   0  0  0  0  0  0
  -25.2757   -9.5689   22.4756 H   0  0  0  0  0  0
  -24.0004   -7.4638   22.7471 H   0  0  0  0  0  0
  -21.0843   -8.8771   19.8951 H   0  0  0  0  0  0
  -22.3692  -10.9672   19.6167 H   0  0  0  0  0  0
  -21.2006   -7.6150   23.9714 H   0  0  0  0  0  0
  -21.1481   -6.0526   25.9077 H   0  0  0  0  0  0
  -22.0599   -2.7612   23.2845 H   0  0  0  0  0  0
  -22.4117  -11.9875   22.4780 H   0  0  0  0  0  0
  -21.1116  -13.1244   22.2627 H   0  0  0  0  0  0
  -24.6655  -15.8484   20.5318 H   0  0  0  0  0  0
  -26.2894  -15.6333   20.1166 H   0  0  0  0  0  0
  -26.7164  -32.5480   23.1161 H   0  0  0  0  0  0
  -25.0119  -33.9760   25.0493 H   0  0  0  0  0  0
  -22.7028  -31.3093   21.4105 H   0  0  0  0  0  0
  -23.3742  -35.9649   23.3308 H   0  0  0  0  0  0
  -24.3579  -36.8912   22.2050 H   0  0  0  0  0  0
  -23.7251  -37.6519   23.6645 H   0  0  0  0  0  0
  -26.0713  -31.5808   20.6041 H   0  0  0  0  0  0
  -26.8296  -30.8598   21.9957 H   0  0  0  0  0  0
  -28.1070  -29.0440   21.1697 H   0  0  0  0  0  0
  -25.9881  -25.9592   19.0010 H   0  0  0  0  0  0
  -23.9647  -27.3108   19.0254 H   0  0  0  0  0  0
  -23.7346  -30.6050   19.4058 H   0  0  0  0  0  0
  -22.7423  -29.2534   19.8632 H   0  0  0  0  0  0
  -25.1287  -36.1961   25.0827 H   0  0  0  0  0  0
  -20.9967  -28.3249   24.1419 H   0  0  0  0  0  0
  -20.5692  -26.2280   23.3602 H   0  0  0  0  0  0
  -21.6646  -26.7457   22.1195 H   0  0  0  0  0  0
  -19.6912  -25.6301   21.1236 H   0  0  0  0  0  0
  -19.6689  -27.3206   20.6754 H   0  0  0  0  0  0
  -17.4200  -26.6674   21.4025 H   0  0  0  0  0  0
  -18.0327  -26.0067   22.9020 H   0  0  0  0  0  0
  -19.7928  -30.7263   24.2282 H   0  0  0  0  0  0
  -17.5009  -31.6267   24.5166 H   0  0  0  0  0  0
  -15.5346  -30.2995   23.7645 H   0  0  0  0  0  0
  -15.8665  -28.0819   22.7077 H   0  0  0  0  0  0
  -24.5862  -30.7081   25.7765 H   0  0  0  0  0  0
  -24.8923  -32.2852   26.4941 H   0  0  0  0  0  0
  -25.8027  -30.8809   27.0206 H   0  0  0  0  0  0
  -26.2851  -29.6774   24.1189 H   0  0  0  0  0  0
  -27.4009  -29.7242   25.4642 H   0  0  0  0  0  0
  -27.8722  -30.4293   23.9356 H   0  0  0  0  0  0
  -27.2667  -33.3580   26.2124 H   0  0  0  0  0  0
  -28.3861  -32.6847   25.0359 H   0  0  0  0  0  0
  -28.0697  -31.8382   26.5423 H   0  0  0  0  0  0
  -28.2602  -38.0099   24.7496 H   0  0  0  0  0  0
  -28.1065  -36.2627   24.6304 H   0  0  0  0  0  0
  -27.2291  -37.1480   25.8866 H   0  0  0  0  0  0
  -20.9339  -29.8772   21.6924 H   0  0  0  0  0  0
  -26.0178  -38.2865   24.1388 H   0  0  0  0  0  0
  -31.7841  -19.4095   21.5290 H   0  0  0  0  0  0
  -27.0814  -19.3017   20.0362 H   0  0  0  0  0  0
  -31.3687  -22.2261   20.2498 H   0  0  0  0  0  0
  -30.8512  -22.3237   21.9471 H   0  0  0  0  0  0
  -30.8184  -16.8758   22.5405 H   0  0  0  0  0  0
  -31.7326  -16.9072   21.0703 H   0  0  0  0  0  0
  -29.6569  -24.6209   21.5494 H   0  0  0  0  0  0
  -30.2795  -24.6015   19.9251 H   0  0  0  0  0  0
  -27.3252  -24.8523   20.6602 H   0  0  0  0  0  0
  -27.9603  -24.8783   19.0177 H   0  0  0  0  0  0
  -29.0955  -15.4779   21.3558 H   0  0  0  0  0  0
  1 25  1  0  0  0
  1 30  2  0  0  0
  1 83  1  0  0  0
  2  3  1  0  0  0
  2 25  1  0  0  0
  2 85  1  0  0  0
  2 86  1  0  0  0
  3  4  1  0  0  0
  3 87  1  0  0  0
  3 88  1  0  0  0
  4  5  1  0  0  0
  4 89  1  0  0  0
  4 90  1  0  0  0
  5  6  1  0  0  0
  5 26  1  0  0  0
  5 91  1  0  0  0
  6 25  1  0  0  0
  6 92  1  0  0  0
  6 93  1  0  0  0
  7  8  2  0  0  0
  7 26  1  0  0  0
  7 29  1  0  0  0
  8  9  1  0  0  0
  8 22  1  0  0  0
  9 10  1  0  0  0
  9 27  2  0  0  0
 10 11  2  0  0  0
 10 15  1  0  0  0
 11 12  1  0  0  0
 11 94  1  0  0  0
 12 13  2  0  0  0
 12 95  1  0  0  0
 13 14  1  0  0  0
 13 31  1  0  0  0
 14 15  2  0  0  0
 14 96  1  0  0  0
 15 97  1  0  0  0
 16 17  2  0  0  0
 16 21  1  0  0  0
 16 31  1  0  0  0
 17 18  1  0  0  0
 17 98  1  0  0  0
 18 19  2  0  0  0
 18 99  1  0  0  0
 19 20  1  0  0  0
 19 24  1  0  0  0
 20 21  2  0  0  0
 20100  1  0  0  0
 21 23  1  0  0  0
 22 28  1  0  0  0
 22 32  2  0  0  0
 26 27  1  0  0  0
 28101  1  0  0  0
 28102  1  0  0  0
 29103  1  0  0  0
 29104  1  0  0  0
 33 34  1  0  0  0
 33 66  1  0  0  0
 33 70  2  0  0  0
 34 36  1  0  0  0
 34 59  1  0  0  0
 34105  1  0  0  0
 35 44  2  0  0  0
 35 45  1  0  0  0
 35 68  1  0  0  0
 36 56  1  0  0  0
 36106  1  0  0  0
 37 39  1  0  0  0
 37 47  1  0  0  0
 37 66  1  0  0  0
 37107  1  0  0  0
 38 43  2  0  0  0
 38 46  1  0  0  0
 38 47  1  0  0  0
 39 64  1  0  0  0
 39 67  2  0  0  0
 40 52  1  0  0  0
 40 53  2  0  0  0
 40 58  1  0  0  0
 41108  1  0  0  0
 41109  1  0  0  0
 41110  1  0  0  0
 41 48  1  0  0  0
 42 43  1  0  0  0
 42 66  1  0  0  0
 42111  1  0  0  0
 42112  1  0  0  0
 43 44  1  0  0  0
 44113  1  0  0  0
 45 46  2  0  0  0
 45114  1  0  0  0
 46115  1  0  0  0
 47116  1  0  0  0
 47117  1  0  0  0
 48 56  1  0  0  0
 48 65  1  0  0  0
 48118  1  0  0  0
 49 50  1  0  0  0
 49 53  1  0  0  0
 49 64  1  0  0  0
 49119  1  0  0  0
 50 51  1  0  0  0
 50120  1  0  0  0
 50121  1  0  0  0
 51 52  1  0  0  0
 51122  1  0  0  0
 51123  1  0  0  0
 52124  1  0  0  0
 52125  1  0  0  0
 53 54  1  0  0  0
 54 55  2  0  0  0
 54126  1  0  0  0
 55 57  1  0  0  0
 55127  1  0  0  0
 56 69  2  0  0  0
 57 58  2  0  0  0
 57128  1  0  0  0
 58129  1  0  0  0
 59 60  1  0  0  0
 59 61  1  0  0  0
 59 62  1  0  0  0
 60130  1  0  0  0
 60131  1  0  0  0
 60132  1  0  0  0
 61133  1  0  0  0
 61134  1  0  0  0
 61135  1  0  0  0
 62136  1  0  0  0
 62137  1  0  0  0
 62138  1  0  0  0
 63 65  1  0  0  0
 63139  1  0  0  0
 63140  1  0  0  0
 63141  1  0  0  0
 64142  1  0  0  0
 65143  1  0  0  0
 68 80  1  0  0  0
 71 74  2  0  0  0
 71 75  1  0  0  0
 71144  1  0  0  0
 72 73  2  0  0  0
 72 81  1  0  0  0
 72145  1  0  0  0
 73 74  1  0  0  0
 73 76  1  0  0  0
 74 77  1  0  0  0
 75 78  1  0  0  0
 75 81  2  0  0  0
 76 82  1  0  0  0
 76 84  2  0  0  0
 77 82  1  0  0  0
 77146  1  0  0  0
 77147  1  0  0  0
 78 83  1  0  0  0
 78148  1  0  0  0
 78149  1  0  0  0
 79 80  1  0  0  0
 79 82  1  0  0  0
 79150  1  0  0  0
 79151  1  0  0  0
 80152  1  0  0  0
 80153  1  0  0  0
 83154  1  0  0  0
M  ISO  4   1 100  68 101  80 101  83 100
M  END
> <chiral flag>
0

> <version>
0

> <s_m_source_file>
/data/baiqing/PycharmProjects/Reinvent-master-3.2/result/LINK_invent/BTK/process_docking_weight1_custom_sum_contain_oxygen_bond_distance_aromatic_linkinvent_7_9_3/rearranged_h_0180.sdf

> <i_m_source_file_index>
81

> <r_mmod_Potential_Energy-OPLS-2005>
-276.734466552734

> <r_mmod_Stretch_Energy-OPLS-2005>
52.4352951049805

> <r_mmod_Bend_Energy-OPLS-2005>
180.581253051758

> <r_mmod_Torsional_Energy-OPLS-2005>
202.287734985352

> <r_mmod_Improper_Torsional_Energy-OPLS-2005>
2.47535824775696

> <r_mmod_Van_der_Waal_Energy-OPLS-2005>
151.3759765625

> <r_mmod_Electrostatic_Energy-OPLS-2005>
-644.398864746094

> <r_mmod_Solvation_Energy-OPLS-2005>
-245.610275268555

> <b_mmod_Minimization_Converged-OPLS-2005>
0

> <r_mmod_RMS_Derivative-OPLS-2005>
0.767407894134521

$$$$
81
                    3D
 Structure written by MMmdl.
160169  0  0  1  0            999 V2000
  -30.5207  -15.1727   20.3898 C   0  0  0  0  0  0
  -30.4150  -12.7592   19.5006 C   0  0  0  0  0  0
  -29.5172  -12.5576   18.2610 C   0  0  0  0  0  0
  -28.0644  -12.3078   18.6915 C   0  0  0  0  0  0
  -27.6068  -13.2735   19.8147 C   0  0  2  0  0  0
  -28.6430  -13.4360   20.9458 C   0  0  0  0  0  0
  -25.2417  -13.8242   20.5777 C   0  0  0  0  0  0
  -24.1754  -13.0455   20.9270 C   0  0  0  0  0  0
  -24.6381  -11.6944   20.8761 C   0  0  0  0  0  0
  -23.9072  -10.4310   21.0403 C   0  0  0  0  0  0
  -24.3620   -9.4223   21.9184 C   0  0  0  0  0  0
  -23.6281   -8.2263   22.0751 C   0  0  0  0  0  0
  -22.4265   -8.0285   21.3552 C   0  0  0  0  0  0
  -21.9890   -9.0257   20.4652 C   0  0  0  0  0  0
  -22.7228  -10.2137   20.3061 C   0  0  0  0  0  0
  -21.6859   -6.0709   22.5265 C   0  0  0  0  0  0
  -21.4026   -6.5612   23.8203 C   0  0  0  0  0  0
  -21.3664   -5.6776   24.9169 C   0  0  0  0  0  0
  -21.6035   -4.3039   24.7224 C   0  0  0  0  0  0
  -21.8824   -3.8120   23.4357 C   0  0  0  0  0  0
  -21.9221   -4.6937   22.3413 C   0  0  0  0  0  0
  -22.7790  -13.5236   21.1913 C   0  0  0  0  0  0
  -22.1702   -4.2137   21.0990 F   0  0  0  0  0  0
  -21.5621   -3.4518   25.7743 F   0  0  0  0  0  0
  -29.8720  -13.9177   20.3025 N   0  0  0  0  0  0
  -26.2807  -12.9503   20.3179 N   0  0  0  0  0  0
  -25.9320  -11.6616   20.5698 N   0  0  0  0  0  0
  -22.0408  -12.8210   22.0433 N   0  0  0  0  0  0
  -25.4135  -15.1952   20.4245 N   0  0  0  0  0  0
  -31.7458  -15.0736   20.2235 O   0  0  0  0  0  0
  -21.6659   -6.8857   21.4230 O   0  0  0  0  0  0
  -22.3502  -14.5564   20.6764 O   0  0  0  0  0  0
  -24.6560  -31.8300   23.1769 C   0  0  0  0  0  0
  -25.9267  -32.4629   23.8214 C   0  0  1  0  0  0
  -27.1918  -26.9669   20.1893 C   0  0  0  0  0  0
  -25.5961  -33.8444   24.2142 N   0  0  0  0  0  0
  -23.4670  -30.4454   21.5250 C   0  0  2  0  0  0
  -24.9150  -28.8466   20.1092 C   0  0  0  0  0  0
  -22.7635  -29.4466   22.4800 C   0  0  0  0  0  0
  -18.0330  -28.1407   22.8481 C   0  0  0  0  0  0
  -24.1486  -36.7221   23.2641 C   0  0  0  0  0  0
  -26.0320  -30.6498   21.3985 C   0  0  0  0  0  0
  -26.0980  -29.2448   20.7449 C   0  0  0  0  0  0
  -27.2338  -28.3254   20.7599 C   0  0  0  0  0  0
  -25.9840  -26.7134   19.4982 C   0  0  0  0  0  0
  -24.8827  -27.6002   19.4649 C   0  0  0  0  0  0
  -23.7035  -29.7715   20.1460 C   0  0  0  0  0  0
  -25.4123  -36.3000   24.0314 C   0  0  1  0  0  0
  -20.5948  -28.3734   23.1198 C   0  0  2  0  0  0
  -20.6800  -26.9416   22.5397 C   0  0  0  0  0  0
  -19.5775  -26.6379   21.5204 C   0  0  0  0  0  0
  -18.1964  -26.7939   22.1624 C   0  0  0  0  0  0
  -19.1583  -28.8894   23.2830 C   0  0  0  0  0  0
  -18.9496  -30.1481   23.8860 C   0  0  0  0  0  0
  -17.6489  -30.6594   24.0558 C   0  0  0  0  0  0
  -25.9078  -34.9370   23.5061 C   0  0  0  0  0  0
  -16.5388  -29.9077   23.6335 C   0  0  0  0  0  0
  -16.7310  -28.6498   23.0368 C   0  0  0  0  0  0
  -26.4553  -31.6535   25.0702 C   0  0  0  0  0  0
  -25.3710  -31.3787   26.1388 C   0  0  0  0  0  0
  -27.0399  -30.2895   24.6374 C   0  0  0  0  0  0
  -27.6075  -32.4306   25.7487 C   0  0  0  0  0  0
  -27.5583  -37.1775   24.8466 C   0  0  0  0  0  0
  -21.4305  -29.3041   22.3542 N   0  0  0  0  0  0
  -26.4291  -37.3717   23.9416 N   0  0  0  0  0  0
  -24.7407  -30.9991   22.0882 N   0  0  0  0  0  0
  -23.4220  -28.8019   23.2991 O   0  0  0  0  0  0
  -28.2013  -25.8891   20.2609 O   0  0  0  0  0  0
  -26.5671  -34.8890   22.4635 O   0  0  0  0  0  0
  -23.5641  -32.1256   23.6870 O   0  0  0  0  0  0
  -27.4045  -21.9941   21.3571 C   0  0  0  0  0  0
  -27.4131  -23.5852   21.5266 C   0  0  0  0  0  0
  -28.9471  -22.9409   19.8486 C   0  0  0  0  0  0
  -30.8063  -17.8059   20.2706 C   0  0  0  0  0  0
  -28.5520  -17.1593   20.5403 C   0  0  0  0  0  0
  -30.2858  -19.3397   19.8601 C   0  0  0  0  0  0
  -28.7623  -21.5084   20.7460 C   0  0  2  0  0  0
  -27.9478  -24.2746   20.2336 C   0  0  2  0  0  0
  -28.3276  -18.7262   21.0801 C   0  0  1  0  0  0
  -28.6885  -18.7916   22.5797 C   0  0  0  0  0  0
  -29.9414  -16.5397   20.4030 N   0  0  0  0  0  0
  -28.9343  -19.9164   20.2898 N   0  3  2  0  0  0
  -31.4404  -12.9242   19.1692 H   0  0  0  0  0  0
  -30.4497  -11.8479   20.0984 H   0  0  0  0  0  0
  -29.8795  -11.7253   17.6577 H   0  0  0  0  0  0
  -29.5719  -13.4413   17.6240 H   0  0  0  0  0  0
  -28.0039  -11.2768   19.0411 H   0  0  0  0  0  0
  -27.3978  -12.3807   17.8328 H   0  0  0  0  0  0
  -27.5236  -14.2464   19.3259 H   0  0  0  0  0  0
  -28.7978  -12.5019   21.4872 H   0  0  0  0  0  0
  -28.2961  -14.1675   21.6757 H   0  0  0  0  0  0
  -25.2775   -9.5697   22.4757 H   0  0  0  0  0  0
  -23.9976   -7.4652   22.7472 H   0  0  0  0  0  0
  -21.0817   -8.8775   19.8967 H   0  0  0  0  0  0
  -22.3677  -10.9665   19.6165 H   0  0  0  0  0  0
  -21.2012   -7.6121   23.9668 H   0  0  0  0  0  0
  -21.1488   -6.0535   25.9066 H   0  0  0  0  0  0
  -22.0607   -2.7577   23.2877 H   0  0  0  0  0  0
  -22.4024  -11.9879   22.4848 H   0  0  0  0  0  0
  -21.1033  -13.1246   22.2641 H   0  0  0  0  0  0
  -24.6469  -15.8494   20.5271 H   0  0  0  0  0  0
  -26.2525  -15.6156   20.0515 H   0  0  0  0  0  0
  -26.7320  -32.5203   23.0915 H   0  0  0  0  0  0
  -25.0085  -33.9531   25.0285 H   0  0  0  0  0  0
  -22.7760  -31.2751   21.3609 H   0  0  0  0  0  0
  -23.3770  -35.9529   23.3282 H   0  0  0  0  0  0
  -24.3561  -36.8869   22.2056 H   0  0  0  0  0  0
  -23.7218  -37.6406   23.6686 H   0  0  0  0  0  0
  -26.2012  -31.3939   20.6188 H   0  0  0  0  0  0
  -26.8961  -30.7101   22.0484 H   0  0  0  0  0  0
  -28.1323  -28.6217   21.2845 H   0  0  0  0  0  0
  -25.8523  -25.7727   18.9873 H   0  0  0  0  0  0
  -23.9851  -27.2962   18.9424 H   0  0  0  0  0  0
  -23.8595  -30.5454   19.3917 H   0  0  0  0  0  0
  -22.8110  -29.2276   19.8292 H   0  0  0  0  0  0
  -25.1304  -36.1833   25.0804 H   0  0  0  0  0  0
  -21.0061  -28.3349   24.1307 H   0  0  0  0  0  0
  -20.5679  -26.2342   23.3631 H   0  0  0  0  0  0
  -21.6669  -26.7390   22.1209 H   0  0  0  0  0  0
  -19.6922  -25.6273   21.1268 H   0  0  0  0  0  0
  -19.6717  -27.3162   20.6709 H   0  0  0  0  0  0
  -17.4224  -26.6692   21.4040 H   0  0  0  0  0  0
  -18.0351  -26.0098   22.9028 H   0  0  0  0  0  0
  -19.7968  -30.7314   24.2227 H   0  0  0  0  0  0
  -17.5033  -31.6280   24.5151 H   0  0  0  0  0  0
  -15.5378  -30.2963   23.7670 H   0  0  0  0  0  0
  -15.8720  -28.0781   22.7117 H   0  0  0  0  0  0
  -24.5867  -30.7153   25.7725 H   0  0  0  0  0  0
  -24.8937  -32.2990   26.4753 H   0  0  0  0  0  0
  -25.7963  -30.9001   27.0215 H   0  0  0  0  0  0
  -26.3028  -29.6613   24.1358 H   0  0  0  0  0  0
  -27.3913  -29.7207   25.4995 H   0  0  0  0  0  0
  -27.8988  -30.4059   23.9764 H   0  0  0  0  0  0
  -27.2674  -33.3627   26.2001 H   0  0  0  0  0  0
  -28.3925  -32.6830   25.0348 H   0  0  0  0  0  0
  -28.0700  -31.8483   26.5462 H   0  0  0  0  0  0
  -28.2592  -38.0080   24.7501 H   0  0  0  0  0  0
  -28.1096  -36.2611   24.6306 H   0  0  0  0  0  0
  -27.2296  -37.1424   25.8868 H   0  0  0  0  0  0
  -20.9526  -29.8737   21.6699 H   0  0  0  0  0  0
  -26.0163  -38.2791   24.1413 H   0  0  0  0  0  0
  -26.5858  -21.7209   20.6916 H   0  0  0  0  0  0
  -27.1947  -21.5134   22.3123 H   0  0  0  0  0  0
  -28.0768  -23.8381   22.3575 H   0  0  0  0  0  0
  -26.4251  -23.9614   21.7948 H   0  0  0  0  0  0
  -28.8023  -22.7081   18.7929 H   0  0  0  0  0  0
  -29.9883  -23.2521   19.9300 H   0  0  0  0  0  0
  -31.3171  -17.8969   21.2291 H   0  0  0  0  0  0
  -31.6080  -17.5707   19.5675 H   0  0  0  0  0  0
  -28.0953  -17.0907   19.5518 H   0  0  0  0  0  0
  -27.9555  -16.4903   21.1655 H   0  0  0  0  0  0
  -30.2720  -19.3996   18.7719 H   0  0  0  0  0  0
  -31.0546  -20.0550   20.1593 H   0  0  0  0  0  0
  -29.4808  -21.5997   21.5631 H   0  0  0  0  0  0
  -27.1357  -24.1694   19.5162 H   0  0  0  0  0  0
  -27.2531  -18.9023   21.0290 H   0  0  0  0  0  0
  -29.7484  -18.6213   22.7574 H   0  0  0  0  0  0
  -28.1395  -18.0322   23.1382 H   0  0  0  0  0  0
  -28.4379  -19.7496   23.0298 H   0  0  0  0  0  0
  -28.4007  -19.8928   19.4320 H   0  0  0  0  0  0
  1 25  1  0  0  0
  1 30  2  0  0  0
  1 81  1  0  0  0
  2  3  1  0  0  0
  2 25  1  0  0  0
  2 83  1  0  0  0
  2 84  1  0  0  0
  3  4  1  0  0  0
  3 85  1  0  0  0
  3 86  1  0  0  0
  4  5  1  0  0  0
  4 87  1  0  0  0
  4 88  1  0  0  0
  5  6  1  0  0  0
  5 26  1  0  0  0
  5 89  1  0  0  0
  6 25  1  0  0  0
  6 90  1  0  0  0
  6 91  1  0  0  0
  7  8  2  0  0  0
  7 26  1  0  0  0
  7 29  1  0  0  0
  8  9  1  0  0  0
  8 22  1  0  0  0
  9 10  1  0  0  0
  9 27  2  0  0  0
 10 11  2  0  0  0
 10 15  1  0  0  0
 11 12  1  0  0  0
 11 92  1  0  0  0
 12 13  2  0  0  0
 12 93  1  0  0  0
 13 14  1  0  0  0
 13 31  1  0  0  0
 14 15  2  0  0  0
 14 94  1  0  0  0
 15 95  1  0  0  0
 16 17  2  0  0  0
 16 21  1  0  0  0
 16 31  1  0  0  0
 17 18  1  0  0  0
 17 96  1  0  0  0
 18 19  2  0  0  0
 18 97  1  0  0  0
 19 20  1  0  0  0
 19 24  1  0  0  0
 20 21  2  0  0  0
 20 98  1  0  0  0
 21 23  1  0  0  0
 22 28  1  0  0  0
 22 32  2  0  0  0
 26 27  1  0  0  0
 28 99  1  0  0  0
 28100  1  0  0  0
 29101  1  0  0  0
 29102  1  0  0  0
 33 34  1  0  0  0
 33 66  1  0  0  0
 33 70  2  0  0  0
 34 36  1  0  0  0
 34 59  1  0  0  0
 34103  1  0  0  0
 35 44  2  0  0  0
 35 45  1  0  0  0
 35 68  1  0  0  0
 36 56  1  0  0  0
 36104  1  0  0  0
 37 39  1  0  0  0
 37 47  1  0  0  0
 37 66  1  0  0  0
 37105  1  0  0  0
 38 43  2  0  0  0
 38 46  1  0  0  0
 38 47  1  0  0  0
 39 64  1  0  0  0
 39 67  2  0  0  0
 40 52  1  0  0  0
 40 53  2  0  0  0
 40 58  1  0  0  0
 41106  1  0  0  0
 41107  1  0  0  0
 41108  1  0  0  0
 41 48  1  0  0  0
 42 43  1  0  0  0
 42 66  1  0  0  0
 42109  1  0  0  0
 42110  1  0  0  0
 43 44  1  0  0  0
 44111  1  0  0  0
 45 46  2  0  0  0
 45112  1  0  0  0
 46113  1  0  0  0
 47114  1  0  0  0
 47115  1  0  0  0
 48 56  1  0  0  0
 48 65  1  0  0  0
 48116  1  0  0  0
 49 50  1  0  0  0
 49 53  1  0  0  0
 49 64  1  0  0  0
 49117  1  0  0  0
 50 51  1  0  0  0
 50118  1  0  0  0
 50119  1  0  0  0
 51 52  1  0  0  0
 51120  1  0  0  0
 51121  1  0  0  0
 52122  1  0  0  0
 52123  1  0  0  0
 53 54  1  0  0  0
 54 55  2  0  0  0
 54124  1  0  0  0
 55 57  1  0  0  0
 55125  1  0  0  0
 56 69  2  0  0  0
 57 58  2  0  0  0
 57126  1  0  0  0
 58127  1  0  0  0
 59 60  1  0  0  0
 59 61  1  0  0  0
 59 62  1  0  0  0
 60128  1  0  0  0
 60129  1  0  0  0
 60130  1  0  0  0
 61131  1  0  0  0
 61132  1  0  0  0
 61133  1  0  0  0
 62134  1  0  0  0
 62135  1  0  0  0
 62136  1  0  0  0
 63 65  1  0  0  0
 63137  1  0  0  0
 63138  1  0  0  0
 63139  1  0  0  0
 64140  1  0  0  0
 65141  1  0  0  0
 68 78  1  0  0  0
 71 72  1  0  0  0
 71142  1  0  0  0
 71143  1  0  0  0
 71 77  1  0  0  0
 72 78  1  0  0  0
 72144  1  0  0  0
 72145  1  0  0  0
 73 77  1  0  0  0
 73 78  1  0  0  0
 73146  1  0  0  0
 73147  1  0  0  0
 74 76  1  0  0  0
 74 81  1  0  0  0
 74148  1  0  0  0
 74149  1  0  0  0
 75 79  1  0  0  0
 75 81  1  0  0  0
 75150  1  0  0  0
 75151  1  0  0  0
 76152  1  0  0  0
 76153  1  0  0  0
 76 82  1  0  0  0
 77 82  1  0  0  0
 77154  1  0  0  0
 78155  1  0  0  0
 79 80  1  0  0  0
 79 82  1  0  0  0
 79156  1  0  0  0
 80157  1  0  0  0
 80158  1  0  0  0
 80159  1  0  0  0
 82160  1  0  0  0
M  CHG  1  82   1
M  ISO  4   1 100  68 101  78 101  81 100
M  END
> <chiral flag>
0

> <version>
0

> <s_m_source_file>
/data/baiqing/PycharmProjects/Reinvent-master-3.2/result/LINK_invent/BTK/process_docking_weight1_custom_sum_contain_oxygen_bond_distance_aromatic_linkinvent_7_9_3/rearranged_h_0180.sdf

> <i_m_source_file_index>
82

> <r_mmod_Potential_Energy-OPLS-2005>
1198.81896972656

> <r_mmod_Stretch_Energy-OPLS-2005>
426.264770507812

> <r_mmod_Bend_Energy-OPLS-2005>
497.439697265625

> <r_mmod_Torsional_Energy-OPLS-2005>
425.718475341797

> <r_mmod_Improper_Torsional_Energy-OPLS-2005>
5.67800283432007

> <r_mmod_Van_der_Waal_Energy-OPLS-2005>
111.594062805176

> <r_mmod_Electrostatic_Energy-OPLS-2005>
-200.142868041992

> <r_mmod_Solvation_Energy-OPLS-2005>
-446.291107177734

> <b_mmod_Minimization_Converged-OPLS-2005>
0

> <r_mmod_RMS_Derivative-OPLS-2005>
4.28701162338257

$$$$
82
                    3D
 Structure written by MMmdl.
153162  0  0  1  0            999 V2000
  -30.4368  -15.2069   20.3737 C   0  0  0  0  0  0
  -30.4406  -12.7633   19.5254 C   0  0  0  0  0  0
  -29.5345  -12.5663   18.2843 C   0  0  0  0  0  0
  -28.0794  -12.3006   18.7090 C   0  0  0  0  0  0
  -27.6146  -13.2676   19.8268 C   0  0  2  0  0  0
  -28.6484  -13.4088   20.9636 C   0  0  0  0  0  0
  -25.2396  -13.8233   20.5734 C   0  0  0  0  0  0
  -24.1746  -13.0431   20.9258 C   0  0  0  0  0  0
  -24.6389  -11.6927   20.8767 C   0  0  0  0  0  0
  -23.9078  -10.4292   21.0414 C   0  0  0  0  0  0
  -24.3625   -9.4205   21.9188 C   0  0  0  0  0  0
  -23.6296   -8.2241   22.0755 C   0  0  0  0  0  0
  -22.4278   -8.0280   21.3544 C   0  0  0  0  0  0
  -21.9919   -9.0256   20.4648 C   0  0  0  0  0  0
  -22.7250  -10.2134   20.3059 C   0  0  0  0  0  0
  -21.6854   -6.0735   22.5279 C   0  0  0  0  0  0
  -21.4016   -6.5639   23.8213 C   0  0  0  0  0  0
  -21.3662   -5.6793   24.9176 C   0  0  0  0  0  0
  -21.6043   -4.3055   24.7229 C   0  0  0  0  0  0
  -21.8817   -3.8146   23.4351 C   0  0  0  0  0  0
  -21.9192   -4.6961   22.3406 C   0  0  0  0  0  0
  -22.7764  -13.5193   21.1907 C   0  0  0  0  0  0
  -22.1661   -4.2145   21.0983 F   0  0  0  0  0  0
  -21.5629   -3.4537   25.7742 F   0  0  0  0  0  0
  -29.8894  -13.8991   20.3459 N   0  0  0  0  0  0
  -26.2819  -12.9496   20.3217 N   0  0  0  0  0  0
  -25.9321  -11.6608   20.5718 N   0  0  0  0  0  0
  -22.0419  -12.8179   22.0464 N   0  0  0  0  0  0
  -25.4027  -15.1967   20.4148 N   0  0  0  0  0  0
  -31.6541  -15.2389   20.1432 O   0  0  0  0  0  0
  -21.6638   -6.8878   21.4241 O   0  0  0  0  0  0
  -22.3449  -14.5495   20.6745 O   0  0  0  0  0  0
  -24.6575  -31.8262   23.1723 C   0  0  0  0  0  0
  -25.9277  -32.4600   23.8173 C   0  0  1  0  0  0
  -27.2194  -26.9628   20.1858 C   0  0  0  0  0  0
  -25.5959  -33.8414   24.2079 N   0  0  0  0  0  0
  -23.4700  -30.4370   21.5206 C   0  0  2  0  0  0
  -24.9206  -28.8221   20.1158 C   0  0  0  0  0  0
  -22.7634  -29.4447   22.4800 C   0  0  0  0  0  0
  -18.0316  -28.1403   22.8469 C   0  0  0  0  0  0
  -24.1493  -36.7219   23.2649 C   0  0  0  0  0  0
  -26.0342  -30.6436   21.3964 C   0  0  0  0  0  0
  -26.0996  -29.2336   20.7482 C   0  0  0  0  0  0
  -27.2417  -28.3233   20.7593 C   0  0  0  0  0  0
  -26.0128  -26.6885   19.5072 C   0  0  0  0  0  0
  -24.8983  -27.5687   19.4787 C   0  0  0  0  0  0
  -23.7069  -29.7484   20.1473 C   0  0  0  0  0  0
  -25.4133  -36.2975   24.0299 C   0  0  1  0  0  0
  -20.5935  -28.3739   23.1203 C   0  0  2  0  0  0
  -20.6792  -26.9425   22.5404 C   0  0  0  0  0  0
  -19.5767  -26.6375   21.5213 C   0  0  0  0  0  0
  -18.1950  -26.7937   22.1624 C   0  0  0  0  0  0
  -19.1578  -28.8892   23.2822 C   0  0  0  0  0  0
  -18.9488  -30.1484   23.8853 C   0  0  0  0  0  0
  -17.6484  -30.6593   24.0559 C   0  0  0  0  0  0
  -25.9094  -34.9358   23.5010 C   0  0  0  0  0  0
  -16.5373  -29.9082   23.6341 C   0  0  0  0  0  0
  -16.7300  -28.6502   23.0357 C   0  0  0  0  0  0
  -26.4547  -31.6539   25.0691 C   0  0  0  0  0  0
  -25.3686  -31.3779   26.1355 C   0  0  0  0  0  0
  -27.0444  -30.2912   24.6401 C   0  0  0  0  0  0
  -27.6039  -32.4347   25.7494 C   0  0  0  0  0  0
  -27.5568  -37.1768   24.8468 C   0  0  0  0  0  0
  -21.4311  -29.3033   22.3552 N   0  0  0  0  0  0
  -26.4282  -37.3704   23.9401 N   0  0  0  0  0  0
  -24.7415  -30.9960   22.0839 N   0  0  0  0  0  0
  -23.4202  -28.8025   23.3032 O   0  0  0  0  0  0
  -28.2999  -25.9516   20.1998 O   0  0  0  0  0  0
  -26.5704  -34.8888   22.4607 O   0  0  0  0  0  0
  -23.5656  -32.1217   23.6842 O   0  0  0  0  0  0
  -29.8367  -22.2325   20.1744 C   0  0  0  0  0  0
  -28.7841  -21.2509   20.3347 C   0  0  0  0  0  0
  -29.6708  -23.7023   20.1110 C   0  0  0  0  0  0
  -27.5636  -22.0752   20.4020 C   0  0  0  0  0  0
  -28.4137  -24.4225   20.2117 C   0  0  0  0  0  0
  -28.9310  -18.6836   19.2305 C   0  0  0  0  0  0
  -28.8579  -19.5020   20.4925 C   0  0  1  0  0  0
  -29.8478  -18.0470   20.2572 C   0  0  1  0  0  0
  -30.9226  -24.5421   19.9326 C   0  0  0  0  0  0
  -26.2455  -21.3429   20.5588 C   0  0  0  0  0  0
  -27.3906  -23.4954   20.3540 N   0  0  0  0  0  0
  -29.6281  -16.4382   20.4495 N   0  0  0  0  0  0
  -31.4625  -12.9633   19.2009 H   0  0  0  0  0  0
  -30.4950  -11.8471   20.1162 H   0  0  0  0  0  0
  -29.9026  -11.7445   17.6685 H   0  0  0  0  0  0
  -29.5742  -13.4599   17.6598 H   0  0  0  0  0  0
  -28.0261  -11.2729   19.0706 H   0  0  0  0  0  0
  -27.4124  -12.3579   17.8484 H   0  0  0  0  0  0
  -27.5399  -14.2423   19.3435 H   0  0  0  0  0  0
  -28.8009  -12.4631   21.4857 H   0  0  0  0  0  0
  -28.2981  -14.1239   21.7100 H   0  0  0  0  0  0
  -25.2769   -9.5674   22.4768 H   0  0  0  0  0  0
  -24.0000   -7.4630   22.7475 H   0  0  0  0  0  0
  -21.0849   -8.8780   19.8956 H   0  0  0  0  0  0
  -22.3708  -10.9676   19.6172 H   0  0  0  0  0  0
  -21.2008   -7.6147   23.9715 H   0  0  0  0  0  0
  -21.1487   -6.0525   25.9079 H   0  0  0  0  0  0
  -22.0592   -2.7606   23.2853 H   0  0  0  0  0  0
  -22.4047  -11.9845   22.4852 H   0  0  0  0  0  0
  -21.1033  -13.1194   22.2668 H   0  0  0  0  0  0
  -24.6278  -15.8422   20.5221 H   0  0  0  0  0  0
  -26.2334  -15.6371   20.0423 H   0  0  0  0  0  0
  -26.7343  -32.5146   23.0886 H   0  0  0  0  0  0
  -25.0052  -33.9498   25.0192 H   0  0  0  0  0  0
  -22.7814  -31.2668   21.3499 H   0  0  0  0  0  0
  -23.3755  -35.9551   23.3298 H   0  0  0  0  0  0
  -24.3566  -36.8879   22.2067 H   0  0  0  0  0  0
  -23.7257  -37.6408   23.6713 H   0  0  0  0  0  0
  -26.2073  -31.3832   20.6135 H   0  0  0  0  0  0
  -26.8974  -30.7026   22.0475 H   0  0  0  0  0  0
  -28.1440  -28.6416   21.2611 H   0  0  0  0  0  0
  -25.9133  -25.7313   19.0139 H   0  0  0  0  0  0
  -24.0006  -27.2505   18.9662 H   0  0  0  0  0  0
  -23.8606  -30.5146   19.3865 H   0  0  0  0  0  0
  -22.8174  -29.1994   19.8328 H   0  0  0  0  0  0
  -25.1336  -36.1773   25.0791 H   0  0  0  0  0  0
  -21.0025  -28.3342   24.1326 H   0  0  0  0  0  0
  -20.5671  -26.2358   23.3641 H   0  0  0  0  0  0
  -21.6656  -26.7403   22.1213 H   0  0  0  0  0  0
  -19.6928  -25.6273   21.1270 H   0  0  0  0  0  0
  -19.6711  -27.3163   20.6726 H   0  0  0  0  0  0
  -17.4221  -26.6679   21.4027 H   0  0  0  0  0  0
  -18.0346  -26.0087   22.9029 H   0  0  0  0  0  0
  -19.7965  -30.7312   24.2202 H   0  0  0  0  0  0
  -17.5034  -31.6268   24.5170 H   0  0  0  0  0  0
  -15.5370  -30.2970   23.7687 H   0  0  0  0  0  0
  -15.8703  -28.0810   22.7091 H   0  0  0  0  0  0
  -24.5875  -30.7124   25.7660 H   0  0  0  0  0  0
  -24.8872  -32.2982   26.4673 H   0  0  0  0  0  0
  -25.7928  -30.9012   27.0202 H   0  0  0  0  0  0
  -26.3103  -29.6586   24.1401 H   0  0  0  0  0  0
  -27.3982  -29.7275   25.5042 H   0  0  0  0  0  0
  -27.9037  -30.4103   23.9800 H   0  0  0  0  0  0
  -27.2602  -33.3681   26.1962 H   0  0  0  0  0  0
  -28.3908  -32.6856   25.0370 H   0  0  0  0  0  0
  -28.0643  -31.8550   26.5503 H   0  0  0  0  0  0
  -28.2579  -38.0067   24.7488 H   0  0  0  0  0  0
  -28.1066  -36.2590   24.6327 H   0  0  0  0  0  0
  -27.2276  -37.1453   25.8869 H   0  0  0  0  0  0
  -20.9557  -29.8722   21.6686 H   0  0  0  0  0  0
  -26.0132  -38.2766   24.1393 H   0  0  0  0  0  0
  -30.8419  -21.8424   20.1041 H   0  0  0  0  0  0
  -29.4387  -19.1296   18.3776 H   0  0  0  0  0  0
  -28.0189  -18.1559   18.9584 H   0  0  0  0  0  0
  -28.0415  -19.2800   21.1769 H   0  0  0  0  0  0
  -30.9039  -18.3049   20.2002 H   0  0  0  0  0  0
  -31.8033  -23.9275   19.7429 H   0  0  0  0  0  0
  -31.1079  -25.1408   20.8246 H   0  0  0  0  0  0
  -30.8040  -25.2224   19.0882 H   0  0  0  0  0  0
  -26.1485  -20.9530   21.5722 H   0  0  0  0  0  0
  -26.1862  -20.5066   19.8619 H   0  0  0  0  0  0
  -25.3932  -21.9950   20.3637 H   0  0  0  0  0  0
  -28.6613  -16.2114   20.6300 H   0  0  0  0  0  0
  1 25  1  0  0  0
  1 30  2  0  0  0
  1 82  1  0  0  0
  2  3  1  0  0  0
  2 25  1  0  0  0
  2 83  1  0  0  0
  2 84  1  0  0  0
  3  4  1  0  0  0
  3 85  1  0  0  0
  3 86  1  0  0  0
  4  5  1  0  0  0
  4 87  1  0  0  0
  4 88  1  0  0  0
  5  6  1  0  0  0
  5 26  1  0  0  0
  5 89  1  0  0  0
  6 25  1  0  0  0
  6 90  1  0  0  0
  6 91  1  0  0  0
  7  8  2  0  0  0
  7 26  1  0  0  0
  7 29  1  0  0  0
  8  9  1  0  0  0
  8 22  1  0  0  0
  9 10  1  0  0  0
  9 27  2  0  0  0
 10 11  2  0  0  0
 10 15  1  0  0  0
 11 12  1  0  0  0
 11 92  1  0  0  0
 12 13  2  0  0  0
 12 93  1  0  0  0
 13 14  1  0  0  0
 13 31  1  0  0  0
 14 15  2  0  0  0
 14 94  1  0  0  0
 15 95  1  0  0  0
 16 17  2  0  0  0
 16 21  1  0  0  0
 16 31  1  0  0  0
 17 18  1  0  0  0
 17 96  1  0  0  0
 18 19  2  0  0  0
 18 97  1  0  0  0
 19 20  1  0  0  0
 19 24  1  0  0  0
 20 21  2  0  0  0
 20 98  1  0  0  0
 21 23  1  0  0  0
 22 28  1  0  0  0
 22 32  2  0  0  0
 26 27  1  0  0  0
 28 99  1  0  0  0
 28100  1  0  0  0
 29101  1  0  0  0
 29102  1  0  0  0
 33 34  1  0  0  0
 33 66  1  0  0  0
 33 70  2  0  0  0
 34 36  1  0  0  0
 34 59  1  0  0  0
 34103  1  0  0  0
 35 44  2  0  0  0
 35 45  1  0  0  0
 35 68  1  0  0  0
 36 56  1  0  0  0
 36104  1  0  0  0
 37 39  1  0  0  0
 37 47  1  0  0  0
 37 66  1  0  0  0
 37105  1  0  0  0
 38 43  2  0  0  0
 38 46  1  0  0  0
 38 47  1  0  0  0
 39 64  1  0  0  0
 39 67  2  0  0  0
 40 52  1  0  0  0
 40 53  2  0  0  0
 40 58  1  0  0  0
 41106  1  0  0  0
 41107  1  0  0  0
 41108  1  0  0  0
 41 48  1  0  0  0
 42 43  1  0  0  0
 42 66  1  0  0  0
 42109  1  0  0  0
 42110  1  0  0  0
 43 44  1  0  0  0
 44111  1  0  0  0
 45 46  2  0  0  0
 45112  1  0  0  0
 46113  1  0  0  0
 47114  1  0  0  0
 47115  1  0  0  0
 48 56  1  0  0  0
 48 65  1  0  0  0
 48116  1  0  0  0
 49 50  1  0  0  0
 49 53  1  0  0  0
 49 64  1  0  0  0
 49117  1  0  0  0
 50 51  1  0  0  0
 50118  1  0  0  0
 50119  1  0  0  0
 51 52  1  0  0  0
 51120  1  0  0  0
 51121  1  0  0  0
 52122  1  0  0  0
 52123  1  0  0  0
 53 54  1  0  0  0
 54 55  2  0  0  0
 54124  1  0  0  0
 55 57  1  0  0  0
 55125  1  0  0  0
 56 69  2  0  0  0
 57 58  2  0  0  0
 57126  1  0  0  0
 58127  1  0  0  0
 59 60  1  0  0  0
 59 61  1  0  0  0
 59 62  1  0  0  0
 60128  1  0  0  0
 60129  1  0  0  0
 60130  1  0  0  0
 61131  1  0  0  0
 61132  1  0  0  0
 61133  1  0  0  0
 62134  1  0  0  0
 62135  1  0  0  0
 62136  1  0  0  0
 63 65  1  0  0  0
 63137  1  0  0  0
 63138  1  0  0  0
 63139  1  0  0  0
 64140  1  0  0  0
 65141  1  0  0  0
 68 75  1  0  0  0
 71 72  2  0  0  0
 71 73  1  0  0  0
 71142  1  0  0  0
 72 74  1  0  0  0
 72 77  1  0  0  0
 73 75  2  0  0  0
 73 79  1  0  0  0
 74 80  1  0  0  0
 74 81  2  0  0  0
 75 81  1  0  0  0
 76 77  1  0  0  0
 76 78  1  0  0  0
 76143  1  0  0  0
 76144  1  0  0  0
 77 78  1  0  0  0
 77145  1  0  0  0
 78 82  1  0  0  0
 78146  1  0  0  0
 79147  1  0  0  0
 79148  1  0  0  0
 79149  1  0  0  0
 80150  1  0  0  0
 80151  1  0  0  0
 80152  1  0  0  0
 82153  1  0  0  0
M  ISO  4   1 100  68 101  75 101  82 100
M  END
> <chiral flag>
0

> <version>
0

> <s_m_source_file>
/data/baiqing/PycharmProjects/Reinvent-master-3.2/result/LINK_invent/BTK/process_docking_weight1_custom_sum_contain_oxygen_bond_distance_aromatic_linkinvent_7_9_3/rearranged_h_0180.sdf

> <i_m_source_file_index>
83

> <r_mmod_Potential_Energy-OPLS-2005>
905.938293457031

> <r_mmod_Stretch_Energy-OPLS-2005>
474.191070556641

> <r_mmod_Bend_Energy-OPLS-2005>
399.417327880859

> <r_mmod_Torsional_Energy-OPLS-2005>
249.628707885742

> <r_mmod_Improper_Torsional_Energy-OPLS-2005>
4.55234813690186

> <r_mmod_Van_der_Waal_Energy-OPLS-2005>
125.380561828613

> <r_mmod_Electrostatic_Energy-OPLS-2005>
-514.448791503906

> <r_mmod_Solvation_Energy-OPLS-2005>
-221.47021484375

> <b_mmod_Minimization_Converged-OPLS-2005>
0

> <r_mmod_RMS_Derivative-OPLS-2005>
0.878690004348755

$$$$
83
                    3D
 Structure written by MMmdl.
156165  0  0  1  0            999 V2000
  -30.5232  -14.9554   20.4324 C   0  0  0  0  0  0
  -30.4394  -12.5981   19.4883 C   0  0  0  0  0  0
  -29.5202  -12.5452   18.2461 C   0  0  0  0  0  0
  -28.0488  -12.3306   18.6551 C   0  0  0  0  0  0
  -27.6265  -13.2486   19.8319 C   0  0  2  0  0  0
  -28.6682  -13.2696   20.9683 C   0  0  0  0  0  0
  -25.2461  -13.8208   20.5713 C   0  0  0  0  0  0
  -24.1778  -13.0428   20.9218 C   0  0  0  0  0  0
  -24.6396  -11.6918   20.8725 C   0  0  0  0  0  0
  -23.9074  -10.4287   21.0377 C   0  0  0  0  0  0
  -24.3631   -9.4207   21.9158 C   0  0  0  0  0  0
  -23.6305   -8.2245   22.0731 C   0  0  0  0  0  0
  -22.4286   -8.0279   21.3535 C   0  0  0  0  0  0
  -21.9921   -9.0243   20.4628 C   0  0  0  0  0  0
  -22.7245  -10.2120   20.3029 C   0  0  0  0  0  0
  -21.6854   -6.0735   22.5276 C   0  0  0  0  0  0
  -21.4018   -6.5650   23.8204 C   0  0  0  0  0  0
  -21.3661   -5.6802   24.9168 C   0  0  0  0  0  0
  -21.6039   -4.3060   24.7220 C   0  0  0  0  0  0
  -21.8824   -3.8147   23.4344 C   0  0  0  0  0  0
  -21.9199   -4.6962   22.3403 C   0  0  0  0  0  0
  -22.7795  -13.5187   21.1886 C   0  0  0  0  0  0
  -22.1662   -4.2150   21.0979 F   0  0  0  0  0  0
  -21.5634   -3.4540   25.7733 F   0  0  0  0  0  0
  -29.9387  -13.6922   20.3694 N   0  0  0  0  0  0
  -26.2868  -12.9447   20.3205 N   0  0  0  0  0  0
  -25.9328  -11.6571   20.5693 N   0  0  0  0  0  0
  -22.0477  -12.8147   22.0448 N   0  0  0  0  0  0
  -25.4136  -15.1939   20.4144 N   0  0  0  0  0  0
  -31.7376  -15.0230   20.2115 O   0  0  0  0  0  0
  -21.6653   -6.8875   21.4241 O   0  0  0  0  0  0
  -22.3465  -14.5494   20.6738 O   0  0  0  0  0  0
  -24.6454  -31.8442   23.1881 C   0  0  0  0  0  0
  -25.9227  -32.4710   23.8240 C   0  0  1  0  0  0
  -27.1994  -27.1159   20.1602 C   0  0  0  0  0  0
  -25.5984  -33.8524   24.2145 N   0  0  0  0  0  0
  -23.4501  -30.4685   21.5291 C   0  0  2  0  0  0
  -24.8997  -28.9011   20.1041 C   0  0  0  0  0  0
  -22.7570  -29.4564   22.4765 C   0  0  0  0  0  0
  -18.0322  -28.1495   22.8454 C   0  0  0  0  0  0
  -24.1495  -36.7285   23.2642 C   0  0  0  0  0  0
  -26.0093  -30.7135   21.3914 C   0  0  0  0  0  0
  -26.0767  -29.3249   20.7322 C   0  0  0  0  0  0
  -27.2277  -28.4476   20.7482 C   0  0  0  0  0  0
  -26.0054  -26.8106   19.4727 C   0  0  0  0  0  0
  -24.8786  -27.6581   19.4585 C   0  0  0  0  0  0
  -23.6802  -29.8097   20.1435 C   0  0  0  0  0  0
  -25.4118  -36.3035   24.0303 C   0  0  1  0  0  0
  -20.5938  -28.3796   23.1217 C   0  0  2  0  0  0
  -20.6838  -26.9493   22.5409 C   0  0  0  0  0  0
  -19.5810  -26.6426   21.5247 C   0  0  0  0  0  0
  -18.1971  -26.8036   22.1619 C   0  0  0  0  0  0
  -19.1575  -28.8957   23.2842 C   0  0  0  0  0  0
  -18.9512  -30.1558   23.8866 C   0  0  0  0  0  0
  -17.6507  -30.6659   24.0601 C   0  0  0  0  0  0
  -25.9070  -34.9427   23.5013 C   0  0  0  0  0  0
  -16.5394  -29.9167   23.6383 C   0  0  0  0  0  0
  -16.7297  -28.6628   23.0311 C   0  0  0  0  0  0
  -26.4522  -31.6595   25.0687 C   0  0  0  0  0  0
  -25.3666  -31.3887   26.1343 C   0  0  0  0  0  0
  -27.0395  -30.2984   24.6305 C   0  0  0  0  0  0
  -27.6034  -32.4347   25.7499 C   0  0  0  0  0  0
  -27.5572  -37.1783   24.8441 C   0  0  0  0  0  0
  -21.4251  -29.3128   22.3565 N   0  0  0  0  0  0
  -26.4268  -37.3752   23.9408 N   0  0  0  0  0  0
  -24.7215  -31.0274   22.0929 N   0  0  0  0  0  0
  -23.4218  -28.8072   23.2897 O   0  0  0  0  0  0
  -28.2152  -26.0900   20.2710 O   0  0  0  0  0  0
  -26.5633  -34.8946   22.4581 O   0  0  0  0  0  0
  -23.5562  -32.1333   23.7067 O   0  0  0  0  0  0
  -29.5539  -23.3865   21.6119 C   0  0  0  0  0  0
  -29.2464  -20.6571   20.7104 C   0  0  0  0  0  0
  -28.6862  -23.2442   20.5242 C   0  0  0  0  0  0
  -28.5395  -21.8209   20.0913 C   0  0  0  0  0  0
  -30.0753  -21.0781   21.7845 C   0  0  0  0  0  0
  -29.9614  -18.4352   19.2668 C   0  0  0  0  0  0
  -29.1107  -19.0282   20.3659 C   0  0  1  0  0  0
  -30.0704  -17.6541   20.5602 C   0  0  1  0  0  0
  -27.5834  -21.5366   18.9438 C   0  0  0  0  0  0
  -30.8891  -20.0938   22.6036 C   0  0  0  0  0  0
  -27.8882  -24.5878   19.9790 C   0  0  0  0  0  0
  -30.2159  -22.3616   22.1993 N   0  0  0  0  0  0
  -29.7232  -16.1337   20.5199 N   0  0  0  0  0  0
  -31.4709  -12.7680   19.1764 H   0  0  0  0  0  0
  -30.4400  -11.6421   20.0140 H   0  0  0  0  0  0
  -29.8411  -11.7616   17.5576 H   0  0  0  0  0  0
  -29.6056  -13.4870   17.7007 H   0  0  0  0  0  0
  -27.9263  -11.2834   18.9327 H   0  0  0  0  0  0
  -27.3933  -12.4949   17.7987 H   0  0  0  0  0  0
  -27.5884  -14.2541   19.4104 H   0  0  0  0  0  0
  -28.7604  -12.2909   21.4414 H   0  0  0  0  0  0
  -28.3683  -13.9664   21.7520 H   0  0  0  0  0  0
  -25.2787   -9.5696   22.4719 H   0  0  0  0  0  0
  -24.0034   -7.4634   22.7441 H   0  0  0  0  0  0
  -21.0862   -8.8741   19.8920 H   0  0  0  0  0  0
  -22.3699  -10.9651   19.6127 H   0  0  0  0  0  0
  -21.2001   -7.6158   23.9709 H   0  0  0  0  0  0
  -21.1481   -6.0528   25.9069 H   0  0  0  0  0  0
  -22.0599   -2.7609   23.2840 H   0  0  0  0  0  0
  -22.4138  -11.9803   22.4804 H   0  0  0  0  0  0
  -21.1069  -13.1115   22.2657 H   0  0  0  0  0  0
  -24.6427  -15.8442   20.5206 H   0  0  0  0  0  0
  -26.2559  -15.6360   20.0687 H   0  0  0  0  0  0
  -26.7277  -32.5263   23.0944 H   0  0  0  0  0  0
  -25.0172  -33.9673   25.0315 H   0  0  0  0  0  0
  -22.7572  -31.2986   21.3755 H   0  0  0  0  0  0
  -23.3768  -35.9607   23.3244 H   0  0  0  0  0  0
  -24.3594  -36.8982   22.2077 H   0  0  0  0  0  0
  -23.7273  -37.6479   23.6706 H   0  0  0  0  0  0
  -26.1604  -31.4657   20.6166 H   0  0  0  0  0  0
  -26.8865  -30.7685   22.0247 H   0  0  0  0  0  0
  -28.1133  -28.7588   21.2839 H   0  0  0  0  0  0
  -25.8930  -25.8671   18.9618 H   0  0  0  0  0  0
  -23.9824  -27.3251   18.9541 H   0  0  0  0  0  0
  -23.8425  -30.5970   19.4071 H   0  0  0  0  0  0
  -22.7934  -29.2701   19.8027 H   0  0  0  0  0  0
  -25.1312  -36.1846   25.0796 H   0  0  0  0  0  0
  -21.0039  -28.3435   24.1331 H   0  0  0  0  0  0
  -20.5874  -26.2381   23.3629 H   0  0  0  0  0  0
  -21.6680  -26.7592   22.1116 H   0  0  0  0  0  0
  -19.6988  -25.6319   21.1324 H   0  0  0  0  0  0
  -19.6801  -27.3197   20.6757 H   0  0  0  0  0  0
  -17.4251  -26.6787   21.4007 H   0  0  0  0  0  0
  -18.0331  -26.0219   22.9057 H   0  0  0  0  0  0
  -19.7989  -30.7393   24.2176 H   0  0  0  0  0  0
  -17.5084  -31.6329   24.5218 H   0  0  0  0  0  0
  -15.5406  -30.3069   23.7782 H   0  0  0  0  0  0
  -15.8695  -28.1010   22.6941 H   0  0  0  0  0  0
  -24.5847  -30.7226   25.7658 H   0  0  0  0  0  0
  -24.8859  -32.3145   26.4528 H   0  0  0  0  0  0
  -25.7892  -30.9217   27.0251 H   0  0  0  0  0  0
  -26.3042  -29.6687   24.1278 H   0  0  0  0  0  0
  -27.3993  -29.7291   25.4893 H   0  0  0  0  0  0
  -27.8936  -30.4221   23.9644 H   0  0  0  0  0  0
  -27.2622  -33.3687   26.1967 H   0  0  0  0  0  0
  -28.3935  -32.6827   25.0401 H   0  0  0  0  0  0
  -28.0572  -31.8528   26.5532 H   0  0  0  0  0  0
  -28.2493  -38.0159   24.7509 H   0  0  0  0  0  0
  -28.1159  -36.2688   24.6193 H   0  0  0  0  0  0
  -27.2299  -37.1324   25.8842 H   0  0  0  0  0  0
  -20.9425  -29.8880   21.6785 H   0  0  0  0  0  0
  -26.0132  -38.2804   24.1462 H   0  0  0  0  0  0
  -29.7097  -24.3601   22.0551 H   0  0  0  0  0  0
  -30.8616  -18.9728   18.9785 H   0  0  0  0  0  0
  -29.4288  -17.9828   18.4333 H   0  0  0  0  0  0
  -28.0454  -18.8054   20.3331 H   0  0  0  0  0  0
  -30.9750  -17.8372   21.1313 H   0  0  0  0  0  0
  -27.1513  -20.5377   19.0153 H   0  0  0  0  0  0
  -28.0977  -21.6228   17.9854 H   0  0  0  0  0  0
  -26.7524  -22.2414   18.9386 H   0  0  0  0  0  0
  -30.3018  -19.2187   22.8789 H   0  0  0  0  0  0
  -31.2341  -20.5497   23.5321 H   0  0  0  0  0  0
  -31.7745  -19.7761   22.0541 H   0  0  0  0  0  0
  -26.8677  -24.4206   20.3257 H   0  0  0  0  0  0
  -27.8598  -24.4916   18.8943 H   0  0  0  0  0  0
  -28.7388  -15.9327   20.6151 H   0  0  0  0  0  0
  1 25  1  0  0  0
  1 30  2  0  0  0
  1 83  1  0  0  0
  2  3  1  0  0  0
  2 25  1  0  0  0
  2 84  1  0  0  0
  2 85  1  0  0  0
  3  4  1  0  0  0
  3 86  1  0  0  0
  3 87  1  0  0  0
  4  5  1  0  0  0
  4 88  1  0  0  0
  4 89  1  0  0  0
  5  6  1  0  0  0
  5 26  1  0  0  0
  5 90  1  0  0  0
  6 25  1  0  0  0
  6 91  1  0  0  0
  6 92  1  0  0  0
  7  8  2  0  0  0
  7 26  1  0  0  0
  7 29  1  0  0  0
  8  9  1  0  0  0
  8 22  1  0  0  0
  9 10  1  0  0  0
  9 27  2  0  0  0
 10 11  2  0  0  0
 10 15  1  0  0  0
 11 12  1  0  0  0
 11 93  1  0  0  0
 12 13  2  0  0  0
 12 94  1  0  0  0
 13 14  1  0  0  0
 13 31  1  0  0  0
 14 15  2  0  0  0
 14 95  1  0  0  0
 15 96  1  0  0  0
 16 17  2  0  0  0
 16 21  1  0  0  0
 16 31  1  0  0  0
 17 18  1  0  0  0
 17 97  1  0  0  0
 18 19  2  0  0  0
 18 98  1  0  0  0
 19 20  1  0  0  0
 19 24  1  0  0  0
 20 21  2  0  0  0
 20 99  1  0  0  0
 21 23  1  0  0  0
 22 28  1  0  0  0
 22 32  2  0  0  0
 26 27  1  0  0  0
 28100  1  0  0  0
 28101  1  0  0  0
 29102  1  0  0  0
 29103  1  0  0  0
 33 34  1  0  0  0
 33 66  1  0  0  0
 33 70  2  0  0  0
 34 36  1  0  0  0
 34 59  1  0  0  0
 34104  1  0  0  0
 35 44  2  0  0  0
 35 45  1  0  0  0
 35 68  1  0  0  0
 36 56  1  0  0  0
 36105  1  0  0  0
 37 39  1  0  0  0
 37 47  1  0  0  0
 37 66  1  0  0  0
 37106  1  0  0  0
 38 43  2  0  0  0
 38 46  1  0  0  0
 38 47  1  0  0  0
 39 64  1  0  0  0
 39 67  2  0  0  0
 40 52  1  0  0  0
 40 53  2  0  0  0
 40 58  1  0  0  0
 41107  1  0  0  0
 41108  1  0  0  0
 41109  1  0  0  0
 41 48  1  0  0  0
 42 43  1  0  0  0
 42 66  1  0  0  0
 42110  1  0  0  0
 42111  1  0  0  0
 43 44  1  0  0  0
 44112  1  0  0  0
 45 46  2  0  0  0
 45113  1  0  0  0
 46114  1  0  0  0
 47115  1  0  0  0
 47116  1  0  0  0
 48 56  1  0  0  0
 48 65  1  0  0  0
 48117  1  0  0  0
 49 50  1  0  0  0
 49 53  1  0  0  0
 49 64  1  0  0  0
 49118  1  0  0  0
 50 51  1  0  0  0
 50119  1  0  0  0
 50120  1  0  0  0
 51 52  1  0  0  0
 51121  1  0  0  0
 51122  1  0  0  0
 52123  1  0  0  0
 52124  1  0  0  0
 53 54  1  0  0  0
 54 55  2  0  0  0
 54125  1  0  0  0
 55 57  1  0  0  0
 55126  1  0  0  0
 56 69  2  0  0  0
 57 58  2  0  0  0
 57127  1  0  0  0
 58128  1  0  0  0
 59 60  1  0  0  0
 59 61  1  0  0  0
 59 62  1  0  0  0
 60129  1  0  0  0
 60130  1  0  0  0
 60131  1  0  0  0
 61132  1  0  0  0
 61133  1  0  0  0
 61134  1  0  0  0
 62135  1  0  0  0
 62136  1  0  0  0
 62137  1  0  0  0
 63 65  1  0  0  0
 63138  1  0  0  0
 63139  1  0  0  0
 63140  1  0  0  0
 64141  1  0  0  0
 65142  1  0  0  0
 68 81  1  0  0  0
 71 73  2  0  0  0
 71 82  1  0  0  0
 71143  1  0  0  0
 72 74  2  0  0  0
 72 75  1  0  0  0
 72 77  1  0  0  0
 73 74  1  0  0  0
 73 81  1  0  0  0
 74 79  1  0  0  0
 75 80  1  0  0  0
 75 82  2  0  0  0
 76 77  1  0  0  0
 76 78  1  0  0  0
 76144  1  0  0  0
 76145  1  0  0  0
 77 78  1  0  0  0
 77146  1  0  0  0
 78 83  1  0  0  0
 78147  1  0  0  0
 79148  1  0  0  0
 79149  1  0  0  0
 79150  1  0  0  0
 80151  1  0  0  0
 80152  1  0  0  0
 80153  1  0  0  0
 81154  1  0  0  0
 81155  1  0  0  0
 83156  1  0  0  0
M  ISO  4   1 100  68 101  81 101  83 100
M  END
> <chiral flag>
0

> <version>
0

> <s_m_source_file>
/data/baiqing/PycharmProjects/Reinvent-master-3.2/result/LINK_invent/BTK/process_docking_weight1_custom_sum_contain_oxygen_bond_distance_aromatic_linkinvent_7_9_3/rearranged_h_0180.sdf

> <i_m_source_file_index>
84

> <r_mmod_Potential_Energy-OPLS-2005>
407.533477783203

> <r_mmod_Stretch_Energy-OPLS-2005>
279.043060302734

> <r_mmod_Bend_Energy-OPLS-2005>
232.606491088867

> <r_mmod_Torsional_Energy-OPLS-2005>
271.385192871094

> <r_mmod_Improper_Torsional_Energy-OPLS-2005>
5.3568696975708

> <r_mmod_Van_der_Waal_Energy-OPLS-2005>
132.604629516602

> <r_mmod_Electrostatic_Energy-OPLS-2005>
-495.307983398438

> <r_mmod_Solvation_Energy-OPLS-2005>
-230.373687744141

> <b_mmod_Minimization_Converged-OPLS-2005>
0

> <r_mmod_RMS_Derivative-OPLS-2005>
4.03419303894043

$$$$
84
                    3D
 Structure written by MMmdl.
151160  0  0  1  0            999 V2000
  -30.4486  -15.2193   20.3744 C   0  0  0  0  0  0
  -30.4397  -12.7749   19.5217 C   0  0  0  0  0  0
  -29.5336  -12.5688   18.2822 C   0  0  0  0  0  0
  -28.0790  -12.3022   18.7082 C   0  0  0  0  0  0
  -27.6139  -13.2703   19.8249 C   0  0  2  0  0  0
  -28.6494  -13.4223   20.9592 C   0  0  0  0  0  0
  -25.2395  -13.8240   20.5736 C   0  0  0  0  0  0
  -24.1744  -13.0435   20.9257 C   0  0  0  0  0  0
  -24.6395  -11.6931   20.8764 C   0  0  0  0  0  0
  -23.9090  -10.4291   21.0410 C   0  0  0  0  0  0
  -24.3635   -9.4204   21.9187 C   0  0  0  0  0  0
  -23.6301   -8.2243   22.0758 C   0  0  0  0  0  0
  -22.4283   -8.0283   21.3548 C   0  0  0  0  0  0
  -21.9923   -9.0259   20.4650 C   0  0  0  0  0  0
  -22.7260  -10.2133   20.3058 C   0  0  0  0  0  0
  -21.6856   -6.0737   22.5279 C   0  0  0  0  0  0
  -21.4017   -6.5641   23.8212 C   0  0  0  0  0  0
  -21.3660   -5.6793   24.9174 C   0  0  0  0  0  0
  -21.6044   -4.3056   24.7225 C   0  0  0  0  0  0
  -21.8818   -3.8147   23.4346 C   0  0  0  0  0  0
  -21.9193   -4.6964   22.3402 C   0  0  0  0  0  0
  -22.7762  -13.5190   21.1902 C   0  0  0  0  0  0
  -22.1661   -4.2149   21.0979 F   0  0  0  0  0  0
  -21.5628   -3.4539   25.7738 F   0  0  0  0  0  0
  -29.8871  -13.9159   20.3359 N   0  0  0  0  0  0
  -26.2821  -12.9508   20.3217 N   0  0  0  0  0  0
  -25.9330  -11.6618   20.5724 N   0  0  0  0  0  0
  -22.0417  -12.8175   22.0456 N   0  0  0  0  0  0
  -25.4019  -15.1975   20.4155 N   0  0  0  0  0  0
  -31.6681  -15.2341   20.1553 O   0  0  0  0  0  0
  -21.6644   -6.8882   21.4243 O   0  0  0  0  0  0
  -22.3443  -14.5492   20.6740 O   0  0  0  0  0  0
  -24.6599  -31.8261   23.1722 C   0  0  0  0  0  0
  -25.9292  -32.4600   23.8179 C   0  0  1  0  0  0
  -27.2190  -26.9564   20.1845 C   0  0  0  0  0  0
  -25.5970  -33.8414   24.2086 N   0  0  0  0  0  0
  -23.4731  -30.4380   21.5209 C   0  0  2  0  0  0
  -24.9259  -28.8277   20.1138 C   0  0  0  0  0  0
  -22.7651  -29.4452   22.4793 C   0  0  0  0  0  0
  -18.0319  -28.1405   22.8467 C   0  0  0  0  0  0
  -24.1494  -36.7215   23.2647 C   0  0  0  0  0  0
  -26.0401  -30.6424   21.3976 C   0  0  0  0  0  0
  -26.1089  -29.2344   20.7434 C   0  0  0  0  0  0
  -27.2518  -28.3200   20.7518 C   0  0  0  0  0  0
  -26.0081  -26.6934   19.5070 C   0  0  0  0  0  0
  -24.8990  -27.5771   19.4753 C   0  0  0  0  0  0
  -23.7113  -29.7531   20.1471 C   0  0  0  0  0  0
  -25.4134  -36.2975   24.0301 C   0  0  1  0  0  0
  -20.5941  -28.3747   23.1195 C   0  0  2  0  0  0
  -20.6796  -26.9431   22.5402 C   0  0  0  0  0  0
  -19.5770  -26.6376   21.5212 C   0  0  0  0  0  0
  -18.1953  -26.7939   22.1622 C   0  0  0  0  0  0
  -19.1580  -28.8896   23.2819 C   0  0  0  0  0  0
  -18.9491  -30.1487   23.8854 C   0  0  0  0  0  0
  -17.6485  -30.6595   24.0555 C   0  0  0  0  0  0
  -25.9096  -34.9356   23.5015 C   0  0  0  0  0  0
  -16.5375  -29.9082   23.6341 C   0  0  0  0  0  0
  -16.7302  -28.6503   23.0361 C   0  0  0  0  0  0
  -26.4553  -31.6538   25.0698 C   0  0  0  0  0  0
  -25.3687  -31.3781   26.1360 C   0  0  0  0  0  0
  -27.0449  -30.2909   24.6415 C   0  0  0  0  0  0
  -27.6045  -32.4346   25.7502 C   0  0  0  0  0  0
  -27.5571  -37.1765   24.8466 C   0  0  0  0  0  0
  -21.4323  -29.3043   22.3546 N   0  0  0  0  0  0
  -26.4282  -37.3708   23.9406 N   0  0  0  0  0  0
  -24.7455  -30.9952   22.0841 N   0  0  0  0  0  0
  -23.4212  -28.8022   23.3024 O   0  0  0  0  0  0
  -28.2403  -25.8795   20.2461 O   0  0  0  0  0  0
  -26.5706  -34.8886   22.4610 O   0  0  0  0  0  0
  -23.5676  -32.1217   23.6835 O   0  0  0  0  0  0
  -28.6182  -23.0894   19.2658 C   0  0  0  0  0  0
  -28.6726  -23.1345   21.2569 C   0  0  0  0  0  0
  -29.2873  -19.2660   21.3356 C   0  0  0  0  0  0
  -29.1637  -19.1838   19.3925 C   0  0  0  0  0  0
  -29.9291  -18.1198   20.3653 C   0  0  2  0  0  0
  -28.4714  -21.8177   20.2978 C   0  0  2  0  0  0
  -28.0065  -24.2535   20.2524 C   0  0  1  0  0  0
  -29.6709  -16.4734   20.4578 N   0  0  0  0  0  0
  -29.3930  -20.4245   20.3035 N   0  3  1  0  0  0
  -31.4610  -12.9732   19.1939 H   0  0  0  0  0  0
  -30.4957  -11.8626   20.1179 H   0  0  0  0  0  0
  -29.9041  -11.7449   17.6709 H   0  0  0  0  0  0
  -29.5721  -13.4596   17.6533 H   0  0  0  0  0  0
  -28.0256  -11.2747   19.0701 H   0  0  0  0  0  0
  -27.4114  -12.3587   17.8476 H   0  0  0  0  0  0
  -27.5362  -14.2428   19.3375 H   0  0  0  0  0  0
  -28.8061  -12.4806   21.4872 H   0  0  0  0  0  0
  -28.2983  -14.1408   21.7017 H   0  0  0  0  0  0
  -25.2778   -9.5676   22.4766 H   0  0  0  0  0  0
  -24.0006   -7.4634   22.7479 H   0  0  0  0  0  0
  -21.0854   -8.8783   19.8955 H   0  0  0  0  0  0
  -22.3721  -10.9674   19.6168 H   0  0  0  0  0  0
  -21.2013   -7.6150   23.9715 H   0  0  0  0  0  0
  -21.1482   -6.0524   25.9077 H   0  0  0  0  0  0
  -22.0596   -2.7609   23.2847 H   0  0  0  0  0  0
  -22.4045  -11.9843   22.4847 H   0  0  0  0  0  0
  -21.1029  -13.1185   22.2660 H   0  0  0  0  0  0
  -24.6258  -15.8421   20.5205 H   0  0  0  0  0  0
  -26.2320  -15.6374   20.0417 H   0  0  0  0  0  0
  -26.7361  -32.5148   23.0896 H   0  0  0  0  0  0
  -25.0064  -33.9497   25.0200 H   0  0  0  0  0  0
  -22.7848  -31.2686   21.3513 H   0  0  0  0  0  0
  -23.3764  -35.9537   23.3282 H   0  0  0  0  0  0
  -24.3571  -36.8888   22.2067 H   0  0  0  0  0  0
  -23.7244  -37.6393   23.6720 H   0  0  0  0  0  0
  -26.2165  -31.3849   20.6181 H   0  0  0  0  0  0
  -26.9017  -30.6994   22.0510 H   0  0  0  0  0  0
  -28.1501  -28.6308   21.2666 H   0  0  0  0  0  0
  -25.8913  -25.7402   19.0121 H   0  0  0  0  0  0
  -24.0004  -27.2610   18.9635 H   0  0  0  0  0  0
  -23.8654  -30.5213   19.3885 H   0  0  0  0  0  0
  -22.8214  -29.2063   19.8305 H   0  0  0  0  0  0
  -25.1332  -36.1775   25.0792 H   0  0  0  0  0  0
  -21.0031  -28.3352   24.1318 H   0  0  0  0  0  0
  -20.5674  -26.2365   23.3640 H   0  0  0  0  0  0
  -21.6660  -26.7407   22.1211 H   0  0  0  0  0  0
  -19.6929  -25.6274   21.1272 H   0  0  0  0  0  0
  -19.6709  -27.3160   20.6721 H   0  0  0  0  0  0
  -17.4220  -26.6679   21.4027 H   0  0  0  0  0  0
  -18.0350  -26.0092   22.9029 H   0  0  0  0  0  0
  -19.7967  -30.7314   24.2205 H   0  0  0  0  0  0
  -17.5036  -31.6271   24.5164 H   0  0  0  0  0  0
  -15.5374  -30.2970   23.7690 H   0  0  0  0  0  0
  -15.8703  -28.0805   22.7102 H   0  0  0  0  0  0
  -24.5879  -30.7119   25.7670 H   0  0  0  0  0  0
  -24.8863  -32.2980   26.4674 H   0  0  0  0  0  0
  -25.7923  -30.9021   27.0212 H   0  0  0  0  0  0
  -26.3111  -29.6586   24.1405 H   0  0  0  0  0  0
  -27.3974  -29.7272   25.5062 H   0  0  0  0  0  0
  -27.9053  -30.4098   23.9827 H   0  0  0  0  0  0
  -27.2610  -33.3685   26.1965 H   0  0  0  0  0  0
  -28.3917  -32.6849   25.0376 H   0  0  0  0  0  0
  -28.0648  -31.8551   26.5515 H   0  0  0  0  0  0
  -28.2571  -38.0076   24.7509 H   0  0  0  0  0  0
  -28.1084  -36.2602   24.6300 H   0  0  0  0  0  0
  -27.2286  -37.1415   25.8868 H   0  0  0  0  0  0
  -20.9569  -29.8736   21.6682 H   0  0  0  0  0  0
  -26.0131  -38.2768   24.1408 H   0  0  0  0  0  0
  -28.0407  -22.9616   18.3497 H   0  0  0  0  0  0
  -29.6584  -23.2885   18.9969 H   0  0  0  0  0  0
  -29.7260  -23.3439   21.4579 H   0  0  0  0  0  0
  -28.1478  -23.0504   22.2089 H   0  0  0  0  0  0
  -29.8807  -19.4597   22.2291 H   0  0  0  0  0  0
  -28.2528  -19.0664   21.6277 H   0  0  0  0  0  0
  -28.1016  -18.9656   19.2518 H   0  0  0  0  0  0
  -29.6377  -19.2991   18.4178 H   0  0  0  0  0  0
  -31.0027  -18.3014   20.2882 H   0  0  0  0  0  0
  -27.4266  -21.5084   20.3364 H   0  0  0  0  0  0
  -26.9259  -24.1130   20.2980 H   0  0  0  0  0  0
  -28.6942  -16.2583   20.5952 H   0  0  0  0  0  0
  -30.3639  -20.6871   20.2329 H   0  0  0  0  0  0
  1 25  1  0  0  0
  1 30  2  0  0  0
  1 78  1  0  0  0
  2  3  1  0  0  0
  2 25  1  0  0  0
  2 80  1  0  0  0
  2 81  1  0  0  0
  3  4  1  0  0  0
  3 82  1  0  0  0
  3 83  1  0  0  0
  4  5  1  0  0  0
  4 84  1  0  0  0
  4 85  1  0  0  0
  5  6  1  0  0  0
  5 26  1  0  0  0
  5 86  1  0  0  0
  6 25  1  0  0  0
  6 87  1  0  0  0
  6 88  1  0  0  0
  7  8  2  0  0  0
  7 26  1  0  0  0
  7 29  1  0  0  0
  8  9  1  0  0  0
  8 22  1  0  0  0
  9 10  1  0  0  0
  9 27  2  0  0  0
 10 11  2  0  0  0
 10 15  1  0  0  0
 11 12  1  0  0  0
 11 89  1  0  0  0
 12 13  2  0  0  0
 12 90  1  0  0  0
 13 14  1  0  0  0
 13 31  1  0  0  0
 14 15  2  0  0  0
 14 91  1  0  0  0
 15 92  1  0  0  0
 16 17  2  0  0  0
 16 21  1  0  0  0
 16 31  1  0  0  0
 17 18  1  0  0  0
 17 93  1  0  0  0
 18 19  2  0  0  0
 18 94  1  0  0  0
 19 20  1  0  0  0
 19 24  1  0  0  0
 20 21  2  0  0  0
 20 95  1  0  0  0
 21 23  1  0  0  0
 22 28  1  0  0  0
 22 32  2  0  0  0
 26 27  1  0  0  0
 28 96  1  0  0  0
 28 97  1  0  0  0
 29 98  1  0  0  0
 29 99  1  0  0  0
 33 34  1  0  0  0
 33 66  1  0  0  0
 33 70  2  0  0  0
 34 36  1  0  0  0
 34 59  1  0  0  0
 34100  1  0  0  0
 35 44  2  0  0  0
 35 45  1  0  0  0
 35 68  1  0  0  0
 36 56  1  0  0  0
 36101  1  0  0  0
 37 39  1  0  0  0
 37 47  1  0  0  0
 37 66  1  0  0  0
 37102  1  0  0  0
 38 43  2  0  0  0
 38 46  1  0  0  0
 38 47  1  0  0  0
 39 64  1  0  0  0
 39 67  2  0  0  0
 40 52  1  0  0  0
 40 53  2  0  0  0
 40 58  1  0  0  0
 41103  1  0  0  0
 41104  1  0  0  0
 41105  1  0  0  0
 41 48  1  0  0  0
 42 43  1  0  0  0
 42 66  1  0  0  0
 42106  1  0  0  0
 42107  1  0  0  0
 43 44  1  0  0  0
 44108  1  0  0  0
 45 46  2  0  0  0
 45109  1  0  0  0
 46110  1  0  0  0
 47111  1  0  0  0
 47112  1  0  0  0
 48 56  1  0  0  0
 48 65  1  0  0  0
 48113  1  0  0  0
 49 50  1  0  0  0
 49 53  1  0  0  0
 49 64  1  0  0  0
 49114  1  0  0  0
 50 51  1  0  0  0
 50115  1  0  0  0
 50116  1  0  0  0
 51 52  1  0  0  0
 51117  1  0  0  0
 51118  1  0  0  0
 52119  1  0  0  0
 52120  1  0  0  0
 53 54  1  0  0  0
 54 55  2  0  0  0
 54121  1  0  0  0
 55 57  1  0  0  0
 55122  1  0  0  0
 56 69  2  0  0  0
 57 58  2  0  0  0
 57123  1  0  0  0
 58124  1  0  0  0
 59 60  1  0  0  0
 59 61  1  0  0  0
 59 62  1  0  0  0
 60125  1  0  0  0
 60126  1  0  0  0
 60127  1  0  0  0
 61128  1  0  0  0
 61129  1  0  0  0
 61130  1  0  0  0
 62131  1  0  0  0
 62132  1  0  0  0
 62133  1  0  0  0
 63 65  1  0  0  0
 63134  1  0  0  0
 63135  1  0  0  0
 63136  1  0  0  0
 64137  1  0  0  0
 65138  1  0  0  0
 68 77  1  0  0  0
 71 77  1  0  0  0
 71139  1  0  0  0
 71140  1  0  0  0
 71 76  1  0  0  0
 72 76  1  0  0  0
 72 77  1  0  0  0
 72141  1  0  0  0
 72142  1  0  0  0
 73 75  1  0  0  0
 73143  1  0  0  0
 73144  1  0  0  0
 73 79  1  0  0  0
 74 75  1  0  0  0
 74 79  1  0  0  0
 74145  1  0  0  0
 74146  1  0  0  0
 75 78  1  0  0  0
 75147  1  0  0  0
 76 79  1  0  0  0
 76148  1  0  0  0
 77149  1  0  0  0
 78150  1  0  0  0
 79151  1  0  0  0
M  CHG  1  79   1
M  ISO  4   1 100  68 101  77 101  78 100
M  END
> <chiral flag>
0

> <version>
0

> <s_m_source_file>
/data/baiqing/PycharmProjects/Reinvent-master-3.2/result/LINK_invent/BTK/process_docking_weight1_custom_sum_contain_oxygen_bond_distance_aromatic_linkinvent_7_9_3/rearranged_h_0180.sdf

> <i_m_source_file_index>
85

> <r_mmod_Potential_Energy-OPLS-2005>
960.174682617188

> <r_mmod_Stretch_Energy-OPLS-2005>
459.70263671875

> <r_mmod_Bend_Energy-OPLS-2005>
487.568878173828

> <r_mmod_Torsional_Energy-OPLS-2005>
247.37287902832

> <r_mmod_Improper_Torsional_Energy-OPLS-2005>
3.99516010284424

> <r_mmod_Van_der_Waal_Energy-OPLS-2005>
115.464363098145

> <r_mmod_Electrostatic_Energy-OPLS-2005>
-262.5927734375

> <r_mmod_Solvation_Energy-OPLS-2005>
-502.267425537109

> <b_mmod_Minimization_Converged-OPLS-2005>
0

> <r_mmod_RMS_Derivative-OPLS-2005>
0.224798172712326

$$$$
85
                    3D
 Structure written by MMmdl.
152161  0  0  1  0            999 V2000
  -30.4834  -15.1882   20.3469 C   0  0  0  0  0  0
  -30.4305  -12.7531   19.5319 C   0  0  0  0  0  0
  -29.5306  -12.5562   18.2919 C   0  0  0  0  0  0
  -28.0840  -12.2818   18.7263 C   0  0  0  0  0  0
  -27.6087  -13.2694   19.8207 C   0  0  2  0  0  0
  -28.6404  -13.4393   20.9541 C   0  0  0  0  0  0
  -25.2362  -13.8257   20.5754 C   0  0  0  0  0  0
  -24.1677  -13.0455   20.9246 C   0  0  0  0  0  0
  -24.6341  -11.6964   20.8783 C   0  0  0  0  0  0
  -23.9062  -10.4311   21.0430 C   0  0  0  0  0  0
  -24.3616   -9.4221   21.9179 C   0  0  0  0  0  0
  -23.6275   -8.2268   22.0753 C   0  0  0  0  0  0
  -22.4268   -8.0287   21.3542 C   0  0  0  0  0  0
  -21.9899   -9.0280   20.4680 C   0  0  0  0  0  0
  -22.7246  -10.2148   20.3079 C   0  0  0  0  0  0
  -21.6848   -6.0728   22.5274 C   0  0  0  0  0  0
  -21.4032   -6.5629   23.8215 C   0  0  0  0  0  0
  -21.3679   -5.6770   24.9172 C   0  0  0  0  0  0
  -21.6062   -4.3028   24.7207 C   0  0  0  0  0  0
  -21.8828   -3.8129   23.4320 C   0  0  0  0  0  0
  -21.9182   -4.6952   22.3385 C   0  0  0  0  0  0
  -22.7701  -13.5244   21.1881 C   0  0  0  0  0  0
  -22.1650   -4.2137   21.0952 F   0  0  0  0  0  0
  -21.5626   -3.4522   25.7720 F   0  0  0  0  0  0
  -29.8858  -13.9054   20.3290 N   0  0  0  0  0  0
  -26.2773  -12.9505   20.3220 N   0  0  0  0  0  0
  -25.9264  -11.6627   20.5716 N   0  0  0  0  0  0
  -22.0334  -12.8255   22.0465 N   0  0  0  0  0  0
  -25.4015  -15.1984   20.4262 N   0  0  0  0  0  0
  -31.7029  -15.1607   20.1278 O   0  0  0  0  0  0
  -21.6637   -6.8876   21.4240 O   0  0  0  0  0  0
  -22.3396  -14.5517   20.6671 O   0  0  0  0  0  0
  -24.6550  -31.8358   23.1778 C   0  0  0  0  0  0
  -25.9288  -32.4629   23.8185 C   0  0  1  0  0  0
  -27.2060  -27.0099   20.1602 C   0  0  0  0  0  0
  -25.6021  -33.8435   24.2140 N   0  0  0  0  0  0
  -23.4618  -30.4548   21.5246 C   0  0  2  0  0  0
  -24.9113  -28.8562   20.1113 C   0  0  0  0  0  0
  -22.7631  -29.4544   22.4806 C   0  0  0  0  0  0
  -18.0357  -28.1357   22.8502 C   0  0  0  0  0  0
  -24.1505  -36.7219   23.2648 C   0  0  0  0  0  0
  -26.0271  -30.6658   21.3983 C   0  0  0  0  0  0
  -26.0920  -29.2623   20.7434 C   0  0  0  0  0  0
  -27.2383  -28.3584   20.7511 C   0  0  0  0  0  0
  -26.0003  -26.7460   19.4790 C   0  0  0  0  0  0
  -24.8865  -27.6148   19.4578 C   0  0  0  0  0  0
  -23.6966  -29.7802   20.1470 C   0  0  0  0  0  0
  -25.4126  -36.2980   24.0315 C   0  0  1  0  0  0
  -20.5970  -28.3731   23.1197 C   0  0  2  0  0  0
  -20.6810  -26.9412   22.5407 C   0  0  0  0  0  0
  -19.5748  -26.6359   21.5245 C   0  0  0  0  0  0
  -18.1946  -26.7890   22.1673 C   0  0  0  0  0  0
  -19.1612  -28.8859   23.2835 C   0  0  0  0  0  0
  -18.9517  -30.1465   23.8834 C   0  0  0  0  0  0
  -17.6503  -30.6551   24.0563 C   0  0  0  0  0  0
  -25.9080  -34.9380   23.5029 C   0  0  0  0  0  0
  -16.5398  -29.9040   23.6329 C   0  0  0  0  0  0
  -16.7342  -28.6469   23.0333 C   0  0  0  0  0  0
  -26.4558  -31.6501   25.0665 C   0  0  0  0  0  0
  -25.3748  -31.3767   26.1377 C   0  0  0  0  0  0
  -27.0456  -30.2863   24.6359 C   0  0  0  0  0  0
  -27.6053  -32.4297   25.7489 C   0  0  0  0  0  0
  -27.5549  -37.1771   24.8473 C   0  0  0  0  0  0
  -21.4320  -29.3068   22.3558 N   0  0  0  0  0  0
  -26.4266  -37.3706   23.9403 N   0  0  0  0  0  0
  -24.7349  -31.0102   22.0875 N   0  0  0  0  0  0
  -23.4260  -28.8132   23.2988 O   0  0  0  0  0  0
  -28.2171  -25.9376   20.1611 O   0  0  0  0  0  0
  -26.5663  -34.8909   22.4607 O   0  0  0  0  0  0
  -23.5650  -32.1340   23.6924 O   0  0  0  0  0  0
  -29.4005  -23.0187   18.6506 C   0  0  0  0  0  0
  -29.9635  -21.8576   18.0881 C   0  0  0  0  0  0
  -28.7046  -22.9567   19.8653 C   0  0  0  0  0  0
  -29.2509  -20.4399   19.8242 C   0  0  0  0  0  0
  -30.4472  -17.8406   20.9079 C   0  0  0  0  0  0
  -29.0280  -17.3963   19.5418 C   0  0  0  0  0  0
  -29.2731  -18.7904   20.3454 C   0  0  0  0  0  0
  -30.6577  -21.9430   16.7322 C   0  0  0  0  0  0
  -27.8819  -24.3671   20.3725 C   0  0  0  0  0  0
  -29.9040  -20.6285   18.6716 N   0  0  0  0  0  0
  -28.6526  -21.6038   20.4123 N   0  0  0  0  0  0
  -29.8040  -16.4863   20.5164 N   0  0  0  0  0  0
  -31.4582  -12.9261   19.2112 H   0  0  0  0  0  0
  -30.4734  -11.8474   20.1385 H   0  0  0  0  0  0
  -29.9028  -11.7351   17.6786 H   0  0  0  0  0  0
  -29.5578  -13.4420   17.6586 H   0  0  0  0  0  0
  -28.0610  -11.2690   19.1262 H   0  0  0  0  0  0
  -27.4127  -12.2881   17.8667 H   0  0  0  0  0  0
  -27.5338  -14.2359   19.3205 H   0  0  0  0  0  0
  -28.7862  -12.5159   21.5166 H   0  0  0  0  0  0
  -28.2866  -14.1861   21.6657 H   0  0  0  0  0  0
  -25.2759   -9.5670   22.4736 H   0  0  0  0  0  0
  -24.0001   -7.4653   22.7436 H   0  0  0  0  0  0
  -21.0861   -8.8821   19.8954 H   0  0  0  0  0  0
  -22.3740  -10.9685   19.6179 H   0  0  0  0  0  0
  -21.2056   -7.6134   23.9712 H   0  0  0  0  0  0
  -21.1487   -6.0496   25.9084 H   0  0  0  0  0  0
  -22.0582   -2.7582   23.2803 H   0  0  0  0  0  0
  -22.3960  -11.9983   22.4948 H   0  0  0  0  0  0
  -21.0945  -13.1259   22.2641 H   0  0  0  0  0  0
  -24.6310  -15.8489   20.5419 H   0  0  0  0  0  0
  -26.2525  -15.6418   20.1068 H   0  0  0  0  0  0
  -26.7355  -32.5202   23.0910 H   0  0  0  0  0  0
  -25.0191  -33.9531   25.0310 H   0  0  0  0  0  0
  -22.7704  -31.2862   21.3644 H   0  0  0  0  0  0
  -23.3746  -35.9569   23.3303 H   0  0  0  0  0  0
  -24.3607  -36.8851   22.2064 H   0  0  0  0  0  0
  -23.7306  -37.6433   23.6685 H   0  0  0  0  0  0
  -26.1983  -31.4101   20.6193 H   0  0  0  0  0  0
  -26.8914  -30.7178   22.0485 H   0  0  0  0  0  0
  -28.1299  -28.6763   21.2717 H   0  0  0  0  0  0
  -25.8975  -25.8127   18.9485 H   0  0  0  0  0  0
  -23.9961  -27.2990   18.9341 H   0  0  0  0  0  0
  -23.8497  -30.5565   19.3943 H   0  0  0  0  0  0
  -22.8038  -29.2350   19.8309 H   0  0  0  0  0  0
  -25.1327  -36.1753   25.0799 H   0  0  0  0  0  0
  -21.0089  -28.3291   24.1308 H   0  0  0  0  0  0
  -20.5667  -26.2369   23.3650 H   0  0  0  0  0  0
  -21.6658  -26.7360   22.1202 H   0  0  0  0  0  0
  -19.6872  -25.6282   21.1238 H   0  0  0  0  0  0
  -19.6582  -27.3202   20.6785 H   0  0  0  0  0  0
  -17.4212  -26.6698   21.4069 H   0  0  0  0  0  0
  -18.0282  -26.0027   22.9051 H   0  0  0  0  0  0
  -19.8001  -30.7320   24.2104 H   0  0  0  0  0  0
  -17.5061  -31.6212   24.5199 H   0  0  0  0  0  0
  -15.5384  -30.2905   23.7653 H   0  0  0  0  0  0
  -15.8781  -28.0782   22.6981 H   0  0  0  0  0  0
  -24.5926  -30.7068   25.7759 H   0  0  0  0  0  0
  -24.8941  -32.2985   26.4638 H   0  0  0  0  0  0
  -25.8046  -30.9080   27.0237 H   0  0  0  0  0  0
  -26.3121  -29.6517   24.1351 H   0  0  0  0  0  0
  -27.4013  -29.7202   25.4970 H   0  0  0  0  0  0
  -27.9051  -30.4035   23.9762 H   0  0  0  0  0  0
  -27.2595  -33.3651   26.1910 H   0  0  0  0  0  0
  -28.3962  -32.6753   25.0389 H   0  0  0  0  0  0
  -28.0600  -31.8509   26.5537 H   0  0  0  0  0  0
  -28.2571  -38.0056   24.7460 H   0  0  0  0  0  0
  -28.1039  -36.2571   24.6359 H   0  0  0  0  0  0
  -27.2273  -37.1520   25.8886 H   0  0  0  0  0  0
  -20.9504  -29.8844   21.6801 H   0  0  0  0  0  0
  -26.0099  -38.2770   24.1337 H   0  0  0  0  0  0
  -29.4571  -23.9621   18.1202 H   0  0  0  0  0  0
  -31.3975  -18.0357   20.4046 H   0  0  0  0  0  0
  -30.5794  -17.9693   21.9827 H   0  0  0  0  0  0
  -27.9648  -17.1499   19.4607 H   0  0  0  0  0  0
  -29.4653  -17.4215   18.5415 H   0  0  0  0  0  0
  -28.5169  -18.8023   21.1291 H   0  0  0  0  0  0
  -30.7393  -20.9689   16.2479 H   0  0  0  0  0  0
  -31.6598  -22.3617   16.8263 H   0  0  0  0  0  0
  -30.0981  -22.5905   16.0536 H   0  0  0  0  0  0
  -27.7530  -24.2488   21.4471 H   0  0  0  0  0  0
  -26.8812  -24.2079   19.9783 H   0  0  0  0  0  0
  1 25  1  0  0  0
  1 30  2  0  0  0
  1 82  1  0  0  0
  2  3  1  0  0  0
  2 25  1  0  0  0
  2 83  1  0  0  0
  2 84  1  0  0  0
  3  4  1  0  0  0
  3 85  1  0  0  0
  3 86  1  0  0  0
  4  5  1  0  0  0
  4 87  1  0  0  0
  4 88  1  0  0  0
  5  6  1  0  0  0
  5 26  1  0  0  0
  5 89  1  0  0  0
  6 25  1  0  0  0
  6 90  1  0  0  0
  6 91  1  0  0  0
  7  8  2  0  0  0
  7 26  1  0  0  0
  7 29  1  0  0  0
  8  9  1  0  0  0
  8 22  1  0  0  0
  9 10  1  0  0  0
  9 27  2  0  0  0
 10 11  2  0  0  0
 10 15  1  0  0  0
 11 12  1  0  0  0
 11 92  1  0  0  0
 12 13  2  0  0  0
 12 93  1  0  0  0
 13 14  1  0  0  0
 13 31  1  0  0  0
 14 15  2  0  0  0
 14 94  1  0  0  0
 15 95  1  0  0  0
 16 17  2  0  0  0
 16 21  1  0  0  0
 16 31  1  0  0  0
 17 18  1  0  0  0
 17 96  1  0  0  0
 18 19  2  0  0  0
 18 97  1  0  0  0
 19 20  1  0  0  0
 19 24  1  0  0  0
 20 21  2  0  0  0
 20 98  1  0  0  0
 21 23  1  0  0  0
 22 28  1  0  0  0
 22 32  2  0  0  0
 26 27  1  0  0  0
 28 99  1  0  0  0
 28100  1  0  0  0
 29101  1  0  0  0
 29102  1  0  0  0
 33 34  1  0  0  0
 33 66  1  0  0  0
 33 70  2  0  0  0
 34 36  1  0  0  0
 34 59  1  0  0  0
 34103  1  0  0  0
 35 44  2  0  0  0
 35 45  1  0  0  0
 35 68  1  0  0  0
 36 56  1  0  0  0
 36104  1  0  0  0
 37 39  1  0  0  0
 37 47  1  0  0  0
 37 66  1  0  0  0
 37105  1  0  0  0
 38 43  2  0  0  0
 38 46  1  0  0  0
 38 47  1  0  0  0
 39 64  1  0  0  0
 39 67  2  0  0  0
 40 52  1  0  0  0
 40 53  2  0  0  0
 40 58  1  0  0  0
 41106  1  0  0  0
 41107  1  0  0  0
 41108  1  0  0  0
 41 48  1  0  0  0
 42 43  1  0  0  0
 42 66  1  0  0  0
 42109  1  0  0  0
 42110  1  0  0  0
 43 44  1  0  0  0
 44111  1  0  0  0
 45 46  2  0  0  0
 45112  1  0  0  0
 46113  1  0  0  0
 47114  1  0  0  0
 47115  1  0  0  0
 48 56  1  0  0  0
 48 65  1  0  0  0
 48116  1  0  0  0
 49 50  1  0  0  0
 49 53  1  0  0  0
 49 64  1  0  0  0
 49117  1  0  0  0
 50 51  1  0  0  0
 50118  1  0  0  0
 50119  1  0  0  0
 51 52  1  0  0  0
 51120  1  0  0  0
 51121  1  0  0  0
 52122  1  0  0  0
 52123  1  0  0  0
 53 54  1  0  0  0
 54 55  2  0  0  0
 54124  1  0  0  0
 55 57  1  0  0  0
 55125  1  0  0  0
 56 69  2  0  0  0
 57 58  2  0  0  0
 57126  1  0  0  0
 58127  1  0  0  0
 59 60  1  0  0  0
 59 61  1  0  0  0
 59 62  1  0  0  0
 60128  1  0  0  0
 60129  1  0  0  0
 60130  1  0  0  0
 61131  1  0  0  0
 61132  1  0  0  0
 61133  1  0  0  0
 62134  1  0  0  0
 62135  1  0  0  0
 62136  1  0  0  0
 63 65  1  0  0  0
 63137  1  0  0  0
 63138  1  0  0  0
 63139  1  0  0  0
 64140  1  0  0  0
 65141  1  0  0  0
 68 79  1  0  0  0
 71 72  2  0  0  0
 71 73  1  0  0  0
 71142  1  0  0  0
 72 78  1  0  0  0
 72 80  1  0  0  0
 73 79  1  0  0  0
 73 81  2  0  0  0
 74 80  2  0  0  0
 74 81  1  0  0  0
 74 77  1  0  0  0
 75 77  1  0  0  0
 75 82  1  0  0  0
 75143  1  0  0  0
 75144  1  0  0  0
 76 77  1  0  0  0
 76 82  1  0  0  0
 76145  1  0  0  0
 76146  1  0  0  0
 77147  1  0  0  0
 78148  1  0  0  0
 78149  1  0  0  0
 78150  1  0  0  0
 79151  1  0  0  0
 79152  1  0  0  0
M  ISO  4   1 100  68 101  79 101  82 100
M  END
> <chiral flag>
0

> <version>
0

> <s_m_source_file>
/data/baiqing/PycharmProjects/Reinvent-master-3.2/result/LINK_invent/BTK/process_docking_weight1_custom_sum_contain_oxygen_bond_distance_aromatic_linkinvent_7_9_3/rearranged_h_0180.sdf

> <i_m_source_file_index>
86

> <r_mmod_Potential_Energy-OPLS-2005>
611.597839355469

> <r_mmod_Stretch_Energy-OPLS-2005>
408.915161132812

> <r_mmod_Bend_Energy-OPLS-2005>
369.308410644531

> <r_mmod_Torsional_Energy-OPLS-2005>
269.096282958984

> <r_mmod_Improper_Torsional_Energy-OPLS-2005>
9.23587036132812

> <r_mmod_Van_der_Waal_Energy-OPLS-2005>
128.629913330078

> <r_mmod_Electrostatic_Energy-OPLS-2005>
-696.102355957031

> <r_mmod_Solvation_Energy-OPLS-2005>
-243.693145751953

> <b_mmod_Minimization_Converged-OPLS-2005>
0

> <r_mmod_RMS_Derivative-OPLS-2005>
5.41733837127686

$$$$
86
                    3D
 Structure written by MMmdl.
156165  0  0  1  0            999 V2000
  -30.6659  -14.6053   20.5452 C   0  0  0  0  0  0
  -30.4094  -12.3850   19.4527 C   0  0  0  0  0  0
  -29.4831  -12.5231   18.2257 C   0  0  0  0  0  0
  -28.0125  -12.3515   18.6474 C   0  0  0  0  0  0
  -27.6417  -13.2203   19.8778 C   0  0  2  0  0  0
  -28.6879  -13.0871   21.0062 C   0  0  0  0  0  0
  -25.2473  -13.8145   20.5805 C   0  0  0  0  0  0
  -24.1754  -13.0387   20.9244 C   0  0  0  0  0  0
  -24.6332  -11.6867   20.8773 C   0  0  0  0  0  0
  -23.8993  -10.4252   21.0423 C   0  0  0  0  0  0
  -24.3557   -9.4172   21.9174 C   0  0  0  0  0  0
  -23.6258   -8.2197   22.0719 C   0  0  0  0  0  0
  -22.4232   -8.0235   21.3526 C   0  0  0  0  0  0
  -21.9868   -9.0184   20.4612 C   0  0  0  0  0  0
  -22.7184  -10.2076   20.3051 C   0  0  0  0  0  0
  -21.6844   -6.0684   22.5277 C   0  0  0  0  0  0
  -21.4029   -6.5616   23.8201 C   0  0  0  0  0  0
  -21.3682   -5.6787   24.9174 C   0  0  0  0  0  0
  -21.6028   -4.3037   24.7256 C   0  0  0  0  0  0
  -21.8813   -3.8112   23.4383 C   0  0  0  0  0  0
  -21.9182   -4.6912   22.3417 C   0  0  0  0  0  0
  -22.7784  -13.5159   21.1891 C   0  0  0  0  0  0
  -22.1651   -4.2094   21.0997 F   0  0  0  0  0  0
  -21.5643   -3.4527   25.7778 F   0  0  0  0  0  0
  -30.0022  -13.4104   20.4370 N   0  0  0  0  0  0
  -26.2918  -12.9331   20.3456 N   0  0  0  0  0  0
  -25.9278  -11.6483   20.5815 N   0  0  0  0  0  0
  -22.0467  -12.8089   22.0434 N   0  0  0  0  0  0
  -25.4191  -15.1858   20.4279 N   0  0  0  0  0  0
  -31.8156  -14.7287   20.1159 O   0  0  0  0  0  0
  -21.6616   -6.8813   21.4217 O   0  0  0  0  0  0
  -22.3459  -14.5473   20.6776 O   0  0  0  0  0  0
  -24.6223  -31.8633   23.2020 C   0  0  0  0  0  0
  -25.9061  -32.4811   23.8360 C   0  0  1  0  0  0
  -27.2319  -27.3352   20.1119 C   0  0  0  0  0  0
  -25.5890  -33.8614   24.2284 N   0  0  0  0  0  0
  -23.4161  -30.4869   21.5441 C   0  0  2  0  0  0
  -24.8653  -28.9432   20.1094 C   0  0  0  0  0  0
  -22.7442  -29.4652   22.4922 C   0  0  0  0  0  0
  -18.0289  -28.1375   22.8510 C   0  0  0  0  0  0
  -24.1493  -36.7307   23.2640 C   0  0  0  0  0  0
  -25.9542  -30.8005   21.3706 C   0  0  0  0  0  0
  -26.0294  -29.4258   20.7155 C   0  0  0  0  0  0
  -27.2115  -28.6311   20.7139 C   0  0  0  0  0  0
  -26.0336  -26.8909   19.5066 C   0  0  0  0  0  0
  -24.8680  -27.6805   19.4966 C   0  0  0  0  0  0
  -23.6308  -29.8202   20.1608 C   0  0  0  0  0  0
  -25.4129  -36.3124   24.0326 C   0  0  1  0  0  0
  -20.5892  -28.3710   23.1289 C   0  0  2  0  0  0
  -20.6775  -26.9432   22.5422 C   0  0  0  0  0  0
  -19.5742  -26.6391   21.5237 C   0  0  0  0  0  0
  -18.1920  -26.7924   22.1638 C   0  0  0  0  0  0
  -19.1539  -28.8854   23.2905 C   0  0  0  0  0  0
  -18.9460  -30.1453   23.8928 C   0  0  0  0  0  0
  -17.6459  -30.6600   24.0573 C   0  0  0  0  0  0
  -25.9064  -34.9483   23.5118 C   0  0  0  0  0  0
  -16.5359  -29.9099   23.6315 C   0  0  0  0  0  0
  -16.7274  -28.6500   23.0373 C   0  0  0  0  0  0
  -26.4459  -31.6601   25.0705 C   0  0  0  0  0  0
  -25.3680  -31.3706   26.1413 C   0  0  0  0  0  0
  -27.0289  -30.3034   24.6109 C   0  0  0  0  0  0
  -27.6037  -32.4315   25.7460 C   0  0  0  0  0  0
  -27.5594  -37.1813   24.8459 C   0  0  0  0  0  0
  -21.4166  -29.3055   22.3663 N   0  0  0  0  0  0
  -26.4309  -37.3813   23.9403 N   0  0  0  0  0  0
  -24.6819  -31.0659   22.0972 N   0  0  0  0  0  0
  -23.4186  -28.8204   23.3009 O   0  0  0  0  0  0
  -28.3785  -26.5306   20.1750 O   0  0  0  0  0  0
  -26.5651  -34.8931   22.4698 O   0  0  0  0  0  0
  -23.5388  -32.1418   23.7373 O   0  0  0  0  0  0
  -28.4711  -22.6030   19.5258 C   0  0  0  0  0  0
  -28.7373  -23.9171   20.0588 C   0  0  0  0  0  0
  -29.0573  -21.6732   20.3632 C   0  0  0  0  0  0
  -28.9788  -16.5605   20.5811 C   0  0  0  0  0  0
  -30.6980  -16.8622   21.7032 C   0  0  0  0  0  0
  -29.9300  -17.7771   20.7239 C   0  0  0  0  0  0
  -30.3602  -22.0643   22.5782 C   0  0  0  0  0  0
  -28.5302  -25.3052   19.3674 C   0  0  0  0  0  0
  -29.5068  -19.2267   21.2186 C   0  0  0  0  0  0
  -29.3972  -23.7860   21.2055 N   0  0  0  0  0  0
  -29.5952  -22.4449   21.4020 N   0  0  0  0  0  0
  -30.0280  -15.6685   21.1409 N   0  0  0  0  0  0
  -29.1537  -20.2475   20.1913 N   0  0  0  0  0  0
  -31.4540  -12.4893   19.1574 H   0  0  0  0  0  0
  -30.3153  -11.3893   19.8928 H   0  0  0  0  0  0
  -29.7351  -11.7864   17.4615 H   0  0  0  0  0  0
  -29.6203  -13.5030   17.7662 H   0  0  0  0  0  0
  -27.8570  -11.2981   18.8784 H   0  0  0  0  0  0
  -27.3537  -12.5812   17.8074 H   0  0  0  0  0  0
  -27.6455  -14.2529   19.5328 H   0  0  0  0  0  0
  -28.7011  -12.0742   21.4117 H   0  0  0  0  0  0
  -28.4382  -13.7375   21.8443 H   0  0  0  0  0  0
  -25.2705   -9.5637   22.4751 H   0  0  0  0  0  0
  -23.9972   -7.4579   22.7414 H   0  0  0  0  0  0
  -21.0818   -8.8700   19.8881 H   0  0  0  0  0  0
  -22.3650  -10.9616   19.6170 H   0  0  0  0  0  0
  -21.2031   -7.6130   23.9685 H   0  0  0  0  0  0
  -21.1538   -6.0542   25.9081 H   0  0  0  0  0  0
  -22.0571   -2.7566   23.2932 H   0  0  0  0  0  0
  -22.4206  -11.9780   22.4796 H   0  0  0  0  0  0
  -21.1048  -13.1006   22.2671 H   0  0  0  0  0  0
  -24.6566  -15.8443   20.5285 H   0  0  0  0  0  0
  -26.2775  -15.6200   20.1191 H   0  0  0  0  0  0
  -26.7126  -32.5501   23.1120 H   0  0  0  0  0  0
  -24.9988  -33.9781   25.0392 H   0  0  0  0  0  0
  -22.7068  -31.3061   21.4027 H   0  0  0  0  0  0
  -23.3788  -35.9606   23.3306 H   0  0  0  0  0  0
  -24.3594  -36.8939   22.2056 H   0  0  0  0  0  0
  -23.7202  -37.6484   23.6671 H   0  0  0  0  0  0
  -26.0764  -31.5643   20.6017 H   0  0  0  0  0  0
  -26.8373  -30.8601   21.9955 H   0  0  0  0  0  0
  -28.1035  -29.0033   21.1973 H   0  0  0  0  0  0
  -25.9475  -25.9121   19.0675 H   0  0  0  0  0  0
  -23.9666  -27.3042   19.0325 H   0  0  0  0  0  0
  -23.7402  -30.5966   19.4016 H   0  0  0  0  0  0
  -22.7538  -29.2430   19.8624 H   0  0  0  0  0  0
  -25.1312  -36.2003   25.0813 H   0  0  0  0  0  0
  -20.9994  -28.3310   24.1412 H   0  0  0  0  0  0
  -20.5734  -26.2316   23.3636 H   0  0  0  0  0  0
  -21.6640  -26.7471   22.1207 H   0  0  0  0  0  0
  -19.6925  -25.6311   21.1249 H   0  0  0  0  0  0
  -19.6677  -27.3218   20.6785 H   0  0  0  0  0  0
  -17.4207  -26.6720   21.4022 H   0  0  0  0  0  0
  -18.0299  -26.0050   22.9003 H   0  0  0  0  0  0
  -19.7939  -30.7258   24.2319 H   0  0  0  0  0  0
  -17.5021  -31.6283   24.5168 H   0  0  0  0  0  0
  -15.5359  -30.3027   23.7602 H   0  0  0  0  0  0
  -15.8677  -28.0822   22.7093 H   0  0  0  0  0  0
  -24.5868  -30.7063   25.7694 H   0  0  0  0  0  0
  -24.8847  -32.2858   26.4836 H   0  0  0  0  0  0
  -25.7980  -30.8850   27.0183 H   0  0  0  0  0  0
  -26.2840  -29.6803   24.1139 H   0  0  0  0  0  0
  -27.4026  -29.7259   25.4579 H   0  0  0  0  0  0
  -27.8692  -30.4346   23.9288 H   0  0  0  0  0  0
  -27.2679  -33.3627   26.2035 H   0  0  0  0  0  0
  -28.3827  -32.6863   25.0257 H   0  0  0  0  0  0
  -28.0719  -31.8429   26.5362 H   0  0  0  0  0  0
  -28.2608  -38.0119   24.7568 H   0  0  0  0  0  0
  -28.1106  -36.2664   24.6240 H   0  0  0  0  0  0
  -27.2314  -37.1391   25.8858 H   0  0  0  0  0  0
  -20.9346  -29.8754   21.6860 H   0  0  0  0  0  0
  -26.0212  -38.2889   24.1435 H   0  0  0  0  0  0
  -27.9740  -22.3753   18.5935 H   0  0  0  0  0  0
  -28.6906  -16.3448   19.5504 H   0  0  0  0  0  0
  -28.0981  -16.6347   21.2202 H   0  0  0  0  0  0
  -30.4378  -17.0448   22.7477 H   0  0  0  0  0  0
  -31.7793  -16.8974   21.5700 H   0  0  0  0  0  0
  -30.5328  -17.8473   19.8158 H   0  0  0  0  0  0
  -31.3462  -21.6988   22.2804 H   0  0  0  0  0  0
  -29.8340  -21.2930   23.1398 H   0  0  0  0  0  0
  -30.5004  -22.9230   23.2435 H   0  0  0  0  0  0
  -27.8063  -25.2242   18.5633 H   0  0  0  0  0  0
  -29.4500  -25.4994   18.8134 H   0  0  0  0  0  0
  -30.3457  -19.6115   21.7923 H   0  0  0  0  0  0
  -28.6782  -19.1410   21.9235 H   0  0  0  0  0  0
  -28.7165  -19.8805   19.3506 H   0  0  0  0  0  0
  1 25  1  0  0  0
  1 30  2  0  0  0
  1 82  1  0  0  0
  2  3  1  0  0  0
  2 25  1  0  0  0
  2 84  1  0  0  0
  2 85  1  0  0  0
  3  4  1  0  0  0
  3 86  1  0  0  0
  3 87  1  0  0  0
  4  5  1  0  0  0
  4 88  1  0  0  0
  4 89  1  0  0  0
  5  6  1  0  0  0
  5 26  1  0  0  0
  5 90  1  0  0  0
  6 25  1  0  0  0
  6 91  1  0  0  0
  6 92  1  0  0  0
  7  8  2  0  0  0
  7 26  1  0  0  0
  7 29  1  0  0  0
  8  9  1  0  0  0
  8 22  1  0  0  0
  9 10  1  0  0  0
  9 27  2  0  0  0
 10 11  2  0  0  0
 10 15  1  0  0  0
 11 12  1  0  0  0
 11 93  1  0  0  0
 12 13  2  0  0  0
 12 94  1  0  0  0
 13 14  1  0  0  0
 13 31  1  0  0  0
 14 15  2  0  0  0
 14 95  1  0  0  0
 15 96  1  0  0  0
 16 17  2  0  0  0
 16 21  1  0  0  0
 16 31  1  0  0  0
 17 18  1  0  0  0
 17 97  1  0  0  0
 18 19  2  0  0  0
 18 98  1  0  0  0
 19 20  1  0  0  0
 19 24  1  0  0  0
 20 21  2  0  0  0
 20 99  1  0  0  0
 21 23  1  0  0  0
 22 28  1  0  0  0
 22 32  2  0  0  0
 26 27  1  0  0  0
 28100  1  0  0  0
 28101  1  0  0  0
 29102  1  0  0  0
 29103  1  0  0  0
 33 34  1  0  0  0
 33 66  1  0  0  0
 33 70  2  0  0  0
 34 36  1  0  0  0
 34 59  1  0  0  0
 34104  1  0  0  0
 35 44  2  0  0  0
 35 45  1  0  0  0
 35 68  1  0  0  0
 36 56  1  0  0  0
 36105  1  0  0  0
 37 39  1  0  0  0
 37 47  1  0  0  0
 37 66  1  0  0  0
 37106  1  0  0  0
 38 43  2  0  0  0
 38 46  1  0  0  0
 38 47  1  0  0  0
 39 64  1  0  0  0
 39 67  2  0  0  0
 40 52  1  0  0  0
 40 53  2  0  0  0
 40 58  1  0  0  0
 41107  1  0  0  0
 41108  1  0  0  0
 41109  1  0  0  0
 41 48  1  0  0  0
 42 43  1  0  0  0
 42 66  1  0  0  0
 42110  1  0  0  0
 42111  1  0  0  0
 43 44  1  0  0  0
 44112  1  0  0  0
 45 46  2  0  0  0
 45113  1  0  0  0
 46114  1  0  0  0
 47115  1  0  0  0
 47116  1  0  0  0
 48 56  1  0  0  0
 48 65  1  0  0  0
 48117  1  0  0  0
 49 50  1  0  0  0
 49 53  1  0  0  0
 49 64  1  0  0  0
 49118  1  0  0  0
 50 51  1  0  0  0
 50119  1  0  0  0
 50120  1  0  0  0
 51 52  1  0  0  0
 51121  1  0  0  0
 51122  1  0  0  0
 52123  1  0  0  0
 52124  1  0  0  0
 53 54  1  0  0  0
 54 55  2  0  0  0
 54125  1  0  0  0
 55 57  1  0  0  0
 55126  1  0  0  0
 56 69  2  0  0  0
 57 58  2  0  0  0
 57127  1  0  0  0
 58128  1  0  0  0
 59 60  1  0  0  0
 59 61  1  0  0  0
 59 62  1  0  0  0
 60129  1  0  0  0
 60130  1  0  0  0
 60131  1  0  0  0
 61132  1  0  0  0
 61133  1  0  0  0
 61134  1  0  0  0
 62135  1  0  0  0
 62136  1  0  0  0
 62137  1  0  0  0
 63 65  1  0  0  0
 63138  1  0  0  0
 63139  1  0  0  0
 63140  1  0  0  0
 64141  1  0  0  0
 65142  1  0  0  0
 68 78  1  0  0  0
 71 72  1  0  0  0
 71 73  2  0  0  0
 71143  1  0  0  0
 72 78  1  0  0  0
 72 80  2  0  0  0
 73 81  1  0  0  0
 73 83  1  0  0  0
 74 76  1  0  0  0
 74 82  1  0  0  0
 74144  1  0  0  0
 74145  1  0  0  0
 75 76  1  0  0  0
 75 82  1  0  0  0
 75146  1  0  0  0
 75147  1  0  0  0
 76 79  1  0  0  0
 76148  1  0  0  0
 77 81  1  0  0  0
 77149  1  0  0  0
 77150  1  0  0  0
 77151  1  0  0  0
 78152  1  0  0  0
 78153  1  0  0  0
 79 83  1  0  0  0
 79154  1  0  0  0
 79155  1  0  0  0
 80 81  1  0  0  0
 83156  1  0  0  0
M  ISO  4   1 100  68 101  78 101  82 100
M  END
> <chiral flag>
0

> <version>
0

> <s_m_source_file>
/data/baiqing/PycharmProjects/Reinvent-master-3.2/result/LINK_invent/BTK/process_docking_weight1_custom_sum_contain_oxygen_bond_distance_aromatic_linkinvent_7_9_3/rearranged_h_0180.sdf

> <i_m_source_file_index>
87

> <r_mmod_Potential_Energy-OPLS-2005>
105.74291229248

> <r_mmod_Stretch_Energy-OPLS-2005>
71.2432556152344

> <r_mmod_Bend_Energy-OPLS-2005>
165.666229248047

> <r_mmod_Torsional_Energy-OPLS-2005>
275.678497314453

> <r_mmod_Improper_Torsional_Energy-OPLS-2005>
9.43628311157227

> <r_mmod_Van_der_Waal_Energy-OPLS-2005>
124.548652648926

> <r_mmod_Electrostatic_Energy-OPLS-2005>
-339.426788330078

> <r_mmod_Solvation_Energy-OPLS-2005>
-240.066452026367

> <b_mmod_Minimization_Converged-OPLS-2005>
0

> <r_mmod_RMS_Derivative-OPLS-2005>
5.09424877166748

$$$$
87
                    3D
 Structure written by MMmdl.
154163  0  0  1  0            999 V2000
  -30.5774  -14.8892   20.4303 C   0  0  0  0  0  0
  -30.4330  -12.5518   19.4868 C   0  0  0  0  0  0
  -29.5138  -12.5178   18.2458 C   0  0  0  0  0  0
  -28.0455  -12.3168   18.6653 C   0  0  0  0  0  0
  -27.6294  -13.2452   19.8369 C   0  0  2  0  0  0
  -28.6739  -13.2597   20.9723 C   0  0  0  0  0  0
  -25.2460  -13.8213   20.5707 C   0  0  0  0  0  0
  -24.1777  -13.0438   20.9230 C   0  0  0  0  0  0
  -24.6390  -11.6923   20.8758 C   0  0  0  0  0  0
  -23.9076  -10.4292   21.0410 C   0  0  0  0  0  0
  -24.3625   -9.4206   21.9185 C   0  0  0  0  0  0
  -23.6298   -8.2242   22.0753 C   0  0  0  0  0  0
  -22.4280   -8.0281   21.3545 C   0  0  0  0  0  0
  -21.9918   -9.0255   20.4646 C   0  0  0  0  0  0
  -22.7249  -10.2133   20.3057 C   0  0  0  0  0  0
  -21.6854   -6.0736   22.5279 C   0  0  0  0  0  0
  -21.4015   -6.5640   23.8212 C   0  0  0  0  0  0
  -21.3659   -5.6793   24.9175 C   0  0  0  0  0  0
  -21.6045   -4.3056   24.7225 C   0  0  0  0  0  0
  -21.8819   -3.8147   23.4346 C   0  0  0  0  0  0
  -21.9194   -4.6964   22.3403 C   0  0  0  0  0  0
  -22.7797  -13.5209   21.1886 C   0  0  0  0  0  0
  -22.1662   -4.2150   21.0980 F   0  0  0  0  0  0
  -21.5628   -3.4539   25.7737 F   0  0  0  0  0  0
  -29.9533  -13.6500   20.3693 N   0  0  0  0  0  0
  -26.2882  -12.9442   20.3242 N   0  0  0  0  0  0
  -25.9320  -11.6573   20.5742 N   0  0  0  0  0  0
  -22.0450  -12.8192   22.0440 N   0  0  0  0  0  0
  -25.4119  -15.1940   20.4116 N   0  0  0  0  0  0
  -31.7857  -14.9330   20.1811 O   0  0  0  0  0  0
  -21.6643   -6.8879   21.4241 O   0  0  0  0  0  0
  -22.3479  -14.5512   20.6731 O   0  0  0  0  0  0
  -24.6411  -31.8467   23.1902 C   0  0  0  0  0  0
  -25.9195  -32.4709   23.8280 C   0  0  1  0  0  0
  -27.2148  -27.1624   20.1456 C   0  0  0  0  0  0
  -25.5954  -33.8513   24.2199 N   0  0  0  0  0  0
  -23.4426  -30.4673   21.5359 C   0  0  2  0  0  0
  -24.8902  -28.8981   20.1117 C   0  0  0  0  0  0
  -22.7553  -29.4563   22.4873 C   0  0  0  0  0  0
  -18.0302  -28.1397   22.8481 C   0  0  0  0  0  0
  -24.1492  -36.7258   23.2642 C   0  0  0  0  0  0
  -25.9970  -30.7292   21.3843 C   0  0  0  0  0  0
  -26.0678  -29.3430   20.7255 C   0  0  0  0  0  0
  -27.2325  -28.4917   20.7236 C   0  0  0  0  0  0
  -26.0092  -26.8108   19.4989 C   0  0  0  0  0  0
  -24.8722  -27.6447   19.4838 C   0  0  0  0  0  0
  -23.6665  -29.7979   20.1546 C   0  0  0  0  0  0
  -25.4124  -36.3040   24.0317 C   0  0  1  0  0  0
  -20.5913  -28.3719   23.1244 C   0  0  2  0  0  0
  -20.6788  -26.9426   22.5406 C   0  0  0  0  0  0
  -19.5761  -26.6386   21.5214 C   0  0  0  0  0  0
  -18.1942  -26.7936   22.1626 C   0  0  0  0  0  0
  -19.1558  -28.8876   23.2856 C   0  0  0  0  0  0
  -18.9475  -30.1472   23.8880 C   0  0  0  0  0  0
  -17.6472  -30.6594   24.0561 C   0  0  0  0  0  0
  -25.9074  -34.9415   23.5066 C   0  0  0  0  0  0
  -16.5362  -29.9089   23.6336 C   0  0  0  0  0  0
  -16.7287  -28.6507   23.0358 C   0  0  0  0  0  0
  -26.4523  -31.6570   25.0713 C   0  0  0  0  0  0
  -25.3713  -31.3753   26.1410 C   0  0  0  0  0  0
  -27.0385  -30.2970   24.6277 C   0  0  0  0  0  0
  -27.6055  -32.4333   25.7500 C   0  0  0  0  0  0
  -27.5575  -37.1788   24.8467 C   0  0  0  0  0  0
  -21.4248  -29.3050   22.3619 N   0  0  0  0  0  0
  -26.4288  -37.3751   23.9407 N   0  0  0  0  0  0
  -24.7134  -31.0348   22.0922 N   0  0  0  0  0  0
  -23.4208  -28.8110   23.3014 O   0  0  0  0  0  0
  -28.2823  -26.2024   20.2004 O   0  0  0  0  0  0
  -26.5656  -34.8909   22.4642 O   0  0  0  0  0  0
  -23.5538  -32.1331   23.7141 O   0  0  0  0  0  0
  -29.9168  -21.2066   19.4621 C   0  0  0  0  0  0
  -29.0348  -21.8754   20.3328 C   0  0  0  0  0  0
  -29.6651  -19.0271   20.4307 C   0  0  0  0  0  0
  -28.7700  -19.7193   21.3435 C   0  0  0  0  0  0
  -30.6873  -22.2055   18.6387 C   0  0  0  0  0  0
  -30.1375  -23.6097   19.0425 C   0  0  0  0  0  0
  -29.1900  -23.4962   20.2752 C   0  0  1  0  0  0
  -30.3820  -17.5554   20.6459 C   0  0  0  0  0  0
  -28.0146  -24.6749   20.1690 C   0  0  0  0  0  0
  -30.2226  -19.8523   19.4743 N   0  0  0  0  0  0
  -28.4656  -21.0842   21.3035 N   0  0  0  0  0  0
  -28.1992  -19.0513   22.4166 N   0  0  0  0  0  0
  -29.8399  -16.0878   20.5658 N   0  0  0  0  0  0
  -31.4690  -12.6953   19.1762 H   0  0  0  0  0  0
  -30.4096  -11.5969   20.0144 H   0  0  0  0  0  0
  -29.8219  -11.7218   17.5667 H   0  0  0  0  0  0
  -29.6125  -13.4514   17.6895 H   0  0  0  0  0  0
  -27.9312  -11.2743   18.9644 H   0  0  0  0  0  0
  -27.3828  -12.4623   17.8113 H   0  0  0  0  0  0
  -27.5973  -14.2504   19.4159 H   0  0  0  0  0  0
  -28.7483  -12.2832   21.4528 H   0  0  0  0  0  0
  -28.3856  -13.9680   21.7507 H   0  0  0  0  0  0
  -25.2768   -9.5683   22.4764 H   0  0  0  0  0  0
  -24.0008   -7.4632   22.7470 H   0  0  0  0  0  0
  -21.0850   -8.8775   19.8948 H   0  0  0  0  0  0
  -22.3707  -10.9674   19.6168 H   0  0  0  0  0  0
  -21.2007   -7.6148   23.9716 H   0  0  0  0  0  0
  -21.1482   -6.0523   25.9078 H   0  0  0  0  0  0
  -22.0598   -2.7609   23.2846 H   0  0  0  0  0  0
  -22.4078  -11.9858   22.4828 H   0  0  0  0  0  0
  -21.1063  -13.1203   22.2645 H   0  0  0  0  0  0
  -24.6401  -15.8430   20.5201 H   0  0  0  0  0  0
  -26.2491  -15.6341   20.0529 H   0  0  0  0  0  0
  -26.7260  -32.5322   23.1009 H   0  0  0  0  0  0
  -25.0087  -33.9633   25.0337 H   0  0  0  0  0  0
  -22.7441  -31.2927   21.3836 H   0  0  0  0  0  0
  -23.3758  -35.9586   23.3301 H   0  0  0  0  0  0
  -24.3577  -36.8894   22.2057 H   0  0  0  0  0  0
  -23.7243  -37.6452   23.6680 H   0  0  0  0  0  0
  -26.1499  -31.4854   20.6131 H   0  0  0  0  0  0
  -26.8686  -30.7778   22.0254 H   0  0  0  0  0  0
  -28.1319  -28.8290   21.2192 H   0  0  0  0  0  0
  -25.9082  -25.8563   19.0074 H   0  0  0  0  0  0
  -23.9725  -27.2992   18.9930 H   0  0  0  0  0  0
  -23.8019  -30.5727   19.3991 H   0  0  0  0  0  0
  -22.7815  -29.2393   19.8448 H   0  0  0  0  0  0
  -25.1312  -36.1869   25.0809 H   0  0  0  0  0  0
  -21.0005  -28.3308   24.1366 H   0  0  0  0  0  0
  -20.5684  -26.2333   23.3623 H   0  0  0  0  0  0
  -21.6654  -26.7439   22.1201 H   0  0  0  0  0  0
  -19.6923  -25.6292   21.1257 H   0  0  0  0  0  0
  -19.6697  -27.3186   20.6735 H   0  0  0  0  0  0
  -17.4211  -26.6682   21.4030 H   0  0  0  0  0  0
  -18.0340  -26.0082   22.9026 H   0  0  0  0  0  0
  -19.7950  -30.7294   24.2241 H   0  0  0  0  0  0
  -17.5026  -31.6272   24.5168 H   0  0  0  0  0  0
  -15.5362  -30.2984   23.7673 H   0  0  0  0  0  0
  -15.8688  -28.0819   22.7084 H   0  0  0  0  0  0
  -24.5900  -30.7092   25.7731 H   0  0  0  0  0  0
  -24.8891  -32.2933   26.4779 H   0  0  0  0  0  0
  -25.7999  -30.8965   27.0224 H   0  0  0  0  0  0
  -26.2997  -29.6697   24.1276 H   0  0  0  0  0  0
  -27.4001  -29.7263   25.4840 H   0  0  0  0  0  0
  -27.8904  -30.4214   23.9587 H   0  0  0  0  0  0
  -27.2646  -33.3649   26.2028 H   0  0  0  0  0  0
  -28.3892  -32.6867   25.0348 H   0  0  0  0  0  0
  -28.0693  -31.8491   26.5458 H   0  0  0  0  0  0
  -28.2591  -38.0085   24.7507 H   0  0  0  0  0  0
  -28.1072  -36.2615   24.6303 H   0  0  0  0  0  0
  -27.2292  -37.1445   25.8870 H   0  0  0  0  0  0
  -20.9454  -29.8763   21.6800 H   0  0  0  0  0  0
  -26.0156  -38.2820   24.1407 H   0  0  0  0  0  0
  -30.5597  -22.0112   17.5735 H   0  0  0  0  0  0
  -31.7489  -22.1226   18.8740 H   0  0  0  0  0  0
  -29.5629  -23.9857   18.1953 H   0  0  0  0  0  0
  -30.9362  -24.3330   19.2077 H   0  0  0  0  0  0
  -29.7709  -23.7303   21.1676 H   0  0  0  0  0  0
  -30.8229  -17.6244   21.6407 H   0  0  0  0  0  0
  -31.2453  -17.5693   19.9797 H   0  0  0  0  0  0
  -27.3052  -24.4829   20.9745 H   0  0  0  0  0  0
  -27.4722  -24.4555   19.2508 H   0  0  0  0  0  0
  -28.1905  -18.0383   22.4302 H   0  0  0  0  0  0
  -27.4403  -19.4886   22.9258 H   0  0  0  0  0  0
  -28.8437  -15.9803   20.6759 H   0  0  0  0  0  0
  1 25  1  0  0  0
  1 30  2  0  0  0
  1 83  1  0  0  0
  2  3  1  0  0  0
  2 25  1  0  0  0
  2 84  1  0  0  0
  2 85  1  0  0  0
  3  4  1  0  0  0
  3 86  1  0  0  0
  3 87  1  0  0  0
  4  5  1  0  0  0
  4 88  1  0  0  0
  4 89  1  0  0  0
  5  6  1  0  0  0
  5 26  1  0  0  0
  5 90  1  0  0  0
  6 25  1  0  0  0
  6 91  1  0  0  0
  6 92  1  0  0  0
  7  8  2  0  0  0
  7 26  1  0  0  0
  7 29  1  0  0  0
  8  9  1  0  0  0
  8 22  1  0  0  0
  9 10  1  0  0  0
  9 27  2  0  0  0
 10 11  2  0  0  0
 10 15  1  0  0  0
 11 12  1  0  0  0
 11 93  1  0  0  0
 12 13  2  0  0  0
 12 94  1  0  0  0
 13 14  1  0  0  0
 13 31  1  0  0  0
 14 15  2  0  0  0
 14 95  1  0  0  0
 15 96  1  0  0  0
 16 17  2  0  0  0
 16 21  1  0  0  0
 16 31  1  0  0  0
 17 18  1  0  0  0
 17 97  1  0  0  0
 18 19  2  0  0  0
 18 98  1  0  0  0
 19 20  1  0  0  0
 19 24  1  0  0  0
 20 21  2  0  0  0
 20 99  1  0  0  0
 21 23  1  0  0  0
 22 28  1  0  0  0
 22 32  2  0  0  0
 26 27  1  0  0  0
 28100  1  0  0  0
 28101  1  0  0  0
 29102  1  0  0  0
 29103  1  0  0  0
 33 34  1  0  0  0
 33 66  1  0  0  0
 33 70  2  0  0  0
 34 36  1  0  0  0
 34 59  1  0  0  0
 34104  1  0  0  0
 35 44  2  0  0  0
 35 45  1  0  0  0
 35 68  1  0  0  0
 36 56  1  0  0  0
 36105  1  0  0  0
 37 39  1  0  0  0
 37 47  1  0  0  0
 37 66  1  0  0  0
 37106  1  0  0  0
 38 43  2  0  0  0
 38 46  1  0  0  0
 38 47  1  0  0  0
 39 64  1  0  0  0
 39 67  2  0  0  0
 40 52  1  0  0  0
 40 53  2  0  0  0
 40 58  1  0  0  0
 41107  1  0  0  0
 41108  1  0  0  0
 41109  1  0  0  0
 41 48  1  0  0  0
 42 43  1  0  0  0
 42 66  1  0  0  0
 42110  1  0  0  0
 42111  1  0  0  0
 43 44  1  0  0  0
 44112  1  0  0  0
 45 46  2  0  0  0
 45113  1  0  0  0
 46114  1  0  0  0
 47115  1  0  0  0
 47116  1  0  0  0
 48 56  1  0  0  0
 48 65  1  0  0  0
 48117  1  0  0  0
 49 50  1  0  0  0
 49 53  1  0  0  0
 49 64  1  0  0  0
 49118  1  0  0  0
 50 51  1  0  0  0
 50119  1  0  0  0
 50120  1  0  0  0
 51 52  1  0  0  0
 51121  1  0  0  0
 51122  1  0  0  0
 52123  1  0  0  0
 52124  1  0  0  0
 53 54  1  0  0  0
 54 55  2  0  0  0
 54125  1  0  0  0
 55 57  1  0  0  0
 55126  1  0  0  0
 56 69  2  0  0  0
 57 58  2  0  0  0
 57127  1  0  0  0
 58128  1  0  0  0
 59 60  1  0  0  0
 59 61  1  0  0  0
 59 62  1  0  0  0
 60129  1  0  0  0
 60130  1  0  0  0
 60131  1  0  0  0
 61132  1  0  0  0
 61133  1  0  0  0
 61134  1  0  0  0
 62135  1  0  0  0
 62136  1  0  0  0
 62137  1  0  0  0
 63 65  1  0  0  0
 63138  1  0  0  0
 63139  1  0  0  0
 63140  1  0  0  0
 64141  1  0  0  0
 65142  1  0  0  0
 68 79  1  0  0  0
 71 72  1  0  0  0
 71 75  1  0  0  0
 71 80  2  0  0  0
 72 77  1  0  0  0
 72 81  2  0  0  0
 73 74  2  0  0  0
 73 78  1  0  0  0
 73 80  1  0  0  0
 74 81  1  0  0  0
 74 82  1  0  0  0
 75 76  1  0  0  0
 75143  1  0  0  0
 75144  1  0  0  0
 76 77  1  0  0  0
 76145  1  0  0  0
 76146  1  0  0  0
 77 79  1  0  0  0
 77147  1  0  0  0
 78 83  1  0  0  0
 78148  1  0  0  0
 78149  1  0  0  0
 79150  1  0  0  0
 79151  1  0  0  0
 82152  1  0  0  0
 82153  1  0  0  0
 83154  1  0  0  0
M  ISO  4   1 100  68 101  79 101  83 100
M  END
> <chiral flag>
0

> <version>
0

> <s_m_source_file>
/data/baiqing/PycharmProjects/Reinvent-master-3.2/result/LINK_invent/BTK/process_docking_weight1_custom_sum_contain_oxygen_bond_distance_aromatic_linkinvent_7_9_3/rearranged_h_0180.sdf

> <i_m_source_file_index>
88

> <r_mmod_Potential_Energy-OPLS-2005>
390.424652099609

> <r_mmod_Stretch_Energy-OPLS-2005>
208.419296264648

> <r_mmod_Bend_Energy-OPLS-2005>
299.625610351562

> <r_mmod_Torsional_Energy-OPLS-2005>
233.661010742188

> <r_mmod_Improper_Torsional_Energy-OPLS-2005>
13.7052955627441

> <r_mmod_Van_der_Waal_Energy-OPLS-2005>
134.432510375977

> <r_mmod_Electrostatic_Energy-OPLS-2005>
-419.006622314453

> <r_mmod_Solvation_Energy-OPLS-2005>
-240.514343261719

> <b_mmod_Minimization_Converged-OPLS-2005>
0

> <r_mmod_RMS_Derivative-OPLS-2005>
0.230474457144737

$$$$
88
                    3D
 Structure written by MMmdl.
160169  0  0  1  0            999 V2000
  -30.5574  -14.9017   20.3965 C   0  0  0  0  0  0
  -30.4342  -12.5622   19.4834 C   0  0  0  0  0  0
  -29.5223  -12.5599   18.2390 C   0  0  0  0  0  0
  -28.0549  -12.3546   18.6537 C   0  0  0  0  0  0
  -27.6317  -13.2521   19.8431 C   0  0  2  0  0  0
  -28.6789  -13.2656   20.9771 C   0  0  0  0  0  0
  -25.2477  -13.8154   20.5757 C   0  0  0  0  0  0
  -24.1784  -13.0401   20.9188 C   0  0  0  0  0  0
  -24.6372  -11.6873   20.8709 C   0  0  0  0  0  0
  -23.9047  -10.4269   21.0375 C   0  0  0  0  0  0
  -24.3598   -9.4186   21.9142 C   0  0  0  0  0  0
  -23.6278   -8.2232   22.0732 C   0  0  0  0  0  0
  -22.4263   -8.0239   21.3539 C   0  0  0  0  0  0
  -21.9887   -9.0184   20.4621 C   0  0  0  0  0  0
  -22.7208  -10.2081   20.3033 C   0  0  0  0  0  0
  -21.6818   -6.0733   22.5302 C   0  0  0  0  0  0
  -21.4002   -6.5636   23.8239 C   0  0  0  0  0  0
  -21.3662   -5.6783   24.9196 C   0  0  0  0  0  0
  -21.6044   -4.3046   24.7249 C   0  0  0  0  0  0
  -21.8812   -3.8139   23.4356 C   0  0  0  0  0  0
  -21.9170   -4.6966   22.3408 C   0  0  0  0  0  0
  -22.7812  -13.5182   21.1814 C   0  0  0  0  0  0
  -22.1654   -4.2148   21.0991 F   0  0  0  0  0  0
  -21.5592   -3.4525   25.7758 F   0  0  0  0  0  0
  -29.9476  -13.6561   20.3635 N   0  0  0  0  0  0
  -26.2911  -12.9394   20.3275 N   0  0  0  0  0  0
  -25.9317  -11.6523   20.5703 N   0  0  0  0  0  0
  -22.0463  -12.8212   22.0394 N   0  0  0  0  0  0
  -25.4158  -15.1891   20.4280 N   0  0  0  0  0  0
  -31.7727  -14.9322   20.1659 O   0  0  0  0  0  0
  -21.6575   -6.8872   21.4273 O   0  0  0  0  0  0
  -22.3512  -14.5472   20.6586 O   0  0  0  0  0  0
  -24.6404  -31.8527   23.1885 C   0  0  0  0  0  0
  -25.9190  -32.4744   23.8281 C   0  0  1  0  0  0
  -27.2068  -27.1610   20.1095 C   0  0  0  0  0  0
  -25.5989  -33.8535   24.2228 N   0  0  0  0  0  0
  -23.4424  -30.4692   21.5386 C   0  0  2  0  0  0
  -24.8827  -28.9059   20.0930 C   0  0  0  0  0  0
  -22.7573  -29.4541   22.4890 C   0  0  0  0  0  0
  -18.0295  -28.1407   22.8612 C   0  0  0  0  0  0
  -24.1469  -36.7184   23.2649 C   0  0  0  0  0  0
  -25.9942  -30.7241   21.3865 C   0  0  0  0  0  0
  -26.0582  -29.3401   20.7200 C   0  0  0  0  0  0
  -27.2088  -28.4753   20.7238 C   0  0  0  0  0  0
  -26.0210  -26.8382   19.4209 C   0  0  0  0  0  0
  -24.8784  -27.6676   19.4343 C   0  0  0  0  0  0
  -23.6621  -29.8090   20.1487 C   0  0  0  0  0  0
  -25.4119  -36.3050   24.0351 C   0  0  1  0  0  0
  -20.5914  -28.3690   23.1348 C   0  0  2  0  0  0
  -20.6768  -26.9392   22.5465 C   0  0  0  0  0  0
  -19.5703  -26.6387   21.5304 C   0  0  0  0  0  0
  -18.1884  -26.7979   22.1705 C   0  0  0  0  0  0
  -19.1571  -28.8865   23.2979 C   0  0  0  0  0  0
  -18.9467  -30.1441   23.8980 C   0  0  0  0  0  0
  -17.6469  -30.6618   24.0571 C   0  0  0  0  0  0
  -25.9086  -34.9449   23.5108 C   0  0  0  0  0  0
  -16.5350  -29.9116   23.6320 C   0  0  0  0  0  0
  -16.7286  -28.6500   23.0435 C   0  0  0  0  0  0
  -26.4482  -31.6612   25.0715 C   0  0  0  0  0  0
  -25.3641  -31.3843   26.1406 C   0  0  0  0  0  0
  -27.0296  -30.3017   24.6233 C   0  0  0  0  0  0
  -27.6002  -32.4368   25.7522 C   0  0  0  0  0  0
  -27.5563  -37.1768   24.8489 C   0  0  0  0  0  0
  -21.4259  -29.3057   22.3737 N   0  0  0  0  0  0
  -26.4275  -37.3777   23.9438 N   0  0  0  0  0  0
  -24.7130  -31.0370   22.0943 N   0  0  0  0  0  0
  -23.4257  -28.8071   23.2996 O   0  0  0  0  0  0
  -28.2762  -26.2175   20.2673 O   0  0  0  0  0  0
  -26.5608  -34.8955   22.4635 O   0  0  0  0  0  0
  -23.5510  -32.1387   23.7138 O   0  0  0  0  0  0
  -27.2321  -22.0270   17.5112 C   0  0  0  0  0  0
  -26.4128  -23.0684   17.9844 C   0  0  0  0  0  0
  -27.8062  -23.3734   19.8189 C   0  0  0  0  0  0
  -28.3776  -21.9993   19.5200 C   0  0  0  0  0  0
  -29.1518  -18.4797   19.0885 C   0  0  0  0  0  0
  -29.0205  -18.4326   21.4697 C   0  0  0  0  0  0
  -29.9260  -17.0463   19.1557 C   0  0  0  0  0  0
  -29.8885  -17.0805   21.5194 C   0  0  0  0  0  0
  -29.3422  -19.4693   20.3137 C   0  0  0  0  0  0
  -25.3401  -23.6766   17.0967 C   0  0  0  0  0  0
  -28.5781  -24.8124   19.6544 C   0  0  0  0  0  0
  -28.1761  -21.4649   18.2930 N   0  0  0  0  0  0
  -26.6390  -23.6538   19.1816 N   0  0  0  0  0  0
  -29.8098  -16.1221   20.3617 N   0  0  0  0  0  0
  -28.6691  -20.8835   20.4427 N   0  0  0  0  0  0
  -31.4717  -12.7116   19.1852 H   0  0  0  0  0  0
  -30.4091  -11.5964   19.9866 H   0  0  0  0  0  0
  -29.8273  -11.7928   17.5280 H   0  0  0  0  0  0
  -29.6314  -13.5083   17.7107 H   0  0  0  0  0  0
  -27.9410  -11.3040   18.9232 H   0  0  0  0  0  0
  -27.3979  -12.5507   17.8091 H   0  0  0  0  0  0
  -27.6039  -14.2673   19.4485 H   0  0  0  0  0  0
  -28.7588  -12.3005   21.4816 H   0  0  0  0  0  0
  -28.4042  -13.9921   21.7417 H   0  0  0  0  0  0
  -25.2749   -9.5614   22.4703 H   0  0  0  0  0  0
  -23.9929   -7.4641   22.7484 H   0  0  0  0  0  0
  -21.0775   -8.8680   19.8991 H   0  0  0  0  0  0
  -22.3609  -10.9574   19.6140 H   0  0  0  0  0  0
  -21.2036   -7.6158   23.9731 H   0  0  0  0  0  0
  -21.1472   -6.0526   25.9083 H   0  0  0  0  0  0
  -22.0591   -2.7599   23.2821 H   0  0  0  0  0  0
  -22.4072  -11.9885   22.4783 H   0  0  0  0  0  0
  -21.1133  -13.1276   22.2680 H   0  0  0  0  0  0
  -24.6400  -15.8353   20.5219 H   0  0  0  0  0  0
  -26.2682  -15.6320   20.1043 H   0  0  0  0  0  0
  -26.7280  -32.5342   23.1013 H   0  0  0  0  0  0
  -25.0341  -33.9740   25.0526 H   0  0  0  0  0  0
  -22.7382  -31.2921   21.3912 H   0  0  0  0  0  0
  -23.3820  -35.9418   23.3342 H   0  0  0  0  0  0
  -24.3551  -36.8741   22.2044 H   0  0  0  0  0  0
  -23.7108  -37.6370   23.6618 H   0  0  0  0  0  0
  -26.1549  -31.4783   20.6168 H   0  0  0  0  0  0
  -26.8690  -30.7737   22.0241 H   0  0  0  0  0  0
  -28.0975  -28.7999   21.2442 H   0  0  0  0  0  0
  -25.9333  -25.9145   18.8849 H   0  0  0  0  0  0
  -23.9860  -27.3360   18.9213 H   0  0  0  0  0  0
  -23.7976  -30.5970   19.4029 H   0  0  0  0  0  0
  -22.7740  -29.2556   19.8303 H   0  0  0  0  0  0
  -25.1293  -36.1905   25.0839 H   0  0  0  0  0  0
  -21.0014  -28.3207   24.1477 H   0  0  0  0  0  0
  -20.5701  -26.2248   23.3681 H   0  0  0  0  0  0
  -21.6627  -26.7432   22.1206 H   0  0  0  0  0  0
  -19.6816  -25.6299   21.1325 H   0  0  0  0  0  0
  -19.6632  -27.3240   20.6882 H   0  0  0  0  0  0
  -17.4173  -26.6859   21.4062 H   0  0  0  0  0  0
  -18.0149  -26.0095   22.9050 H   0  0  0  0  0  0
  -19.7908  -30.7266   24.2409 H   0  0  0  0  0  0
  -17.4996  -31.6339   24.5123 H   0  0  0  0  0  0
  -15.5348  -30.3026   23.7618 H   0  0  0  0  0  0
  -15.8683  -28.0795   22.7173 H   0  0  0  0  0  0
  -24.5876  -30.7110   25.7782 H   0  0  0  0  0  0
  -24.8735  -32.3006   26.4690 H   0  0  0  0  0  0
  -25.7935  -30.9191   27.0272 H   0  0  0  0  0  0
  -26.2866  -29.6833   24.1188 H   0  0  0  0  0  0
  -27.3902  -29.7228   25.4744 H   0  0  0  0  0  0
  -27.8795  -30.4326   23.9533 H   0  0  0  0  0  0
  -27.2627  -33.3703   26.2046 H   0  0  0  0  0  0
  -28.3879  -32.6877   25.0403 H   0  0  0  0  0  0
  -28.0569  -31.8498   26.5513 H   0  0  0  0  0  0
  -28.2623  -38.0039   24.7583 H   0  0  0  0  0  0
  -28.1034  -36.2589   24.6281 H   0  0  0  0  0  0
  -27.2293  -37.1363   25.8900 H   0  0  0  0  0  0
  -20.9400  -29.8805   21.7000 H   0  0  0  0  0  0
  -26.0165  -38.2842   24.1479 H   0  0  0  0  0  0
  -27.0777  -21.6029   16.5300 H   0  0  0  0  0  0
  -28.0913  -18.2680   18.9486 H   0  0  0  0  0  0
  -29.4546  -18.9877   18.1707 H   0  0  0  0  0  0
  -29.1031  -18.9208   22.4433 H   0  0  0  0  0  0
  -27.9675  -18.1431   21.4016 H   0  0  0  0  0  0
  -30.9904  -17.2379   19.0077 H   0  0  0  0  0  0
  -29.6459  -16.4799   18.2671 H   0  0  0  0  0  0
  -29.6621  -16.5422   22.4437 H   0  0  0  0  0  0
  -30.9333  -17.3724   21.6310 H   0  0  0  0  0  0
  -30.4094  -19.6870   20.3707 H   0  0  0  0  0  0
  -25.7369  -24.5395   16.5590 H   0  0  0  0  0  0
  -24.4695  -24.0104   17.6644 H   0  0  0  0  0  0
  -25.0021  -22.9586   16.3457 H   0  0  0  0  0  0
  -28.7093  -24.9846   18.5819 H   0  0  0  0  0  0
  -29.5878  -24.5891   19.9980 H   0  0  0  0  0  0
  -28.6847  -21.2097   21.4051 H   0  0  0  0  0  0
  1 25  1  0  0  0
  1 30  2  0  0  0
  1 84  1  0  0  0
  2  3  1  0  0  0
  2 25  1  0  0  0
  2 86  1  0  0  0
  2 87  1  0  0  0
  3  4  1  0  0  0
  3 88  1  0  0  0
  3 89  1  0  0  0
  4  5  1  0  0  0
  4 90  1  0  0  0
  4 91  1  0  0  0
  5  6  1  0  0  0
  5 26  1  0  0  0
  5 92  1  0  0  0
  6 25  1  0  0  0
  6 93  1  0  0  0
  6 94  1  0  0  0
  7  8  2  0  0  0
  7 26  1  0  0  0
  7 29  1  0  0  0
  8  9  1  0  0  0
  8 22  1  0  0  0
  9 10  1  0  0  0
  9 27  2  0  0  0
 10 11  2  0  0  0
 10 15  1  0  0  0
 11 12  1  0  0  0
 11 95  1  0  0  0
 12 13  2  0  0  0
 12 96  1  0  0  0
 13 14  1  0  0  0
 13 31  1  0  0  0
 14 15  2  0  0  0
 14 97  1  0  0  0
 15 98  1  0  0  0
 16 17  2  0  0  0
 16 21  1  0  0  0
 16 31  1  0  0  0
 17 18  1  0  0  0
 17 99  1  0  0  0
 18 19  2  0  0  0
 18100  1  0  0  0
 19 20  1  0  0  0
 19 24  1  0  0  0
 20 21  2  0  0  0
 20101  1  0  0  0
 21 23  1  0  0  0
 22 28  1  0  0  0
 22 32  2  0  0  0
 26 27  1  0  0  0
 28102  1  0  0  0
 28103  1  0  0  0
 29104  1  0  0  0
 29105  1  0  0  0
 33 34  1  0  0  0
 33 66  1  0  0  0
 33 70  2  0  0  0
 34 36  1  0  0  0
 34 59  1  0  0  0
 34106  1  0  0  0
 35 44  2  0  0  0
 35 45  1  0  0  0
 35 68  1  0  0  0
 36 56  1  0  0  0
 36107  1  0  0  0
 37 39  1  0  0  0
 37 47  1  0  0  0
 37 66  1  0  0  0
 37108  1  0  0  0
 38 43  2  0  0  0
 38 46  1  0  0  0
 38 47  1  0  0  0
 39 64  1  0  0  0
 39 67  2  0  0  0
 40 52  1  0  0  0
 40 53  2  0  0  0
 40 58  1  0  0  0
 41109  1  0  0  0
 41110  1  0  0  0
 41111  1  0  0  0
 41 48  1  0  0  0
 42 43  1  0  0  0
 42 66  1  0  0  0
 42112  1  0  0  0
 42113  1  0  0  0
 43 44  1  0  0  0
 44114  1  0  0  0
 45 46  2  0  0  0
 45115  1  0  0  0
 46116  1  0  0  0
 47117  1  0  0  0
 47118  1  0  0  0
 48 56  1  0  0  0
 48 65  1  0  0  0
 48119  1  0  0  0
 49 50  1  0  0  0
 49 53  1  0  0  0
 49 64  1  0  0  0
 49120  1  0  0  0
 50 51  1  0  0  0
 50121  1  0  0  0
 50122  1  0  0  0
 51 52  1  0  0  0
 51123  1  0  0  0
 51124  1  0  0  0
 52125  1  0  0  0
 52126  1  0  0  0
 53 54  1  0  0  0
 54 55  2  0  0  0
 54127  1  0  0  0
 55 57  1  0  0  0
 55128  1  0  0  0
 56 69  2  0  0  0
 57 58  2  0  0  0
 57129  1  0  0  0
 58130  1  0  0  0
 59 60  1  0  0  0
 59 61  1  0  0  0
 59 62  1  0  0  0
 60131  1  0  0  0
 60132  1  0  0  0
 60133  1  0  0  0
 61134  1  0  0  0
 61135  1  0  0  0
 61136  1  0  0  0
 62137  1  0  0  0
 62138  1  0  0  0
 62139  1  0  0  0
 63 65  1  0  0  0
 63140  1  0  0  0
 63141  1  0  0  0
 63142  1  0  0  0
 64143  1  0  0  0
 65144  1  0  0  0
 68 81  1  0  0  0
 71 72  2  0  0  0
 71 82  1  0  0  0
 71145  1  0  0  0
 72 80  1  0  0  0
 72 83  1  0  0  0
 73 74  1  0  0  0
 73 81  1  0  0  0
 73 83  2  0  0  0
 74 82  2  0  0  0
 74 85  1  0  0  0
 75 77  1  0  0  0
 75 79  1  0  0  0
 75146  1  0  0  0
 75147  1  0  0  0
 76 78  1  0  0  0
 76 79  1  0  0  0
 76148  1  0  0  0
 76149  1  0  0  0
 77 84  1  0  0  0
 77150  1  0  0  0
 77151  1  0  0  0
 78 84  1  0  0  0
 78152  1  0  0  0
 78153  1  0  0  0
 79 85  1  0  0  0
 79154  1  0  0  0
 80155  1  0  0  0
 80156  1  0  0  0
 80157  1  0  0  0
 81158  1  0  0  0
 81159  1  0  0  0
 85160  1  0  0  0
M  ISO  4   1 100  68 101  81 101  84 100
M  END
> <chiral flag>
0

> <version>
0

> <s_m_source_file>
/data/baiqing/PycharmProjects/Reinvent-master-3.2/result/LINK_invent/BTK/process_docking_weight1_custom_sum_contain_oxygen_bond_distance_aromatic_linkinvent_7_9_3/rearranged_h_0180.sdf

> <i_m_source_file_index>
89

> <r_mmod_Potential_Energy-OPLS-2005>
934.155334472656

> <r_mmod_Stretch_Energy-OPLS-2005>
233.528564453125

> <r_mmod_Bend_Energy-OPLS-2005>
384.506225585938

> <r_mmod_Torsional_Energy-OPLS-2005>
449.394378662109

> <r_mmod_Improper_Torsional_Energy-OPLS-2005>
35.4289054870605

> <r_mmod_Van_der_Waal_Energy-OPLS-2005>
138.029449462891

> <r_mmod_Electrostatic_Energy-OPLS-2005>
-250.89958190918

> <r_mmod_Solvation_Energy-OPLS-2005>
-223.409484863281

> <b_mmod_Minimization_Converged-OPLS-2005>
0

> <r_mmod_RMS_Derivative-OPLS-2005>
8.10012054443359

$$$$
89
                    3D
 Structure written by MMmdl.
159168  0  0  1  0            999 V2000
  -30.6899  -14.6340   20.4721 C   0  0  0  0  0  0
  -30.4174  -12.3880   19.4581 C   0  0  0  0  0  0
  -29.5008  -12.4921   18.2226 C   0  0  0  0  0  0
  -28.0252  -12.3408   18.6383 C   0  0  0  0  0  0
  -27.6450  -13.2321   19.8521 C   0  0  2  0  0  0
  -28.6926  -13.1497   20.9836 C   0  0  0  0  0  0
  -25.2533  -13.8208   20.5715 C   0  0  0  0  0  0
  -24.1812  -13.0448   20.9195 C   0  0  0  0  0  0
  -24.6399  -11.6925   20.8735 C   0  0  0  0  0  0
  -23.9074  -10.4299   21.0397 C   0  0  0  0  0  0
  -24.3622   -9.4213   21.9174 C   0  0  0  0  0  0
  -23.6298   -8.2248   22.0747 C   0  0  0  0  0  0
  -22.4279   -8.0285   21.3542 C   0  0  0  0  0  0
  -21.9914   -9.0261   20.4646 C   0  0  0  0  0  0
  -22.7243  -10.2140   20.3051 C   0  0  0  0  0  0
  -21.6859   -6.0736   22.5276 C   0  0  0  0  0  0
  -21.4020   -6.5634   23.8212 C   0  0  0  0  0  0
  -21.3660   -5.6787   24.9174 C   0  0  0  0  0  0
  -21.6044   -4.3051   24.7222 C   0  0  0  0  0  0
  -21.8819   -3.8146   23.4342 C   0  0  0  0  0  0
  -21.9195   -4.6963   22.3399 C   0  0  0  0  0  0
  -22.7834  -13.5228   21.1855 C   0  0  0  0  0  0
  -22.1664   -4.2150   21.0976 F   0  0  0  0  0  0
  -21.5626   -3.4533   25.7735 F   0  0  0  0  0  0
  -30.0019  -13.4518   20.3945 N   0  0  0  0  0  0
  -26.2967  -12.9418   20.3313 N   0  0  0  0  0  0
  -25.9337  -11.6556   20.5761 N   0  0  0  0  0  0
  -22.0479  -12.8224   22.0415 N   0  0  0  0  0  0
  -25.4248  -15.1932   20.4166 N   0  0  0  0  0  0
  -31.8878  -14.6790   20.1753 O   0  0  0  0  0  0
  -21.6641   -6.8884   21.4240 O   0  0  0  0  0  0
  -22.3515  -14.5529   20.6697 O   0  0  0  0  0  0
  -24.6277  -31.8616   23.2064 C   0  0  0  0  0  0
  -25.9128  -32.4783   23.8380 C   0  0  1  0  0  0
  -27.2090  -27.3121   20.1072 C   0  0  0  0  0  0
  -25.5944  -33.8587   24.2297 N   0  0  0  0  0  0
  -23.4199  -30.4908   21.5495 C   0  0  2  0  0  0
  -24.8626  -28.9557   20.1093 C   0  0  0  0  0  0
  -22.7485  -29.4640   22.4933 C   0  0  0  0  0  0
  -18.0290  -28.1389   22.8484 C   0  0  0  0  0  0
  -24.1489  -36.7291   23.2632 C   0  0  0  0  0  0
  -25.9655  -30.7892   21.3823 C   0  0  0  0  0  0
  -26.0358  -29.4202   20.7171 C   0  0  0  0  0  0
  -27.2130  -28.6104   20.7092 C   0  0  0  0  0  0
  -26.0088  -26.9172   19.4640 C   0  0  0  0  0  0
  -24.8517  -27.7094   19.4748 C   0  0  0  0  0  0
  -23.6337  -29.8372   20.1617 C   0  0  0  0  0  0
  -25.4111  -36.3083   24.0327 C   0  0  1  0  0  0
  -20.5893  -28.3694   23.1276 C   0  0  2  0  0  0
  -20.6780  -26.9414   22.5408 C   0  0  0  0  0  0
  -19.5754  -26.6385   21.5211 C   0  0  0  0  0  0
  -18.1934  -26.7932   22.1623 C   0  0  0  0  0  0
  -19.1545  -28.8859   23.2874 C   0  0  0  0  0  0
  -18.9465  -30.1463   23.8887 C   0  0  0  0  0  0
  -17.6464  -30.6587   24.0565 C   0  0  0  0  0  0
  -25.9056  -34.9454   23.5107 C   0  0  0  0  0  0
  -16.5355  -29.9086   23.6332 C   0  0  0  0  0  0
  -16.7278  -28.6506   23.0345 C   0  0  0  0  0  0
  -26.4501  -31.6595   25.0754 C   0  0  0  0  0  0
  -25.3728  -31.3758   26.1481 C   0  0  0  0  0  0
  -27.0336  -30.3004   24.6238 C   0  0  0  0  0  0
  -27.6063  -32.4332   25.7517 C   0  0  0  0  0  0
  -27.5591  -37.1783   24.8448 C   0  0  0  0  0  0
  -21.4199  -29.3049   22.3671 N   0  0  0  0  0  0
  -26.4282  -37.3785   23.9423 N   0  0  0  0  0  0
  -24.6898  -31.0634   22.1018 N   0  0  0  0  0  0
  -23.4213  -28.8161   23.2994 O   0  0  0  0  0  0
  -28.2995  -26.4226   20.1723 O   0  0  0  0  0  0
  -26.5616  -34.8918   22.4669 O   0  0  0  0  0  0
  -23.5438  -32.1417   23.7389 O   0  0  0  0  0  0
  -31.0439  -23.0571   20.5673 C   0  0  0  0  0  0
  -28.9712  -23.8188   20.2819 C   0  0  0  0  0  0
  -29.3840  -21.5864   20.4635 C   0  0  0  0  0  0
  -29.0445  -17.9491   19.4194 C   0  0  0  0  0  0
  -29.6972  -18.1530   21.7486 C   0  0  0  0  0  0
  -29.8040  -16.5809   19.3284 C   0  0  0  0  0  0
  -30.4481  -16.7733   21.6502 C   0  0  0  0  0  0
  -29.6613  -18.9568   20.4225 C   0  0  0  0  0  0
  -32.5259  -23.3312   20.7114 C   0  0  0  0  0  0
  -27.9658  -24.9841   19.9797 C   0  0  0  0  0  0
  -30.2590  -24.1228   20.4146 N   0  0  0  0  0  0
  -30.6841  -21.7731   20.5937 N   0  0  0  0  0  0
  -28.4761  -22.5566   20.3074 N   0  0  0  0  0  0
  -29.9897  -15.8215   20.5978 N   0  0  0  0  0  0
  -28.9138  -20.2560   20.4897 N   0  0  0  0  0  0
  -31.4634  -12.4729   19.1587 H   0  0  0  0  0  0
  -30.3209  -11.4090   19.9299 H   0  0  0  0  0  0
  -29.7635  -11.7265   17.4912 H   0  0  0  0  0  0
  -29.6506  -13.4531   17.7277 H   0  0  0  0  0  0
  -27.8641  -11.2913   18.8872 H   0  0  0  0  0  0
  -27.3704  -12.5559   17.7925 H   0  0  0  0  0  0
  -27.6458  -14.2585   19.4850 H   0  0  0  0  0  0
  -28.7006  -12.1586   21.4390 H   0  0  0  0  0  0
  -28.4530  -13.8566   21.7796 H   0  0  0  0  0  0
  -25.2771   -9.5691   22.4742 H   0  0  0  0  0  0
  -24.0012   -7.4639   22.7464 H   0  0  0  0  0  0
  -21.0845   -8.8783   19.8956 H   0  0  0  0  0  0
  -22.3702  -10.9677   19.6159 H   0  0  0  0  0  0
  -21.2016   -7.6140   23.9715 H   0  0  0  0  0  0
  -21.1481   -6.0515   25.9077 H   0  0  0  0  0  0
  -22.0596   -2.7610   23.2836 H   0  0  0  0  0  0
  -22.4102  -11.9897   22.4820 H   0  0  0  0  0  0
  -21.1094  -13.1253   22.2609 H   0  0  0  0  0  0
  -24.6647  -15.8532   20.5399 H   0  0  0  0  0  0
  -26.2921  -15.6340   20.1367 H   0  0  0  0  0  0
  -26.7195  -32.5443   23.1124 H   0  0  0  0  0  0
  -25.0097  -33.9736   25.0444 H   0  0  0  0  0  0
  -22.7132  -31.3122   21.4127 H   0  0  0  0  0  0
  -23.3761  -35.9610   23.3268 H   0  0  0  0  0  0
  -24.3593  -36.8940   22.2053 H   0  0  0  0  0  0
  -23.7226  -37.6479   23.6670 H   0  0  0  0  0  0
  -26.1071  -31.5572   20.6207 H   0  0  0  0  0  0
  -26.8424  -30.8277   22.0170 H   0  0  0  0  0  0
  -28.1087  -28.9596   21.2034 H   0  0  0  0  0  0
  -25.9097  -25.9741   18.9503 H   0  0  0  0  0  0
  -23.9538  -27.3501   18.9911 H   0  0  0  0  0  0
  -23.7561  -30.6188   19.4107 H   0  0  0  0  0  0
  -22.7519  -29.2717   19.8548 H   0  0  0  0  0  0
  -25.1281  -36.1929   25.0817 H   0  0  0  0  0  0
  -20.9990  -28.3270   24.1395 H   0  0  0  0  0  0
  -20.5685  -26.2302   23.3609 H   0  0  0  0  0  0
  -21.6648  -26.7446   22.1198 H   0  0  0  0  0  0
  -19.6913  -25.6296   21.1243 H   0  0  0  0  0  0
  -19.6690  -27.3192   20.6737 H   0  0  0  0  0  0
  -17.4204  -26.6683   21.4024 H   0  0  0  0  0  0
  -18.0329  -26.0079   22.9025 H   0  0  0  0  0  0
  -19.7942  -30.7287   24.2245 H   0  0  0  0  0  0
  -17.5017  -31.6264   24.5174 H   0  0  0  0  0  0
  -15.5354  -30.2980   23.7664 H   0  0  0  0  0  0
  -15.8680  -28.0827   22.7052 H   0  0  0  0  0  0
  -24.5894  -30.7112   25.7820 H   0  0  0  0  0  0
  -24.8929  -32.2937   26.4887 H   0  0  0  0  0  0
  -25.8046  -30.8952   27.0268 H   0  0  0  0  0  0
  -26.2920  -29.6765   24.1236 H   0  0  0  0  0  0
  -27.3976  -29.7260   25.4767 H   0  0  0  0  0  0
  -27.8821  -30.4263   23.9508 H   0  0  0  0  0  0
  -27.2668  -33.3623   26.2108 H   0  0  0  0  0  0
  -28.3859  -32.6914   25.0337 H   0  0  0  0  0  0
  -28.0748  -31.8457   26.5421 H   0  0  0  0  0  0
  -28.2554  -38.0134   24.7575 H   0  0  0  0  0  0
  -28.1142  -36.2671   24.6161 H   0  0  0  0  0  0
  -27.2331  -37.1303   25.8853 H   0  0  0  0  0  0
  -20.9376  -29.8784   21.6894 H   0  0  0  0  0  0
  -26.0160  -38.2846   24.1477 H   0  0  0  0  0  0
  -28.0038  -17.7550   19.6843 H   0  0  0  0  0  0
  -29.0184  -18.4001   18.4263 H   0  0  0  0  0  0
  -30.1727  -18.7573   22.5222 H   0  0  0  0  0  0
  -28.6785  -17.9736   22.0969 H   0  0  0  0  0  0
  -30.7856  -16.7697   18.8879 H   0  0  0  0  0  0
  -29.2810  -15.9422   18.6142 H   0  0  0  0  0  0
  -30.3839  -16.2706   22.6166 H   0  0  0  0  0  0
  -31.5098  -16.9773   21.4941 H   0  0  0  0  0  0
  -30.6856  -19.1715   20.1137 H   0  0  0  0  0  0
  -32.7346  -24.3992   20.7852 H   0  0  0  0  0  0
  -33.0677  -22.9413   19.8499 H   0  0  0  0  0  0
  -32.9175  -22.8512   21.6080 H   0  0  0  0  0  0
  -27.0748  -24.7561   20.5676 H   0  0  0  0  0  0
  -27.7043  -24.8424   18.9309 H   0  0  0  0  0  0
  -27.9082  -20.1867   20.3969 H   0  0  0  0  0  0
  1 25  1  0  0  0
  1 30  2  0  0  0
  1 84  1  0  0  0
  2  3  1  0  0  0
  2 25  1  0  0  0
  2 86  1  0  0  0
  2 87  1  0  0  0
  3  4  1  0  0  0
  3 88  1  0  0  0
  3 89  1  0  0  0
  4  5  1  0  0  0
  4 90  1  0  0  0
  4 91  1  0  0  0
  5  6  1  0  0  0
  5 26  1  0  0  0
  5 92  1  0  0  0
  6 25  1  0  0  0
  6 93  1  0  0  0
  6 94  1  0  0  0
  7  8  2  0  0  0
  7 26  1  0  0  0
  7 29  1  0  0  0
  8  9  1  0  0  0
  8 22  1  0  0  0
  9 10  1  0  0  0
  9 27  2  0  0  0
 10 11  2  0  0  0
 10 15  1  0  0  0
 11 12  1  0  0  0
 11 95  1  0  0  0
 12 13  2  0  0  0
 12 96  1  0  0  0
 13 14  1  0  0  0
 13 31  1  0  0  0
 14 15  2  0  0  0
 14 97  1  0  0  0
 15 98  1  0  0  0
 16 17  2  0  0  0
 16 21  1  0  0  0
 16 31  1  0  0  0
 17 18  1  0  0  0
 17 99  1  0  0  0
 18 19  2  0  0  0
 18100  1  0  0  0
 19 20  1  0  0  0
 19 24  1  0  0  0
 20 21  2  0  0  0
 20101  1  0  0  0
 21 23  1  0  0  0
 22 28  1  0  0  0
 22 32  2  0  0  0
 26 27  1  0  0  0
 28102  1  0  0  0
 28103  1  0  0  0
 29104  1  0  0  0
 29105  1  0  0  0
 33 34  1  0  0  0
 33 66  1  0  0  0
 33 70  2  0  0  0
 34 36  1  0  0  0
 34 59  1  0  0  0
 34106  1  0  0  0
 35 44  2  0  0  0
 35 45  1  0  0  0
 35 68  1  0  0  0
 36 56  1  0  0  0
 36107  1  0  0  0
 37 39  1  0  0  0
 37 47  1  0  0  0
 37 66  1  0  0  0
 37108  1  0  0  0
 38 43  2  0  0  0
 38 46  1  0  0  0
 38 47  1  0  0  0
 39 64  1  0  0  0
 39 67  2  0  0  0
 40 52  1  0  0  0
 40 53  2  0  0  0
 40 58  1  0  0  0
 41109  1  0  0  0
 41110  1  0  0  0
 41111  1  0  0  0
 41 48  1  0  0  0
 42 43  1  0  0  0
 42 66  1  0  0  0
 42112  1  0  0  0
 42113  1  0  0  0
 43 44  1  0  0  0
 44114  1  0  0  0
 45 46  2  0  0  0
 45115  1  0  0  0
 46116  1  0  0  0
 47117  1  0  0  0
 47118  1  0  0  0
 48 56  1  0  0  0
 48 65  1  0  0  0
 48119  1  0  0  0
 49 50  1  0  0  0
 49 53  1  0  0  0
 49 64  1  0  0  0
 49120  1  0  0  0
 50 51  1  0  0  0
 50121  1  0  0  0
 50122  1  0  0  0
 51 52  1  0  0  0
 51123  1  0  0  0
 51124  1  0  0  0
 52125  1  0  0  0
 52126  1  0  0  0
 53 54  1  0  0  0
 54 55  2  0  0  0
 54127  1  0  0  0
 55 57  1  0  0  0
 55128  1  0  0  0
 56 69  2  0  0  0
 57 58  2  0  0  0
 57129  1  0  0  0
 58130  1  0  0  0
 59 60  1  0  0  0
 59 61  1  0  0  0
 59 62  1  0  0  0
 60131  1  0  0  0
 60132  1  0  0  0
 60133  1  0  0  0
 61134  1  0  0  0
 61135  1  0  0  0
 61136  1  0  0  0
 62137  1  0  0  0
 62138  1  0  0  0
 62139  1  0  0  0
 63 65  1  0  0  0
 63140  1  0  0  0
 63141  1  0  0  0
 63142  1  0  0  0
 64143  1  0  0  0
 65144  1  0  0  0
 68 80  1  0  0  0
 71 79  1  0  0  0
 71 81  2  0  0  0
 71 82  1  0  0  0
 72 80  1  0  0  0
 72 81  1  0  0  0
 72 83  2  0  0  0
 73 82  2  0  0  0
 73 83  1  0  0  0
 73 85  1  0  0  0
 74 76  1  0  0  0
 74 78  1  0  0  0
 74145  1  0  0  0
 74146  1  0  0  0
 75 77  1  0  0  0
 75 78  1  0  0  0
 75147  1  0  0  0
 75148  1  0  0  0
 76 84  1  0  0  0
 76149  1  0  0  0
 76150  1  0  0  0
 77 84  1  0  0  0
 77151  1  0  0  0
 77152  1  0  0  0
 78 85  1  0  0  0
 78153  1  0  0  0
 79154  1  0  0  0
 79155  1  0  0  0
 79156  1  0  0  0
 80157  1  0  0  0
 80158  1  0  0  0
 85159  1  0  0  0
M  ISO  4   1 100  68 101  80 101  84 100
M  END
> <chiral flag>
0

> <version>
0

> <s_m_source_file>
/data/baiqing/PycharmProjects/Reinvent-master-3.2/result/LINK_invent/BTK/process_docking_weight1_custom_sum_contain_oxygen_bond_distance_aromatic_linkinvent_7_9_3/rearranged_h_0180.sdf

> <i_m_source_file_index>
90

> <r_mmod_Potential_Energy-OPLS-2005>
-467.391723632812

> <r_mmod_Stretch_Energy-OPLS-2005>
75.6690063476562

> <r_mmod_Bend_Energy-OPLS-2005>
158.303955078125

> <r_mmod_Torsional_Energy-OPLS-2005>
312.409759521484

> <r_mmod_Improper_Torsional_Energy-OPLS-2005>
12.0642433166504

> <r_mmod_Van_der_Waal_Energy-OPLS-2005>
172.486831665039

> <r_mmod_Electrostatic_Energy-OPLS-2005>
-1026.41003417969

> <r_mmod_Solvation_Energy-OPLS-2005>
-229.942138671875

> <b_mmod_Minimization_Converged-OPLS-2005>
0

> <r_mmod_RMS_Derivative-OPLS-2005>
0.697551548480988

$$$$
90
                    3D
 Structure written by MMmdl.
165174  0  0  1  0            999 V2000
  -30.5247  -14.9750   20.5242 C   0  0  0  0  0  0
  -30.4523  -12.6238   19.5014 C   0  0  0  0  0  0
  -29.5318  -12.5696   18.2559 C   0  0  0  0  0  0
  -28.0627  -12.3351   18.6600 C   0  0  0  0  0  0
  -27.6366  -13.2424   19.8423 C   0  0  2  0  0  0
  -28.6715  -13.2132   20.9806 C   0  0  0  0  0  0
  -25.2497  -13.8193   20.5680 C   0  0  0  0  0  0
  -24.1803  -13.0429   20.9189 C   0  0  0  0  0  0
  -24.6415  -11.6909   20.8730 C   0  0  0  0  0  0
  -23.9096  -10.4281   21.0406 C   0  0  0  0  0  0
  -24.3652   -9.4201   21.9181 C   0  0  0  0  0  0
  -23.6324   -8.2235   22.0745 C   0  0  0  0  0  0
  -22.4301   -8.0277   21.3543 C   0  0  0  0  0  0
  -21.9936   -9.0250   20.4640 C   0  0  0  0  0  0
  -22.7273  -10.2129   20.3052 C   0  0  0  0  0  0
  -21.6853   -6.0752   22.5299 C   0  0  0  0  0  0
  -21.4008   -6.5655   23.8234 C   0  0  0  0  0  0
  -21.3654   -5.6794   24.9189 C   0  0  0  0  0  0
  -21.6045   -4.3055   24.7226 C   0  0  0  0  0  0
  -21.8821   -3.8159   23.4345 C   0  0  0  0  0  0
  -21.9184   -4.6976   22.3409 C   0  0  0  0  0  0
  -22.7822  -13.5205   21.1854 C   0  0  0  0  0  0
  -22.1650   -4.2171   21.0988 F   0  0  0  0  0  0
  -21.5634   -3.4533   25.7733 F   0  0  0  0  0  0
  -29.9514  -13.6929   20.4232 N   0  0  0  0  0  0
  -26.2914  -12.9413   20.3204 N   0  0  0  0  0  0
  -25.9344  -11.6548   20.5702 N   0  0  0  0  0  0
  -22.0467  -12.8206   22.0420 N   0  0  0  0  0  0
  -25.4183  -15.1921   20.4152 N   0  0  0  0  0  0
  -31.6560  -15.1053   20.0382 O   0  0  0  0  0  0
  -21.6649   -6.8889   21.4257 O   0  0  0  0  0  0
  -22.3490  -14.5508   20.6686 O   0  0  0  0  0  0
  -24.6465  -31.8419   23.1864 C   0  0  0  0  0  0
  -25.9233  -32.4682   23.8254 C   0  0  1  0  0  0
  -27.2078  -27.0998   20.1559 C   0  0  0  0  0  0
  -25.5992  -33.8492   24.2184 N   0  0  0  0  0  0
  -23.4497  -30.4625   21.5326 C   0  0  2  0  0  0
  -24.8991  -28.8870   20.1065 C   0  0  0  0  0  0
  -22.7581  -29.4554   22.4848 C   0  0  0  0  0  0
  -18.0302  -28.1419   22.8478 C   0  0  0  0  0  0
  -24.1491  -36.7218   23.2640 C   0  0  0  0  0  0
  -26.0096  -30.7026   21.3928 C   0  0  0  0  0  0
  -26.0777  -29.3127   20.7310 C   0  0  0  0  0  0
  -27.2328  -28.4359   20.7397 C   0  0  0  0  0  0
  -26.0054  -26.7921   19.4795 C   0  0  0  0  0  0
  -24.8790  -27.6420   19.4623 C   0  0  0  0  0  0
  -23.6763  -29.7919   20.1513 C   0  0  0  0  0  0
  -25.4130  -36.3017   24.0308 C   0  0  1  0  0  0
  -20.5922  -28.3752   23.1231 C   0  0  2  0  0  0
  -20.6794  -26.9449   22.5416 C   0  0  0  0  0  0
  -19.5774  -26.6390   21.5229 C   0  0  0  0  0  0
  -18.1945  -26.7964   22.1611 C   0  0  0  0  0  0
  -19.1563  -28.8902   23.2851 C   0  0  0  0  0  0
  -18.9480  -30.1494   23.8881 C   0  0  0  0  0  0
  -17.6475  -30.6611   24.0573 C   0  0  0  0  0  0
  -25.9090  -34.9401   23.5045 C   0  0  0  0  0  0
  -16.5359  -29.9098   23.6361 C   0  0  0  0  0  0
  -16.7283  -28.6517   23.0374 C   0  0  0  0  0  0
  -26.4551  -31.6558   25.0701 C   0  0  0  0  0  0
  -25.3727  -31.3759   26.1391 C   0  0  0  0  0  0
  -27.0401  -30.2936   24.6312 C   0  0  0  0  0  0
  -27.6096  -32.4322   25.7470 C   0  0  0  0  0  0
  -27.5588  -37.1758   24.8458 C   0  0  0  0  0  0
  -21.4275  -29.3059   22.3589 N   0  0  0  0  0  0
  -26.4281  -37.3748   23.9429 N   0  0  0  0  0  0
  -24.7219  -31.0243   22.0914 N   0  0  0  0  0  0
  -23.4213  -28.8122   23.3028 O   0  0  0  0  0  0
  -28.2321  -26.0755   20.2484 O   0  0  0  0  0  0
  -26.5663  -34.8903   22.4616 O   0  0  0  0  0  0
  -23.5578  -32.1319   23.7059 O   0  0  0  0  0  0
  -30.6078  -21.1492   21.2252 C   0  0  0  0  0  0
  -29.5036  -20.6463   20.5026 C   0  0  0  0  0  0
  -28.5942  -21.7685   20.1000 C   0  0  0  0  0  0
  -30.7586  -22.5232   21.5350 C   0  0  0  0  0  0
  -28.8289  -23.2200   20.4115 C   0  0  0  0  0  0
  -30.5007  -16.8586   23.3256 C   0  0  0  0  0  0
  -30.6187  -18.0590   22.4013 C   0  0  0  0  0  0
  -29.6810  -15.8108   22.5608 C   0  0  0  0  0  0
  -29.7427  -17.7050   21.2016 C   0  0  1  0  0  0
  -31.9341  -22.9855   22.3684 C   0  0  0  0  0  0
  -27.5476  -21.4861   17.8025 C   0  0  0  0  0  0
  -29.4978  -19.0038   20.1278 C   0  0  0  0  0  0
  -27.3352  -21.4220   19.3190 C   0  0  0  0  0  0
  -27.9019  -24.5524   20.0241 C   0  0  0  0  0  0
  -29.9228  -23.5117   21.1410 N   0  0  0  0  0  0
  -29.8020  -16.0818   21.1061 N   0  0  0  0  0  0
  -31.4843  -12.8007   19.1940 H   0  0  0  0  0  0
  -30.4644  -11.6569   20.0057 H   0  0  0  0  0  0
  -29.8651  -11.7867   17.5712 H   0  0  0  0  0  0
  -29.6100  -13.5091   17.7094 H   0  0  0  0  0  0
  -27.9580  -11.2874   18.9428 H   0  0  0  0  0  0
  -27.4014  -12.4839   17.8067 H   0  0  0  0  0  0
  -27.6151  -14.2613   19.4528 H   0  0  0  0  0  0
  -28.7749  -12.2079   21.3920 H   0  0  0  0  0  0
  -28.3085  -13.8224   21.8026 H   0  0  0  0  0  0
  -25.2808   -9.5680   22.4737 H   0  0  0  0  0  0
  -24.0044   -7.4624   22.7467 H   0  0  0  0  0  0
  -21.0855   -8.8778   19.8943 H   0  0  0  0  0  0
  -22.3749  -10.9662   19.6147 H   0  0  0  0  0  0
  -21.2009   -7.6154   23.9759 H   0  0  0  0  0  0
  -21.1463   -6.0510   25.9098 H   0  0  0  0  0  0
  -22.0601   -2.7618   23.2843 H   0  0  0  0  0  0
  -22.4074  -11.9878   22.4833 H   0  0  0  0  0  0
  -21.1074  -13.1217   22.2572 H   0  0  0  0  0  0
  -24.6571  -15.8486   20.5492 H   0  0  0  0  0  0
  -26.2796  -15.6368   20.1221 H   0  0  0  0  0  0
  -26.7295  -32.5278   23.0983 H   0  0  0  0  0  0
  -25.0178  -33.9602   25.0359 H   0  0  0  0  0  0
  -22.7548  -31.2908   21.3786 H   0  0  0  0  0  0
  -23.3790  -35.9510   23.3253 H   0  0  0  0  0  0
  -24.3585  -36.8890   22.2068 H   0  0  0  0  0  0
  -23.7192  -37.6373   23.6706 H   0  0  0  0  0  0
  -26.1745  -31.4579   20.6234 H   0  0  0  0  0  0
  -26.8769  -30.7491   22.0387 H   0  0  0  0  0  0
  -28.1255  -28.7559   21.2578 H   0  0  0  0  0  0
  -25.8918  -25.8443   18.9747 H   0  0  0  0  0  0
  -23.9810  -27.3145   18.9567 H   0  0  0  0  0  0
  -23.8102  -30.5689   19.3979 H   0  0  0  0  0  0
  -22.7900  -29.2343   19.8438 H   0  0  0  0  0  0
  -25.1315  -36.1829   25.0800 H   0  0  0  0  0  0
  -21.0007  -28.3346   24.1357 H   0  0  0  0  0  0
  -20.5703  -26.2366   23.3640 H   0  0  0  0  0  0
  -21.6656  -26.7463   22.1202 H   0  0  0  0  0  0
  -19.6935  -25.6290   21.1281 H   0  0  0  0  0  0
  -19.6730  -27.3193   20.6755 H   0  0  0  0  0  0
  -17.4232  -26.6753   21.3992 H   0  0  0  0  0  0
  -18.0308  -26.0098   22.8988 H   0  0  0  0  0  0
  -19.7954  -30.7331   24.2233 H   0  0  0  0  0  0
  -17.5019  -31.6296   24.5171 H   0  0  0  0  0  0
  -15.5362  -30.2999   23.7688 H   0  0  0  0  0  0
  -15.8681  -28.0823   22.7114 H   0  0  0  0  0  0
  -24.5961  -30.7044   25.7719 H   0  0  0  0  0  0
  -24.8860  -32.2935   26.4701 H   0  0  0  0  0  0
  -25.8009  -30.9031   27.0238 H   0  0  0  0  0  0
  -26.3013  -29.6665   24.1314 H   0  0  0  0  0  0
  -27.3982  -29.7245   25.4903 H   0  0  0  0  0  0
  -27.8949  -30.4145   23.9653 H   0  0  0  0  0  0
  -27.2720  -33.3678   26.1945 H   0  0  0  0  0  0
  -28.3950  -32.6786   25.0310 H   0  0  0  0  0  0
  -28.0716  -31.8505   26.5460 H   0  0  0  0  0  0
  -28.2555  -38.0108   24.7562 H   0  0  0  0  0  0
  -28.1129  -36.2634   24.6197 H   0  0  0  0  0  0
  -27.2314  -37.1280   25.8861 H   0  0  0  0  0  0
  -20.9493  -29.8713   21.6715 H   0  0  0  0  0  0
  -26.0128  -38.2795   24.1491 H   0  0  0  0  0  0
  -31.3815  -20.4679   21.5448 H   0  0  0  0  0  0
  -30.0102  -17.1212   24.2636 H   0  0  0  0  0  0
  -31.4927  -16.4801   23.5800 H   0  0  0  0  0  0
  -31.6557  -18.2116   22.1016 H   0  0  0  0  0  0
  -30.2742  -18.9614   22.9085 H   0  0  0  0  0  0
  -28.6278  -15.8823   22.8386 H   0  0  0  0  0  0
  -30.0055  -14.8209   22.8960 H   0  0  0  0  0  0
  -28.7405  -17.7907   21.6313 H   0  0  0  0  0  0
  -32.3891  -22.1524   22.9047 H   0  0  0  0  0  0
  -31.6158  -23.7193   23.1102 H   0  0  0  0  0  0
  -32.6948  -23.4415   21.7353 H   0  0  0  0  0  0
  -26.6189  -21.2594   17.2774 H   0  0  0  0  0  0
  -28.2980  -20.7675   17.4724 H   0  0  0  0  0  0
  -27.8679  -22.4773   17.4823 H   0  0  0  0  0  0
  -30.2639  -18.9005   19.3590 H   0  0  0  0  0  0
  -28.5682  -18.8014   19.5974 H   0  0  0  0  0  0
  -26.5358  -22.1072   19.6048 H   0  0  0  0  0  0
  -26.9834  -20.4309   19.6084 H   0  0  0  0  0  0
  -26.9479  -24.3739   20.5225 H   0  0  0  0  0  0
  -27.6946  -24.4484   18.9602 H   0  0  0  0  0  0
  1 25  1  0  0  0
  1 30  2  0  0  0
  1 86  1  0  0  0
  2  3  1  0  0  0
  2 25  1  0  0  0
  2 87  1  0  0  0
  2 88  1  0  0  0
  3  4  1  0  0  0
  3 89  1  0  0  0
  3 90  1  0  0  0
  4  5  1  0  0  0
  4 91  1  0  0  0
  4 92  1  0  0  0
  5  6  1  0  0  0
  5 26  1  0  0  0
  5 93  1  0  0  0
  6 25  1  0  0  0
  6 94  1  0  0  0
  6 95  1  0  0  0
  7  8  2  0  0  0
  7 26  1  0  0  0
  7 29  1  0  0  0
  8  9  1  0  0  0
  8 22  1  0  0  0
  9 10  1  0  0  0
  9 27  2  0  0  0
 10 11  2  0  0  0
 10 15  1  0  0  0
 11 12  1  0  0  0
 11 96  1  0  0  0
 12 13  2  0  0  0
 12 97  1  0  0  0
 13 14  1  0  0  0
 13 31  1  0  0  0
 14 15  2  0  0  0
 14 98  1  0  0  0
 15 99  1  0  0  0
 16 17  2  0  0  0
 16 21  1  0  0  0
 16 31  1  0  0  0
 17 18  1  0  0  0
 17100  1  0  0  0
 18 19  2  0  0  0
 18101  1  0  0  0
 19 20  1  0  0  0
 19 24  1  0  0  0
 20 21  2  0  0  0
 20102  1  0  0  0
 21 23  1  0  0  0
 22 28  1  0  0  0
 22 32  2  0  0  0
 26 27  1  0  0  0
 28103  1  0  0  0
 28104  1  0  0  0
 29105  1  0  0  0
 29106  1  0  0  0
 33 34  1  0  0  0
 33 66  1  0  0  0
 33 70  2  0  0  0
 34 36  1  0  0  0
 34 59  1  0  0  0
 34107  1  0  0  0
 35 44  2  0  0  0
 35 45  1  0  0  0
 35 68  1  0  0  0
 36 56  1  0  0  0
 36108  1  0  0  0
 37 39  1  0  0  0
 37 47  1  0  0  0
 37 66  1  0  0  0
 37109  1  0  0  0
 38 43  2  0  0  0
 38 46  1  0  0  0
 38 47  1  0  0  0
 39 64  1  0  0  0
 39 67  2  0  0  0
 40 52  1  0  0  0
 40 53  2  0  0  0
 40 58  1  0  0  0
 41110  1  0  0  0
 41111  1  0  0  0
 41112  1  0  0  0
 41 48  1  0  0  0
 42 43  1  0  0  0
 42 66  1  0  0  0
 42113  1  0  0  0
 42114  1  0  0  0
 43 44  1  0  0  0
 44115  1  0  0  0
 45 46  2  0  0  0
 45116  1  0  0  0
 46117  1  0  0  0
 47118  1  0  0  0
 47119  1  0  0  0
 48 56  1  0  0  0
 48 65  1  0  0  0
 48120  1  0  0  0
 49 50  1  0  0  0
 49 53  1  0  0  0
 49 64  1  0  0  0
 49121  1  0  0  0
 50 51  1  0  0  0
 50122  1  0  0  0
 50123  1  0  0  0
 51 52  1  0  0  0
 51124  1  0  0  0
 51125  1  0  0  0
 52126  1  0  0  0
 52127  1  0  0  0
 53 54  1  0  0  0
 54 55  2  0  0  0
 54128  1  0  0  0
 55 57  1  0  0  0
 55129  1  0  0  0
 56 69  2  0  0  0
 57 58  2  0  0  0
 57130  1  0  0  0
 58131  1  0  0  0
 59 60  1  0  0  0
 59 61  1  0  0  0
 59 62  1  0  0  0
 60132  1  0  0  0
 60133  1  0  0  0
 60134  1  0  0  0
 61135  1  0  0  0
 61136  1  0  0  0
 61137  1  0  0  0
 62138  1  0  0  0
 62139  1  0  0  0
 62140  1  0  0  0
 63 65  1  0  0  0
 63141  1  0  0  0
 63142  1  0  0  0
 63143  1  0  0  0
 64144  1  0  0  0
 65145  1  0  0  0
 68 84  1  0  0  0
 71 72  2  0  0  0
 71 74  1  0  0  0
 71146  1  0  0  0
 72 73  1  0  0  0
 72 82  1  0  0  0
 73 75  2  0  0  0
 73 83  1  0  0  0
 74 80  1  0  0  0
 74 85  2  0  0  0
 75 84  1  0  0  0
 75 85  1  0  0  0
 76 77  1  0  0  0
 76 78  1  0  0  0
 76147  1  0  0  0
 76148  1  0  0  0
 77 79  1  0  0  0
 77149  1  0  0  0
 77150  1  0  0  0
 78 86  1  0  0  0
 78151  1  0  0  0
 78152  1  0  0  0
 79 82  1  0  0  0
 79 86  1  0  0  0
 79153  1  0  0  0
 80154  1  0  0  0
 80155  1  0  0  0
 80156  1  0  0  0
 81 83  1  0  0  0
 81157  1  0  0  0
 81158  1  0  0  0
 81159  1  0  0  0
 82160  1  0  0  0
 82161  1  0  0  0
 83162  1  0  0  0
 83163  1  0  0  0
 84164  1  0  0  0
 84165  1  0  0  0
M  ISO  4   1 100  68 101  84 101  86 100
M  END
> <chiral flag>
0

> <version>
0

> <s_m_source_file>
/data/baiqing/PycharmProjects/Reinvent-master-3.2/result/LINK_invent/BTK/process_docking_weight1_custom_sum_contain_oxygen_bond_distance_aromatic_linkinvent_7_9_3/rearranged_h_0180.sdf

> <i_m_source_file_index>
91

> <r_mmod_Potential_Energy-OPLS-2005>
816.874328613281

> <r_mmod_Stretch_Energy-OPLS-2005>
329.167572021484

> <r_mmod_Bend_Energy-OPLS-2005>
391.352569580078

> <r_mmod_Torsional_Energy-OPLS-2005>
311.506011962891

> <r_mmod_Improper_Torsional_Energy-OPLS-2005>
7.26622819900513

> <r_mmod_Van_der_Waal_Energy-OPLS-2005>
140.172485351562

> <r_mmod_Electrostatic_Energy-OPLS-2005>
-362.0478515625

> <r_mmod_Solvation_Energy-OPLS-2005>
-218.904357910156

> <b_mmod_Minimization_Converged-OPLS-2005>
0

> <r_mmod_RMS_Derivative-OPLS-2005>
2.63112807273865

$$$$
91
                    3D
 Structure written by MMmdl.
161170  0  0  1  0            999 V2000
  -30.5427  -15.0244   20.4252 C   0  0  0  0  0  0
  -30.4292  -12.6441   19.5082 C   0  0  0  0  0  0
  -29.5186  -12.5531   18.2624 C   0  0  0  0  0  0
  -28.0569  -12.3182   18.6812 C   0  0  0  0  0  0
  -27.6207  -13.2569   19.8364 C   0  0  2  0  0  0
  -28.6617  -13.3118   20.9738 C   0  0  0  0  0  0
  -25.2375  -13.8213   20.5664 C   0  0  0  0  0  0
  -24.1739  -13.0416   20.9232 C   0  0  0  0  0  0
  -24.6380  -11.6918   20.8760 C   0  0  0  0  0  0
  -23.9086  -10.4286   21.0412 C   0  0  0  0  0  0
  -24.3639   -9.4198   21.9182 C   0  0  0  0  0  0
  -23.6313   -8.2236   22.0757 C   0  0  0  0  0  0
  -22.4293   -8.0271   21.3542 C   0  0  0  0  0  0
  -21.9928   -9.0242   20.4639 C   0  0  0  0  0  0
  -22.7259  -10.2120   20.3044 C   0  0  0  0  0  0
  -21.6856   -6.0733   22.5283 C   0  0  0  0  0  0
  -21.4001   -6.5636   23.8213 C   0  0  0  0  0  0
  -21.3666   -5.6789   24.9180 C   0  0  0  0  0  0
  -21.6057   -4.3054   24.7234 C   0  0  0  0  0  0
  -21.8819   -3.8144   23.4353 C   0  0  0  0  0  0
  -21.9190   -4.6959   22.3407 C   0  0  0  0  0  0
  -22.7764  -13.5170   21.1900 C   0  0  0  0  0  0
  -22.1656   -4.2151   21.0983 F   0  0  0  0  0  0
  -21.5641   -3.4534   25.7746 F   0  0  0  0  0  0
  -29.9229  -13.7634   20.3676 N   0  0  0  0  0  0
  -26.2828  -12.9473   20.3232 N   0  0  0  0  0  0
  -25.9314  -11.6591   20.5748 N   0  0  0  0  0  0
  -22.0428  -12.8145   22.0457 N   0  0  0  0  0  0
  -25.3921  -15.1937   20.4023 N   0  0  0  0  0  0
  -31.7430  -15.0275   20.1198 O   0  0  0  0  0  0
  -21.6650   -6.8874   21.4246 O   0  0  0  0  0  0
  -22.3443  -14.5477   20.6750 O   0  0  0  0  0  0
  -24.6495  -31.8414   23.1858 C   0  0  0  0  0  0
  -25.9245  -32.4690   23.8271 C   0  0  1  0  0  0
  -27.2096  -27.0867   20.1489 C   0  0  0  0  0  0
  -25.5977  -33.8496   24.2191 N   0  0  0  0  0  0
  -23.4551  -30.4595   21.5338 C   0  0  2  0  0  0
  -24.9032  -28.8816   20.1102 C   0  0  0  0  0  0
  -22.7596  -29.4534   22.4861 C   0  0  0  0  0  0
  -18.0310  -28.1405   22.8479 C   0  0  0  0  0  0
  -24.1487  -36.7229   23.2642 C   0  0  0  0  0  0
  -26.0162  -30.6971   21.3936 C   0  0  0  0  0  0
  -26.0845  -29.3042   20.7329 C   0  0  0  0  0  0
  -27.2376  -28.4233   20.7342 C   0  0  0  0  0  0
  -26.0029  -26.7850   19.4776 C   0  0  0  0  0  0
  -24.8798  -27.6378   19.4651 C   0  0  0  0  0  0
  -23.6832  -29.7895   20.1534 C   0  0  0  0  0  0
  -25.4129  -36.3030   24.0316 C   0  0  1  0  0  0
  -20.5926  -28.3739   23.1224 C   0  0  2  0  0  0
  -20.6797  -26.9438   22.5403 C   0  0  0  0  0  0
  -19.5768  -26.6389   21.5212 C   0  0  0  0  0  0
  -18.1946  -26.7941   22.1618 C   0  0  0  0  0  0
  -19.1567  -28.8892   23.2840 C   0  0  0  0  0  0
  -18.9476  -30.1482   23.8877 C   0  0  0  0  0  0
  -17.6479  -30.6605   24.0559 C   0  0  0  0  0  0
  -25.9083  -34.9409   23.5066 C   0  0  0  0  0  0
  -16.5366  -29.9097   23.6340 C   0  0  0  0  0  0
  -16.7293  -28.6506   23.0378 C   0  0  0  0  0  0
  -26.4554  -31.6569   25.0724 C   0  0  0  0  0  0
  -25.3730  -31.3753   26.1413 C   0  0  0  0  0  0
  -27.0424  -30.2961   24.6326 C   0  0  0  0  0  0
  -27.6091  -32.4330   25.7512 C   0  0  0  0  0  0
  -27.5586  -37.1768   24.8469 C   0  0  0  0  0  0
  -21.4282  -29.3054   22.3596 N   0  0  0  0  0  0
  -26.4283  -37.3756   23.9436 N   0  0  0  0  0  0
  -24.7278  -31.0214   22.0921 N   0  0  0  0  0  0
  -23.4202  -28.8087   23.3037 O   0  0  0  0  0  0
  -28.2291  -26.0507   20.2322 O   0  0  0  0  0  0
  -26.5669  -34.8908   22.4640 O   0  0  0  0  0  0
  -23.5595  -32.1312   23.7028 O   0  0  0  0  0  0
  -28.4051  -21.7155   20.1068 C   0  0  0  0  0  0
  -29.3268  -20.5823   20.4152 C   0  0  0  0  0  0
  -28.7798  -23.1492   20.3025 C   0  0  0  0  0  0
  -30.7895  -22.2789   21.0758 C   0  0  0  0  0  0
  -28.5592  -18.1918   21.5838 C   0  0  0  0  0  0
  -28.6964  -16.6257   21.3840 C   0  0  0  0  0  0
  -30.2311  -17.7331   20.0319 C   0  0  0  0  0  0
  -29.1066  -18.9130   20.3407 C   0  0  2  0  0  0
  -32.1591  -22.6051   21.6318 C   0  0  0  0  0  0
  -25.9627  -21.3242   20.7080 C   0  0  0  0  0  0
  -27.0058  -21.4112   19.5841 C   0  0  0  0  0  0
  -27.8762  -24.5279   19.9982 C   0  0  0  0  0  0
  -30.5101  -20.9747   20.9286 N   0  0  0  0  0  0
  -30.0202  -23.3380   20.7955 N   0  0  0  0  0  0
  -29.8347  -16.2897   20.5019 N   0  0  0  0  0  0
  -31.4624  -12.7977   19.1935 H   0  0  0  0  0  0
  -30.4292  -11.7007   20.0558 H   0  0  0  0  0  0
  -29.8512  -11.7544   17.5987 H   0  0  0  0  0  0
  -29.5938  -13.4787   17.6904 H   0  0  0  0  0  0
  -27.9679  -11.2785   18.9976 H   0  0  0  0  0  0
  -27.3937  -12.4317   17.8234 H   0  0  0  0  0  0
  -27.5709  -14.2537   19.3975 H   0  0  0  0  0  0
  -28.7734  -12.3372   21.4498 H   0  0  0  0  0  0
  -28.3367  -13.9912   21.7590 H   0  0  0  0  0  0
  -25.2777   -9.5661   22.4766 H   0  0  0  0  0  0
  -24.0013   -7.4619   22.7470 H   0  0  0  0  0  0
  -21.0858   -8.8747   19.8935 H   0  0  0  0  0  0
  -22.3717  -10.9653   19.6151 H   0  0  0  0  0  0
  -21.1971   -7.6137   23.9721 H   0  0  0  0  0  0
  -21.1496   -6.0518   25.9085 H   0  0  0  0  0  0
  -22.0586   -2.7603   23.2864 H   0  0  0  0  0  0
  -22.4070  -11.9796   22.4812 H   0  0  0  0  0  0
  -21.1046  -13.1152   22.2697 H   0  0  0  0  0  0
  -24.6117  -15.8328   20.5072 H   0  0  0  0  0  0
  -26.2239  -15.6375   20.0376 H   0  0  0  0  0  0
  -26.7309  -32.5274   23.0992 H   0  0  0  0  0  0
  -25.0153  -33.9620   25.0360 H   0  0  0  0  0  0
  -22.7602  -31.2867   21.3776 H   0  0  0  0  0  0
  -23.3791  -35.9514   23.3252 H   0  0  0  0  0  0
  -24.3579  -36.8912   22.2067 H   0  0  0  0  0  0
  -23.7180  -37.6378   23.6714 H   0  0  0  0  0  0
  -26.1800  -31.4484   20.6201 H   0  0  0  0  0  0
  -26.8829  -30.7480   22.0407 H   0  0  0  0  0  0
  -28.1359  -28.7395   21.2460 H   0  0  0  0  0  0
  -25.8814  -25.8401   18.9714 H   0  0  0  0  0  0
  -23.9813  -27.3139   18.9580 H   0  0  0  0  0  0
  -23.8218  -30.5650   19.3996 H   0  0  0  0  0  0
  -22.7962  -29.2361   19.8409 H   0  0  0  0  0  0
  -25.1308  -36.1862   25.0804 H   0  0  0  0  0  0
  -21.0006  -28.3337   24.1350 H   0  0  0  0  0  0
  -20.5705  -26.2352   23.3632 H   0  0  0  0  0  0
  -21.6664  -26.7463   22.1189 H   0  0  0  0  0  0
  -19.6935  -25.6291   21.1268 H   0  0  0  0  0  0
  -19.6707  -27.3182   20.6729 H   0  0  0  0  0  0
  -17.4218  -26.6702   21.4017 H   0  0  0  0  0  0
  -18.0335  -26.0090   22.9021 H   0  0  0  0  0  0
  -19.7955  -30.7305   24.2247 H   0  0  0  0  0  0
  -17.5028  -31.6288   24.5162 H   0  0  0  0  0  0
  -15.5371  -30.2995   23.7684 H   0  0  0  0  0  0
  -15.8687  -28.0816   22.7135 H   0  0  0  0  0  0
  -24.5937  -30.7075   25.7724 H   0  0  0  0  0  0
  -24.8895  -32.2928   26.4773 H   0  0  0  0  0  0
  -25.8006  -30.8976   27.0238 H   0  0  0  0  0  0
  -26.3052  -29.6679   24.1317 H   0  0  0  0  0  0
  -27.4015  -29.7268   25.4910 H   0  0  0  0  0  0
  -27.8968  -30.4199   23.9669 H   0  0  0  0  0  0
  -27.2719  -33.3679   26.2002 H   0  0  0  0  0  0
  -28.3954  -32.6807   25.0368 H   0  0  0  0  0  0
  -28.0702  -31.8508   26.5502 H   0  0  0  0  0  0
  -28.2562  -38.0106   24.7590 H   0  0  0  0  0  0
  -28.1124  -36.2645   24.6213 H   0  0  0  0  0  0
  -27.2313  -37.1305   25.8868 H   0  0  0  0  0  0
  -20.9515  -29.8745   21.6748 H   0  0  0  0  0  0
  -26.0143  -38.2806   24.1493 H   0  0  0  0  0  0
  -29.1593  -18.4961   22.4427 H   0  0  0  0  0  0
  -27.5325  -18.4873   21.8005 H   0  0  0  0  0  0
  -27.7934  -16.2448   20.9137 H   0  0  0  0  0  0
  -28.7918  -16.1315   22.3517 H   0  0  0  0  0  0
  -31.1555  -17.9904   20.5506 H   0  0  0  0  0  0
  -30.4799  -17.7199   18.9707 H   0  0  0  0  0  0
  -28.3573  -18.7837   19.5608 H   0  0  0  0  0  0
  -32.6901  -21.7070   21.9474 H   0  0  0  0  0  0
  -32.0742  -23.2653   22.4957 H   0  0  0  0  0  0
  -32.7657  -23.1085   20.8780 H   0  0  0  0  0  0
  -24.9720  -21.1141   20.3020 H   0  0  0  0  0  0
  -25.8913  -22.2564   21.2691 H   0  0  0  0  0  0
  -26.1989  -20.5305   21.4170 H   0  0  0  0  0  0
  -27.0100  -20.4826   19.0133 H   0  0  0  0  0  0
  -26.7069  -22.1807   18.8708 H   0  0  0  0  0  0
  -26.9321  -24.3593   20.5163 H   0  0  0  0  0  0
  -27.6392  -24.4527   18.9368 H   0  0  0  0  0  0
  1 25  1  0  0  0
  1 30  2  0  0  0
  1 85  1  0  0  0
  2  3  1  0  0  0
  2 25  1  0  0  0
  2 86  1  0  0  0
  2 87  1  0  0  0
  3  4  1  0  0  0
  3 88  1  0  0  0
  3 89  1  0  0  0
  4  5  1  0  0  0
  4 90  1  0  0  0
  4 91  1  0  0  0
  5  6  1  0  0  0
  5 26  1  0  0  0
  5 92  1  0  0  0
  6 25  1  0  0  0
  6 93  1  0  0  0
  6 94  1  0  0  0
  7  8  2  0  0  0
  7 26  1  0  0  0
  7 29  1  0  0  0
  8  9  1  0  0  0
  8 22  1  0  0  0
  9 10  1  0  0  0
  9 27  2  0  0  0
 10 11  2  0  0  0
 10 15  1  0  0  0
 11 12  1  0  0  0
 11 95  1  0  0  0
 12 13  2  0  0  0
 12 96  1  0  0  0
 13 14  1  0  0  0
 13 31  1  0  0  0
 14 15  2  0  0  0
 14 97  1  0  0  0
 15 98  1  0  0  0
 16 17  2  0  0  0
 16 21  1  0  0  0
 16 31  1  0  0  0
 17 18  1  0  0  0
 17 99  1  0  0  0
 18 19  2  0  0  0
 18100  1  0  0  0
 19 20  1  0  0  0
 19 24  1  0  0  0
 20 21  2  0  0  0
 20101  1  0  0  0
 21 23  1  0  0  0
 22 28  1  0  0  0
 22 32  2  0  0  0
 26 27  1  0  0  0
 28102  1  0  0  0
 28103  1  0  0  0
 29104  1  0  0  0
 29105  1  0  0  0
 33 34  1  0  0  0
 33 66  1  0  0  0
 33 70  2  0  0  0
 34 36  1  0  0  0
 34 59  1  0  0  0
 34106  1  0  0  0
 35 44  2  0  0  0
 35 45  1  0  0  0
 35 68  1  0  0  0
 36 56  1  0  0  0
 36107  1  0  0  0
 37 39  1  0  0  0
 37 47  1  0  0  0
 37 66  1  0  0  0
 37108  1  0  0  0
 38 43  2  0  0  0
 38 46  1  0  0  0
 38 47  1  0  0  0
 39 64  1  0  0  0
 39 67  2  0  0  0
 40 52  1  0  0  0
 40 53  2  0  0  0
 40 58  1  0  0  0
 41109  1  0  0  0
 41110  1  0  0  0
 41111  1  0  0  0
 41 48  1  0  0  0
 42 43  1  0  0  0
 42 66  1  0  0  0
 42112  1  0  0  0
 42113  1  0  0  0
 43 44  1  0  0  0
 44114  1  0  0  0
 45 46  2  0  0  0
 45115  1  0  0  0
 46116  1  0  0  0
 47117  1  0  0  0
 47118  1  0  0  0
 48 56  1  0  0  0
 48 65  1  0  0  0
 48119  1  0  0  0
 49 50  1  0  0  0
 49 53  1  0  0  0
 49 64  1  0  0  0
 49120  1  0  0  0
 50 51  1  0  0  0
 50121  1  0  0  0
 50122  1  0  0  0
 51 52  1  0  0  0
 51123  1  0  0  0
 51124  1  0  0  0
 52125  1  0  0  0
 52126  1  0  0  0
 53 54  1  0  0  0
 54 55  2  0  0  0
 54127  1  0  0  0
 55 57  1  0  0  0
 55128  1  0  0  0
 56 69  2  0  0  0
 57 58  2  0  0  0
 57129  1  0  0  0
 58130  1  0  0  0
 59 60  1  0  0  0
 59 61  1  0  0  0
 59 62  1  0  0  0
 60131  1  0  0  0
 60132  1  0  0  0
 60133  1  0  0  0
 61134  1  0  0  0
 61135  1  0  0  0
 61136  1  0  0  0
 62137  1  0  0  0
 62138  1  0  0  0
 62139  1  0  0  0
 63 65  1  0  0  0
 63140  1  0  0  0
 63141  1  0  0  0
 63142  1  0  0  0
 64143  1  0  0  0
 65144  1  0  0  0
 68 82  1  0  0  0
 71 72  2  0  0  0
 71 73  1  0  0  0
 71 81  1  0  0  0
 72 83  1  0  0  0
 72 78  1  0  0  0
 73 82  1  0  0  0
 73 84  2  0  0  0
 74 79  1  0  0  0
 74 83  2  0  0  0
 74 84  1  0  0  0
 75 76  1  0  0  0
 75 78  1  0  0  0
 75145  1  0  0  0
 75146  1  0  0  0
 76 85  1  0  0  0
 76147  1  0  0  0
 76148  1  0  0  0
 77 78  1  0  0  0
 77 85  1  0  0  0
 77149  1  0  0  0
 77150  1  0  0  0
 78151  1  0  0  0
 79152  1  0  0  0
 79153  1  0  0  0
 79154  1  0  0  0
 80 81  1  0  0  0
 80155  1  0  0  0
 80156  1  0  0  0
 80157  1  0  0  0
 81158  1  0  0  0
 81159  1  0  0  0
 82160  1  0  0  0
 82161  1  0  0  0
M  ISO  4   1 100  68 101  82 101  85 100
M  END
> <chiral flag>
0

> <version>
0

> <s_m_source_file>
/data/baiqing/PycharmProjects/Reinvent-master-3.2/result/LINK_invent/BTK/process_docking_weight1_custom_sum_contain_oxygen_bond_distance_aromatic_linkinvent_7_9_3/rearranged_h_0180.sdf

> <i_m_source_file_index>
92

> <r_mmod_Potential_Energy-OPLS-2005>
418.231597900391

> <r_mmod_Stretch_Energy-OPLS-2005>
298.263519287109

> <r_mmod_Bend_Energy-OPLS-2005>
309.332641601562

> <r_mmod_Torsional_Energy-OPLS-2005>
296.542724609375

> <r_mmod_Improper_Torsional_Energy-OPLS-2005>
8.94965076446533

> <r_mmod_Van_der_Waal_Energy-OPLS-2005>
128.249664306641

> <r_mmod_Electrostatic_Energy-OPLS-2005>
-627.474670410156

> <r_mmod_Solvation_Energy-OPLS-2005>
-239.428085327148

> <b_mmod_Minimization_Converged-OPLS-2005>
0

> <r_mmod_RMS_Derivative-OPLS-2005>
1.88697075843811

$$$$
92
                    3D
 Structure written by MMmdl.
157165  0  0  1  0            999 V2000
  -30.4727  -15.0600   20.3453 C   0  0  0  0  0  0
  -30.4373  -12.6691   19.4805 C   0  0  0  0  0  0
  -29.5117  -12.5313   18.2461 C   0  0  0  0  0  0
  -28.0550  -12.2932   18.6812 C   0  0  0  0  0  0
  -27.6149  -13.2493   19.8195 C   0  0  2  0  0  0
  -28.6609  -13.3356   20.9479 C   0  0  0  0  0  0
  -25.2370  -13.8190   20.5692 C   0  0  0  0  0  0
  -24.1724  -13.0440   20.9236 C   0  0  0  0  0  0
  -24.6341  -11.6915   20.8785 C   0  0  0  0  0  0
  -23.9050  -10.4283   21.0424 C   0  0  0  0  0  0
  -24.3612   -9.4220   21.9199 C   0  0  0  0  0  0
  -23.6294   -8.2251   22.0774 C   0  0  0  0  0  0
  -22.4285   -8.0277   21.3551 C   0  0  0  0  0  0
  -21.9907   -9.0260   20.4652 C   0  0  0  0  0  0
  -22.7229  -10.2130   20.3066 C   0  0  0  0  0  0
  -21.6856   -6.0719   22.5278 C   0  0  0  0  0  0
  -21.4014   -6.5623   23.8203 C   0  0  0  0  0  0
  -21.3665   -5.6788   24.9167 C   0  0  0  0  0  0
  -21.6044   -4.3044   24.7236 C   0  0  0  0  0  0
  -21.8821   -3.8132   23.4353 C   0  0  0  0  0  0
  -21.9186   -4.6944   22.3403 C   0  0  0  0  0  0
  -22.7720  -13.5212   21.1895 C   0  0  0  0  0  0
  -22.1654   -4.2130   21.0983 F   0  0  0  0  0  0
  -21.5646   -3.4534   25.7741 F   0  0  0  0  0  0
  -29.9092  -13.7826   20.3183 N   0  0  0  0  0  0
  -26.2805  -12.9429   20.3191 N   0  0  0  0  0  0
  -25.9283  -11.6566   20.5758 N   0  0  0  0  0  0
  -22.0381  -12.8234   22.0431 N   0  0  0  0  0  0
  -25.4017  -15.1924   20.4052 N   0  0  0  0  0  0
  -31.6991  -15.1136   20.1790 O   0  0  0  0  0  0
  -21.6653   -6.8885   21.4248 O   0  0  0  0  0  0
  -22.3430  -14.5544   20.6736 O   0  0  0  0  0  0
  -24.6490  -31.8417   23.1897 C   0  0  0  0  0  0
  -25.9253  -32.4645   23.8261 C   0  0  1  0  0  0
  -27.1906  -27.0967   20.0858 C   0  0  0  0  0  0
  -25.6027  -33.8457   24.2176 N   0  0  0  0  0  0
  -23.4481  -30.4654   21.5401 C   0  0  2  0  0  0
  -24.8853  -28.8860   20.0875 C   0  0  0  0  0  0
  -22.7572  -29.4557   22.4871 C   0  0  0  0  0  0
  -18.0324  -28.1316   22.8485 C   0  0  0  0  0  0
  -24.1500  -36.7241   23.2636 C   0  0  0  0  0  0
  -26.0098  -30.6868   21.3983 C   0  0  0  0  0  0
  -26.0649  -29.3009   20.7206 C   0  0  0  0  0  0
  -27.2172  -28.4186   20.6998 C   0  0  0  0  0  0
  -25.9813  -26.7872   19.4331 C   0  0  0  0  0  0
  -24.8599  -27.6459   19.4284 C   0  0  0  0  0  0
  -23.6651  -29.7949   20.1558 C   0  0  0  0  0  0
  -25.4128  -36.2988   24.0306 C   0  0  1  0  0  0
  -20.5938  -28.3825   23.1314 C   0  0  2  0  0  0
  -20.6927  -26.9478   22.5597 C   0  0  0  0  0  0
  -19.5953  -26.6373   21.5360 C   0  0  0  0  0  0
  -18.2135  -26.7803   22.1763 C   0  0  0  0  0  0
  -19.1541  -28.8892   23.2833 C   0  0  0  0  0  0
  -18.9348  -30.1516   23.8781 C   0  0  0  0  0  0
  -17.6297  -30.6570   24.0369 C   0  0  0  0  0  0
  -25.9105  -34.9372   23.5038 C   0  0  0  0  0  0
  -16.5257  -29.8947   23.6174 C   0  0  0  0  0  0
  -16.7258  -28.6346   23.0305 C   0  0  0  0  0  0
  -26.4553  -31.6518   25.0701 C   0  0  0  0  0  0
  -25.3736  -31.3713   26.1393 C   0  0  0  0  0  0
  -27.0434  -30.2923   24.6283 C   0  0  0  0  0  0
  -27.6067  -32.4285   25.7499 C   0  0  0  0  0  0
  -27.5574  -37.1771   24.8454 C   0  0  0  0  0  0
  -21.4251  -29.3142   22.3674 N   0  0  0  0  0  0
  -26.4278  -37.3710   23.9410 N   0  0  0  0  0  0
  -24.7230  -31.0187   22.0997 N   0  0  0  0  0  0
  -23.4218  -28.8070   23.2973 O   0  0  0  0  0  0
  -28.2390  -26.1015   20.1572 O   0  0  0  0  0  0
  -26.5626  -34.8886   22.4581 O   0  0  0  0  0  0
  -23.5629  -32.1358   23.7143 O   0  0  0  0  0  0
  -27.7814  -21.1469   18.5055 C   0  0  0  0  0  0
  -27.8472  -19.8118   18.0552 C   0  0  0  0  0  0
  -28.3655  -21.5334   19.7231 C   0  0  0  0  0  0
  -29.0893  -19.1168   19.8798 C   0  0  0  0  0  0
  -27.1858  -19.4088   16.7470 C   0  0  0  0  0  0
  -26.8408  -24.2913   22.2572 C   0  0  0  0  0  0
  -29.9707  -17.8202   20.4613 C   0  0  0  0  0  0
  -27.7738  -23.1403   21.8143 C   0  0  0  0  0  0
  -28.2582  -24.6245   19.5830 C   0  0  0  0  0  0
  -27.9853  -23.0827   20.2898 C   0  0  1  0  0  0
  -28.4813  -18.8305   18.7316 N   0  0  0  0  0  0
  -29.0363  -20.4459   20.3850 N   0  0  0  0  0  0
  -29.6688  -16.2490   20.3515 N   0  0  0  0  0  0
  -31.4599  -12.8665   19.1558 H   0  0  0  0  0  0
  -30.4820  -11.7422   20.0557 H   0  0  0  0  0  0
  -29.8556  -11.7189   17.6042 H   0  0  0  0  0  0
  -29.5574  -13.4405   17.6377 H   0  0  0  0  0  0
  -27.9909  -11.2614   19.0268 H   0  0  0  0  0  0
  -27.3783  -12.3766   17.8322 H   0  0  0  0  0  0
  -27.5555  -14.2362   19.3560 H   0  0  0  0  0  0
  -28.7923  -12.3766   21.4511 H   0  0  0  0  0  0
  -28.3452  -14.0475   21.7133 H   0  0  0  0  0  0
  -25.2751   -9.5680   22.4772 H   0  0  0  0  0  0
  -23.9985   -7.4637   22.7490 H   0  0  0  0  0  0
  -21.0840   -8.8766   19.8948 H   0  0  0  0  0  0
  -22.3696  -10.9666   19.6156 H   0  0  0  0  0  0
  -21.2022   -7.6138   23.9713 H   0  0  0  0  0  0
  -21.1475   -6.0511   25.9080 H   0  0  0  0  0  0
  -22.0598   -2.7599   23.2849 H   0  0  0  0  0  0
  -22.4001  -11.9898   22.4817 H   0  0  0  0  0  0
  -21.0965  -13.1213   22.2645 H   0  0  0  0  0  0
  -24.6282  -15.8378   20.5234 H   0  0  0  0  0  0
  -26.2338  -15.6316   20.0356 H   0  0  0  0  0  0
  -26.7276  -32.5175   23.0961 H   0  0  0  0  0  0
  -25.0189  -33.9517   25.0342 H   0  0  0  0  0  0
  -22.7558  -31.2980   21.3975 H   0  0  0  0  0  0
  -23.3763  -35.9567   23.3255 H   0  0  0  0  0  0
  -24.3603  -36.8933   22.2058 H   0  0  0  0  0  0
  -23.7272  -37.6436   23.6713 H   0  0  0  0  0  0
  -26.1675  -31.4405   20.6248 H   0  0  0  0  0  0
  -26.8862  -30.7281   22.0388 H   0  0  0  0  0  0
  -28.1233  -28.7330   21.1963 H   0  0  0  0  0  0
  -25.8732  -25.8333   18.9433 H   0  0  0  0  0  0
  -23.9635  -27.3229   18.9163 H   0  0  0  0  0  0
  -23.7983  -30.5804   19.4159 H   0  0  0  0  0  0
  -22.7703  -29.2549   19.8360 H   0  0  0  0  0  0
  -25.1326  -36.1796   25.0796 H   0  0  0  0  0  0
  -20.9962  -28.3497   24.1444 H   0  0  0  0  0  0
  -20.5935  -26.2459   23.3913 H   0  0  0  0  0  0
  -21.6815  -26.7643   22.1390 H   0  0  0  0  0  0
  -19.7290  -25.6298   21.1373 H   0  0  0  0  0  0
  -19.6789  -27.3252   20.6959 H   0  0  0  0  0  0
  -17.4431  -26.6273   21.4215 H   0  0  0  0  0  0
  -18.0744  -26.0079   22.9314 H   0  0  0  0  0  0
  -19.7766  -30.7450   24.2101 H   0  0  0  0  0  0
  -17.4771  -31.6291   24.4847 H   0  0  0  0  0  0
  -15.5254  -30.2797   23.7478 H   0  0  0  0  0  0
  -15.8676  -28.0551   22.7117 H   0  0  0  0  0  0
  -24.5917  -30.7036   25.7752 H   0  0  0  0  0  0
  -24.8898  -32.2896   26.4729 H   0  0  0  0  0  0
  -25.8006  -30.8957   27.0231 H   0  0  0  0  0  0
  -26.3048  -29.6615   24.1320 H   0  0  0  0  0  0
  -27.4110  -29.7240   25.4850 H   0  0  0  0  0  0
  -27.8938  -30.4200   23.9573 H   0  0  0  0  0  0
  -27.2644  -33.3610   26.2020 H   0  0  0  0  0  0
  -28.3896  -32.6808   25.0316 H   0  0  0  0  0  0
  -28.0696  -31.8421   26.5467 H   0  0  0  0  0  0
  -28.2551  -38.0100   24.7496 H   0  0  0  0  0  0
  -28.1106  -36.2624   24.6279 H   0  0  0  0  0  0
  -27.2277  -37.1400   25.8850 H   0  0  0  0  0  0
  -20.9449  -29.8935   21.6944 H   0  0  0  0  0  0
  -26.0137  -38.2778   24.1418 H   0  0  0  0  0  0
  -27.2239  -21.8689   17.9204 H   0  0  0  0  0  0
  -27.8915  -19.4771   15.9185 H   0  0  0  0  0  0
  -26.3422  -20.0541   16.5152 H   0  0  0  0  0  0
  -26.8060  -18.3887   16.7870 H   0  0  0  0  0  0
  -26.2966  -24.0221   23.1568 H   0  0  0  0  0  0
  -26.0867  -24.5399   21.5105 H   0  0  0  0  0  0
  -27.3871  -25.2115   22.4545 H   0  0  0  0  0  0
  -30.0951  -18.0203   21.5229 H   0  0  0  0  0  0
  -30.9647  -17.9608   20.0293 H   0  0  0  0  0  0
  -27.2702  -22.2195   22.1119 H   0  0  0  0  0  0
  -28.7207  -23.1683   22.3504 H   0  0  0  0  0  0
  -27.6837  -24.6367   18.6543 H   0  0  0  0  0  0
  -29.2829  -24.5696   19.2287 H   0  0  0  0  0  0
  -26.9323  -23.0064   20.0057 H   0  0  0  0  0  0
  -28.6806  -16.0583   20.3490 H   0  0  0  0  0  0
  1 25  1  0  0  0
  1 30  2  0  0  0
  1 83  1  0  0  0
  2  3  1  0  0  0
  2 25  1  0  0  0
  2 84  1  0  0  0
  2 85  1  0  0  0
  3  4  1  0  0  0
  3 86  1  0  0  0
  3 87  1  0  0  0
  4  5  1  0  0  0
  4 88  1  0  0  0
  4 89  1  0  0  0
  5  6  1  0  0  0
  5 26  1  0  0  0
  5 90  1  0  0  0
  6 25  1  0  0  0
  6 91  1  0  0  0
  6 92  1  0  0  0
  7  8  2  0  0  0
  7 26  1  0  0  0
  7 29  1  0  0  0
  8  9  1  0  0  0
  8 22  1  0  0  0
  9 10  1  0  0  0
  9 27  2  0  0  0
 10 11  2  0  0  0
 10 15  1  0  0  0
 11 12  1  0  0  0
 11 93  1  0  0  0
 12 13  2  0  0  0
 12 94  1  0  0  0
 13 14  1  0  0  0
 13 31  1  0  0  0
 14 15  2  0  0  0
 14 95  1  0  0  0
 15 96  1  0  0  0
 16 17  2  0  0  0
 16 21  1  0  0  0
 16 31  1  0  0  0
 17 18  1  0  0  0
 17 97  1  0  0  0
 18 19  2  0  0  0
 18 98  1  0  0  0
 19 20  1  0  0  0
 19 24  1  0  0  0
 20 21  2  0  0  0
 20 99  1  0  0  0
 21 23  1  0  0  0
 22 28  1  0  0  0
 22 32  2  0  0  0
 26 27  1  0  0  0
 28100  1  0  0  0
 28101  1  0  0  0
 29102  1  0  0  0
 29103  1  0  0  0
 33 34  1  0  0  0
 33 66  1  0  0  0
 33 70  2  0  0  0
 34 36  1  0  0  0
 34 59  1  0  0  0
 34104  1  0  0  0
 35 44  2  0  0  0
 35 45  1  0  0  0
 35 68  1  0  0  0
 36 56  1  0  0  0
 36105  1  0  0  0
 37 39  1  0  0  0
 37 47  1  0  0  0
 37 66  1  0  0  0
 37106  1  0  0  0
 38 43  2  0  0  0
 38 46  1  0  0  0
 38 47  1  0  0  0
 39 64  1  0  0  0
 39 67  2  0  0  0
 40 52  1  0  0  0
 40 53  2  0  0  0
 40 58  1  0  0  0
 41107  1  0  0  0
 41108  1  0  0  0
 41109  1  0  0  0
 41 48  1  0  0  0
 42 43  1  0  0  0
 42 66  1  0  0  0
 42110  1  0  0  0
 42111  1  0  0  0
 43 44  1  0  0  0
 44112  1  0  0  0
 45 46  2  0  0  0
 45113  1  0  0  0
 46114  1  0  0  0
 47115  1  0  0  0
 47116  1  0  0  0
 48 56  1  0  0  0
 48 65  1  0  0  0
 48117  1  0  0  0
 49 50  1  0  0  0
 49 53  1  0  0  0
 49 64  1  0  0  0
 49118  1  0  0  0
 50 51  1  0  0  0
 50119  1  0  0  0
 50120  1  0  0  0
 51 52  1  0  0  0
 51121  1  0  0  0
 51122  1  0  0  0
 52123  1  0  0  0
 52124  1  0  0  0
 53 54  1  0  0  0
 54 55  2  0  0  0
 54125  1  0  0  0
 55 57  1  0  0  0
 55126  1  0  0  0
 56 69  2  0  0  0
 57 58  2  0  0  0
 57127  1  0  0  0
 58128  1  0  0  0
 59 60  1  0  0  0
 59 61  1  0  0  0
 59 62  1  0  0  0
 60129  1  0  0  0
 60130  1  0  0  0
 60131  1  0  0  0
 61132  1  0  0  0
 61133  1  0  0  0
 61134  1  0  0  0
 62135  1  0  0  0
 62136  1  0  0  0
 62137  1  0  0  0
 63 65  1  0  0  0
 63138  1  0  0  0
 63139  1  0  0  0
 63140  1  0  0  0
 64141  1  0  0  0
 65142  1  0  0  0
 68 79  1  0  0  0
 71 72  2  0  0  0
 71 73  1  0  0  0
 71143  1  0  0  0
 72 75  1  0  0  0
 72 81  1  0  0  0
 73 80  1  0  0  0
 73 82  2  0  0  0
 74 77  1  0  0  0
 74 81  2  0  0  0
 74 82  1  0  0  0
 75144  1  0  0  0
 75145  1  0  0  0
 75146  1  0  0  0
 76 78  1  0  0  0
 76147  1  0  0  0
 76148  1  0  0  0
 76149  1  0  0  0
 77 83  1  0  0  0
 77150  1  0  0  0
 77151  1  0  0  0
 78152  1  0  0  0
 78153  1  0  0  0
 78 80  1  0  0  0
 79 80  1  0  0  0
 79154  1  0  0  0
 79155  1  0  0  0
 80156  1  0  0  0
 83157  1  0  0  0
M  ISO  4   1 100  68 101  79 101  83 100
M  END
> <chiral flag>
0

> <version>
0

> <s_m_source_file>
/data/baiqing/PycharmProjects/Reinvent-master-3.2/result/LINK_invent/BTK/process_docking_weight1_custom_sum_contain_oxygen_bond_distance_aromatic_linkinvent_7_9_3/rearranged_h_0180.sdf

> <i_m_source_file_index>
93

> <r_mmod_Potential_Energy-OPLS-2005>
200.458587646484

> <r_mmod_Stretch_Energy-OPLS-2005>
322.849273681641

> <r_mmod_Bend_Energy-OPLS-2005>
355.656768798828

> <r_mmod_Torsional_Energy-OPLS-2005>
227.617614746094

> <r_mmod_Improper_Torsional_Energy-OPLS-2005>
6.00195455551147

> <r_mmod_Van_der_Waal_Energy-OPLS-2005>
128.953033447266

> <r_mmod_Electrostatic_Energy-OPLS-2005>
-866.107177734375

> <r_mmod_Solvation_Energy-OPLS-2005>
-238.329345703125

> <b_mmod_Minimization_Converged-OPLS-2005>
0

> <r_mmod_RMS_Derivative-OPLS-2005>
8.24567222595215

$$$$
93
                    3D
 Structure written by MMmdl.
158167  0  0  1  0            999 V2000
  -30.7029  -14.5982   20.5024 C   0  0  0  0  0  0
  -30.4065  -12.3701   19.4605 C   0  0  0  0  0  0
  -29.4944  -12.4982   18.2257 C   0  0  0  0  0  0
  -28.0197  -12.3400   18.6348 C   0  0  0  0  0  0
  -27.6389  -13.2197   19.8538 C   0  0  2  0  0  0
  -28.6834  -13.1227   20.9879 C   0  0  0  0  0  0
  -25.2461  -13.8127   20.5687 C   0  0  0  0  0  0
  -24.1759  -13.0402   20.9238 C   0  0  0  0  0  0
  -24.6330  -11.6880   20.8718 C   0  0  0  0  0  0
  -23.8992  -10.4280   21.0370 C   0  0  0  0  0  0
  -24.3581   -9.4223   21.9157 C   0  0  0  0  0  0
  -23.6284   -8.2240   22.0742 C   0  0  0  0  0  0
  -22.4265   -8.0262   21.3534 C   0  0  0  0  0  0
  -21.9864   -9.0211   20.4618 C   0  0  0  0  0  0
  -22.7159  -10.2109   20.3025 C   0  0  0  0  0  0
  -21.6869   -6.0713   22.5275 C   0  0  0  0  0  0
  -21.4034   -6.5618   23.8204 C   0  0  0  0  0  0
  -21.3650   -5.6776   24.9166 C   0  0  0  0  0  0
  -21.6041   -4.3042   24.7227 C   0  0  0  0  0  0
  -21.8824   -3.8125   23.4352 C   0  0  0  0  0  0
  -21.9208   -4.6938   22.3411 C   0  0  0  0  0  0
  -22.7776  -13.5207   21.1897 C   0  0  0  0  0  0
  -22.1678   -4.2111   21.0985 F   0  0  0  0  0  0
  -21.5609   -3.4540   25.7748 F   0  0  0  0  0  0
  -30.0040  -13.4214   20.4199 N   0  0  0  0  0  0
  -26.2895  -12.9331   20.3276 N   0  0  0  0  0  0
  -25.9247  -11.6489   20.5683 N   0  0  0  0  0  0
  -22.0416  -12.8211   22.0480 N   0  0  0  0  0  0
  -25.4069  -15.1851   20.4050 N   0  0  0  0  0  0
  -31.8660  -14.6607   20.0967 O   0  0  0  0  0  0
  -21.6645   -6.8867   21.4242 O   0  0  0  0  0  0
  -22.3477  -14.5516   20.6737 O   0  0  0  0  0  0
  -24.6230  -31.8650   23.2017 C   0  0  0  0  0  0
  -25.9093  -32.4817   23.8358 C   0  0  1  0  0  0
  -27.2244  -27.3573   20.1308 C   0  0  0  0  0  0
  -25.5937  -33.8617   24.2315 N   0  0  0  0  0  0
  -23.4124  -30.4863   21.5447 C   0  0  2  0  0  0
  -24.8597  -28.9361   20.1164 C   0  0  0  0  0  0
  -22.7456  -29.4650   22.4947 C   0  0  0  0  0  0
  -18.0296  -28.1360   22.8491 C   0  0  0  0  0  0
  -24.1476  -36.7310   23.2637 C   0  0  0  0  0  0
  -25.9479  -30.8047   21.3664 C   0  0  0  0  0  0
  -26.0232  -29.4313   20.7199 C   0  0  0  0  0  0
  -27.2125  -28.6526   20.7191 C   0  0  0  0  0  0
  -26.0444  -26.8950   19.5144 C   0  0  0  0  0  0
  -24.8693  -27.6703   19.5044 C   0  0  0  0  0  0
  -23.6263  -29.8129   20.1629 C   0  0  0  0  0  0
  -25.4105  -36.3123   24.0345 C   0  0  1  0  0  0
  -20.5890  -28.3671   23.1276 C   0  0  2  0  0  0
  -20.6798  -26.9402   22.5423 C   0  0  0  0  0  0
  -19.5761  -26.6330   21.5261 C   0  0  0  0  0  0
  -18.1928  -26.7905   22.1633 C   0  0  0  0  0  0
  -19.1551  -28.8826   23.2904 C   0  0  0  0  0  0
  -18.9461  -30.1431   23.8925 C   0  0  0  0  0  0
  -17.6463  -30.6559   24.0585 C   0  0  0  0  0  0
  -25.9039  -34.9488   23.5140 C   0  0  0  0  0  0
  -16.5359  -29.9073   23.6311 C   0  0  0  0  0  0
  -16.7294  -28.6492   23.0329 C   0  0  0  0  0  0
  -26.4488  -31.6604   25.0709 C   0  0  0  0  0  0
  -25.3724  -31.3738   26.1429 C   0  0  0  0  0  0
  -27.0329  -30.3034   24.6153 C   0  0  0  0  0  0
  -27.6052  -32.4327   25.7478 C   0  0  0  0  0  0
  -27.5585  -37.1816   24.8468 C   0  0  0  0  0  0
  -21.4184  -29.3052   22.3700 N   0  0  0  0  0  0
  -26.4293  -37.3811   23.9418 N   0  0  0  0  0  0
  -24.6793  -31.0691   22.0945 N   0  0  0  0  0  0
  -23.4205  -28.8209   23.3021 O   0  0  0  0  0  0
  -28.3505  -26.5455   20.0996 O   0  0  0  0  0  0
  -26.5598  -34.8947   22.4688 O   0  0  0  0  0  0
  -23.5401  -32.1418   23.7381 O   0  0  0  0  0  0
  -29.1399  -22.9284   20.9539 C   0  0  0  0  0  0
  -28.8015  -21.5791   20.6520 C   0  0  0  0  0  0
  -28.2409  -23.9697   20.5907 C   0  0  0  0  0  0
  -26.8601  -22.3547   19.6990 C   0  0  0  0  0  0
  -28.9614  -16.4731   20.3479 C   0  0  0  0  0  0
  -30.8261  -17.0530   20.9702 C   0  0  0  0  0  0
  -29.4631  -17.7434   21.0678 C   0  0  0  0  0  0
  -25.5434  -22.0191   19.0351 C   0  0  0  0  0  0
  -29.6339  -20.3425   21.0954 C   0  0  0  0  0  0
  -28.4056  -25.4502   21.0696 C   0  0  0  0  0  0
  -27.6442  -21.3206   20.0107 N   0  0  0  0  0  0
  -27.0991  -23.6410   19.9506 N   0  0  0  0  0  0
  -30.0985  -15.7454   20.9619 N   0  0  0  0  0  0
  -29.2376  -19.0826   20.3916 N   0  3  0  0  0  0
  -31.4532  -12.4407   19.1593 H   0  0  0  0  0  0
  -30.3019  -11.3830   19.9146 H   0  0  0  0  0  0
  -29.7552  -11.7406   17.4858 H   0  0  0  0  0  0
  -29.6494  -13.4654   17.7481 H   0  0  0  0  0  0
  -27.8543  -11.2873   18.8665 H   0  0  0  0  0  0
  -27.3656  -12.5687   17.7910 H   0  0  0  0  0  0
  -27.6358  -14.2410   19.4804 H   0  0  0  0  0  0
  -28.4331  -13.8052   21.8022 H   0  0  0  0  0  0
  -28.6879  -12.1195   21.4132 H   0  0  0  0  0  0
  -25.2747   -9.5737   22.4702 H   0  0  0  0  0  0
  -24.0001   -7.4667   22.7498 H   0  0  0  0  0  0
  -21.0777   -8.8706   19.8958 H   0  0  0  0  0  0
  -22.3594  -10.9625   19.6126 H   0  0  0  0  0  0
  -21.2051   -7.6139   23.9697 H   0  0  0  0  0  0
  -21.1459   -6.0510   25.9058 H   0  0  0  0  0  0
  -22.0621   -2.7578   23.2867 H   0  0  0  0  0  0
  -22.3990  -11.9861   22.4870 H   0  0  0  0  0  0
  -21.1017  -13.1207   22.2640 H   0  0  0  0  0  0
  -24.6271  -15.8299   20.4871 H   0  0  0  0  0  0
  -26.2400  -15.6156   20.0284 H   0  0  0  0  0  0
  -26.7170  -32.5503   23.1115 H   0  0  0  0  0  0
  -25.0109  -33.9756   25.0482 H   0  0  0  0  0  0
  -22.7036  -31.3059   21.4014 H   0  0  0  0  0  0
  -23.3758  -35.9623   23.3302 H   0  0  0  0  0  0
  -24.3558  -36.8906   22.2045 H   0  0  0  0  0  0
  -23.7205  -37.6512   23.6630 H   0  0  0  0  0  0
  -26.0713  -31.5602   20.5885 H   0  0  0  0  0  0
  -26.8295  -30.8609   21.9909 H   0  0  0  0  0  0
  -28.1115  -29.0368   21.1819 H   0  0  0  0  0  0
  -26.0386  -25.9213   19.0446 H   0  0  0  0  0  0
  -23.9790  -27.2792   19.0302 H   0  0  0  0  0  0
  -23.7476  -30.5853   19.4031 H   0  0  0  0  0  0
  -22.7443  -29.2445   19.8627 H   0  0  0  0  0  0
  -25.1283  -36.1993   25.0841 H   0  0  0  0  0  0
  -21.0019  -28.3262   24.1391 H   0  0  0  0  0  0
  -20.5736  -26.2309   23.3648 H   0  0  0  0  0  0
  -21.6668  -26.7460   22.1204 H   0  0  0  0  0  0
  -19.6915  -25.6231   21.1306 H   0  0  0  0  0  0
  -19.6690  -27.3089   20.6750 H   0  0  0  0  0  0
  -17.4225  -26.6680   21.3993 H   0  0  0  0  0  0
  -18.0274  -26.0036   22.9002 H   0  0  0  0  0  0
  -19.7943  -30.7233   24.2312 H   0  0  0  0  0  0
  -17.5018  -31.6227   24.5233 H   0  0  0  0  0  0
  -15.5350  -30.2974   23.7597 H   0  0  0  0  0  0
  -15.8720  -28.0810   22.6995 H   0  0  0  0  0  0
  -24.5882  -30.7116   25.7746 H   0  0  0  0  0  0
  -24.8929  -32.2902   26.4884 H   0  0  0  0  0  0
  -25.8028  -30.8881   27.0194 H   0  0  0  0  0  0
  -26.2899  -29.6778   24.1185 H   0  0  0  0  0  0
  -27.4038  -29.7304   25.4661 H   0  0  0  0  0  0
  -27.8764  -30.4324   23.9362 H   0  0  0  0  0  0
  -27.2679  -33.3619   26.2087 H   0  0  0  0  0  0
  -28.3851  -32.6902   25.0298 H   0  0  0  0  0  0
  -28.0746  -31.8436   26.5365 H   0  0  0  0  0  0
  -28.2627  -38.0092   24.7532 H   0  0  0  0  0  0
  -28.1065  -36.2633   24.6289 H   0  0  0  0  0  0
  -27.2306  -37.1470   25.8871 H   0  0  0  0  0  0
  -20.9339  -29.8845   21.6995 H   0  0  0  0  0  0
  -26.0194  -38.2897   24.1408 H   0  0  0  0  0  0
  -30.0445  -23.1556   21.5038 H   0  0  0  0  0  0
  -28.9949  -16.5192   19.2569 H   0  0  0  0  0  0
  -27.9823  -16.1655   20.7101 H   0  0  0  0  0  0
  -31.4658  -17.2172   21.8389 H   0  0  0  0  0  0
  -31.3646  -17.2747   20.0431 H   0  0  0  0  0  0
  -29.1080  -17.7723   22.0996 H   0  0  0  0  0  0
  -25.1682  -21.0564   19.3832 H   0  0  0  0  0  0
  -25.6711  -21.9716   17.9545 H   0  0  0  0  0  0
  -24.7871  -22.7669   19.2715 H   0  0  0  0  0  0
  -29.4916  -20.2185   22.1678 H   0  0  0  0  0  0
  -30.6965  -20.5308   20.9376 H   0  0  0  0  0  0
  -29.3734  -25.5234   21.5660 H   0  0  0  0  0  0
  -27.6712  -25.6227   21.8593 H   0  0  0  0  0  0
  -28.2481  -19.2424   20.2559 H   0  0  0  0  0  0
  -29.6481  -19.1080   19.4743 H   0  0  0  0  0  0
  1 25  1  0  0  0
  1 30  2  0  0  0
  1 83  1  0  0  0
  2  3  1  0  0  0
  2 25  1  0  0  0
  2 85  1  0  0  0
  2 86  1  0  0  0
  3  4  1  0  0  0
  3 87  1  0  0  0
  3 88  1  0  0  0
  4  5  1  0  0  0
  4 89  1  0  0  0
  4 90  1  0  0  0
  5  6  1  0  0  0
  5 26  1  0  0  0
  5 91  1  0  0  0
  6 25  1  0  0  0
  6 92  1  0  0  0
  6 93  1  0  0  0
  7  8  2  0  0  0
  7 26  1  0  0  0
  7 29  1  0  0  0
  8  9  1  0  0  0
  8 22  1  0  0  0
  9 10  1  0  0  0
  9 27  2  0  0  0
 10 11  2  0  0  0
 10 15  1  0  0  0
 11 12  1  0  0  0
 11 94  1  0  0  0
 12 13  2  0  0  0
 12 95  1  0  0  0
 13 14  1  0  0  0
 13 31  1  0  0  0
 14 15  2  0  0  0
 14 96  1  0  0  0
 15 97  1  0  0  0
 16 17  2  0  0  0
 16 21  1  0  0  0
 16 31  1  0  0  0
 17 18  1  0  0  0
 17 98  1  0  0  0
 18 19  2  0  0  0
 18 99  1  0  0  0
 19 20  1  0  0  0
 19 24  1  0  0  0
 20 21  2  0  0  0
 20100  1  0  0  0
 21 23  1  0  0  0
 22 28  1  0  0  0
 22 32  2  0  0  0
 26 27  1  0  0  0
 28101  1  0  0  0
 28102  1  0  0  0
 29103  1  0  0  0
 29104  1  0  0  0
 33 34  1  0  0  0
 33 66  1  0  0  0
 33 70  2  0  0  0
 34 36  1  0  0  0
 34 59  1  0  0  0
 34105  1  0  0  0
 35 44  2  0  0  0
 35 45  1  0  0  0
 35 68  1  0  0  0
 36 56  1  0  0  0
 36106  1  0  0  0
 37 39  1  0  0  0
 37 47  1  0  0  0
 37 66  1  0  0  0
 37107  1  0  0  0
 38 43  2  0  0  0
 38 46  1  0  0  0
 38 47  1  0  0  0
 39 64  1  0  0  0
 39 67  2  0  0  0
 40 52  1  0  0  0
 40 53  2  0  0  0
 40 58  1  0  0  0
 41108  1  0  0  0
 41109  1  0  0  0
 41110  1  0  0  0
 41 48  1  0  0  0
 42 43  1  0  0  0
 42 66  1  0  0  0
 42111  1  0  0  0
 42112  1  0  0  0
 43 44  1  0  0  0
 44113  1  0  0  0
 45 46  2  0  0  0
 45114  1  0  0  0
 46115  1  0  0  0
 47116  1  0  0  0
 47117  1  0  0  0
 48 56  1  0  0  0
 48 65  1  0  0  0
 48118  1  0  0  0
 49 50  1  0  0  0
 49 53  1  0  0  0
 49 64  1  0  0  0
 49119  1  0  0  0
 50 51  1  0  0  0
 50120  1  0  0  0
 50121  1  0  0  0
 51 52  1  0  0  0
 51122  1  0  0  0
 51123  1  0  0  0
 52124  1  0  0  0
 52125  1  0  0  0
 53 54  1  0  0  0
 54 55  2  0  0  0
 54126  1  0  0  0
 55 57  1  0  0  0
 55127  1  0  0  0
 56 69  2  0  0  0
 57 58  2  0  0  0
 57128  1  0  0  0
 58129  1  0  0  0
 59 60  1  0  0  0
 59 61  1  0  0  0
 59 62  1  0  0  0
 60130  1  0  0  0
 60131  1  0  0  0
 60132  1  0  0  0
 61133  1  0  0  0
 61134  1  0  0  0
 61135  1  0  0  0
 62136  1  0  0  0
 62137  1  0  0  0
 62138  1  0  0  0
 63 65  1  0  0  0
 63139  1  0  0  0
 63140  1  0  0  0
 63141  1  0  0  0
 64142  1  0  0  0
 65143  1  0  0  0
 68 80  1  0  0  0
 71 72  2  0  0  0
 71 73  1  0  0  0
 71144  1  0  0  0
 72 79  1  0  0  0
 72 81  1  0  0  0
 73 80  1  0  0  0
 73 82  2  0  0  0
 74 78  1  0  0  0
 74 81  2  0  0  0
 74 82  1  0  0  0
 75 77  1  0  0  0
 75 83  1  0  0  0
 75145  1  0  0  0
 75146  1  0  0  0
 76 77  1  0  0  0
 76 83  1  0  0  0
 76147  1  0  0  0
 76148  1  0  0  0
 77 84  1  0  0  0
 77149  1  0  0  0
 78150  1  0  0  0
 78151  1  0  0  0
 78152  1  0  0  0
 79 84  1  0  0  0
 79153  1  0  0  0
 79154  1  0  0  0
 80155  1  0  0  0
 80156  1  0  0  0
 84157  1  0  0  0
 84158  1  0  0  0
M  CHG  1  84   1
M  ISO  4   1 100  68 101  80 101  83 100
M  END
> <chiral flag>
0

> <version>
0

> <s_m_source_file>
/data/baiqing/PycharmProjects/Reinvent-master-3.2/result/LINK_invent/BTK/process_docking_weight1_custom_sum_contain_oxygen_bond_distance_aromatic_linkinvent_7_9_3/rearranged_h_0180.sdf

> <i_m_source_file_index>
94

> <r_mmod_Potential_Energy-OPLS-2005>
-611.9501953125

> <r_mmod_Stretch_Energy-OPLS-2005>
59.6174011230469

> <r_mmod_Bend_Energy-OPLS-2005>
144.709503173828

> <r_mmod_Torsional_Energy-OPLS-2005>
315.128540039062

> <r_mmod_Improper_Torsional_Energy-OPLS-2005>
10.5571928024292

> <r_mmod_Van_der_Waal_Energy-OPLS-2005>
148.849151611328

> <r_mmod_Electrostatic_Energy-OPLS-2005>
-817.865783691406

> <r_mmod_Solvation_Energy-OPLS-2005>
-509.753143310547

> <b_mmod_Minimization_Converged-OPLS-2005>
0

> <r_mmod_RMS_Derivative-OPLS-2005>
3.45472383499146

$$$$
94
                    3D
 Structure written by MMmdl.
157166  0  0  1  0            999 V2000
  -30.6306  -14.7426   20.4951 C   0  0  0  0  0  0
  -30.4329  -12.4607   19.4812 C   0  0  0  0  0  0
  -29.5097  -12.5075   18.2428 C   0  0  0  0  0  0
  -28.0374  -12.3259   18.6561 C   0  0  0  0  0  0
  -27.6411  -13.2303   19.8533 C   0  0  2  0  0  0
  -28.6855  -13.1757   20.9897 C   0  0  0  0  0  0
  -25.2524  -13.8203   20.5724 C   0  0  0  0  0  0
  -24.1806  -13.0457   20.9217 C   0  0  0  0  0  0
  -24.6398  -11.6926   20.8763 C   0  0  0  0  0  0
  -23.9085  -10.4306   21.0415 C   0  0  0  0  0  0
  -24.3633   -9.4214   21.9190 C   0  0  0  0  0  0
  -23.6313   -8.2246   22.0758 C   0  0  0  0  0  0
  -22.4282   -8.0298   21.3551 C   0  0  0  0  0  0
  -21.9925   -9.0270   20.4646 C   0  0  0  0  0  0
  -22.7262  -10.2150   20.3066 C   0  0  0  0  0  0
  -21.6847   -6.0758   22.5290 C   0  0  0  0  0  0
  -21.4008   -6.5661   23.8227 C   0  0  0  0  0  0
  -21.3658   -5.6809   24.9178 C   0  0  0  0  0  0
  -21.6043   -4.3072   24.7217 C   0  0  0  0  0  0
  -21.8820   -3.8172   23.4343 C   0  0  0  0  0  0
  -21.9191   -4.6990   22.3401 C   0  0  0  0  0  0
  -22.7831  -13.5219   21.1898 C   0  0  0  0  0  0
  -22.1661   -4.2184   21.0975 F   0  0  0  0  0  0
  -21.5627   -3.4551   25.7728 F   0  0  0  0  0  0
  -29.9872  -13.5271   20.4085 N   0  0  0  0  0  0
  -26.2941  -12.9403   20.3311 N   0  0  0  0  0  0
  -25.9322  -11.6544   20.5769 N   0  0  0  0  0  0
  -22.0508  -12.8166   22.0447 N   0  0  0  0  0  0
  -25.4252  -15.1925   20.4156 N   0  0  0  0  0  0
  -31.8178  -14.8292   20.1696 O   0  0  0  0  0  0
  -21.6642   -6.8902   21.4254 O   0  0  0  0  0  0
  -22.3517  -14.5533   20.6779 O   0  0  0  0  0  0
  -24.6305  -31.8530   23.1949 C   0  0  0  0  0  0
  -25.9120  -32.4747   23.8311 C   0  0  1  0  0  0
  -27.2223  -27.2569   20.1200 C   0  0  0  0  0  0
  -25.5907  -33.8544   24.2227 N   0  0  0  0  0  0
  -23.4272  -30.4751   21.5395 C   0  0  2  0  0  0
  -24.8736  -28.9173   20.1076 C   0  0  0  0  0  0
  -22.7480  -29.4614   22.4908 C   0  0  0  0  0  0
  -18.0270  -28.1352   22.8509 C   0  0  0  0  0  0
  -24.1479  -36.7279   23.2642 C   0  0  0  0  0  0
  -25.9725  -30.7640   21.3746 C   0  0  0  0  0  0
  -26.0438  -29.3874   20.7155 C   0  0  0  0  0  0
  -27.2164  -28.5669   20.7127 C   0  0  0  0  0  0
  -26.0245  -26.8483   19.4922 C   0  0  0  0  0  0
  -24.8691  -27.6563   19.4896 C   0  0  0  0  0  0
  -23.6438  -29.8036   20.1574 C   0  0  0  0  0  0
  -25.4115  -36.3058   24.0316 C   0  0  1  0  0  0
  -20.5876  -28.3691   23.1250 C   0  0  2  0  0  0
  -20.6773  -26.9415   22.5357 C   0  0  0  0  0  0
  -19.5700  -26.6327   21.5228 C   0  0  0  0  0  0
  -18.1906  -26.7872   22.1691 C   0  0  0  0  0  0
  -19.1530  -28.8847   23.2845 C   0  0  0  0  0  0
  -18.9481  -30.1482   23.8805 C   0  0  0  0  0  0
  -17.6490  -30.6617   24.0473 C   0  0  0  0  0  0
  -25.9061  -34.9438   23.5084 C   0  0  0  0  0  0
  -16.5368  -29.9100   23.6313 C   0  0  0  0  0  0
  -16.7263  -28.6484   23.0412 C   0  0  0  0  0  0
  -26.4488  -31.6579   25.0713 C   0  0  0  0  0  0
  -25.3702  -31.3776   26.1430 C   0  0  0  0  0  0
  -27.0337  -30.2990   24.6211 C   0  0  0  0  0  0
  -27.6017  -32.4349   25.7501 C   0  0  0  0  0  0
  -27.5570  -37.1804   24.8474 C   0  0  0  0  0  0
  -21.4172  -29.3076   22.3664 N   0  0  0  0  0  0
  -26.4289  -37.3761   23.9407 N   0  0  0  0  0  0
  -24.6965  -31.0487   22.0935 N   0  0  0  0  0  0
  -23.4184  -28.8109   23.2966 O   0  0  0  0  0  0
  -28.3402  -26.3971   20.2092 O   0  0  0  0  0  0
  -26.5642  -34.8927   22.4655 O   0  0  0  0  0  0
  -23.5464  -32.1363   23.7242 O   0  0  0  0  0  0
  -29.1538  -22.4961   19.9648 C   0  0  0  0  0  0
  -28.3133  -23.6494   20.1999 C   0  0  0  0  0  0
  -28.8110  -21.2099   20.5097 C   0  0  0  0  0  0
  -26.9279  -22.2258   21.3706 C   0  0  0  0  0  0
  -30.3764  -18.9424   22.2171 C   0  0  0  0  0  0
  -30.6482  -17.4808   22.4580 C   0  0  0  0  0  0
  -29.4164  -18.6500   21.0117 C   0  0  1  0  0  0
  -30.4069  -17.3153   20.9683 C   0  0  1  0  0  0
  -25.5875  -22.0438   22.0485 C   0  0  0  0  0  0
  -28.4812  -25.0775   19.4970 C   0  0  0  0  0  0
  -27.1898  -23.4546   20.9188 N   0  0  0  0  0  0
  -27.6736  -21.1235   21.2177 N   0  0  0  0  0  0
  -29.5649  -19.9909   20.3048 N   0  0  0  0  0  0
  -29.8945  -15.8868   20.7735 N   0  0  0  0  0  0
  -31.4733  -12.5838   19.1752 H   0  0  0  0  0  0
  -30.3811  -11.4874   19.9737 H   0  0  0  0  0  0
  -29.7942  -11.7310   17.5311 H   0  0  0  0  0  0
  -29.6331  -13.4608   17.7261 H   0  0  0  0  0  0
  -27.8981  -11.2778   18.9240 H   0  0  0  0  0  0
  -27.3802  -12.5114   17.8049 H   0  0  0  0  0  0
  -27.6340  -14.2493   19.4677 H   0  0  0  0  0  0
  -28.7243  -12.1816   21.4379 H   0  0  0  0  0  0
  -28.4105  -13.8632   21.7906 H   0  0  0  0  0  0
  -25.2784   -9.5685   22.4754 H   0  0  0  0  0  0
  -24.0040   -7.4626   22.7454 H   0  0  0  0  0  0
  -21.0876   -8.8787   19.8927 H   0  0  0  0  0  0
  -22.3739  -10.9690   19.6171 H   0  0  0  0  0  0
  -21.2000   -7.6167   23.9734 H   0  0  0  0  0  0
  -21.1475   -6.0534   25.9080 H   0  0  0  0  0  0
  -22.0599   -2.7644   23.2826 H   0  0  0  0  0  0
  -22.4153  -11.9765   22.4688 H   0  0  0  0  0  0
  -21.1152  -13.1182   22.2754 H   0  0  0  0  0  0
  -24.6620  -15.8513   20.5232 H   0  0  0  0  0  0
  -26.2763  -15.6283   20.0857 H   0  0  0  0  0  0
  -26.7175  -32.5387   23.1041 H   0  0  0  0  0  0
  -25.0026  -33.9702   25.0349 H   0  0  0  0  0  0
  -22.7292  -31.3017   21.3898 H   0  0  0  0  0  0
  -23.3744  -35.9614   23.3334 H   0  0  0  0  0  0
  -24.3565  -36.8880   22.2057 H   0  0  0  0  0  0
  -23.7246  -37.6490   23.6657 H   0  0  0  0  0  0
  -26.1089  -31.5266   20.6072 H   0  0  0  0  0  0
  -26.8512  -30.8154   22.0049 H   0  0  0  0  0  0
  -28.1119  -28.9225   21.2018 H   0  0  0  0  0  0
  -25.9429  -25.8733   19.0366 H   0  0  0  0  0  0
  -23.9650  -27.2852   19.0244 H   0  0  0  0  0  0
  -23.7659  -30.5795   19.4001 H   0  0  0  0  0  0
  -22.7607  -29.2356   19.8570 H   0  0  0  0  0  0
  -25.1296  -36.1915   25.0811 H   0  0  0  0  0  0
  -21.0004  -28.3280   24.1352 H   0  0  0  0  0  0
  -21.6614  -26.7474   22.1074 H   0  0  0  0  0  0
  -20.5757  -26.2290   23.3537 H   0  0  0  0  0  0
  -19.6545  -27.3105   20.6726 H   0  0  0  0  0  0
  -19.6878  -25.6216   21.1304 H   0  0  0  0  0  0
  -17.4163  -26.6600   21.4119 H   0  0  0  0  0  0
  -18.0355  -26.0061   22.9142 H   0  0  0  0  0  0
  -19.7952  -30.7334   24.2137 H   0  0  0  0  0  0
  -17.5051  -31.6343   24.4963 H   0  0  0  0  0  0
  -15.5387  -30.3018   23.7636 H   0  0  0  0  0  0
  -15.8653  -28.0797   22.7225 H   0  0  0  0  0  0
  -24.5825  -30.7178   25.7772 H   0  0  0  0  0  0
  -24.8945  -32.2976   26.4847 H   0  0  0  0  0  0
  -25.7995  -30.8946   27.0210 H   0  0  0  0  0  0
  -26.2935  -29.6753   24.1177 H   0  0  0  0  0  0
  -27.3954  -29.7244   25.4743 H   0  0  0  0  0  0
  -27.8828  -30.4270   23.9493 H   0  0  0  0  0  0
  -27.2566  -33.3625   26.2089 H   0  0  0  0  0  0
  -28.3816  -32.6974   25.0333 H   0  0  0  0  0  0
  -28.0687  -31.8478   26.5414 H   0  0  0  0  0  0
  -28.2605  -38.0083   24.7461 H   0  0  0  0  0  0
  -28.1044  -36.2606   24.6357 H   0  0  0  0  0  0
  -27.2283  -37.1519   25.8879 H   0  0  0  0  0  0
  -20.9337  -29.8872   21.6934 H   0  0  0  0  0  0
  -26.0167  -38.2828   24.1424 H   0  0  0  0  0  0
  -30.0302  -22.6014   19.3427 H   0  0  0  0  0  0
  -31.2986  -19.4763   21.9691 H   0  0  0  0  0  0
  -29.8906  -19.4304   23.0641 H   0  0  0  0  0  0
  -29.8906  -17.0128   23.0903 H   0  0  0  0  0  0
  -31.6603  -17.2451   22.7964 H   0  0  0  0  0  0
  -29.4887  -18.3287   19.9718 H   0  0  0  0  0  0
  -31.3325  -17.5007   20.4103 H   0  0  0  0  0  0
  -24.7984  -22.0063   21.2972 H   0  0  0  0  0  0
  -25.3775  -22.8687   22.7281 H   0  0  0  0  0  0
  -25.5482  -21.1135   22.6162 H   0  0  0  0  0  0
  -27.8750  -25.0705   18.5925 H   0  0  0  0  0  0
  -29.5002  -25.0852   19.1083 H   0  0  0  0  0  0
  -30.3770  -20.0851   19.7041 H   0  0  0  0  0  0
  -28.9156  -15.7370   20.9627 H   0  0  0  0  0  0
  1 25  1  0  0  0
  1 30  2  0  0  0
  1 84  1  0  0  0
  2  3  1  0  0  0
  2 25  1  0  0  0
  2 85  1  0  0  0
  2 86  1  0  0  0
  3  4  1  0  0  0
  3 87  1  0  0  0
  3 88  1  0  0  0
  4  5  1  0  0  0
  4 89  1  0  0  0
  4 90  1  0  0  0
  5  6  1  0  0  0
  5 26  1  0  0  0
  5 91  1  0  0  0
  6 25  1  0  0  0
  6 92  1  0  0  0
  6 93  1  0  0  0
  7  8  2  0  0  0
  7 26  1  0  0  0
  7 29  1  0  0  0
  8  9  1  0  0  0
  8 22  1  0  0  0
  9 10  1  0  0  0
  9 27  2  0  0  0
 10 11  2  0  0  0
 10 15  1  0  0  0
 11 12  1  0  0  0
 11 94  1  0  0  0
 12 13  2  0  0  0
 12 95  1  0  0  0
 13 14  1  0  0  0
 13 31  1  0  0  0
 14 15  2  0  0  0
 14 96  1  0  0  0
 15 97  1  0  0  0
 16 17  2  0  0  0
 16 21  1  0  0  0
 16 31  1  0  0  0
 17 18  1  0  0  0
 17 98  1  0  0  0
 18 19  2  0  0  0
 18 99  1  0  0  0
 19 20  1  0  0  0
 19 24  1  0  0  0
 20 21  2  0  0  0
 20100  1  0  0  0
 21 23  1  0  0  0
 22 28  1  0  0  0
 22 32  2  0  0  0
 26 27  1  0  0  0
 28101  1  0  0  0
 28102  1  0  0  0
 29103  1  0  0  0
 29104  1  0  0  0
 33 34  1  0  0  0
 33 66  1  0  0  0
 33 70  2  0  0  0
 34 36  1  0  0  0
 34 59  1  0  0  0
 34105  1  0  0  0
 35 44  2  0  0  0
 35 45  1  0  0  0
 35 68  1  0  0  0
 36 56  1  0  0  0
 36106  1  0  0  0
 37 39  1  0  0  0
 37 47  1  0  0  0
 37 66  1  0  0  0
 37107  1  0  0  0
 38 43  2  0  0  0
 38 46  1  0  0  0
 38 47  1  0  0  0
 39 64  1  0  0  0
 39 67  2  0  0  0
 40 52  1  0  0  0
 40 53  2  0  0  0
 40 58  1  0  0  0
 41108  1  0  0  0
 41109  1  0  0  0
 41110  1  0  0  0
 41 48  1  0  0  0
 42 43  1  0  0  0
 42 66  1  0  0  0
 42111  1  0  0  0
 42112  1  0  0  0
 43 44  1  0  0  0
 44113  1  0  0  0
 45 46  2  0  0  0
 45114  1  0  0  0
 46115  1  0  0  0
 47116  1  0  0  0
 47117  1  0  0  0
 48 56  1  0  0  0
 48 65  1  0  0  0
 48118  1  0  0  0
 49 50  1  0  0  0
 49 53  1  0  0  0
 49 64  1  0  0  0
 49119  1  0  0  0
 50 51  1  0  0  0
 50120  1  0  0  0
 50121  1  0  0  0
 51 52  1  0  0  0
 51122  1  0  0  0
 51123  1  0  0  0
 52124  1  0  0  0
 52125  1  0  0  0
 53 54  1  0  0  0
 54 55  2  0  0  0
 54126  1  0  0  0
 55 57  1  0  0  0
 55127  1  0  0  0
 56 69  2  0  0  0
 57 58  2  0  0  0
 57128  1  0  0  0
 58129  1  0  0  0
 59 60  1  0  0  0
 59 61  1  0  0  0
 59 62  1  0  0  0
 60130  1  0  0  0
 60131  1  0  0  0
 60132  1  0  0  0
 61133  1  0  0  0
 61134  1  0  0  0
 61135  1  0  0  0
 62136  1  0  0  0
 62137  1  0  0  0
 62138  1  0  0  0
 63 65  1  0  0  0
 63139  1  0  0  0
 63140  1  0  0  0
 63141  1  0  0  0
 64142  1  0  0  0
 65143  1  0  0  0
 68 80  1  0  0  0
 71 72  2  0  0  0
 71 73  1  0  0  0
 71144  1  0  0  0
 72 80  1  0  0  0
 72 81  1  0  0  0
 73 82  2  0  0  0
 73 83  1  0  0  0
 74 79  1  0  0  0
 74 81  2  0  0  0
 74 82  1  0  0  0
 75 76  1  0  0  0
 75 77  1  0  0  0
 75145  1  0  0  0
 75146  1  0  0  0
 76 78  1  0  0  0
 76147  1  0  0  0
 76148  1  0  0  0
 77 78  1  0  0  0
 77 83  1  0  0  0
 77149  1  0  0  0
 78 84  1  0  0  0
 78150  1  0  0  0
 79151  1  0  0  0
 79152  1  0  0  0
 79153  1  0  0  0
 80154  1  0  0  0
 80155  1  0  0  0
 83156  1  0  0  0
 84157  1  0  0  0
M  ISO  4   1 100  68 101  80 101  84 100
M  END
> <chiral flag>
0

> <version>
0

> <s_m_source_file>
/data/baiqing/PycharmProjects/Reinvent-master-3.2/result/LINK_invent/BTK/process_docking_weight1_custom_sum_contain_oxygen_bond_distance_aromatic_linkinvent_7_9_3/rearranged_h_0180.sdf

> <i_m_source_file_index>
95

> <r_mmod_Potential_Energy-OPLS-2005>
-168.490325927734

> <r_mmod_Stretch_Energy-OPLS-2005>
126.749076843262

> <r_mmod_Bend_Energy-OPLS-2005>
411.637481689453

> <r_mmod_Torsional_Energy-OPLS-2005>
215.615676879883

> <r_mmod_Improper_Torsional_Energy-OPLS-2005>
5.20705556869507

> <r_mmod_Van_der_Waal_Energy-OPLS-2005>
146.928771972656

> <r_mmod_Electrostatic_Energy-OPLS-2005>
-910.971557617188

> <r_mmod_Solvation_Energy-OPLS-2005>
-248.088241577148

> <b_mmod_Minimization_Converged-OPLS-2005>
0

> <r_mmod_RMS_Derivative-OPLS-2005>
3.42288565635681

$$$$
95
                    3D
 Structure written by MMmdl.
157166  0  0  1  0            999 V2000
  -30.5924  -14.9099   20.4240 C   0  0  0  0  0  0
  -30.4283  -12.5634   19.4982 C   0  0  0  0  0  0
  -29.5162  -12.5217   18.2530 C   0  0  0  0  0  0
  -28.0483  -12.3191   18.6710 C   0  0  0  0  0  0
  -27.6292  -13.2518   19.8389 C   0  0  2  0  0  0
  -28.6722  -13.2872   20.9758 C   0  0  0  0  0  0
  -25.2468  -13.8229   20.5728 C   0  0  0  0  0  0
  -24.1780  -13.0448   20.9222 C   0  0  0  0  0  0
  -24.6398  -11.6935   20.8746 C   0  0  0  0  0  0
  -23.9084  -10.4302   21.0397 C   0  0  0  0  0  0
  -24.3625   -9.4215   21.9176 C   0  0  0  0  0  0
  -23.6307   -8.2248   22.0746 C   0  0  0  0  0  0
  -22.4289   -8.0280   21.3538 C   0  0  0  0  0  0
  -21.9925   -9.0257   20.4640 C   0  0  0  0  0  0
  -22.7252  -10.2138   20.3051 C   0  0  0  0  0  0
  -21.6858   -6.0736   22.5277 C   0  0  0  0  0  0
  -21.4015   -6.5639   23.8210 C   0  0  0  0  0  0
  -21.3664   -5.6791   24.9171 C   0  0  0  0  0  0
  -21.6046   -4.3055   24.7219 C   0  0  0  0  0  0
  -21.8819   -3.8147   23.4341 C   0  0  0  0  0  0
  -21.9194   -4.6962   22.3398 C   0  0  0  0  0  0
  -22.7801  -13.5222   21.1875 C   0  0  0  0  0  0
  -22.1662   -4.2148   21.0975 F   0  0  0  0  0  0
  -21.5634   -3.4539   25.7732 F   0  0  0  0  0  0
  -29.9491  -13.6762   20.3677 N   0  0  0  0  0  0
  -26.2893  -12.9466   20.3267 N   0  0  0  0  0  0
  -25.9331  -11.6591   20.5742 N   0  0  0  0  0  0
  -22.0449  -12.8212   22.0428 N   0  0  0  0  0  0
  -25.4158  -15.1956   20.4174 N   0  0  0  0  0  0
  -31.7961  -14.9146   20.1399 O   0  0  0  0  0  0
  -21.6646   -6.8880   21.4241 O   0  0  0  0  0  0
  -22.3483  -14.5525   20.6719 O   0  0  0  0  0  0
  -24.6433  -31.8460   23.1906 C   0  0  0  0  0  0
  -25.9210  -32.4704   23.8289 C   0  0  1  0  0  0
  -27.2061  -27.1455   20.1389 C   0  0  0  0  0  0
  -25.5963  -33.8510   24.2207 N   0  0  0  0  0  0
  -23.4452  -30.4686   21.5369 C   0  0  2  0  0  0
  -24.8915  -28.9017   20.1080 C   0  0  0  0  0  0
  -22.7568  -29.4562   22.4869 C   0  0  0  0  0  0
  -18.0302  -28.1400   22.8478 C   0  0  0  0  0  0
  -24.1492  -36.7266   23.2641 C   0  0  0  0  0  0
  -26.0021  -30.7220   21.3886 C   0  0  0  0  0  0
  -26.0708  -29.3355   20.7268 C   0  0  0  0  0  0
  -27.2305  -28.4729   20.7277 C   0  0  0  0  0  0
  -26.0011  -26.8184   19.4752 C   0  0  0  0  0  0
  -24.8692  -27.6563   19.4675 C   0  0  0  0  0  0
  -23.6697  -29.8039   20.1540 C   0  0  0  0  0  0
  -25.4123  -36.3041   24.0318 C   0  0  1  0  0  0
  -20.5916  -28.3726   23.1239 C   0  0  2  0  0  0
  -20.6790  -26.9432   22.5402 C   0  0  0  0  0  0
  -19.5760  -26.6384   21.5216 C   0  0  0  0  0  0
  -18.1942  -26.7937   22.1625 C   0  0  0  0  0  0
  -19.1559  -28.8880   23.2851 C   0  0  0  0  0  0
  -18.9478  -30.1476   23.8876 C   0  0  0  0  0  0
  -17.6474  -30.6595   24.0559 C   0  0  0  0  0  0
  -25.9072  -34.9413   23.5070 C   0  0  0  0  0  0
  -16.5364  -29.9089   23.6335 C   0  0  0  0  0  0
  -16.7286  -28.6507   23.0355 C   0  0  0  0  0  0
  -26.4521  -31.6568   25.0731 C   0  0  0  0  0  0
  -25.3702  -31.3765   26.1428 C   0  0  0  0  0  0
  -27.0378  -30.2961   24.6310 C   0  0  0  0  0  0
  -27.6050  -32.4332   25.7517 C   0  0  0  0  0  0
  -27.5580  -37.1787   24.8461 C   0  0  0  0  0  0
  -21.4263  -29.3054   22.3616 N   0  0  0  0  0  0
  -26.4284  -37.3757   23.9410 N   0  0  0  0  0  0
  -24.7167  -31.0326   22.0938 N   0  0  0  0  0  0
  -23.4219  -28.8108   23.3011 O   0  0  0  0  0  0
  -28.2408  -26.1449   20.2184 O   0  0  0  0  0  0
  -26.5657  -34.8905   22.4645 O   0  0  0  0  0  0
  -23.5551  -32.1340   23.7129 O   0  0  0  0  0  0
  -28.4816  -21.9148   20.1281 C   0  0  0  0  0  0
  -28.8186  -23.3356   20.3285 C   0  0  0  0  0  0
  -29.4027  -20.8340   20.4734 C   0  0  0  0  0  0
  -30.8335  -22.5407   21.1349 C   0  0  0  0  0  0
  -30.1708  -18.6744   19.4035 C   0  0  0  0  0  0
  -29.3650  -18.5145   21.5579 C   0  0  0  0  0  0
  -29.9978  -17.0901   19.1772 C   0  0  0  0  0  0
  -29.1891  -16.9041   21.4383 C   0  0  0  0  0  0
  -32.1940  -22.8864   21.6979 C   0  0  0  0  0  0
  -27.8854  -24.6462   20.0007 C   0  0  0  0  0  0
  -30.0389  -23.5764   20.8461 N   0  0  0  0  0  0
  -30.5809  -21.2348   20.9807 N   0  0  0  0  0  0
  -29.2360  -19.3630   20.3331 N   0  0  0  0  0  0
  -29.8763  -16.1420   20.3404 N   0  0  0  0  0  0
  -31.4666  -12.6914   19.1892 H   0  0  0  0  0  0
  -30.3970  -11.6137   20.0350 H   0  0  0  0  0  0
  -29.8307  -11.7225   17.5803 H   0  0  0  0  0  0
  -29.6144  -13.4529   17.6919 H   0  0  0  0  0  0
  -27.9377  -11.2784   18.9771 H   0  0  0  0  0  0
  -27.3858  -12.4555   17.8154 H   0  0  0  0  0  0
  -27.5934  -14.2548   19.4126 H   0  0  0  0  0  0
  -28.7497  -12.3200   21.4746 H   0  0  0  0  0  0
  -28.3799  -14.0102   21.7388 H   0  0  0  0  0  0
  -25.2761   -9.5703   22.4759 H   0  0  0  0  0  0
  -24.0019   -7.4640   22.7470 H   0  0  0  0  0  0
  -21.0852   -8.8778   19.8953 H   0  0  0  0  0  0
  -22.3699  -10.9678   19.6173 H   0  0  0  0  0  0
  -21.2005   -7.6146   23.9714 H   0  0  0  0  0  0
  -21.1492   -6.0516   25.9076 H   0  0  0  0  0  0
  -22.0596   -2.7610   23.2832 H   0  0  0  0  0  0
  -22.4068  -11.9888   22.4840 H   0  0  0  0  0  0
  -21.1061  -13.1232   22.2614 H   0  0  0  0  0  0
  -24.6531  -15.8525   20.5391 H   0  0  0  0  0  0
  -26.2718  -15.6356   20.1033 H   0  0  0  0  0  0
  -26.7283  -32.5314   23.1024 H   0  0  0  0  0  0
  -25.0070  -33.9624   25.0326 H   0  0  0  0  0  0
  -22.7471  -31.2951   21.3862 H   0  0  0  0  0  0
  -23.3759  -35.9592   23.3281 H   0  0  0  0  0  0
  -24.3584  -36.8918   22.2061 H   0  0  0  0  0  0
  -23.7235  -37.6452   23.6688 H   0  0  0  0  0  0
  -26.1585  -31.4782   20.6181 H   0  0  0  0  0  0
  -26.8730  -30.7692   22.0306 H   0  0  0  0  0  0
  -28.1273  -28.7971   21.2369 H   0  0  0  0  0  0
  -25.8861  -25.8720   18.9701 H   0  0  0  0  0  0
  -23.9689  -27.3210   18.9701 H   0  0  0  0  0  0
  -23.8080  -30.5814   19.4015 H   0  0  0  0  0  0
  -22.7834  -29.2490   19.8417 H   0  0  0  0  0  0
  -25.1305  -36.1871   25.0809 H   0  0  0  0  0  0
  -21.0002  -28.3314   24.1363 H   0  0  0  0  0  0
  -20.5692  -26.2344   23.3621 H   0  0  0  0  0  0
  -21.6656  -26.7446   22.1196 H   0  0  0  0  0  0
  -19.6922  -25.6290   21.1261 H   0  0  0  0  0  0
  -19.6691  -27.3180   20.6733 H   0  0  0  0  0  0
  -17.4213  -26.6681   21.4026 H   0  0  0  0  0  0
  -18.0339  -26.0086   22.9028 H   0  0  0  0  0  0
  -19.7956  -30.7296   24.2238 H   0  0  0  0  0  0
  -17.5028  -31.6270   24.5169 H   0  0  0  0  0  0
  -15.5365  -30.2981   23.7670 H   0  0  0  0  0  0
  -15.8688  -28.0816   22.7079 H   0  0  0  0  0  0
  -24.5865  -30.7134   25.7749 H   0  0  0  0  0  0
  -24.8908  -32.2952   26.4820 H   0  0  0  0  0  0
  -25.7976  -30.8951   27.0233 H   0  0  0  0  0  0
  -26.2992  -29.6690   24.1305 H   0  0  0  0  0  0
  -27.3975  -29.7257   25.4884 H   0  0  0  0  0  0
  -27.8911  -30.4195   23.9637 H   0  0  0  0  0  0
  -27.2635  -33.3638   26.2064 H   0  0  0  0  0  0
  -28.3876  -32.6889   25.0361 H   0  0  0  0  0  0
  -28.0705  -31.8485   26.5461 H   0  0  0  0  0  0
  -28.2577  -38.0102   24.7527 H   0  0  0  0  0  0
  -28.1091  -36.2633   24.6255 H   0  0  0  0  0  0
  -27.2304  -37.1402   25.8863 H   0  0  0  0  0  0
  -20.9477  -29.8780   21.6805 H   0  0  0  0  0  0
  -26.0152  -38.2822   24.1417 H   0  0  0  0  0  0
  -27.5151  -21.6637   19.7120 H   0  0  0  0  0  0
  -30.0998  -19.1727   18.4354 H   0  0  0  0  0  0
  -31.1898  -18.8631   19.7459 H   0  0  0  0  0  0
  -30.3473  -18.7146   21.9909 H   0  0  0  0  0  0
  -28.6552  -18.8895   22.2962 H   0  0  0  0  0  0
  -30.8105  -16.7543   18.5303 H   0  0  0  0  0  0
  -29.0956  -16.9397   18.5833 H   0  0  0  0  0  0
  -28.1250  -16.6909   21.3327 H   0  0  0  0  0  0
  -29.4743  -16.4572   22.3922 H   0  0  0  0  0  0
  -32.2575  -23.9398   21.9724 H   0  0  0  0  0  0
  -32.9687  -22.6811   20.9598 H   0  0  0  0  0  0
  -32.4012  -22.2955   22.5894 H   0  0  0  0  0  0
  -26.9583  -24.4621   20.5447 H   0  0  0  0  0  0
  -27.6361  -24.5404   18.9447 H   0  0  0  0  0  0
  1 25  1  0  0  0
  1 30  2  0  0  0
  1 84  1  0  0  0
  2  3  1  0  0  0
  2 25  1  0  0  0
  2 85  1  0  0  0
  2 86  1  0  0  0
  3  4  1  0  0  0
  3 87  1  0  0  0
  3 88  1  0  0  0
  4  5  1  0  0  0
  4 89  1  0  0  0
  4 90  1  0  0  0
  5  6  1  0  0  0
  5 26  1  0  0  0
  5 91  1  0  0  0
  6 25  1  0  0  0
  6 92  1  0  0  0
  6 93  1  0  0  0
  7  8  2  0  0  0
  7 26  1  0  0  0
  7 29  1  0  0  0
  8  9  1  0  0  0
  8 22  1  0  0  0
  9 10  1  0  0  0
  9 27  2  0  0  0
 10 11  2  0  0  0
 10 15  1  0  0  0
 11 12  1  0  0  0
 11 94  1  0  0  0
 12 13  2  0  0  0
 12 95  1  0  0  0
 13 14  1  0  0  0
 13 31  1  0  0  0
 14 15  2  0  0  0
 14 96  1  0  0  0
 15 97  1  0  0  0
 16 17  2  0  0  0
 16 21  1  0  0  0
 16 31  1  0  0  0
 17 18  1  0  0  0
 17 98  1  0  0  0
 18 19  2  0  0  0
 18 99  1  0  0  0
 19 20  1  0  0  0
 19 24  1  0  0  0
 20 21  2  0  0  0
 20100  1  0  0  0
 21 23  1  0  0  0
 22 28  1  0  0  0
 22 32  2  0  0  0
 26 27  1  0  0  0
 28101  1  0  0  0
 28102  1  0  0  0
 29103  1  0  0  0
 29104  1  0  0  0
 33 34  1  0  0  0
 33 66  1  0  0  0
 33 70  2  0  0  0
 34 36  1  0  0  0
 34 59  1  0  0  0
 34105  1  0  0  0
 35 44  2  0  0  0
 35 45  1  0  0  0
 35 68  1  0  0  0
 36 56  1  0  0  0
 36106  1  0  0  0
 37 39  1  0  0  0
 37 47  1  0  0  0
 37 66  1  0  0  0
 37107  1  0  0  0
 38 43  2  0  0  0
 38 46  1  0  0  0
 38 47  1  0  0  0
 39 64  1  0  0  0
 39 67  2  0  0  0
 40 52  1  0  0  0
 40 53  2  0  0  0
 40 58  1  0  0  0
 41108  1  0  0  0
 41109  1  0  0  0
 41110  1  0  0  0
 41 48  1  0  0  0
 42 43  1  0  0  0
 42 66  1  0  0  0
 42111  1  0  0  0
 42112  1  0  0  0
 43 44  1  0  0  0
 44113  1  0  0  0
 45 46  2  0  0  0
 45114  1  0  0  0
 46115  1  0  0  0
 47116  1  0  0  0
 47117  1  0  0  0
 48 56  1  0  0  0
 48 65  1  0  0  0
 48118  1  0  0  0
 49 50  1  0  0  0
 49 53  1  0  0  0
 49 64  1  0  0  0
 49119  1  0  0  0
 50 51  1  0  0  0
 50120  1  0  0  0
 50121  1  0  0  0
 51 52  1  0  0  0
 51122  1  0  0  0
 51123  1  0  0  0
 52124  1  0  0  0
 52125  1  0  0  0
 53 54  1  0  0  0
 54 55  2  0  0  0
 54126  1  0  0  0
 55 57  1  0  0  0
 55127  1  0  0  0
 56 69  2  0  0  0
 57 58  2  0  0  0
 57128  1  0  0  0
 58129  1  0  0  0
 59 60  1  0  0  0
 59 61  1  0  0  0
 59 62  1  0  0  0
 60130  1  0  0  0
 60131  1  0  0  0
 60132  1  0  0  0
 61133  1  0  0  0
 61134  1  0  0  0
 61135  1  0  0  0
 62136  1  0  0  0
 62137  1  0  0  0
 62138  1  0  0  0
 63 65  1  0  0  0
 63139  1  0  0  0
 63140  1  0  0  0
 63141  1  0  0  0
 64142  1  0  0  0
 65143  1  0  0  0
 68 80  1  0  0  0
 71 72  2  0  0  0
 71 73  1  0  0  0
 71144  1  0  0  0
 72 80  1  0  0  0
 72 81  1  0  0  0
 73 82  2  0  0  0
 73 83  1  0  0  0
 74 79  1  0  0  0
 74 81  2  0  0  0
 74 82  1  0  0  0
 75 77  1  0  0  0
 75 83  1  0  0  0
 75145  1  0  0  0
 75146  1  0  0  0
 76 78  1  0  0  0
 76 83  1  0  0  0
 76147  1  0  0  0
 76148  1  0  0  0
 77 84  1  0  0  0
 77149  1  0  0  0
 77150  1  0  0  0
 78 84  1  0  0  0
 78151  1  0  0  0
 78152  1  0  0  0
 79153  1  0  0  0
 79154  1  0  0  0
 79155  1  0  0  0
 80156  1  0  0  0
 80157  1  0  0  0
M  ISO  4   1 100  68 101  80 101  84 100
M  END
> <chiral flag>
0

> <version>
0

> <s_m_source_file>
/data/baiqing/PycharmProjects/Reinvent-master-3.2/result/LINK_invent/BTK/process_docking_weight1_custom_sum_contain_oxygen_bond_distance_aromatic_linkinvent_7_9_3/rearranged_h_0180.sdf

> <i_m_source_file_index>
96

> <r_mmod_Potential_Energy-OPLS-2005>
86.1469268798828

> <r_mmod_Stretch_Energy-OPLS-2005>
198.10188293457

> <r_mmod_Bend_Energy-OPLS-2005>
242.389770507812

> <r_mmod_Torsional_Energy-OPLS-2005>
363.217712402344

> <r_mmod_Improper_Torsional_Energy-OPLS-2005>
20.4750194549561

> <r_mmod_Van_der_Waal_Energy-OPLS-2005>
147.790512084961

> <r_mmod_Electrostatic_Energy-OPLS-2005>
-819.910583496094

> <r_mmod_Solvation_Energy-OPLS-2005>
-243.180969238281

> <b_mmod_Minimization_Converged-OPLS-2005>
0

> <r_mmod_RMS_Derivative-OPLS-2005>
1.05898225307465

$$$$
96
                    3D
 Structure written by MMmdl.
152161  0  0  1  0            999 V2000
  -30.4691  -15.1041   20.3810 C   0  0  0  0  0  0
  -30.4332  -12.6878   19.5152 C   0  0  0  0  0  0
  -29.5366  -12.5601   18.2630 C   0  0  0  0  0  0
  -28.0618  -12.3460   18.6610 C   0  0  0  0  0  0
  -27.6172  -13.2736   19.8252 C   0  0  2  0  0  0
  -28.6518  -13.3496   20.9628 C   0  0  0  0  0  0
  -25.2387  -13.8238   20.5668 C   0  0  0  0  0  0
  -24.1750  -13.0398   20.9197 C   0  0  0  0  0  0
  -24.6423  -11.6907   20.8731 C   0  0  0  0  0  0
  -23.9117  -10.4260   21.0395 C   0  0  0  0  0  0
  -24.3666   -9.4165   21.9165 C   0  0  0  0  0  0
  -23.6307   -8.2221   22.0760 C   0  0  0  0  0  0
  -22.4274   -8.0298   21.3563 C   0  0  0  0  0  0
  -21.9920   -9.0278   20.4656 C   0  0  0  0  0  0
  -22.7284  -10.2130   20.3048 C   0  0  0  0  0  0
  -21.6839   -6.0742   22.5275 C   0  0  0  0  0  0
  -21.4013   -6.5648   23.8211 C   0  0  0  0  0  0
  -21.3653   -5.6803   24.9176 C   0  0  0  0  0  0
  -21.6037   -4.3066   24.7229 C   0  0  0  0  0  0
  -21.8808   -3.8155   23.4351 C   0  0  0  0  0  0
  -21.9174   -4.6965   22.3400 C   0  0  0  0  0  0
  -22.7761  -13.5152   21.1837 C   0  0  0  0  0  0
  -22.1641   -4.2155   21.0974 F   0  0  0  0  0  0
  -21.5619   -3.4542   25.7739 F   0  0  0  0  0  0
  -29.9025  -13.8148   20.3511 N   0  0  0  0  0  0
  -26.2826  -12.9513   20.3161 N   0  0  0  0  0  0
  -25.9361  -11.6616   20.5679 N   0  0  0  0  0  0
  -22.0405  -12.8194   22.0432 N   0  0  0  0  0  0
  -25.3920  -15.1977   20.4083 N   0  0  0  0  0  0
  -31.6878  -15.1296   20.1471 O   0  0  0  0  0  0
  -21.6628   -6.8907   21.4255 O   0  0  0  0  0  0
  -22.3410  -14.5407   20.6629 O   0  0  0  0  0  0
  -24.6580  -31.8339   23.1729 C   0  0  0  0  0  0
  -25.9303  -32.4629   23.8173 C   0  0  1  0  0  0
  -27.2083  -27.0105   20.1625 C   0  0  0  0  0  0
  -25.6000  -33.8450   24.2095 N   0  0  0  0  0  0
  -23.4656  -30.4509   21.5231 C   0  0  2  0  0  0
  -24.9143  -28.8511   20.1137 C   0  0  0  0  0  0
  -22.7640  -29.4524   22.4821 C   0  0  0  0  0  0
  -18.0328  -28.1438   22.8480 C   0  0  0  0  0  0
  -24.1495  -36.7223   23.2631 C   0  0  0  0  0  0
  -26.0297  -30.6701   21.3844 C   0  0  0  0  0  0
  -26.0995  -29.2652   20.7355 C   0  0  0  0  0  0
  -27.2502  -28.3659   20.7335 C   0  0  0  0  0  0
  -25.9979  -26.7355   19.4935 C   0  0  0  0  0  0
  -24.8831  -27.6045   19.4711 C   0  0  0  0  0  0
  -23.6984  -29.7718   20.1474 C   0  0  0  0  0  0
  -25.4133  -36.2990   24.0291 C   0  0  1  0  0  0
  -20.5948  -28.3780   23.1202 C   0  0  2  0  0  0
  -20.6805  -26.9476   22.5411 C   0  0  0  0  0  0
  -19.5765  -26.6396   21.5235 C   0  0  0  0  0  0
  -18.1947  -26.7961   22.1658 C   0  0  0  0  0  0
  -19.1586  -28.8939   23.2827 C   0  0  0  0  0  0
  -18.9481  -30.1519   23.8866 C   0  0  0  0  0  0
  -17.6472  -30.6614   24.0575 C   0  0  0  0  0  0
  -25.9111  -34.9374   23.5016 C   0  0  0  0  0  0
  -16.5375  -29.9104   23.6329 C   0  0  0  0  0  0
  -16.7308  -28.6540   23.0333 C   0  0  0  0  0  0
  -26.4545  -31.6513   25.0658 C   0  0  0  0  0  0
  -25.3685  -31.3794   26.1326 C   0  0  0  0  0  0
  -27.0352  -30.2863   24.6285 C   0  0  0  0  0  0
  -27.6070  -32.4256   25.7479 C   0  0  0  0  0  0
  -27.5573  -37.1781   24.8456 C   0  0  0  0  0  0
  -21.4326  -29.3064   22.3566 N   0  0  0  0  0  0
  -26.4269  -37.3730   23.9406 N   0  0  0  0  0  0
  -24.7385  -31.0095   22.0809 N   0  0  0  0  0  0
  -23.4211  -28.8092   23.3050 O   0  0  0  0  0  0
  -28.2194  -25.9405   20.1650 O   0  0  0  0  0  0
  -26.5702  -34.8895   22.4592 O   0  0  0  0  0  0
  -23.5676  -32.1264   23.6888 O   0  0  0  0  0  0
  -28.5217  -21.5258   20.5447 C   0  0  0  0  0  0
  -29.1928  -20.3065   19.9791 C   0  0  0  0  0  0
  -28.6563  -22.9277   20.0018 C   0  0  0  0  0  0
  -30.0045  -21.8589   18.4108 C   0  0  0  0  0  0
  -29.2902  -17.3414   19.4201 C   0  0  0  0  0  0
  -30.1831  -17.6639   21.1734 C   0  0  0  0  0  0
  -29.1758  -18.6343   20.3752 C   0  0  0  0  0  0
  -30.7790  -22.0161   17.1148 C   0  0  0  0  0  0
  -27.8884  -24.3881   20.4680 C   0  0  0  0  0  0
  -29.9441  -20.6057   18.8947 N   0  0  0  0  0  0
  -29.4264  -22.9757   18.8909 N   0  0  0  0  0  0
  -29.7123  -16.3483   20.5182 N   0  0  0  0  0  0
  -31.4697  -12.8532   19.2154 H   0  0  0  0  0  0
  -30.4404  -11.7527   20.0763 H   0  0  0  0  0  0
  -29.8819  -11.7433   17.6287 H   0  0  0  0  0  0
  -29.6296  -13.4678   17.6633 H   0  0  0  0  0  0
  -27.9405  -11.3026   18.9507 H   0  0  0  0  0  0
  -27.4164  -12.4983   17.7932 H   0  0  0  0  0  0
  -27.5620  -14.2739   19.3926 H   0  0  0  0  0  0
  -28.7721  -12.3770   21.4474 H   0  0  0  0  0  0
  -28.3318  -14.0533   21.7333 H   0  0  0  0  0  0
  -25.2828   -9.5599   22.4717 H   0  0  0  0  0  0
  -23.9994   -7.4588   22.7458 H   0  0  0  0  0  0
  -21.0833   -8.8825   19.8974 H   0  0  0  0  0  0
  -22.3760  -10.9684   19.6159 H   0  0  0  0  0  0
  -21.2038   -7.6160   23.9726 H   0  0  0  0  0  0
  -21.1474   -6.0533   25.9084 H   0  0  0  0  0  0
  -22.0590   -2.7617   23.2841 H   0  0  0  0  0  0
  -22.4065  -11.9987   22.5028 H   0  0  0  0  0  0
  -21.0985  -13.1195   22.2517 H   0  0  0  0  0  0
  -24.6004  -15.8264   20.4892 H   0  0  0  0  0  0
  -26.2295  -15.6537   20.0720 H   0  0  0  0  0  0
  -26.7407  -32.5209   23.0938 H   0  0  0  0  0  0
  -25.0155  -33.9547   25.0240 H   0  0  0  0  0  0
  -22.7763  -31.2814   21.3564 H   0  0  0  0  0  0
  -23.3762  -35.9558   23.3282 H   0  0  0  0  0  0
  -24.3582  -36.8874   22.2054 H   0  0  0  0  0  0
  -23.7237  -37.6408   23.6680 H   0  0  0  0  0  0
  -26.1950  -31.4119   20.6011 H   0  0  0  0  0  0
  -26.9011  -30.7385   22.0235 H   0  0  0  0  0  0
  -28.1608  -28.6821   21.2206 H   0  0  0  0  0  0
  -25.8962  -25.7921   18.9781 H   0  0  0  0  0  0
  -23.9859  -27.2857   18.9586 H   0  0  0  0  0  0
  -23.8551  -30.5369   19.3853 H   0  0  0  0  0  0
  -22.8086  -29.2250   19.8281 H   0  0  0  0  0  0
  -25.1330  -36.1815   25.0781 H   0  0  0  0  0  0
  -21.0067  -28.3426   24.1315 H   0  0  0  0  0  0
  -20.5677  -26.2444   23.3682 H   0  0  0  0  0  0
  -21.6666  -26.7441   22.1231 H   0  0  0  0  0  0
  -19.6898  -25.6286   21.1308 H   0  0  0  0  0  0
  -19.6654  -27.3191   20.6747 H   0  0  0  0  0  0
  -17.4210  -26.6711   21.4063 H   0  0  0  0  0  0
  -18.0322  -26.0110   22.9064 H   0  0  0  0  0  0
  -19.7946  -30.7351   24.2203 H   0  0  0  0  0  0
  -17.5013  -31.6265   24.5232 H   0  0  0  0  0  0
  -15.5375  -30.3000   23.7622 H   0  0  0  0  0  0
  -15.8716  -28.0844   22.7021 H   0  0  0  0  0  0
  -24.5996  -30.6945   25.7736 H   0  0  0  0  0  0
  -24.8695  -32.2984   26.4413 H   0  0  0  0  0  0
  -25.7966  -30.9299   27.0292 H   0  0  0  0  0  0
  -26.2950  -29.6629   24.1252 H   0  0  0  0  0  0
  -27.3869  -29.7141   25.4877 H   0  0  0  0  0  0
  -27.8924  -30.4026   23.9657 H   0  0  0  0  0  0
  -27.2721  -33.3696   26.1793 H   0  0  0  0  0  0
  -28.4065  -32.6541   25.0418 H   0  0  0  0  0  0
  -28.0489  -31.8481   26.5609 H   0  0  0  0  0  0
  -28.2570  -38.0092   24.7526 H   0  0  0  0  0  0
  -28.1085  -36.2626   24.6266 H   0  0  0  0  0  0
  -27.2301  -37.1432   25.8857 H   0  0  0  0  0  0
  -20.9600  -29.8806   21.6738 H   0  0  0  0  0  0
  -26.0126  -38.2798   24.1378 H   0  0  0  0  0  0
  -27.8682  -21.3930   21.3991 H   0  0  0  0  0  0
  -28.3469  -17.0913   18.9333 H   0  0  0  0  0  0
  -30.0600  -17.4749   18.6575 H   0  0  0  0  0  0
  -30.0173  -17.6977   22.2529 H   0  0  0  0  0  0
  -31.2286  -17.8915   20.9677 H   0  0  0  0  0  0
  -28.2043  -18.5367   20.8586 H   0  0  0  0  0  0
  -31.6347  -21.3401   17.0773 H   0  0  0  0  0  0
  -31.1622  -23.0282   17.0007 H   0  0  0  0  0  0
  -30.1378  -21.7972   16.2603 H   0  0  0  0  0  0
  -26.8399  -24.2399   20.2195 H   0  0  0  0  0  0
  -27.8896  -24.3346   21.5582 H   0  0  0  0  0  0
  1 25  1  0  0  0
  1 30  2  0  0  0
  1 82  1  0  0  0
  2  3  1  0  0  0
  2 25  1  0  0  0
  2 83  1  0  0  0
  2 84  1  0  0  0
  3  4  1  0  0  0
  3 85  1  0  0  0
  3 86  1  0  0  0
  4  5  1  0  0  0
  4 87  1  0  0  0
  4 88  1  0  0  0
  5  6  1  0  0  0
  5 26  1  0  0  0
  5 89  1  0  0  0
  6 25  1  0  0  0
  6 90  1  0  0  0
  6 91  1  0  0  0
  7  8  2  0  0  0
  7 26  1  0  0  0
  7 29  1  0  0  0
  8  9  1  0  0  0
  8 22  1  0  0  0
  9 10  1  0  0  0
  9 27  2  0  0  0
 10 11  2  0  0  0
 10 15  1  0  0  0
 11 12  1  0  0  0
 11 92  1  0  0  0
 12 13  2  0  0  0
 12 93  1  0  0  0
 13 14  1  0  0  0
 13 31  1  0  0  0
 14 15  2  0  0  0
 14 94  1  0  0  0
 15 95  1  0  0  0
 16 17  2  0  0  0
 16 21  1  0  0  0
 16 31  1  0  0  0
 17 18  1  0  0  0
 17 96  1  0  0  0
 18 19  2  0  0  0
 18 97  1  0  0  0
 19 20  1  0  0  0
 19 24  1  0  0  0
 20 21  2  0  0  0
 20 98  1  0  0  0
 21 23  1  0  0  0
 22 28  1  0  0  0
 22 32  2  0  0  0
 26 27  1  0  0  0
 28 99  1  0  0  0
 28100  1  0  0  0
 29101  1  0  0  0
 29102  1  0  0  0
 33 34  1  0  0  0
 33 66  1  0  0  0
 33 70  2  0  0  0
 34 36  1  0  0  0
 34 59  1  0  0  0
 34103  1  0  0  0
 35 44  2  0  0  0
 35 45  1  0  0  0
 35 68  1  0  0  0
 36 56  1  0  0  0
 36104  1  0  0  0
 37 39  1  0  0  0
 37 47  1  0  0  0
 37 66  1  0  0  0
 37105  1  0  0  0
 38 43  2  0  0  0
 38 46  1  0  0  0
 38 47  1  0  0  0
 39 64  1  0  0  0
 39 67  2  0  0  0
 40 52  1  0  0  0
 40 53  2  0  0  0
 40 58  1  0  0  0
 41106  1  0  0  0
 41107  1  0  0  0
 41108  1  0  0  0
 41 48  1  0  0  0
 42 43  1  0  0  0
 42 66  1  0  0  0
 42109  1  0  0  0
 42110  1  0  0  0
 43 44  1  0  0  0
 44111  1  0  0  0
 45 46  2  0  0  0
 45112  1  0  0  0
 46113  1  0  0  0
 47114  1  0  0  0
 47115  1  0  0  0
 48 56  1  0  0  0
 48 65  1  0  0  0
 48116  1  0  0  0
 49 50  1  0  0  0
 49 53  1  0  0  0
 49 64  1  0  0  0
 49117  1  0  0  0
 50 51  1  0  0  0
 50118  1  0  0  0
 50119  1  0  0  0
 51 52  1  0  0  0
 51120  1  0  0  0
 51121  1  0  0  0
 52122  1  0  0  0
 52123  1  0  0  0
 53 54  1  0  0  0
 54 55  2  0  0  0
 54124  1  0  0  0
 55 57  1  0  0  0
 55125  1  0  0  0
 56 69  2  0  0  0
 57 58  2  0  0  0
 57126  1  0  0  0
 58127  1  0  0  0
 59 60  1  0  0  0
 59 61  1  0  0  0
 59 62  1  0  0  0
 60128  1  0  0  0
 60129  1  0  0  0
 60130  1  0  0  0
 61131  1  0  0  0
 61132  1  0  0  0
 61133  1  0  0  0
 62134  1  0  0  0
 62135  1  0  0  0
 62136  1  0  0  0
 63 65  1  0  0  0
 63137  1  0  0  0
 63138  1  0  0  0
 63139  1  0  0  0
 64140  1  0  0  0
 65141  1  0  0  0
 68 79  1  0  0  0
 71 72  2  0  0  0
 71 73  1  0  0  0
 71142  1  0  0  0
 72 80  1  0  0  0
 72 77  1  0  0  0
 73 79  1  0  0  0
 73 81  2  0  0  0
 74 78  1  0  0  0
 74 80  2  0  0  0
 74 81  1  0  0  0
 75 77  1  0  0  0
 75 82  1  0  0  0
 75143  1  0  0  0
 75144  1  0  0  0
 76 77  1  0  0  0
 76 82  1  0  0  0
 76145  1  0  0  0
 76146  1  0  0  0
 77147  1  0  0  0
 78148  1  0  0  0
 78149  1  0  0  0
 78150  1  0  0  0
 79151  1  0  0  0
 79152  1  0  0  0
M  ISO  4   1 100  68 101  79 101  82 100
M  END
> <chiral flag>
0

> <version>
0

> <s_m_source_file>
/data/baiqing/PycharmProjects/Reinvent-master-3.2/result/LINK_invent/BTK/process_docking_weight1_custom_sum_contain_oxygen_bond_distance_aromatic_linkinvent_7_9_3/rearranged_h_0180.sdf

> <i_m_source_file_index>
97

> <r_mmod_Potential_Energy-OPLS-2005>
508.634979248047

> <r_mmod_Stretch_Energy-OPLS-2005>
377.104675292969

> <r_mmod_Bend_Energy-OPLS-2005>
342.3291015625

> <r_mmod_Torsional_Energy-OPLS-2005>
274.774688720703

> <r_mmod_Improper_Torsional_Energy-OPLS-2005>
10.730993270874

> <r_mmod_Van_der_Waal_Energy-OPLS-2005>
132.306671142578

> <r_mmod_Electrostatic_Energy-OPLS-2005>
-706.251953125

> <r_mmod_Solvation_Energy-OPLS-2005>
-240.799499511719

> <b_mmod_Minimization_Converged-OPLS-2005>
0

> <r_mmod_RMS_Derivative-OPLS-2005>
4.84475708007812

$$$$
97
                    3D
 Structure written by MMmdl.
162171  0  0  1  0            999 V2000
  -30.4532  -15.3130   20.2379 C   0  0  0  0  0  0
  -30.4523  -12.8354   19.4761 C   0  0  0  0  0  0
  -29.5389  -12.5291   18.2660 C   0  0  0  0  0  0
  -28.0728  -12.2996   18.6936 C   0  0  0  0  0  0
  -27.6017  -13.2642   19.8130 C   0  0  2  0  0  0
  -28.6657  -13.4932   20.9097 C   0  0  0  0  0  0
  -25.2446  -13.8180   20.5820 C   0  0  0  0  0  0
  -24.1745  -13.0398   20.9214 C   0  0  0  0  0  0
  -24.6389  -11.6900   20.8744 C   0  0  0  0  0  0
  -23.9073  -10.4291   21.0395 C   0  0  0  0  0  0
  -24.3625   -9.4202   21.9166 C   0  0  0  0  0  0
  -23.6310   -8.2245   22.0725 C   0  0  0  0  0  0
  -22.4290   -8.0258   21.3526 C   0  0  0  0  0  0
  -21.9924   -9.0226   20.4622 C   0  0  0  0  0  0
  -22.7251  -10.2116   20.3051 C   0  0  0  0  0  0
  -21.6850   -6.0727   22.5289 C   0  0  0  0  0  0
  -21.4042   -6.5647   23.8204 C   0  0  0  0  0  0
  -21.3675   -5.6782   24.9172 C   0  0  0  0  0  0
  -21.6085   -4.3048   24.7223 C   0  0  0  0  0  0
  -21.8825   -3.8137   23.4342 C   0  0  0  0  0  0
  -21.9215   -4.6972   22.3404 C   0  0  0  0  0  0
  -22.7825  -13.5158   21.1889 C   0  0  0  0  0  0
  -22.1675   -4.2169   21.0979 F   0  0  0  0  0  0
  -21.5618   -3.4527   25.7731 F   0  0  0  0  0  0
  -29.8780  -14.0016   20.2311 N   0  0  0  0  0  0
  -26.2850  -12.9416   20.3309 N   0  0  0  0  0  0
  -25.9316  -11.6541   20.5733 N   0  0  0  0  0  0
  -22.0497  -12.8076   22.0410 N   0  0  0  0  0  0
  -25.4093  -15.1930   20.4293 N   0  0  0  0  0  0
  -31.6925  -15.2775   20.2522 O   0  0  0  0  0  0
  -21.6656   -6.8867   21.4228 O   0  0  0  0  0  0
  -22.3523  -14.5485   20.6766 O   0  0  0  0  0  0
  -24.6606  -31.8244   23.1775 C   0  0  0  0  0  0
  -25.9270  -32.4613   23.8280 C   0  0  1  0  0  0
  -27.2506  -26.9581   20.1676 C   0  0  0  0  0  0
  -25.5943  -33.8418   24.2133 N   0  0  0  0  0  0
  -23.4773  -30.4325   21.5272 C   0  0  2  0  0  0
  -24.9359  -28.8150   20.1212 C   0  0  0  0  0  0
  -22.7650  -29.4435   22.4853 C   0  0  0  0  0  0
  -18.0308  -28.1356   22.8474 C   0  0  0  0  0  0
  -24.1471  -36.7208   23.2657 C   0  0  0  0  0  0
  -26.0466  -30.6388   21.4075 C   0  0  0  0  0  0
  -26.1186  -29.2299   20.7426 C   0  0  0  0  0  0
  -27.2696  -28.3224   20.7360 C   0  0  0  0  0  0
  -26.0317  -26.6864   19.5038 C   0  0  0  0  0  0
  -24.9116  -27.5609   19.4861 C   0  0  0  0  0  0
  -23.7189  -29.7361   20.1585 C   0  0  0  0  0  0
  -25.4102  -36.2985   24.0316 C   0  0  1  0  0  0
  -20.5922  -28.3708   23.1187 C   0  0  2  0  0  0
  -20.6722  -26.9391   22.5369 C   0  0  0  0  0  0
  -19.5700  -26.6332   21.5176 C   0  0  0  0  0  0
  -18.1906  -26.7897   22.1606 C   0  0  0  0  0  0
  -19.1574  -28.8853   23.2806 C   0  0  0  0  0  0
  -18.9466  -30.1460   23.8836 C   0  0  0  0  0  0
  -17.6467  -30.6553   24.0542 C   0  0  0  0  0  0
  -25.9077  -34.9352   23.5051 C   0  0  0  0  0  0
  -16.5355  -29.9022   23.6343 C   0  0  0  0  0  0
  -16.7293  -28.6426   23.0391 C   0  0  0  0  0  0
  -26.4501  -31.6586   25.0820 C   0  0  0  0  0  0
  -25.3661  -31.3803   26.1510 C   0  0  0  0  0  0
  -27.0451  -30.2977   24.6613 C   0  0  0  0  0  0
  -27.6003  -32.4422   25.7581 C   0  0  0  0  0  0
  -27.5566  -37.1754   24.8450 C   0  0  0  0  0  0
  -21.4327  -29.3034   22.3575 N   0  0  0  0  0  0
  -26.4267  -37.3713   23.9411 N   0  0  0  0  0  0
  -24.7484  -30.9928   22.0922 N   0  0  0  0  0  0
  -23.4189  -28.7993   23.3085 O   0  0  0  0  0  0
  -28.2835  -25.8884   20.2483 O   0  0  0  0  0  0
  -26.5698  -34.8864   22.4656 O   0  0  0  0  0  0
  -23.5649  -32.1206   23.6855 O   0  0  0  0  0  0
  -31.2136  -18.3127   18.9512 C   0  0  0  0  0  0
  -33.1787  -18.3312   18.2776 C   0  0  0  0  0  0
  -29.1837  -16.3355   18.5075 C   0  0  0  0  0  0
  -29.9251  -18.2650   19.7262 C   0  0  2  0  0  0
  -30.2481  -16.6239   17.3808 C   0  0  1  0  0  0
  -34.6604  -18.5393   18.1953 C   0  0  0  0  0  0
  -29.5852  -17.1874   16.1100 C   0  0  0  0  0  0
  -29.4523  -19.7988   20.5313 C   0  0  0  0  0  0
  -29.0615  -22.8232   20.4793 C   0  0  0  0  0  0
  -28.1369  -24.2755   19.9687 C   0  0  0  0  0  0
  -32.3939  -18.8338   19.2862 N   0  0  0  0  0  0
  -32.5459  -17.5758   17.3766 N   0  0  0  0  0  0
  -31.2883  -17.5292   17.8755 N   0  0  0  0  0  0
  -29.7090  -16.5786   19.8947 N   0  0  0  0  0  0
  -29.1310  -21.2867   19.8344 N   0  3  0  0  0  0
  -31.4540  -13.0706   19.1166 H   0  0  0  0  0  0
  -30.5591  -11.9643   20.1257 H   0  0  0  0  0  0
  -29.9036  -11.6370   17.7530 H   0  0  0  0  0  0
  -29.5974  -13.3358   17.5341 H   0  0  0  0  0  0
  -27.9826  -11.2665   19.0315 H   0  0  0  0  0  0
  -27.4225  -12.3824   17.8222 H   0  0  0  0  0  0
  -27.4468  -14.2149   19.3149 H   0  0  0  0  0  0
  -28.8629  -12.5856   21.4859 H   0  0  0  0  0  0
  -28.3142  -14.2464   21.6177 H   0  0  0  0  0  0
  -25.2763   -9.5723   22.4721 H   0  0  0  0  0  0
  -24.0062   -7.4647   22.7403 H   0  0  0  0  0  0
  -21.0886   -8.8726   19.8886 H   0  0  0  0  0  0
  -22.3680  -10.9655   19.6168 H   0  0  0  0  0  0
  -21.2020   -7.6155   23.9711 H   0  0  0  0  0  0
  -21.1497   -6.0509   25.9061 H   0  0  0  0  0  0
  -22.0593   -2.7603   23.2831 H   0  0  0  0  0  0
  -22.4165  -11.9791   22.4898 H   0  0  0  0  0  0
  -21.1127  -13.1072   22.2618 H   0  0  0  0  0  0
  -24.6381  -15.8415   20.5448 H   0  0  0  0  0  0
  -26.2720  -15.6485   20.1585 H   0  0  0  0  0  0
  -26.7351  -32.5132   23.1021 H   0  0  0  0  0  0
  -25.0045  -33.9508   25.0249 H   0  0  0  0  0  0
  -22.7885  -31.2621   21.3501 H   0  0  0  0  0  0
  -23.3787  -35.9499   23.3274 H   0  0  0  0  0  0
  -24.3566  -36.8893   22.2091 H   0  0  0  0  0  0
  -23.7168  -37.6348   23.6745 H   0  0  0  0  0  0
  -26.2241  -31.3912   20.6381 H   0  0  0  0  0  0
  -26.9068  -30.6944   22.0646 H   0  0  0  0  0  0
  -28.1743  -28.6519   21.2267 H   0  0  0  0  0  0
  -25.9229  -25.7285   19.0163 H   0  0  0  0  0  0
  -24.0054  -27.2279   18.9988 H   0  0  0  0  0  0
  -23.8693  -30.4992   19.3974 H   0  0  0  0  0  0
  -22.8324  -29.1811   19.8504 H   0  0  0  0  0  0
  -25.1306  -36.1811   25.0819 H   0  0  0  0  0  0
  -20.9993  -28.3287   24.1328 H   0  0  0  0  0  0
  -20.5488  -26.2381   23.3637 H   0  0  0  0  0  0
  -21.6603  -26.7246   22.1284 H   0  0  0  0  0  0
  -19.6846  -25.6222   21.1265 H   0  0  0  0  0  0
  -19.6625  -27.3088   20.6677 H   0  0  0  0  0  0
  -17.4168  -26.6683   21.4027 H   0  0  0  0  0  0
  -18.0285  -26.0024   22.8972 H   0  0  0  0  0  0
  -19.7937  -30.7284   24.2185 H   0  0  0  0  0  0
  -17.4988  -31.6241   24.5128 H   0  0  0  0  0  0
  -15.5336  -30.2883   23.7674 H   0  0  0  0  0  0
  -15.8697  -28.0680   22.7176 H   0  0  0  0  0  0
  -24.5798  -30.7210   25.7808 H   0  0  0  0  0  0
  -24.8908  -32.2988   26.4978 H   0  0  0  0  0  0
  -25.7914  -30.8914   27.0301 H   0  0  0  0  0  0
  -26.3189  -29.6640   24.1530 H   0  0  0  0  0  0
  -27.3870  -29.7345   25.5318 H   0  0  0  0  0  0
  -27.9143  -30.4179   24.0149 H   0  0  0  0  0  0
  -27.2599  -33.3768   26.2049 H   0  0  0  0  0  0
  -28.3843  -32.6939   25.0430 H   0  0  0  0  0  0
  -28.0688  -31.8679   26.5588 H   0  0  0  0  0  0
  -28.2537  -38.0100   24.7576 H   0  0  0  0  0  0
  -28.1120  -36.2641   24.6190 H   0  0  0  0  0  0
  -27.2321  -37.1274   25.8860 H   0  0  0  0  0  0
  -20.9585  -29.8769   21.6732 H   0  0  0  0  0  0
  -26.0135  -38.2778   24.1453 H   0  0  0  0  0  0
  -28.2558  -16.8886   18.3365 H   0  0  0  0  0  0
  -28.8389  -15.3260   18.3340 H   0  0  0  0  0  0
  -29.2089  -18.5461   18.9561 H   0  0  0  0  0  0
  -30.7412  -15.6821   17.1238 H   0  0  0  0  0  0
  -34.9406  -19.5059   18.6141 H   0  0  0  0  0  0
  -35.0207  -18.4817   17.1649 H   0  0  0  0  0  0
  -35.1883  -17.7735   18.7654 H   0  0  0  0  0  0
  -29.0500  -18.1133   16.3368 H   0  0  0  0  0  0
  -28.8699  -16.4897   15.6799 H   0  0  0  0  0  0
  -30.3086  -17.4040   15.3217 H   0  0  0  0  0  0
  -30.2323  -19.9926   21.2666 H   0  0  0  0  0  0
  -28.5670  -19.5848   21.1303 H   0  0  0  0  0  0
  -28.8456  -22.6968   21.5421 H   0  0  0  0  0  0
  -30.1037  -23.1394   20.4556 H   0  0  0  0  0  0
  -27.1247  -24.0649   20.3064 H   0  0  0  0  0  0
  -28.0576  -24.2122   18.8843 H   0  0  0  0  0  0
  -28.2426  -21.1673   19.3686 H   0  0  0  0  0  0
  -29.8034  -21.3737   19.0858 H   0  0  0  0  0  0
  1 25  1  0  0  0
  1 30  2  0  0  0
  1 84  1  0  0  0
  2  3  1  0  0  0
  2 25  1  0  0  0
  2 86  1  0  0  0
  2 87  1  0  0  0
  3  4  1  0  0  0
  3 88  1  0  0  0
  3 89  1  0  0  0
  4  5  1  0  0  0
  4 90  1  0  0  0
  4 91  1  0  0  0
  5  6  1  0  0  0
  5 26  1  0  0  0
  5 92  1  0  0  0
  6 25  1  0  0  0
  6 93  1  0  0  0
  6 94  1  0  0  0
  7  8  2  0  0  0
  7 26  1  0  0  0
  7 29  1  0  0  0
  8  9  1  0  0  0
  8 22  1  0  0  0
  9 10  1  0  0  0
  9 27  2  0  0  0
 10 11  2  0  0  0
 10 15  1  0  0  0
 11 12  1  0  0  0
 11 95  1  0  0  0
 12 13  2  0  0  0
 12 96  1  0  0  0
 13 14  1  0  0  0
 13 31  1  0  0  0
 14 15  2  0  0  0
 14 97  1  0  0  0
 15 98  1  0  0  0
 16 17  2  0  0  0
 16 21  1  0  0  0
 16 31  1  0  0  0
 17 18  1  0  0  0
 17 99  1  0  0  0
 18 19  2  0  0  0
 18100  1  0  0  0
 19 20  1  0  0  0
 19 24  1  0  0  0
 20 21  2  0  0  0
 20101  1  0  0  0
 21 23  1  0  0  0
 22 28  1  0  0  0
 22 32  2  0  0  0
 26 27  1  0  0  0
 28102  1  0  0  0
 28103  1  0  0  0
 29104  1  0  0  0
 29105  1  0  0  0
 33 34  1  0  0  0
 33 66  1  0  0  0
 33 70  2  0  0  0
 34 36  1  0  0  0
 34 59  1  0  0  0
 34106  1  0  0  0
 35 44  2  0  0  0
 35 45  1  0  0  0
 35 68  1  0  0  0
 36 56  1  0  0  0
 36107  1  0  0  0
 37 39  1  0  0  0
 37 47  1  0  0  0
 37 66  1  0  0  0
 37108  1  0  0  0
 38 43  2  0  0  0
 38 46  1  0  0  0
 38 47  1  0  0  0
 39 64  1  0  0  0
 39 67  2  0  0  0
 40 52  1  0  0  0
 40 53  2  0  0  0
 40 58  1  0  0  0
 41109  1  0  0  0
 41110  1  0  0  0
 41111  1  0  0  0
 41 48  1  0  0  0
 42 43  1  0  0  0
 42 66  1  0  0  0
 42112  1  0  0  0
 42113  1  0  0  0
 43 44  1  0  0  0
 44114  1  0  0  0
 45 46  2  0  0  0
 45115  1  0  0  0
 46116  1  0  0  0
 47117  1  0  0  0
 47118  1  0  0  0
 48 56  1  0  0  0
 48 65  1  0  0  0
 48119  1  0  0  0
 49 50  1  0  0  0
 49 53  1  0  0  0
 49 64  1  0  0  0
 49120  1  0  0  0
 50 51  1  0  0  0
 50121  1  0  0  0
 50122  1  0  0  0
 51 52  1  0  0  0
 51123  1  0  0  0
 51124  1  0  0  0
 52125  1  0  0  0
 52126  1  0  0  0
 53 54  1  0  0  0
 54 55  2  0  0  0
 54127  1  0  0  0
 55 57  1  0  0  0
 55128  1  0  0  0
 56 69  2  0  0  0
 57 58  2  0  0  0
 57129  1  0  0  0
 58130  1  0  0  0
 59 60  1  0  0  0
 59 61  1  0  0  0
 59 62  1  0  0  0
 60131  1  0  0  0
 60132  1  0  0  0
 60133  1  0  0  0
 61134  1  0  0  0
 61135  1  0  0  0
 61136  1  0  0  0
 62137  1  0  0  0
 62138  1  0  0  0
 62139  1  0  0  0
 63 65  1  0  0  0
 63140  1  0  0  0
 63141  1  0  0  0
 63142  1  0  0  0
 64143  1  0  0  0
 65144  1  0  0  0
 68 80  1  0  0  0
 71 74  1  0  0  0
 71 81  2  0  0  0
 71 83  1  0  0  0
 72 76  1  0  0  0
 72 81  1  0  0  0
 72 82  2  0  0  0
 73 75  1  0  0  0
 73 84  1  0  0  0
 73145  1  0  0  0
 73146  1  0  0  0
 74 78  1  0  0  0
 74 84  1  0  0  0
 74147  1  0  0  0
 75 77  1  0  0  0
 75 83  1  0  0  0
 75148  1  0  0  0
 76149  1  0  0  0
 76150  1  0  0  0
 76151  1  0  0  0
 77152  1  0  0  0
 77153  1  0  0  0
 77154  1  0  0  0
 78 85  1  0  0  0
 78155  1  0  0  0
 78156  1  0  0  0
 79 80  1  0  0  0
 79 85  1  0  0  0
 79157  1  0  0  0
 79158  1  0  0  0
 80159  1  0  0  0
 80160  1  0  0  0
 82 83  1  0  0  0
 85161  1  0  0  0
 85162  1  0  0  0
M  CHG  1  85   1
M  ISO  4   1 100  68 101  80 101  84 100
M  END
> <chiral flag>
0

> <version>
0

> <s_m_source_file>
/data/baiqing/PycharmProjects/Reinvent-master-3.2/result/LINK_invent/BTK/process_docking_weight1_custom_sum_contain_oxygen_bond_distance_aromatic_linkinvent_7_9_3/rearranged_h_0180.sdf

> <i_m_source_file_index>
98

> <r_mmod_Potential_Energy-OPLS-2005>
1367.04174804688

> <r_mmod_Stretch_Energy-OPLS-2005>
630.977294921875

> <r_mmod_Bend_Energy-OPLS-2005>
555.61962890625

> <r_mmod_Torsional_Energy-OPLS-2005>
359.635162353516

> <r_mmod_Improper_Torsional_Energy-OPLS-2005>
16.6465187072754

> <r_mmod_Van_der_Waal_Energy-OPLS-2005>
130.300827026367

> <r_mmod_Electrostatic_Energy-OPLS-2005>
-306.969848632812

> <r_mmod_Solvation_Energy-OPLS-2005>
-493.127288818359

> <b_mmod_Minimization_Converged-OPLS-2005>
0

> <r_mmod_RMS_Derivative-OPLS-2005>
8.40071105957031

$$$$
98
                    3D
 Structure written by MMmdl.
167176  0  0  1  0            999 V2000
  -30.6963  -14.5179   20.4027 C   0  0  0  0  0  0
  -30.4260  -12.2838   19.4333 C   0  0  0  0  0  0
  -29.4923  -12.4122   18.2058 C   0  0  0  0  0  0
  -28.0075  -12.3230   18.6184 C   0  0  0  0  0  0
  -27.6503  -13.2036   19.8486 C   0  0  2  0  0  0
  -28.7083  -13.0880   20.9697 C   0  0  0  0  0  0
  -25.2587  -13.8136   20.5668 C   0  0  0  0  0  0
  -24.1857  -13.0440   20.9201 C   0  0  0  0  0  0
  -24.6377  -11.6882   20.8749 C   0  0  0  0  0  0
  -23.9078  -10.4257   21.0387 C   0  0  0  0  0  0
  -24.3627   -9.4172   21.9159 C   0  0  0  0  0  0
  -23.6291   -8.2226   22.0742 C   0  0  0  0  0  0
  -22.4262   -8.0266   21.3531 C   0  0  0  0  0  0
  -21.9898   -9.0252   20.4632 C   0  0  0  0  0  0
  -22.7254  -10.2110   20.3041 C   0  0  0  0  0  0
  -21.6831   -6.0729   22.5312 C   0  0  0  0  0  0
  -21.4001   -6.5660   23.8239 C   0  0  0  0  0  0
  -21.3652   -5.6810   24.9206 C   0  0  0  0  0  0
  -21.6033   -4.3068   24.7236 C   0  0  0  0  0  0
  -21.8811   -3.8167   23.4366 C   0  0  0  0  0  0
  -21.9181   -4.6963   22.3409 C   0  0  0  0  0  0
  -22.7885  -13.5236   21.1882 C   0  0  0  0  0  0
  -22.1669   -4.2185   21.0972 F   0  0  0  0  0  0
  -21.5637   -3.4545   25.7729 F   0  0  0  0  0  0
  -30.0283  -13.3352   20.3771 N   0  0  0  0  0  0
  -26.2987  -12.9301   20.3297 N   0  0  0  0  0  0
  -25.9298  -11.6478   20.5777 N   0  0  0  0  0  0
  -22.0497  -12.8209   22.0400 N   0  0  0  0  0  0
  -25.4347  -15.1846   20.3971 N   0  0  0  0  0  0
  -31.9111  -14.6104   20.2251 O   0  0  0  0  0  0
  -21.6639   -6.8845   21.4243 O   0  0  0  0  0  0
  -22.3594  -14.5546   20.6707 O   0  0  0  0  0  0
  -24.6113  -31.8725   23.2116 C   0  0  0  0  0  0
  -25.9032  -32.4846   23.8383 C   0  0  1  0  0  0
  -27.2308  -27.4432   20.0835 C   0  0  0  0  0  0
  -25.5903  -33.8641   24.2332 N   0  0  0  0  0  0
  -23.3934  -30.4987   21.5563 C   0  0  2  0  0  0
  -24.8358  -28.9662   20.1113 C   0  0  0  0  0  0
  -22.7361  -29.4716   22.5036 C   0  0  0  0  0  0
  -18.0260  -28.1404   22.8465 C   0  0  0  0  0  0
  -24.1497  -36.7303   23.2644 C   0  0  0  0  0  0
  -25.9222  -30.8422   21.3598 C   0  0  0  0  0  0
  -25.9977  -29.4770   20.7018 C   0  0  0  0  0  0
  -27.1930  -28.7227   20.6852 C   0  0  0  0  0  0
  -26.0482  -26.9487   19.4809 C   0  0  0  0  0  0
  -24.8559  -27.7005   19.5013 C   0  0  0  0  0  0
  -23.5925  -29.8293   20.1694 C   0  0  0  0  0  0
  -25.4126  -36.3139   24.0347 C   0  0  1  0  0  0
  -20.5852  -28.3687   23.1324 C   0  0  2  0  0  0
  -20.6779  -26.9432   22.5419 C   0  0  0  0  0  0
  -19.5771  -26.6399   21.5206 C   0  0  0  0  0  0
  -18.1928  -26.7947   22.1597 C   0  0  0  0  0  0
  -19.1508  -28.8855   23.2892 C   0  0  0  0  0  0
  -18.9446  -30.1470   23.8887 C   0  0  0  0  0  0
  -17.6453  -30.6605   24.0569 C   0  0  0  0  0  0
  -25.9049  -34.9499   23.5138 C   0  0  0  0  0  0
  -16.5343  -29.9106   23.6353 C   0  0  0  0  0  0
  -16.7249  -28.6543   23.0331 C   0  0  0  0  0  0
  -26.4449  -31.6620   25.0702 C   0  0  0  0  0  0
  -25.3680  -31.3697   26.1414 C   0  0  0  0  0  0
  -27.0283  -30.3072   24.6080 C   0  0  0  0  0  0
  -27.6066  -32.4295   25.7442 C   0  0  0  0  0  0
  -27.5594  -37.1810   24.8472 C   0  0  0  0  0  0
  -21.4105  -29.3055   22.3729 N   0  0  0  0  0  0
  -26.4319  -37.3812   23.9398 N   0  0  0  0  0  0
  -24.6609  -31.0831   22.1020 N   0  0  0  0  0  0
  -23.4146  -28.8277   23.3083 O   0  0  0  0  0  0
  -28.4183  -26.7351   20.1141 O   0  0  0  0  0  0
  -26.5609  -34.8950   22.4698 O   0  0  0  0  0  0
  -23.5318  -32.1498   23.7526 O   0  0  0  0  0  0
  -31.4172  -20.3528   18.9001 C   0  0  0  0  0  0
  -32.1632  -21.0979   17.9731 C   0  0  0  0  0  0
  -30.4902  -21.0088   19.7445 C   0  0  0  0  0  0
  -31.9656  -22.4860   17.9140 C   0  0  0  0  0  0
  -30.3848  -22.4227   19.6242 C   0  0  0  0  0  0
  -28.1847  -20.1580   20.7150 C   0  0  0  0  0  0
  -29.6973  -20.2002   20.7620 C   0  0  1  0  0  0
  -32.7005  -23.3456   16.9103 C   0  0  0  0  0  0
  -29.7433  -15.9647   18.7484 C   0  0  0  0  0  0
  -30.1428  -16.8565   20.9430 C   0  0  0  0  0  0
  -29.5865  -24.6335   20.5446 C   0  0  0  0  0  0
  -28.8854  -17.7731   21.0209 C   0  0  0  0  0  0
  -28.3977  -25.3282   19.8431 C   0  0  0  0  0  0
  -31.1030  -23.1263   18.7255 N   0  0  0  0  0  0
  -29.5270  -23.1681   20.4447 N   0  0  0  0  0  0
  -29.9226  -15.6149   20.1720 N   0  0  0  0  0  0
  -28.9774  -19.0397   20.2272 N   0  3  1  0  0  0
  -31.4778  -12.3611   19.1400 H   0  0  0  0  0  0
  -30.3256  -11.3031   19.9009 H   0  0  0  0  0  0
  -29.7163  -11.6267   17.4841 H   0  0  0  0  0  0
  -29.6766  -13.3467   17.6770 H   0  0  0  0  0  0
  -27.7939  -11.2773   18.8475 H   0  0  0  0  0  0
  -27.3665  -12.5681   17.7678 H   0  0  0  0  0  0
  -27.6523  -14.2321   19.4977 H   0  0  0  0  0  0
  -28.6914  -12.0981   21.4227 H   0  0  0  0  0  0
  -28.4979  -13.7997   21.7711 H   0  0  0  0  0  0
  -25.2764   -9.5661   22.4756 H   0  0  0  0  0  0
  -23.9988   -7.4617   22.7484 H   0  0  0  0  0  0
  -21.0827   -8.8779   19.8952 H   0  0  0  0  0  0
  -22.3711  -10.9667   19.6170 H   0  0  0  0  0  0
  -21.2006   -7.6170   23.9766 H   0  0  0  0  0  0
  -21.1487   -6.0538   25.9110 H   0  0  0  0  0  0
  -22.0577   -2.7633   23.2885 H   0  0  0  0  0  0
  -22.4074  -11.9883   22.4841 H   0  0  0  0  0  0
  -21.1109  -13.1277   22.2592 H   0  0  0  0  0  0
  -24.6612  -15.8349   20.4648 H   0  0  0  0  0  0
  -26.2701  -15.5934   20.0071 H   0  0  0  0  0  0
  -26.7088  -32.5550   23.1133 H   0  0  0  0  0  0
  -25.0003  -33.9808   25.0440 H   0  0  0  0  0  0
  -22.6830  -31.3177   21.4234 H   0  0  0  0  0  0
  -23.3782  -35.9611   23.3338 H   0  0  0  0  0  0
  -24.3589  -36.8871   22.2050 H   0  0  0  0  0  0
  -23.7218  -37.6508   23.6621 H   0  0  0  0  0  0
  -26.0347  -31.6178   20.5998 H   0  0  0  0  0  0
  -26.8105  -30.8898   21.9780 H   0  0  0  0  0  0
  -28.0881  -29.1183   21.1454 H   0  0  0  0  0  0
  -26.0259  -25.9863   18.9904 H   0  0  0  0  0  0
  -23.9591  -27.3050   19.0433 H   0  0  0  0  0  0
  -23.6839  -30.6066   19.4104 H   0  0  0  0  0  0
  -22.7113  -29.2494   19.8846 H   0  0  0  0  0  0
  -25.1307  -36.2022   25.0839 H   0  0  0  0  0  0
  -20.9925  -28.3271   24.1458 H   0  0  0  0  0  0
  -20.5713  -26.2287   23.3599 H   0  0  0  0  0  0
  -21.6654  -26.7517   22.1214 H   0  0  0  0  0  0
  -19.6962  -25.6305   21.1249 H   0  0  0  0  0  0
  -19.6746  -27.3196   20.6728 H   0  0  0  0  0  0
  -17.4216  -26.6669   21.3993 H   0  0  0  0  0  0
  -18.0357  -26.0099   22.9005 H   0  0  0  0  0  0
  -19.7925  -30.7290   24.2244 H   0  0  0  0  0  0
  -17.5019  -31.6286   24.5166 H   0  0  0  0  0  0
  -15.5354  -30.3008   23.7714 H   0  0  0  0  0  0
  -15.8642  -28.0884   22.7034 H   0  0  0  0  0  0
  -24.5900  -30.7023   25.7688 H   0  0  0  0  0  0
  -24.8798  -32.2824   26.4836 H   0  0  0  0  0  0
  -25.7989  -30.8853   27.0182 H   0  0  0  0  0  0
  -26.2837  -29.6820   24.1140 H   0  0  0  0  0  0
  -27.4067  -29.7341   25.4554 H   0  0  0  0  0  0
  -27.8659  -30.4417   23.9228 H   0  0  0  0  0  0
  -27.2777  -33.3620   26.2037 H   0  0  0  0  0  0
  -28.3854  -32.6787   25.0222 H   0  0  0  0  0  0
  -28.0745  -31.8367   26.5316 H   0  0  0  0  0  0
  -28.2647  -38.0081   24.7530 H   0  0  0  0  0  0
  -28.1067  -36.2618   24.6312 H   0  0  0  0  0  0
  -27.2300  -37.1469   25.8874 H   0  0  0  0  0  0
  -20.9268  -29.8678   21.6861 H   0  0  0  0  0  0
  -26.0233  -38.2900   24.1381 H   0  0  0  0  0  0
  -31.5562  -19.2834   18.9504 H   0  0  0  0  0  0
  -32.8747  -20.6036   17.3215 H   0  0  0  0  0  0
  -27.6588  -20.6234   19.8835 H   0  0  0  0  0  0
  -27.6055  -19.9065   21.6027 H   0  0  0  0  0  0
  -30.2518  -19.9338   21.6584 H   0  0  0  0  0  0
  -33.3501  -22.7462   16.2741 H   0  0  0  0  0  0
  -33.3118  -24.0965   17.4097 H   0  0  0  0  0  0
  -31.9842  -23.8572   16.2645 H   0  0  0  0  0  0
  -28.6962  -15.8892   18.4553 H   0  0  0  0  0  0
  -30.3276  -15.3360   18.0779 H   0  0  0  0  0  0
  -30.0773  -16.9746   18.5137 H   0  0  0  0  0  0
  -30.3901  -16.5701   21.9672 H   0  0  0  0  0  0
  -31.0189  -17.4085   20.5891 H   0  0  0  0  0  0
  -29.5498  -24.8856   21.6065 H   0  0  0  0  0  0
  -30.5359  -25.0409   20.1926 H   0  0  0  0  0  0
  -28.7140  -18.0019   22.0737 H   0  0  0  0  0  0
  -27.9928  -17.2397   20.6932 H   0  0  0  0  0  0
  -27.4820  -24.8716   20.2210 H   0  0  0  0  0  0
  -28.4394  -25.1619   18.7646 H   0  0  0  0  0  0
  -28.9497  -22.6870   21.1237 H   0  0  0  0  0  0
  -28.9193  -18.9661   19.2222 H   0  0  0  0  0  0
  1 25  1  0  0  0
  1 30  2  0  0  0
  1 86  1  0  0  0
  2  3  1  0  0  0
  2 25  1  0  0  0
  2 88  1  0  0  0
  2 89  1  0  0  0
  3  4  1  0  0  0
  3 90  1  0  0  0
  3 91  1  0  0  0
  4  5  1  0  0  0
  4 92  1  0  0  0
  4 93  1  0  0  0
  5  6  1  0  0  0
  5 26  1  0  0  0
  5 94  1  0  0  0
  6 25  1  0  0  0
  6 95  1  0  0  0
  6 96  1  0  0  0
  7  8  2  0  0  0
  7 26  1  0  0  0
  7 29  1  0  0  0
  8  9  1  0  0  0
  8 22  1  0  0  0
  9 10  1  0  0  0
  9 27  2  0  0  0
 10 11  2  0  0  0
 10 15  1  0  0  0
 11 12  1  0  0  0
 11 97  1  0  0  0
 12 13  2  0  0  0
 12 98  1  0  0  0
 13 14  1  0  0  0
 13 31  1  0  0  0
 14 15  2  0  0  0
 14 99  1  0  0  0
 15100  1  0  0  0
 16 17  2  0  0  0
 16 21  1  0  0  0
 16 31  1  0  0  0
 17 18  1  0  0  0
 17101  1  0  0  0
 18 19  2  0  0  0
 18102  1  0  0  0
 19 20  1  0  0  0
 19 24  1  0  0  0
 20 21  2  0  0  0
 20103  1  0  0  0
 21 23  1  0  0  0
 22 28  1  0  0  0
 22 32  2  0  0  0
 26 27  1  0  0  0
 28104  1  0  0  0
 28105  1  0  0  0
 29106  1  0  0  0
 29107  1  0  0  0
 33 34  1  0  0  0
 33 66  1  0  0  0
 33 70  2  0  0  0
 34 36  1  0  0  0
 34 59  1  0  0  0
 34108  1  0  0  0
 35 44  2  0  0  0
 35 45  1  0  0  0
 35 68  1  0  0  0
 36 56  1  0  0  0
 36109  1  0  0  0
 37 39  1  0  0  0
 37 47  1  0  0  0
 37 66  1  0  0  0
 37110  1  0  0  0
 38 43  2  0  0  0
 38 46  1  0  0  0
 38 47  1  0  0  0
 39 64  1  0  0  0
 39 67  2  0  0  0
 40 52  1  0  0  0
 40 53  2  0  0  0
 40 58  1  0  0  0
 41111  1  0  0  0
 41112  1  0  0  0
 41113  1  0  0  0
 41 48  1  0  0  0
 42 43  1  0  0  0
 42 66  1  0  0  0
 42114  1  0  0  0
 42115  1  0  0  0
 43 44  1  0  0  0
 44116  1  0  0  0
 45 46  2  0  0  0
 45117  1  0  0  0
 46118  1  0  0  0
 47119  1  0  0  0
 47120  1  0  0  0
 48 56  1  0  0  0
 48 65  1  0  0  0
 48121  1  0  0  0
 49 50  1  0  0  0
 49 53  1  0  0  0
 49 64  1  0  0  0
 49122  1  0  0  0
 50 51  1  0  0  0
 50123  1  0  0  0
 50124  1  0  0  0
 51 52  1  0  0  0
 51125  1  0  0  0
 51126  1  0  0  0
 52127  1  0  0  0
 52128  1  0  0  0
 53 54  1  0  0  0
 54 55  2  0  0  0
 54129  1  0  0  0
 55 57  1  0  0  0
 55130  1  0  0  0
 56 69  2  0  0  0
 57 58  2  0  0  0
 57131  1  0  0  0
 58132  1  0  0  0
 59 60  1  0  0  0
 59 61  1  0  0  0
 59 62  1  0  0  0
 60133  1  0  0  0
 60134  1  0  0  0
 60135  1  0  0  0
 61136  1  0  0  0
 61137  1  0  0  0
 61138  1  0  0  0
 62139  1  0  0  0
 62140  1  0  0  0
 62141  1  0  0  0
 63 65  1  0  0  0
 63142  1  0  0  0
 63143  1  0  0  0
 63144  1  0  0  0
 64145  1  0  0  0
 65146  1  0  0  0
 68 83  1  0  0  0
 71 72  2  0  0  0
 71 73  1  0  0  0
 71147  1  0  0  0
 72 74  1  0  0  0
 72148  1  0  0  0
 73 75  2  0  0  0
 73 77  1  0  0  0
 74 78  1  0  0  0
 74 84  2  0  0  0
 75 84  1  0  0  0
 75 85  1  0  0  0
 76 77  1  0  0  0
 76 87  1  0  0  0
 76149  1  0  0  0
 76150  1  0  0  0
 77 87  1  0  0  0
 77151  1  0  0  0
 78152  1  0  0  0
 78153  1  0  0  0
 78154  1  0  0  0
 79 86  1  0  0  0
 79155  1  0  0  0
 79156  1  0  0  0
 79157  1  0  0  0
 80 82  1  0  0  0
 80 86  1  0  0  0
 80158  1  0  0  0
 80159  1  0  0  0
 81 83  1  0  0  0
 81 85  1  0  0  0
 81160  1  0  0  0
 81161  1  0  0  0
 82162  1  0  0  0
 82163  1  0  0  0
 82 87  1  0  0  0
 83164  1  0  0  0
 83165  1  0  0  0
 85166  1  0  0  0
 87167  1  0  0  0
M  CHG  1  87   1
M  ISO  4   1 100  68 101  83 101  86 100
M  END
> <chiral flag>
0

> <version>
0

> <s_m_source_file>
/data/baiqing/PycharmProjects/Reinvent-master-3.2/result/LINK_invent/BTK/process_docking_weight1_custom_sum_contain_oxygen_bond_distance_aromatic_linkinvent_7_9_3/rearranged_h_0180.sdf

> <i_m_source_file_index>
99

> <r_mmod_Potential_Energy-OPLS-2005>
-179.625274658203

> <r_mmod_Stretch_Energy-OPLS-2005>
40.8565292358398

> <r_mmod_Bend_Energy-OPLS-2005>
135.752960205078

> <r_mmod_Torsional_Energy-OPLS-2005>
364.372039794922

> <r_mmod_Improper_Torsional_Energy-OPLS-2005>
18.1554546356201

> <r_mmod_Van_der_Waal_Energy-OPLS-2005>
158.210311889648

> <r_mmod_Electrostatic_Energy-OPLS-2005>
-433.637634277344

> <r_mmod_Solvation_Energy-OPLS-2005>
-492.994934082031

> <b_mmod_Minimization_Converged-OPLS-2005>
0

> <r_mmod_RMS_Derivative-OPLS-2005>
5.41282892227173

$$$$
