0
                    3D
 Structure written by MMmdl.
176184  0  0  1  0            999 V2000
  -30.7300  -14.4608   20.5184 C   0  0  0  0  0  0
  -30.4104  -12.2787   19.4459 C   0  0  0  0  0  0
  -29.4984  -12.4552   18.2164 C   0  0  0  0  0  0
  -28.0180  -12.3407   18.6237 C   0  0  0  0  0  0
  -27.6561  -13.2075   19.8621 C   0  0  2  0  0  0
  -28.6940  -13.0555   20.9972 C   0  0  0  0  0  0
  -25.2581  -13.8150   20.5667 C   0  0  0  0  0  0
  -24.1855  -13.0461   20.9176 C   0  0  0  0  0  0
  -24.6389  -11.6905   20.8734 C   0  0  0  0  0  0
  -23.9049  -10.4314   21.0405 C   0  0  0  0  0  0
  -24.3617   -9.4236   21.9189 C   0  0  0  0  0  0
  -23.6316   -8.2259   22.0764 C   0  0  0  0  0  0
  -22.4297   -8.0282   21.3543 C   0  0  0  0  0  0
  -21.9907   -9.0249   20.4643 C   0  0  0  0  0  0
  -22.7215  -10.2143   20.3056 C   0  0  0  0  0  0
  -21.6869   -6.0742   22.5271 C   0  0  0  0  0  0
  -21.4029   -6.5655   23.8206 C   0  0  0  0  0  0
  -21.3658   -5.6805   24.9165 C   0  0  0  0  0  0
  -21.6041   -4.3074   24.7216 C   0  0  0  0  0  0
  -21.8826   -3.8161   23.4340 C   0  0  0  0  0  0
  -21.9204   -4.6972   22.3397 C   0  0  0  0  0  0
  -22.7870  -13.5239   21.1859 C   0  0  0  0  0  0
  -22.1676   -4.2160   21.0977 F   0  0  0  0  0  0
  -21.5618   -3.4555   25.7731 F   0  0  0  0  0  0
  -30.0238  -13.3045   20.4246 N   0  0  0  0  0  0
  -26.2999  -12.9333   20.3300 N   0  0  0  0  0  0
  -25.9318  -11.6498   20.5766 N   0  0  0  0  0  0
  -22.0516  -12.8218   22.0385 N   0  0  0  0  0  0
  -25.4331  -15.1873   20.4054 N   0  0  0  0  0  0
  -31.9178  -14.5388   20.2062 O   0  0  0  0  0  0
  -21.6666   -6.8880   21.4238 O   0  0  0  0  0  0
  -22.3566  -14.5572   20.6721 O   0  0  0  0  0  0
  -24.6122  -31.8692   23.2144 C   0  0  0  0  0  0
  -25.8979  -32.4825   23.8510 C   0  0  1  0  0  0
  -27.2426  -27.4702   20.0978 C   0  0  0  0  0  0
  -25.5883  -33.8655   24.2422 N   0  0  0  0  0  0
  -23.4065  -30.4875   21.5548 C   0  0  2  0  0  0
  -24.8518  -28.9581   20.1107 C   0  0  0  0  0  0
  -22.7447  -29.4642   22.5021 C   0  0  0  0  0  0
  -18.0255  -28.1430   22.8433 C   0  0  0  0  0  0
  -24.1480  -36.7323   23.2665 C   0  0  0  0  0  0
  -25.9294  -30.8466   21.3556 C   0  0  0  0  0  0
  -26.0051  -29.4818   20.7103 C   0  0  0  0  0  0
  -27.2023  -28.7428   20.7060 C   0  0  0  0  0  0
  -26.0860  -26.9583   19.4756 C   0  0  0  0  0  0
  -24.8857  -27.6975   19.4862 C   0  0  0  0  0  0
  -23.6078  -29.8150   20.1690 C   0  0  0  0  0  0
  -25.4076  -36.3087   24.0360 C   0  0  1  0  0  0
  -20.5850  -28.3682   23.1321 C   0  0  2  0  0  0
  -20.6728  -26.9409   22.5433 C   0  0  0  0  0  0
  -19.5692  -26.6399   21.5225 C   0  0  0  0  0  0
  -18.1876  -26.7952   22.1616 C   0  0  0  0  0  0
  -19.1514  -28.8873   23.2893 C   0  0  0  0  0  0
  -18.9432  -30.1476   23.8903 C   0  0  0  0  0  0
  -17.6429  -30.6607   24.0541 C   0  0  0  0  0  0
  -25.9015  -34.9441   23.5170 C   0  0  0  0  0  0
  -16.5325  -29.9068   23.6337 C   0  0  0  0  0  0
  -16.7242  -28.6525   23.0283 C   0  0  0  0  0  0
  -26.4444  -31.6605   25.0799 C   0  0  0  0  0  0
  -25.3726  -31.3702   26.1558 C   0  0  0  0  0  0
  -27.0374  -30.3068   24.6177 C   0  0  0  0  0  0
  -27.6042  -32.4335   25.7522 C   0  0  0  0  0  0
  -27.5558  -37.1797   24.8451 C   0  0  0  0  0  0
  -21.4177  -29.3058   22.3769 N   0  0  0  0  0  0
  -26.4248  -37.3759   23.9432 N   0  0  0  0  0  0
  -24.6705  -31.0784   22.1050 N   0  0  0  0  0  0
  -23.4202  -28.8182   23.3065 O   0  0  0  0  0  0
  -28.3761  -26.6939   20.1098 O   0  0  0  0  0  0
  -26.5534  -34.8838   22.4701 O   0  0  0  0  0  0
  -23.5282  -32.1498   23.7457 O   0  0  0  0  0  0
  -29.3840  -20.2048   22.4078 C   0  0  0  0  0  0
  -29.9563  -21.4054   22.8778 C   0  0  0  0  0  0
  -31.2909  -21.7058   22.5156 C   0  0  0  0  0  0
  -30.1226  -19.3736   21.5420 C   0  0  0  0  0  0
  -31.9341  -20.8559   21.5882 C   0  0  0  0  0  0
  -31.9966  -22.9408   23.0784 C   0  0  0  0  0  0
  -33.3142  -21.1717   21.0328 C   0  0  0  0  0  0
  -30.1427  -16.7224   17.9722 C   0  0  0  0  0  0
  -27.5220  -24.8590   24.6564 C   0  0  0  0  0  0
  -29.1198  -22.3969   23.6785 C   0  0  0  0  0  0
  -29.5099  -18.0682   20.9909 C   0  0  0  0  0  0
  -31.0505  -17.2083   19.1142 C   0  0  0  0  0  0
  -28.6406  -23.5609   22.7824 C   0  0  0  0  0  0
  -27.9482  -25.9640   22.4428 C   0  0  0  0  0  0
  -28.9691  -26.4757   21.3959 C   0  0  0  0  0  0
  -28.4808  -24.9349   23.4618 C   0  0  1  0  0  0
  -30.5277  -16.9578   20.5620 C   0  0  2  0  0  0
  -31.3514  -19.7346   21.1065 N   0  0  0  0  0  0
  -30.0008  -15.5781   20.7131 N   0  0  0  0  0  0
  -31.4575  -12.3489   19.1452 H   0  0  0  0  0  0
  -30.2896  -11.2827   19.8786 H   0  0  0  0  0  0
  -29.7369  -11.7014   17.4650 H   0  0  0  0  0  0
  -29.6831  -13.4202   17.7485 H   0  0  0  0  0  0
  -27.8202  -11.2892   18.8373 H   0  0  0  0  0  0
  -27.3756  -12.6073   17.7839 H   0  0  0  0  0  0
  -27.6841  -14.2452   19.5294 H   0  0  0  0  0  0
  -28.6554  -12.0574   21.4378 H   0  0  0  0  0  0
  -28.4715  -13.7517   21.8079 H   0  0  0  0  0  0
  -25.2761   -9.5741   22.4758 H   0  0  0  0  0  0
  -24.0037   -7.4663   22.7492 H   0  0  0  0  0  0
  -21.0835   -8.8743   19.8952 H   0  0  0  0  0  0
  -22.3649  -10.9683   19.6173 H   0  0  0  0  0  0
  -21.2036   -7.6172   23.9701 H   0  0  0  0  0  0
  -21.1469   -6.0550   25.9063 H   0  0  0  0  0  0
  -22.0608   -2.7622   23.2837 H   0  0  0  0  0  0
  -22.4157  -11.9862   22.4721 H   0  0  0  0  0  0
  -21.1128  -13.1229   22.2624 H   0  0  0  0  0  0
  -24.6640  -15.8403   20.5029 H   0  0  0  0  0  0
  -26.2738  -15.6165   20.0450 H   0  0  0  0  0  0
  -26.7084  -32.5432   23.1338 H   0  0  0  0  0  0
  -24.9991  -34.0000   25.0522 H   0  0  0  0  0  0
  -22.6909  -31.2999   21.4161 H   0  0  0  0  0  0
  -23.3683  -35.9710   23.3273 H   0  0  0  0  0  0
  -24.3622  -36.8988   22.2106 H   0  0  0  0  0  0
  -23.7322  -37.6548   23.6704 H   0  0  0  0  0  0
  -26.0335  -31.5969   20.5719 H   0  0  0  0  0  0
  -26.8312  -30.9145   21.9594 H   0  0  0  0  0  0
  -28.0897  -29.1474   21.1667 H   0  0  0  0  0  0
  -26.1136  -25.9850   18.9983 H   0  0  0  0  0  0
  -24.0017  -27.3005   19.0057 H   0  0  0  0  0  0
  -23.6899  -30.5875   19.4071 H   0  0  0  0  0  0
  -22.7396  -29.2235   19.8774 H   0  0  0  0  0  0
  -25.1265  -36.1962   25.0857 H   0  0  0  0  0  0
  -21.0017  -28.3170   24.1399 H   0  0  0  0  0  0
  -20.5639  -26.2304   23.3633 H   0  0  0  0  0  0
  -21.6591  -26.7401   22.1228 H   0  0  0  0  0  0
  -19.6851  -25.6325   21.1227 H   0  0  0  0  0  0
  -19.6591  -27.3208   20.6738 H   0  0  0  0  0  0
  -17.4180  -26.6663   21.3994 H   0  0  0  0  0  0
  -18.0176  -26.0193   22.9102 H   0  0  0  0  0  0
  -19.7927  -30.7293   24.2274 H   0  0  0  0  0  0
  -17.4966  -31.6279   24.5160 H   0  0  0  0  0  0
  -15.5328  -30.2927   23.7760 H   0  0  0  0  0  0
  -15.8627  -28.0899   22.6908 H   0  0  0  0  0  0
  -24.5881  -30.7093   25.7876 H   0  0  0  0  0  0
  -24.8932  -32.2843   26.5029 H   0  0  0  0  0  0
  -25.8051  -30.8846   27.0311 H   0  0  0  0  0  0
  -26.3019  -29.6751   24.1187 H   0  0  0  0  0  0
  -27.4203  -29.7338   25.4646 H   0  0  0  0  0  0
  -27.8741  -30.4514   23.9337 H   0  0  0  0  0  0
  -27.2736  -33.3648   26.2104 H   0  0  0  0  0  0
  -28.3784  -32.6881   25.0285 H   0  0  0  0  0  0
  -28.0753  -31.8481   26.5436 H   0  0  0  0  0  0
  -28.2517  -38.0151   24.7507 H   0  0  0  0  0  0
  -28.1107  -36.2672   24.6204 H   0  0  0  0  0  0
  -27.2295  -37.1350   25.8860 H   0  0  0  0  0  0
  -20.9346  -29.8893   21.7068 H   0  0  0  0  0  0
  -26.0072  -38.2812   24.1399 H   0  0  0  0  0  0
  -28.3697  -19.9377   22.6765 H   0  0  0  0  0  0
  -31.5734  -23.8545   22.6653 H   0  0  0  0  0  0
  -33.0613  -22.9546   22.8548 H   0  0  0  0  0  0
  -31.9078  -22.9942   24.1656 H   0  0  0  0  0  0
  -34.0664  -21.1342   21.8219 H   0  0  0  0  0  0
  -33.3230  -22.1733   20.5977 H   0  0  0  0  0  0
  -33.6220  -20.4736   20.2535 H   0  0  0  0  0  0
  -30.0344  -15.6404   17.9696 H   0  0  0  0  0  0
  -30.5708  -16.9949   17.0067 H   0  0  0  0  0  0
  -29.1478  -17.1599   18.0361 H   0  0  0  0  0  0
  -27.8363  -24.1106   25.3843 H   0  0  0  0  0  0
  -26.5099  -24.6119   24.3334 H   0  0  0  0  0  0
  -27.4803  -25.8206   25.1663 H   0  0  0  0  0  0
  -29.6973  -22.7803   24.5179 H   0  0  0  0  0  0
  -28.2737  -21.8823   24.1332 H   0  0  0  0  0  0
  -28.8498  -18.3304   20.1632 H   0  0  0  0  0  0
  -28.8568  -17.6754   21.7722 H   0  0  0  0  0  0
  -31.2391  -18.2712   18.9652 H   0  0  0  0  0  0
  -32.0295  -16.7424   18.9937 H   0  0  0  0  0  0
  -27.7177  -23.2864   22.2790 H   0  0  0  0  0  0
  -29.3658  -23.6851   21.9818 H   0  0  0  0  0  0
  -27.0998  -25.5082   21.9327 H   0  0  0  0  0  0
  -27.5404  -26.8225   22.9769 H   0  0  0  0  0  0
  -29.4938  -27.3684   21.7425 H   0  0  0  0  0  0
  -29.7365  -25.7213   21.2495 H   0  0  0  0  0  0
  -29.4527  -25.2733   23.8316 H   0  0  0  0  0  0
  -31.3779  -17.0189   21.2456 H   0  0  0  0  0  0
  -29.0116  -15.4597   20.8677 H   0  0  0  0  0  0
  1 25  1  0  0  0
  1 30  2  0  0  0
  1 89  1  0  0  0
  2  3  1  0  0  0
  2 25  1  0  0  0
  2 90  1  0  0  0
  2 91  1  0  0  0
  3  4  1  0  0  0
  3 92  1  0  0  0
  3 93  1  0  0  0
  4  5  1  0  0  0
  4 94  1  0  0  0
  4 95  1  0  0  0
  5  6  1  0  0  0
  5 26  1  0  0  0
  5 96  1  0  0  0
  6 25  1  0  0  0
  6 97  1  0  0  0
  6 98  1  0  0  0
  7  8  2  0  0  0
  7 26  1  0  0  0
  7 29  1  0  0  0
  8  9  1  0  0  0
  8 22  1  0  0  0
  9 10  1  0  0  0
  9 27  2  0  0  0
 10 11  2  0  0  0
 10 15  1  0  0  0
 11 12  1  0  0  0
 11 99  1  0  0  0
 12 13  2  0  0  0
 12100  1  0  0  0
 13 14  1  0  0  0
 13 31  1  0  0  0
 14 15  2  0  0  0
 14101  1  0  0  0
 15102  1  0  0  0
 16 17  2  0  0  0
 16 21  1  0  0  0
 16 31  1  0  0  0
 17 18  1  0  0  0
 17103  1  0  0  0
 18 19  2  0  0  0
 18104  1  0  0  0
 19 20  1  0  0  0
 19 24  1  0  0  0
 20 21  2  0  0  0
 20105  1  0  0  0
 21 23  1  0  0  0
 22 28  1  0  0  0
 22 32  2  0  0  0
 26 27  1  0  0  0
 28106  1  0  0  0
 28107  1  0  0  0
 29108  1  0  0  0
 29109  1  0  0  0
 33 34  1  0  0  0
 33 66  1  0  0  0
 33 70  2  0  0  0
 34 36  1  0  0  0
 34 59  1  0  0  0
 34110  1  0  0  0
 35 44  2  0  0  0
 35 45  1  0  0  0
 35 68  1  0  0  0
 36 56  1  0  0  0
 36111  1  0  0  0
 37 39  1  0  0  0
 37 47  1  0  0  0
 37 66  1  0  0  0
 37112  1  0  0  0
 38 43  2  0  0  0
 38 46  1  0  0  0
 38 47  1  0  0  0
 39 64  1  0  0  0
 39 67  2  0  0  0
 40 52  1  0  0  0
 40 53  2  0  0  0
 40 58  1  0  0  0
 41113  1  0  0  0
 41114  1  0  0  0
 41115  1  0  0  0
 41 48  1  0  0  0
 42 43  1  0  0  0
 42 66  1  0  0  0
 42116  1  0  0  0
 42117  1  0  0  0
 43 44  1  0  0  0
 44118  1  0  0  0
 45 46  2  0  0  0
 45119  1  0  0  0
 46120  1  0  0  0
 47121  1  0  0  0
 47122  1  0  0  0
 48 56  1  0  0  0
 48 65  1  0  0  0
 48123  1  0  0  0
 49 50  1  0  0  0
 49 53  1  0  0  0
 49 64  1  0  0  0
 49124  1  0  0  0
 50 51  1  0  0  0
 50125  1  0  0  0
 50126  1  0  0  0
 51 52  1  0  0  0
 51127  1  0  0  0
 51128  1  0  0  0
 52129  1  0  0  0
 52130  1  0  0  0
 53 54  1  0  0  0
 54 55  2  0  0  0
 54131  1  0  0  0
 55 57  1  0  0  0
 55132  1  0  0  0
 56 69  2  0  0  0
 57 58  2  0  0  0
 57133  1  0  0  0
 58134  1  0  0  0
 59 60  1  0  0  0
 59 61  1  0  0  0
 59 62  1  0  0  0
 60135  1  0  0  0
 60136  1  0  0  0
 60137  1  0  0  0
 61138  1  0  0  0
 61139  1  0  0  0
 61140  1  0  0  0
 62141  1  0  0  0
 62142  1  0  0  0
 62143  1  0  0  0
 63 65  1  0  0  0
 63144  1  0  0  0
 63145  1  0  0  0
 63146  1  0  0  0
 64147  1  0  0  0
 65148  1  0  0  0
 68 85  1  0  0  0
 71 72  2  0  0  0
 71 74  1  0  0  0
 71149  1  0  0  0
 72 73  1  0  0  0
 72 80  1  0  0  0
 73 75  2  0  0  0
 73 76  1  0  0  0
 74 81  1  0  0  0
 74 88  2  0  0  0
 75 77  1  0  0  0
 75 88  1  0  0  0
 76150  1  0  0  0
 76151  1  0  0  0
 76152  1  0  0  0
 77153  1  0  0  0
 77154  1  0  0  0
 77155  1  0  0  0
 78 82  1  0  0  0
 78156  1  0  0  0
 78157  1  0  0  0
 78158  1  0  0  0
 79159  1  0  0  0
 79160  1  0  0  0
 79161  1  0  0  0
 79 86  1  0  0  0
 80 83  1  0  0  0
 80162  1  0  0  0
 80163  1  0  0  0
 81164  1  0  0  0
 81165  1  0  0  0
 81 87  1  0  0  0
 82 87  1  0  0  0
 82166  1  0  0  0
 82167  1  0  0  0
 83 86  1  0  0  0
 83168  1  0  0  0
 83169  1  0  0  0
 84 85  1  0  0  0
 84 86  1  0  0  0
 84170  1  0  0  0
 84171  1  0  0  0
 85172  1  0  0  0
 85173  1  0  0  0
 86174  1  0  0  0
 87 89  1  0  0  0
 87175  1  0  0  0
 89176  1  0  0  0
M  ISO  4   1 100  68 101  85 101  89 100
M  END
> <chiral flag>
0

> <version>
0

> <s_m_source_file>
/data/baiqing/PycharmProjects/Reinvent-master-3.2/result/LINK_invent/BTK/process_docking_weight1_custom_sum_contain_oxygen_bond_distance_aromatic_linkinvent_7_9_3/rearranged_h_0086.sdf

> <i_m_source_file_index>
1

> <r_mmod_Potential_Energy-OPLS-2005>
-129.487197875977

> <r_mmod_Stretch_Energy-OPLS-2005>
39.5414657592773

> <r_mmod_Bend_Energy-OPLS-2005>
101.475929260254

> <r_mmod_Torsional_Energy-OPLS-2005>
254.632354736328

> <r_mmod_Improper_Torsional_Energy-OPLS-2005>
6.70040035247803

> <r_mmod_Van_der_Waal_Energy-OPLS-2005>
161.649963378906

> <r_mmod_Electrostatic_Energy-OPLS-2005>
-499.820922851562

> <r_mmod_Solvation_Energy-OPLS-2005>
-213.625885009766

> <b_mmod_Minimization_Converged-OPLS-2005>
0

> <r_mmod_RMS_Derivative-OPLS-2005>
6.40378475189209

$$$$
1
                    3D
 Structure written by MMmdl.
172180  0  0  1  0            999 V2000
  -30.7301  -14.5108   20.5421 C   0  0  0  0  0  0
  -30.4121  -12.3234   19.4448 C   0  0  0  0  0  0
  -29.4943  -12.4955   18.2183 C   0  0  0  0  0  0
  -28.0172  -12.3586   18.6305 C   0  0  0  0  0  0
  -27.6567  -13.2216   19.8703 C   0  0  2  0  0  0
  -28.7008  -13.0627   21.0003 C   0  0  0  0  0  0
  -25.2566  -13.8208   20.5705 C   0  0  0  0  0  0
  -24.1828  -13.0458   20.9185 C   0  0  0  0  0  0
  -24.6402  -11.6932   20.8739 C   0  0  0  0  0  0
  -23.9073  -10.4308   21.0402 C   0  0  0  0  0  0
  -24.3622   -9.4221   21.9180 C   0  0  0  0  0  0
  -23.6299   -8.2254   22.0753 C   0  0  0  0  0  0
  -22.4280   -8.0288   21.3546 C   0  0  0  0  0  0
  -21.9917   -9.0261   20.4646 C   0  0  0  0  0  0
  -22.7244  -10.2143   20.3054 C   0  0  0  0  0  0
  -21.6855   -6.0740   22.5281 C   0  0  0  0  0  0
  -21.4016   -6.5644   23.8214 C   0  0  0  0  0  0
  -21.3659   -5.6796   24.9176 C   0  0  0  0  0  0
  -21.6043   -4.3059   24.7227 C   0  0  0  0  0  0
  -21.8819   -3.8151   23.4349 C   0  0  0  0  0  0
  -21.9195   -4.6967   22.3404 C   0  0  0  0  0  0
  -22.7848  -13.5244   21.1844 C   0  0  0  0  0  0
  -22.1661   -4.2151   21.0982 F   0  0  0  0  0  0
  -21.5628   -3.4542   25.7741 F   0  0  0  0  0  0
  -30.0281  -13.3461   20.4355 N   0  0  0  0  0  0
  -26.3009  -12.9401   20.3376 N   0  0  0  0  0  0
  -25.9336  -11.6545   20.5785 N   0  0  0  0  0  0
  -22.0495  -12.8225   22.0400 N   0  0  0  0  0  0
  -25.4271  -15.1930   20.4148 N   0  0  0  0  0  0
  -31.8685  -14.6268   20.0835 O   0  0  0  0  0  0
  -21.6646   -6.8883   21.4242 O   0  0  0  0  0  0
  -22.3522  -14.5544   20.6694 O   0  0  0  0  0  0
  -24.6225  -31.8676   23.2121 C   0  0  0  0  0  0
  -25.9099  -32.4822   23.8410 C   0  0  1  0  0  0
  -27.2041  -27.3650   20.0951 C   0  0  0  0  0  0
  -25.5932  -33.8620   24.2334 N   0  0  0  0  0  0
  -23.4116  -30.4993   21.5561 C   0  0  2  0  0  0
  -24.8522  -28.9813   20.1054 C   0  0  0  0  0  0
  -22.7458  -29.4670   22.4970 C   0  0  0  0  0  0
  -18.0287  -28.1381   22.8490 C   0  0  0  0  0  0
  -24.1497  -36.7312   23.2637 C   0  0  0  0  0  0
  -25.9540  -30.8107   21.3821 C   0  0  0  0  0  0
  -26.0240  -29.4477   20.7159 C   0  0  0  0  0  0
  -27.2038  -28.6485   20.7124 C   0  0  0  0  0  0
  -26.0123  -26.9742   19.4268 C   0  0  0  0  0  0
  -24.8464  -27.7459   19.4541 C   0  0  0  0  0  0
  -23.6200  -29.8530   20.1655 C   0  0  0  0  0  0
  -25.4116  -36.3113   24.0337 C   0  0  1  0  0  0
  -20.5887  -28.3686   23.1288 C   0  0  2  0  0  0
  -20.6788  -26.9414   22.5406 C   0  0  0  0  0  0
  -19.5759  -26.6384   21.5213 C   0  0  0  0  0  0
  -18.1936  -26.7925   22.1625 C   0  0  0  0  0  0
  -19.1540  -28.8850   23.2882 C   0  0  0  0  0  0
  -18.9463  -30.1455   23.8896 C   0  0  0  0  0  0
  -17.6461  -30.6586   24.0564 C   0  0  0  0  0  0
  -25.9047  -34.9478   23.5129 C   0  0  0  0  0  0
  -16.5353  -29.9085   23.6332 C   0  0  0  0  0  0
  -16.7272  -28.6505   23.0348 C   0  0  0  0  0  0
  -26.4488  -31.6604   25.0755 C   0  0  0  0  0  0
  -25.3720  -31.3720   26.1481 C   0  0  0  0  0  0
  -27.0329  -30.3034   24.6177 C   0  0  0  0  0  0
  -27.6062  -32.4327   25.7513 C   0  0  0  0  0  0
  -27.5586  -37.1811   24.8463 C   0  0  0  0  0  0
  -21.4180  -29.3050   22.3697 N   0  0  0  0  0  0
  -26.4305  -37.3795   23.9401 N   0  0  0  0  0  0
  -24.6814  -31.0733   22.1060 N   0  0  0  0  0  0
  -23.4208  -28.8181   23.3004 O   0  0  0  0  0  0
  -28.2867  -26.4761   20.1856 O   0  0  0  0  0  0
  -26.5610  -34.8931   22.4692 O   0  0  0  0  0  0
  -23.5400  -32.1465   23.7470 O   0  0  0  0  0  0
  -28.9324  -20.4439   21.0579 C   0  0  0  0  0  0
  -27.8235  -21.1056   20.4555 C   0  0  0  0  0  0
  -29.0171  -19.0155   20.9926 C   0  0  0  0  0  0
  -26.8501  -20.2501   19.8288 C   0  0  0  0  0  0
  -29.3166  -17.5458   23.0264 C   0  0  0  0  0  0
  -31.1942  -19.0089   22.2936 C   0  0  0  0  0  0
  -24.6265  -21.5520   20.2018 C   0  0  0  0  0  0
  -24.5502  -19.4677   18.9446 C   0  0  0  0  0  0
  -25.6656  -21.3782   17.8553 C   0  0  0  0  0  0
  -27.5798  -22.6314   20.6007 C   0  0  0  0  0  0
  -28.6582  -23.7777   20.5130 C   0  0  0  0  0  0
  -30.6599  -16.9770   20.9143 C   0  0  0  0  0  0
  -27.8825  -25.0707   20.0597 C   0  0  0  0  0  0
  -30.0251  -18.1332   21.7857 C   0  0  0  0  0  0
  -25.4729  -20.6904   19.2252 C   0  0  0  0  0  0
  -28.0953  -18.3046   20.3111 N   0  0  0  0  0  0
  -27.0698  -18.9128   19.7256 N   0  0  0  0  0  0
  -30.0865  -15.6040   21.0129 N   0  0  0  0  0  0
  -31.4589  -12.3959   19.1445 H   0  0  0  0  0  0
  -30.2984  -11.3266   19.8736 H   0  0  0  0  0  0
  -29.7393  -11.7543   17.4565 H   0  0  0  0  0  0
  -29.6619  -13.4723   17.7620 H   0  0  0  0  0  0
  -27.8327  -11.3052   18.8454 H   0  0  0  0  0  0
  -27.3670  -12.6143   17.7931 H   0  0  0  0  0  0
  -27.6842  -14.2612   19.5425 H   0  0  0  0  0  0
  -28.6800  -12.0488   21.4026 H   0  0  0  0  0  0
  -28.4669  -13.7216   21.8377 H   0  0  0  0  0  0
  -25.2767   -9.5699   22.4754 H   0  0  0  0  0  0
  -24.0012   -7.4647   22.7473 H   0  0  0  0  0  0
  -21.0849   -8.8779   19.8951 H   0  0  0  0  0  0
  -22.3702  -10.9679   19.6163 H   0  0  0  0  0  0
  -21.2007   -7.6152   23.9717 H   0  0  0  0  0  0
  -21.1479   -6.0527   25.9078 H   0  0  0  0  0  0
  -22.0597   -2.7613   23.2851 H   0  0  0  0  0  0
  -22.4119  -11.9890   22.4787 H   0  0  0  0  0  0
  -21.1109  -13.1239   22.2602 H   0  0  0  0  0  0
  -24.6632  -15.8487   20.5329 H   0  0  0  0  0  0
  -26.2866  -15.6449   20.1250 H   0  0  0  0  0  0
  -26.7166  -32.5508   23.1161 H   0  0  0  0  0  0
  -25.0071  -33.9770   25.0475 H   0  0  0  0  0  0
  -22.7022  -31.3192   21.4254 H   0  0  0  0  0  0
  -23.3761  -35.9645   23.3312 H   0  0  0  0  0  0
  -24.3585  -36.8915   22.2047 H   0  0  0  0  0  0
  -23.7257  -37.6522   23.6648 H   0  0  0  0  0  0
  -26.0880  -31.5813   20.6220 H   0  0  0  0  0  0
  -26.8347  -30.8488   22.0112 H   0  0  0  0  0  0
  -28.0936  -28.9923   21.2217 H   0  0  0  0  0  0
  -25.9219  -26.0452   18.8861 H   0  0  0  0  0  0
  -23.9533  -27.3879   18.9597 H   0  0  0  0  0  0
  -23.7333  -30.6391   19.4179 H   0  0  0  0  0  0
  -22.7405  -29.2823   19.8612 H   0  0  0  0  0  0
  -25.1291  -36.1982   25.0830 H   0  0  0  0  0  0
  -20.9970  -28.3271   24.1414 H   0  0  0  0  0  0
  -20.5725  -26.2288   23.3603 H   0  0  0  0  0  0
  -21.6651  -26.7480   22.1170 H   0  0  0  0  0  0
  -19.6931  -25.6300   21.1239 H   0  0  0  0  0  0
  -19.6698  -27.3207   20.6754 H   0  0  0  0  0  0
  -17.4205  -26.6672   21.4026 H   0  0  0  0  0  0
  -18.0335  -26.0068   22.9023 H   0  0  0  0  0  0
  -19.7941  -30.7263   24.2267 H   0  0  0  0  0  0
  -17.5024  -31.6271   24.5162 H   0  0  0  0  0  0
  -15.5357  -30.2984   23.7667 H   0  0  0  0  0  0
  -15.8670  -28.0829   22.7055 H   0  0  0  0  0  0
  -24.5900  -30.7068   25.7798 H   0  0  0  0  0  0
  -24.8896  -32.2873   26.4918 H   0  0  0  0  0  0
  -25.8034  -30.8886   27.0252 H   0  0  0  0  0  0
  -26.2901  -29.6786   24.1203 H   0  0  0  0  0  0
  -27.4048  -29.7281   25.4663 H   0  0  0  0  0  0
  -27.8763  -30.4334   23.9391 H   0  0  0  0  0  0
  -27.2691  -33.3630   26.2093 H   0  0  0  0  0  0
  -28.3856  -32.6877   25.0322 H   0  0  0  0  0  0
  -28.0745  -31.8449   26.5413 H   0  0  0  0  0  0
  -28.2607  -38.0106   24.7507 H   0  0  0  0  0  0
  -28.1078  -36.2635   24.6300 H   0  0  0  0  0  0
  -27.2292  -37.1468   25.8863 H   0  0  0  0  0  0
  -20.9355  -29.8777   21.6917 H   0  0  0  0  0  0
  -26.0199  -38.2879   24.1386 H   0  0  0  0  0  0
  -29.6509  -21.0271   21.6124 H   0  0  0  0  0  0
  -28.9474  -18.3370   23.6793 H   0  0  0  0  0  0
  -29.9909  -16.9215   23.6133 H   0  0  0  0  0  0
  -28.4559  -16.9358   22.7513 H   0  0  0  0  0  0
  -30.8567  -19.7865   22.9788 H   0  0  0  0  0  0
  -31.7141  -19.4925   21.4654 H   0  0  0  0  0  0
  -31.9298  -18.4200   22.8424 H   0  0  0  0  0  0
  -24.5582  -21.0741   21.1801 H   0  0  0  0  0  0
  -23.6065  -21.6755   19.8365 H   0  0  0  0  0  0
  -24.9784  -22.5651   20.3594 H   0  0  0  0  0  0
  -24.3591  -18.8905   19.8506 H   0  0  0  0  0  0
  -24.9810  -18.7903   18.2058 H   0  0  0  0  0  0
  -23.5805  -19.7717   18.5494 H   0  0  0  0  0  0
  -26.2811  -22.2728   17.8896 H   0  0  0  0  0  0
  -24.7084  -21.6706   17.4226 H   0  0  0  0  0  0
  -26.1449  -20.6991   17.1490 H   0  0  0  0  0  0
  -26.9924  -22.7774   21.5082 H   0  0  0  0  0  0
  -26.9251  -22.8653   19.7760 H   0  0  0  0  0  0
  -29.4312  -23.5392   19.7816 H   0  0  0  0  0  0
  -29.1470  -23.9144   21.4771 H   0  0  0  0  0  0
  -31.7065  -16.8752   21.2073 H   0  0  0  0  0  0
  -30.6993  -17.2784   19.8659 H   0  0  0  0  0  0
  -26.9454  -24.9938   20.6170 H   0  0  0  0  0  0
  -27.6611  -24.9041   19.0044 H   0  0  0  0  0  0
  -29.1379  -15.5035   21.3412 H   0  0  0  0  0  0
  1 25  1  0  0  0
  1 30  2  0  0  0
  1 88  1  0  0  0
  2  3  1  0  0  0
  2 25  1  0  0  0
  2 89  1  0  0  0
  2 90  1  0  0  0
  3  4  1  0  0  0
  3 91  1  0  0  0
  3 92  1  0  0  0
  4  5  1  0  0  0
  4 93  1  0  0  0
  4 94  1  0  0  0
  5  6  1  0  0  0
  5 26  1  0  0  0
  5 95  1  0  0  0
  6 25  1  0  0  0
  6 96  1  0  0  0
  6 97  1  0  0  0
  7  8  2  0  0  0
  7 26  1  0  0  0
  7 29  1  0  0  0
  8  9  1  0  0  0
  8 22  1  0  0  0
  9 10  1  0  0  0
  9 27  2  0  0  0
 10 11  2  0  0  0
 10 15  1  0  0  0
 11 12  1  0  0  0
 11 98  1  0  0  0
 12 13  2  0  0  0
 12 99  1  0  0  0
 13 14  1  0  0  0
 13 31  1  0  0  0
 14 15  2  0  0  0
 14100  1  0  0  0
 15101  1  0  0  0
 16 17  2  0  0  0
 16 21  1  0  0  0
 16 31  1  0  0  0
 17 18  1  0  0  0
 17102  1  0  0  0
 18 19  2  0  0  0
 18103  1  0  0  0
 19 20  1  0  0  0
 19 24  1  0  0  0
 20 21  2  0  0  0
 20104  1  0  0  0
 21 23  1  0  0  0
 22 28  1  0  0  0
 22 32  2  0  0  0
 26 27  1  0  0  0
 28105  1  0  0  0
 28106  1  0  0  0
 29107  1  0  0  0
 29108  1  0  0  0
 33 34  1  0  0  0
 33 66  1  0  0  0
 33 70  2  0  0  0
 34 36  1  0  0  0
 34 59  1  0  0  0
 34109  1  0  0  0
 35 44  2  0  0  0
 35 45  1  0  0  0
 35 68  1  0  0  0
 36 56  1  0  0  0
 36110  1  0  0  0
 37 39  1  0  0  0
 37 47  1  0  0  0
 37 66  1  0  0  0
 37111  1  0  0  0
 38 43  2  0  0  0
 38 46  1  0  0  0
 38 47  1  0  0  0
 39 64  1  0  0  0
 39 67  2  0  0  0
 40 52  1  0  0  0
 40 53  2  0  0  0
 40 58  1  0  0  0
 41112  1  0  0  0
 41113  1  0  0  0
 41114  1  0  0  0
 41 48  1  0  0  0
 42 43  1  0  0  0
 42 66  1  0  0  0
 42115  1  0  0  0
 42116  1  0  0  0
 43 44  1  0  0  0
 44117  1  0  0  0
 45 46  2  0  0  0
 45118  1  0  0  0
 46119  1  0  0  0
 47120  1  0  0  0
 47121  1  0  0  0
 48 56  1  0  0  0
 48 65  1  0  0  0
 48122  1  0  0  0
 49 50  1  0  0  0
 49 53  1  0  0  0
 49 64  1  0  0  0
 49123  1  0  0  0
 50 51  1  0  0  0
 50124  1  0  0  0
 50125  1  0  0  0
 51 52  1  0  0  0
 51126  1  0  0  0
 51127  1  0  0  0
 52128  1  0  0  0
 52129  1  0  0  0
 53 54  1  0  0  0
 54 55  2  0  0  0
 54130  1  0  0  0
 55 57  1  0  0  0
 55131  1  0  0  0
 56 69  2  0  0  0
 57 58  2  0  0  0
 57132  1  0  0  0
 58133  1  0  0  0
 59 60  1  0  0  0
 59 61  1  0  0  0
 59 62  1  0  0  0
 60134  1  0  0  0
 60135  1  0  0  0
 60136  1  0  0  0
 61137  1  0  0  0
 61138  1  0  0  0
 61139  1  0  0  0
 62140  1  0  0  0
 62141  1  0  0  0
 62142  1  0  0  0
 63 65  1  0  0  0
 63143  1  0  0  0
 63144  1  0  0  0
 63145  1  0  0  0
 64146  1  0  0  0
 65147  1  0  0  0
 68 83  1  0  0  0
 71 72  2  0  0  0
 71 73  1  0  0  0
 71148  1  0  0  0
 72 74  1  0  0  0
 72 80  1  0  0  0
 73 84  1  0  0  0
 73 86  2  0  0  0
 74 85  1  0  0  0
 74 87  2  0  0  0
 75149  1  0  0  0
 75150  1  0  0  0
 75151  1  0  0  0
 75 84  1  0  0  0
 76 84  1  0  0  0
 76152  1  0  0  0
 76153  1  0  0  0
 76154  1  0  0  0
 77155  1  0  0  0
 77156  1  0  0  0
 77157  1  0  0  0
 77 85  1  0  0  0
 78 85  1  0  0  0
 78158  1  0  0  0
 78159  1  0  0  0
 78160  1  0  0  0
 79 85  1  0  0  0
 79161  1  0  0  0
 79162  1  0  0  0
 79163  1  0  0  0
 80 81  1  0  0  0
 80164  1  0  0  0
 80165  1  0  0  0
 81 83  1  0  0  0
 81166  1  0  0  0
 81167  1  0  0  0
 82 84  1  0  0  0
 82 88  1  0  0  0
 82168  1  0  0  0
 82169  1  0  0  0
 83170  1  0  0  0
 83171  1  0  0  0
 86 87  1  0  0  0
 88172  1  0  0  0
M  ISO  4   1 100  68 101  83 101  88 100
M  END
> <chiral flag>
0

> <version>
0

> <s_m_source_file>
/data/baiqing/PycharmProjects/Reinvent-master-3.2/result/LINK_invent/BTK/process_docking_weight1_custom_sum_contain_oxygen_bond_distance_aromatic_linkinvent_7_9_3/rearranged_h_0086.sdf

> <i_m_source_file_index>
2

> <r_mmod_Potential_Energy-OPLS-2005>
125.716445922852

> <r_mmod_Stretch_Energy-OPLS-2005>
70.0901794433594

> <r_mmod_Bend_Energy-OPLS-2005>
187.565994262695

> <r_mmod_Torsional_Energy-OPLS-2005>
225.291015625

> <r_mmod_Improper_Torsional_Energy-OPLS-2005>
4.76536560058594

> <r_mmod_Van_der_Waal_Energy-OPLS-2005>
196.021682739258

> <r_mmod_Electrostatic_Energy-OPLS-2005>
-389.574676513672

> <r_mmod_Solvation_Energy-OPLS-2005>
-201.993865966797

> <b_mmod_Minimization_Converged-OPLS-2005>
0

> <r_mmod_RMS_Derivative-OPLS-2005>
0.937722504138947

$$$$
2
                    3D
 Structure written by MMmdl.
166174  0  0  1  0            999 V2000
  -30.6752  -14.4208   20.7039 C   0  0  0  0  0  0
  -30.4335  -12.3353   19.3953 C   0  0  0  0  0  0
  -29.4921  -12.5462   18.1938 C   0  0  0  0  0  0
  -28.0151  -12.3665   18.6033 C   0  0  0  0  0  0
  -27.6593  -13.1831   19.8748 C   0  0  2  0  0  0
  -28.6902  -12.8890   20.9826 C   0  0  0  0  0  0
  -25.2578  -13.8071   20.5594 C   0  0  0  0  0  0
  -24.1818  -13.0368   20.9143 C   0  0  0  0  0  0
  -24.6352  -11.6840   20.8697 C   0  0  0  0  0  0
  -23.9003  -10.4255   21.0406 C   0  0  0  0  0  0
  -24.3569   -9.4172   21.9178 C   0  0  0  0  0  0
  -23.6229   -8.2233   22.0783 C   0  0  0  0  0  0
  -22.4216   -8.0262   21.3566 C   0  0  0  0  0  0
  -21.9831   -9.0200   20.4647 C   0  0  0  0  0  0
  -22.7172  -10.2087   20.3056 C   0  0  0  0  0  0
  -21.6837   -6.0711   22.5298 C   0  0  0  0  0  0
  -21.4012   -6.5622   23.8221 C   0  0  0  0  0  0
  -21.3668   -5.6792   24.9181 C   0  0  0  0  0  0
  -21.6064   -4.3049   24.7249 C   0  0  0  0  0  0
  -21.8828   -3.8117   23.4377 C   0  0  0  0  0  0
  -21.9193   -4.6936   22.3423 C   0  0  0  0  0  0
  -22.7847  -13.5181   21.1787 C   0  0  0  0  0  0
  -22.1624   -4.2108   21.0992 F   0  0  0  0  0  0
  -21.5636   -3.4542   25.7765 F   0  0  0  0  0  0
  -30.0148  -13.2567   20.4678 N   0  0  0  0  0  0
  -26.2958  -12.9182   20.3258 N   0  0  0  0  0  0
  -25.9250  -11.6366   20.5627 N   0  0  0  0  0  0
  -22.0470  -12.8214   22.0383 N   0  0  0  0  0  0
  -25.4305  -15.1759   20.3965 N   0  0  0  0  0  0
  -31.7533  -14.6961   20.1656 O   0  0  0  0  0  0
  -21.6593   -6.8854   21.4262 O   0  0  0  0  0  0
  -22.3515  -14.5445   20.6598 O   0  0  0  0  0  0
  -24.6131  -31.8722   23.2128 C   0  0  0  0  0  0
  -25.9024  -32.4854   23.8437 C   0  0  1  0  0  0
  -27.2310  -27.4331   20.0955 C   0  0  0  0  0  0
  -25.5910  -33.8656   24.2371 N   0  0  0  0  0  0
  -23.4042  -30.4912   21.5608 C   0  0  2  0  0  0
  -24.8509  -28.9551   20.1237 C   0  0  0  0  0  0
  -22.7433  -29.4667   22.5089 C   0  0  0  0  0  0
  -18.0258  -28.1349   22.8475 C   0  0  0  0  0  0
  -24.1500  -36.7307   23.2638 C   0  0  0  0  0  0
  -25.9321  -30.8298   21.3748 C   0  0  0  0  0  0
  -26.0100  -29.4591   20.7326 C   0  0  0  0  0  0
  -27.2021  -28.6964   20.7351 C   0  0  0  0  0  0
  -26.0729  -26.9616   19.4524 C   0  0  0  0  0  0
  -24.8763  -27.7048   19.4841 C   0  0  0  0  0  0
  -23.6125  -29.8238   20.1756 C   0  0  0  0  0  0
  -25.4128  -36.3138   24.0344 C   0  0  1  0  0  0
  -20.5860  -28.3650   23.1327 C   0  0  2  0  0  0
  -20.6768  -26.9395   22.5423 C   0  0  0  0  0  0
  -19.5749  -26.6359   21.5211 C   0  0  0  0  0  0
  -18.1915  -26.7886   22.1619 C   0  0  0  0  0  0
  -19.1514  -28.8817   23.2881 C   0  0  0  0  0  0
  -18.9434  -30.1421   23.8896 C   0  0  0  0  0  0
  -17.6441  -30.6558   24.0552 C   0  0  0  0  0  0
  -25.9049  -34.9497   23.5151 C   0  0  0  0  0  0
  -16.5329  -29.9061   23.6326 C   0  0  0  0  0  0
  -16.7252  -28.6483   23.0336 C   0  0  0  0  0  0
  -26.4450  -31.6601   25.0734 C   0  0  0  0  0  0
  -25.3657  -31.3646   26.1423 C   0  0  0  0  0  0
  -27.0299  -30.3081   24.6029 C   0  0  0  0  0  0
  -27.6078  -32.4297   25.7446 C   0  0  0  0  0  0
  -27.5600  -37.1809   24.8467 C   0  0  0  0  0  0
  -21.4183  -29.3004   22.3773 N   0  0  0  0  0  0
  -26.4314  -37.3815   23.9398 N   0  0  0  0  0  0
  -24.6680  -31.0779   22.1075 N   0  0  0  0  0  0
  -23.4183  -28.8232   23.3153 O   0  0  0  0  0  0
  -28.3620  -26.6525   20.0054 O   0  0  0  0  0  0
  -26.5619  -34.8938   22.4724 O   0  0  0  0  0  0
  -23.5324  -32.1524   23.7502 O   0  0  0  0  0  0
  -30.4703  -19.3755   19.1540 C   0  0  0  0  0  0
  -31.3596  -20.4234   18.8864 C   0  0  0  0  0  0
  -31.1037  -21.6925   19.4620 C   0  0  0  0  0  0
  -29.3819  -19.5721   20.0242 C   0  0  0  0  0  0
  -29.9648  -21.8337   20.2974 C   0  0  0  0  0  0
  -32.5375  -20.1299   17.9694 C   0  0  0  0  0  0
  -32.0163  -22.8882   19.1521 C   0  0  0  0  0  0
  -28.3923  -18.4243   20.3113 C   0  0  0  0  0  0
  -28.9586  -16.9599   20.2409 C   0  0  0  0  0  0
  -28.3218  -24.9541   21.8687 C   0  0  0  0  0  0
  -29.0396  -16.1712   21.5766 C   0  0  0  0  0  0
  -28.3634  -23.6069   21.0799 C   0  0  0  0  0  0
  -28.9681  -26.2144   21.2234 C   0  0  0  0  0  0
  -29.1314  -20.7926   20.5770 N   0  0  0  0  0  0
  -29.7175  -23.0888   20.8820 N   0  0  0  0  0  0
  -30.1850  -15.2357   21.6633 N   0  0  0  0  0  0
  -31.4666  -12.5039   19.0835 H   0  0  0  0  0  0
  -30.3862  -11.2994   19.7333 H   0  0  0  0  0  0
  -29.7557  -11.8704   17.3804 H   0  0  0  0  0  0
  -29.6431  -13.5559   17.8103 H   0  0  0  0  0  0
  -27.8341  -11.3046   18.7736 H   0  0  0  0  0  0
  -27.3649  -12.6533   17.7778 H   0  0  0  0  0  0
  -27.7229  -14.2355   19.6049 H   0  0  0  0  0  0
  -28.6824  -11.8138   21.1836 H   0  0  0  0  0  0
  -28.4352  -13.3610   21.9327 H   0  0  0  0  0  0
  -25.2760   -9.5581   22.4694 H   0  0  0  0  0  0
  -23.9919   -7.4607   22.7497 H   0  0  0  0  0  0
  -21.0775   -8.8669   19.8936 H   0  0  0  0  0  0
  -22.3623  -10.9563   19.6120 H   0  0  0  0  0  0
  -21.1992   -7.6127   23.9678 H   0  0  0  0  0  0
  -21.1470   -6.0546   25.9080 H   0  0  0  0  0  0
  -22.0595   -2.7575   23.2878 H   0  0  0  0  0  0
  -22.4045  -11.9923   22.4865 H   0  0  0  0  0  0
  -21.1095  -13.1278   22.2514 H   0  0  0  0  0  0
  -24.6720  -15.8348   20.5330 H   0  0  0  0  0  0
  -26.2717  -15.6015   20.0318 H   0  0  0  0  0  0
  -26.7124  -32.5608   23.1236 H   0  0  0  0  0  0
  -25.0031  -33.9851   25.0498 H   0  0  0  0  0  0
  -22.6919  -31.3068   21.4226 H   0  0  0  0  0  0
  -23.3784  -35.9613   23.3312 H   0  0  0  0  0  0
  -24.3580  -36.8920   22.2049 H   0  0  0  0  0  0
  -23.7217  -37.6503   23.6646 H   0  0  0  0  0  0
  -26.0371  -31.5851   20.5957 H   0  0  0  0  0  0
  -26.8233  -30.8946   21.9868 H   0  0  0  0  0  0
  -28.0971  -29.0798   21.2044 H   0  0  0  0  0  0
  -26.1015  -26.0201   18.9187 H   0  0  0  0  0  0
  -23.9917  -27.3232   18.9923 H   0  0  0  0  0  0
  -23.7233  -30.6001   19.4165 H   0  0  0  0  0  0
  -22.7352  -29.2431   19.8832 H   0  0  0  0  0  0
  -25.1294  -36.2036   25.0836 H   0  0  0  0  0  0
  -20.9900  -28.3169   24.1461 H   0  0  0  0  0  0
  -20.5683  -26.2241   23.3602 H   0  0  0  0  0  0
  -21.6637  -26.7446   22.1199 H   0  0  0  0  0  0
  -19.6940  -25.6269   21.1229 H   0  0  0  0  0  0
  -19.6681  -27.3180   20.6746 H   0  0  0  0  0  0
  -17.4199  -26.6623   21.4002 H   0  0  0  0  0  0
  -18.0312  -26.0007   22.8999 H   0  0  0  0  0  0
  -19.7910  -30.7223   24.2272 H   0  0  0  0  0  0
  -17.4991  -31.6236   24.5138 H   0  0  0  0  0  0
  -15.5336  -30.2959   23.7632 H   0  0  0  0  0  0
  -15.8649  -28.0803   22.7048 H   0  0  0  0  0  0
  -24.5860  -30.7015   25.7641 H   0  0  0  0  0  0
  -24.8764  -32.2763   26.4877 H   0  0  0  0  0  0
  -25.7884  -30.8740   27.0195 H   0  0  0  0  0  0
  -26.2834  -29.6834   24.1092 H   0  0  0  0  0  0
  -27.4192  -29.7297   25.4419 H   0  0  0  0  0  0
  -27.8612  -30.4492   23.9102 H   0  0  0  0  0  0
  -27.2794  -33.3646   26.1999 H   0  0  0  0  0  0
  -28.3826  -32.6774   25.0173 H   0  0  0  0  0  0
  -28.0803  -31.8411   26.5330 H   0  0  0  0  0  0
  -28.2611  -38.0115   24.7562 H   0  0  0  0  0  0
  -28.1107  -36.2653   24.6244 H   0  0  0  0  0  0
  -27.2307  -37.1393   25.8864 H   0  0  0  0  0  0
  -20.9392  -29.8687   21.6950 H   0  0  0  0  0  0
  -26.0233  -38.2912   24.1361 H   0  0  0  0  0  0
  -30.6436  -18.4333   18.6584 H   0  0  0  0  0  0
  -32.6770  -19.0543   17.8336 H   0  0  0  0  0  0
  -33.4744  -20.5037   18.3804 H   0  0  0  0  0  0
  -32.3737  -20.5612   16.9813 H   0  0  0  0  0  0
  -33.0440  -22.5896   18.9438 H   0  0  0  0  0  0
  -32.0724  -23.6017   19.9778 H   0  0  0  0  0  0
  -31.6527  -23.4280   18.2745 H   0  0  0  0  0  0
  -27.6288  -18.5203   19.5403 H   0  0  0  0  0  0
  -27.8628  -18.5996   21.2521 H   0  0  0  0  0  0
  -29.9465  -16.9351   19.7980 H   0  0  0  0  0  0
  -28.3381  -16.3909   19.5453 H   0  0  0  0  0  0
  -28.8003  -24.7966   22.8368 H   0  0  0  0  0  0
  -27.2807  -25.1876   22.1037 H   0  0  0  0  0  0
  -29.1655  -16.8875   22.3918 H   0  0  0  0  0  0
  -28.0976  -15.6630   21.7921 H   0  0  0  0  0  0
  -27.8775  -23.7293   20.1104 H   0  0  0  0  0  0
  -27.7804  -22.8625   21.6292 H   0  0  0  0  0  0
  -30.0165  -26.0128   21.0088 H   0  0  0  0  0  0
  -28.9730  -27.0283   21.9504 H   0  0  0  0  0  0
  -30.3815  -23.7925   20.5818 H   0  0  0  0  0  0
  -30.9490  -15.7110   22.1231 H   0  0  0  0  0  0
  1 25  1  0  0  0
  1 30  2  0  0  0
  1 86  1  0  0  0
  2  3  1  0  0  0
  2 25  1  0  0  0
  2 87  1  0  0  0
  2 88  1  0  0  0
  3  4  1  0  0  0
  3 89  1  0  0  0
  3 90  1  0  0  0
  4  5  1  0  0  0
  4 91  1  0  0  0
  4 92  1  0  0  0
  5  6  1  0  0  0
  5 26  1  0  0  0
  5 93  1  0  0  0
  6 25  1  0  0  0
  6 94  1  0  0  0
  6 95  1  0  0  0
  7  8  2  0  0  0
  7 26  1  0  0  0
  7 29  1  0  0  0
  8  9  1  0  0  0
  8 22  1  0  0  0
  9 10  1  0  0  0
  9 27  2  0  0  0
 10 11  2  0  0  0
 10 15  1  0  0  0
 11 12  1  0  0  0
 11 96  1  0  0  0
 12 13  2  0  0  0
 12 97  1  0  0  0
 13 14  1  0  0  0
 13 31  1  0  0  0
 14 15  2  0  0  0
 14 98  1  0  0  0
 15 99  1  0  0  0
 16 17  2  0  0  0
 16 21  1  0  0  0
 16 31  1  0  0  0
 17 18  1  0  0  0
 17100  1  0  0  0
 18 19  2  0  0  0
 18101  1  0  0  0
 19 20  1  0  0  0
 19 24  1  0  0  0
 20 21  2  0  0  0
 20102  1  0  0  0
 21 23  1  0  0  0
 22 28  1  0  0  0
 22 32  2  0  0  0
 26 27  1  0  0  0
 28103  1  0  0  0
 28104  1  0  0  0
 29105  1  0  0  0
 29106  1  0  0  0
 33 34  1  0  0  0
 33 66  1  0  0  0
 33 70  2  0  0  0
 34 36  1  0  0  0
 34 59  1  0  0  0
 34107  1  0  0  0
 35 44  2  0  0  0
 35 45  1  0  0  0
 35 68  1  0  0  0
 36 56  1  0  0  0
 36108  1  0  0  0
 37 39  1  0  0  0
 37 47  1  0  0  0
 37 66  1  0  0  0
 37109  1  0  0  0
 38 43  2  0  0  0
 38 46  1  0  0  0
 38 47  1  0  0  0
 39 64  1  0  0  0
 39 67  2  0  0  0
 40 52  1  0  0  0
 40 53  2  0  0  0
 40 58  1  0  0  0
 41110  1  0  0  0
 41111  1  0  0  0
 41112  1  0  0  0
 41 48  1  0  0  0
 42 43  1  0  0  0
 42 66  1  0  0  0
 42113  1  0  0  0
 42114  1  0  0  0
 43 44  1  0  0  0
 44115  1  0  0  0
 45 46  2  0  0  0
 45116  1  0  0  0
 46117  1  0  0  0
 47118  1  0  0  0
 47119  1  0  0  0
 48 56  1  0  0  0
 48 65  1  0  0  0
 48120  1  0  0  0
 49 50  1  0  0  0
 49 53  1  0  0  0
 49 64  1  0  0  0
 49121  1  0  0  0
 50 51  1  0  0  0
 50122  1  0  0  0
 50123  1  0  0  0
 51 52  1  0  0  0
 51124  1  0  0  0
 51125  1  0  0  0
 52126  1  0  0  0
 52127  1  0  0  0
 53 54  1  0  0  0
 54 55  2  0  0  0
 54128  1  0  0  0
 55 57  1  0  0  0
 55129  1  0  0  0
 56 69  2  0  0  0
 57 58  2  0  0  0
 57130  1  0  0  0
 58131  1  0  0  0
 59 60  1  0  0  0
 59 61  1  0  0  0
 59 62  1  0  0  0
 60132  1  0  0  0
 60133  1  0  0  0
 60134  1  0  0  0
 61135  1  0  0  0
 61136  1  0  0  0
 61137  1  0  0  0
 62138  1  0  0  0
 62139  1  0  0  0
 62140  1  0  0  0
 63 65  1  0  0  0
 63141  1  0  0  0
 63142  1  0  0  0
 63143  1  0  0  0
 64144  1  0  0  0
 65145  1  0  0  0
 68 83  1  0  0  0
 71 72  2  0  0  0
 71 74  1  0  0  0
 71146  1  0  0  0
 72 73  1  0  0  0
 72 76  1  0  0  0
 73 75  2  0  0  0
 73 77  1  0  0  0
 74 78  1  0  0  0
 74 84  2  0  0  0
 75 84  1  0  0  0
 75 85  1  0  0  0
 76147  1  0  0  0
 76148  1  0  0  0
 76149  1  0  0  0
 77150  1  0  0  0
 77151  1  0  0  0
 77152  1  0  0  0
 78 79  1  0  0  0
 78153  1  0  0  0
 78154  1  0  0  0
 79 81  1  0  0  0
 79155  1  0  0  0
 79156  1  0  0  0
 80 82  1  0  0  0
 80 83  1  0  0  0
 80157  1  0  0  0
 80158  1  0  0  0
 81 86  1  0  0  0
 81159  1  0  0  0
 81160  1  0  0  0
 82 85  1  0  0  0
 82161  1  0  0  0
 82162  1  0  0  0
 83163  1  0  0  0
 83164  1  0  0  0
 85165  1  0  0  0
 86166  1  0  0  0
M  ISO  4   1 100  68 101  83 101  86 100
M  END
> <chiral flag>
0

> <version>
0

> <s_m_source_file>
/data/baiqing/PycharmProjects/Reinvent-master-3.2/result/LINK_invent/BTK/process_docking_weight1_custom_sum_contain_oxygen_bond_distance_aromatic_linkinvent_7_9_3/rearranged_h_0086.sdf

> <i_m_source_file_index>
3

> <r_mmod_Potential_Energy-OPLS-2005>
-211.170639038086

> <r_mmod_Stretch_Energy-OPLS-2005>
42.5530052185059

> <r_mmod_Bend_Energy-OPLS-2005>
133.902770996094

> <r_mmod_Torsional_Energy-OPLS-2005>
287.521209716797

> <r_mmod_Improper_Torsional_Energy-OPLS-2005>
10.8065271377563

> <r_mmod_Van_der_Waal_Energy-OPLS-2005>
154.262344360352

> <r_mmod_Electrostatic_Energy-OPLS-2005>
-619.938354492188

> <r_mmod_Solvation_Energy-OPLS-2005>
-233.184295654297

> <b_mmod_Minimization_Converged-OPLS-2005>
0

> <r_mmod_RMS_Derivative-OPLS-2005>
6.46269369125366

$$$$
3
                    3D
 Structure written by MMmdl.
167175  0  0  1  0            999 V2000
  -30.5463  -15.0022   20.4359 C   0  0  0  0  0  0
  -30.4401  -12.6345   19.5006 C   0  0  0  0  0  0
  -29.5253  -12.5375   18.2588 C   0  0  0  0  0  0
  -28.0579  -12.3159   18.6717 C   0  0  0  0  0  0
  -27.6228  -13.2565   19.8266 C   0  0  2  0  0  0
  -28.6642  -13.3204   20.9637 C   0  0  0  0  0  0
  -25.2432  -13.8223   20.5710 C   0  0  0  0  0  0
  -24.1775  -13.0430   20.9222 C   0  0  0  0  0  0
  -24.6404  -11.6922   20.8745 C   0  0  0  0  0  0
  -23.9101  -10.4287   21.0406 C   0  0  0  0  0  0
  -24.3633   -9.4195   21.9178 C   0  0  0  0  0  0
  -23.6289   -8.2242   22.0755 C   0  0  0  0  0  0
  -22.4274   -8.0285   21.3548 C   0  0  0  0  0  0
  -21.9914   -9.0259   20.4659 C   0  0  0  0  0  0
  -22.7260  -10.2132   20.3062 C   0  0  0  0  0  0
  -21.6849   -6.0736   22.5283 C   0  0  0  0  0  0
  -21.4006   -6.5645   23.8215 C   0  0  0  0  0  0
  -21.3661   -5.6801   24.9177 C   0  0  0  0  0  0
  -21.6036   -4.3059   24.7233 C   0  0  0  0  0  0
  -21.8821   -3.8149   23.4355 C   0  0  0  0  0  0
  -21.9190   -4.6962   22.3404 C   0  0  0  0  0  0
  -22.7795  -13.5204   21.1871 C   0  0  0  0  0  0
  -22.1656   -4.2153   21.0984 F   0  0  0  0  0  0
  -21.5628   -3.4542   25.7743 F   0  0  0  0  0  0
  -29.9327  -13.7474   20.3586 N   0  0  0  0  0  0
  -26.2856  -12.9472   20.3185 N   0  0  0  0  0  0
  -25.9329  -11.6600   20.5698 N   0  0  0  0  0  0
  -22.0453  -12.8188   22.0442 N   0  0  0  0  0  0
  -25.4078  -15.1954   20.4159 N   0  0  0  0  0  0
  -31.7598  -15.0189   20.2073 O   0  0  0  0  0  0
  -21.6635   -6.8880   21.4253 O   0  0  0  0  0  0
  -22.3480  -14.5497   20.6713 O   0  0  0  0  0  0
  -24.6483  -31.8384   23.1826 C   0  0  0  0  0  0
  -25.9230  -32.4665   23.8244 C   0  0  1  0  0  0
  -27.2229  -27.0950   20.1561 C   0  0  0  0  0  0
  -25.5969  -33.8478   24.2181 N   0  0  0  0  0  0
  -23.4542  -30.4551   21.5281 C   0  0  2  0  0  0
  -24.9049  -28.8725   20.1088 C   0  0  0  0  0  0
  -22.7597  -29.4508   22.4824 C   0  0  0  0  0  0
  -18.0305  -28.1400   22.8462 C   0  0  0  0  0  0
  -24.1480  -36.7241   23.2645 C   0  0  0  0  0  0
  -26.0140  -30.6968   21.3891 C   0  0  0  0  0  0
  -26.0817  -29.3034   20.7347 C   0  0  0  0  0  0
  -27.2378  -28.4295   20.7432 C   0  0  0  0  0  0
  -26.0236  -26.7804   19.4783 C   0  0  0  0  0  0
  -24.8921  -27.6267   19.4636 C   0  0  0  0  0  0
  -23.6827  -29.7790   20.1496 C   0  0  0  0  0  0
  -25.4109  -36.3021   24.0322 C   0  0  1  0  0  0
  -20.5922  -28.3727   23.1212 C   0  0  2  0  0  0
  -20.6782  -26.9421   22.5394 C   0  0  0  0  0  0
  -19.5756  -26.6377   21.5201 C   0  0  0  0  0  0
  -18.1940  -26.7929   22.1615 C   0  0  0  0  0  0
  -19.1568  -28.8876   23.2826 C   0  0  0  0  0  0
  -18.9477  -30.1468   23.8854 C   0  0  0  0  0  0
  -17.6476  -30.6586   24.0557 C   0  0  0  0  0  0
  -25.9071  -34.9391   23.5057 C   0  0  0  0  0  0
  -16.5365  -29.9083   23.6341 C   0  0  0  0  0  0
  -16.7291  -28.6507   23.0356 C   0  0  0  0  0  0
  -26.4532  -31.6549   25.0709 C   0  0  0  0  0  0
  -25.3713  -31.3738   26.1407 C   0  0  0  0  0  0
  -27.0414  -30.2937   24.6335 C   0  0  0  0  0  0
  -27.6060  -32.4328   25.7486 C   0  0  0  0  0  0
  -27.5561  -37.1767   24.8468 C   0  0  0  0  0  0
  -21.4279  -29.3048   22.3578 N   0  0  0  0  0  0
  -26.4268  -37.3741   23.9413 N   0  0  0  0  0  0
  -24.7258  -31.0201   22.0876 N   0  0  0  0  0  0
  -23.4214  -28.8056   23.2992 O   0  0  0  0  0  0
  -28.2649  -26.0865   20.2505 O   0  0  0  0  0  0
  -26.5662  -34.8892   22.4636 O   0  0  0  0  0  0
  -23.5585  -32.1291   23.7011 O   0  0  0  0  0  0
  -28.5240  -18.7908   19.0426 C   0  0  0  0  0  0
  -27.8557  -19.8198   18.3498 C   0  0  0  0  0  0
  -27.9192  -21.1799   18.7953 C   0  0  0  0  0  0
  -29.3018  -19.0618   20.1654 C   0  0  0  0  0  0
  -28.7112  -21.5395   19.9291 C   0  0  0  0  0  0
  -27.1494  -22.2474   18.0248 C   0  0  0  0  0  0
  -24.8955  -18.6857   16.0313 C   0  0  0  0  0  0
  -30.4110  -23.4857   20.0410 C   0  0  0  0  0  0
  -31.6139  -18.0406   20.7139 C   0  0  0  0  0  0
  -27.1159  -19.3948   17.0829 C   0  0  0  0  0  0
  -25.6183  -19.1323   17.3107 C   0  0  0  0  0  0
  -28.0374  -24.5571   19.9373 C   0  0  0  0  0  0
  -28.9483  -23.1570   20.3708 C   0  0  1  0  0  0
  -30.1050  -17.7711   20.8358 C   0  0  2  0  0  0
  -29.3704  -20.4360   20.5746 N   0  0  0  0  0  0
  -29.7931  -16.2151   20.5828 N   0  0  0  0  0  0
  -31.4703  -12.7999   19.1832 H   0  0  0  0  0  0
  -30.4491  -11.6944   20.0554 H   0  0  0  0  0  0
  -29.8581  -11.7260   17.6104 H   0  0  0  0  0  0
  -29.6068  -13.4554   17.6733 H   0  0  0  0  0  0
  -27.9558  -11.2754   18.9804 H   0  0  0  0  0  0
  -27.3993  -12.4430   17.8117 H   0  0  0  0  0  0
  -27.5739  -14.2514   19.3817 H   0  0  0  0  0  0
  -28.7655  -12.3536   21.4584 H   0  0  0  0  0  0
  -28.3490  -14.0316   21.7283 H   0  0  0  0  0  0
  -25.2784   -9.5649   22.4748 H   0  0  0  0  0  0
  -23.9993   -7.4631   22.7460 H   0  0  0  0  0  0
  -21.0843   -8.8764   19.8969 H   0  0  0  0  0  0
  -22.3701  -10.9658   19.6162 H   0  0  0  0  0  0
  -21.1993   -7.6151   23.9710 H   0  0  0  0  0  0
  -21.1477   -6.0537   25.9077 H   0  0  0  0  0  0
  -22.0599   -2.7615   23.2856 H   0  0  0  0  0  0
  -22.4082  -11.9866   22.4850 H   0  0  0  0  0  0
  -21.1057  -13.1189   22.2624 H   0  0  0  0  0  0
  -24.6366  -15.8435   20.5329 H   0  0  0  0  0  0
  -26.2447  -15.6399   20.0646 H   0  0  0  0  0  0
  -26.7299  -32.5233   23.0969 H   0  0  0  0  0  0
  -25.0116  -33.9584   25.0329 H   0  0  0  0  0  0
  -22.7623  -31.2839   21.3669 H   0  0  0  0  0  0
  -23.3747  -35.9571   23.3297 H   0  0  0  0  0  0
  -24.3569  -36.8882   22.2062 H   0  0  0  0  0  0
  -23.7225  -37.6421   23.6695 H   0  0  0  0  0  0
  -26.1832  -31.4427   20.6109 H   0  0  0  0  0  0
  -26.8815  -30.7469   22.0355 H   0  0  0  0  0  0
  -28.1304  -28.7513   21.2621 H   0  0  0  0  0  0
  -25.9296  -25.8325   18.9706 H   0  0  0  0  0  0
  -23.9994  -27.2963   18.9527 H   0  0  0  0  0  0
  -23.8222  -30.5514   19.3922 H   0  0  0  0  0  0
  -22.7974  -29.2223   19.8343 H   0  0  0  0  0  0
  -25.1294  -36.1850   25.0818 H   0  0  0  0  0  0
  -21.0024  -28.3325   24.1327 H   0  0  0  0  0  0
  -20.5661  -26.2342   23.3621 H   0  0  0  0  0  0
  -21.6646  -26.7403   22.1189 H   0  0  0  0  0  0
  -19.6914  -25.6284   21.1242 H   0  0  0  0  0  0
  -19.6686  -27.3176   20.6723 H   0  0  0  0  0  0
  -17.4199  -26.6666   21.4029 H   0  0  0  0  0  0
  -18.0335  -26.0083   22.9024 H   0  0  0  0  0  0
  -19.7958  -30.7291   24.2203 H   0  0  0  0  0  0
  -17.5035  -31.6258   24.5171 H   0  0  0  0  0  0
  -15.5369  -30.2978   23.7672 H   0  0  0  0  0  0
  -15.8691  -28.0809   22.7100 H   0  0  0  0  0  0
  -24.5944  -30.7032   25.7732 H   0  0  0  0  0  0
  -24.8847  -32.2907   26.4738 H   0  0  0  0  0  0
  -25.8007  -30.8991   27.0245 H   0  0  0  0  0  0
  -26.3050  -29.6635   24.1350 H   0  0  0  0  0  0
  -27.4001  -29.7268   25.4935 H   0  0  0  0  0  0
  -27.8963  -30.4145   23.9684 H   0  0  0  0  0  0
  -27.2668  -33.3673   26.1956 H   0  0  0  0  0  0
  -28.3902  -32.6813   25.0330 H   0  0  0  0  0  0
  -28.0691  -31.8527   26.5471 H   0  0  0  0  0  0
  -28.2570  -38.0074   24.7508 H   0  0  0  0  0  0
  -28.1063  -36.2593   24.6299 H   0  0  0  0  0  0
  -27.2279  -37.1413   25.8874 H   0  0  0  0  0  0
  -20.9513  -29.8779   21.6754 H   0  0  0  0  0  0
  -26.0132  -38.2805   24.1434 H   0  0  0  0  0  0
  -28.4685  -17.7711   18.6874 H   0  0  0  0  0  0
  -27.8417  -22.9178   17.5168 H   0  0  0  0  0  0
  -26.5028  -22.8065   18.6980 H   0  0  0  0  0  0
  -26.4786  -21.8626   17.2620 H   0  0  0  0  0  0
  -23.8382  -18.5001   16.2241 H   0  0  0  0  0  0
  -25.3260  -17.7675   15.6279 H   0  0  0  0  0  0
  -24.9546  -19.4507   15.2550 H   0  0  0  0  0  0
  -31.0899  -22.7555   20.4828 H   0  0  0  0  0  0
  -30.6949  -24.4676   20.4195 H   0  0  0  0  0  0
  -30.5744  -23.4786   18.9637 H   0  0  0  0  0  0
  -31.8604  -19.0413   21.0708 H   0  0  0  0  0  0
  -31.9475  -17.9667   19.6793 H   0  0  0  0  0  0
  -32.1996  -17.3444   21.3128 H   0  0  0  0  0  0
  -27.5768  -18.4817   16.7033 H   0  0  0  0  0  0
  -27.2777  -20.1229   16.2894 H   0  0  0  0  0  0
  -25.5052  -18.3628   18.0751 H   0  0  0  0  0  0
  -25.1348  -20.0262   17.7053 H   0  0  0  0  0  0
  -27.0223  -24.3408   20.2694 H   0  0  0  0  0  0
  -28.0093  -24.5838   18.8513 H   0  0  0  0  0  0
  -28.8756  -23.1290   21.4587 H   0  0  0  0  0  0
  -29.8770  -17.8828   21.8969 H   0  0  0  0  0  0
  -28.8043  -16.0295   20.6457 H   0  0  0  0  0  0
  1 25  1  0  0  0
  1 30  2  0  0  0
  1 86  1  0  0  0
  2  3  1  0  0  0
  2 25  1  0  0  0
  2 87  1  0  0  0
  2 88  1  0  0  0
  3  4  1  0  0  0
  3 89  1  0  0  0
  3 90  1  0  0  0
  4  5  1  0  0  0
  4 91  1  0  0  0
  4 92  1  0  0  0
  5  6  1  0  0  0
  5 26  1  0  0  0
  5 93  1  0  0  0
  6 25  1  0  0  0
  6 94  1  0  0  0
  6 95  1  0  0  0
  7  8  2  0  0  0
  7 26  1  0  0  0
  7 29  1  0  0  0
  8  9  1  0  0  0
  8 22  1  0  0  0
  9 10  1  0  0  0
  9 27  2  0  0  0
 10 11  2  0  0  0
 10 15  1  0  0  0
 11 12  1  0  0  0
 11 96  1  0  0  0
 12 13  2  0  0  0
 12 97  1  0  0  0
 13 14  1  0  0  0
 13 31  1  0  0  0
 14 15  2  0  0  0
 14 98  1  0  0  0
 15 99  1  0  0  0
 16 17  2  0  0  0
 16 21  1  0  0  0
 16 31  1  0  0  0
 17 18  1  0  0  0
 17100  1  0  0  0
 18 19  2  0  0  0
 18101  1  0  0  0
 19 20  1  0  0  0
 19 24  1  0  0  0
 20 21  2  0  0  0
 20102  1  0  0  0
 21 23  1  0  0  0
 22 28  1  0  0  0
 22 32  2  0  0  0
 26 27  1  0  0  0
 28103  1  0  0  0
 28104  1  0  0  0
 29105  1  0  0  0
 29106  1  0  0  0
 33 34  1  0  0  0
 33 66  1  0  0  0
 33 70  2  0  0  0
 34 36  1  0  0  0
 34 59  1  0  0  0
 34107  1  0  0  0
 35 44  2  0  0  0
 35 45  1  0  0  0
 35 68  1  0  0  0
 36 56  1  0  0  0
 36108  1  0  0  0
 37 39  1  0  0  0
 37 47  1  0  0  0
 37 66  1  0  0  0
 37109  1  0  0  0
 38 43  2  0  0  0
 38 46  1  0  0  0
 38 47  1  0  0  0
 39 64  1  0  0  0
 39 67  2  0  0  0
 40 52  1  0  0  0
 40 53  2  0  0  0
 40 58  1  0  0  0
 41110  1  0  0  0
 41111  1  0  0  0
 41112  1  0  0  0
 41 48  1  0  0  0
 42 43  1  0  0  0
 42 66  1  0  0  0
 42113  1  0  0  0
 42114  1  0  0  0
 43 44  1  0  0  0
 44115  1  0  0  0
 45 46  2  0  0  0
 45116  1  0  0  0
 46117  1  0  0  0
 47118  1  0  0  0
 47119  1  0  0  0
 48 56  1  0  0  0
 48 65  1  0  0  0
 48120  1  0  0  0
 49 50  1  0  0  0
 49 53  1  0  0  0
 49 64  1  0  0  0
 49121  1  0  0  0
 50 51  1  0  0  0
 50122  1  0  0  0
 50123  1  0  0  0
 51 52  1  0  0  0
 51124  1  0  0  0
 51125  1  0  0  0
 52126  1  0  0  0
 52127  1  0  0  0
 53 54  1  0  0  0
 54 55  2  0  0  0
 54128  1  0  0  0
 55 57  1  0  0  0
 55129  1  0  0  0
 56 69  2  0  0  0
 57 58  2  0  0  0
 57130  1  0  0  0
 58131  1  0  0  0
 59 60  1  0  0  0
 59 61  1  0  0  0
 59 62  1  0  0  0
 60132  1  0  0  0
 60133  1  0  0  0
 60134  1  0  0  0
 61135  1  0  0  0
 61136  1  0  0  0
 61137  1  0  0  0
 62138  1  0  0  0
 62139  1  0  0  0
 62140  1  0  0  0
 63 65  1  0  0  0
 63141  1  0  0  0
 63142  1  0  0  0
 63143  1  0  0  0
 64144  1  0  0  0
 65145  1  0  0  0
 68 82  1  0  0  0
 71 72  2  0  0  0
 71 74  1  0  0  0
 71146  1  0  0  0
 72 73  1  0  0  0
 72 80  1  0  0  0
 73 75  2  0  0  0
 73 76  1  0  0  0
 74 84  1  0  0  0
 74 85  2  0  0  0
 75 83  1  0  0  0
 75 85  1  0  0  0
 76147  1  0  0  0
 76148  1  0  0  0
 76149  1  0  0  0
 77 81  1  0  0  0
 77150  1  0  0  0
 77151  1  0  0  0
 77152  1  0  0  0
 78153  1  0  0  0
 78154  1  0  0  0
 78155  1  0  0  0
 78 83  1  0  0  0
 79156  1  0  0  0
 79157  1  0  0  0
 79158  1  0  0  0
 79 84  1  0  0  0
 80 81  1  0  0  0
 80159  1  0  0  0
 80160  1  0  0  0
 81161  1  0  0  0
 81162  1  0  0  0
 82 83  1  0  0  0
 82163  1  0  0  0
 82164  1  0  0  0
 83165  1  0  0  0
 84 86  1  0  0  0
 84166  1  0  0  0
 86167  1  0  0  0
M  ISO  4   1 100  68 101  82 101  86 100
M  END
> <chiral flag>
0

> <version>
0

> <s_m_source_file>
/data/baiqing/PycharmProjects/Reinvent-master-3.2/result/LINK_invent/BTK/process_docking_weight1_custom_sum_contain_oxygen_bond_distance_aromatic_linkinvent_7_9_3/rearranged_h_0086.sdf

> <i_m_source_file_index>
4

> <r_mmod_Potential_Energy-OPLS-2005>
362.664093017578

> <r_mmod_Stretch_Energy-OPLS-2005>
324.840057373047

> <r_mmod_Bend_Energy-OPLS-2005>
296.210754394531

> <r_mmod_Torsional_Energy-OPLS-2005>
191.166381835938

> <r_mmod_Improper_Torsional_Energy-OPLS-2005>
4.30481863021851

> <r_mmod_Van_der_Waal_Energy-OPLS-2005>
135.276626586914

> <r_mmod_Electrostatic_Energy-OPLS-2005>
-601.229614257812

> <r_mmod_Solvation_Energy-OPLS-2005>
-221.158721923828

> <b_mmod_Minimization_Converged-OPLS-2005>
0

> <r_mmod_RMS_Derivative-OPLS-2005>
2.60414290428162

$$$$
4
                    3D
 Structure written by MMmdl.
176184  0  0  1  0            999 V2000
  -30.6536  -14.6066   20.5274 C   0  0  0  0  0  0
  -30.4227  -12.3749   19.4500 C   0  0  0  0  0  0
  -29.5015  -12.5125   18.2202 C   0  0  0  0  0  0
  -28.0232  -12.3533   18.6279 C   0  0  0  0  0  0
  -27.6502  -13.2192   19.8618 C   0  0  2  0  0  0
  -28.6927  -13.0669   20.9925 C   0  0  0  0  0  0
  -25.2537  -13.8176   20.5693 C   0  0  0  0  0  0
  -24.1817  -13.0431   20.9197 C   0  0  0  0  0  0
  -24.6390  -11.6907   20.8745 C   0  0  0  0  0  0
  -23.9072  -10.4292   21.0400 C   0  0  0  0  0  0
  -24.3631   -9.4203   21.9173 C   0  0  0  0  0  0
  -23.6315   -8.2236   22.0737 C   0  0  0  0  0  0
  -22.4294   -8.0274   21.3529 C   0  0  0  0  0  0
  -21.9930   -9.0250   20.4625 C   0  0  0  0  0  0
  -22.7249  -10.2134   20.3038 C   0  0  0  0  0  0
  -21.6856   -6.0743   22.5290 C   0  0  0  0  0  0
  -21.4011   -6.5644   23.8225 C   0  0  0  0  0  0
  -21.3659   -5.6791   24.9185 C   0  0  0  0  0  0
  -21.6044   -4.3059   24.7225 C   0  0  0  0  0  0
  -21.8820   -3.8149   23.4351 C   0  0  0  0  0  0
  -21.9190   -4.6968   22.3405 C   0  0  0  0  0  0
  -22.7842  -13.5220   21.1854 C   0  0  0  0  0  0
  -22.1659   -4.2158   21.0986 F   0  0  0  0  0  0
  -21.5622   -3.4537   25.7738 F   0  0  0  0  0  0
  -30.0108  -13.3997   20.4313 N   0  0  0  0  0  0
  -26.2965  -12.9358   20.3305 N   0  0  0  0  0  0
  -25.9319  -11.6514   20.5757 N   0  0  0  0  0  0
  -22.0485  -12.8220   22.0421 N   0  0  0  0  0  0
  -25.4233  -15.1903   20.4141 N   0  0  0  0  0  0
  -31.7928  -14.7290   20.0791 O   0  0  0  0  0  0
  -21.6635   -6.8891   21.4250 O   0  0  0  0  0  0
  -22.3523  -14.5519   20.6690 O   0  0  0  0  0  0
  -24.6244  -31.8619   23.2020 C   0  0  0  0  0  0
  -25.9106  -32.4796   23.8337 C   0  0  1  0  0  0
  -27.2300  -27.3583   20.1088 C   0  0  0  0  0  0
  -25.5936  -33.8587   24.2268 N   0  0  0  0  0  0
  -23.4147  -30.4852   21.5425 C   0  0  2  0  0  0
  -24.8584  -28.9363   20.1123 C   0  0  0  0  0  0
  -22.7463  -29.4640   22.4936 C   0  0  0  0  0  0
  -18.0289  -28.1399   22.8489 C   0  0  0  0  0  0
  -24.1500  -36.7313   23.2632 C   0  0  0  0  0  0
  -25.9501  -30.8067   21.3612 C   0  0  0  0  0  0
  -26.0228  -29.4331   20.7107 C   0  0  0  0  0  0
  -27.2081  -28.6520   20.7020 C   0  0  0  0  0  0
  -26.0417  -26.8910   19.5063 C   0  0  0  0  0  0
  -24.8652  -27.6680   19.5072 C   0  0  0  0  0  0
  -23.6277  -29.8157   20.1576 C   0  0  0  0  0  0
  -25.4117  -36.3086   24.0320 C   0  0  1  0  0  0
  -20.5886  -28.3699   23.1292 C   0  0  2  0  0  0
  -20.6787  -26.9427   22.5407 C   0  0  0  0  0  0
  -19.5757  -26.6389   21.5222 C   0  0  0  0  0  0
  -18.1934  -26.7939   22.1625 C   0  0  0  0  0  0
  -19.1535  -28.8860   23.2886 C   0  0  0  0  0  0
  -18.9466  -30.1464   23.8910 C   0  0  0  0  0  0
  -17.6464  -30.6599   24.0574 C   0  0  0  0  0  0
  -25.9053  -34.9466   23.5088 C   0  0  0  0  0  0
  -16.5355  -29.9105   23.6326 C   0  0  0  0  0  0
  -16.7277  -28.6518   23.0347 C   0  0  0  0  0  0
  -26.4492  -31.6604   25.0700 C   0  0  0  0  0  0
  -25.3743  -31.3758   26.1439 C   0  0  0  0  0  0
  -27.0321  -30.3036   24.6115 C   0  0  0  0  0  0
  -27.6046  -32.4338   25.7487 C   0  0  0  0  0  0
  -27.5584  -37.1796   24.8452 C   0  0  0  0  0  0
  -21.4181  -29.3056   22.3694 N   0  0  0  0  0  0
  -26.4288  -37.3784   23.9414 N   0  0  0  0  0  0
  -24.6816  -31.0676   22.0938 N   0  0  0  0  0  0
  -23.4199  -28.8181   23.3006 O   0  0  0  0  0  0
  -28.3957  -26.5957   20.1555 O   0  0  0  0  0  0
  -26.5608  -34.8932   22.4649 O   0  0  0  0  0  0
  -23.5420  -32.1383   23.7392 O   0  0  0  0  0  0
  -29.6698  -20.3648   20.5065 C   0  0  0  0  0  0
  -30.3961  -22.4510   21.4589 C   0  0  0  0  0  0
  -29.4386  -21.7694   20.7124 C   0  0  0  0  0  0
  -30.8758  -19.6986   20.9427 C   0  0  0  0  0  0
  -31.8238  -20.6003   21.5722 C   0  0  0  0  0  0
  -35.8975  -23.2097   22.8270 C   0  0  0  0  0  0
  -33.6852  -22.8313   23.9670 C   0  0  0  0  0  0
  -32.4541  -17.6101   21.1303 C   0  0  0  0  0  0
  -31.0281  -17.9486   19.1034 C   0  0  0  0  0  0
  -28.2057  -22.5531   20.1706 C   0  0  0  0  0  0
  -33.2921  -20.3462   21.9778 C   0  0  0  0  0  0
  -27.9605  -24.0701   20.6022 C   0  0  0  0  0  0
  -34.2813  -21.5417   21.8190 C   0  0  0  0  0  0
  -30.0318  -17.1433   21.3001 C   0  0  0  0  0  0
  -28.4672  -25.2207   19.6564 C   0  0  0  0  0  0
  -34.7958  -22.1785   23.1300 C   0  0  0  0  0  0
  -31.0911  -18.1291   20.6331 C   0  0  0  0  0  0
  -31.5145  -21.8727   21.8870 N   0  0  0  0  0  0
  -29.9055  -15.6535   20.9983 N   0  0  0  0  0  0
  -31.4675  -12.4733   19.1515 H   0  0  0  0  0  0
  -30.3322  -11.3766   19.8830 H   0  0  0  0  0  0
  -29.7686  -11.7715   17.4658 H   0  0  0  0  0  0
  -29.6512  -13.4882   17.7570 H   0  0  0  0  0  0
  -27.8576  -11.2997   18.8558 H   0  0  0  0  0  0
  -27.3719  -12.5884   17.7845 H   0  0  0  0  0  0
  -27.6711  -14.2563   19.5265 H   0  0  0  0  0  0
  -28.6963  -12.0420   21.3670 H   0  0  0  0  0  0
  -28.4413  -13.6958   21.8468 H   0  0  0  0  0  0
  -25.2782   -9.5684   22.4740 H   0  0  0  0  0  0
  -24.0024   -7.4631   22.7466 H   0  0  0  0  0  0
  -21.0849   -8.8774   19.8951 H   0  0  0  0  0  0
  -22.3709  -10.9673   19.6143 H   0  0  0  0  0  0
  -21.2004   -7.6150   23.9737 H   0  0  0  0  0  0
  -21.1477   -6.0516   25.9092 H   0  0  0  0  0  0
  -22.0596   -2.7612   23.2848 H   0  0  0  0  0  0
  -22.4116  -11.9906   22.4843 H   0  0  0  0  0  0
  -21.1086  -13.1214   22.2569 H   0  0  0  0  0  0
  -24.6556  -15.8427   20.5270 H   0  0  0  0  0  0
  -26.2702  -15.6342   20.0823 H   0  0  0  0  0  0
  -26.7193  -32.5468   23.1107 H   0  0  0  0  0  0
  -25.0151  -33.9730   25.0458 H   0  0  0  0  0  0
  -22.7075  -31.3043   21.3971 H   0  0  0  0  0  0
  -23.3757  -35.9652   23.3269 H   0  0  0  0  0  0
  -24.3619  -36.8955   22.2053 H   0  0  0  0  0  0
  -23.7245  -37.6498   23.6687 H   0  0  0  0  0  0
  -26.0678  -31.5651   20.5848 H   0  0  0  0  0  0
  -26.8390  -30.8648   21.9790 H   0  0  0  0  0  0
  -28.1064  -29.0299   21.1704 H   0  0  0  0  0  0
  -25.9925  -25.9161   19.0466 H   0  0  0  0  0  0
  -23.9685  -27.2741   19.0479 H   0  0  0  0  0  0
  -23.7548  -30.5890   19.3996 H   0  0  0  0  0  0
  -22.7486  -29.2462   19.8510 H   0  0  0  0  0  0
  -25.1301  -36.1921   25.0810 H   0  0  0  0  0  0
  -20.9992  -28.3284   24.1408 H   0  0  0  0  0  0
  -20.5719  -26.2317   23.3608 H   0  0  0  0  0  0
  -21.6654  -26.7478   22.1184 H   0  0  0  0  0  0
  -19.6920  -25.6301   21.1250 H   0  0  0  0  0  0
  -19.6694  -27.3202   20.6758 H   0  0  0  0  0  0
  -17.4212  -26.6706   21.4016 H   0  0  0  0  0  0
  -18.0316  -26.0075   22.9014 H   0  0  0  0  0  0
  -19.7947  -30.7266   24.2281 H   0  0  0  0  0  0
  -17.5029  -31.6276   24.5186 H   0  0  0  0  0  0
  -15.5355  -30.3017   23.7635 H   0  0  0  0  0  0
  -15.8681  -28.0841   22.7054 H   0  0  0  0  0  0
  -24.5900  -30.7117   25.7788 H   0  0  0  0  0  0
  -24.8964  -32.2945   26.4852 H   0  0  0  0  0  0
  -25.8068  -30.8943   27.0216 H   0  0  0  0  0  0
  -26.2870  -29.6788   24.1170 H   0  0  0  0  0  0
  -27.4077  -29.7278   25.4579 H   0  0  0  0  0  0
  -27.8726  -30.4331   23.9292 H   0  0  0  0  0  0
  -27.2635  -33.3635   26.2060 H   0  0  0  0  0  0
  -28.3878  -32.6886   25.0338 H   0  0  0  0  0  0
  -28.0705  -31.8465   26.5405 H   0  0  0  0  0  0
  -28.2556  -38.0132   24.7541 H   0  0  0  0  0  0
  -28.1110  -36.2652   24.6225 H   0  0  0  0  0  0
  -27.2321  -37.1402   25.8856 H   0  0  0  0  0  0
  -20.9371  -29.8781   21.6900 H   0  0  0  0  0  0
  -26.0155  -38.2851   24.1425 H   0  0  0  0  0  0
  -28.9203  -19.7985   19.9744 H   0  0  0  0  0  0
  -30.3095  -23.4986   21.7002 H   0  0  0  0  0  0
  -36.3062  -23.6382   23.7429 H   0  0  0  0  0  0
  -35.5127  -24.0320   22.2224 H   0  0  0  0  0  0
  -36.7300  -22.7626   22.2806 H   0  0  0  0  0  0
  -34.0813  -23.2613   24.8878 H   0  0  0  0  0  0
  -32.9163  -22.1101   24.2485 H   0  0  0  0  0  0
  -33.1949  -23.6303   23.4107 H   0  0  0  0  0  0
  -33.2701  -17.8814   20.4620 H   0  0  0  0  0  0
  -32.5318  -16.5413   21.2104 H   0  0  0  0  0  0
  -32.6468  -17.9175   22.1550 H   0  0  0  0  0  0
  -31.7497  -18.5923   18.5996 H   0  0  0  0  0  0
  -30.0412  -18.1901   18.7090 H   0  0  0  0  0  0
  -31.2505  -16.9261   18.8031 H   0  0  0  0  0  0
  -27.3384  -21.9811   20.5009 H   0  0  0  0  0  0
  -28.1976  -22.4804   19.0822 H   0  0  0  0  0  0
  -33.7379  -19.6425   21.2977 H   0  0  0  0  0  0
  -33.3440  -19.9133   22.9772 H   0  0  0  0  0  0
  -28.2856  -24.2503   21.6263 H   0  0  0  0  0  0
  -26.8795  -24.2021   20.6538 H   0  0  0  0  0  0
  -33.8943  -22.2978   21.1344 H   0  0  0  0  0  0
  -35.1655  -21.1571   21.3075 H   0  0  0  0  0  0
  -29.0420  -17.5464   21.0881 H   0  0  0  0  0  0
  -30.1299  -17.2244   22.3832 H   0  0  0  0  0  0
  -28.0013  -25.1458   18.6740 H   0  0  0  0  0  0
  -29.5251  -25.0320   19.4691 H   0  0  0  0  0  0
  -35.2419  -21.3882   23.7353 H   0  0  0  0  0  0
  -28.9938  -15.3121   21.2640 H   0  0  0  0  0  0
  1 25  1  0  0  0
  1 30  2  0  0  0
  1 89  1  0  0  0
  2  3  1  0  0  0
  2 25  1  0  0  0
  2 90  1  0  0  0
  2 91  1  0  0  0
  3  4  1  0  0  0
  3 92  1  0  0  0
  3 93  1  0  0  0
  4  5  1  0  0  0
  4 94  1  0  0  0
  4 95  1  0  0  0
  5  6  1  0  0  0
  5 26  1  0  0  0
  5 96  1  0  0  0
  6 25  1  0  0  0
  6 97  1  0  0  0
  6 98  1  0  0  0
  7  8  2  0  0  0
  7 26  1  0  0  0
  7 29  1  0  0  0
  8  9  1  0  0  0
  8 22  1  0  0  0
  9 10  1  0  0  0
  9 27  2  0  0  0
 10 11  2  0  0  0
 10 15  1  0  0  0
 11 12  1  0  0  0
 11 99  1  0  0  0
 12 13  2  0  0  0
 12100  1  0  0  0
 13 14  1  0  0  0
 13 31  1  0  0  0
 14 15  2  0  0  0
 14101  1  0  0  0
 15102  1  0  0  0
 16 17  2  0  0  0
 16 21  1  0  0  0
 16 31  1  0  0  0
 17 18  1  0  0  0
 17103  1  0  0  0
 18 19  2  0  0  0
 18104  1  0  0  0
 19 20  1  0  0  0
 19 24  1  0  0  0
 20 21  2  0  0  0
 20105  1  0  0  0
 21 23  1  0  0  0
 22 28  1  0  0  0
 22 32  2  0  0  0
 26 27  1  0  0  0
 28106  1  0  0  0
 28107  1  0  0  0
 29108  1  0  0  0
 29109  1  0  0  0
 33 34  1  0  0  0
 33 66  1  0  0  0
 33 70  2  0  0  0
 34 36  1  0  0  0
 34 59  1  0  0  0
 34110  1  0  0  0
 35 44  2  0  0  0
 35 45  1  0  0  0
 35 68  1  0  0  0
 36 56  1  0  0  0
 36111  1  0  0  0
 37 39  1  0  0  0
 37 47  1  0  0  0
 37 66  1  0  0  0
 37112  1  0  0  0
 38 43  2  0  0  0
 38 46  1  0  0  0
 38 47  1  0  0  0
 39 64  1  0  0  0
 39 67  2  0  0  0
 40 52  1  0  0  0
 40 53  2  0  0  0
 40 58  1  0  0  0
 41113  1  0  0  0
 41114  1  0  0  0
 41115  1  0  0  0
 41 48  1  0  0  0
 42 43  1  0  0  0
 42 66  1  0  0  0
 42116  1  0  0  0
 42117  1  0  0  0
 43 44  1  0  0  0
 44118  1  0  0  0
 45 46  2  0  0  0
 45119  1  0  0  0
 46120  1  0  0  0
 47121  1  0  0  0
 47122  1  0  0  0
 48 56  1  0  0  0
 48 65  1  0  0  0
 48123  1  0  0  0
 49 50  1  0  0  0
 49 53  1  0  0  0
 49 64  1  0  0  0
 49124  1  0  0  0
 50 51  1  0  0  0
 50125  1  0  0  0
 50126  1  0  0  0
 51 52  1  0  0  0
 51127  1  0  0  0
 51128  1  0  0  0
 52129  1  0  0  0
 52130  1  0  0  0
 53 54  1  0  0  0
 54 55  2  0  0  0
 54131  1  0  0  0
 55 57  1  0  0  0
 55132  1  0  0  0
 56 69  2  0  0  0
 57 58  2  0  0  0
 57133  1  0  0  0
 58134  1  0  0  0
 59 60  1  0  0  0
 59 61  1  0  0  0
 59 62  1  0  0  0
 60135  1  0  0  0
 60136  1  0  0  0
 60137  1  0  0  0
 61138  1  0  0  0
 61139  1  0  0  0
 61140  1  0  0  0
 62141  1  0  0  0
 62142  1  0  0  0
 62143  1  0  0  0
 63 65  1  0  0  0
 63144  1  0  0  0
 63145  1  0  0  0
 63146  1  0  0  0
 64147  1  0  0  0
 65148  1  0  0  0
 68 85  1  0  0  0
 71 73  2  0  0  0
 71 74  1  0  0  0
 71149  1  0  0  0
 72 73  1  0  0  0
 72 88  2  0  0  0
 72150  1  0  0  0
 73 80  1  0  0  0
 74 75  2  0  0  0
 74 87  1  0  0  0
 75 81  1  0  0  0
 75 88  1  0  0  0
 76151  1  0  0  0
 76152  1  0  0  0
 76153  1  0  0  0
 76 86  1  0  0  0
 77 86  1  0  0  0
 77154  1  0  0  0
 77155  1  0  0  0
 77156  1  0  0  0
 78157  1  0  0  0
 78158  1  0  0  0
 78159  1  0  0  0
 78 87  1  0  0  0
 79 87  1  0  0  0
 79160  1  0  0  0
 79161  1  0  0  0
 79162  1  0  0  0
 80 82  1  0  0  0
 80163  1  0  0  0
 80164  1  0  0  0
 81 83  1  0  0  0
 81165  1  0  0  0
 81166  1  0  0  0
 82 85  1  0  0  0
 82167  1  0  0  0
 82168  1  0  0  0
 83 86  1  0  0  0
 83169  1  0  0  0
 83170  1  0  0  0
 84 87  1  0  0  0
 84 89  1  0  0  0
 84171  1  0  0  0
 84172  1  0  0  0
 85173  1  0  0  0
 85174  1  0  0  0
 86175  1  0  0  0
 89176  1  0  0  0
M  ISO  4   1 100  68 101  85 101  89 100
M  END
> <chiral flag>
0

> <version>
0

> <s_m_source_file>
/data/baiqing/PycharmProjects/Reinvent-master-3.2/result/LINK_invent/BTK/process_docking_weight1_custom_sum_contain_oxygen_bond_distance_aromatic_linkinvent_7_9_3/rearranged_h_0086.sdf

> <i_m_source_file_index>
5

> <r_mmod_Potential_Energy-OPLS-2005>
-21.4174308776855

> <r_mmod_Stretch_Energy-OPLS-2005>
95.1421585083008

> <r_mmod_Bend_Energy-OPLS-2005>
222.852584838867

> <r_mmod_Torsional_Energy-OPLS-2005>
225.429000854492

> <r_mmod_Improper_Torsional_Energy-OPLS-2005>
3.48921918869019

> <r_mmod_Van_der_Waal_Energy-OPLS-2005>
177.877853393555

> <r_mmod_Electrostatic_Energy-OPLS-2005>
-570.190063476562

> <r_mmod_Solvation_Energy-OPLS-2005>
-209.256851196289

> <b_mmod_Minimization_Converged-OPLS-2005>
0

> <r_mmod_RMS_Derivative-OPLS-2005>
2.38698244094849

$$$$
5
                    3D
 Structure written by MMmdl.
163171  0  0  1  0            999 V2000
  -30.6097  -14.7383   20.4524 C   0  0  0  0  0  0
  -30.4339  -12.4550   19.4572 C   0  0  0  0  0  0
  -29.5034  -12.5010   18.2253 C   0  0  0  0  0  0
  -28.0306  -12.3270   18.6449 C   0  0  0  0  0  0
  -27.6399  -13.2286   19.8460 C   0  0  2  0  0  0
  -28.6885  -13.1625   20.9772 C   0  0  0  0  0  0
  -25.2514  -13.8190   20.5688 C   0  0  0  0  0  0
  -24.1802  -13.0439   20.9209 C   0  0  0  0  0  0
  -24.6385  -11.6917   20.8761 C   0  0  0  0  0  0
  -23.9062  -10.4293   21.0413 C   0  0  0  0  0  0
  -24.3618   -9.4209   21.9188 C   0  0  0  0  0  0
  -23.6299   -8.2241   22.0751 C   0  0  0  0  0  0
  -22.4282   -8.0279   21.3540 C   0  0  0  0  0  0
  -21.9914   -9.0252   20.4646 C   0  0  0  0  0  0
  -22.7236  -10.2133   20.3058 C   0  0  0  0  0  0
  -21.6852   -6.0741   22.5277 C   0  0  0  0  0  0
  -21.4007   -6.5644   23.8212 C   0  0  0  0  0  0
  -21.3658   -5.6797   24.9178 C   0  0  0  0  0  0
  -21.6041   -4.3059   24.7229 C   0  0  0  0  0  0
  -21.8823   -3.8153   23.4351 C   0  0  0  0  0  0
  -21.9194   -4.6969   22.3407 C   0  0  0  0  0  0
  -22.7828  -13.5223   21.1885 C   0  0  0  0  0  0
  -22.1665   -4.2153   21.0985 F   0  0  0  0  0  0
  -21.5632   -3.4546   25.7744 F   0  0  0  0  0  0
  -29.9868  -13.5138   20.3880 N   0  0  0  0  0  0
  -26.2932  -12.9388   20.3277 N   0  0  0  0  0  0
  -25.9311  -11.6534   20.5753 N   0  0  0  0  0  0
  -22.0483  -12.8201   22.0442 N   0  0  0  0  0  0
  -25.4218  -15.1913   20.4092 N   0  0  0  0  0  0
  -31.8054  -14.8410   20.1678 O   0  0  0  0  0  0
  -21.6642   -6.8881   21.4235 O   0  0  0  0  0  0
  -22.3507  -14.5532   20.6746 O   0  0  0  0  0  0
  -24.6336  -31.8552   23.1982 C   0  0  0  0  0  0
  -25.9161  -32.4735   23.8325 C   0  0  1  0  0  0
  -27.2177  -27.2686   20.1046 C   0  0  0  0  0  0
  -25.5961  -33.8543   24.2239 N   0  0  0  0  0  0
  -23.4278  -30.4785   21.5428 C   0  0  2  0  0  0
  -24.8719  -28.9306   20.1059 C   0  0  0  0  0  0
  -22.7514  -29.4593   22.4910 C   0  0  0  0  0  0
  -18.0293  -28.1370   22.8448 C   0  0  0  0  0  0
  -24.1493  -36.7293   23.2632 C   0  0  0  0  0  0
  -25.9762  -30.7661   21.3804 C   0  0  0  0  0  0
  -26.0469  -29.3928   20.7136 C   0  0  0  0  0  0
  -27.2224  -28.5753   20.6998 C   0  0  0  0  0  0
  -26.0146  -26.8737   19.4742 C   0  0  0  0  0  0
  -24.8616  -27.6787   19.4765 C   0  0  0  0  0  0
  -23.6438  -29.8172   20.1577 C   0  0  0  0  0  0
  -25.4121  -36.3060   24.0307 C   0  0  1  0  0  0
  -20.5901  -28.3691   23.1245 C   0  0  2  0  0  0
  -20.6790  -26.9406   22.5394 C   0  0  0  0  0  0
  -19.5767  -26.6363   21.5191 C   0  0  0  0  0  0
  -18.1939  -26.7907   22.1593 C   0  0  0  0  0  0
  -19.1547  -28.8845   23.2835 C   0  0  0  0  0  0
  -18.9476  -30.1445   23.8860 C   0  0  0  0  0  0
  -17.6474  -30.6569   24.0548 C   0  0  0  0  0  0
  -25.9070  -34.9432   23.5074 C   0  0  0  0  0  0
  -16.5361  -29.9062   23.6331 C   0  0  0  0  0  0
  -16.7282  -28.6486   23.0333 C   0  0  0  0  0  0
  -26.4517  -31.6571   25.0728 C   0  0  0  0  0  0
  -25.3725  -31.3732   26.1439 C   0  0  0  0  0  0
  -27.0391  -30.2988   24.6255 C   0  0  0  0  0  0
  -27.6059  -32.4337   25.7510 C   0  0  0  0  0  0
  -27.5575  -37.1795   24.8456 C   0  0  0  0  0  0
  -21.4220  -29.3040   22.3647 N   0  0  0  0  0  0
  -26.4295  -37.3763   23.9395 N   0  0  0  0  0  0
  -24.6978  -31.0507   22.0963 N   0  0  0  0  0  0
  -23.4209  -28.8117   23.3000 O   0  0  0  0  0  0
  -28.3136  -26.3754   20.1504 O   0  0  0  0  0  0
  -26.5635  -34.8908   22.4640 O   0  0  0  0  0  0
  -23.5485  -32.1382   23.7283 O   0  0  0  0  0  0
  -28.1704  -21.7815   22.2809 C   0  0  0  0  0  0
  -28.7374  -21.1805   21.1377 C   0  0  0  0  0  0
  -28.8899  -19.7152   21.2356 C   0  0  0  0  0  0
  -27.8911  -19.7979   23.3289 C   0  0  0  0  0  0
  -28.5113  -18.8320   25.5911 C   0  0  0  0  0  0
  -29.9199  -19.1163   18.9275 C   0  0  0  0  0  0
  -29.0198  -22.2064   19.9644 C   0  0  0  0  0  0
  -27.4123  -19.0148   24.5369 C   0  0  0  0  0  0
  -29.2021  -23.8068   20.2609 C   0  0  0  0  0  0
  -30.2340  -17.3338   20.8037 C   0  0  0  0  0  0
  -28.0680  -24.9064   19.9385 C   0  0  0  0  0  0
  -29.3173  -18.5594   20.2232 C   0  0  1  0  0  0
  -27.7627  -21.1082   23.3645 N   0  0  0  0  0  0
  -28.4311  -19.1046   22.3452 N   0  0  0  0  0  0
  -29.8266  -15.8650   20.6396 N   0  0  0  0  0  0
  -31.4714  -12.5897   19.1472 H   0  0  0  0  0  0
  -30.3894  -11.4794   19.9425 H   0  0  0  0  0  0
  -29.7815  -11.7233   17.5132 H   0  0  0  0  0  0
  -29.6254  -13.4519   17.7040 H   0  0  0  0  0  0
  -27.8869  -11.2787   18.9097 H   0  0  0  0  0  0
  -27.3704  -12.5181   17.7979 H   0  0  0  0  0  0
  -27.6324  -14.2490   19.4626 H   0  0  0  0  0  0
  -28.7254  -12.1652   21.4183 H   0  0  0  0  0  0
  -28.4269  -13.8450   21.7869 H   0  0  0  0  0  0
  -25.2763   -9.5692   22.4766 H   0  0  0  0  0  0
  -24.0019   -7.4630   22.7463 H   0  0  0  0  0  0
  -21.0851   -8.8767   19.8949 H   0  0  0  0  0  0
  -22.3693  -10.9676   19.6177 H   0  0  0  0  0  0
  -21.1987   -7.6150   23.9712 H   0  0  0  0  0  0
  -21.1474   -6.0533   25.9079 H   0  0  0  0  0  0
  -22.0603   -2.7615   23.2853 H   0  0  0  0  0  0
  -22.4121  -11.9859   22.4808 H   0  0  0  0  0  0
  -21.1099  -13.1206   22.2669 H   0  0  0  0  0  0
  -24.6517  -15.8447   20.5072 H   0  0  0  0  0  0
  -26.2687  -15.6275   20.0695 H   0  0  0  0  0  0
  -26.7229  -32.5388   23.1061 H   0  0  0  0  0  0
  -25.0134  -33.9684   25.0400 H   0  0  0  0  0  0
  -22.7243  -31.3005   21.3982 H   0  0  0  0  0  0
  -23.3747  -35.9632   23.3299 H   0  0  0  0  0  0
  -24.3592  -36.8942   22.2051 H   0  0  0  0  0  0
  -23.7264  -37.6492   23.6683 H   0  0  0  0  0  0
  -26.1214  -31.5313   20.6160 H   0  0  0  0  0  0
  -26.8502  -30.8067   22.0176 H   0  0  0  0  0  0
  -28.1240  -28.9234   21.1841 H   0  0  0  0  0  0
  -25.9284  -25.9197   18.9767 H   0  0  0  0  0  0
  -23.9626  -27.3201   18.9934 H   0  0  0  0  0  0
  -23.7689  -30.5952   19.4043 H   0  0  0  0  0  0
  -22.7611  -29.2543   19.8491 H   0  0  0  0  0  0
  -25.1302  -36.1895   25.0796 H   0  0  0  0  0  0
  -20.9977  -28.3274   24.1371 H   0  0  0  0  0  0
  -20.5696  -26.2299   23.3602 H   0  0  0  0  0  0
  -21.6661  -26.7436   22.1184 H   0  0  0  0  0  0
  -19.6951  -25.6266   21.1245 H   0  0  0  0  0  0
  -19.6715  -27.3150   20.6701 H   0  0  0  0  0  0
  -17.4216  -26.6639   21.3992 H   0  0  0  0  0  0
  -18.0353  -26.0044   22.8990 H   0  0  0  0  0  0
  -19.7956  -30.7252   24.2235 H   0  0  0  0  0  0
  -17.5032  -31.6254   24.5141 H   0  0  0  0  0  0
  -15.5363  -30.2943   23.7686 H   0  0  0  0  0  0
  -15.8681  -28.0803   22.7054 H   0  0  0  0  0  0
  -24.5903  -30.7079   25.7753 H   0  0  0  0  0  0
  -24.8906  -32.2900   26.4837 H   0  0  0  0  0  0
  -25.8017  -30.8913   27.0231 H   0  0  0  0  0  0
  -26.2999  -29.6690   24.1291 H   0  0  0  0  0  0
  -27.4070  -29.7293   25.4801 H   0  0  0  0  0  0
  -27.8862  -30.4253   23.9515 H   0  0  0  0  0  0
  -27.2661  -33.3653   26.2050 H   0  0  0  0  0  0
  -28.3879  -32.6893   25.0341 H   0  0  0  0  0  0
  -28.0715  -31.8497   26.5454 H   0  0  0  0  0  0
  -28.2569  -38.0111   24.7520 H   0  0  0  0  0  0
  -28.1104  -36.2648   24.6273 H   0  0  0  0  0  0
  -27.2312  -37.1432   25.8864 H   0  0  0  0  0  0
  -20.9432  -29.8782   21.6851 H   0  0  0  0  0  0
  -26.0168  -38.2831   24.1402 H   0  0  0  0  0  0
  -27.9867  -22.8437   22.3333 H   0  0  0  0  0  0
  -28.1341  -18.2813   26.4532 H   0  0  0  0  0  0
  -28.8780  -19.7954   25.9436 H   0  0  0  0  0  0
  -29.3542  -18.2792   25.1771 H   0  0  0  0  0  0
  -29.2126  -19.7704   18.4180 H   0  0  0  0  0  0
  -30.1734  -18.3117   18.2371 H   0  0  0  0  0  0
  -30.8287  -19.6839   19.1287 H   0  0  0  0  0  0
  -28.2451  -22.0733   19.2079 H   0  0  0  0  0  0
  -29.9405  -21.8715   19.4875 H   0  0  0  0  0  0
  -27.0524  -18.0386   24.2096 H   0  0  0  0  0  0
  -26.5513  -19.5183   24.9784 H   0  0  0  0  0  0
  -30.0356  -24.1130   19.6274 H   0  0  0  0  0  0
  -29.5895  -23.9672   21.2667 H   0  0  0  0  0  0
  -30.3530  -17.4747   21.8780 H   0  0  0  0  0  0
  -31.2478  -17.4542   20.4212 H   0  0  0  0  0  0
  -27.1828  -24.6284   20.5122 H   0  0  0  0  0  0
  -27.8032  -24.7755   18.8879 H   0  0  0  0  0  0
  -28.3699  -18.1044   19.9295 H   0  0  0  0  0  0
  -28.8483  -15.6759   20.7945 H   0  0  0  0  0  0
  1 25  1  0  0  0
  1 30  2  0  0  0
  1 85  1  0  0  0
  2  3  1  0  0  0
  2 25  1  0  0  0
  2 86  1  0  0  0
  2 87  1  0  0  0
  3  4  1  0  0  0
  3 88  1  0  0  0
  3 89  1  0  0  0
  4  5  1  0  0  0
  4 90  1  0  0  0
  4 91  1  0  0  0
  5  6  1  0  0  0
  5 26  1  0  0  0
  5 92  1  0  0  0
  6 25  1  0  0  0
  6 93  1  0  0  0
  6 94  1  0  0  0
  7  8  2  0  0  0
  7 26  1  0  0  0
  7 29  1  0  0  0
  8  9  1  0  0  0
  8 22  1  0  0  0
  9 10  1  0  0  0
  9 27  2  0  0  0
 10 11  2  0  0  0
 10 15  1  0  0  0
 11 12  1  0  0  0
 11 95  1  0  0  0
 12 13  2  0  0  0
 12 96  1  0  0  0
 13 14  1  0  0  0
 13 31  1  0  0  0
 14 15  2  0  0  0
 14 97  1  0  0  0
 15 98  1  0  0  0
 16 17  2  0  0  0
 16 21  1  0  0  0
 16 31  1  0  0  0
 17 18  1  0  0  0
 17 99  1  0  0  0
 18 19  2  0  0  0
 18100  1  0  0  0
 19 20  1  0  0  0
 19 24  1  0  0  0
 20 21  2  0  0  0
 20101  1  0  0  0
 21 23  1  0  0  0
 22 28  1  0  0  0
 22 32  2  0  0  0
 26 27  1  0  0  0
 28102  1  0  0  0
 28103  1  0  0  0
 29104  1  0  0  0
 29105  1  0  0  0
 33 34  1  0  0  0
 33 66  1  0  0  0
 33 70  2  0  0  0
 34 36  1  0  0  0
 34 59  1  0  0  0
 34106  1  0  0  0
 35 44  2  0  0  0
 35 45  1  0  0  0
 35 68  1  0  0  0
 36 56  1  0  0  0
 36107  1  0  0  0
 37 39  1  0  0  0
 37 47  1  0  0  0
 37 66  1  0  0  0
 37108  1  0  0  0
 38 43  2  0  0  0
 38 46  1  0  0  0
 38 47  1  0  0  0
 39 64  1  0  0  0
 39 67  2  0  0  0
 40 52  1  0  0  0
 40 53  2  0  0  0
 40 58  1  0  0  0
 41109  1  0  0  0
 41110  1  0  0  0
 41111  1  0  0  0
 41 48  1  0  0  0
 42 43  1  0  0  0
 42 66  1  0  0  0
 42112  1  0  0  0
 42113  1  0  0  0
 43 44  1  0  0  0
 44114  1  0  0  0
 45 46  2  0  0  0
 45115  1  0  0  0
 46116  1  0  0  0
 47117  1  0  0  0
 47118  1  0  0  0
 48 56  1  0  0  0
 48 65  1  0  0  0
 48119  1  0  0  0
 49 50  1  0  0  0
 49 53  1  0  0  0
 49 64  1  0  0  0
 49120  1  0  0  0
 50 51  1  0  0  0
 50121  1  0  0  0
 50122  1  0  0  0
 51 52  1  0  0  0
 51123  1  0  0  0
 51124  1  0  0  0
 52125  1  0  0  0
 52126  1  0  0  0
 53 54  1  0  0  0
 54 55  2  0  0  0
 54127  1  0  0  0
 55 57  1  0  0  0
 55128  1  0  0  0
 56 69  2  0  0  0
 57 58  2  0  0  0
 57129  1  0  0  0
 58130  1  0  0  0
 59 60  1  0  0  0
 59 61  1  0  0  0
 59 62  1  0  0  0
 60131  1  0  0  0
 60132  1  0  0  0
 60133  1  0  0  0
 61134  1  0  0  0
 61135  1  0  0  0
 61136  1  0  0  0
 62137  1  0  0  0
 62138  1  0  0  0
 62139  1  0  0  0
 63 65  1  0  0  0
 63140  1  0  0  0
 63141  1  0  0  0
 63142  1  0  0  0
 64143  1  0  0  0
 65144  1  0  0  0
 68 81  1  0  0  0
 71 72  2  0  0  0
 71 83  1  0  0  0
 71145  1  0  0  0
 72 73  1  0  0  0
 72 77  1  0  0  0
 73 82  1  0  0  0
 73 84  2  0  0  0
 74 78  1  0  0  0
 74 83  2  0  0  0
 74 84  1  0  0  0
 75 78  1  0  0  0
 75146  1  0  0  0
 75147  1  0  0  0
 75148  1  0  0  0
 76149  1  0  0  0
 76150  1  0  0  0
 76151  1  0  0  0
 76 82  1  0  0  0
 77 79  1  0  0  0
 77152  1  0  0  0
 77153  1  0  0  0
 78154  1  0  0  0
 78155  1  0  0  0
 79 81  1  0  0  0
 79156  1  0  0  0
 79157  1  0  0  0
 80 82  1  0  0  0
 80 85  1  0  0  0
 80158  1  0  0  0
 80159  1  0  0  0
 81160  1  0  0  0
 81161  1  0  0  0
 82162  1  0  0  0
 85163  1  0  0  0
M  ISO  4   1 100  68 101  81 101  85 100
M  END
> <chiral flag>
0

> <version>
0

> <s_m_source_file>
/data/baiqing/PycharmProjects/Reinvent-master-3.2/result/LINK_invent/BTK/process_docking_weight1_custom_sum_contain_oxygen_bond_distance_aromatic_linkinvent_7_9_3/rearranged_h_0086.sdf

> <i_m_source_file_index>
6

> <r_mmod_Potential_Energy-OPLS-2005>
-183.707321166992

> <r_mmod_Stretch_Energy-OPLS-2005>
131.893966674805

> <r_mmod_Bend_Energy-OPLS-2005>
207.880996704102

> <r_mmod_Torsional_Energy-OPLS-2005>
218.715774536133

> <r_mmod_Improper_Torsional_Energy-OPLS-2005>
5.19494581222534

> <r_mmod_Van_der_Waal_Energy-OPLS-2005>
149.429779052734

> <r_mmod_Electrostatic_Energy-OPLS-2005>
-754.932434082031

> <r_mmod_Solvation_Energy-OPLS-2005>
-225.408004760742

> <b_mmod_Minimization_Converged-OPLS-2005>
0

> <r_mmod_RMS_Derivative-OPLS-2005>
1.84878158569336

$$$$
6
                    3D
 Structure written by MMmdl.
170178  0  0  1  0            999 V2000
  -30.6587  -14.9863   20.5093 C   0  0  0  0  0  0
  -30.4299  -12.6191   19.5556 C   0  0  0  0  0  0
  -29.5518  -12.5765   18.2823 C   0  0  0  0  0  0
  -28.0659  -12.3925   18.6457 C   0  0  0  0  0  0
  -27.6415  -13.2939   19.8387 C   0  0  2  0  0  0
  -28.6773  -13.3561   20.9940 C   0  0  0  0  0  0
  -25.2462  -13.8292   20.5634 C   0  0  0  0  0  0
  -24.1819  -13.0437   20.9136 C   0  0  0  0  0  0
  -24.6525  -11.6970   20.8699 C   0  0  0  0  0  0
  -23.9197  -10.4293   21.0313 C   0  0  0  0  0  0
  -24.3675   -9.4232   21.9143 C   0  0  0  0  0  0
  -23.6335   -8.2306   22.0759 C   0  0  0  0  0  0
  -22.4313   -8.0344   21.3529 C   0  0  0  0  0  0
  -21.9938   -9.0328   20.4651 C   0  0  0  0  0  0
  -22.7328  -10.2187   20.3024 C   0  0  0  0  0  0
  -21.6910   -6.0760   22.5287 C   0  0  0  0  0  0
  -21.4062   -6.5645   23.8212 C   0  0  0  0  0  0
  -21.3656   -5.6768   24.9178 C   0  0  0  0  0  0
  -21.6054   -4.3075   24.7222 C   0  0  0  0  0  0
  -21.8816   -3.8150   23.4354 C   0  0  0  0  0  0
  -21.9193   -4.6964   22.3406 C   0  0  0  0  0  0
  -22.7810  -13.5185   21.1713 C   0  0  0  0  0  0
  -22.1620   -4.2144   21.0996 F   0  0  0  0  0  0
  -21.5598   -3.4538   25.7727 F   0  0  0  0  0  0
  -29.9721  -13.7585   20.4240 N   0  0  0  0  0  0
  -26.2996  -12.9646   20.3167 N   0  0  0  0  0  0
  -25.9489  -11.6737   20.5679 N   0  0  0  0  0  0
  -22.0393  -12.8306   22.0366 N   0  0  0  0  0  0
  -25.3979  -15.2041   20.4087 N   0  0  0  0  0  0
  -31.8279  -14.9412   20.1191 O   0  0  0  0  0  0
  -21.6701   -6.8925   21.4249 O   0  0  0  0  0  0
  -22.3497  -14.5430   20.6541 O   0  0  0  0  0  0
  -24.6436  -31.8397   23.1943 C   0  0  0  0  0  0
  -25.9186  -32.4736   23.8323 C   0  0  1  0  0  0
  -27.2159  -27.1270   20.1990 C   0  0  0  0  0  0
  -25.5920  -33.8539   24.2210 N   0  0  0  0  0  0
  -23.4501  -30.4620   21.5350 C   0  0  2  0  0  0
  -24.9024  -28.8771   20.1282 C   0  0  0  0  0  0
  -22.7579  -29.4501   22.4819 C   0  0  0  0  0  0
  -18.0301  -28.1448   22.8475 C   0  0  0  0  0  0
  -24.1453  -36.7249   23.2618 C   0  0  0  0  0  0
  -26.0048  -30.7177   21.3938 C   0  0  0  0  0  0
  -26.0789  -29.3272   20.7460 C   0  0  0  0  0  0
  -27.2363  -28.4610   20.7646 C   0  0  0  0  0  0
  -26.0109  -26.7725   19.5448 C   0  0  0  0  0  0
  -24.8744  -27.6147   19.5213 C   0  0  0  0  0  0
  -23.6865  -29.7893   20.1585 C   0  0  0  0  0  0
  -25.4121  -36.3056   24.0271 C   0  0  1  0  0  0
  -20.5912  -28.3696   23.1240 C   0  0  2  0  0  0
  -20.6783  -26.9393   22.5408 C   0  0  0  0  0  0
  -19.5767  -26.6403   21.5203 C   0  0  0  0  0  0
  -18.1934  -26.7984   22.1605 C   0  0  0  0  0  0
  -19.1549  -28.8916   23.2857 C   0  0  0  0  0  0
  -18.9467  -30.1518   23.8871 C   0  0  0  0  0  0
  -17.6469  -30.6627   24.0574 C   0  0  0  0  0  0
  -25.9067  -34.9417   23.5051 C   0  0  0  0  0  0
  -16.5374  -29.9117   23.6362 C   0  0  0  0  0  0
  -16.7286  -28.6564   23.0343 C   0  0  0  0  0  0
  -26.4546  -31.6656   25.0753 C   0  0  0  0  0  0
  -25.3718  -31.3845   26.1427 C   0  0  0  0  0  0
  -27.0416  -30.3068   24.6310 C   0  0  0  0  0  0
  -27.6102  -32.4392   25.7559 C   0  0  0  0  0  0
  -27.5562  -37.1776   24.8459 C   0  0  0  0  0  0
  -21.4234  -29.3016   22.3606 N   0  0  0  0  0  0
  -26.4291  -37.3777   23.9410 N   0  0  0  0  0  0
  -24.7183  -31.0242   22.1033 N   0  0  0  0  0  0
  -23.4198  -28.7984   23.2890 O   0  0  0  0  0  0
  -28.2888  -26.1651   20.2397 O   0  0  0  0  0  0
  -26.5628  -34.8918   22.4587 O   0  0  0  0  0  0
  -23.5519  -32.1265   23.7172 O   0  0  0  0  0  0
  -31.1891  -21.1377   21.3189 C   0  0  0  0  0  0
  -30.0219  -20.5943   20.7337 C   0  0  0  0  0  0
  -31.4124  -20.8722   22.6995 C   0  0  0  0  0  0
  -29.8112  -19.1833   21.1861 C   0  0  0  0  0  0
  -30.4406  -20.0003   23.2829 C   0  0  0  0  0  0
  -29.9873  -20.1160   24.7250 C   0  0  0  0  0  0
  -32.0300  -17.9380   20.8017 C   0  0  0  0  0  0
  -33.8799  -21.5226   22.6848 C   0  0  0  0  0  0
  -32.9293  -21.0140   24.8493 C   0  0  0  0  0  0
  -32.1302  -23.1192   23.7019 C   0  0  0  0  0  0
  -28.8817  -21.7833   20.7682 C   0  0  0  0  0  0
  -29.0902  -23.3773   20.2503 C   0  0  0  0  0  0
  -28.0607  -24.6634   20.5688 C   0  0  0  0  0  0
  -30.5068  -17.7907   20.5647 C   0  0  2  0  0  0
  -32.5442  -21.6369   23.4746 C   0  0  0  0  0  0
  -29.7256  -19.1011   22.5371 N   0  0  0  0  0  0
  -30.0666  -16.2620   20.8275 N   0  0  0  0  0  0
  -31.4840  -12.7017   19.2839 H   0  0  0  0  0  0
  -30.3360  -11.6753   20.0991 H   0  0  0  0  0  0
  -29.8754  -11.7594   17.6392 H   0  0  0  0  0  0
  -29.6946  -13.5034   17.7299 H   0  0  0  0  0  0
  -27.9151  -11.3461   18.8948 H   0  0  0  0  0  0
  -27.4393  -12.5994   17.7759 H   0  0  0  0  0  0
  -27.5916  -14.2989   19.4180 H   0  0  0  0  0  0
  -28.7400  -12.4022   21.5198 H   0  0  0  0  0  0
  -28.3611  -14.0920   21.7339 H   0  0  0  0  0  0
  -25.2804   -9.5764   22.4769 H   0  0  0  0  0  0
  -24.0050   -7.4725   22.7552 H   0  0  0  0  0  0
  -21.0807   -8.8872   19.9003 H   0  0  0  0  0  0
  -22.3715  -10.9741   19.6172 H   0  0  0  0  0  0
  -21.2097   -7.6152   23.9732 H   0  0  0  0  0  0
  -21.1440   -6.0500   25.9055 H   0  0  0  0  0  0
  -22.0583   -2.7613   23.2877 H   0  0  0  0  0  0
  -22.3845  -12.0061   22.5085 H   0  0  0  0  0  0
  -21.0980  -13.1419   22.2271 H   0  0  0  0  0  0
  -24.6210  -15.8445   20.5344 H   0  0  0  0  0  0
  -26.2470  -15.6742   20.1267 H   0  0  0  0  0  0
  -26.7199  -32.5350   23.0994 H   0  0  0  0  0  0
  -25.0143  -33.9747   25.0409 H   0  0  0  0  0  0
  -22.7537  -31.2892   21.3738 H   0  0  0  0  0  0
  -23.3759  -35.9540   23.3315 H   0  0  0  0  0  0
  -24.3515  -36.8877   22.2033 H   0  0  0  0  0  0
  -23.7212  -37.6427   23.6676 H   0  0  0  0  0  0
  -26.1412  -31.4656   20.6167 H   0  0  0  0  0  0
  -26.8860  -30.7850   22.0256 H   0  0  0  0  0  0
  -28.1314  -28.7774   21.2806 H   0  0  0  0  0  0
  -25.9132  -25.8074   19.0666 H   0  0  0  0  0  0
  -23.9578  -27.2681   19.0615 H   0  0  0  0  0  0
  -23.8585  -30.5631   19.4114 H   0  0  0  0  0  0
  -22.8039  -29.2385   19.8233 H   0  0  0  0  0  0
  -25.1328  -36.1846   25.0774 H   0  0  0  0  0  0
  -21.0002  -28.3279   24.1361 H   0  0  0  0  0  0
  -20.5673  -26.2264   23.3599 H   0  0  0  0  0  0
  -21.6640  -26.7414   22.1196 H   0  0  0  0  0  0
  -19.6917  -25.6302   21.1255 H   0  0  0  0  0  0
  -19.6778  -27.3192   20.6742 H   0  0  0  0  0  0
  -17.4194  -26.6701   21.4034 H   0  0  0  0  0  0
  -18.0371  -26.0153   22.9051 H   0  0  0  0  0  0
  -19.7949  -30.7342   24.2207 H   0  0  0  0  0  0
  -17.5032  -31.6302   24.5155 H   0  0  0  0  0  0
  -15.5367  -30.3002   23.7781 H   0  0  0  0  0  0
  -15.8670  -28.0924   22.7033 H   0  0  0  0  0  0
  -24.5874  -30.7235   25.7711 H   0  0  0  0  0  0
  -24.8897  -32.3005   26.4830 H   0  0  0  0  0  0
  -25.7920  -30.8997   27.0235 H   0  0  0  0  0  0
  -26.3023  -29.6811   24.1253 H   0  0  0  0  0  0
  -27.3991  -29.7388   25.4918 H   0  0  0  0  0  0
  -27.8966  -30.4413   23.9679 H   0  0  0  0  0  0
  -27.2761  -33.3714   26.2167 H   0  0  0  0  0  0
  -28.3942  -32.6905   25.0399 H   0  0  0  0  0  0
  -28.0726  -31.8454   26.5474 H   0  0  0  0  0  0
  -28.2576  -38.0075   24.7515 H   0  0  0  0  0  0
  -28.1041  -36.2583   24.6279 H   0  0  0  0  0  0
  -27.2226  -37.1429   25.8845 H   0  0  0  0  0  0
  -20.9426  -29.8742   21.6817 H   0  0  0  0  0  0
  -26.0108  -38.2799   24.1536 H   0  0  0  0  0  0
  -31.6706  -21.9925   20.8736 H   0  0  0  0  0  0
  -30.5158  -19.4174   25.3716 H   0  0  0  0  0  0
  -28.9149  -19.9420   24.8435 H   0  0  0  0  0  0
  -30.1426  -21.1387   25.0669 H   0  0  0  0  0  0
  -32.3457  -18.9382   20.5068 H   0  0  0  0  0  0
  -32.6647  -17.2367   20.2555 H   0  0  0  0  0  0
  -32.2526  -17.8220   21.8564 H   0  0  0  0  0  0
  -34.2109  -20.4787   22.6984 H   0  0  0  0  0  0
  -34.6980  -22.1094   23.1232 H   0  0  0  0  0  0
  -33.8118  -21.8170   21.6408 H   0  0  0  0  0  0
  -33.1057  -19.9367   24.7672 H   0  0  0  0  0  0
  -32.2249  -21.1882   25.6655 H   0  0  0  0  0  0
  -33.8576  -21.4563   25.2147 H   0  0  0  0  0  0
  -31.9480  -23.6715   22.7782 H   0  0  0  0  0  0
  -32.8783  -23.6650   24.2850 H   0  0  0  0  0  0
  -31.2135  -23.2177   24.2801 H   0  0  0  0  0  0
  -28.6295  -21.8495   21.8280 H   0  0  0  0  0  0
  -27.9813  -21.3834   20.3006 H   0  0  0  0  0  0
  -29.2025  -23.3183   19.1706 H   0  0  0  0  0  0
  -30.0568  -23.7106   20.6141 H   0  0  0  0  0  0
  -27.9214  -24.6527   21.6533 H   0  0  0  0  0  0
  -27.0930  -24.3549   20.1695 H   0  0  0  0  0  0
  -30.3748  -17.9109   19.4897 H   0  0  0  0  0  0
  -29.1349  -16.2008   21.2040 H   0  0  0  0  0  0
  1 25  1  0  0  0
  1 30  2  0  0  0
  1 87  1  0  0  0
  2  3  1  0  0  0
  2 25  1  0  0  0
  2 88  1  0  0  0
  2 89  1  0  0  0
  3  4  1  0  0  0
  3 90  1  0  0  0
  3 91  1  0  0  0
  4  5  1  0  0  0
  4 92  1  0  0  0
  4 93  1  0  0  0
  5  6  1  0  0  0
  5 26  1  0  0  0
  5 94  1  0  0  0
  6 25  1  0  0  0
  6 95  1  0  0  0
  6 96  1  0  0  0
  7  8  2  0  0  0
  7 26  1  0  0  0
  7 29  1  0  0  0
  8  9  1  0  0  0
  8 22  1  0  0  0
  9 10  1  0  0  0
  9 27  2  0  0  0
 10 11  2  0  0  0
 10 15  1  0  0  0
 11 12  1  0  0  0
 11 97  1  0  0  0
 12 13  2  0  0  0
 12 98  1  0  0  0
 13 14  1  0  0  0
 13 31  1  0  0  0
 14 15  2  0  0  0
 14 99  1  0  0  0
 15100  1  0  0  0
 16 17  2  0  0  0
 16 21  1  0  0  0
 16 31  1  0  0  0
 17 18  1  0  0  0
 17101  1  0  0  0
 18 19  2  0  0  0
 18102  1  0  0  0
 19 20  1  0  0  0
 19 24  1  0  0  0
 20 21  2  0  0  0
 20103  1  0  0  0
 21 23  1  0  0  0
 22 28  1  0  0  0
 22 32  2  0  0  0
 26 27  1  0  0  0
 28104  1  0  0  0
 28105  1  0  0  0
 29106  1  0  0  0
 29107  1  0  0  0
 33 34  1  0  0  0
 33 66  1  0  0  0
 33 70  2  0  0  0
 34 36  1  0  0  0
 34 59  1  0  0  0
 34108  1  0  0  0
 35 44  2  0  0  0
 35 45  1  0  0  0
 35 68  1  0  0  0
 36 56  1  0  0  0
 36109  1  0  0  0
 37 39  1  0  0  0
 37 47  1  0  0  0
 37 66  1  0  0  0
 37110  1  0  0  0
 38 43  2  0  0  0
 38 46  1  0  0  0
 38 47  1  0  0  0
 39 64  1  0  0  0
 39 67  2  0  0  0
 40 52  1  0  0  0
 40 53  2  0  0  0
 40 58  1  0  0  0
 41111  1  0  0  0
 41112  1  0  0  0
 41113  1  0  0  0
 41 48  1  0  0  0
 42 43  1  0  0  0
 42 66  1  0  0  0
 42114  1  0  0  0
 42115  1  0  0  0
 43 44  1  0  0  0
 44116  1  0  0  0
 45 46  2  0  0  0
 45117  1  0  0  0
 46118  1  0  0  0
 47119  1  0  0  0
 47120  1  0  0  0
 48 56  1  0  0  0
 48 65  1  0  0  0
 48121  1  0  0  0
 49 50  1  0  0  0
 49 53  1  0  0  0
 49 64  1  0  0  0
 49122  1  0  0  0
 50 51  1  0  0  0
 50123  1  0  0  0
 50124  1  0  0  0
 51 52  1  0  0  0
 51125  1  0  0  0
 51126  1  0  0  0
 52127  1  0  0  0
 52128  1  0  0  0
 53 54  1  0  0  0
 54 55  2  0  0  0
 54129  1  0  0  0
 55 57  1  0  0  0
 55130  1  0  0  0
 56 69  2  0  0  0
 57 58  2  0  0  0
 57131  1  0  0  0
 58132  1  0  0  0
 59 60  1  0  0  0
 59 61  1  0  0  0
 59 62  1  0  0  0
 60133  1  0  0  0
 60134  1  0  0  0
 60135  1  0  0  0
 61136  1  0  0  0
 61137  1  0  0  0
 61138  1  0  0  0
 62139  1  0  0  0
 62140  1  0  0  0
 62141  1  0  0  0
 63 65  1  0  0  0
 63142  1  0  0  0
 63143  1  0  0  0
 63144  1  0  0  0
 64145  1  0  0  0
 65146  1  0  0  0
 68 83  1  0  0  0
 71 72  2  0  0  0
 71 73  1  0  0  0
 71147  1  0  0  0
 72 74  1  0  0  0
 72 81  1  0  0  0
 73 75  2  0  0  0
 73 85  1  0  0  0
 74 84  1  0  0  0
 74 86  2  0  0  0
 75 76  1  0  0  0
 75 86  1  0  0  0
 76148  1  0  0  0
 76149  1  0  0  0
 76150  1  0  0  0
 77151  1  0  0  0
 77152  1  0  0  0
 77153  1  0  0  0
 77 84  1  0  0  0
 78154  1  0  0  0
 78155  1  0  0  0
 78156  1  0  0  0
 78 85  1  0  0  0
 79 85  1  0  0  0
 79157  1  0  0  0
 79158  1  0  0  0
 79159  1  0  0  0
 80 85  1  0  0  0
 80160  1  0  0  0
 80161  1  0  0  0
 80162  1  0  0  0
 81 82  1  0  0  0
 81163  1  0  0  0
 81164  1  0  0  0
 82 83  1  0  0  0
 82165  1  0  0  0
 82166  1  0  0  0
 83167  1  0  0  0
 83168  1  0  0  0
 84 87  1  0  0  0
 84169  1  0  0  0
 87170  1  0  0  0
M  ISO  4   1 100  68 101  83 101  87 100
M  END
> <chiral flag>
0

> <version>
0

> <s_m_source_file>
/data/baiqing/PycharmProjects/Reinvent-master-3.2/result/LINK_invent/BTK/process_docking_weight1_custom_sum_contain_oxygen_bond_distance_aromatic_linkinvent_7_9_3/rearranged_h_0086.sdf

> <i_m_source_file_index>
7

> <r_mmod_Potential_Energy-OPLS-2005>
604.503723144531

> <r_mmod_Stretch_Energy-OPLS-2005>
304.286865234375

> <r_mmod_Bend_Energy-OPLS-2005>
325.057495117188

> <r_mmod_Torsional_Energy-OPLS-2005>
429.466125488281

> <r_mmod_Improper_Torsional_Energy-OPLS-2005>
34.7398109436035

> <r_mmod_Van_der_Waal_Energy-OPLS-2005>
149.255584716797

> <r_mmod_Electrostatic_Energy-OPLS-2005>
-632.612854003906

> <r_mmod_Solvation_Energy-OPLS-2005>
-210.363403320312

> <b_mmod_Minimization_Converged-OPLS-2005>
0

> <r_mmod_RMS_Derivative-OPLS-2005>
11.8694820404053

$$$$
7
                    3D
 Structure written by MMmdl.
166174  0  0  1  0            999 V2000
  -30.6410  -14.5620   20.5628 C   0  0  0  0  0  0
  -30.4384  -12.3634   19.4249 C   0  0  0  0  0  0
  -29.5028  -12.5203   18.2066 C   0  0  0  0  0  0
  -28.0211  -12.3739   18.6131 C   0  0  0  0  0  0
  -27.6582  -13.2114   19.8692 C   0  0  2  0  0  0
  -28.7031  -13.0044   20.9887 C   0  0  0  0  0  0
  -25.2568  -13.8156   20.5662 C   0  0  0  0  0  0
  -24.1829  -13.0427   20.9165 C   0  0  0  0  0  0
  -24.6390  -11.6906   20.8728 C   0  0  0  0  0  0
  -23.9055  -10.4290   21.0392 C   0  0  0  0  0  0
  -24.3614   -9.4211   21.9175 C   0  0  0  0  0  0
  -23.6294   -8.2247   22.0750 C   0  0  0  0  0  0
  -22.4280   -8.0272   21.3533 C   0  0  0  0  0  0
  -21.9906   -9.0244   20.4644 C   0  0  0  0  0  0
  -22.7229  -10.2128   20.3047 C   0  0  0  0  0  0
  -21.6848   -6.0727   22.5280 C   0  0  0  0  0  0
  -21.4015   -6.5634   23.8207 C   0  0  0  0  0  0
  -21.3659   -5.6788   24.9165 C   0  0  0  0  0  0
  -21.6050   -4.3055   24.7220 C   0  0  0  0  0  0
  -21.8818   -3.8145   23.4343 C   0  0  0  0  0  0
  -21.9194   -4.6960   22.3400 C   0  0  0  0  0  0
  -22.7850  -13.5233   21.1828 C   0  0  0  0  0  0
  -22.1661   -4.2146   21.0980 F   0  0  0  0  0  0
  -21.5628   -3.4543   25.7729 F   0  0  0  0  0  0
  -30.0211  -13.3517   20.4323 N   0  0  0  0  0  0
  -26.3005  -12.9331   20.3325 N   0  0  0  0  0  0
  -25.9316  -11.6500   20.5737 N   0  0  0  0  0  0
  -22.0506  -12.8213   22.0394 N   0  0  0  0  0  0
  -25.4315  -15.1876   20.4067 N   0  0  0  0  0  0
  -31.7902  -14.7654   20.1612 O   0  0  0  0  0  0
  -21.6638   -6.8876   21.4242 O   0  0  0  0  0  0
  -22.3547  -14.5535   20.6678 O   0  0  0  0  0  0
  -24.6226  -31.8654   23.2049 C   0  0  0  0  0  0
  -25.9096  -32.4798   23.8391 C   0  0  1  0  0  0
  -27.2231  -27.3685   20.1043 C   0  0  0  0  0  0
  -25.5943  -33.8606   24.2333 N   0  0  0  0  0  0
  -23.4139  -30.4898   21.5489 C   0  0  2  0  0  0
  -24.8547  -28.9541   20.1063 C   0  0  0  0  0  0
  -22.7445  -29.4672   22.4957 C   0  0  0  0  0  0
  -18.0280  -28.1371   22.8482 C   0  0  0  0  0  0
  -24.1478  -36.7313   23.2648 C   0  0  0  0  0  0
  -25.9488  -30.8083   21.3711 C   0  0  0  0  0  0
  -26.0198  -29.4411   20.7130 C   0  0  0  0  0  0
  -27.2029  -28.6568   20.7072 C   0  0  0  0  0  0
  -26.0392  -26.9271   19.4645 C   0  0  0  0  0  0
  -24.8648  -27.7007   19.4751 C   0  0  0  0  0  0
  -23.6220  -29.8314   20.1599 C   0  0  0  0  0  0
  -25.4093  -36.3117   24.0350 C   0  0  1  0  0  0
  -20.5887  -28.3690   23.1266 C   0  0  2  0  0  0
  -20.6774  -26.9421   22.5403 C   0  0  0  0  0  0
  -19.5754  -26.6382   21.5198 C   0  0  0  0  0  0
  -18.1924  -26.7921   22.1610 C   0  0  0  0  0  0
  -19.1542  -28.8831   23.2870 C   0  0  0  0  0  0
  -18.9472  -30.1426   23.8900 C   0  0  0  0  0  0
  -17.6475  -30.6572   24.0564 C   0  0  0  0  0  0
  -25.9030  -34.9479   23.5141 C   0  0  0  0  0  0
  -16.5356  -29.9085   23.6324 C   0  0  0  0  0  0
  -16.7276  -28.6503   23.0352 C   0  0  0  0  0  0
  -26.4487  -31.6600   25.0758 C   0  0  0  0  0  0
  -25.3728  -31.3743   26.1494 C   0  0  0  0  0  0
  -27.0335  -30.3043   24.6184 C   0  0  0  0  0  0
  -27.6062  -32.4330   25.7520 C   0  0  0  0  0  0
  -27.5577  -37.1801   24.8469 C   0  0  0  0  0  0
  -21.4173  -29.3069   22.3672 N   0  0  0  0  0  0
  -26.4289  -37.3795   23.9426 N   0  0  0  0  0  0
  -24.6807  -31.0696   22.0994 N   0  0  0  0  0  0
  -23.4173  -28.8207   23.3031 O   0  0  0  0  0  0
  -28.3684  -26.5759   20.1703 O   0  0  0  0  0  0
  -26.5597  -34.8929   22.4699 O   0  0  0  0  0  0
  -23.5401  -32.1475   23.7398 O   0  0  0  0  0  0
  -30.4644  -22.4409   22.7859 C   0  0  0  0  0  0
  -29.8573  -21.8134   21.6788 C   0  0  0  0  0  0
  -29.8638  -20.3771   21.7195 C   0  0  0  0  0  0
  -30.8267  -20.4490   23.8131 C   0  0  0  0  0  0
  -33.2869  -19.1516   26.5807 C   0  0  0  0  0  0
  -29.2128  -22.7021   20.5732 C   0  0  0  0  0  0
  -29.1736  -19.4393   20.7042 C   0  0  0  0  0  0
  -31.2964  -19.7037   25.0536 C   0  0  0  0  0  0
  -32.8251  -19.7471   25.2409 C   0  0  0  0  0  0
  -29.1520  -24.2584   20.8596 C   0  0  0  0  0  0
  -29.8436  -18.0627   20.2956 C   0  0  0  0  0  0
  -30.1552  -16.9769   21.3868 C   0  0  0  0  0  0
  -28.2792  -25.1402   19.9107 C   0  0  0  0  0  0
  -30.9243  -21.7660   23.8474 N   0  0  0  0  0  0
  -30.3445  -19.7359   22.8052 N   0  0  0  0  0  0
  -29.8514  -15.5614   21.0307 N   0  0  0  0  0  0
  -31.4780  -12.4994   19.1221 H   0  0  0  0  0  0
  -30.3765  -11.3554   19.8373 H   0  0  0  0  0  0
  -29.7563  -11.7874   17.4387 H   0  0  0  0  0  0
  -29.6582  -13.5015   17.7545 H   0  0  0  0  0  0
  -27.8278  -11.3169   18.8012 H   0  0  0  0  0  0
  -27.3775  -12.6560   17.7792 H   0  0  0  0  0  0
  -27.6929  -14.2582   19.5651 H   0  0  0  0  0  0
  -28.7035  -11.9647   21.3197 H   0  0  0  0  0  0
  -28.4541  -13.5932   21.8731 H   0  0  0  0  0  0
  -25.2766   -9.5674   22.4741 H   0  0  0  0  0  0
  -23.9995   -7.4636   22.7462 H   0  0  0  0  0  0
  -21.0839   -8.8768   19.8947 H   0  0  0  0  0  0
  -22.3699  -10.9660   19.6148 H   0  0  0  0  0  0
  -21.2013   -7.6143   23.9704 H   0  0  0  0  0  0
  -21.1481   -6.0522   25.9064 H   0  0  0  0  0  0
  -22.0604   -2.7611   23.2843 H   0  0  0  0  0  0
  -22.4133  -11.9877   22.4774 H   0  0  0  0  0  0
  -21.1117  -13.1224   22.2590 H   0  0  0  0  0  0
  -24.6689  -15.8468   20.5129 H   0  0  0  0  0  0
  -26.2822  -15.6217   20.0737 H   0  0  0  0  0  0
  -26.7184  -32.5484   23.1167 H   0  0  0  0  0  0
  -25.0100  -33.9754   25.0492 H   0  0  0  0  0  0
  -22.7096  -31.3110   21.4104 H   0  0  0  0  0  0
  -23.3737  -35.9649   23.3315 H   0  0  0  0  0  0
  -24.3582  -36.8914   22.2061 H   0  0  0  0  0  0
  -23.7215  -37.6514   23.6646 H   0  0  0  0  0  0
  -26.0741  -31.5702   20.6012 H   0  0  0  0  0  0
  -26.8305  -30.8546   21.9981 H   0  0  0  0  0  0
  -28.0958  -29.0230   21.1955 H   0  0  0  0  0  0
  -25.9920  -25.9830   18.9437 H   0  0  0  0  0  0
  -23.9760  -27.3250   18.9861 H   0  0  0  0  0  0
  -23.7380  -30.6127   19.4067 H   0  0  0  0  0  0
  -22.7405  -29.2599   19.8613 H   0  0  0  0  0  0
  -25.1250  -36.1999   25.0839 H   0  0  0  0  0  0
  -20.9971  -28.3261   24.1389 H   0  0  0  0  0  0
  -20.5641  -26.2307   23.3600 H   0  0  0  0  0  0
  -21.6636  -26.7432   22.1203 H   0  0  0  0  0  0
  -19.6917  -25.6290   21.1221 H   0  0  0  0  0  0
  -19.6677  -27.3178   20.6710 H   0  0  0  0  0  0
  -17.4195  -26.6670   21.4010 H   0  0  0  0  0  0
  -18.0339  -26.0044   22.8988 H   0  0  0  0  0  0
  -19.7950  -30.7235   24.2280 H   0  0  0  0  0  0
  -17.5039  -31.6259   24.5170 H   0  0  0  0  0  0
  -15.5365  -30.2994   23.7627 H   0  0  0  0  0  0
  -15.8683  -28.0809   22.7084 H   0  0  0  0  0  0
  -24.5892  -30.7101   25.7845 H   0  0  0  0  0  0
  -24.8916  -32.2894   26.4941 H   0  0  0  0  0  0
  -25.8038  -30.8920   27.0276 H   0  0  0  0  0  0
  -26.2926  -29.6795   24.1196 H   0  0  0  0  0  0
  -27.4045  -29.7297   25.4680 H   0  0  0  0  0  0
  -27.8770  -30.4367   23.9421 H   0  0  0  0  0  0
  -27.2705  -33.3642   26.2112 H   0  0  0  0  0  0
  -28.3857  -32.6874   25.0324 H   0  0  0  0  0  0
  -28.0761  -31.8452   26.5414 H   0  0  0  0  0  0
  -28.2589  -38.0106   24.7514 H   0  0  0  0  0  0
  -28.1076  -36.2623   24.6284 H   0  0  0  0  0  0
  -27.2315  -37.1458   25.8884 H   0  0  0  0  0  0
  -20.9338  -29.8834   21.6927 H   0  0  0  0  0  0
  -26.0182  -38.2890   24.1384 H   0  0  0  0  0  0
  -30.5516  -23.5125   22.8715 H   0  0  0  0  0  0
  -34.3755  -19.1665   26.6616 H   0  0  0  0  0  0
  -32.9633  -18.1157   26.6902 H   0  0  0  0  0  0
  -32.8881  -19.7178   27.4248 H   0  0  0  0  0  0
  -28.1974  -22.3423   20.4011 H   0  0  0  0  0  0
  -29.7565  -22.5335   19.6406 H   0  0  0  0  0  0
  -29.0210  -20.0110   19.7890 H   0  0  0  0  0  0
  -28.1701  -19.2411   21.0828 H   0  0  0  0  0  0
  -30.9621  -18.6664   25.0083 H   0  0  0  0  0  0
  -30.8017  -20.1404   25.9216 H   0  0  0  0  0  0
  -33.3105  -19.2296   24.4135 H   0  0  0  0  0  0
  -33.1585  -20.7847   25.1920 H   0  0  0  0  0  0
  -30.1629  -24.6668   20.8807 H   0  0  0  0  0  0
  -28.7406  -24.4119   21.8574 H   0  0  0  0  0  0
  -30.7593  -18.2697   19.7416 H   0  0  0  0  0  0
  -29.1740  -17.6112   19.5650 H   0  0  0  0  0  0
  -29.5538  -17.1880   22.2728 H   0  0  0  0  0  0
  -31.1940  -17.0684   21.7100 H   0  0  0  0  0  0
  -28.5673  -24.9662   18.8750 H   0  0  0  0  0  0
  -27.2670  -24.7611   20.0325 H   0  0  0  0  0  0
  -28.9162  -15.2581   21.2616 H   0  0  0  0  0  0
  1 25  1  0  0  0
  1 30  2  0  0  0
  1 86  1  0  0  0
  2  3  1  0  0  0
  2 25  1  0  0  0
  2 87  1  0  0  0
  2 88  1  0  0  0
  3  4  1  0  0  0
  3 89  1  0  0  0
  3 90  1  0  0  0
  4  5  1  0  0  0
  4 91  1  0  0  0
  4 92  1  0  0  0
  5  6  1  0  0  0
  5 26  1  0  0  0
  5 93  1  0  0  0
  6 25  1  0  0  0
  6 94  1  0  0  0
  6 95  1  0  0  0
  7  8  2  0  0  0
  7 26  1  0  0  0
  7 29  1  0  0  0
  8  9  1  0  0  0
  8 22  1  0  0  0
  9 10  1  0  0  0
  9 27  2  0  0  0
 10 11  2  0  0  0
 10 15  1  0  0  0
 11 12  1  0  0  0
 11 96  1  0  0  0
 12 13  2  0  0  0
 12 97  1  0  0  0
 13 14  1  0  0  0
 13 31  1  0  0  0
 14 15  2  0  0  0
 14 98  1  0  0  0
 15 99  1  0  0  0
 16 17  2  0  0  0
 16 21  1  0  0  0
 16 31  1  0  0  0
 17 18  1  0  0  0
 17100  1  0  0  0
 18 19  2  0  0  0
 18101  1  0  0  0
 19 20  1  0  0  0
 19 24  1  0  0  0
 20 21  2  0  0  0
 20102  1  0  0  0
 21 23  1  0  0  0
 22 28  1  0  0  0
 22 32  2  0  0  0
 26 27  1  0  0  0
 28103  1  0  0  0
 28104  1  0  0  0
 29105  1  0  0  0
 29106  1  0  0  0
 33 34  1  0  0  0
 33 66  1  0  0  0
 33 70  2  0  0  0
 34 36  1  0  0  0
 34 59  1  0  0  0
 34107  1  0  0  0
 35 44  2  0  0  0
 35 45  1  0  0  0
 35 68  1  0  0  0
 36 56  1  0  0  0
 36108  1  0  0  0
 37 39  1  0  0  0
 37 47  1  0  0  0
 37 66  1  0  0  0
 37109  1  0  0  0
 38 43  2  0  0  0
 38 46  1  0  0  0
 38 47  1  0  0  0
 39 64  1  0  0  0
 39 67  2  0  0  0
 40 52  1  0  0  0
 40 53  2  0  0  0
 40 58  1  0  0  0
 41110  1  0  0  0
 41111  1  0  0  0
 41112  1  0  0  0
 41 48  1  0  0  0
 42 43  1  0  0  0
 42 66  1  0  0  0
 42113  1  0  0  0
 42114  1  0  0  0
 43 44  1  0  0  0
 44115  1  0  0  0
 45 46  2  0  0  0
 45116  1  0  0  0
 46117  1  0  0  0
 47118  1  0  0  0
 47119  1  0  0  0
 48 56  1  0  0  0
 48 65  1  0  0  0
 48120  1  0  0  0
 49 50  1  0  0  0
 49 53  1  0  0  0
 49 64  1  0  0  0
 49121  1  0  0  0
 50 51  1  0  0  0
 50122  1  0  0  0
 50123  1  0  0  0
 51 52  1  0  0  0
 51124  1  0  0  0
 51125  1  0  0  0
 52126  1  0  0  0
 52127  1  0  0  0
 53 54  1  0  0  0
 54 55  2  0  0  0
 54128  1  0  0  0
 55 57  1  0  0  0
 55129  1  0  0  0
 56 69  2  0  0  0
 57 58  2  0  0  0
 57130  1  0  0  0
 58131  1  0  0  0
 59 60  1  0  0  0
 59 61  1  0  0  0
 59 62  1  0  0  0
 60132  1  0  0  0
 60133  1  0  0  0
 60134  1  0  0  0
 61135  1  0  0  0
 61136  1  0  0  0
 61137  1  0  0  0
 62138  1  0  0  0
 62139  1  0  0  0
 62140  1  0  0  0
 63 65  1  0  0  0
 63141  1  0  0  0
 63142  1  0  0  0
 63143  1  0  0  0
 64144  1  0  0  0
 65145  1  0  0  0
 68 83  1  0  0  0
 71 72  2  0  0  0
 71 84  1  0  0  0
 71146  1  0  0  0
 72 73  1  0  0  0
 72 76  1  0  0  0
 73 77  1  0  0  0
 73 85  2  0  0  0
 74 78  1  0  0  0
 74 84  2  0  0  0
 74 85  1  0  0  0
 75 79  1  0  0  0
 75147  1  0  0  0
 75148  1  0  0  0
 75149  1  0  0  0
 76 80  1  0  0  0
 76150  1  0  0  0
 76151  1  0  0  0
 77 81  1  0  0  0
 77152  1  0  0  0
 77153  1  0  0  0
 78 79  1  0  0  0
 78154  1  0  0  0
 78155  1  0  0  0
 79156  1  0  0  0
 79157  1  0  0  0
 80 83  1  0  0  0
 80158  1  0  0  0
 80159  1  0  0  0
 81 82  1  0  0  0
 81160  1  0  0  0
 81161  1  0  0  0
 82 86  1  0  0  0
 82162  1  0  0  0
 82163  1  0  0  0
 83164  1  0  0  0
 83165  1  0  0  0
 86166  1  0  0  0
M  ISO  4   1 100  68 101  83 101  86 100
M  END
> <chiral flag>
0

> <version>
0

> <s_m_source_file>
/data/baiqing/PycharmProjects/Reinvent-master-3.2/result/LINK_invent/BTK/process_docking_weight1_custom_sum_contain_oxygen_bond_distance_aromatic_linkinvent_7_9_3/rearranged_h_0086.sdf

> <i_m_source_file_index>
8

> <r_mmod_Potential_Energy-OPLS-2005>
-380.634124755859

> <r_mmod_Stretch_Energy-OPLS-2005>
58.2365455627441

> <r_mmod_Bend_Energy-OPLS-2005>
136.582962036133

> <r_mmod_Torsional_Energy-OPLS-2005>
195.695846557617

> <r_mmod_Improper_Torsional_Energy-OPLS-2005>
4.10966014862061

> <r_mmod_Van_der_Waal_Energy-OPLS-2005>
158.462020874023

> <r_mmod_Electrostatic_Energy-OPLS-2005>
-733.095886230469

> <r_mmod_Solvation_Energy-OPLS-2005>
-229.858489990234

> <b_mmod_Minimization_Converged-OPLS-2005>
0

> <r_mmod_RMS_Derivative-OPLS-2005>
3.45575571060181

$$$$
8
                    3D
 Structure written by MMmdl.
177185  0  0  1  0            999 V2000
  -30.5996  -14.6362   20.5213 C   0  0  0  0  0  0
  -30.4185  -12.3950   19.4489 C   0  0  0  0  0  0
  -29.4908  -12.5171   18.2173 C   0  0  0  0  0  0
  -28.0167  -12.3414   18.6328 C   0  0  0  0  0  0
  -27.6439  -13.2143   19.8592 C   0  0  2  0  0  0
  -28.6807  -13.0496   20.9863 C   0  0  0  0  0  0
  -25.2513  -13.8162   20.5670 C   0  0  0  0  0  0
  -24.1774  -13.0423   20.9165 C   0  0  0  0  0  0
  -24.6337  -11.6913   20.8722 C   0  0  0  0  0  0
  -23.8990  -10.4295   21.0393 C   0  0  0  0  0  0
  -24.3576   -9.4206   21.9153 C   0  0  0  0  0  0
  -23.6278   -8.2231   22.0734 C   0  0  0  0  0  0
  -22.4254   -8.0254   21.3542 C   0  0  0  0  0  0
  -21.9881   -9.0207   20.4613 C   0  0  0  0  0  0
  -22.7175  -10.2098   20.3021 C   0  0  0  0  0  0
  -21.6844   -6.0709   22.5276 C   0  0  0  0  0  0
  -21.4014   -6.5632   23.8187 C   0  0  0  0  0  0
  -21.3668   -5.6786   24.9174 C   0  0  0  0  0  0
  -21.6055   -4.3058   24.7213 C   0  0  0  0  0  0
  -21.8823   -3.8129   23.4350 C   0  0  0  0  0  0
  -21.9197   -4.6947   22.3399 C   0  0  0  0  0  0
  -22.7805  -13.5211   21.1847 C   0  0  0  0  0  0
  -22.1669   -4.2129   21.0981 F   0  0  0  0  0  0
  -21.5620   -3.4540   25.7735 F   0  0  0  0  0  0
  -29.9909  -13.4115   20.4345 N   0  0  0  0  0  0
  -26.2903  -12.9346   20.3258 N   0  0  0  0  0  0
  -25.9253  -11.6500   20.5720 N   0  0  0  0  0  0
  -22.0483  -12.8175   22.0420 N   0  0  0  0  0  0
  -25.4313  -15.1885   20.4141 N   0  0  0  0  0  0
  -31.7342  -14.7880   20.0596 O   0  0  0  0  0  0
  -21.6635   -6.8868   21.4225 O   0  0  0  0  0  0
  -22.3511  -14.5536   20.6740 O   0  0  0  0  0  0
  -24.6251  -31.8565   23.1971 C   0  0  0  0  0  0
  -25.9098  -32.4760   23.8300 C   0  0  1  0  0  0
  -27.2483  -27.2846   20.1273 C   0  0  0  0  0  0
  -25.5927  -33.8574   24.2203 N   0  0  0  0  0  0
  -23.4257  -30.4610   21.5470 C   0  0  2  0  0  0
  -24.8794  -28.9104   20.1121 C   0  0  0  0  0  0
  -22.7520  -29.4516   22.5068 C   0  0  0  0  0  0
  -18.0261  -28.1413   22.8465 C   0  0  0  0  0  0
  -24.1505  -36.7278   23.2640 C   0  0  0  0  0  0
  -25.9637  -30.7686   21.3776 C   0  0  0  0  0  0
  -26.0427  -29.3928   20.7185 C   0  0  0  0  0  0
  -27.2261  -28.5896   20.7162 C   0  0  0  0  0  0
  -26.0597  -26.8553   19.4923 C   0  0  0  0  0  0
  -24.8931  -27.6520   19.4852 C   0  0  0  0  0  0
  -23.6386  -29.7826   20.1672 C   0  0  0  0  0  0
  -25.4132  -36.3053   24.0299 C   0  0  1  0  0  0
  -20.5868  -28.3679   23.1313 C   0  0  2  0  0  0
  -20.6790  -26.9412   22.5425 C   0  0  0  0  0  0
  -19.5780  -26.6401   21.5226 C   0  0  0  0  0  0
  -18.1934  -26.7937   22.1612 C   0  0  0  0  0  0
  -19.1523  -28.8870   23.2850 C   0  0  0  0  0  0
  -18.9430  -30.1497   23.8830 C   0  0  0  0  0  0
  -17.6426  -30.6618   24.0551 C   0  0  0  0  0  0
  -25.9073  -34.9441   23.5041 C   0  0  0  0  0  0
  -16.5318  -29.9100   23.6383 C   0  0  0  0  0  0
  -16.7239  -28.6541   23.0332 C   0  0  0  0  0  0
  -26.4469  -31.6591   25.0687 C   0  0  0  0  0  0
  -25.3670  -31.3720   26.1383 C   0  0  0  0  0  0
  -27.0338  -30.3030   24.6150 C   0  0  0  0  0  0
  -27.6040  -32.4350   25.7422 C   0  0  0  0  0  0
  -27.5589  -37.1770   24.8463 C   0  0  0  0  0  0
  -21.4249  -29.2986   22.3748 N   0  0  0  0  0  0
  -26.4326  -37.3744   23.9367 N   0  0  0  0  0  0
  -24.6899  -31.0468   22.0989 N   0  0  0  0  0  0
  -23.4186  -28.8062   23.3180 O   0  0  0  0  0  0
  -28.3972  -26.4709   20.2264 O   0  0  0  0  0  0
  -26.5671  -34.8908   22.4629 O   0  0  0  0  0  0
  -23.5404  -32.1435   23.7253 O   0  0  0  0  0  0
  -28.1191  -22.1004   18.6661 C   0  0  0  0  0  0
  -29.1288  -21.1576   20.6346 C   0  0  0  0  0  0
  -28.5951  -22.3325   19.9763 C   0  0  0  0  0  0
  -28.1761  -20.8065   18.1039 C   0  0  0  0  0  0
  -29.1359  -19.8601   20.0082 C   0  0  0  0  0  0
  -29.4602  -23.9147   21.8131 C   0  0  0  0  0  0
  -26.3946  -19.8788   16.5265 C   0  0  0  0  0  0
  -28.8641  -19.7887   15.9006 C   0  0  0  0  0  0
  -32.5625  -19.0897   22.2742 C   0  0  0  0  0  0
  -33.7528  -19.3918   20.0845 C   0  0  0  0  0  0
  -29.9014  -15.9159   21.1493 C   0  0  0  0  0  0
  -29.3905  -17.1197   20.2182 C   0  0  0  0  0  0
  -31.3776  -18.6568   20.0336 C   0  0  0  0  0  0
  -28.5318  -25.0844   19.6892 C   0  0  0  0  0  0
  -28.4787  -23.7793   20.6339 C   0  0  1  0  0  0
  -27.7659  -20.5598   16.6546 C   0  0  0  0  0  0
  -29.9188  -18.6005   20.5520 C   0  0  1  0  0  0
  -32.4007  -19.5163   20.8039 C   0  0  0  0  0  0
  -28.6343  -19.7218   18.7678 N   0  0  0  0  0  0
  -31.4639  -12.5089   19.1586 H   0  0  0  0  0  0
  -30.3425  -11.3976   19.8866 H   0  0  0  0  0  0
  -29.7560  -11.7756   17.4599 H   0  0  0  0  0  0
  -29.6243  -13.4934   17.7475 H   0  0  0  0  0  0
  -27.8645  -11.2863   18.8692 H   0  0  0  0  0  0
  -27.3536  -12.5613   17.7937 H   0  0  0  0  0  0
  -27.6686  -14.2531   19.5280 H   0  0  0  0  0  0
  -28.6924  -12.0176   21.3331 H   0  0  0  0  0  0
  -28.4108  -13.6416   21.8580 H   0  0  0  0  0  0
  -25.2737   -9.5686   22.4704 H   0  0  0  0  0  0
  -23.9987   -7.4628   22.7471 H   0  0  0  0  0  0
  -21.0806   -8.8696   19.8920 H   0  0  0  0  0  0
  -22.3627  -10.9618   19.6119 H   0  0  0  0  0  0
  -21.2007   -7.6141   23.9686 H   0  0  0  0  0  0
  -21.1495   -6.0533   25.9072 H   0  0  0  0  0  0
  -22.0603   -2.7586   23.2846 H   0  0  0  0  0  0
  -22.4161  -11.9815   22.4737 H   0  0  0  0  0  0
  -21.1079  -13.1137   22.2657 H   0  0  0  0  0  0
  -24.6748  -15.8562   20.5097 H   0  0  0  0  0  0
  -26.3001  -15.6113   20.1111 H   0  0  0  0  0  0
  -26.7126  -32.5392   23.1000 H   0  0  0  0  0  0
  -24.9971  -33.9725   25.0263 H   0  0  0  0  0  0
  -22.7164  -31.2770   21.3982 H   0  0  0  0  0  0
  -23.3793  -35.9604   23.3320 H   0  0  0  0  0  0
  -24.3539  -36.8958   22.2062 H   0  0  0  0  0  0
  -23.7285  -37.6470   23.6703 H   0  0  0  0  0  0
  -26.0856  -31.5226   20.6011 H   0  0  0  0  0  0
  -26.8440  -30.8286   22.0067 H   0  0  0  0  0  0
  -28.1228  -28.9512   21.1994 H   0  0  0  0  0  0
  -25.9916  -25.8890   19.0168 H   0  0  0  0  0  0
  -24.0028  -27.2755   19.0057 H   0  0  0  0  0  0
  -23.7350  -30.5460   19.3956 H   0  0  0  0  0  0
  -22.7613  -29.1979   19.8862 H   0  0  0  0  0  0
  -25.1310  -36.1922   25.0804 H   0  0  0  0  0  0
  -20.9847  -28.3262   24.1489 H   0  0  0  0  0  0
  -20.5855  -26.2237   23.3591 H   0  0  0  0  0  0
  -21.6627  -26.7567   22.1123 H   0  0  0  0  0  0
  -19.6990  -25.6324   21.1255 H   0  0  0  0  0  0
  -19.6765  -27.3235   20.6771 H   0  0  0  0  0  0
  -17.4221  -26.6652   21.4004 H   0  0  0  0  0  0
  -18.0337  -26.0091   22.9016 H   0  0  0  0  0  0
  -19.7906  -30.7342   24.2160 H   0  0  0  0  0  0
  -17.4986  -31.6289   24.5178 H   0  0  0  0  0  0
  -15.5333  -30.2954   23.7832 H   0  0  0  0  0  0
  -15.8613  -28.0906   22.7027 H   0  0  0  0  0  0
  -24.5826  -30.7120   25.7639 H   0  0  0  0  0  0
  -24.8817  -32.2865   26.4822 H   0  0  0  0  0  0
  -25.7924  -30.8831   27.0155 H   0  0  0  0  0  0
  -26.2913  -29.6742   24.1207 H   0  0  0  0  0  0
  -27.4102  -29.7336   25.4658 H   0  0  0  0  0  0
  -27.8739  -30.4337   23.9322 H   0  0  0  0  0  0
  -27.2704  -33.3737   26.1858 H   0  0  0  0  0  0
  -28.3859  -32.6801   25.0218 H   0  0  0  0  0  0
  -28.0665  -31.8564   26.5434 H   0  0  0  0  0  0
  -28.2577  -38.0093   24.7486 H   0  0  0  0  0  0
  -28.1117  -36.2596   24.6333 H   0  0  0  0  0  0
  -27.2242  -37.1459   25.8855 H   0  0  0  0  0  0
  -20.9592  -29.8530   21.6711 H   0  0  0  0  0  0
  -26.0228  -38.2841   24.1368 H   0  0  0  0  0  0
  -27.7164  -22.9099   18.0720 H   0  0  0  0  0  0
  -29.5816  -21.2405   21.6116 H   0  0  0  0  0  0
  -29.2220  -23.1780   22.5826 H   0  0  0  0  0  0
  -29.3807  -24.8948   22.2800 H   0  0  0  0  0  0
  -30.4981  -23.7553   21.5090 H   0  0  0  0  0  0
  -25.6048  -20.5128   16.9301 H   0  0  0  0  0  0
  -26.3650  -18.9252   17.0549 H   0  0  0  0  0  0
  -26.1564  -19.6798   15.4806 H   0  0  0  0  0  0
  -29.8241  -20.2901   16.0188 H   0  0  0  0  0  0
  -28.6486  -19.7109   14.8364 H   0  0  0  0  0  0
  -28.9748  -18.7762   16.2908 H   0  0  0  0  0  0
  -33.3202  -19.6991   22.7663 H   0  0  0  0  0  0
  -32.8786  -18.0487   22.3509 H   0  0  0  0  0  0
  -31.6453  -19.2036   22.8496 H   0  0  0  0  0  0
  -34.5410  -19.9479   20.5908 H   0  0  0  0  0  0
  -33.6992  -19.7520   19.0563 H   0  0  0  0  0  0
  -34.0652  -18.3468   20.0453 H   0  0  0  0  0  0
  -29.1095  -15.6297   21.8384 H   0  0  0  0  0  0
  -30.6689  -16.3318   21.8003 H   0  0  0  0  0  0
  -28.2999  -17.1145   20.2370 H   0  0  0  0  0  0
  -29.6356  -16.8900   19.1797 H   0  0  0  0  0  0
  -31.3466  -18.9710   18.9867 H   0  0  0  0  0  0
  -31.7842  -17.6469   20.0004 H   0  0  0  0  0  0
  -27.8732  -24.9598   18.8349 H   0  0  0  0  0  0
  -29.5351  -25.0638   19.2600 H   0  0  0  0  0  0
  -27.4822  -23.7921   21.0783 H   0  0  0  0  0  0
  -27.6829  -21.5352   16.1745 H   0  0  0  0  0  0
  -29.8816  -18.6850   21.6361 H   0  0  0  0  0  0
  -32.0892  -20.5633   20.7848 H   0  0  0  0  0  0
  1 25  1  0  0  0
  1 30  2  0  0  0
  1 81  1  0  0  0
  2  3  1  0  0  0
  2 25  1  0  0  0
  2 90  1  0  0  0
  2 91  1  0  0  0
  3  4  1  0  0  0
  3 92  1  0  0  0
  3 93  1  0  0  0
  4  5  1  0  0  0
  4 94  1  0  0  0
  4 95  1  0  0  0
  5  6  1  0  0  0
  5 26  1  0  0  0
  5 96  1  0  0  0
  6 25  1  0  0  0
  6 97  1  0  0  0
  6 98  1  0  0  0
  7  8  2  0  0  0
  7 26  1  0  0  0
  7 29  1  0  0  0
  8  9  1  0  0  0
  8 22  1  0  0  0
  9 10  1  0  0  0
  9 27  2  0  0  0
 10 11  2  0  0  0
 10 15  1  0  0  0
 11 12  1  0  0  0
 11 99  1  0  0  0
 12 13  2  0  0  0
 12100  1  0  0  0
 13 14  1  0  0  0
 13 31  1  0  0  0
 14 15  2  0  0  0
 14101  1  0  0  0
 15102  1  0  0  0
 16 17  2  0  0  0
 16 21  1  0  0  0
 16 31  1  0  0  0
 17 18  1  0  0  0
 17103  1  0  0  0
 18 19  2  0  0  0
 18104  1  0  0  0
 19 20  1  0  0  0
 19 24  1  0  0  0
 20 21  2  0  0  0
 20105  1  0  0  0
 21 23  1  0  0  0
 22 28  1  0  0  0
 22 32  2  0  0  0
 26 27  1  0  0  0
 28106  1  0  0  0
 28107  1  0  0  0
 29108  1  0  0  0
 29109  1  0  0  0
 33 34  1  0  0  0
 33 66  1  0  0  0
 33 70  2  0  0  0
 34 36  1  0  0  0
 34 59  1  0  0  0
 34110  1  0  0  0
 35 44  2  0  0  0
 35 45  1  0  0  0
 35 68  1  0  0  0
 36 56  1  0  0  0
 36111  1  0  0  0
 37 39  1  0  0  0
 37 47  1  0  0  0
 37 66  1  0  0  0
 37112  1  0  0  0
 38 43  2  0  0  0
 38 46  1  0  0  0
 38 47  1  0  0  0
 39 64  1  0  0  0
 39 67  2  0  0  0
 40 52  1  0  0  0
 40 53  2  0  0  0
 40 58  1  0  0  0
 41113  1  0  0  0
 41114  1  0  0  0
 41115  1  0  0  0
 41 48  1  0  0  0
 42 43  1  0  0  0
 42 66  1  0  0  0
 42116  1  0  0  0
 42117  1  0  0  0
 43 44  1  0  0  0
 44118  1  0  0  0
 45 46  2  0  0  0
 45119  1  0  0  0
 46120  1  0  0  0
 47121  1  0  0  0
 47122  1  0  0  0
 48 56  1  0  0  0
 48 65  1  0  0  0
 48123  1  0  0  0
 49 50  1  0  0  0
 49 53  1  0  0  0
 49 64  1  0  0  0
 49124  1  0  0  0
 50 51  1  0  0  0
 50125  1  0  0  0
 50126  1  0  0  0
 51 52  1  0  0  0
 51127  1  0  0  0
 51128  1  0  0  0
 52129  1  0  0  0
 52130  1  0  0  0
 53 54  1  0  0  0
 54 55  2  0  0  0
 54131  1  0  0  0
 55 57  1  0  0  0
 55132  1  0  0  0
 56 69  2  0  0  0
 57 58  2  0  0  0
 57133  1  0  0  0
 58134  1  0  0  0
 59 60  1  0  0  0
 59 61  1  0  0  0
 59 62  1  0  0  0
 60135  1  0  0  0
 60136  1  0  0  0
 60137  1  0  0  0
 61138  1  0  0  0
 61139  1  0  0  0
 61140  1  0  0  0
 62141  1  0  0  0
 62142  1  0  0  0
 62143  1  0  0  0
 63 65  1  0  0  0
 63144  1  0  0  0
 63145  1  0  0  0
 63146  1  0  0  0
 64147  1  0  0  0
 65148  1  0  0  0
 68 84  1  0  0  0
 71 73  2  0  0  0
 71 74  1  0  0  0
 71149  1  0  0  0
 72 73  1  0  0  0
 72 75  2  0  0  0
 72150  1  0  0  0
 73 85  1  0  0  0
 74 86  1  0  0  0
 74 89  2  0  0  0
 75 87  1  0  0  0
 75 89  1  0  0  0
 76151  1  0  0  0
 76152  1  0  0  0
 76153  1  0  0  0
 76 85  1  0  0  0
 77154  1  0  0  0
 77155  1  0  0  0
 77156  1  0  0  0
 77 86  1  0  0  0
 78 86  1  0  0  0
 78157  1  0  0  0
 78158  1  0  0  0
 78159  1  0  0  0
 79160  1  0  0  0
 79161  1  0  0  0
 79162  1  0  0  0
 79 88  1  0  0  0
 80 88  1  0  0  0
 80163  1  0  0  0
 80164  1  0  0  0
 80165  1  0  0  0
 81 82  1  0  0  0
 81166  1  0  0  0
 81167  1  0  0  0
 82168  1  0  0  0
 82169  1  0  0  0
 82 87  1  0  0  0
 83 87  1  0  0  0
 83 88  1  0  0  0
 83170  1  0  0  0
 83171  1  0  0  0
 84 85  1  0  0  0
 84172  1  0  0  0
 84173  1  0  0  0
 85174  1  0  0  0
 86175  1  0  0  0
 87176  1  0  0  0
 88177  1  0  0  0
M  ISO  4   1 100  68 101  81 100  84 101
M  END
> <chiral flag>
0

> <version>
0

> <s_m_source_file>
/data/baiqing/PycharmProjects/Reinvent-master-3.2/result/LINK_invent/BTK/process_docking_weight1_custom_sum_contain_oxygen_bond_distance_aromatic_linkinvent_7_9_3/rearranged_h_0086.sdf

> <i_m_source_file_index>
9

> <r_mmod_Potential_Energy-OPLS-2005>
-38.5133514404297

> <r_mmod_Stretch_Energy-OPLS-2005>
101.987281799316

> <r_mmod_Bend_Energy-OPLS-2005>
177.366180419922

> <r_mmod_Torsional_Energy-OPLS-2005>
178.683471679688

> <r_mmod_Improper_Torsional_Energy-OPLS-2005>
3.3857433795929

> <r_mmod_Van_der_Waal_Energy-OPLS-2005>
138.113433837891

> <r_mmod_Electrostatic_Energy-OPLS-2005>
-508.162872314453

> <r_mmod_Solvation_Energy-OPLS-2005>
-184.125671386719

> <b_mmod_Minimization_Converged-OPLS-2005>
0

> <r_mmod_RMS_Derivative-OPLS-2005>
5.92648792266846

$$$$
9
                    3D
 Structure written by MMmdl.
173180  0  0  1  0            999 V2000
  -30.4617  -15.1853   20.3706 C   0  0  0  0  0  0
  -30.4317  -12.7525   19.5103 C   0  0  0  0  0  0
  -29.5246  -12.5663   18.2693 C   0  0  0  0  0  0
  -28.0698  -12.3059   18.6990 C   0  0  0  0  0  0
  -27.6114  -13.2703   19.8223 C   0  0  2  0  0  0
  -28.6492  -13.4121   20.9556 C   0  0  0  0  0  0
  -25.2375  -13.8213   20.5693 C   0  0  0  0  0  0
  -24.1754  -13.0440   20.9239 C   0  0  0  0  0  0
  -24.6404  -11.6922   20.8771 C   0  0  0  0  0  0
  -23.9112  -10.4299   21.0421 C   0  0  0  0  0  0
  -24.3656   -9.4204   21.9195 C   0  0  0  0  0  0
  -23.6311   -8.2254   22.0772 C   0  0  0  0  0  0
  -22.4290   -8.0299   21.3556 C   0  0  0  0  0  0
  -21.9945   -9.0283   20.4652 C   0  0  0  0  0  0
  -22.7288  -10.2148   20.3057 C   0  0  0  0  0  0
  -21.6859   -6.0752   22.5280 C   0  0  0  0  0  0
  -21.4018   -6.5658   23.8211 C   0  0  0  0  0  0
  -21.3656   -5.6804   24.9175 C   0  0  0  0  0  0
  -21.6038   -4.3068   24.7227 C   0  0  0  0  0  0
  -21.8818   -3.8160   23.4346 C   0  0  0  0  0  0
  -21.9198   -4.6986   22.3401 C   0  0  0  0  0  0
  -22.7760  -13.5188   21.1882 C   0  0  0  0  0  0
  -22.1666   -4.2170   21.0974 F   0  0  0  0  0  0
  -21.5626   -3.4536   25.7733 F   0  0  0  0  0  0
  -29.8911  -13.8906   20.3306 N   0  0  0  0  0  0
  -26.2808  -12.9502   20.3187 N   0  0  0  0  0  0
  -25.9334  -11.6630   20.5736 N   0  0  0  0  0  0
  -22.0414  -12.8181   22.0416 N   0  0  0  0  0  0
  -25.4000  -15.1941   20.4050 N   0  0  0  0  0  0
  -31.6810  -15.2034   20.1543 O   0  0  0  0  0  0
  -21.6649   -6.8901   21.4243 O   0  0  0  0  0  0
  -22.3447  -14.5493   20.6694 O   0  0  0  0  0  0
  -24.6581  -31.8209   23.1666 C   0  0  0  0  0  0
  -25.9288  -32.4531   23.8107 C   0  0  1  0  0  0
  -27.2296  -26.9697   20.1708 C   0  0  0  0  0  0
  -25.5943  -33.8345   24.2004 N   0  0  0  0  0  0
  -23.4727  -30.4332   21.5160 C   0  0  2  0  0  0
  -24.9216  -28.8169   20.1222 C   0  0  0  0  0  0
  -22.7624  -29.4444   22.4762 C   0  0  0  0  0  0
  -18.0340  -28.1388   22.8386 C   0  0  0  0  0  0
  -24.1556  -36.7233   23.2637 C   0  0  0  0  0  0
  -26.0371  -30.6459   21.3882 C   0  0  0  0  0  0
  -26.1084  -29.2362   20.7374 C   0  0  0  0  0  0
  -27.2605  -28.3339   20.7277 C   0  0  0  0  0  0
  -26.0037  -26.6831   19.5294 C   0  0  0  0  0  0
  -24.8885  -27.5557   19.5059 C   0  0  0  0  0  0
  -23.7092  -29.7400   20.1475 C   0  0  0  0  0  0
  -25.4162  -36.2900   24.0265 C   0  0  1  0  0  0
  -20.5941  -28.3729   23.1127 C   0  0  2  0  0  0
  -20.6836  -26.9420   22.5349 C   0  0  0  0  0  0
  -19.5841  -26.6365   21.5125 C   0  0  0  0  0  0
  -18.2011  -26.7911   22.1538 C   0  0  0  0  0  0
  -19.1594  -28.8882   23.2741 C   0  0  0  0  0  0
  -18.9507  -30.1475   23.8760 C   0  0  0  0  0  0
  -17.6501  -30.6554   24.0532 C   0  0  0  0  0  0
  -25.9102  -34.9288   23.4950 C   0  0  0  0  0  0
  -16.5396  -29.9039   23.6308 C   0  0  0  0  0  0
  -16.7324  -28.6490   23.0268 C   0  0  0  0  0  0
  -26.4564  -31.6462   25.0625 C   0  0  0  0  0  0
  -25.3677  -31.3704   26.1270 C   0  0  0  0  0  0
  -27.0483  -30.2802   24.6408 C   0  0  0  0  0  0
  -27.6033  -32.4307   25.7434 C   0  0  0  0  0  0
  -27.5593  -37.1741   24.8444 C   0  0  0  0  0  0
  -21.4303  -29.3026   22.3486 N   0  0  0  0  0  0
  -26.4304  -37.3631   23.9388 N   0  0  0  0  0  0
  -24.7433  -30.9938   22.0782 N   0  0  0  0  0  0
  -23.4153  -28.8020   23.3023 O   0  0  0  0  0  0
  -28.2821  -25.9262   20.1549 O   0  0  0  0  0  0
  -26.5736  -34.8833   22.4571 O   0  0  0  0  0  0
  -23.5656  -32.1154   23.6800 O   0  0  0  0  0  0
  -31.6531  -22.0610   23.5446 C   0  0  0  0  0  0
  -26.5790  -18.4359   19.6181 C   0  0  0  0  0  0
  -26.9556  -22.6846   18.1705 C   0  0  0  0  0  0
  -29.2388  -23.5911   17.5420 C   0  0  0  0  0  0
  -27.6637  -21.3429   21.7084 C   0  0  0  0  0  0
  -30.5399  -22.4070   22.5383 C   0  0  0  0  0  0
  -27.8630  -19.1611   19.1772 C   0  0  0  0  0  0
  -30.1712  -21.1691   21.6931 C   0  0  0  0  0  0
  -29.9759  -18.0572   20.4494 C   0  0  0  0  0  0
  -28.1375  -24.3413   20.5120 C   0  0  0  0  0  0
  -28.4750  -22.6089   18.4430 C   0  0  0  0  0  0
  -28.8516  -19.4367   20.3299 C   0  0  1  0  0  0
  -28.8374  -22.7854   19.9457 C   0  0  2  0  0  0
  -28.9029  -21.1927   20.7912 C   0  0  1  0  0  0
  -29.6827  -16.4300   20.4493 N   0  0  0  0  0  0
  -31.4566  -12.9341   19.1895 H   0  0  0  0  0  0
  -30.4703  -11.8386   20.1025 H   0  0  0  0  0  0
  -29.8870  -11.7412   17.6538 H   0  0  0  0  0  0
  -29.5662  -13.4605   17.6437 H   0  0  0  0  0  0
  -28.0108  -11.2743   19.0494 H   0  0  0  0  0  0
  -27.3995  -12.3752   17.8417 H   0  0  0  0  0  0
  -27.5328  -14.2474   19.3429 H   0  0  0  0  0  0
  -28.7998  -12.4661   21.4770 H   0  0  0  0  0  0
  -28.3072  -14.1292   21.7032 H   0  0  0  0  0  0
  -25.2815   -9.5677   22.4773 H   0  0  0  0  0  0
  -24.0013   -7.4652   22.7508 H   0  0  0  0  0  0
  -21.0867   -8.8825   19.8957 H   0  0  0  0  0  0
  -22.3766  -10.9702   19.6165 H   0  0  0  0  0  0
  -21.2011   -7.6160   23.9714 H   0  0  0  0  0  0
  -21.1471   -6.0533   25.9071 H   0  0  0  0  0  0
  -22.0600   -2.7618   23.2832 H   0  0  0  0  0  0
  -22.4075  -11.9849   22.4782 H   0  0  0  0  0  0
  -21.1036  -13.1216   22.2657 H   0  0  0  0  0  0
  -24.6208  -15.8382   20.4942 H   0  0  0  0  0  0
  -26.2206  -15.6203   19.9977 H   0  0  0  0  0  0
  -26.7350  -32.5106   23.0814 H   0  0  0  0  0  0
  -24.9935  -33.9404   25.0052 H   0  0  0  0  0  0
  -22.7814  -31.2572   21.3397 H   0  0  0  0  0  0
  -23.3754  -35.9632   23.3238 H   0  0  0  0  0  0
  -24.3635  -36.8981   22.2072 H   0  0  0  0  0  0
  -23.7423  -37.6429   23.6779 H   0  0  0  0  0  0
  -26.2032  -31.3903   20.6096 H   0  0  0  0  0  0
  -26.8965  -30.7044   22.0427 H   0  0  0  0  0  0
  -28.1736  -28.6542   21.2093 H   0  0  0  0  0  0
  -25.8898  -25.7271   19.0430 H   0  0  0  0  0  0
  -23.9744  -27.2278   19.0272 H   0  0  0  0  0  0
  -23.8589  -30.4992   19.3798 H   0  0  0  0  0  0
  -22.8187  -29.1861   19.8401 H   0  0  0  0  0  0
  -25.1393  -36.1629   25.0748 H   0  0  0  0  0  0
  -21.0016  -28.3388   24.1241 H   0  0  0  0  0  0
  -20.5666  -26.2364   23.3595 H   0  0  0  0  0  0
  -21.6705  -26.7393   22.1183 H   0  0  0  0  0  0
  -19.7003  -25.6243   21.1222 H   0  0  0  0  0  0
  -19.6799  -27.3078   20.6577 H   0  0  0  0  0  0
  -17.4268  -26.6534   21.3987 H   0  0  0  0  0  0
  -18.0505  -26.0080   22.8972 H   0  0  0  0  0  0
  -19.8008  -30.7322   24.2037 H   0  0  0  0  0  0
  -17.5073  -31.6195   24.5208 H   0  0  0  0  0  0
  -15.5386  -30.2903   23.7754 H   0  0  0  0  0  0
  -15.8738  -28.0840   22.6934 H   0  0  0  0  0  0
  -24.5874  -30.7033   25.7567 H   0  0  0  0  0  0
  -24.8847  -32.2916   26.4513 H   0  0  0  0  0  0
  -25.7858  -30.8964   27.0157 H   0  0  0  0  0  0
  -26.3157  -29.6370   24.1503 H   0  0  0  0  0  0
  -27.4035  -29.7294   25.5124 H   0  0  0  0  0  0
  -27.9090  -30.3868   23.9796 H   0  0  0  0  0  0
  -27.2558  -33.3655   26.1828 H   0  0  0  0  0  0
  -28.3908  -32.6777   25.0301 H   0  0  0  0  0  0
  -28.0636  -31.8579   26.5487 H   0  0  0  0  0  0
  -28.2487  -38.0143   24.7482 H   0  0  0  0  0  0
  -28.1213  -36.2635   24.6274 H   0  0  0  0  0  0
  -27.2300  -37.1385   25.8844 H   0  0  0  0  0  0
  -20.9553  -29.8707   21.6626 H   0  0  0  0  0  0
  -26.0118  -38.2678   24.1359 H   0  0  0  0  0  0
  -32.0413  -22.9456   24.0496 H   0  0  0  0  0  0
  -32.4894  -21.5604   23.0543 H   0  0  0  0  0  0
  -31.2804  -21.3885   24.3202 H   0  0  0  0  0  0
  -26.0122  -18.0652   18.7642 H   0  0  0  0  0  0
  -25.9367  -19.1180   20.1799 H   0  0  0  0  0  0
  -26.7885  -17.5778   20.2529 H   0  0  0  0  0  0
  -26.7282  -22.5180   17.1156 H   0  0  0  0  0  0
  -26.5218  -23.6469   18.4451 H   0  0  0  0  0  0
  -26.4072  -21.9379   18.7389 H   0  0  0  0  0  0
  -29.0136  -23.4224   16.4883 H   0  0  0  0  0  0
  -30.3159  -23.4564   17.6660 H   0  0  0  0  0  0
  -28.9905  -24.6271   17.7651 H   0  0  0  0  0  0
  -27.6605  -20.6292   22.5316 H   0  0  0  0  0  0
  -26.7350  -21.2064   21.1501 H   0  0  0  0  0  0
  -27.6173  -22.3219   22.1776 H   0  0  0  0  0  0
  -30.8829  -23.2238   21.9030 H   0  0  0  0  0  0
  -29.6770  -22.7877   23.0831 H   0  0  0  0  0  0
  -27.5466  -20.0726   18.6872 H   0  0  0  0  0  0
  -28.3803  -18.5845   18.4119 H   0  0  0  0  0  0
  -30.0677  -20.3305   22.3840 H   0  0  0  0  0  0
  -31.0309  -20.9168   21.0706 H   0  0  0  0  0  0
  -30.5587  -18.2035   21.3597 H   0  0  0  0  0  0
  -30.7144  -18.2036   19.6623 H   0  0  0  0  0  0
  -28.4764  -24.3643   21.5469 H   0  0  0  0  0  0
  -27.0632  -24.1760   20.6062 H   0  0  0  0  0  0
  -28.8462  -21.6394   18.1093 H   0  0  0  0  0  0
  -28.2876  -19.0913   21.1940 H   0  0  0  0  0  0
  -29.9002  -23.0212   19.9021 H   0  0  0  0  0  0
  -28.6998  -16.2232   20.5346 H   0  0  0  0  0  0
  1 25  1  0  0  0
  1 30  2  0  0  0
  1 85  1  0  0  0
  2  3  1  0  0  0
  2 25  1  0  0  0
  2 86  1  0  0  0
  2 87  1  0  0  0
  3  4  1  0  0  0
  3 88  1  0  0  0
  3 89  1  0  0  0
  4  5  1  0  0  0
  4 90  1  0  0  0
  4 91  1  0  0  0
  5  6  1  0  0  0
  5 26  1  0  0  0
  5 92  1  0  0  0
  6 25  1  0  0  0
  6 93  1  0  0  0
  6 94  1  0  0  0
  7  8  2  0  0  0
  7 26  1  0  0  0
  7 29  1  0  0  0
  8  9  1  0  0  0
  8 22  1  0  0  0
  9 10  1  0  0  0
  9 27  2  0  0  0
 10 11  2  0  0  0
 10 15  1  0  0  0
 11 12  1  0  0  0
 11 95  1  0  0  0
 12 13  2  0  0  0
 12 96  1  0  0  0
 13 14  1  0  0  0
 13 31  1  0  0  0
 14 15  2  0  0  0
 14 97  1  0  0  0
 15 98  1  0  0  0
 16 17  2  0  0  0
 16 21  1  0  0  0
 16 31  1  0  0  0
 17 18  1  0  0  0
 17 99  1  0  0  0
 18 19  2  0  0  0
 18100  1  0  0  0
 19 20  1  0  0  0
 19 24  1  0  0  0
 20 21  2  0  0  0
 20101  1  0  0  0
 21 23  1  0  0  0
 22 28  1  0  0  0
 22 32  2  0  0  0
 26 27  1  0  0  0
 28102  1  0  0  0
 28103  1  0  0  0
 29104  1  0  0  0
 29105  1  0  0  0
 33 34  1  0  0  0
 33 66  1  0  0  0
 33 70  2  0  0  0
 34 36  1  0  0  0
 34 59  1  0  0  0
 34106  1  0  0  0
 35 44  2  0  0  0
 35 45  1  0  0  0
 35 68  1  0  0  0
 36 56  1  0  0  0
 36107  1  0  0  0
 37 39  1  0  0  0
 37 47  1  0  0  0
 37 66  1  0  0  0
 37108  1  0  0  0
 38 43  2  0  0  0
 38 46  1  0  0  0
 38 47  1  0  0  0
 39 64  1  0  0  0
 39 67  2  0  0  0
 40 52  1  0  0  0
 40 53  2  0  0  0
 40 58  1  0  0  0
 41109  1  0  0  0
 41110  1  0  0  0
 41111  1  0  0  0
 41 48  1  0  0  0
 42 43  1  0  0  0
 42 66  1  0  0  0
 42112  1  0  0  0
 42113  1  0  0  0
 43 44  1  0  0  0
 44114  1  0  0  0
 45 46  2  0  0  0
 45115  1  0  0  0
 46116  1  0  0  0
 47117  1  0  0  0
 47118  1  0  0  0
 48 56  1  0  0  0
 48 65  1  0  0  0
 48119  1  0  0  0
 49 50  1  0  0  0
 49 53  1  0  0  0
 49 64  1  0  0  0
 49120  1  0  0  0
 50 51  1  0  0  0
 50121  1  0  0  0
 50122  1  0  0  0
 51 52  1  0  0  0
 51123  1  0  0  0
 51124  1  0  0  0
 52125  1  0  0  0
 52126  1  0  0  0
 53 54  1  0  0  0
 54 55  2  0  0  0
 54127  1  0  0  0
 55 57  1  0  0  0
 55128  1  0  0  0
 56 69  2  0  0  0
 57 58  2  0  0  0
 57129  1  0  0  0
 58130  1  0  0  0
 59 60  1  0  0  0
 59 61  1  0  0  0
 59 62  1  0  0  0
 60131  1  0  0  0
 60132  1  0  0  0
 60133  1  0  0  0
 61134  1  0  0  0
 61135  1  0  0  0
 61136  1  0  0  0
 62137  1  0  0  0
 62138  1  0  0  0
 62139  1  0  0  0
 63 65  1  0  0  0
 63140  1  0  0  0
 63141  1  0  0  0
 63142  1  0  0  0
 64143  1  0  0  0
 65144  1  0  0  0
 68 80  1  0  0  0
 71 76  1  0  0  0
 71145  1  0  0  0
 71146  1  0  0  0
 71147  1  0  0  0
 72 77  1  0  0  0
 72148  1  0  0  0
 72149  1  0  0  0
 72150  1  0  0  0
 73151  1  0  0  0
 73152  1  0  0  0
 73153  1  0  0  0
 73 81  1  0  0  0
 74 81  1  0  0  0
 74154  1  0  0  0
 74155  1  0  0  0
 74156  1  0  0  0
 75157  1  0  0  0
 75158  1  0  0  0
 75159  1  0  0  0
 75 84  1  0  0  0
 76 78  1  0  0  0
 76160  1  0  0  0
 76161  1  0  0  0
 77162  1  0  0  0
 77163  1  0  0  0
 77 82  1  0  0  0
 78 84  1  0  0  0
 78164  1  0  0  0
 78165  1  0  0  0
 79 82  1  0  0  0
 79 85  1  0  0  0
 79166  1  0  0  0
 79167  1  0  0  0
 80168  1  0  0  0
 80169  1  0  0  0
 80 83  1  0  0  0
 81 83  1  0  0  0
 81170  1  0  0  0
 82 84  1  0  0  0
 82171  1  0  0  0
 83 84  1  0  0  0
 83172  1  0  0  0
 85173  1  0  0  0
M  ISO  4   1 100  68 101  80 101  85 100
M  END
> <chiral flag>
0

> <version>
0

> <s_m_source_file>
/data/baiqing/PycharmProjects/Reinvent-master-3.2/result/LINK_invent/BTK/process_docking_weight1_custom_sum_contain_oxygen_bond_distance_aromatic_linkinvent_7_9_3/rearranged_h_0086.sdf

> <i_m_source_file_index>
10

> <r_mmod_Potential_Energy-OPLS-2005>
1341.5390625

> <r_mmod_Stretch_Energy-OPLS-2005>
593.353088378906

> <r_mmod_Bend_Energy-OPLS-2005>
485.101867675781

> <r_mmod_Torsional_Energy-OPLS-2005>
303.352355957031

> <r_mmod_Improper_Torsional_Energy-OPLS-2005>
4.34904766082764

> <r_mmod_Van_der_Waal_Energy-OPLS-2005>
110.61693572998

> <r_mmod_Electrostatic_Energy-OPLS-2005>
-346.790618896484

> <r_mmod_Solvation_Energy-OPLS-2005>
-188.017105102539

> <b_mmod_Minimization_Converged-OPLS-2005>
0

> <r_mmod_RMS_Derivative-OPLS-2005>
5.87973690032959

$$$$
10
                    3D
 Structure written by MMmdl.
180188  0  0  1  0            999 V2000
  -30.6417  -14.6754   20.5457 C   0  0  0  0  0  0
  -30.4331  -12.4230   19.4705 C   0  0  0  0  0  0
  -29.5154  -12.5272   18.2320 C   0  0  0  0  0  0
  -28.0381  -12.3512   18.6351 C   0  0  0  0  0  0
  -27.6483  -13.2219   19.8567 C   0  0  2  0  0  0
  -28.6846  -13.0806   20.9865 C   0  0  0  0  0  0
  -25.2534  -13.8162   20.5667 C   0  0  0  0  0  0
  -24.1799  -13.0433   20.9134 C   0  0  0  0  0  0
  -24.6360  -11.6897   20.8687 C   0  0  0  0  0  0
  -23.9031  -10.4284   21.0387 C   0  0  0  0  0  0
  -24.3583   -9.4203   21.9168 C   0  0  0  0  0  0
  -23.6255   -8.2242   22.0764 C   0  0  0  0  0  0
  -22.4234   -8.0264   21.3553 C   0  0  0  0  0  0
  -21.9866   -9.0238   20.4669 C   0  0  0  0  0  0
  -22.7207  -10.2109   20.3055 C   0  0  0  0  0  0
  -21.6855   -6.0702   22.5267 C   0  0  0  0  0  0
  -21.4035   -6.5615   23.8197 C   0  0  0  0  0  0
  -21.3671   -5.6778   24.9167 C   0  0  0  0  0  0
  -21.6043   -4.3035   24.7228 C   0  0  0  0  0  0
  -21.8821   -3.8123   23.4353 C   0  0  0  0  0  0
  -21.9198   -4.6934   22.3401 C   0  0  0  0  0  0
  -22.7847  -13.5247   21.1819 C   0  0  0  0  0  0
  -22.1657   -4.2120   21.0982 F   0  0  0  0  0  0
  -21.5631   -3.4523   25.7745 F   0  0  0  0  0  0
  -29.9992  -13.4546   20.4410 N   0  0  0  0  0  0
  -26.2950  -12.9359   20.3246 N   0  0  0  0  0  0
  -25.9285  -11.6501   20.5681 N   0  0  0  0  0  0
  -22.0469  -12.8250   22.0387 N   0  0  0  0  0  0
  -25.4233  -15.1899   20.4220 N   0  0  0  0  0  0
  -31.7817  -14.7945   20.0774 O   0  0  0  0  0  0
  -21.6618   -6.8844   21.4235 O   0  0  0  0  0  0
  -22.3539  -14.5550   20.6685 O   0  0  0  0  0  0
  -24.6288  -31.8563   23.2008 C   0  0  0  0  0  0
  -25.9121  -32.4763   23.8333 C   0  0  1  0  0  0
  -27.2105  -27.2914   20.1030 C   0  0  0  0  0  0
  -25.5918  -33.8564   24.2248 N   0  0  0  0  0  0
  -23.4224  -30.4831   21.5448 C   0  0  2  0  0  0
  -24.8640  -28.9346   20.1119 C   0  0  0  0  0  0
  -22.7478  -29.4616   22.4917 C   0  0  0  0  0  0
  -18.0289  -28.1399   22.8484 C   0  0  0  0  0  0
  -24.1490  -36.7288   23.2642 C   0  0  0  0  0  0
  -25.9684  -30.7772   21.3770 C   0  0  0  0  0  0
  -26.0383  -29.4058   20.7121 C   0  0  0  0  0  0
  -27.2166  -28.5970   20.6941 C   0  0  0  0  0  0
  -26.0086  -26.8778   19.4854 C   0  0  0  0  0  0
  -24.8506  -27.6771   19.4925 C   0  0  0  0  0  0
  -23.6366  -29.8216   20.1599 C   0  0  0  0  0  0
  -25.4117  -36.3067   24.0315 C   0  0  1  0  0  0
  -20.5892  -28.3697   23.1278 C   0  0  2  0  0  0
  -20.6782  -26.9417   22.5413 C   0  0  0  0  0  0
  -19.5769  -26.6392   21.5210 C   0  0  0  0  0  0
  -18.1941  -26.7943   22.1613 C   0  0  0  0  0  0
  -19.1543  -28.8865   23.2880 C   0  0  0  0  0  0
  -18.9475  -30.1468   23.8894 C   0  0  0  0  0  0
  -17.6478  -30.6596   24.0576 C   0  0  0  0  0  0
  -25.9057  -34.9439   23.5086 C   0  0  0  0  0  0
  -16.5365  -29.9096   23.6349 C   0  0  0  0  0  0
  -16.7277  -28.6522   23.0346 C   0  0  0  0  0  0
  -26.4500  -31.6593   25.0717 C   0  0  0  0  0  0
  -25.3736  -31.3755   26.1449 C   0  0  0  0  0  0
  -27.0336  -30.2998   24.6215 C   0  0  0  0  0  0
  -27.6044  -32.4349   25.7491 C   0  0  0  0  0  0
  -27.5579  -37.1791   24.8457 C   0  0  0  0  0  0
  -21.4186  -29.3041   22.3651 N   0  0  0  0  0  0
  -26.4288  -37.3765   23.9404 N   0  0  0  0  0  0
  -24.6924  -31.0560   22.0970 N   0  0  0  0  0  0
  -23.4195  -28.8151   23.2998 O   0  0  0  0  0  0
  -28.3197  -26.4237   20.1486 O   0  0  0  0  0  0
  -26.5650  -34.8914   22.4664 O   0  0  0  0  0  0
  -23.5449  -32.1368   23.7339 O   0  0  0  0  0  0
  -31.3135  -17.2070   23.1182 C   0  0  0  0  0  0
  -31.4922  -17.6427   21.7906 C   0  0  0  0  0  0
  -30.4748  -17.2984   20.8689 C   0  0  0  0  0  0
  -29.9532  -15.9587   21.1239 C   0  0  0  0  0  0
  -30.2272  -16.3535   23.3885 C   0  0  0  0  0  0
  -32.6684  -18.5328   21.4380 C   0  0  0  0  0  0
  -28.5287  -16.7221   25.2241 C   0  0  0  0  0  0
  -31.4534  -25.3047   22.3353 C   0  0  0  0  0  0
  -30.8383  -23.4393   23.9264 C   0  0  0  0  0  0
  -29.2541  -22.4923   18.1966 C   0  0  0  0  0  0
  -29.4784  -18.5078   20.5879 C   0  0  0  0  0  0
  -29.8182  -16.0056   24.8056 C   0  0  0  0  0  0
  -29.3598  -23.9087   21.9238 C   0  0  0  0  0  0
  -30.0293  -20.0062   20.3359 C   0  0  0  0  0  0
  -28.1223  -24.9629   19.8997 C   0  0  0  0  0  0
  -30.8051  -23.9122   22.4668 C   0  0  0  0  0  0
  -29.2692  -23.9531   20.3829 C   0  0  2  0  0  0
  -29.5479  -22.5003   19.7041 C   0  0  1  0  0  0
  -29.5342  -15.7555   22.3970 N   0  0  0  0  0  0
  -29.0639  -21.1951   20.3467 N   0  3  0  0  0  0
  -31.4794  -12.5295   19.1798 H   0  0  0  0  0  0
  -30.3559  -11.4308   19.9193 H   0  0  0  0  0  0
  -29.7965  -11.7812   17.4878 H   0  0  0  0  0  0
  -29.6492  -13.5006   17.7579 H   0  0  0  0  0  0
  -27.8915  -11.2975   18.8770 H   0  0  0  0  0  0
  -27.3868  -12.5712   17.7896 H   0  0  0  0  0  0
  -27.6651  -14.2583   19.5175 H   0  0  0  0  0  0
  -28.7087  -12.0544   21.3561 H   0  0  0  0  0  0
  -28.3879  -13.6754   21.8444 H   0  0  0  0  0  0
  -25.2738   -9.5685   22.4720 H   0  0  0  0  0  0
  -23.9976   -7.4654   22.7501 H   0  0  0  0  0  0
  -21.0782   -8.8769   19.8981 H   0  0  0  0  0  0
  -22.3674  -10.9637   19.6147 H   0  0  0  0  0  0
  -21.2018   -7.6122   23.9685 H   0  0  0  0  0  0
  -21.1504   -6.0508   25.9062 H   0  0  0  0  0  0
  -22.0582   -2.7584   23.2854 H   0  0  0  0  0  0
  -22.4085  -11.9926   22.4810 H   0  0  0  0  0  0
  -21.1112  -13.1353   22.2616 H   0  0  0  0  0  0
  -24.6598  -15.8439   20.5593 H   0  0  0  0  0  0
  -26.2941  -15.6385   20.1713 H   0  0  0  0  0  0
  -26.7174  -32.5408   23.1062 H   0  0  0  0  0  0
  -25.0000  -33.9704   25.0348 H   0  0  0  0  0  0
  -22.7188  -31.3057   21.4022 H   0  0  0  0  0  0
  -23.3745  -35.9628   23.3307 H   0  0  0  0  0  0
  -24.3581  -36.8918   22.2059 H   0  0  0  0  0  0
  -23.7260  -37.6486   23.6684 H   0  0  0  0  0  0
  -26.1111  -31.5450   20.6162 H   0  0  0  0  0  0
  -26.8441  -30.8157   22.0131 H   0  0  0  0  0  0
  -28.1209  -28.9525   21.1665 H   0  0  0  0  0  0
  -25.9280  -25.9158   19.0017 H   0  0  0  0  0  0
  -23.9461  -27.3105   19.0266 H   0  0  0  0  0  0
  -23.7643  -30.5985   19.4046 H   0  0  0  0  0  0
  -22.7541  -29.2562   19.8546 H   0  0  0  0  0  0
  -25.1302  -36.1899   25.0807 H   0  0  0  0  0  0
  -20.9994  -28.3284   24.1399 H   0  0  0  0  0  0
  -20.5678  -26.2304   23.3606 H   0  0  0  0  0  0
  -21.6651  -26.7445   22.1220 H   0  0  0  0  0  0
  -19.6928  -25.6298   21.1250 H   0  0  0  0  0  0
  -19.6722  -27.3192   20.6731 H   0  0  0  0  0  0
  -17.4211  -26.6696   21.4010 H   0  0  0  0  0  0
  -18.0342  -26.0077   22.9003 H   0  0  0  0  0  0
  -19.7949  -30.7290   24.2250 H   0  0  0  0  0  0
  -17.5031  -31.6272   24.5179 H   0  0  0  0  0  0
  -15.5365  -30.3001   23.7672 H   0  0  0  0  0  0
  -15.8676  -28.0847   22.7051 H   0  0  0  0  0  0
  -24.5864  -30.7161   25.7775 H   0  0  0  0  0  0
  -24.8998  -32.2942   26.4916 H   0  0  0  0  0  0
  -25.8054  -30.8879   27.0197 H   0  0  0  0  0  0
  -26.2907  -29.6748   24.1244 H   0  0  0  0  0  0
  -27.3992  -29.7268   25.4746 H   0  0  0  0  0  0
  -27.8805  -30.4246   23.9465 H   0  0  0  0  0  0
  -27.2611  -33.3614   26.2109 H   0  0  0  0  0  0
  -28.3830  -32.6978   25.0317 H   0  0  0  0  0  0
  -28.0745  -31.8465   26.5380 H   0  0  0  0  0  0
  -28.2592  -38.0093   24.7502 H   0  0  0  0  0  0
  -28.1078  -36.2620   24.6276 H   0  0  0  0  0  0
  -27.2305  -37.1442   25.8864 H   0  0  0  0  0  0
  -20.9353  -29.8741   21.6845 H   0  0  0  0  0  0
  -26.0158  -38.2829   24.1422 H   0  0  0  0  0  0
  -31.9547  -17.5641   23.9133 H   0  0  0  0  0  0
  -33.5988  -18.0307   21.7022 H   0  0  0  0  0  0
  -32.6369  -19.4725   21.9909 H   0  0  0  0  0  0
  -32.7052  -18.7445   20.3694 H   0  0  0  0  0  0
  -28.2356  -16.4411   26.2349 H   0  0  0  0  0  0
  -27.7056  -16.4764   24.5531 H   0  0  0  0  0  0
  -28.6651  -17.8029   25.2044 H   0  0  0  0  0  0
  -32.4177  -25.3440   22.8434 H   0  0  0  0  0  0
  -30.8240  -26.0833   22.7684 H   0  0  0  0  0  0
  -31.6363  -25.5747   21.2949 H   0  0  0  0  0  0
  -31.8605  -23.4016   24.3053 H   0  0  0  0  0  0
  -30.4202  -22.4373   24.0282 H   0  0  0  0  0  0
  -30.2690  -24.1038   24.5760 H   0  0  0  0  0  0
  -29.6798  -23.3694   17.7088 H   0  0  0  0  0  0
  -28.1830  -22.4848   17.9968 H   0  0  0  0  0  0
  -29.6900  -21.6152   17.7159 H   0  0  0  0  0  0
  -28.8033  -18.5392   21.4446 H   0  0  0  0  0  0
  -28.8524  -18.2155   19.7442 H   0  0  0  0  0  0
  -30.6266  -16.2692   25.4889 H   0  0  0  0  0  0
  -29.6844  -14.9253   24.8831 H   0  0  0  0  0  0
  -28.8268  -24.7591   22.3524 H   0  0  0  0  0  0
  -28.8171  -23.0377   22.2922 H   0  0  0  0  0  0
  -30.5757  -20.0077   19.3910 H   0  0  0  0  0  0
  -30.7481  -20.2614   21.1105 H   0  0  0  0  0  0
  -27.1966  -24.6375   20.3777 H   0  0  0  0  0  0
  -27.9715  -24.8437   18.8265 H   0  0  0  0  0  0
  -31.3992  -23.2022   21.8896 H   0  0  0  0  0  0
  -30.1368  -24.5176   20.0441 H   0  0  0  0  0  0
  -30.6338  -22.4149   19.7764 H   0  0  0  0  0  0
  -28.8378  -21.3759   21.3109 H   0  0  0  0  0  0
  -28.2025  -20.9273   19.8975 H   0  0  0  0  0  0
  1 25  1  0  0  0
  1 30  2  0  0  0
  1 74  1  0  0  0
  2  3  1  0  0  0
  2 25  1  0  0  0
  2 91  1  0  0  0
  2 92  1  0  0  0
  3  4  1  0  0  0
  3 93  1  0  0  0
  3 94  1  0  0  0
  4  5  1  0  0  0
  4 95  1  0  0  0
  4 96  1  0  0  0
  5  6  1  0  0  0
  5 26  1  0  0  0
  5 97  1  0  0  0
  6 25  1  0  0  0
  6 98  1  0  0  0
  6 99  1  0  0  0
  7  8  2  0  0  0
  7 26  1  0  0  0
  7 29  1  0  0  0
  8  9  1  0  0  0
  8 22  1  0  0  0
  9 10  1  0  0  0
  9 27  2  0  0  0
 10 11  2  0  0  0
 10 15  1  0  0  0
 11 12  1  0  0  0
 11100  1  0  0  0
 12 13  2  0  0  0
 12101  1  0  0  0
 13 14  1  0  0  0
 13 31  1  0  0  0
 14 15  2  0  0  0
 14102  1  0  0  0
 15103  1  0  0  0
 16 17  2  0  0  0
 16 21  1  0  0  0
 16 31  1  0  0  0
 17 18  1  0  0  0
 17104  1  0  0  0
 18 19  2  0  0  0
 18105  1  0  0  0
 19 20  1  0  0  0
 19 24  1  0  0  0
 20 21  2  0  0  0
 20106  1  0  0  0
 21 23  1  0  0  0
 22 28  1  0  0  0
 22 32  2  0  0  0
 26 27  1  0  0  0
 28107  1  0  0  0
 28108  1  0  0  0
 29109  1  0  0  0
 29110  1  0  0  0
 33 34  1  0  0  0
 33 66  1  0  0  0
 33 70  2  0  0  0
 34 36  1  0  0  0
 34 59  1  0  0  0
 34111  1  0  0  0
 35 44  2  0  0  0
 35 45  1  0  0  0
 35 68  1  0  0  0
 36 56  1  0  0  0
 36112  1  0  0  0
 37 39  1  0  0  0
 37 47  1  0  0  0
 37 66  1  0  0  0
 37113  1  0  0  0
 38 43  2  0  0  0
 38 46  1  0  0  0
 38 47  1  0  0  0
 39 64  1  0  0  0
 39 67  2  0  0  0
 40 52  1  0  0  0
 40 53  2  0  0  0
 40 58  1  0  0  0
 41114  1  0  0  0
 41115  1  0  0  0
 41116  1  0  0  0
 41 48  1  0  0  0
 42 43  1  0  0  0
 42 66  1  0  0  0
 42117  1  0  0  0
 42118  1  0  0  0
 43 44  1  0  0  0
 44119  1  0  0  0
 45 46  2  0  0  0
 45120  1  0  0  0
 46121  1  0  0  0
 47122  1  0  0  0
 47123  1  0  0  0
 48 56  1  0  0  0
 48 65  1  0  0  0
 48124  1  0  0  0
 49 50  1  0  0  0
 49 53  1  0  0  0
 49 64  1  0  0  0
 49125  1  0  0  0
 50 51  1  0  0  0
 50126  1  0  0  0
 50127  1  0  0  0
 51 52  1  0  0  0
 51128  1  0  0  0
 51129  1  0  0  0
 52130  1  0  0  0
 52131  1  0  0  0
 53 54  1  0  0  0
 54 55  2  0  0  0
 54132  1  0  0  0
 55 57  1  0  0  0
 55133  1  0  0  0
 56 69  2  0  0  0
 57 58  2  0  0  0
 57134  1  0  0  0
 58135  1  0  0  0
 59 60  1  0  0  0
 59 61  1  0  0  0
 59 62  1  0  0  0
 60136  1  0  0  0
 60137  1  0  0  0
 60138  1  0  0  0
 61139  1  0  0  0
 61140  1  0  0  0
 61141  1  0  0  0
 62142  1  0  0  0
 62143  1  0  0  0
 62144  1  0  0  0
 63 65  1  0  0  0
 63145  1  0  0  0
 63146  1  0  0  0
 63147  1  0  0  0
 64148  1  0  0  0
 65149  1  0  0  0
 68 85  1  0  0  0
 71 72  2  0  0  0
 71 75  1  0  0  0
 71150  1  0  0  0
 72 73  1  0  0  0
 72 76  1  0  0  0
 73 74  2  0  0  0
 73 81  1  0  0  0
 74 89  1  0  0  0
 75 82  1  0  0  0
 75 89  2  0  0  0
 76151  1  0  0  0
 76152  1  0  0  0
 76153  1  0  0  0
 77 82  1  0  0  0
 77154  1  0  0  0
 77155  1  0  0  0
 77156  1  0  0  0
 78157  1  0  0  0
 78158  1  0  0  0
 78159  1  0  0  0
 78 86  1  0  0  0
 79 86  1  0  0  0
 79160  1  0  0  0
 79161  1  0  0  0
 79162  1  0  0  0
 80163  1  0  0  0
 80164  1  0  0  0
 80165  1  0  0  0
 80 88  1  0  0  0
 81 84  1  0  0  0
 81166  1  0  0  0
 81167  1  0  0  0
 82168  1  0  0  0
 82169  1  0  0  0
 83 86  1  0  0  0
 83170  1  0  0  0
 83171  1  0  0  0
 83 87  1  0  0  0
 84 90  1  0  0  0
 84172  1  0  0  0
 84173  1  0  0  0
 85 87  1  0  0  0
 85174  1  0  0  0
 85175  1  0  0  0
 86176  1  0  0  0
 87 88  1  0  0  0
 87177  1  0  0  0
 88 90  1  0  0  0
 88178  1  0  0  0
 90179  1  0  0  0
 90180  1  0  0  0
M  CHG  1  90   1
M  ISO  4   1 100  68 101  74 100  85 101
M  END
> <chiral flag>
0

> <version>
0

> <s_m_source_file>
/data/baiqing/PycharmProjects/Reinvent-master-3.2/result/LINK_invent/BTK/process_docking_weight1_custom_sum_contain_oxygen_bond_distance_aromatic_linkinvent_7_9_3/rearranged_h_0086.sdf

> <i_m_source_file_index>
11

> <r_mmod_Potential_Energy-OPLS-2005>
251.151092529297

> <r_mmod_Stretch_Energy-OPLS-2005>
116.590545654297

> <r_mmod_Bend_Energy-OPLS-2005>
198.929626464844

> <r_mmod_Torsional_Energy-OPLS-2005>
439.735626220703

> <r_mmod_Improper_Torsional_Energy-OPLS-2005>
32.0724449157715

> <r_mmod_Van_der_Waal_Energy-OPLS-2005>
149.700866699219

> <r_mmod_Electrostatic_Energy-OPLS-2005>
-308.101867675781

> <r_mmod_Solvation_Energy-OPLS-2005>
-436.049865722656

> <b_mmod_Minimization_Converged-OPLS-2005>
0

> <r_mmod_RMS_Derivative-OPLS-2005>
3.23305606842041

$$$$
11
                    3D
 Structure written by MMmdl.
166174  0  0  1  0            999 V2000
  -30.7169  -14.4450   20.5886 C   0  0  0  0  0  0
  -30.4165  -12.2981   19.4160 C   0  0  0  0  0  0
  -29.4899  -12.5041   18.2016 C   0  0  0  0  0  0
  -28.0120  -12.3669   18.6169 C   0  0  0  0  0  0
  -27.6612  -13.2065   19.8747 C   0  0  2  0  0  0
  -28.7022  -12.9842   20.9945 C   0  0  0  0  0  0
  -25.2584  -13.8169   20.5677 C   0  0  0  0  0  0
  -24.1841  -13.0443   20.9172 C   0  0  0  0  0  0
  -24.6395  -11.6903   20.8736 C   0  0  0  0  0  0
  -23.9063  -10.4288   21.0400 C   0  0  0  0  0  0
  -24.3618   -9.4204   21.9180 C   0  0  0  0  0  0
  -23.6292   -8.2242   22.0756 C   0  0  0  0  0  0
  -22.4272   -8.0280   21.3549 C   0  0  0  0  0  0
  -21.9907   -9.0251   20.4649 C   0  0  0  0  0  0
  -22.7233  -10.2130   20.3053 C   0  0  0  0  0  0
  -21.6855   -6.0733   22.5279 C   0  0  0  0  0  0
  -21.4011   -6.5638   23.8209 C   0  0  0  0  0  0
  -21.3656   -5.6793   24.9173 C   0  0  0  0  0  0
  -21.6052   -4.3057   24.7225 C   0  0  0  0  0  0
  -21.8819   -3.8145   23.4346 C   0  0  0  0  0  0
  -21.9189   -4.6961   22.3401 C   0  0  0  0  0  0
  -22.7864  -13.5234   21.1836 C   0  0  0  0  0  0
  -22.1661   -4.2147   21.0979 F   0  0  0  0  0  0
  -21.5627   -3.4541   25.7737 F   0  0  0  0  0  0
  -30.0330  -13.2806   20.4405 N   0  0  0  0  0  0
  -26.3022  -12.9341   20.3364 N   0  0  0  0  0  0
  -25.9324  -11.6500   20.5778 N   0  0  0  0  0  0
  -22.0508  -12.8231   22.0394 N   0  0  0  0  0  0
  -25.4312  -15.1888   20.4079 N   0  0  0  0  0  0
  -31.8347  -14.6331   20.1000 O   0  0  0  0  0  0
  -21.6641   -6.8878   21.4241 O   0  0  0  0  0  0
  -22.3548  -14.5542   20.6683 O   0  0  0  0  0  0
  -24.6120  -31.8681   23.2107 C   0  0  0  0  0  0
  -25.9019  -32.4823   23.8399 C   0  0  1  0  0  0
  -27.2336  -27.4391   20.0966 C   0  0  0  0  0  0
  -25.5888  -33.8625   24.2324 N   0  0  0  0  0  0
  -23.3997  -30.4911   21.5500 C   0  0  2  0  0  0
  -24.8451  -28.9562   20.1130 C   0  0  0  0  0  0
  -22.7395  -29.4650   22.4980 C   0  0  0  0  0  0
  -18.0279  -28.1367   22.8497 C   0  0  0  0  0  0
  -24.1487  -36.7310   23.2644 C   0  0  0  0  0  0
  -25.9264  -30.8376   21.3595 C   0  0  0  0  0  0
  -26.0026  -29.4714   20.7079 C   0  0  0  0  0  0
  -27.1962  -28.7184   20.6965 C   0  0  0  0  0  0
  -26.0606  -26.9425   19.4838 C   0  0  0  0  0  0
  -24.8685  -27.6914   19.4993 C   0  0  0  0  0  0
  -23.6073  -29.8223   20.1641 C   0  0  0  0  0  0
  -25.4110  -36.3107   24.0339 C   0  0  1  0  0  0
  -20.5867  -28.3646   23.1328 C   0  0  2  0  0  0
  -20.6755  -26.9376   22.5428 C   0  0  0  0  0  0
  -19.5739  -26.6376   21.5215 C   0  0  0  0  0  0
  -18.1924  -26.7918   22.1626 C   0  0  0  0  0  0
  -19.1527  -28.8823   23.2915 C   0  0  0  0  0  0
  -18.9451  -30.1431   23.8915 C   0  0  0  0  0  0
  -17.6453  -30.6575   24.0561 C   0  0  0  0  0  0
  -25.9036  -34.9476   23.5125 C   0  0  0  0  0  0
  -16.5346  -29.9068   23.6328 C   0  0  0  0  0  0
  -16.7267  -28.6487   23.0348 C   0  0  0  0  0  0
  -26.4462  -31.6599   25.0715 C   0  0  0  0  0  0
  -25.3739  -31.3696   26.1468 C   0  0  0  0  0  0
  -27.0295  -30.3052   24.6068 C   0  0  0  0  0  0
  -27.6048  -32.4311   25.7469 C   0  0  0  0  0  0
  -27.5579  -37.1810   24.8472 C   0  0  0  0  0  0
  -21.4121  -29.3026   22.3736 N   0  0  0  0  0  0
  -26.4294  -37.3791   23.9415 N   0  0  0  0  0  0
  -24.6645  -31.0792   22.0996 N   0  0  0  0  0  0
  -23.4183  -28.8181   23.2999 O   0  0  0  0  0  0
  -28.4222  -26.7410   20.1394 O   0  0  0  0  0  0
  -26.5601  -34.8917   22.4684 O   0  0  0  0  0  0
  -23.5313  -32.1424   23.7513 O   0  0  0  0  0  0
  -28.3370  -22.6228   22.4643 C   0  0  0  0  0  0
  -28.9200  -21.3605   22.7107 C   0  0  0  0  0  0
  -28.2349  -23.0736   21.1347 C   0  0  0  0  0  0
  -29.3835  -20.6176   21.5839 C   0  0  0  0  0  0
  -29.0503  -20.9137   24.1578 C   0  0  0  0  0  0
  -31.3494  -19.4041   22.7434 C   0  0  0  0  0  0
  -28.6357  -17.6283   22.7708 C   0  0  0  0  0  0
  -28.6060  -17.9098   20.2963 C   0  0  0  0  0  0
  -27.6254  -24.4415   20.8219 C   0  0  0  0  0  0
  -30.5897  -16.7969   21.3955 C   0  0  0  0  0  0
  -28.4682  -25.3299   19.8693 C   0  0  0  0  0  0
  -30.2479  -19.3283   21.6594 C   0  0  1  0  0  0
  -29.5192  -17.9280   21.5423 C   0  0  0  0  0  0
  -28.6256  -22.2949   20.0966 N   0  0  0  0  0  0
  -29.2053  -21.1078   20.3236 N   0  0  0  0  0  0
  -30.0563  -15.4387   21.2058 N   0  0  0  0  0  0
  -31.4614  -12.3888   19.1146 H   0  0  0  0  0  0
  -30.3099  -11.2874   19.8119 H   0  0  0  0  0  0
  -29.7267  -11.7804   17.4206 H   0  0  0  0  0  0
  -29.6611  -13.4911   17.7680 H   0  0  0  0  0  0
  -27.8202  -11.3112   18.8117 H   0  0  0  0  0  0
  -27.3607  -12.6444   17.7875 H   0  0  0  0  0  0
  -27.7073  -14.2550   19.5800 H   0  0  0  0  0  0
  -28.6766  -11.9495   21.3380 H   0  0  0  0  0  0
  -28.4661  -13.5868   21.8728 H   0  0  0  0  0  0
  -25.2764   -9.5681   22.4752 H   0  0  0  0  0  0
  -24.0000   -7.4636   22.7478 H   0  0  0  0  0  0
  -21.0837   -8.8769   19.8959 H   0  0  0  0  0  0
  -22.3691  -10.9670   19.6164 H   0  0  0  0  0  0
  -21.2007   -7.6146   23.9716 H   0  0  0  0  0  0
  -21.1480   -6.0520   25.9078 H   0  0  0  0  0  0
  -22.0603   -2.7608   23.2845 H   0  0  0  0  0  0
  -22.4125  -11.9885   22.4770 H   0  0  0  0  0  0
  -21.1135  -13.1272   22.2617 H   0  0  0  0  0  0
  -24.6653  -15.8444   20.5176 H   0  0  0  0  0  0
  -26.2832  -15.6264   20.0822 H   0  0  0  0  0  0
  -26.7087  -32.5542   23.1167 H   0  0  0  0  0  0
  -25.0048  -33.9807   25.0473 H   0  0  0  0  0  0
  -22.6871  -31.3068   21.4111 H   0  0  0  0  0  0
  -23.3734  -35.9657   23.3317 H   0  0  0  0  0  0
  -24.3585  -36.8916   22.2058 H   0  0  0  0  0  0
  -23.7248  -37.6523   23.6645 H   0  0  0  0  0  0
  -26.0365  -31.6027   20.5892 H   0  0  0  0  0  0
  -26.8152  -30.8938   21.9764 H   0  0  0  0  0  0
  -28.0898  -29.1122   21.1601 H   0  0  0  0  0  0
  -26.0508  -25.9848   18.9859 H   0  0  0  0  0  0
  -23.9789  -27.2921   19.0322 H   0  0  0  0  0  0
  -23.7138  -30.5959   19.4025 H   0  0  0  0  0  0
  -22.7316  -29.2417   19.8685 H   0  0  0  0  0  0
  -25.1281  -36.1978   25.0831 H   0  0  0  0  0  0
  -20.9992  -28.3199   24.1433 H   0  0  0  0  0  0
  -20.5646  -26.2243   23.3614 H   0  0  0  0  0  0
  -21.6626  -26.7407   22.1223 H   0  0  0  0  0  0
  -19.6891  -25.6292   21.1231 H   0  0  0  0  0  0
  -19.6676  -27.3197   20.6752 H   0  0  0  0  0  0
  -17.4197  -26.6685   21.4024 H   0  0  0  0  0  0
  -18.0299  -26.0053   22.9008 H   0  0  0  0  0  0
  -19.7923  -30.7249   24.2291 H   0  0  0  0  0  0
  -17.5001  -31.6261   24.5147 H   0  0  0  0  0  0
  -15.5343  -30.2969   23.7640 H   0  0  0  0  0  0
  -15.8670  -28.0813   22.7039 H   0  0  0  0  0  0
  -24.5906  -30.7053   25.7798 H   0  0  0  0  0  0
  -24.8936  -32.2850   26.4931 H   0  0  0  0  0  0
  -25.8103  -30.8850   27.0213 H   0  0  0  0  0  0
  -26.2833  -29.6808   24.1144 H   0  0  0  0  0  0
  -27.4108  -29.7288   25.4507 H   0  0  0  0  0  0
  -27.8634  -30.4379   23.9175 H   0  0  0  0  0  0
  -27.2677  -33.3599   26.2075 H   0  0  0  0  0  0
  -28.3835  -32.6897   25.0281 H   0  0  0  0  0  0
  -28.0733  -31.8420   26.5362 H   0  0  0  0  0  0
  -28.2607  -38.0095   24.7502 H   0  0  0  0  0  0
  -28.1059  -36.2630   24.6303 H   0  0  0  0  0  0
  -27.2304  -37.1467   25.8878 H   0  0  0  0  0  0
  -20.9258  -29.8755   21.6983 H   0  0  0  0  0  0
  -26.0177  -38.2871   24.1395 H   0  0  0  0  0  0
  -27.9896  -23.2426   23.2787 H   0  0  0  0  0  0
  -28.3336  -21.4353   24.7924 H   0  0  0  0  0  0
  -30.0447  -21.1395   24.5424 H   0  0  0  0  0  0
  -28.8589  -19.8514   24.2788 H   0  0  0  0  0  0
  -31.7833  -20.4032   22.7859 H   0  0  0  0  0  0
  -32.1743  -18.7261   22.5310 H   0  0  0  0  0  0
  -30.9852  -19.1566   23.7375 H   0  0  0  0  0  0
  -28.1301  -16.6664   22.6799 H   0  0  0  0  0  0
  -27.8530  -18.3784   22.8886 H   0  0  0  0  0  0
  -29.2195  -17.5941   23.6904 H   0  0  0  0  0  0
  -28.1100  -16.9487   20.1675 H   0  0  0  0  0  0
  -29.1739  -18.1068   19.3862 H   0  0  0  0  0  0
  -27.8182  -18.6604   20.3632 H   0  0  0  0  0  0
  -27.4878  -24.9716   21.7645 H   0  0  0  0  0  0
  -26.6258  -24.2860   20.4179 H   0  0  0  0  0  0
  -31.2564  -17.0509   20.5681 H   0  0  0  0  0  0
  -31.2161  -16.7462   22.2863 H   0  0  0  0  0  0
  -29.5186  -25.0645   19.9974 H   0  0  0  0  0  0
  -28.2386  -25.1165   18.8252 H   0  0  0  0  0  0
  -30.8328  -19.3904   20.7389 H   0  0  0  0  0  0
  -29.1347  -15.2385   21.5617 H   0  0  0  0  0  0
  1 25  1  0  0  0
  1 30  2  0  0  0
  1 86  1  0  0  0
  2  3  1  0  0  0
  2 25  1  0  0  0
  2 87  1  0  0  0
  2 88  1  0  0  0
  3  4  1  0  0  0
  3 89  1  0  0  0
  3 90  1  0  0  0
  4  5  1  0  0  0
  4 91  1  0  0  0
  4 92  1  0  0  0
  5  6  1  0  0  0
  5 26  1  0  0  0
  5 93  1  0  0  0
  6 25  1  0  0  0
  6 94  1  0  0  0
  6 95  1  0  0  0
  7  8  2  0  0  0
  7 26  1  0  0  0
  7 29  1  0  0  0
  8  9  1  0  0  0
  8 22  1  0  0  0
  9 10  1  0  0  0
  9 27  2  0  0  0
 10 11  2  0  0  0
 10 15  1  0  0  0
 11 12  1  0  0  0
 11 96  1  0  0  0
 12 13  2  0  0  0
 12 97  1  0  0  0
 13 14  1  0  0  0
 13 31  1  0  0  0
 14 15  2  0  0  0
 14 98  1  0  0  0
 15 99  1  0  0  0
 16 17  2  0  0  0
 16 21  1  0  0  0
 16 31  1  0  0  0
 17 18  1  0  0  0
 17100  1  0  0  0
 18 19  2  0  0  0
 18101  1  0  0  0
 19 20  1  0  0  0
 19 24  1  0  0  0
 20 21  2  0  0  0
 20102  1  0  0  0
 21 23  1  0  0  0
 22 28  1  0  0  0
 22 32  2  0  0  0
 26 27  1  0  0  0
 28103  1  0  0  0
 28104  1  0  0  0
 29105  1  0  0  0
 29106  1  0  0  0
 33 34  1  0  0  0
 33 66  1  0  0  0
 33 70  2  0  0  0
 34 36  1  0  0  0
 34 59  1  0  0  0
 34107  1  0  0  0
 35 44  2  0  0  0
 35 45  1  0  0  0
 35 68  1  0  0  0
 36 56  1  0  0  0
 36108  1  0  0  0
 37 39  1  0  0  0
 37 47  1  0  0  0
 37 66  1  0  0  0
 37109  1  0  0  0
 38 43  2  0  0  0
 38 46  1  0  0  0
 38 47  1  0  0  0
 39 64  1  0  0  0
 39 67  2  0  0  0
 40 52  1  0  0  0
 40 53  2  0  0  0
 40 58  1  0  0  0
 41110  1  0  0  0
 41111  1  0  0  0
 41112  1  0  0  0
 41 48  1  0  0  0
 42 43  1  0  0  0
 42 66  1  0  0  0
 42113  1  0  0  0
 42114  1  0  0  0
 43 44  1  0  0  0
 44115  1  0  0  0
 45 46  2  0  0  0
 45116  1  0  0  0
 46117  1  0  0  0
 47118  1  0  0  0
 47119  1  0  0  0
 48 56  1  0  0  0
 48 65  1  0  0  0
 48120  1  0  0  0
 49 50  1  0  0  0
 49 53  1  0  0  0
 49 64  1  0  0  0
 49121  1  0  0  0
 50 51  1  0  0  0
 50122  1  0  0  0
 50123  1  0  0  0
 51 52  1  0  0  0
 51124  1  0  0  0
 51125  1  0  0  0
 52126  1  0  0  0
 52127  1  0  0  0
 53 54  1  0  0  0
 54 55  2  0  0  0
 54128  1  0  0  0
 55 57  1  0  0  0
 55129  1  0  0  0
 56 69  2  0  0  0
 57 58  2  0  0  0
 57130  1  0  0  0
 58131  1  0  0  0
 59 60  1  0  0  0
 59 61  1  0  0  0
 59 62  1  0  0  0
 60132  1  0  0  0
 60133  1  0  0  0
 60134  1  0  0  0
 61135  1  0  0  0
 61136  1  0  0  0
 61137  1  0  0  0
 62138  1  0  0  0
 62139  1  0  0  0
 62140  1  0  0  0
 63 65  1  0  0  0
 63141  1  0  0  0
 63142  1  0  0  0
 63143  1  0  0  0
 64144  1  0  0  0
 65145  1  0  0  0
 68 81  1  0  0  0
 71 72  2  0  0  0
 71 73  1  0  0  0
 71146  1  0  0  0
 72 74  1  0  0  0
 72 75  1  0  0  0
 73 79  1  0  0  0
 73 84  2  0  0  0
 74 82  1  0  0  0
 74 85  2  0  0  0
 75147  1  0  0  0
 75148  1  0  0  0
 75149  1  0  0  0
 76150  1  0  0  0
 76151  1  0  0  0
 76152  1  0  0  0
 76 82  1  0  0  0
 77153  1  0  0  0
 77154  1  0  0  0
 77155  1  0  0  0
 77 83  1  0  0  0
 78 83  1  0  0  0
 78156  1  0  0  0
 78157  1  0  0  0
 78158  1  0  0  0
 79 81  1  0  0  0
 79159  1  0  0  0
 79160  1  0  0  0
 80 83  1  0  0  0
 80 86  1  0  0  0
 80161  1  0  0  0
 80162  1  0  0  0
 81163  1  0  0  0
 81164  1  0  0  0
 82 83  1  0  0  0
 82165  1  0  0  0
 84 85  1  0  0  0
 86166  1  0  0  0
M  ISO  4   1 100  68 101  81 101  86 100
M  END
> <chiral flag>
0

> <version>
0

> <s_m_source_file>
/data/baiqing/PycharmProjects/Reinvent-master-3.2/result/LINK_invent/BTK/process_docking_weight1_custom_sum_contain_oxygen_bond_distance_aromatic_linkinvent_7_9_3/rearranged_h_0086.sdf

> <i_m_source_file_index>
12

> <r_mmod_Potential_Energy-OPLS-2005>
-40.0517616271973

> <r_mmod_Stretch_Energy-OPLS-2005>
44.7951431274414

> <r_mmod_Bend_Energy-OPLS-2005>
127.975242614746

> <r_mmod_Torsional_Energy-OPLS-2005>
208.137634277344

> <r_mmod_Improper_Torsional_Energy-OPLS-2005>
3.19124507904053

> <r_mmod_Van_der_Waal_Energy-OPLS-2005>
162.948516845703

> <r_mmod_Electrostatic_Energy-OPLS-2005>
-380.102996826172

> <r_mmod_Solvation_Energy-OPLS-2005>
-218.700088500977

> <b_mmod_Minimization_Converged-OPLS-2005>
0

> <r_mmod_RMS_Derivative-OPLS-2005>
1.50019991397858

$$$$
12
                    3D
 Structure written by MMmdl.
173181  0  0  1  0            999 V2000
  -31.1855  -13.3147   19.0732 C   0  0  0  0  0  0
  -31.1660  -14.8050   20.5222 C   0  0  0  0  0  0
  -30.6082  -15.0341   22.0307 C   0  0  0  0  0  0
  -27.4142  -14.1051   21.8060 C   0  0  0  0  0  0
  -27.3256  -13.5914   20.1936 C   0  0  2  0  0  0
  -28.5915  -14.0440   19.1159 C   0  0  0  0  0  0
  -24.9375  -13.9512   20.4486 C   0  0  0  0  0  0
  -23.9729  -13.1201   20.9383 C   0  0  0  0  0  0
  -24.4897  -11.7692   20.9109 C   0  0  0  0  0  0
  -23.8506  -10.4602   21.0996 C   0  0  0  0  0  0
  -24.3190   -9.4426   21.9805 C   0  0  0  0  0  0
  -23.5861   -8.2315   22.1282 C   0  0  0  0  0  0
  -22.3995   -8.0140   21.3814 C   0  0  0  0  0  0
  -21.9782   -9.0085   20.4677 C   0  0  0  0  0  0
  -22.7073  -10.2036   20.3336 C   0  0  0  0  0  0
  -21.6272   -6.0987   22.5666 C   0  0  0  0  0  0
  -21.3154   -6.5860   23.8529 C   0  0  0  0  0  0
  -21.3427   -5.7067   24.9548 C   0  0  0  0  0  0
  -21.6126   -4.3305   24.7438 C   0  0  0  0  0  0
  -21.8631   -3.8564   23.4422 C   0  0  0  0  0  0
  -21.8956   -4.7408   22.3554 C   0  0  0  0  0  0
  -22.5782  -13.5691   21.2559 C   0  0  0  0  0  0
  -22.1933   -4.2819   21.1105 F   0  0  0  0  0  0
  -21.5781   -3.4686   25.7802 F   0  0  0  0  0  0
  -30.2663  -14.2343   19.3234 N   0  0  0  0  0  0
  -25.9904  -13.1292   20.1657 N   0  0  0  0  0  0
  -25.7410  -11.8300   20.5184 N   0  0  0  0  0  0
  -21.8186  -12.9090   22.1349 N   0  0  0  0  0  0
  -25.0997  -15.3434   20.2614 N   0  0  0  0  0  0
  -32.3685  -13.6388   18.9117 O   0  0  0  0  0  0
  -21.5881   -6.9051   21.4642 O   0  0  0  0  0  0
  -22.1598  -14.5951   20.7304 O   0  0  0  0  0  0
  -24.7301  -31.7259   23.0907 C   0  0  0  0  0  0
  -25.9561  -32.4021   23.7808 C   0  0  1  0  0  0
  -27.1499  -25.9778   20.4887 C   0  0  0  0  0  0
  -25.5897  -33.7894   24.1543 N   0  0  0  0  0  0
  -23.5916  -30.2577   21.4563 C   0  0  2  0  0  0
  -25.0834  -28.4189   20.1696 C   0  0  0  0  0  0
  -22.7880  -29.3696   22.4510 C   0  0  0  0  0  0
  -18.0250  -28.1318   22.8457 C   0  0  0  0  0  0
  -24.1608  -36.6926   23.2672 C   0  0  0  0  0  0
  -26.1900  -30.1861   21.5111 C   0  0  0  0  0  0
  -26.2336  -28.6660   20.9157 C   0  0  0  0  0  0
  -27.2273  -27.4813   21.0548 C   0  0  0  0  0  0
  -26.0012  -26.1015   19.6410 C   0  0  0  0  0  0
  -25.0234  -27.1596   19.5111 C   0  0  0  0  0  0
  -23.9236  -29.4447   20.1506 C   0  0  0  0  0  0
  -25.4310  -36.2704   24.0313 C   0  0  1  0  0  0
  -20.5898  -28.3683   23.0962 C   0  0  2  0  0  0
  -20.6768  -26.9201   22.5498 C   0  0  0  0  0  0
  -19.5890  -26.6254   21.5187 C   0  0  0  0  0  0
  -18.1941  -26.7851   22.1473 C   0  0  0  0  0  0
  -19.1513  -28.8853   23.2725 C   0  0  0  0  0  0
  -18.9401  -30.1336   23.8947 C   0  0  0  0  0  0
  -17.6441  -30.6574   24.0499 C   0  0  0  0  0  0
  -25.9255  -34.9044   23.4868 C   0  0  0  0  0  0
  -16.5327  -29.9112   23.6275 C   0  0  0  0  0  0
  -16.7231  -28.6436   23.0498 C   0  0  0  0  0  0
  -26.4513  -31.6209   25.0748 C   0  0  0  0  0  0
  -25.3549  -31.3749   26.1434 C   0  0  0  0  0  0
  -27.0599  -30.2432   24.7206 C   0  0  0  0  0  0
  -27.6032  -32.4006   25.7349 C   0  0  0  0  0  0
  -27.5636  -37.1722   24.8563 C   0  0  0  0  0  0
  -21.4433  -29.2765   22.3196 N   0  0  0  0  0  0
  -26.4451  -37.3527   23.9329 N   0  0  0  0  0  0
  -24.8543  -30.7925   22.0594 N   0  0  0  0  0  0
  -23.4122  -28.7183   23.2958 O   0  0  0  0  0  0
  -27.8966  -24.4453   20.6654 O   0  0  0  0  0  0
  -26.5997  -34.8610   22.4551 O   0  0  0  0  0  0
  -23.6186  -32.0701   23.5390 O   0  0  0  0  0  0
  -29.3736  -13.4631   21.3951 C   0  0  0  0  0  0
  -28.8049  -14.8351   23.9231 C   0  0  0  0  0  0
  -28.7167  -15.8292   21.3707 C   0  0  0  0  0  0
  -28.5030  -15.9799   22.9456 C   0  0  0  0  0  0
  -29.5552  -12.7646   22.6337 C   0  0  0  0  0  0
  -28.8446  -17.9376   24.6017 C   0  0  0  0  0  0
  -26.6218  -16.6610   24.6001 C   0  0  0  0  0  0
  -31.4291  -11.0874   23.4433 C   0  0  0  0  0  0
  -32.7263  -10.5349   19.8809 C   0  0  0  0  0  0
  -28.4865  -17.8958   20.6516 C   0  0  0  0  0  0
  -28.0650  -20.1380   21.0713 C   0  0  0  0  0  0
  -30.2489  -10.4379   21.1395 C   0  0  0  0  0  0
  -27.7837  -22.3671   20.4925 C   0  0  0  0  0  0
  -27.8215  -17.1241   23.7440 C   0  0  0  0  0  0
  -30.1611  -11.2794   22.5501 C   0  0  2  0  0  0
  -31.1774  -10.7920   19.8404 C   0  0  2  0  0  0
  -29.2639  -13.4833   23.8242 N   0  0  0  0  0  0
  -30.7703  -12.0096   19.0682 N   0  0  0  0  0  0
  -32.0542  -14.3011   20.9365 H   0  0  0  0  0  0
  -31.6832  -15.7171   20.2828 H   0  0  0  0  0  0
  -30.8205  -16.0805   22.2833 H   0  0  0  0  0  0
  -31.2726  -14.5587   22.8146 H   0  0  0  0  0  0
  -26.6344  -14.7776   22.1935 H   0  0  0  0  0  0
  -27.1839  -13.2352   22.4728 H   0  0  0  0  0  0
  -27.7027  -12.5760   20.0628 H   0  0  0  0  0  0
  -28.2951  -15.0409   18.7724 H   0  0  0  0  0  0
  -28.4636  -13.4356   18.2039 H   0  0  0  0  0  0
  -25.2264   -9.5441   22.5750 H   0  0  0  0  0  0
  -23.8784   -7.4949   22.8717 H   0  0  0  0  0  0
  -21.0587   -8.8842   19.9182 H   0  0  0  0  0  0
  -22.3882  -10.9772   19.6459 H   0  0  0  0  0  0
  -21.0588   -7.6290   24.0073 H   0  0  0  0  0  0
  -21.1566   -6.0794   25.9497 H   0  0  0  0  0  0
  -22.0401   -2.8088   23.2770 H   0  0  0  0  0  0
  -22.1333  -12.1485   22.7227 H   0  0  0  0  0  0
  -20.8617  -13.2207   22.3253 H   0  0  0  0  0  0
  -24.3682  -16.0216   20.5367 H   0  0  0  0  0  0
  -25.9848  -15.7056   19.9157 H   0  0  0  0  0  0
  -26.7982  -32.4330   23.0854 H   0  0  0  0  0  0
  -25.0187  -33.9056   24.9780 H   0  0  0  0  0  0
  -22.9399  -31.0764   21.1479 H   0  0  0  0  0  0
  -23.3984  -35.9169   23.3499 H   0  0  0  0  0  0
  -24.3575  -36.8459   22.2028 H   0  0  0  0  0  0
  -23.7289  -37.6110   23.6636 H   0  0  0  0  0  0
  -26.4755  -30.7730   20.6467 H   0  0  0  0  0  0
  -27.0504  -30.3309   22.1593 H   0  0  0  0  0  0
  -28.0122  -27.6442   21.7902 H   0  0  0  0  0  0
  -25.7900  -25.1663   19.1426 H   0  0  0  0  0  0
  -24.1647  -26.9050   18.9218 H   0  0  0  0  0  0
  -24.1445  -30.1065   19.3196 H   0  0  0  0  0  0
  -23.0499  -28.9003   19.8151 H   0  0  0  0  0  0
  -25.1577  -36.1551   25.0875 H   0  0  0  0  0  0
  -21.0002  -28.3506   24.1062 H   0  0  0  0  0  0
  -20.5415  -26.2226   23.3845 H   0  0  0  0  0  0
  -21.6637  -26.7113   22.1348 H   0  0  0  0  0  0
  -19.7173  -25.6192   21.1247 H   0  0  0  0  0  0
  -19.7067  -27.3069   20.6721 H   0  0  0  0  0  0
  -17.4281  -26.6381   21.3836 H   0  0  0  0  0  0
  -18.0422  -25.9974   22.8831 H   0  0  0  0  0  0
  -19.7857  -30.6984   24.2505 H   0  0  0  0  0  0
  -17.5068  -31.6334   24.4908 H   0  0  0  0  0  0
  -15.5362  -30.3196   23.7689 H   0  0  0  0  0  0
  -15.8473  -28.0832   22.7623 H   0  0  0  0  0  0
  -24.6155  -30.6539   25.7955 H   0  0  0  0  0  0
  -24.8435  -32.3022   26.4010 H   0  0  0  0  0  0
  -25.7940  -30.9768   27.0635 H   0  0  0  0  0  0
  -26.3630  -29.5693   24.2303 H   0  0  0  0  0  0
  -27.3779  -29.7058   25.6098 H   0  0  0  0  0  0
  -27.9620  -30.3260   24.1144 H   0  0  0  0  0  0
  -27.2772  -33.3542   26.1365 H   0  0  0  0  0  0
  -28.3918  -32.5920   25.0099 H   0  0  0  0  0  0
  -28.0432  -31.8466   26.5646 H   0  0  0  0  0  0
  -28.2881  -37.9740   24.7414 H   0  0  0  0  0  0
  -28.0962  -36.2369   24.6886 H   0  0  0  0  0  0
  -27.2363  -37.1922   25.8951 H   0  0  0  0  0  0
  -20.9914  -29.8347   21.6210 H   0  0  0  0  0  0
  -26.0355  -38.2719   24.0998 H   0  0  0  0  0  0
  -29.5122  -12.6596   20.7500 H   0  0  0  0  0  0
  -28.5864  -15.0864   24.9528 H   0  0  0  0  0  0
  -29.3953  -18.7237   24.0672 H   0  0  0  0  0  0
  -29.6035  -17.2961   25.0791 H   0  0  0  0  0  0
  -28.2960  -18.4530   25.4000 H   0  0  0  0  0  0
  -26.0997  -15.8307   24.1268 H   0  0  0  0  0  0
  -25.9120  -17.5091   24.6866 H   0  0  0  0  0  0
  -26.9759  -16.3569   25.5873 H   0  0  0  0  0  0
  -31.1020  -11.2105   24.4896 H   0  0  0  0  0  0
  -32.1805  -11.8679   23.2555 H   0  0  0  0  0  0
  -31.9418  -10.1189   23.3583 H   0  0  0  0  0  0
  -32.9014   -9.4430   19.7703 H   0  0  0  0  0  0
  -33.1380  -10.9090   20.8342 H   0  0  0  0  0  0
  -33.2473  -11.0257   19.0174 H   0  0  0  0  0  0
  -28.2541  -18.0452   21.6494 H   0  0  0  0  0  0
  -27.7471  -17.7214   19.8528 H   0  0  0  0  0  0
  -28.7639  -20.2516   21.9138 H   0  0  0  0  0  0
  -27.1262  -20.0225   21.6995 H   0  0  0  0  0  0
  -29.2056  -10.3863   20.7732 H   0  0  0  0  0  0
  -30.4742   -9.3860   21.4424 H   0  0  0  0  0  0
  -26.7430  -22.4108   20.8059 H   0  0  0  0  0  0
  -27.7704  -22.2547   19.3983 H   0  0  0  0  0  0
  -27.1357  -17.7372   23.1588 H   0  0  0  0  0  0
  -29.4540  -10.6675   23.1149 H   0  0  0  0  0  0
  -30.9146   -9.9910   19.1320 H   0  0  0  0  0  0
  -29.7934  -11.9917   18.8364 H   0  0  0  0  0  0
  1 25  1  0  0  0
  1 30  2  0  0  0
  1 88  1  0  0  0
  2  3  1  0  0  0
  2 25  1  0  0  0
  2 89  1  0  0  0
  2 90  1  0  0  0
  3  4  1  0  0  0
  3 91  1  0  0  0
  3 92  1  0  0  0
  4  5  1  0  0  0
  4 93  1  0  0  0
  4 94  1  0  0  0
  5  6  1  0  0  0
  5 26  1  0  0  0
  5 95  1  0  0  0
  6 25  1  0  0  0
  6 96  1  0  0  0
  6 97  1  0  0  0
  7  8  2  0  0  0
  7 26  1  0  0  0
  7 29  1  0  0  0
  8  9  1  0  0  0
  8 22  1  0  0  0
  9 10  1  0  0  0
  9 27  2  0  0  0
 10 11  2  0  0  0
 10 15  1  0  0  0
 11 12  1  0  0  0
 11 98  1  0  0  0
 12 13  2  0  0  0
 12 99  1  0  0  0
 13 14  1  0  0  0
 13 31  1  0  0  0
 14 15  2  0  0  0
 14100  1  0  0  0
 15101  1  0  0  0
 16 17  2  0  0  0
 16 21  1  0  0  0
 16 31  1  0  0  0
 17 18  1  0  0  0
 17102  1  0  0  0
 18 19  2  0  0  0
 18103  1  0  0  0
 19 20  1  0  0  0
 19 24  1  0  0  0
 20 21  2  0  0  0
 20104  1  0  0  0
 21 23  1  0  0  0
 22 28  1  0  0  0
 22 32  2  0  0  0
 26 27  1  0  0  0
 28105  1  0  0  0
 28106  1  0  0  0
 29107  1  0  0  0
 29108  1  0  0  0
 33 34  1  0  0  0
 33 66  1  0  0  0
 33 70  2  0  0  0
 34 36  1  0  0  0
 34 59  1  0  0  0
 34109  1  0  0  0
 35 44  2  0  0  0
 35 45  1  0  0  0
 35 68  1  0  0  0
 36 56  1  0  0  0
 36110  1  0  0  0
 37 39  1  0  0  0
 37 47  1  0  0  0
 37 66  1  0  0  0
 37111  1  0  0  0
 38 43  2  0  0  0
 38 46  1  0  0  0
 38 47  1  0  0  0
 39 64  1  0  0  0
 39 67  2  0  0  0
 40 52  1  0  0  0
 40 53  2  0  0  0
 40 58  1  0  0  0
 41112  1  0  0  0
 41113  1  0  0  0
 41114  1  0  0  0
 41 48  1  0  0  0
 42 43  1  0  0  0
 42 66  1  0  0  0
 42115  1  0  0  0
 42116  1  0  0  0
 43 44  1  0  0  0
 44117  1  0  0  0
 45 46  2  0  0  0
 45118  1  0  0  0
 46119  1  0  0  0
 47120  1  0  0  0
 47121  1  0  0  0
 48 56  1  0  0  0
 48 65  1  0  0  0
 48122  1  0  0  0
 49 50  1  0  0  0
 49 53  1  0  0  0
 49 64  1  0  0  0
 49123  1  0  0  0
 50 51  1  0  0  0
 50124  1  0  0  0
 50125  1  0  0  0
 51 52  1  0  0  0
 51126  1  0  0  0
 51127  1  0  0  0
 52128  1  0  0  0
 52129  1  0  0  0
 53 54  1  0  0  0
 54 55  2  0  0  0
 54130  1  0  0  0
 55 57  1  0  0  0
 55131  1  0  0  0
 56 69  2  0  0  0
 57 58  2  0  0  0
 57132  1  0  0  0
 58133  1  0  0  0
 59 60  1  0  0  0
 59 61  1  0  0  0
 59 62  1  0  0  0
 60134  1  0  0  0
 60135  1  0  0  0
 60136  1  0  0  0
 61137  1  0  0  0
 61138  1  0  0  0
 61139  1  0  0  0
 62140  1  0  0  0
 62141  1  0  0  0
 62142  1  0  0  0
 63 65  1  0  0  0
 63143  1  0  0  0
 63144  1  0  0  0
 63145  1  0  0  0
 64146  1  0  0  0
 65147  1  0  0  0
 68 83  1  0  0  0
 71 73  2  0  0  0
 71 75  1  0  0  0
 71148  1  0  0  0
 72 74  2  0  0  0
 72 87  1  0  0  0
 72149  1  0  0  0
 73 74  1  0  0  0
 73 80  1  0  0  0
 74 84  1  0  0  0
 75 85  1  0  0  0
 75 87  2  0  0  0
 76150  1  0  0  0
 76151  1  0  0  0
 76152  1  0  0  0
 76 84  1  0  0  0
 77 84  1  0  0  0
 77153  1  0  0  0
 77154  1  0  0  0
 77155  1  0  0  0
 78156  1  0  0  0
 78157  1  0  0  0
 78158  1  0  0  0
 78 85  1  0  0  0
 79159  1  0  0  0
 79160  1  0  0  0
 79161  1  0  0  0
 79 86  1  0  0  0
 80 81  1  0  0  0
 80162  1  0  0  0
 80163  1  0  0  0
 81 83  1  0  0  0
 81164  1  0  0  0
 81165  1  0  0  0
 82 85  1  0  0  0
 82 86  1  0  0  0
 82166  1  0  0  0
 82167  1  0  0  0
 83168  1  0  0  0
 83169  1  0  0  0
 84170  1  0  0  0
 85171  1  0  0  0
 86 88  1  0  0  0
 86172  1  0  0  0
 88173  1  0  0  0
M  ISO  4   1 100  68 101  83 101  88 100
M  END
> <chiral flag>
0

> <version>
0

> <s_m_source_file>
/data/baiqing/PycharmProjects/Reinvent-master-3.2/result/LINK_invent/BTK/process_docking_weight1_custom_sum_contain_oxygen_bond_distance_aromatic_linkinvent_7_9_3/rearranged_h_0086.sdf

> <i_m_source_file_index>
13

> <r_mmod_Potential_Energy-OPLS-2005>
21015.59375

> <r_mmod_Stretch_Energy-OPLS-2005>
9370.697265625

> <r_mmod_Bend_Energy-OPLS-2005>
1810.17138671875

> <r_mmod_Torsional_Energy-OPLS-2005>
389.98046875

> <r_mmod_Improper_Torsional_Energy-OPLS-2005>
21.6438026428223

> <r_mmod_Van_der_Waal_Energy-OPLS-2005>
2862.498046875

> <r_mmod_Electrostatic_Energy-OPLS-2005>
-486.571868896484

> <r_mmod_Solvation_Energy-OPLS-2005>
-226.559463500977

> <b_mmod_Minimization_Converged-OPLS-2005>
0

> <r_mmod_RMS_Derivative-OPLS-2005>
62.033447265625

$$$$
13
                    3D
 Structure written by MMmdl.
167175  0  0  1  0            999 V2000
  -30.6150  -14.6297   20.5228 C   0  0  0  0  0  0
  -30.4348  -12.3859   19.4636 C   0  0  0  0  0  0
  -29.5069  -12.5258   18.2341 C   0  0  0  0  0  0
  -28.0299  -12.3617   18.6447 C   0  0  0  0  0  0
  -27.6568  -13.2177   19.8840 C   0  0  2  0  0  0
  -28.7009  -13.0462   21.0133 C   0  0  0  0  0  0
  -25.2536  -13.8183   20.5744 C   0  0  0  0  0  0
  -24.1817  -13.0436   20.9220 C   0  0  0  0  0  0
  -24.6403  -11.6922   20.8791 C   0  0  0  0  0  0
  -23.9090  -10.4294   21.0455 C   0  0  0  0  0  0
  -24.3639   -9.4213   21.9226 C   0  0  0  0  0  0
  -23.6325   -8.2244   22.0787 C   0  0  0  0  0  0
  -22.4298   -8.0295   21.3580 C   0  0  0  0  0  0
  -21.9944   -9.0263   20.4658 C   0  0  0  0  0  0
  -22.7282  -10.2138   20.3085 C   0  0  0  0  0  0
  -21.6847   -6.0764   22.5307 C   0  0  0  0  0  0
  -21.3997   -6.5666   23.8237 C   0  0  0  0  0  0
  -21.3660   -5.6818   24.9205 C   0  0  0  0  0  0
  -21.6040   -4.3070   24.7244 C   0  0  0  0  0  0
  -21.8820   -3.8173   23.4364 C   0  0  0  0  0  0
  -21.9178   -4.6988   22.3420 C   0  0  0  0  0  0
  -22.7817  -13.5203   21.1857 C   0  0  0  0  0  0
  -22.1646   -4.2176   21.0995 F   0  0  0  0  0  0
  -21.5643   -3.4566   25.7750 F   0  0  0  0  0  0
  -30.0216  -13.3934   20.4606 N   0  0  0  0  0  0
  -26.3003  -12.9378   20.3456 N   0  0  0  0  0  0
  -25.9339  -11.6524   20.5853 N   0  0  0  0  0  0
  -22.0461  -12.8178   22.0403 N   0  0  0  0  0  0
  -25.4140  -15.1929   20.4148 N   0  0  0  0  0  0
  -31.7398  -14.8267   20.0529 O   0  0  0  0  0  0
  -21.6650   -6.8908   21.4262 O   0  0  0  0  0  0
  -22.3473  -14.5502   20.6694 O   0  0  0  0  0  0
  -24.6237  -31.8618   23.2009 C   0  0  0  0  0  0
  -25.9100  -32.4787   23.8336 C   0  0  1  0  0  0
  -27.2277  -27.3356   20.1348 C   0  0  0  0  0  0
  -25.5926  -33.8583   24.2271 N   0  0  0  0  0  0
  -23.4167  -30.4849   21.5413 C   0  0  2  0  0  0
  -24.8667  -28.9402   20.1118 C   0  0  0  0  0  0
  -22.7469  -29.4630   22.4914 C   0  0  0  0  0  0
  -18.0293  -28.1378   22.8494 C   0  0  0  0  0  0
  -24.1487  -36.7290   23.2642 C   0  0  0  0  0  0
  -25.9559  -30.8024   21.3677 C   0  0  0  0  0  0
  -26.0325  -29.4298   20.7154 C   0  0  0  0  0  0
  -27.2171  -28.6394   20.7137 C   0  0  0  0  0  0
  -26.0437  -26.8940   19.5038 C   0  0  0  0  0  0
  -24.8731  -27.6775   19.4957 C   0  0  0  0  0  0
  -23.6332  -29.8182   20.1569 C   0  0  0  0  0  0
  -25.4116  -36.3085   24.0324 C   0  0  1  0  0  0
  -20.5890  -28.3678   23.1282 C   0  0  2  0  0  0
  -20.6779  -26.9402   22.5405 C   0  0  0  0  0  0
  -19.5751  -26.6380   21.5214 C   0  0  0  0  0  0
  -18.1928  -26.7925   22.1625 C   0  0  0  0  0  0
  -19.1547  -28.8840   23.2883 C   0  0  0  0  0  0
  -18.9473  -30.1446   23.8896 C   0  0  0  0  0  0
  -17.6470  -30.6579   24.0560 C   0  0  0  0  0  0
  -25.9048  -34.9460   23.5096 C   0  0  0  0  0  0
  -16.5358  -29.9076   23.6338 C   0  0  0  0  0  0
  -16.7276  -28.6500   23.0343 C   0  0  0  0  0  0
  -26.4482  -31.6593   25.0707 C   0  0  0  0  0  0
  -25.3720  -31.3708   26.1429 C   0  0  0  0  0  0
  -27.0351  -30.3041   24.6129 C   0  0  0  0  0  0
  -27.5999  -32.4358   25.7512 C   0  0  0  0  0  0
  -27.5575  -37.1814   24.8460 C   0  0  0  0  0  0
  -21.4184  -29.3044   22.3673 N   0  0  0  0  0  0
  -26.4288  -37.3787   23.9407 N   0  0  0  0  0  0
  -24.6838  -31.0654   22.0937 N   0  0  0  0  0  0
  -23.4211  -28.8184   23.2987 O   0  0  0  0  0  0
  -28.3587  -26.5146   20.1588 O   0  0  0  0  0  0
  -26.5610  -34.8920   22.4657 O   0  0  0  0  0  0
  -23.5401  -32.1407   23.7353 O   0  0  0  0  0  0
  -30.4073  -22.2642   21.4161 C   0  0  0  0  0  0
  -30.6956  -20.9049   21.7143 C   0  0  0  0  0  0
  -30.0063  -19.8252   21.0339 C   0  0  0  0  0  0
  -29.4308  -22.6263   20.4780 C   0  0  0  0  0  0
  -28.9727  -20.3153   20.1492 C   0  0  0  0  0  0
  -31.7698  -20.7565   22.7961 C   0  0  0  0  0  0
  -28.0461  -19.4350   19.3322 C   0  0  0  0  0  0
  -29.2904  -24.1281   18.4158 C   0  0  0  0  0  0
  -30.2075  -17.9396   22.7903 C   0  0  0  0  0  0
  -31.8750  -18.0721   20.8337 C   0  0  0  0  0  0
  -29.6587  -17.0881   20.5079 C   0  0  0  0  0  0
  -28.2034  -25.0867   20.5296 C   0  0  0  0  0  0
  -29.3087  -24.1092   19.9541 C   0  0  1  0  0  0
  -30.4064  -18.2761   21.2873 C   0  0  0  0  0  0
  -28.7016  -21.6386   19.9098 N   0  0  0  0  0  0
  -29.8095  -15.6482   20.9482 N   0  0  0  0  0  0
  -31.4814  -12.5001   19.1737 H   0  0  0  0  0  0
  -30.3546  -11.3821   19.8853 H   0  0  0  0  0  0
  -29.7689  -11.7852   17.4779 H   0  0  0  0  0  0
  -29.6507  -13.5020   17.7701 H   0  0  0  0  0  0
  -27.8636  -11.3053   18.8607 H   0  0  0  0  0  0
  -27.3735  -12.6056   17.8086 H   0  0  0  0  0  0
  -27.6819  -14.2597   19.5650 H   0  0  0  0  0  0
  -28.7090  -12.0174   21.3737 H   0  0  0  0  0  0
  -28.4448  -13.6534   21.8832 H   0  0  0  0  0  0
  -25.2797   -9.5675   22.4788 H   0  0  0  0  0  0
  -24.0032   -7.4614   22.7489 H   0  0  0  0  0  0
  -21.0891   -8.8775   19.8929 H   0  0  0  0  0  0
  -22.3776  -10.9668   19.6166 H   0  0  0  0  0  0
  -21.1985   -7.6162   23.9751 H   0  0  0  0  0  0
  -21.1474   -6.0547   25.9103 H   0  0  0  0  0  0
  -22.0584   -2.7631   23.2864 H   0  0  0  0  0  0
  -22.4086  -11.9834   22.4760 H   0  0  0  0  0  0
  -21.1070  -13.1182   22.2603 H   0  0  0  0  0  0
  -24.6302  -15.8328   20.5018 H   0  0  0  0  0  0
  -26.2555  -15.6430   20.0796 H   0  0  0  0  0  0
  -26.7174  -32.5477   23.1089 H   0  0  0  0  0  0
  -25.0089  -33.9722   25.0425 H   0  0  0  0  0  0
  -22.7094  -31.3037   21.3946 H   0  0  0  0  0  0
  -23.3758  -35.9612   23.3280 H   0  0  0  0  0  0
  -24.3598  -36.8947   22.2066 H   0  0  0  0  0  0
  -23.7223  -37.6477   23.6679 H   0  0  0  0  0  0
  -26.0807  -31.5660   20.5985 H   0  0  0  0  0  0
  -26.8387  -30.8544   21.9939 H   0  0  0  0  0  0
  -28.1130  -29.0149   21.1886 H   0  0  0  0  0  0
  -26.0121  -25.9334   19.0114 H   0  0  0  0  0  0
  -23.9822  -27.2989   19.0158 H   0  0  0  0  0  0
  -23.7520  -30.5940   19.3988 H   0  0  0  0  0  0
  -22.7561  -29.2433   19.8544 H   0  0  0  0  0  0
  -25.1302  -36.1928   25.0819 H   0  0  0  0  0  0
  -20.9985  -28.3239   24.1400 H   0  0  0  0  0  0
  -20.5713  -26.2273   23.3595 H   0  0  0  0  0  0
  -21.6634  -26.7450   22.1166 H   0  0  0  0  0  0
  -19.6902  -25.6298   21.1227 H   0  0  0  0  0  0
  -19.6677  -27.3210   20.6757 H   0  0  0  0  0  0
  -17.4201  -26.6696   21.4010 H   0  0  0  0  0  0
  -18.0303  -26.0059   22.9012 H   0  0  0  0  0  0
  -19.7947  -30.7271   24.2248 H   0  0  0  0  0  0
  -17.5025  -31.6265   24.5149 H   0  0  0  0  0  0
  -15.5359  -30.2973   23.7658 H   0  0  0  0  0  0
  -15.8683  -28.0827   22.7030 H   0  0  0  0  0  0
  -24.5840  -30.7132   25.7738 H   0  0  0  0  0  0
  -24.8972  -32.2873   26.4940 H   0  0  0  0  0  0
  -25.8044  -30.8797   27.0154 H   0  0  0  0  0  0
  -26.2935  -29.6787   24.1142 H   0  0  0  0  0  0
  -27.4084  -29.7291   25.4613 H   0  0  0  0  0  0
  -27.8767  -30.4373   23.9328 H   0  0  0  0  0  0
  -27.2539  -33.3629   26.2092 H   0  0  0  0  0  0
  -28.3808  -32.6989   25.0368 H   0  0  0  0  0  0
  -28.0652  -31.8499   26.5445 H   0  0  0  0  0  0
  -28.2558  -38.0143   24.7550 H   0  0  0  0  0  0
  -28.1102  -36.2676   24.6231 H   0  0  0  0  0  0
  -27.2291  -37.1394   25.8861 H   0  0  0  0  0  0
  -20.9345  -29.8786   21.6919 H   0  0  0  0  0  0
  -26.0153  -38.2855   24.1431 H   0  0  0  0  0  0
  -30.9803  -23.0494   21.8913 H   0  0  0  0  0  0
  -32.5241  -21.5360   22.6779 H   0  0  0  0  0  0
  -32.3208  -19.8242   22.8330 H   0  0  0  0  0  0
  -31.3182  -20.8949   23.7792 H   0  0  0  0  0  0
  -27.3876  -18.8550   19.9743 H   0  0  0  0  0  0
  -28.6035  -18.7828   18.6651 H   0  0  0  0  0  0
  -27.3949  -20.0342   18.6945 H   0  0  0  0  0  0
  -30.1165  -23.5421   18.0105 H   0  0  0  0  0  0
  -29.3885  -25.1443   18.0354 H   0  0  0  0  0  0
  -28.3574  -23.7134   18.0275 H   0  0  0  0  0  0
  -30.5028  -16.9180   23.0286 H   0  0  0  0  0  0
  -29.1591  -18.0477   23.0694 H   0  0  0  0  0  0
  -30.7657  -18.5558   23.4861 H   0  0  0  0  0  0
  -32.5664  -18.8701   21.0789 H   0  0  0  0  0  0
  -31.9331  -18.0057   19.7468 H   0  0  0  0  0  0
  -32.2952  -17.1502   21.2364 H   0  0  0  0  0  0
  -29.8518  -17.1311   19.4359 H   0  0  0  0  0  0
  -28.5878  -17.2307   20.6225 H   0  0  0  0  0  0
  -28.2532  -25.0478   21.6186 H   0  0  0  0  0  0
  -27.2234  -24.6861   20.2771 H   0  0  0  0  0  0
  -30.2588  -24.5668   20.2323 H   0  0  0  0  0  0
  -28.9785  -15.2950   21.3993 H   0  0  0  0  0  0
  1 25  1  0  0  0
  1 30  2  0  0  0
  1 86  1  0  0  0
  2  3  1  0  0  0
  2 25  1  0  0  0
  2 87  1  0  0  0
  2 88  1  0  0  0
  3  4  1  0  0  0
  3 89  1  0  0  0
  3 90  1  0  0  0
  4  5  1  0  0  0
  4 91  1  0  0  0
  4 92  1  0  0  0
  5  6  1  0  0  0
  5 26  1  0  0  0
  5 93  1  0  0  0
  6 25  1  0  0  0
  6 94  1  0  0  0
  6 95  1  0  0  0
  7  8  2  0  0  0
  7 26  1  0  0  0
  7 29  1  0  0  0
  8  9  1  0  0  0
  8 22  1  0  0  0
  9 10  1  0  0  0
  9 27  2  0  0  0
 10 11  2  0  0  0
 10 15  1  0  0  0
 11 12  1  0  0  0
 11 96  1  0  0  0
 12 13  2  0  0  0
 12 97  1  0  0  0
 13 14  1  0  0  0
 13 31  1  0  0  0
 14 15  2  0  0  0
 14 98  1  0  0  0
 15 99  1  0  0  0
 16 17  2  0  0  0
 16 21  1  0  0  0
 16 31  1  0  0  0
 17 18  1  0  0  0
 17100  1  0  0  0
 18 19  2  0  0  0
 18101  1  0  0  0
 19 20  1  0  0  0
 19 24  1  0  0  0
 20 21  2  0  0  0
 20102  1  0  0  0
 21 23  1  0  0  0
 22 28  1  0  0  0
 22 32  2  0  0  0
 26 27  1  0  0  0
 28103  1  0  0  0
 28104  1  0  0  0
 29105  1  0  0  0
 29106  1  0  0  0
 33 34  1  0  0  0
 33 66  1  0  0  0
 33 70  2  0  0  0
 34 36  1  0  0  0
 34 59  1  0  0  0
 34107  1  0  0  0
 35 44  2  0  0  0
 35 45  1  0  0  0
 35 68  1  0  0  0
 36 56  1  0  0  0
 36108  1  0  0  0
 37 39  1  0  0  0
 37 47  1  0  0  0
 37 66  1  0  0  0
 37109  1  0  0  0
 38 43  2  0  0  0
 38 46  1  0  0  0
 38 47  1  0  0  0
 39 64  1  0  0  0
 39 67  2  0  0  0
 40 52  1  0  0  0
 40 53  2  0  0  0
 40 58  1  0  0  0
 41110  1  0  0  0
 41111  1  0  0  0
 41112  1  0  0  0
 41 48  1  0  0  0
 42 43  1  0  0  0
 42 66  1  0  0  0
 42113  1  0  0  0
 42114  1  0  0  0
 43 44  1  0  0  0
 44115  1  0  0  0
 45 46  2  0  0  0
 45116  1  0  0  0
 46117  1  0  0  0
 47118  1  0  0  0
 47119  1  0  0  0
 48 56  1  0  0  0
 48 65  1  0  0  0
 48120  1  0  0  0
 49 50  1  0  0  0
 49 53  1  0  0  0
 49 64  1  0  0  0
 49121  1  0  0  0
 50 51  1  0  0  0
 50122  1  0  0  0
 50123  1  0  0  0
 51 52  1  0  0  0
 51124  1  0  0  0
 51125  1  0  0  0
 52126  1  0  0  0
 52127  1  0  0  0
 53 54  1  0  0  0
 54 55  2  0  0  0
 54128  1  0  0  0
 55 57  1  0  0  0
 55129  1  0  0  0
 56 69  2  0  0  0
 57 58  2  0  0  0
 57130  1  0  0  0
 58131  1  0  0  0
 59 60  1  0  0  0
 59 61  1  0  0  0
 59 62  1  0  0  0
 60132  1  0  0  0
 60133  1  0  0  0
 60134  1  0  0  0
 61135  1  0  0  0
 61136  1  0  0  0
 61137  1  0  0  0
 62138  1  0  0  0
 62139  1  0  0  0
 62140  1  0  0  0
 63 65  1  0  0  0
 63141  1  0  0  0
 63142  1  0  0  0
 63143  1  0  0  0
 64144  1  0  0  0
 65145  1  0  0  0
 68 82  1  0  0  0
 71 72  2  0  0  0
 71 74  1  0  0  0
 71146  1  0  0  0
 72 73  1  0  0  0
 72 76  1  0  0  0
 73 75  2  0  0  0
 73 84  1  0  0  0
 74 83  1  0  0  0
 74 85  2  0  0  0
 75 77  1  0  0  0
 75 85  1  0  0  0
 76147  1  0  0  0
 76148  1  0  0  0
 76149  1  0  0  0
 77150  1  0  0  0
 77151  1  0  0  0
 77152  1  0  0  0
 78153  1  0  0  0
 78154  1  0  0  0
 78155  1  0  0  0
 78 83  1  0  0  0
 79156  1  0  0  0
 79157  1  0  0  0
 79158  1  0  0  0
 79 84  1  0  0  0
 80 84  1  0  0  0
 80159  1  0  0  0
 80160  1  0  0  0
 80161  1  0  0  0
 81 84  1  0  0  0
 81 86  1  0  0  0
 81162  1  0  0  0
 81163  1  0  0  0
 82 83  1  0  0  0
 82164  1  0  0  0
 82165  1  0  0  0
 83166  1  0  0  0
 86167  1  0  0  0
M  ISO  4   1 100  68 101  82 101  86 100
M  END
> <chiral flag>
0

> <version>
0

> <s_m_source_file>
/data/baiqing/PycharmProjects/Reinvent-master-3.2/result/LINK_invent/BTK/process_docking_weight1_custom_sum_contain_oxygen_bond_distance_aromatic_linkinvent_7_9_3/rearranged_h_0086.sdf

> <i_m_source_file_index>
14

> <r_mmod_Potential_Energy-OPLS-2005>
-70.8862762451172

> <r_mmod_Stretch_Energy-OPLS-2005>
98.355339050293

> <r_mmod_Bend_Energy-OPLS-2005>
188.625854492188

> <r_mmod_Torsional_Energy-OPLS-2005>
234.985260009766

> <r_mmod_Improper_Torsional_Energy-OPLS-2005>
6.71466016769409

> <r_mmod_Van_der_Waal_Energy-OPLS-2005>
165.358383178711

> <r_mmod_Electrostatic_Energy-OPLS-2005>
-593.800354003906

> <r_mmod_Solvation_Energy-OPLS-2005>
-213.061614990234

> <b_mmod_Minimization_Converged-OPLS-2005>
0

> <r_mmod_RMS_Derivative-OPLS-2005>
2.96030735969543

$$$$
14
                    3D
 Structure written by MMmdl.
174182  0  0  1  0            999 V2000
  -30.7258  -14.4327   20.6471 C   0  0  0  0  0  0
  -30.4177  -12.3211   19.3988 C   0  0  0  0  0  0
  -29.4903  -12.5398   18.1897 C   0  0  0  0  0  0
  -28.0131  -12.3830   18.6017 C   0  0  0  0  0  0
  -27.6605  -13.2071   19.8696 C   0  0  2  0  0  0
  -28.6964  -12.9685   20.9864 C   0  0  0  0  0  0
  -25.2563  -13.8166   20.5668 C   0  0  0  0  0  0
  -24.1815  -13.0440   20.9158 C   0  0  0  0  0  0
  -24.6357  -11.6903   20.8675 C   0  0  0  0  0  0
  -23.9026  -10.4299   21.0380 C   0  0  0  0  0  0
  -24.3591   -9.4224   21.9156 C   0  0  0  0  0  0
  -23.6294   -8.2244   22.0725 C   0  0  0  0  0  0
  -22.4280   -8.0261   21.3522 C   0  0  0  0  0  0
  -21.9901   -9.0225   20.4632 C   0  0  0  0  0  0
  -22.7197  -10.2116   20.3034 C   0  0  0  0  0  0
  -21.6865   -6.0719   22.5287 C   0  0  0  0  0  0
  -21.4013   -6.5626   23.8217 C   0  0  0  0  0  0
  -21.3655   -5.6773   24.9178 C   0  0  0  0  0  0
  -21.6043   -4.3041   24.7226 C   0  0  0  0  0  0
  -21.8816   -3.8124   23.4355 C   0  0  0  0  0  0
  -21.9196   -4.6943   22.3405 C   0  0  0  0  0  0
  -22.7842  -13.5254   21.1831 C   0  0  0  0  0  0
  -22.1675   -4.2121   21.0986 F   0  0  0  0  0  0
  -21.5634   -3.4526   25.7745 F   0  0  0  0  0  0
  -30.0327  -13.2800   20.4449 N   0  0  0  0  0  0
  -26.2996  -12.9327   20.3294 N   0  0  0  0  0  0
  -25.9271  -11.6479   20.5650 N   0  0  0  0  0  0
  -22.0467  -12.8245   22.0377 N   0  0  0  0  0  0
  -25.4302  -15.1886   20.4144 N   0  0  0  0  0  0
  -31.8101  -14.6679   20.0986 O   0  0  0  0  0  0
  -21.6642   -6.8856   21.4248 O   0  0  0  0  0  0
  -22.3551  -14.5568   20.6676 O   0  0  0  0  0  0
  -24.6178  -31.8685   23.2121 C   0  0  0  0  0  0
  -25.9080  -32.4822   23.8381 C   0  0  1  0  0  0
  -27.2196  -27.4259   20.0768 C   0  0  0  0  0  0
  -25.5947  -33.8622   24.2310 N   0  0  0  0  0  0
  -23.4013  -30.4961   21.5548 C   0  0  2  0  0  0
  -24.8384  -28.9629   20.1109 C   0  0  0  0  0  0
  -22.7402  -29.4678   22.5006 C   0  0  0  0  0  0
  -18.0270  -28.1388   22.8502 C   0  0  0  0  0  0
  -24.1480  -36.7302   23.2631 C   0  0  0  0  0  0
  -25.9300  -30.8297   21.3657 C   0  0  0  0  0  0
  -26.0008  -29.4649   20.7078 C   0  0  0  0  0  0
  -27.1911  -28.7013   20.6905 C   0  0  0  0  0  0
  -26.0295  -26.9333   19.4934 C   0  0  0  0  0  0
  -24.8469  -27.6954   19.5050 C   0  0  0  0  0  0
  -23.6038  -29.8325   20.1663 C   0  0  0  0  0  0
  -25.4112  -36.3113   24.0320 C   0  0  1  0  0  0
  -20.5865  -28.3670   23.1345 C   0  0  2  0  0  0
  -20.6780  -26.9408   22.5433 C   0  0  0  0  0  0
  -19.5752  -26.6392   21.5231 C   0  0  0  0  0  0
  -18.1921  -26.7938   22.1627 C   0  0  0  0  0  0
  -19.1522  -28.8845   23.2924 C   0  0  0  0  0  0
  -18.9438  -30.1456   23.8921 C   0  0  0  0  0  0
  -17.6442  -30.6594   24.0574 C   0  0  0  0  0  0
  -25.9036  -34.9478   23.5101 C   0  0  0  0  0  0
  -16.5332  -29.9093   23.6331 C   0  0  0  0  0  0
  -16.7263  -28.6517   23.0343 C   0  0  0  0  0  0
  -26.4480  -31.6632   25.0736 C   0  0  0  0  0  0
  -25.3737  -31.3793   26.1490 C   0  0  0  0  0  0
  -27.0316  -30.3074   24.6136 C   0  0  0  0  0  0
  -27.6034  -32.4370   25.7515 C   0  0  0  0  0  0
  -27.5578  -37.1813   24.8446 C   0  0  0  0  0  0
  -21.4137  -29.3047   22.3747 N   0  0  0  0  0  0
  -26.4287  -37.3810   23.9398 N   0  0  0  0  0  0
  -24.6683  -31.0767   22.1030 N   0  0  0  0  0  0
  -23.4185  -28.8216   23.3032 O   0  0  0  0  0  0
  -28.4108  -26.7247   20.0744 O   0  0  0  0  0  0
  -26.5548  -34.8935   22.4623 O   0  0  0  0  0  0
  -23.5379  -32.1434   23.7532 O   0  0  0  0  0  0
  -31.0192  -23.0483   20.2828 C   0  0  0  0  0  0
  -32.2150  -22.5585   20.8220 C   0  0  0  0  0  0
  -29.9162  -20.9873   20.9001 C   0  0  0  0  0  0
  -29.8472  -22.2838   20.3378 C   0  0  0  0  0  0
  -32.3094  -21.2842   21.4404 C   0  0  0  0  0  0
  -31.1278  -20.4594   21.4283 C   0  0  0  0  0  0
  -30.3930  -17.8736   19.8640 C   0  0  0  0  0  0
  -34.6336  -22.1089   22.2518 C   0  0  0  0  0  0
  -34.4296  -19.8790   21.2070 C   0  0  0  0  0  0
  -33.5067  -20.3746   23.5534 C   0  0  0  0  0  0
  -28.5455  -22.8660   19.7797 C   0  0  0  0  0  0
  -31.1034  -19.0479   22.0489 C   0  0  0  0  0  0
  -28.1657  -24.2605   20.3492 C   0  0  0  0  0  0
  -30.7738  -16.5385   22.0108 C   0  0  0  0  0  0
  -28.5154  -25.4509   19.4182 C   0  0  0  0  0  0
  -30.2894  -17.8890   21.3971 C   0  0  2  0  0  0
  -33.6754  -20.8932   22.0997 C   0  0  0  0  0  0
  -30.1502  -15.3192   21.4737 N   0  0  0  0  0  0
  -31.4610  -12.4277   19.0987 H   0  0  0  0  0  0
  -30.3242  -11.2995   19.7705 H   0  0  0  0  0  0
  -29.7433  -11.8345   17.3970 H   0  0  0  0  0  0
  -29.6432  -13.5343   17.7695 H   0  0  0  0  0  0
  -27.8338  -11.3243   18.7849 H   0  0  0  0  0  0
  -27.3568  -12.6665   17.7788 H   0  0  0  0  0  0
  -27.7125  -14.2612   19.5915 H   0  0  0  0  0  0
  -28.6657  -11.9286   21.3162 H   0  0  0  0  0  0
  -28.4360  -13.5529   21.8689 H   0  0  0  0  0  0
  -25.2746   -9.5723   22.4710 H   0  0  0  0  0  0
  -24.0006   -7.4658   22.7450 H   0  0  0  0  0  0
  -21.0825   -8.8734   19.8964 H   0  0  0  0  0  0
  -22.3650  -10.9628   19.6126 H   0  0  0  0  0  0
  -21.2004   -7.6138   23.9712 H   0  0  0  0  0  0
  -21.1489   -6.0509   25.9078 H   0  0  0  0  0  0
  -22.0602   -2.7584   23.2858 H   0  0  0  0  0  0
  -22.4080  -11.9943   22.4843 H   0  0  0  0  0  0
  -21.1056  -13.1233   22.2517 H   0  0  0  0  0  0
  -24.6663  -15.8456   20.5328 H   0  0  0  0  0  0
  -26.2907  -15.6272   20.1126 H   0  0  0  0  0  0
  -26.7146  -32.5524   23.1140 H   0  0  0  0  0  0
  -25.0236  -33.9750   25.0548 H   0  0  0  0  0  0
  -22.6941  -31.3173   21.4216 H   0  0  0  0  0  0
  -23.3760  -35.9615   23.3295 H   0  0  0  0  0  0
  -24.3586  -36.8917   22.2050 H   0  0  0  0  0  0
  -23.7194  -37.6489   23.6637 H   0  0  0  0  0  0
  -26.0352  -31.6014   20.6024 H   0  0  0  0  0  0
  -26.8232  -30.8833   21.9772 H   0  0  0  0  0  0
  -28.0925  -29.0829   21.1494 H   0  0  0  0  0  0
  -25.9800  -25.9604   19.0280 H   0  0  0  0  0  0
  -23.9490  -27.2994   19.0505 H   0  0  0  0  0  0
  -23.7102  -30.6099   19.4095 H   0  0  0  0  0  0
  -22.7250  -29.2574   19.8695 H   0  0  0  0  0  0
  -25.1295  -36.1970   25.0812 H   0  0  0  0  0  0
  -20.9968  -28.3231   24.1463 H   0  0  0  0  0  0
  -20.5741  -26.2248   23.3608 H   0  0  0  0  0  0
  -21.6639  -26.7501   22.1181 H   0  0  0  0  0  0
  -19.6917  -25.6310   21.1237 H   0  0  0  0  0  0
  -19.6709  -27.3228   20.6785 H   0  0  0  0  0  0
  -17.4213  -26.6728   21.4000 H   0  0  0  0  0  0
  -18.0292  -26.0067   22.9010 H   0  0  0  0  0  0
  -19.7916  -30.7269   24.2294 H   0  0  0  0  0  0
  -17.4994  -31.6272   24.5180 H   0  0  0  0  0  0
  -15.5332  -30.2997   23.7646 H   0  0  0  0  0  0
  -15.8664  -28.0851   22.7028 H   0  0  0  0  0  0
  -24.5866  -30.7175   25.7857 H   0  0  0  0  0  0
  -24.8984  -32.2994   26.4917 H   0  0  0  0  0  0
  -25.8093  -30.8981   27.0261 H   0  0  0  0  0  0
  -26.2886  -29.6863   24.1131 H   0  0  0  0  0  0
  -27.4016  -29.7294   25.4615 H   0  0  0  0  0  0
  -27.8743  -30.4388   23.9342 H   0  0  0  0  0  0
  -27.2612  -33.3663   26.2086 H   0  0  0  0  0  0
  -28.3864  -32.6962   25.0372 H   0  0  0  0  0  0
  -28.0673  -31.8509   26.5454 H   0  0  0  0  0  0
  -28.2587  -38.0126   24.7538 H   0  0  0  0  0  0
  -28.1084  -36.2658   24.6231 H   0  0  0  0  0  0
  -27.2289  -37.1426   25.8846 H   0  0  0  0  0  0
  -20.9274  -29.8778   21.6995 H   0  0  0  0  0  0
  -26.0178  -38.2873   24.1458 H   0  0  0  0  0  0
  -31.0221  -24.0298   19.8386 H   0  0  0  0  0  0
  -33.0524  -23.2334   20.7513 H   0  0  0  0  0  0
  -29.0194  -20.3811   20.9265 H   0  0  0  0  0  0
  -30.0416  -18.8044   19.4250 H   0  0  0  0  0  0
  -29.7936  -17.0768   19.4257 H   0  0  0  0  0  0
  -31.4268  -17.7302   19.5522 H   0  0  0  0  0  0
  -34.9677  -22.4997   21.2900 H   0  0  0  0  0  0
  -35.5464  -21.8560   22.7942 H   0  0  0  0  0  0
  -34.1640  -22.9250   22.8035 H   0  0  0  0  0  0
  -34.6341  -20.3088   20.2247 H   0  0  0  0  0  0
  -33.8939  -18.9521   21.0231 H   0  0  0  0  0  0
  -35.3901  -19.6052   21.6438 H   0  0  0  0  0  0
  -32.8284  -21.0199   24.1140 H   0  0  0  0  0  0
  -34.4577  -20.3588   24.0875 H   0  0  0  0  0  0
  -33.1329  -19.3613   23.6524 H   0  0  0  0  0  0
  -27.7358  -22.1648   19.9902 H   0  0  0  0  0  0
  -28.6145  -22.9141   18.6918 H   0  0  0  0  0  0
  -30.8180  -19.1506   23.0961 H   0  0  0  0  0  0
  -32.1159  -18.6734   22.0360 H   0  0  0  0  0  0
  -28.6083  -24.3975   21.3372 H   0  0  0  0  0  0
  -27.0889  -24.2733   20.5156 H   0  0  0  0  0  0
  -30.5852  -16.5487   23.0852 H   0  0  0  0  0  0
  -31.8582  -16.4609   21.9106 H   0  0  0  0  0  0
  -27.9598  -25.4063   18.4815 H   0  0  0  0  0  0
  -29.5523  -25.3708   19.1036 H   0  0  0  0  0  0
  -29.2387  -18.0259   21.6541 H   0  0  0  0  0  0
  -29.2529  -15.0513   21.8528 H   0  0  0  0  0  0
  1 25  1  0  0  0
  1 30  2  0  0  0
  1 88  1  0  0  0
  2  3  1  0  0  0
  2 25  1  0  0  0
  2 89  1  0  0  0
  2 90  1  0  0  0
  3  4  1  0  0  0
  3 91  1  0  0  0
  3 92  1  0  0  0
  4  5  1  0  0  0
  4 93  1  0  0  0
  4 94  1  0  0  0
  5  6  1  0  0  0
  5 26  1  0  0  0
  5 95  1  0  0  0
  6 25  1  0  0  0
  6 96  1  0  0  0
  6 97  1  0  0  0
  7  8  2  0  0  0
  7 26  1  0  0  0
  7 29  1  0  0  0
  8  9  1  0  0  0
  8 22  1  0  0  0
  9 10  1  0  0  0
  9 27  2  0  0  0
 10 11  2  0  0  0
 10 15  1  0  0  0
 11 12  1  0  0  0
 11 98  1  0  0  0
 12 13  2  0  0  0
 12 99  1  0  0  0
 13 14  1  0  0  0
 13 31  1  0  0  0
 14 15  2  0  0  0
 14100  1  0  0  0
 15101  1  0  0  0
 16 17  2  0  0  0
 16 21  1  0  0  0
 16 31  1  0  0  0
 17 18  1  0  0  0
 17102  1  0  0  0
 18 19  2  0  0  0
 18103  1  0  0  0
 19 20  1  0  0  0
 19 24  1  0  0  0
 20 21  2  0  0  0
 20104  1  0  0  0
 21 23  1  0  0  0
 22 28  1  0  0  0
 22 32  2  0  0  0
 26 27  1  0  0  0
 28105  1  0  0  0
 28106  1  0  0  0
 29107  1  0  0  0
 29108  1  0  0  0
 33 34  1  0  0  0
 33 66  1  0  0  0
 33 70  2  0  0  0
 34 36  1  0  0  0
 34 59  1  0  0  0
 34109  1  0  0  0
 35 44  2  0  0  0
 35 45  1  0  0  0
 35 68  1  0  0  0
 36 56  1  0  0  0
 36110  1  0  0  0
 37 39  1  0  0  0
 37 47  1  0  0  0
 37 66  1  0  0  0
 37111  1  0  0  0
 38 43  2  0  0  0
 38 46  1  0  0  0
 38 47  1  0  0  0
 39 64  1  0  0  0
 39 67  2  0  0  0
 40 52  1  0  0  0
 40 53  2  0  0  0
 40 58  1  0  0  0
 41112  1  0  0  0
 41113  1  0  0  0
 41114  1  0  0  0
 41 48  1  0  0  0
 42 43  1  0  0  0
 42 66  1  0  0  0
 42115  1  0  0  0
 42116  1  0  0  0
 43 44  1  0  0  0
 44117  1  0  0  0
 45 46  2  0  0  0
 45118  1  0  0  0
 46119  1  0  0  0
 47120  1  0  0  0
 47121  1  0  0  0
 48 56  1  0  0  0
 48 65  1  0  0  0
 48122  1  0  0  0
 49 50  1  0  0  0
 49 53  1  0  0  0
 49 64  1  0  0  0
 49123  1  0  0  0
 50 51  1  0  0  0
 50124  1  0  0  0
 50125  1  0  0  0
 51 52  1  0  0  0
 51126  1  0  0  0
 51127  1  0  0  0
 52128  1  0  0  0
 52129  1  0  0  0
 53 54  1  0  0  0
 54 55  2  0  0  0
 54130  1  0  0  0
 55 57  1  0  0  0
 55131  1  0  0  0
 56 69  2  0  0  0
 57 58  2  0  0  0
 57132  1  0  0  0
 58133  1  0  0  0
 59 60  1  0  0  0
 59 61  1  0  0  0
 59 62  1  0  0  0
 60134  1  0  0  0
 60135  1  0  0  0
 60136  1  0  0  0
 61137  1  0  0  0
 61138  1  0  0  0
 61139  1  0  0  0
 62140  1  0  0  0
 62141  1  0  0  0
 62142  1  0  0  0
 63 65  1  0  0  0
 63143  1  0  0  0
 63144  1  0  0  0
 63145  1  0  0  0
 64146  1  0  0  0
 65147  1  0  0  0
 68 85  1  0  0  0
 71 72  2  0  0  0
 71 74  1  0  0  0
 71148  1  0  0  0
 72 75  1  0  0  0
 72149  1  0  0  0
 73 74  2  0  0  0
 73 76  1  0  0  0
 73150  1  0  0  0
 74 81  1  0  0  0
 75 76  2  0  0  0
 75 87  1  0  0  0
 76 82  1  0  0  0
 77151  1  0  0  0
 77152  1  0  0  0
 77153  1  0  0  0
 77 86  1  0  0  0
 78154  1  0  0  0
 78155  1  0  0  0
 78156  1  0  0  0
 78 87  1  0  0  0
 79 87  1  0  0  0
 79157  1  0  0  0
 79158  1  0  0  0
 79159  1  0  0  0
 80 87  1  0  0  0
 80160  1  0  0  0
 80161  1  0  0  0
 80162  1  0  0  0
 81 83  1  0  0  0
 81163  1  0  0  0
 81164  1  0  0  0
 82 86  1  0  0  0
 82165  1  0  0  0
 82166  1  0  0  0
 83 85  1  0  0  0
 83167  1  0  0  0
 83168  1  0  0  0
 84 86  1  0  0  0
 84 88  1  0  0  0
 84169  1  0  0  0
 84170  1  0  0  0
 85171  1  0  0  0
 85172  1  0  0  0
 86173  1  0  0  0
 88174  1  0  0  0
M  ISO  4   1 100  68 101  85 101  88 100
M  END
> <chiral flag>
0

> <version>
0

> <s_m_source_file>
/data/baiqing/PycharmProjects/Reinvent-master-3.2/result/LINK_invent/BTK/process_docking_weight1_custom_sum_contain_oxygen_bond_distance_aromatic_linkinvent_7_9_3/rearranged_h_0086.sdf

> <i_m_source_file_index>
15

> <r_mmod_Potential_Energy-OPLS-2005>
-50.4301910400391

> <r_mmod_Stretch_Energy-OPLS-2005>
48.5826110839844

> <r_mmod_Bend_Energy-OPLS-2005>
132.877105712891

> <r_mmod_Torsional_Energy-OPLS-2005>
203.113815307617

> <r_mmod_Improper_Torsional_Energy-OPLS-2005>
1.98079478740692

> <r_mmod_Van_der_Waal_Energy-OPLS-2005>
178.418197631836

> <r_mmod_Electrostatic_Energy-OPLS-2005>
-429.6015625

> <r_mmod_Solvation_Energy-OPLS-2005>
-196.743438720703

> <b_mmod_Minimization_Converged-OPLS-2005>
0

> <r_mmod_RMS_Derivative-OPLS-2005>
4.18445730209351

$$$$
15
                    3D
 Structure written by MMmdl.
161169  0  0  1  0            999 V2000
  -30.6078  -14.7235   20.4925 C   0  0  0  0  0  0
  -30.4387  -12.4492   19.4798 C   0  0  0  0  0  0
  -29.5118  -12.5028   18.2456 C   0  0  0  0  0  0
  -28.0396  -12.3124   18.6601 C   0  0  0  0  0  0
  -27.6402  -13.2218   19.8520 C   0  0  2  0  0  0
  -28.6802  -13.1515   20.9918 C   0  0  0  0  0  0
  -25.2523  -13.8196   20.5667 C   0  0  0  0  0  0
  -24.1796  -13.0458   20.9186 C   0  0  0  0  0  0
  -24.6356  -11.6921   20.8701 C   0  0  0  0  0  0
  -23.9015  -10.4309   21.0396 C   0  0  0  0  0  0
  -24.3580   -9.4222   21.9172 C   0  0  0  0  0  0
  -23.6275   -8.2250   22.0742 C   0  0  0  0  0  0
  -22.4257   -8.0267   21.3538 C   0  0  0  0  0  0
  -21.9870   -9.0223   20.4627 C   0  0  0  0  0  0
  -22.7179  -10.2117   20.3050 C   0  0  0  0  0  0
  -21.6856   -6.0699   22.5260 C   0  0  0  0  0  0
  -21.4007   -6.5611   23.8178 C   0  0  0  0  0  0
  -21.3662   -5.6776   24.9159 C   0  0  0  0  0  0
  -21.6078   -4.3042   24.7221 C   0  0  0  0  0  0
  -21.8825   -3.8112   23.4349 C   0  0  0  0  0  0
  -21.9193   -4.6928   22.3395 C   0  0  0  0  0  0
  -22.7829  -13.5226   21.1876 C   0  0  0  0  0  0
  -22.1661   -4.2105   21.0980 F   0  0  0  0  0  0
  -21.5649   -3.4532   25.7742 F   0  0  0  0  0  0
  -29.9866  -13.5023   20.4187 N   0  0  0  0  0  0
  -26.2916  -12.9357   20.3259 N   0  0  0  0  0  0
  -25.9291  -11.6516   20.5745 N   0  0  0  0  0  0
  -22.0472  -12.8212   22.0432 N   0  0  0  0  0  0
  -25.4285  -15.1913   20.4003 N   0  0  0  0  0  0
  -31.7926  -14.8394   20.1650 O   0  0  0  0  0  0
  -21.6666   -6.8840   21.4220 O   0  0  0  0  0  0
  -22.3494  -14.5508   20.6688 O   0  0  0  0  0  0
  -24.6255  -31.8629   23.2052 C   0  0  0  0  0  0
  -25.9083  -32.4826   23.8406 C   0  0  1  0  0  0
  -27.2184  -27.3178   20.1334 C   0  0  0  0  0  0
  -25.5904  -33.8628   24.2349 N   0  0  0  0  0  0
  -23.4221  -30.4870   21.5441 C   0  0  2  0  0  0
  -24.8718  -28.9385   20.1177 C   0  0  0  0  0  0
  -22.7486  -29.4634   22.4907 C   0  0  0  0  0  0
  -18.0304  -28.1371   22.8492 C   0  0  0  0  0  0
  -24.1485  -36.7300   23.2632 C   0  0  0  0  0  0
  -25.9637  -30.7994   21.3722 C   0  0  0  0  0  0
  -26.0398  -29.4222   20.7202 C   0  0  0  0  0  0
  -27.2239  -28.6255   20.7107 C   0  0  0  0  0  0
  -26.0307  -26.8840   19.5150 C   0  0  0  0  0  0
  -24.8664  -27.6752   19.5066 C   0  0  0  0  0  0
  -23.6430  -29.8219   20.1600 C   0  0  0  0  0  0
  -25.4111  -36.3136   24.0353 C   0  0  1  0  0  0
  -20.5902  -28.3680   23.1253 C   0  0  2  0  0  0
  -20.6784  -26.9407   22.5380 C   0  0  0  0  0  0
  -19.5756  -26.6383   21.5186 C   0  0  0  0  0  0
  -18.1941  -26.7921   22.1612 C   0  0  0  0  0  0
  -19.1558  -28.8841   23.2878 C   0  0  0  0  0  0
  -18.9471  -30.1438   23.8907 C   0  0  0  0  0  0
  -17.6468  -30.6567   24.0548 C   0  0  0  0  0  0
  -25.9039  -34.9489   23.5157 C   0  0  0  0  0  0
  -16.5365  -29.9069   23.6308 C   0  0  0  0  0  0
  -16.7287  -28.6478   23.0355 C   0  0  0  0  0  0
  -26.4485  -31.6608   25.0748 C   0  0  0  0  0  0
  -25.3719  -31.3695   26.1464 C   0  0  0  0  0  0
  -27.0317  -30.3061   24.6124 C   0  0  0  0  0  0
  -27.6094  -32.4298   25.7484 C   0  0  0  0  0  0
  -27.5605  -37.1813   24.8473 C   0  0  0  0  0  0
  -21.4189  -29.3057   22.3664 N   0  0  0  0  0  0
  -26.4306  -37.3817   23.9432 N   0  0  0  0  0  0
  -24.6897  -31.0658   22.0990 N   0  0  0  0  0  0
  -23.4219  -28.8162   23.2965 O   0  0  0  0  0  0
  -28.3270  -26.4627   20.1331 O   0  0  0  0  0  0
  -26.5597  -34.8936   22.4719 O   0  0  0  0  0  0
  -23.5406  -32.1370   23.7393 O   0  0  0  0  0  0
  -28.8499  -21.1521   20.2426 C   0  0  0  0  0  0
  -29.2699  -22.5244   20.4712 C   0  0  0  0  0  0
  -30.4370  -22.6570   21.2779 C   0  0  0  0  0  0
  -29.5511  -20.0190   20.8043 C   0  0  0  0  0  0
  -31.0269  -21.5012   21.8495 C   0  0  0  0  0  0
  -31.0915  -24.0170   21.5361 C   0  0  0  0  0  0
  -32.2306  -21.5958   22.7733 C   0  0  0  0  0  0
  -27.4889  -23.4222   18.8106 C   0  0  0  0  0  0
  -29.1229  -18.4894   20.6902 C   0  0  0  0  0  0
  -30.2423  -17.3172   20.6830 C   0  0  0  0  0  0
  -28.1640  -25.0803   20.6615 C   0  0  0  0  0  0
  -28.6237  -23.8121   19.7751 C   0  0  1  0  0  0
  -30.5909  -20.2423   21.6299 N   0  0  0  0  0  0
  -29.8304  -15.8443   20.7358 N   0  0  0  0  0  0
  -31.4770  -12.5897   19.1721 H   0  0  0  0  0  0
  -30.3998  -11.4693   19.9610 H   0  0  0  0  0  0
  -29.7966  -11.7363   17.5242 H   0  0  0  0  0  0
  -29.6289  -13.4597   17.7389 H   0  0  0  0  0  0
  -27.9178  -11.2645   18.9379 H   0  0  0  0  0  0
  -27.3777  -12.4818   17.8111 H   0  0  0  0  0  0
  -27.6348  -14.2408   19.4611 H   0  0  0  0  0  0
  -28.7211  -12.1538   21.4287 H   0  0  0  0  0  0
  -28.4119  -13.8260   21.8069 H   0  0  0  0  0  0
  -25.2712   -9.5727   22.4758 H   0  0  0  0  0  0
  -23.9998   -7.4646   22.7459 H   0  0  0  0  0  0
  -21.0801   -8.8687   19.8930 H   0  0  0  0  0  0
  -22.3585  -10.9640   19.6168 H   0  0  0  0  0  0
  -21.1986   -7.6116   23.9656 H   0  0  0  0  0  0
  -21.1499   -6.0526   25.9054 H   0  0  0  0  0  0
  -22.0611   -2.7578   23.2862 H   0  0  0  0  0  0
  -22.4057  -11.9845   22.4810 H   0  0  0  0  0  0
  -21.1087  -13.1234   22.2620 H   0  0  0  0  0  0
  -24.6696  -15.8580   20.4893 H   0  0  0  0  0  0
  -26.2815  -15.6100   20.0515 H   0  0  0  0  0  0
  -26.7159  -32.5522   23.1165 H   0  0  0  0  0  0
  -25.0119  -33.9793   25.0544 H   0  0  0  0  0  0
  -22.7157  -31.3073   21.3967 H   0  0  0  0  0  0
  -23.3790  -35.9585   23.3277 H   0  0  0  0  0  0
  -24.3579  -36.8923   22.2048 H   0  0  0  0  0  0
  -23.7169  -37.6478   23.6637 H   0  0  0  0  0  0
  -26.0878  -31.5629   20.6029 H   0  0  0  0  0  0
  -26.8466  -30.8592   21.9979 H   0  0  0  0  0  0
  -28.1283  -28.9968   21.1731 H   0  0  0  0  0  0
  -25.9956  -25.9181   19.0400 H   0  0  0  0  0  0
  -23.9707  -27.2980   19.0334 H   0  0  0  0  0  0
  -23.7803  -30.5980   19.4056 H   0  0  0  0  0  0
  -22.7630  -29.2575   19.8466 H   0  0  0  0  0  0
  -25.1285  -36.2012   25.0845 H   0  0  0  0  0  0
  -21.0023  -28.3255   24.1362 H   0  0  0  0  0  0
  -20.5654  -26.2316   23.3598 H   0  0  0  0  0  0
  -21.6660  -26.7417   22.1195 H   0  0  0  0  0  0
  -19.6922  -25.6290   21.1232 H   0  0  0  0  0  0
  -19.6680  -27.3179   20.6706 H   0  0  0  0  0  0
  -17.4216  -26.6671   21.4013 H   0  0  0  0  0  0
  -18.0338  -26.0035   22.8985 H   0  0  0  0  0  0
  -19.7939  -30.7242   24.2305 H   0  0  0  0  0  0
  -17.5014  -31.6257   24.5148 H   0  0  0  0  0  0
  -15.5361  -30.2980   23.7599 H   0  0  0  0  0  0
  -15.8687  -28.0779   22.7087 H   0  0  0  0  0  0
  -24.5894  -30.7065   25.7751 H   0  0  0  0  0  0
  -24.8894  -32.2832   26.4946 H   0  0  0  0  0  0
  -25.8024  -30.8809   27.0208 H   0  0  0  0  0  0
  -26.2864  -29.6823   24.1168 H   0  0  0  0  0  0
  -27.4100  -29.7300   25.4574 H   0  0  0  0  0  0
  -27.8703  -30.4430   23.9288 H   0  0  0  0  0  0
  -27.2784  -33.3591   26.2123 H   0  0  0  0  0  0
  -28.3853  -32.6848   25.0257 H   0  0  0  0  0  0
  -28.0808  -31.8357   26.5319 H   0  0  0  0  0  0
  -28.2628  -38.0111   24.7573 H   0  0  0  0  0  0
  -28.1109  -36.2658   24.6249 H   0  0  0  0  0  0
  -27.2335  -37.1403   25.8876 H   0  0  0  0  0  0
  -20.9365  -29.8832   21.6919 H   0  0  0  0  0  0
  -26.0213  -38.2907   24.1419 H   0  0  0  0  0  0
  -27.9824  -20.9557   19.6285 H   0  0  0  0  0  0
  -32.1784  -23.9658   21.5268 H   0  0  0  0  0  0
  -30.7847  -24.3988   22.5105 H   0  0  0  0  0  0
  -30.8569  -24.7627   20.7790 H   0  0  0  0  0  0
  -31.9674  -22.1030   23.7024 H   0  0  0  0  0  0
  -33.0488  -22.1376   22.3019 H   0  0  0  0  0  0
  -32.6146  -20.6099   23.0309 H   0  0  0  0  0  0
  -27.8105  -22.6625   18.0973 H   0  0  0  0  0  0
  -27.1614  -24.2776   18.2244 H   0  0  0  0  0  0
  -26.6238  -23.0365   19.3534 H   0  0  0  0  0  0
  -28.5048  -18.3865   19.7975 H   0  0  0  0  0  0
  -28.4460  -18.3131   21.5282 H   0  0  0  0  0  0
  -30.8892  -17.4788   21.5460 H   0  0  0  0  0  0
  -30.8800  -17.4610   19.8104 H   0  0  0  0  0  0
  -28.7422  -25.0947   21.5821 H   0  0  0  0  0  0
  -27.1513  -24.9209   21.0312 H   0  0  0  0  0  0
  -29.4191  -24.1885   19.1301 H   0  0  0  0  0  0
  -28.8684  -15.6550   20.9766 H   0  0  0  0  0  0
  1 25  1  0  0  0
  1 30  2  0  0  0
  1 84  1  0  0  0
  2  3  1  0  0  0
  2 25  1  0  0  0
  2 85  1  0  0  0
  2 86  1  0  0  0
  3  4  1  0  0  0
  3 87  1  0  0  0
  3 88  1  0  0  0
  4  5  1  0  0  0
  4 89  1  0  0  0
  4 90  1  0  0  0
  5  6  1  0  0  0
  5 26  1  0  0  0
  5 91  1  0  0  0
  6 25  1  0  0  0
  6 92  1  0  0  0
  6 93  1  0  0  0
  7  8  2  0  0  0
  7 26  1  0  0  0
  7 29  1  0  0  0
  8  9  1  0  0  0
  8 22  1  0  0  0
  9 10  1  0  0  0
  9 27  2  0  0  0
 10 11  2  0  0  0
 10 15  1  0  0  0
 11 12  1  0  0  0
 11 94  1  0  0  0
 12 13  2  0  0  0
 12 95  1  0  0  0
 13 14  1  0  0  0
 13 31  1  0  0  0
 14 15  2  0  0  0
 14 96  1  0  0  0
 15 97  1  0  0  0
 16 17  2  0  0  0
 16 21  1  0  0  0
 16 31  1  0  0  0
 17 18  1  0  0  0
 17 98  1  0  0  0
 18 19  2  0  0  0
 18 99  1  0  0  0
 19 20  1  0  0  0
 19 24  1  0  0  0
 20 21  2  0  0  0
 20100  1  0  0  0
 21 23  1  0  0  0
 22 28  1  0  0  0
 22 32  2  0  0  0
 26 27  1  0  0  0
 28101  1  0  0  0
 28102  1  0  0  0
 29103  1  0  0  0
 29104  1  0  0  0
 33 34  1  0  0  0
 33 66  1  0  0  0
 33 70  2  0  0  0
 34 36  1  0  0  0
 34 59  1  0  0  0
 34105  1  0  0  0
 35 44  2  0  0  0
 35 45  1  0  0  0
 35 68  1  0  0  0
 36 56  1  0  0  0
 36106  1  0  0  0
 37 39  1  0  0  0
 37 47  1  0  0  0
 37 66  1  0  0  0
 37107  1  0  0  0
 38 43  2  0  0  0
 38 46  1  0  0  0
 38 47  1  0  0  0
 39 64  1  0  0  0
 39 67  2  0  0  0
 40 52  1  0  0  0
 40 53  2  0  0  0
 40 58  1  0  0  0
 41108  1  0  0  0
 41109  1  0  0  0
 41110  1  0  0  0
 41 48  1  0  0  0
 42 43  1  0  0  0
 42 66  1  0  0  0
 42111  1  0  0  0
 42112  1  0  0  0
 43 44  1  0  0  0
 44113  1  0  0  0
 45 46  2  0  0  0
 45114  1  0  0  0
 46115  1  0  0  0
 47116  1  0  0  0
 47117  1  0  0  0
 48 56  1  0  0  0
 48 65  1  0  0  0
 48118  1  0  0  0
 49 50  1  0  0  0
 49 53  1  0  0  0
 49 64  1  0  0  0
 49119  1  0  0  0
 50 51  1  0  0  0
 50120  1  0  0  0
 50121  1  0  0  0
 51 52  1  0  0  0
 51122  1  0  0  0
 51123  1  0  0  0
 52124  1  0  0  0
 52125  1  0  0  0
 53 54  1  0  0  0
 54 55  2  0  0  0
 54126  1  0  0  0
 55 57  1  0  0  0
 55127  1  0  0  0
 56 69  2  0  0  0
 57 58  2  0  0  0
 57128  1  0  0  0
 58129  1  0  0  0
 59 60  1  0  0  0
 59 61  1  0  0  0
 59 62  1  0  0  0
 60130  1  0  0  0
 60131  1  0  0  0
 60132  1  0  0  0
 61133  1  0  0  0
 61134  1  0  0  0
 61135  1  0  0  0
 62136  1  0  0  0
 62137  1  0  0  0
 62138  1  0  0  0
 63 65  1  0  0  0
 63139  1  0  0  0
 63140  1  0  0  0
 63141  1  0  0  0
 64142  1  0  0  0
 65143  1  0  0  0
 68 81  1  0  0  0
 71 72  2  0  0  0
 71 74  1  0  0  0
 71144  1  0  0  0
 72 73  1  0  0  0
 72 82  1  0  0  0
 73 75  2  0  0  0
 73 76  1  0  0  0
 74 79  1  0  0  0
 74 83  2  0  0  0
 75 77  1  0  0  0
 75 83  1  0  0  0
 76145  1  0  0  0
 76146  1  0  0  0
 76147  1  0  0  0
 77148  1  0  0  0
 77149  1  0  0  0
 77150  1  0  0  0
 78151  1  0  0  0
 78152  1  0  0  0
 78153  1  0  0  0
 78 82  1  0  0  0
 79 80  1  0  0  0
 79154  1  0  0  0
 79155  1  0  0  0
 80 84  1  0  0  0
 80156  1  0  0  0
 80157  1  0  0  0
 81 82  1  0  0  0
 81158  1  0  0  0
 81159  1  0  0  0
 82160  1  0  0  0
 84161  1  0  0  0
M  ISO  4   1 100  68 101  81 101  84 100
M  END
> <chiral flag>
0

> <version>
0

> <s_m_source_file>
/data/baiqing/PycharmProjects/Reinvent-master-3.2/result/LINK_invent/BTK/process_docking_weight1_custom_sum_contain_oxygen_bond_distance_aromatic_linkinvent_7_9_3/rearranged_h_0086.sdf

> <i_m_source_file_index>
16

> <r_mmod_Potential_Energy-OPLS-2005>
-34.4146156311035

> <r_mmod_Stretch_Energy-OPLS-2005>
110.510704040527

> <r_mmod_Bend_Energy-OPLS-2005>
150.386123657227

> <r_mmod_Torsional_Energy-OPLS-2005>
224.659957885742

> <r_mmod_Improper_Torsional_Energy-OPLS-2005>
5.36219787597656

> <r_mmod_Van_der_Waal_Energy-OPLS-2005>
150.04719543457

> <r_mmod_Electrostatic_Energy-OPLS-2005>
-516.82421875

> <r_mmod_Solvation_Energy-OPLS-2005>
-225.635238647461

> <b_mmod_Minimization_Converged-OPLS-2005>
0

> <r_mmod_RMS_Derivative-OPLS-2005>
3.9785852432251

$$$$
16
                    3D
 Structure written by MMmdl.
184193  0  0  1  0            999 V2000
  -30.7380  -14.3027   20.8065 C   0  0  0  0  0  0
  -30.4457  -12.2872   19.3874 C   0  0  0  0  0  0
  -29.5013  -12.5492   18.1925 C   0  0  0  0  0  0
  -28.0200  -12.3959   18.5945 C   0  0  0  0  0  0
  -27.6777  -13.1781   19.8861 C   0  0  2  0  0  0
  -28.7042  -12.8385   20.9867 C   0  0  0  0  0  0
  -25.2618  -13.8111   20.5630 C   0  0  0  0  0  0
  -24.1786  -13.0459   20.9101 C   0  0  0  0  0  0
  -24.6268  -11.6897   20.8633 C   0  0  0  0  0  0
  -23.8908  -10.4325   21.0381 C   0  0  0  0  0  0
  -24.3497   -9.4269   21.9186 C   0  0  0  0  0  0
  -23.6203   -8.2299   22.0788 C   0  0  0  0  0  0
  -22.4209   -8.0307   21.3584 C   0  0  0  0  0  0
  -21.9818   -9.0252   20.4693 C   0  0  0  0  0  0
  -22.7080  -10.2143   20.3060 C   0  0  0  0  0  0
  -21.6812   -6.0737   22.5270 C   0  0  0  0  0  0
  -21.3991   -6.5622   23.8203 C   0  0  0  0  0  0
  -21.3679   -5.6792   24.9147 C   0  0  0  0  0  0
  -21.6043   -4.3069   24.7189 C   0  0  0  0  0  0
  -21.8784   -3.8165   23.4303 C   0  0  0  0  0  0
  -21.9177   -4.6982   22.3367 C   0  0  0  0  0  0
  -22.7814  -13.5372   21.1706 C   0  0  0  0  0  0
  -22.1654   -4.2182   21.0946 F   0  0  0  0  0  0
  -21.5644   -3.4559   25.7702 F   0  0  0  0  0  0
  -30.0639  -13.1644   20.5049 N   0  0  0  0  0  0
  -26.3031  -12.9204   20.3277 N   0  0  0  0  0  0
  -25.9182  -11.6398   20.5603 N   0  0  0  0  0  0
  -22.0357  -12.8492   22.0245 N   0  0  0  0  0  0
  -25.4416  -15.1832   20.4159 N   0  0  0  0  0  0
  -31.6431  -14.7685   20.1108 O   0  0  0  0  0  0
  -21.6620   -6.8885   21.4241 O   0  0  0  0  0  0
  -22.3594  -14.5713   20.6554 O   0  0  0  0  0  0
  -24.6127  -31.8699   23.2192 C   0  0  0  0  0  0
  -25.9064  -32.4833   23.8482 C   0  0  1  0  0  0
  -27.2513  -27.4864   20.0885 C   0  0  0  0  0  0
  -25.6021  -33.8643   24.2448 N   0  0  0  0  0  0
  -23.3954  -30.4911   21.5570 C   0  0  2  0  0  0
  -24.8398  -28.9549   20.1331 C   0  0  0  0  0  0
  -22.7392  -29.4666   22.5045 C   0  0  0  0  0  0
  -18.0317  -28.1358   22.8569 C   0  0  0  0  0  0
  -24.1457  -36.7249   23.2627 C   0  0  0  0  0  0
  -25.9136  -30.8494   21.3639 C   0  0  0  0  0  0
  -25.9925  -29.4814   20.7247 C   0  0  0  0  0  0
  -27.2003  -28.7566   20.7003 C   0  0  0  0  0  0
  -26.0723  -26.9571   19.5131 C   0  0  0  0  0  0
  -24.8658  -27.6840   19.5390 C   0  0  0  0  0  0
  -23.6019  -29.8183   20.1728 C   0  0  0  0  0  0
  -25.4091  -36.3128   24.0368 C   0  0  1  0  0  0
  -20.5889  -28.3676   23.1375 C   0  0  2  0  0  0
  -20.6774  -26.9414   22.5448 C   0  0  0  0  0  0
  -19.5724  -26.6387   21.5263 C   0  0  0  0  0  0
  -18.1910  -26.7951   22.1660 C   0  0  0  0  0  0
  -19.1544  -28.8854   23.2956 C   0  0  0  0  0  0
  -18.9453  -30.1483   23.8906 C   0  0  0  0  0  0
  -17.6424  -30.6589   24.0641 C   0  0  0  0  0  0
  -25.9019  -34.9474   23.5165 C   0  0  0  0  0  0
  -16.5348  -29.9068   23.6344 C   0  0  0  0  0  0
  -16.7280  -28.6481   23.0382 C   0  0  0  0  0  0
  -26.4507  -31.6644   25.0785 C   0  0  0  0  0  0
  -25.3776  -31.3789   26.1579 C   0  0  0  0  0  0
  -27.0364  -30.3103   24.6116 C   0  0  0  0  0  0
  -27.6111  -32.4339   25.7546 C   0  0  0  0  0  0
  -27.5572  -37.1771   24.8475 C   0  0  0  0  0  0
  -21.4106  -29.3051   22.3772 N   0  0  0  0  0  0
  -26.4269  -37.3817   23.9431 N   0  0  0  0  0  0
  -24.6594  -31.0826   22.1091 N   0  0  0  0  0  0
  -23.4164  -28.8221   23.3093 O   0  0  0  0  0  0
  -28.4075  -26.7572   19.9403 O   0  0  0  0  0  0
  -26.5472  -34.8871   22.4645 O   0  0  0  0  0  0
  -23.5343  -32.1485   23.7605 O   0  0  0  0  0  0
  -31.1430  -20.9177   22.3634 C   0  0  0  0  0  0
  -27.3563  -23.8062   21.5621 C   0  0  0  0  0  0
  -29.6173  -23.6282   20.7262 C   0  0  0  0  0  0
  -31.2756  -19.9703   23.3329 C   0  0  0  0  0  0
  -32.0174  -19.0990   21.4110 C   0  0  0  0  0  0
  -31.5789  -20.3705   21.1186 C   0  0  0  0  0  0
  -28.6488  -24.3547   21.4489 C   0  0  0  0  0  0
  -27.0663  -22.5751   20.9432 C   0  0  0  0  0  0
  -29.2675  -22.3784   20.1686 C   0  0  0  0  0  0
  -25.6454  -22.0129   20.9338 C   0  0  0  0  0  0
  -32.6737  -22.1944   19.8589 C   0  0  0  0  0  0
  -32.1247  -20.0902   18.6704 C   0  0  0  0  0  0
  -29.7581  -17.4910   24.4941 C   0  0  0  0  0  0
  -31.2185  -15.5111   24.6239 C   0  0  0  0  0  0
  -28.9733  -25.7198   22.0524 C   0  0  0  0  0  0
  -30.2355  -21.6130   19.2511 C   0  0  0  0  0  0
  -32.0837  -17.5638   23.4195 C   0  0  0  0  0  0
  -30.2106  -16.2398   22.3269 C   0  0  0  0  0  0
  -29.3682  -26.7658   20.9929 C   0  0  0  0  0  0
  -31.6233  -21.0708   19.7612 C   0  0  0  0  0  0
  -30.8210  -16.6876   23.7014 C   0  0  0  0  0  0
  -28.0108  -21.8708   20.2787 N   0  0  0  0  0  0
  -31.7965  -18.8293   22.7488 N   0  0  0  0  0  0
  -30.3674  -14.8267   21.9948 N   0  0  0  0  0  0
  -31.4865  -12.4325   19.0905 H   0  0  0  0  0  0
  -30.3858  -11.2475   19.7074 H   0  0  0  0  0  0
  -29.7339  -11.8800   17.3654 H   0  0  0  0  0  0
  -29.6856  -13.5532   17.8151 H   0  0  0  0  0  0
  -27.8108  -11.3368   18.7517 H   0  0  0  0  0  0
  -27.3750  -12.7271   17.7804 H   0  0  0  0  0  0
  -27.7676  -14.2389   19.6599 H   0  0  0  0  0  0
  -28.6567  -11.7700   21.2174 H   0  0  0  0  0  0
  -28.4258  -13.3327   21.9160 H   0  0  0  0  0  0
  -25.2590   -9.5799   22.4759 H   0  0  0  0  0  0
  -23.9932   -7.4716   22.7505 H   0  0  0  0  0  0
  -21.0767   -8.8713   19.8988 H   0  0  0  0  0  0
  -22.3512  -10.9664   19.6181 H   0  0  0  0  0  0
  -21.1981   -7.6127   23.9725 H   0  0  0  0  0  0
  -21.1515   -6.0502   25.9073 H   0  0  0  0  0  0
  -22.0535   -2.7640   23.2764 H   0  0  0  0  0  0
  -22.3882  -12.0231   22.4803 H   0  0  0  0  0  0
  -21.0980  -13.1669   22.2305 H   0  0  0  0  0  0
  -24.7091  -15.8566   20.6078 H   0  0  0  0  0  0
  -26.3028  -15.6120   20.0983 H   0  0  0  0  0  0
  -26.7160  -32.5565   23.1276 H   0  0  0  0  0  0
  -25.0529  -33.9864   25.0841 H   0  0  0  0  0  0
  -22.6837  -31.3033   21.4176 H   0  0  0  0  0  0
  -23.3754  -35.9560   23.3323 H   0  0  0  0  0  0
  -24.3515  -36.8760   22.2020 H   0  0  0  0  0  0
  -23.7133  -37.6431   23.6581 H   0  0  0  0  0  0
  -25.9958  -31.6080   20.5859 H   0  0  0  0  0  0
  -26.8134  -30.9230   21.9640 H   0  0  0  0  0  0
  -28.0815  -29.2124   21.1226 H   0  0  0  0  0  0
  -26.0845  -25.9808   19.0544 H   0  0  0  0  0  0
  -23.9704  -27.2622   19.1060 H   0  0  0  0  0  0
  -23.7294  -30.5853   19.4095 H   0  0  0  0  0  0
  -22.7270  -29.2352   19.8796 H   0  0  0  0  0  0
  -25.1234  -36.2024   25.0875 H   0  0  0  0  0  0
  -21.0014  -28.3193   24.1481 H   0  0  0  0  0  0
  -20.5737  -26.2211   23.3567 H   0  0  0  0  0  0
  -21.6615  -26.7455   22.1197 H   0  0  0  0  0  0
  -19.6814  -25.6280   21.1277 H   0  0  0  0  0  0
  -19.6683  -27.3170   20.6774 H   0  0  0  0  0  0
  -17.4213  -26.6873   21.4023 H   0  0  0  0  0  0
  -18.0266  -26.0027   22.8979 H   0  0  0  0  0  0
  -19.7905  -30.7422   24.2140 H   0  0  0  0  0  0
  -17.4952  -31.6252   24.5246 H   0  0  0  0  0  0
  -15.5307  -30.2982   23.7614 H   0  0  0  0  0  0
  -15.8717  -28.0799   22.7046 H   0  0  0  0  0  0
  -24.6008  -30.7040   25.7963 H   0  0  0  0  0  0
  -24.8934  -32.2991   26.4883 H   0  0  0  0  0  0
  -25.8186  -30.9126   27.0401 H   0  0  0  0  0  0
  -26.2939  -29.6832   24.1163 H   0  0  0  0  0  0
  -27.4180  -29.7349   25.4546 H   0  0  0  0  0  0
  -27.8747  -30.4430   23.9251 H   0  0  0  0  0  0
  -27.2798  -33.3667   26.2094 H   0  0  0  0  0  0
  -28.3968  -32.6802   25.0406 H   0  0  0  0  0  0
  -28.0743  -31.8479   26.5476 H   0  0  0  0  0  0
  -28.2621  -38.0029   24.7533 H   0  0  0  0  0  0
  -28.1041  -36.2561   24.6365 H   0  0  0  0  0  0
  -27.2278  -37.1492   25.8870 H   0  0  0  0  0  0
  -20.9206  -29.8763   21.7013 H   0  0  0  0  0  0
  -26.0159  -38.2877   24.1561 H   0  0  0  0  0  0
  -30.7680  -21.9175   22.5414 H   0  0  0  0  0  0
  -26.5803  -24.3475   22.0861 H   0  0  0  0  0  0
  -30.5966  -24.0469   20.5541 H   0  0  0  0  0  0
  -31.0369  -20.0067   24.3889 H   0  0  0  0  0  0
  -32.4645  -18.3445   20.7770 H   0  0  0  0  0  0
  -25.0124  -22.4844   21.6907 H   0  0  0  0  0  0
  -25.6217  -20.9375   21.1196 H   0  0  0  0  0  0
  -25.1683  -22.1752   19.9633 H   0  0  0  0  0  0
  -33.6761  -21.7785   20.0027 H   0  0  0  0  0  0
  -32.4815  -22.8498   20.7098 H   0  0  0  0  0  0
  -32.6789  -22.8021   18.9545 H   0  0  0  0  0  0
  -33.1339  -19.7286   18.8712 H   0  0  0  0  0  0
  -32.1531  -20.5788   17.6968 H   0  0  0  0  0  0
  -31.4760  -19.2180   18.5655 H   0  0  0  0  0  0
  -30.1956  -18.0326   25.3362 H   0  0  0  0  0  0
  -28.9904  -16.8441   24.9151 H   0  0  0  0  0  0
  -29.2405  -18.2162   23.8658 H   0  0  0  0  0  0
  -31.5180  -15.8767   25.6091 H   0  0  0  0  0  0
  -32.0516  -14.9412   24.2110 H   0  0  0  0  0  0
  -30.3881  -14.8276   24.7938 H   0  0  0  0  0  0
  -29.7797  -25.6062   22.7763 H   0  0  0  0  0  0
  -28.1207  -26.0830   22.6263 H   0  0  0  0  0  0
  -30.3959  -22.2225   18.3598 H   0  0  0  0  0  0
  -29.6731  -20.7479   18.8972 H   0  0  0  0  0  0
  -32.7813  -17.0005   22.7945 H   0  0  0  0  0  0
  -32.6188  -17.7800   24.3445 H   0  0  0  0  0  0
  -30.5605  -16.8561   21.4991 H   0  0  0  0  0  0
  -29.1325  -16.4277   22.3418 H   0  0  0  0  0  0
  -30.3347  -26.5035   20.5593 H   0  0  0  0  0  0
  -29.5253  -27.7448   21.4459 H   0  0  0  0  0  0
  -29.8567  -14.2023   22.5946 H   0  0  0  0  0  0
  1 25  1  0  0  0
  1 30  2  0  0  0
  1 94  1  0  0  0
  2  3  1  0  0  0
  2 25  1  0  0  0
  2 95  1  0  0  0
  2 96  1  0  0  0
  3  4  1  0  0  0
  3 97  1  0  0  0
  3 98  1  0  0  0
  4  5  1  0  0  0
  4 99  1  0  0  0
  4100  1  0  0  0
  5  6  1  0  0  0
  5 26  1  0  0  0
  5101  1  0  0  0
  6 25  1  0  0  0
  6102  1  0  0  0
  6103  1  0  0  0
  7  8  2  0  0  0
  7 26  1  0  0  0
  7 29  1  0  0  0
  8  9  1  0  0  0
  8 22  1  0  0  0
  9 10  1  0  0  0
  9 27  2  0  0  0
 10 11  2  0  0  0
 10 15  1  0  0  0
 11 12  1  0  0  0
 11104  1  0  0  0
 12 13  2  0  0  0
 12105  1  0  0  0
 13 14  1  0  0  0
 13 31  1  0  0  0
 14 15  2  0  0  0
 14106  1  0  0  0
 15107  1  0  0  0
 16 17  2  0  0  0
 16 21  1  0  0  0
 16 31  1  0  0  0
 17 18  1  0  0  0
 17108  1  0  0  0
 18 19  2  0  0  0
 18109  1  0  0  0
 19 20  1  0  0  0
 19 24  1  0  0  0
 20 21  2  0  0  0
 20110  1  0  0  0
 21 23  1  0  0  0
 22 28  1  0  0  0
 22 32  2  0  0  0
 26 27  1  0  0  0
 28111  1  0  0  0
 28112  1  0  0  0
 29113  1  0  0  0
 29114  1  0  0  0
 33 34  1  0  0  0
 33 66  1  0  0  0
 33 70  2  0  0  0
 34 36  1  0  0  0
 34 59  1  0  0  0
 34115  1  0  0  0
 35 44  2  0  0  0
 35 45  1  0  0  0
 35 68  1  0  0  0
 36 56  1  0  0  0
 36116  1  0  0  0
 37 39  1  0  0  0
 37 47  1  0  0  0
 37 66  1  0  0  0
 37117  1  0  0  0
 38 43  2  0  0  0
 38 46  1  0  0  0
 38 47  1  0  0  0
 39 64  1  0  0  0
 39 67  2  0  0  0
 40 52  1  0  0  0
 40 53  2  0  0  0
 40 58  1  0  0  0
 41118  1  0  0  0
 41119  1  0  0  0
 41120  1  0  0  0
 41 48  1  0  0  0
 42 43  1  0  0  0
 42 66  1  0  0  0
 42121  1  0  0  0
 42122  1  0  0  0
 43 44  1  0  0  0
 44123  1  0  0  0
 45 46  2  0  0  0
 45124  1  0  0  0
 46125  1  0  0  0
 47126  1  0  0  0
 47127  1  0  0  0
 48 56  1  0  0  0
 48 65  1  0  0  0
 48128  1  0  0  0
 49 50  1  0  0  0
 49 53  1  0  0  0
 49 64  1  0  0  0
 49129  1  0  0  0
 50 51  1  0  0  0
 50130  1  0  0  0
 50131  1  0  0  0
 51 52  1  0  0  0
 51132  1  0  0  0
 51133  1  0  0  0
 52134  1  0  0  0
 52135  1  0  0  0
 53 54  1  0  0  0
 54 55  2  0  0  0
 54136  1  0  0  0
 55 57  1  0  0  0
 55137  1  0  0  0
 56 69  2  0  0  0
 57 58  2  0  0  0
 57138  1  0  0  0
 58139  1  0  0  0
 59 60  1  0  0  0
 59 61  1  0  0  0
 59 62  1  0  0  0
 60140  1  0  0  0
 60141  1  0  0  0
 60142  1  0  0  0
 61143  1  0  0  0
 61144  1  0  0  0
 61145  1  0  0  0
 62146  1  0  0  0
 62147  1  0  0  0
 62148  1  0  0  0
 63 65  1  0  0  0
 63149  1  0  0  0
 63150  1  0  0  0
 63151  1  0  0  0
 64152  1  0  0  0
 65153  1  0  0  0
 68 89  1  0  0  0
 71 74  2  0  0  0
 71 76  1  0  0  0
 71154  1  0  0  0
 72 77  2  0  0  0
 72 78  1  0  0  0
 72155  1  0  0  0
 73 77  1  0  0  0
 73 79  2  0  0  0
 73156  1  0  0  0
 74 93  1  0  0  0
 74157  1  0  0  0
 75 76  2  0  0  0
 75 93  1  0  0  0
 75158  1  0  0  0
 76 90  1  0  0  0
 77 85  1  0  0  0
 78 80  1  0  0  0
 78 92  2  0  0  0
 79 86  1  0  0  0
 79 92  1  0  0  0
 80159  1  0  0  0
 80160  1  0  0  0
 80161  1  0  0  0
 81162  1  0  0  0
 81163  1  0  0  0
 81164  1  0  0  0
 81 90  1  0  0  0
 82 90  1  0  0  0
 82165  1  0  0  0
 82166  1  0  0  0
 82167  1  0  0  0
 83168  1  0  0  0
 83169  1  0  0  0
 83170  1  0  0  0
 83 91  1  0  0  0
 84 91  1  0  0  0
 84171  1  0  0  0
 84172  1  0  0  0
 84173  1  0  0  0
 85 89  1  0  0  0
 85174  1  0  0  0
 85175  1  0  0  0
 86 90  1  0  0  0
 86176  1  0  0  0
 86177  1  0  0  0
 87 91  1  0  0  0
 87 93  1  0  0  0
 87178  1  0  0  0
 87179  1  0  0  0
 88 91  1  0  0  0
 88 94  1  0  0  0
 88180  1  0  0  0
 88181  1  0  0  0
 89182  1  0  0  0
 89183  1  0  0  0
 94184  1  0  0  0
M  ISO  4   1 100  68 101  89 101  94 100
M  END
> <chiral flag>
0

> <version>
0

> <s_m_source_file>
/data/baiqing/PycharmProjects/Reinvent-master-3.2/result/LINK_invent/BTK/process_docking_weight1_custom_sum_contain_oxygen_bond_distance_aromatic_linkinvent_7_9_3/rearranged_h_0086.sdf

> <i_m_source_file_index>
17

> <r_mmod_Potential_Energy-OPLS-2005>
-125.36319732666

> <r_mmod_Stretch_Energy-OPLS-2005>
42.6930351257324

> <r_mmod_Bend_Energy-OPLS-2005>
129.755126953125

> <r_mmod_Torsional_Energy-OPLS-2005>
254.14030456543

> <r_mmod_Improper_Torsional_Energy-OPLS-2005>
4.56818532943726

> <r_mmod_Van_der_Waal_Energy-OPLS-2005>
152.739288330078

> <r_mmod_Electrostatic_Energy-OPLS-2005>
-510.816589355469

> <r_mmod_Solvation_Energy-OPLS-2005>
-213.421264648438

> <b_mmod_Minimization_Converged-OPLS-2005>
0

> <r_mmod_RMS_Derivative-OPLS-2005>
9.49614715576172

$$$$
17
                    3D
 Structure written by MMmdl.
169177  0  0  1  0            999 V2000
  -30.7279  -14.5708   20.4570 C   0  0  0  0  0  0
  -30.4147  -12.3372   19.4615 C   0  0  0  0  0  0
  -29.4921  -12.4842   18.2368 C   0  0  0  0  0  0
  -28.0211  -12.3270   18.6580 C   0  0  0  0  0  0
  -27.6528  -13.2220   19.8696 C   0  0  2  0  0  0
  -28.7089  -13.1346   20.9977 C   0  0  0  0  0  0
  -25.2559  -13.8198   20.5820 C   0  0  0  0  0  0
  -24.1855  -13.0474   20.9365 C   0  0  0  0  0  0
  -24.6370  -11.6939   20.8916 C   0  0  0  0  0  0
  -23.9087  -10.4289   21.0556 C   0  0  0  0  0  0
  -24.3631   -9.4153   21.9318 C   0  0  0  0  0  0
  -23.6360   -8.2143   22.0760 C   0  0  0  0  0  0
  -22.4315   -8.0259   21.3543 C   0  0  0  0  0  0
  -21.9939   -9.0279   20.4713 C   0  0  0  0  0  0
  -22.7260  -10.2153   20.3205 C   0  0  0  0  0  0
  -21.6824   -6.0728   22.5287 C   0  0  0  0  0  0
  -21.3993   -6.5632   23.8214 C   0  0  0  0  0  0
  -21.3652   -5.6824   24.9221 C   0  0  0  0  0  0
  -21.6075   -4.3079   24.7277 C   0  0  0  0  0  0
  -21.8862   -3.8144   23.4405 C   0  0  0  0  0  0
  -21.9244   -4.6961   22.3442 C   0  0  0  0  0  0
  -22.7866  -13.5241   21.1971 C   0  0  0  0  0  0
  -22.1716   -4.2119   21.1031 F   0  0  0  0  0  0
  -21.5596   -3.4587   25.7765 F   0  0  0  0  0  0
  -30.0337  -13.3952   20.4120 N   0  0  0  0  0  0
  -26.2995  -12.9414   20.3506 N   0  0  0  0  0  0
  -25.9326  -11.6559   20.5996 N   0  0  0  0  0  0
  -22.0512  -12.8226   22.0495 N   0  0  0  0  0  0
  -25.4254  -15.1907   20.4073 N   0  0  0  0  0  0
  -31.9129  -14.6417   20.1341 O   0  0  0  0  0  0
  -21.6655   -6.8861   21.4206 O   0  0  0  0  0  0
  -22.3496  -14.5542   20.6767 O   0  0  0  0  0  0
  -24.6214  -31.8618   23.2147 C   0  0  0  0  0  0
  -25.9118  -32.4777   23.8423 C   0  0  1  0  0  0
  -27.2207  -27.3882   20.0625 C   0  0  0  0  0  0
  -25.5968  -33.8580   24.2333 N   0  0  0  0  0  0
  -23.4139  -30.4890   21.5550 C   0  0  2  0  0  0
  -24.8597  -28.9729   20.0952 C   0  0  0  0  0  0
  -22.7473  -29.4577   22.4939 C   0  0  0  0  0  0
  -18.0301  -28.1371   22.8488 C   0  0  0  0  0  0
  -24.1500  -36.7295   23.2639 C   0  0  0  0  0  0
  -25.9477  -30.7933   21.3970 C   0  0  0  0  0  0
  -26.0159  -29.4293   20.7387 C   0  0  0  0  0  0
  -27.1997  -28.6388   20.7390 C   0  0  0  0  0  0
  -26.0935  -27.0490   19.2991 C   0  0  0  0  0  0
  -24.9054  -27.7946   19.3407 C   0  0  0  0  0  0
  -23.6267  -29.8437   20.1572 C   0  0  0  0  0  0
  -25.4114  -36.3057   24.0321 C   0  0  1  0  0  0
  -20.5895  -28.3645   23.1307 C   0  0  2  0  0  0
  -20.6759  -26.9378   22.5407 C   0  0  0  0  0  0
  -19.5724  -26.6363   21.5213 C   0  0  0  0  0  0
  -18.1919  -26.7918   22.1636 C   0  0  0  0  0  0
  -19.1554  -28.8824   23.2897 C   0  0  0  0  0  0
  -18.9473  -30.1438   23.8902 C   0  0  0  0  0  0
  -17.6473  -30.6572   24.0553 C   0  0  0  0  0  0
  -25.9057  -34.9437   23.5113 C   0  0  0  0  0  0
  -16.5365  -29.9068   23.6319 C   0  0  0  0  0  0
  -16.7293  -28.6481   23.0348 C   0  0  0  0  0  0
  -26.4549  -31.6584   25.0800 C   0  0  0  0  0  0
  -25.3818  -31.3721   26.1568 C   0  0  0  0  0  0
  -27.0385  -30.2994   24.6237 C   0  0  0  0  0  0
  -27.6081  -32.4365   25.7590 C   0  0  0  0  0  0
  -27.5567  -37.1809   24.8454 C   0  0  0  0  0  0
  -21.4198  -29.3026   22.3722 N   0  0  0  0  0  0
  -26.4266  -37.3768   23.9412 N   0  0  0  0  0  0
  -24.6771  -31.0658   22.1107 N   0  0  0  0  0  0
  -23.4204  -28.8091   23.2991 O   0  0  0  0  0  0
  -28.3022  -26.5160   20.0689 O   0  0  0  0  0  0
  -26.5596  -34.8891   22.4674 O   0  0  0  0  0  0
  -23.5396  -32.1392   23.7525 O   0  0  0  0  0  0
  -28.3008  -22.7412   19.7366 C   0  0  0  0  0  0
  -27.5736  -23.9741   19.9413 C   0  0  0  0  0  0
  -27.6501  -21.6531   19.0574 C   0  0  0  0  0  0
  -26.2028  -23.8753   19.5879 C   0  0  0  0  0  0
  -25.0760  -24.5303   20.3611 C   0  0  0  0  0  0
  -26.8071  -19.2273   18.5577 C   0  0  0  0  0  0
  -29.5880  -18.8228   17.8952 C   0  0  0  0  0  0
  -30.1116  -19.1825   21.6358 C   0  0  0  0  0  0
  -28.1915  -17.7144   21.1189 C   0  0  0  0  0  0
  -28.1226  -25.2158   20.7342 C   0  0  0  0  0  0
  -30.4987  -17.0948   20.2622 C   0  0  0  0  0  0
  -27.8530  -20.1107   19.3174 C   0  0  1  0  0  0
  -29.2685  -19.3875   19.3072 C   0  0  1  0  0  0
  -29.4962  -18.3189   20.5135 C   0  0  0  0  0  0
  -26.4827  -21.9011   18.4143 N   0  0  0  0  0  0
  -25.7399  -22.9554   18.7209 N   0  0  0  0  0  0
  -30.0158  -15.7154   20.5988 N   0  0  0  0  0  0
  -31.4594  -12.3988   19.1537 H   0  0  0  0  0  0
  -30.2994  -11.3582   19.9243 H   0  0  0  0  0  0
  -29.7415  -11.7407   17.4821 H   0  0  0  0  0  0
  -29.6423  -13.4588   17.7791 H   0  0  0  0  0  0
  -27.8648  -11.2771   18.9106 H   0  0  0  0  0  0
  -27.3514  -12.5425   17.8272 H   0  0  0  0  0  0
  -27.6654  -14.2505   19.4993 H   0  0  0  0  0  0
  -28.6972  -12.1511   21.4731 H   0  0  0  0  0  0
  -28.4865  -13.8584   21.7866 H   0  0  0  0  0  0
  -25.2802   -9.5597   22.4911 H   0  0  0  0  0  0
  -24.0077   -7.4389   22.7341 H   0  0  0  0  0  0
  -21.0858   -8.8797   19.9051 H   0  0  0  0  0  0
  -22.3725  -10.9747   19.6393 H   0  0  0  0  0  0
  -21.1901   -7.6127   23.9692 H   0  0  0  0  0  0
  -21.1451   -6.0573   25.9093 H   0  0  0  0  0  0
  -22.0682   -2.7598   23.2928 H   0  0  0  0  0  0
  -22.4120  -11.9856   22.4943 H   0  0  0  0  0  0
  -21.1103  -13.1154   22.2646 H   0  0  0  0  0  0
  -24.6431  -15.8389   20.4484 H   0  0  0  0  0  0
  -26.2688  -15.5973   20.0293 H   0  0  0  0  0  0
  -26.7175  -32.5430   23.1155 H   0  0  0  0  0  0
  -25.0155  -33.9724   25.0491 H   0  0  0  0  0  0
  -22.7072  -31.3070   21.4246 H   0  0  0  0  0  0
  -23.3731  -35.9660   23.3299 H   0  0  0  0  0  0
  -24.3564  -36.8929   22.2050 H   0  0  0  0  0  0
  -23.7288  -37.6515   23.6669 H   0  0  0  0  0  0
  -26.0819  -31.5554   20.6276 H   0  0  0  0  0  0
  -26.8244  -30.8324   22.0263 H   0  0  0  0  0  0
  -28.0836  -28.9797   21.2613 H   0  0  0  0  0  0
  -26.1383  -26.1987   18.6405 H   0  0  0  0  0  0
  -24.0644  -27.4983   18.7283 H   0  0  0  0  0  0
  -23.7405  -30.6301   19.4097 H   0  0  0  0  0  0
  -22.7485  -29.2725   19.8532 H   0  0  0  0  0  0
  -25.1300  -36.1893   25.0801 H   0  0  0  0  0  0
  -20.9989  -28.3194   24.1430 H   0  0  0  0  0  0
  -20.5630  -26.2269   23.3593 H   0  0  0  0  0  0
  -21.6631  -26.7366   22.1232 H   0  0  0  0  0  0
  -19.6875  -25.6271   21.1236 H   0  0  0  0  0  0
  -19.6682  -27.3171   20.6732 H   0  0  0  0  0  0
  -17.4201  -26.6689   21.4038 H   0  0  0  0  0  0
  -18.0325  -26.0056   22.9016 H   0  0  0  0  0  0
  -19.7944  -30.7254   24.2278 H   0  0  0  0  0  0
  -17.5019  -31.6257   24.5156 H   0  0  0  0  0  0
  -15.5360  -30.2962   23.7621 H   0  0  0  0  0  0
  -15.8697  -28.0779   22.7059 H   0  0  0  0  0  0
  -24.5959  -30.7097   25.7948 H   0  0  0  0  0  0
  -24.9077  -32.2910   26.5029 H   0  0  0  0  0  0
  -25.8202  -30.8893   27.0311 H   0  0  0  0  0  0
  -26.2909  -29.6714   24.1395 H   0  0  0  0  0  0
  -27.4222  -29.7287   25.4701 H   0  0  0  0  0  0
  -27.8737  -30.4261   23.9346 H   0  0  0  0  0  0
  -27.2594  -33.3592   26.2230 H   0  0  0  0  0  0
  -28.3881  -32.7054   25.0462 H   0  0  0  0  0  0
  -28.0784  -31.8493   26.5486 H   0  0  0  0  0  0
  -28.2577  -38.0116   24.7489 H   0  0  0  0  0  0
  -28.1072  -36.2642   24.6289 H   0  0  0  0  0  0
  -27.2284  -37.1476   25.8857 H   0  0  0  0  0  0
  -20.9350  -29.8842   21.7018 H   0  0  0  0  0  0
  -26.0135  -38.2830   24.1457 H   0  0  0  0  0  0
  -29.2623  -22.5867   20.2105 H   0  0  0  0  0  0
  -25.3816  -25.2862   21.0824 H   0  0  0  0  0  0
  -24.6060  -23.7363   20.9371 H   0  0  0  0  0  0
  -24.3213  -24.9539   19.6944 H   0  0  0  0  0  0
  -25.7831  -19.4568   18.8605 H   0  0  0  0  0  0
  -26.9513  -18.1677   18.7426 H   0  0  0  0  0  0
  -26.8791  -19.3488   17.4746 H   0  0  0  0  0  0
  -29.2506  -19.5007   17.1097 H   0  0  0  0  0  0
  -29.1022  -17.8609   17.7222 H   0  0  0  0  0  0
  -30.6600  -18.6884   17.7349 H   0  0  0  0  0  0
  -30.1142  -18.6669   22.5957 H   0  0  0  0  0  0
  -29.5736  -20.1204   21.7724 H   0  0  0  0  0  0
  -31.1428  -19.4573   21.4098 H   0  0  0  0  0  0
  -27.4966  -18.4464   21.5107 H   0  0  0  0  0  0
  -28.4071  -17.0808   21.9822 H   0  0  0  0  0  0
  -27.6488  -17.0953   20.4107 H   0  0  0  0  0  0
  -29.0857  -24.9553   21.1733 H   0  0  0  0  0  0
  -27.4828  -25.3723   21.6040 H   0  0  0  0  0  0
  -30.8624  -17.0635   19.2350 H   0  0  0  0  0  0
  -31.4060  -17.2502   20.8494 H   0  0  0  0  0  0
  -27.5361  -20.1128   20.3538 H   0  0  0  0  0  0
  -29.9809  -20.2028   19.4464 H   0  0  0  0  0  0
  -29.0406  -15.6209   20.8441 H   0  0  0  0  0  0
  1 25  1  0  0  0
  1 30  2  0  0  0
  1 87  1  0  0  0
  2  3  1  0  0  0
  2 25  1  0  0  0
  2 88  1  0  0  0
  2 89  1  0  0  0
  3  4  1  0  0  0
  3 90  1  0  0  0
  3 91  1  0  0  0
  4  5  1  0  0  0
  4 92  1  0  0  0
  4 93  1  0  0  0
  5  6  1  0  0  0
  5 26  1  0  0  0
  5 94  1  0  0  0
  6 25  1  0  0  0
  6 95  1  0  0  0
  6 96  1  0  0  0
  7  8  2  0  0  0
  7 26  1  0  0  0
  7 29  1  0  0  0
  8  9  1  0  0  0
  8 22  1  0  0  0
  9 10  1  0  0  0
  9 27  2  0  0  0
 10 11  2  0  0  0
 10 15  1  0  0  0
 11 12  1  0  0  0
 11 97  1  0  0  0
 12 13  2  0  0  0
 12 98  1  0  0  0
 13 14  1  0  0  0
 13 31  1  0  0  0
 14 15  2  0  0  0
 14 99  1  0  0  0
 15100  1  0  0  0
 16 17  2  0  0  0
 16 21  1  0  0  0
 16 31  1  0  0  0
 17 18  1  0  0  0
 17101  1  0  0  0
 18 19  2  0  0  0
 18102  1  0  0  0
 19 20  1  0  0  0
 19 24  1  0  0  0
 20 21  2  0  0  0
 20103  1  0  0  0
 21 23  1  0  0  0
 22 28  1  0  0  0
 22 32  2  0  0  0
 26 27  1  0  0  0
 28104  1  0  0  0
 28105  1  0  0  0
 29106  1  0  0  0
 29107  1  0  0  0
 33 34  1  0  0  0
 33 66  1  0  0  0
 33 70  2  0  0  0
 34 36  1  0  0  0
 34 59  1  0  0  0
 34108  1  0  0  0
 35 44  2  0  0  0
 35 45  1  0  0  0
 35 68  1  0  0  0
 36 56  1  0  0  0
 36109  1  0  0  0
 37 39  1  0  0  0
 37 47  1  0  0  0
 37 66  1  0  0  0
 37110  1  0  0  0
 38 43  2  0  0  0
 38 46  1  0  0  0
 38 47  1  0  0  0
 39 64  1  0  0  0
 39 67  2  0  0  0
 40 52  1  0  0  0
 40 53  2  0  0  0
 40 58  1  0  0  0
 41111  1  0  0  0
 41112  1  0  0  0
 41113  1  0  0  0
 41 48  1  0  0  0
 42 43  1  0  0  0
 42 66  1  0  0  0
 42114  1  0  0  0
 42115  1  0  0  0
 43 44  1  0  0  0
 44116  1  0  0  0
 45 46  2  0  0  0
 45117  1  0  0  0
 46118  1  0  0  0
 47119  1  0  0  0
 47120  1  0  0  0
 48 56  1  0  0  0
 48 65  1  0  0  0
 48121  1  0  0  0
 49 50  1  0  0  0
 49 53  1  0  0  0
 49 64  1  0  0  0
 49122  1  0  0  0
 50 51  1  0  0  0
 50123  1  0  0  0
 50124  1  0  0  0
 51 52  1  0  0  0
 51125  1  0  0  0
 51126  1  0  0  0
 52127  1  0  0  0
 52128  1  0  0  0
 53 54  1  0  0  0
 54 55  2  0  0  0
 54129  1  0  0  0
 55 57  1  0  0  0
 55130  1  0  0  0
 56 69  2  0  0  0
 57 58  2  0  0  0
 57131  1  0  0  0
 58132  1  0  0  0
 59 60  1  0  0  0
 59 61  1  0  0  0
 59 62  1  0  0  0
 60133  1  0  0  0
 60134  1  0  0  0
 60135  1  0  0  0
 61136  1  0  0  0
 61137  1  0  0  0
 61138  1  0  0  0
 62139  1  0  0  0
 62140  1  0  0  0
 62141  1  0  0  0
 63 65  1  0  0  0
 63142  1  0  0  0
 63143  1  0  0  0
 63144  1  0  0  0
 64145  1  0  0  0
 65146  1  0  0  0
 68 80  1  0  0  0
 71 72  2  0  0  0
 71 73  1  0  0  0
 71147  1  0  0  0
 72 74  1  0  0  0
 72 80  1  0  0  0
 73 82  1  0  0  0
 73 85  2  0  0  0
 74 75  1  0  0  0
 74 86  2  0  0  0
 75148  1  0  0  0
 75149  1  0  0  0
 75150  1  0  0  0
 76151  1  0  0  0
 76152  1  0  0  0
 76153  1  0  0  0
 76 82  1  0  0  0
 77154  1  0  0  0
 77155  1  0  0  0
 77156  1  0  0  0
 77 83  1  0  0  0
 78157  1  0  0  0
 78158  1  0  0  0
 78159  1  0  0  0
 78 84  1  0  0  0
 79 84  1  0  0  0
 79160  1  0  0  0
 79161  1  0  0  0
 79162  1  0  0  0
 80163  1  0  0  0
 80164  1  0  0  0
 81 84  1  0  0  0
 81 87  1  0  0  0
 81165  1  0  0  0
 81166  1  0  0  0
 82 83  1  0  0  0
 82167  1  0  0  0
 83 84  1  0  0  0
 83168  1  0  0  0
 85 86  1  0  0  0
 87169  1  0  0  0
M  ISO  4   1 100  68 101  80 101  87 100
M  END
> <chiral flag>
0

> <version>
0

> <s_m_source_file>
/data/baiqing/PycharmProjects/Reinvent-master-3.2/result/LINK_invent/BTK/process_docking_weight1_custom_sum_contain_oxygen_bond_distance_aromatic_linkinvent_7_9_3/rearranged_h_0086.sdf

> <i_m_source_file_index>
18

> <r_mmod_Potential_Energy-OPLS-2005>
253.230926513672

> <r_mmod_Stretch_Energy-OPLS-2005>
86.4499740600586

> <r_mmod_Bend_Energy-OPLS-2005>
177.095184326172

> <r_mmod_Torsional_Energy-OPLS-2005>
375.798156738281

> <r_mmod_Improper_Torsional_Energy-OPLS-2005>
14.1425638198853

> <r_mmod_Van_der_Waal_Energy-OPLS-2005>
191.03173828125

> <r_mmod_Electrostatic_Energy-OPLS-2005>
-423.025360107422

> <r_mmod_Solvation_Energy-OPLS-2005>
-216.114944458008

> <b_mmod_Minimization_Converged-OPLS-2005>
0

> <r_mmod_RMS_Derivative-OPLS-2005>
8.8653621673584

$$$$
18
                    3D
 Structure written by MMmdl.
154162  0  0  1  0            999 V2000
  -31.4206  -14.6729   19.2874 C   0  0  0  0  0  0
  -31.2014  -12.5110   19.9317 C   0  0  0  0  0  0
  -29.8982  -12.2488   19.3951 C   0  0  0  0  0  0
  -28.9261  -13.5899   20.1077 C   0  0  0  0  0  0
  -26.9628  -14.3054   19.6171 C   0  0  2  0  0  0
  -29.4345  -14.4349   20.6551 C   0  0  0  0  0  0
  -24.6544  -14.1600   20.5698 C   0  0  0  0  0  0
  -23.8212  -13.2036   21.0406 C   0  0  0  0  0  0
  -24.3161  -11.8999   20.7705 C   0  0  0  0  0  0
  -23.7764  -10.5320   20.9813 C   0  0  0  0  0  0
  -24.3046   -9.5509   21.8666 C   0  0  0  0  0  0
  -23.6392   -8.3071   22.0460 C   0  0  0  0  0  0
  -22.4381   -8.0395   21.3409 C   0  0  0  0  0  0
  -21.9571   -8.9953   20.4342 C   0  0  0  0  0  0
  -22.6187  -10.2175   20.2549 C   0  0  0  0  0  0
  -21.7108   -6.0760   22.5343 C   0  0  0  0  0  0
  -21.4215   -6.5694   23.8262 C   0  0  0  0  0  0
  -21.3725   -5.6828   24.9220 C   0  0  0  0  0  0
  -21.6035   -4.3073   24.7261 C   0  0  0  0  0  0
  -21.8797   -3.8137   23.4394 C   0  0  0  0  0  0
  -21.9277   -4.6962   22.3463 C   0  0  0  0  0  0
  -22.4563  -13.5519   21.3778 C   0  0  0  0  0  0
  -22.1683   -4.2139   21.1028 F   0  0  0  0  0  0
  -21.5578   -3.4546   25.7767 F   0  0  0  0  0  0
  -31.0336  -13.9206   20.2589 N   0  0  0  0  0  0
  -25.4954  -13.5421   19.8044 N   0  0  0  0  0  0
  -25.1404  -12.1392   19.8013 N   0  0  0  0  0  0
  -21.8256  -12.7654   22.2270 N   0  0  0  0  0  0
  -24.7884  -15.5360   20.6292 N   0  0  0  0  0  0
  -32.3123  -15.4084   19.6179 O   0  0  0  0  0  0
  -21.7028   -6.8792   21.4236 O   0  0  0  0  0  0
  -21.9635  -14.5495   20.8577 O   0  0  0  0  0  0
  -24.7249  -31.7486   23.1206 C   0  0  0  0  0  0
  -25.9634  -32.4196   23.7887 C   0  0  1  0  0  0
  -26.9854  -26.1628   20.2982 C   0  0  0  0  0  0
  -25.6046  -33.8062   24.1716 N   0  0  0  0  0  0
  -23.5555  -30.3502   21.4876 C   0  0  2  0  0  0
  -24.9633  -28.5933   20.1215 C   0  0  0  0  0  0
  -22.7888  -29.4082   22.4587 C   0  0  0  0  0  0
  -18.0353  -28.1434   22.8433 C   0  0  0  0  0  0
  -24.1486  -36.7039   23.2668 C   0  0  0  0  0  0
  -26.1459  -30.2958   21.4608 C   0  0  0  0  0  0
  -26.1543  -28.8089   20.8198 C   0  0  0  0  0  0
  -27.1495  -27.6334   20.8616 C   0  0  0  0  0  0
  -25.8214  -26.3016   19.4910 C   0  0  0  0  0  0
  -24.8703  -27.3775   19.4221 C   0  0  0  0  0  0
  -23.8184  -29.6336   20.1283 C   0  0  0  0  0  0
  -25.4156  -36.2748   24.0254 C   0  0  1  0  0  0
  -20.5998  -28.3812   23.1062 C   0  0  2  0  0  0
  -20.6794  -26.9434   22.5406 C   0  0  0  0  0  0
  -19.5781  -26.6351   21.5214 C   0  0  0  0  0  0
  -18.1961  -26.7957   22.1607 C   0  0  0  0  0  0
  -19.1625  -28.8956   23.2720 C   0  0  0  0  0  0
  -18.9532  -30.1524   23.8790 C   0  0  0  0  0  0
  -17.6522  -30.6611   24.0540 C   0  0  0  0  0  0
  -25.9170  -34.9148   23.4848 C   0  0  0  0  0  0
  -16.5405  -29.9090   23.6353 C   0  0  0  0  0  0
  -16.7331  -28.6509   23.0372 C   0  0  0  0  0  0
  -26.4667  -31.6460   25.0722 C   0  0  0  0  0  0
  -25.3614  -31.3917   26.1261 C   0  0  0  0  0  0
  -27.0690  -30.2757   24.6978 C   0  0  0  0  0  0
  -27.6026  -32.4453   25.7551 C   0  0  0  0  0  0
  -27.5544  -37.1679   24.8470 C   0  0  0  0  0  0
  -21.4510  -29.2995   22.3344 N   0  0  0  0  0  0
  -26.4243  -37.3561   23.9416 N   0  0  0  0  0  0
  -24.8421  -30.8463   22.0724 N   0  0  0  0  0  0
  -23.4156  -28.7706   23.3075 O   0  0  0  0  0  0
  -27.7153  -24.6561   20.3515 O   0  0  0  0  0  0
  -26.5865  -34.8814   22.4504 O   0  0  0  0  0  0
  -23.6192  -32.0821   23.5881 O   0  0  0  0  0  0
  -28.4650  -15.6703   18.6512 C   0  0  0  0  0  0
  -27.3160  -14.7389   21.7424 C   0  0  0  0  0  0
  -27.8171  -16.2981   20.4084 C   0  0  0  0  0  0
  -28.3096  -13.7860   17.9238 C   0  0  0  0  0  0
  -29.5313  -14.6484   15.8748 C   0  0  0  0  0  0
  -27.5485  -18.3687   20.6947 C   0  0  0  0  0  0
  -27.8593  -20.5259   20.2412 C   0  0  0  0  0  0
  -27.3519  -22.6880   20.4834 C   0  0  0  0  0  0
  -29.7177  -13.8649   17.1855 C   0  0  2  0  0  0
  -27.1741  -12.7682   21.2062 N   0  0  0  0  0  0
  -27.5108  -12.2414   19.1371 N   0  0  0  0  0  0
  -30.8892  -14.5555   17.9815 N   0  0  0  0  0  0
  -32.0128  -12.2791   19.2316 H   0  0  0  0  0  0
  -31.3918  -11.9632   20.8565 H   0  0  0  0  0  0
  -29.6720  -11.2190   19.7348 H   0  0  0  0  0  0
  -29.9310  -11.9167   18.3768 H   0  0  0  0  0  0
  -29.1169  -12.5583   20.7712 H   0  0  0  0  0  0
  -27.8138  -14.1500   19.8473 H   0  0  0  0  0  0
  -26.5035  -14.9193   18.7799 H   0  0  0  0  0  0
  -29.5829  -14.4361   21.8091 H   0  0  0  0  0  0
  -29.8215  -15.4792   20.7715 H   0  0  0  0  0  0
  -25.2045   -9.7676   22.4254 H   0  0  0  0  0  0
  -24.0498   -7.5736   22.7249 H   0  0  0  0  0  0
  -21.0591   -8.7883   19.8669 H   0  0  0  0  0  0
  -22.2040  -10.9408   19.5655 H   0  0  0  0  0  0
  -21.2288   -7.6211   23.9793 H   0  0  0  0  0  0
  -21.1542   -6.0539   25.9123 H   0  0  0  0  0  0
  -22.0478   -2.7589   23.2894 H   0  0  0  0  0  0
  -22.2834  -11.9604   22.6283 H   0  0  0  0  0  0
  -20.8707  -12.9697   22.4865 H   0  0  0  0  0  0
  -25.3671  -16.0529   19.9778 H   0  0  0  0  0  0
  -24.0637  -16.1054   21.0510 H   0  0  0  0  0  0
  -26.7765  -32.4516   23.0626 H   0  0  0  0  0  0
  -25.0056  -33.9036   24.9779 H   0  0  0  0  0  0
  -22.9085  -31.2049   21.2817 H   0  0  0  0  0  0
  -23.3779  -35.9332   23.3246 H   0  0  0  0  0  0
  -24.3533  -36.8810   22.2097 H   0  0  0  0  0  0
  -23.7208  -37.6163   23.6832 H   0  0  0  0  0  0
  -26.4142  -30.9782   20.6531 H   0  0  0  0  0  0
  -26.9828  -30.3571   22.1417 H   0  0  0  0  0  0
  -28.0384  -27.8015   21.4505 H   0  0  0  0  0  0
  -25.5520  -25.4220   18.9218 H   0  0  0  0  0  0
  -23.9873  -27.2090   18.8225 H   0  0  0  0  0  0
  -24.0648  -30.3846   19.3773 H   0  0  0  0  0  0
  -22.9001  -29.1630   19.7736 H   0  0  0  0  0  0
  -25.1377  -36.1456   25.0740 H   0  0  0  0  0  0
  -21.0074  -28.3465   24.1190 H   0  0  0  0  0  0
  -20.5608  -26.2447   23.3696 H   0  0  0  0  0  0
  -21.6647  -26.7308   22.1248 H   0  0  0  0  0  0
  -19.6922  -25.6229   21.1314 H   0  0  0  0  0  0
  -19.6732  -27.3093   20.6688 H   0  0  0  0  0  0
  -17.4227  -26.6692   21.4011 H   0  0  0  0  0  0
  -18.0342  -26.0127   22.9030 H   0  0  0  0  0  0
  -19.8005  -30.7361   24.2113 H   0  0  0  0  0  0
  -17.5070  -31.6281   24.5162 H   0  0  0  0  0  0
  -15.5395  -30.2960   23.7748 H   0  0  0  0  0  0
  -15.8726  -28.0796   22.7156 H   0  0  0  0  0  0
  -24.5837  -30.7231   25.7559 H   0  0  0  0  0  0
  -24.8779  -32.3184   26.4358 H   0  0  0  0  0  0
  -25.7690  -30.9295   27.0261 H   0  0  0  0  0  0
  -26.3478  -29.6189   24.2118 H   0  0  0  0  0  0
  -27.4060  -29.7448   25.5892 H   0  0  0  0  0  0
  -27.9476  -30.3796   24.0616 H   0  0  0  0  0  0
  -27.2493  -33.3868   26.1766 H   0  0  0  0  0  0
  -28.3996  -32.6838   25.0499 H   0  0  0  0  0  0
  -28.0522  -31.8855   26.5760 H   0  0  0  0  0  0
  -28.2507  -38.0025   24.7517 H   0  0  0  0  0  0
  -28.1097  -36.2541   24.6294 H   0  0  0  0  0  0
  -27.2272  -37.1303   25.8878 H   0  0  0  0  0  0
  -20.9883  -29.8640   21.6353 H   0  0  0  0  0  0
  -26.0032  -38.2591   24.1432 H   0  0  0  0  0  0
  -28.8923  -16.4208   18.0043 H   0  0  0  0  0  0
  -26.9968  -14.9715   22.7488 H   0  0  0  0  0  0
  -29.3825  -15.7145   16.0275 H   0  0  0  0  0  0
  -28.6665  -14.2734   15.3244 H   0  0  0  0  0  0
  -30.4026  -14.5369   15.2289 H   0  0  0  0  0  0
  -27.7745  -18.3768   21.7614 H   0  0  0  0  0  0
  -26.4589  -18.3537   20.6734 H   0  0  0  0  0  0
  -27.7860  -20.4672   19.1552 H   0  0  0  0  0  0
  -28.9330  -20.5760   20.4183 H   0  0  0  0  0  0
  -27.1577  -22.6755   21.5555 H   0  0  0  0  0  0
  -26.3514  -22.6843   20.0496 H   0  0  0  0  0  0
  -30.0275  -12.9159   16.7550 H   0  0  0  0  0  0
  -31.3779  -15.1956   17.3762 H   0  0  0  0  0  0
  1 25  1  0  0  0
  1 30  2  0  0  0
  1 82  1  0  0  0
  2  3  1  0  0  0
  2 25  1  0  0  0
  2 83  1  0  0  0
  2 84  1  0  0  0
  3  4  1  0  0  0
  3 85  1  0  0  0
  3 86  1  0  0  0
  4  5  1  0  0  0
  4 87  1  0  0  0
  4 88  1  0  0  0
  5  6  1  0  0  0
  5 26  1  0  0  0
  5 89  1  0  0  0
  6 25  1  0  0  0
  6 90  1  0  0  0
  6 91  1  0  0  0
  7  8  2  0  0  0
  7 26  1  0  0  0
  7 29  1  0  0  0
  8  9  1  0  0  0
  8 22  1  0  0  0
  9 10  1  0  0  0
  9 27  2  0  0  0
 10 11  2  0  0  0
 10 15  1  0  0  0
 11 12  1  0  0  0
 11 92  1  0  0  0
 12 13  2  0  0  0
 12 93  1  0  0  0
 13 14  1  0  0  0
 13 31  1  0  0  0
 14 15  2  0  0  0
 14 94  1  0  0  0
 15 95  1  0  0  0
 16 17  2  0  0  0
 16 21  1  0  0  0
 16 31  1  0  0  0
 17 18  1  0  0  0
 17 96  1  0  0  0
 18 19  2  0  0  0
 18 97  1  0  0  0
 19 20  1  0  0  0
 19 24  1  0  0  0
 20 21  2  0  0  0
 20 98  1  0  0  0
 21 23  1  0  0  0
 22 28  1  0  0  0
 22 32  2  0  0  0
 26 27  1  0  0  0
 28 99  1  0  0  0
 28100  1  0  0  0
 29101  1  0  0  0
 29102  1  0  0  0
 33 34  1  0  0  0
 33 66  1  0  0  0
 33 70  2  0  0  0
 34 36  1  0  0  0
 34 59  1  0  0  0
 34103  1  0  0  0
 35 44  2  0  0  0
 35 45  1  0  0  0
 35 68  1  0  0  0
 36 56  1  0  0  0
 36104  1  0  0  0
 37 39  1  0  0  0
 37 47  1  0  0  0
 37 66  1  0  0  0
 37105  1  0  0  0
 38 43  2  0  0  0
 38 46  1  0  0  0
 38 47  1  0  0  0
 39 64  1  0  0  0
 39 67  2  0  0  0
 40 52  1  0  0  0
 40 53  2  0  0  0
 40 58  1  0  0  0
 41106  1  0  0  0
 41107  1  0  0  0
 41108  1  0  0  0
 41 48  1  0  0  0
 42 43  1  0  0  0
 42 66  1  0  0  0
 42109  1  0  0  0
 42110  1  0  0  0
 43 44  1  0  0  0
 44111  1  0  0  0
 45 46  2  0  0  0
 45112  1  0  0  0
 46113  1  0  0  0
 47114  1  0  0  0
 47115  1  0  0  0
 48 56  1  0  0  0
 48 65  1  0  0  0
 48116  1  0  0  0
 49 50  1  0  0  0
 49 53  1  0  0  0
 49 64  1  0  0  0
 49117  1  0  0  0
 50 51  1  0  0  0
 50118  1  0  0  0
 50119  1  0  0  0
 51 52  1  0  0  0
 51120  1  0  0  0
 51121  1  0  0  0
 52122  1  0  0  0
 52123  1  0  0  0
 53 54  1  0  0  0
 54 55  2  0  0  0
 54124  1  0  0  0
 55 57  1  0  0  0
 55125  1  0  0  0
 56 69  2  0  0  0
 57 58  2  0  0  0
 57126  1  0  0  0
 58127  1  0  0  0
 59 60  1  0  0  0
 59 61  1  0  0  0
 59 62  1  0  0  0
 60128  1  0  0  0
 60129  1  0  0  0
 60130  1  0  0  0
 61131  1  0  0  0
 61132  1  0  0  0
 61133  1  0  0  0
 62134  1  0  0  0
 62135  1  0  0  0
 62136  1  0  0  0
 63 65  1  0  0  0
 63137  1  0  0  0
 63138  1  0  0  0
 63139  1  0  0  0
 64140  1  0  0  0
 65141  1  0  0  0
 68 78  1  0  0  0
 71 73  2  0  0  0
 71 74  1  0  0  0
 71142  1  0  0  0
 72 73  1  0  0  0
 72 80  2  0  0  0
 72143  1  0  0  0
 73 76  1  0  0  0
 74 79  1  0  0  0
 74 81  2  0  0  0
 75144  1  0  0  0
 75145  1  0  0  0
 75146  1  0  0  0
 75 79  1  0  0  0
 76 77  1  0  0  0
 76147  1  0  0  0
 76148  1  0  0  0
 77 78  1  0  0  0
 77149  1  0  0  0
 77150  1  0  0  0
 78151  1  0  0  0
 78152  1  0  0  0
 79 82  1  0  0  0
 79153  1  0  0  0
 80 81  1  0  0  0
 82154  1  0  0  0
M  ISO  4   1 100  68 101  78 101  82 100
M  END
> <chiral flag>
0

> <version>
0

> <s_m_source_file>
/data/baiqing/PycharmProjects/Reinvent-master-3.2/result/LINK_invent/BTK/process_docking_weight1_custom_sum_contain_oxygen_bond_distance_aromatic_linkinvent_7_9_3/rearranged_h_0086.sdf

> <i_m_source_file_index>
19

> <r_mmod_Potential_Energy-OPLS-2005>
20931.7109375

> <r_mmod_Stretch_Energy-OPLS-2005>
10915.1591796875

> <r_mmod_Bend_Energy-OPLS-2005>
2717.44482421875

> <r_mmod_Torsional_Energy-OPLS-2005>
462.50927734375

> <r_mmod_Improper_Torsional_Energy-OPLS-2005>
48.2150039672852

> <r_mmod_Van_der_Waal_Energy-OPLS-2005>
4229.107421875

> <r_mmod_Electrostatic_Energy-OPLS-2005>
-350.661651611328

> <r_mmod_Solvation_Energy-OPLS-2005>
-265.842742919922

> <b_mmod_Minimization_Converged-OPLS-2005>
0

> <r_mmod_RMS_Derivative-OPLS-2005>
6.72346162796021

$$$$
19
                    3D
 Structure written by MMmdl.
176184  0  0  1  0            999 V2000
  -30.7701  -14.3793   20.6871 C   0  0  0  0  0  0
  -30.4102  -12.2971   19.4121 C   0  0  0  0  0  0
  -29.4901  -12.5314   18.2021 C   0  0  0  0  0  0
  -28.0146  -12.3817   18.6136 C   0  0  0  0  0  0
  -27.6642  -13.2078   19.8797 C   0  0  2  0  0  0
  -28.6956  -12.9716   21.0033 C   0  0  0  0  0  0
  -25.2596  -13.8157   20.5646 C   0  0  0  0  0  0
  -24.1843  -13.0424   20.9125 C   0  0  0  0  0  0
  -24.6405  -11.6894   20.8697 C   0  0  0  0  0  0
  -23.9078  -10.4276   21.0393 C   0  0  0  0  0  0
  -24.3632   -9.4199   21.9176 C   0  0  0  0  0  0
  -23.6297   -8.2245   22.0764 C   0  0  0  0  0  0
  -22.4279   -8.0280   21.3553 C   0  0  0  0  0  0
  -21.9919   -9.0249   20.4651 C   0  0  0  0  0  0
  -22.7255  -10.2118   20.3048 C   0  0  0  0  0  0
  -21.6853   -6.0732   22.5271 C   0  0  0  0  0  0
  -21.4019   -6.5638   23.8196 C   0  0  0  0  0  0
  -21.3664   -5.6794   24.9160 C   0  0  0  0  0  0
  -21.6045   -4.3056   24.7213 C   0  0  0  0  0  0
  -21.8820   -3.8146   23.4331 C   0  0  0  0  0  0
  -21.9192   -4.6962   22.3390 C   0  0  0  0  0  0
  -22.7870  -13.5230   21.1811 C   0  0  0  0  0  0
  -22.1657   -4.2149   21.0965 F   0  0  0  0  0  0
  -21.5635   -3.4540   25.7726 F   0  0  0  0  0  0
  -30.0401  -13.2549   20.4672 N   0  0  0  0  0  0
  -26.3036  -12.9330   20.3354 N   0  0  0  0  0  0
  -25.9333  -11.6486   20.5733 N   0  0  0  0  0  0
  -22.0538  -12.8209   22.0370 N   0  0  0  0  0  0
  -25.4323  -15.1872   20.4066 N   0  0  0  0  0  0
  -31.7897  -14.6495   20.0475 O   0  0  0  0  0  0
  -21.6639   -6.8878   21.4238 O   0  0  0  0  0  0
  -22.3551  -14.5545   20.6677 O   0  0  0  0  0  0
  -24.6233  -31.8673   23.2080 C   0  0  0  0  0  0
  -25.9125  -32.4790   23.8414 C   0  0  1  0  0  0
  -27.2277  -27.4148   20.0806 C   0  0  0  0  0  0
  -25.5977  -33.8582   24.2356 N   0  0  0  0  0  0
  -23.4116  -30.4934   21.5518 C   0  0  2  0  0  0
  -24.8508  -28.9615   20.1143 C   0  0  0  0  0  0
  -22.7464  -29.4677   22.5018 C   0  0  0  0  0  0
  -18.0289  -28.1364   22.8517 C   0  0  0  0  0  0
  -24.1482  -36.7304   23.2650 C   0  0  0  0  0  0
  -25.9447  -30.8246   21.3672 C   0  0  0  0  0  0
  -26.0157  -29.4597   20.7090 C   0  0  0  0  0  0
  -27.2066  -28.6922   20.6913 C   0  0  0  0  0  0
  -26.0413  -26.9448   19.4678 C   0  0  0  0  0  0
  -24.8577  -27.7029   19.4952 C   0  0  0  0  0  0
  -23.6166  -29.8299   20.1654 C   0  0  0  0  0  0
  -25.4097  -36.3080   24.0356 C   0  0  1  0  0  0
  -20.5887  -28.3671   23.1306 C   0  0  2  0  0  0
  -20.6781  -26.9406   22.5397 C   0  0  0  0  0  0
  -19.5743  -26.6380   21.5217 C   0  0  0  0  0  0
  -18.1918  -26.7921   22.1623 C   0  0  0  0  0  0
  -19.1534  -28.8829   23.2899 C   0  0  0  0  0  0
  -18.9470  -30.1439   23.8901 C   0  0  0  0  0  0
  -17.6459  -30.6567   24.0569 C   0  0  0  0  0  0
  -25.9030  -34.9441   23.5111 C   0  0  0  0  0  0
  -16.5358  -29.9056   23.6333 C   0  0  0  0  0  0
  -16.7266  -28.6465   23.0366 C   0  0  0  0  0  0
  -26.4469  -31.6591   25.0788 C   0  0  0  0  0  0
  -25.3720  -31.3698   26.1548 C   0  0  0  0  0  0
  -27.0311  -30.3036   24.6160 C   0  0  0  0  0  0
  -27.6039  -32.4323   25.7527 C   0  0  0  0  0  0
  -27.5560  -37.1800   24.8461 C   0  0  0  0  0  0
  -21.4179  -29.3054   22.3739 N   0  0  0  0  0  0
  -26.4267  -37.3779   23.9422 N   0  0  0  0  0  0
  -24.6795  -31.0759   22.0995 N   0  0  0  0  0  0
  -23.4201  -28.8232   23.3103 O   0  0  0  0  0  0
  -28.3994  -26.6734   20.0803 O   0  0  0  0  0  0
  -26.5520  -34.8874   22.4629 O   0  0  0  0  0  0
  -23.5424  -32.1438   23.7455 O   0  0  0  0  0  0
  -31.0120  -19.8460   18.4770 C   0  0  0  0  0  0
  -32.1440  -19.1160   18.8710 C   0  0  0  0  0  0
  -32.1052  -18.4113   20.1024 C   0  0  0  0  0  0
  -29.8807  -19.8391   19.3004 C   0  0  0  0  0  0
  -30.8788  -18.3641   20.8275 C   0  0  0  0  0  0
  -33.3862  -17.7870   20.6457 C   0  0  0  0  0  0
  -34.2498  -20.4063   18.3024 C   0  0  0  0  0  0
  -29.2638  -17.7868   22.7739 C   0  0  0  0  0  0
  -27.9503  -24.8508   21.6036 C   0  0  0  0  0  0
  -33.3820  -19.1800   17.9860 C   0  0  0  0  0  0
  -28.6790  -20.7212   18.9960 C   0  0  0  0  0  0
  -28.7103  -22.0903   19.7160 C   0  0  0  0  0  0
  -29.4701  -23.2044   18.9622 C   0  0  0  0  0  0
  -29.6201  -24.5638   19.6997 C   0  0  0  0  0  0
  -31.1854  -16.1848   22.3511 C   0  0  0  0  0  0
  -30.6988  -17.6642   22.2032 C   0  0  1  0  0  0
  -28.3010  -25.2320   20.1545 C   0  0  2  0  0  0
  -29.8089  -19.0886   20.4172 N   0  0  0  0  0  0
  -30.3685  -15.1455   21.7132 N   0  0  0  0  0  0
  -31.4573  -12.3837   19.1170 H   0  0  0  0  0  0
  -30.2943  -11.2778   19.7862 H   0  0  0  0  0  0
  -29.7326  -11.8289   17.4048 H   0  0  0  0  0  0
  -29.6617  -13.5303   17.7958 H   0  0  0  0  0  0
  -27.8274  -11.3221   18.7961 H   0  0  0  0  0  0
  -27.3644  -12.6673   17.7865 H   0  0  0  0  0  0
  -27.7190  -14.2607   19.6024 H   0  0  0  0  0  0
  -28.6537  -11.9353   21.3459 H   0  0  0  0  0  0
  -28.4384  -13.5734   21.8750 H   0  0  0  0  0  0
  -25.2791   -9.5655   22.4736 H   0  0  0  0  0  0
  -23.9990   -7.4642   22.7501 H   0  0  0  0  0  0
  -21.0845   -8.8768   19.8962 H   0  0  0  0  0  0
  -22.3731  -10.9648   19.6139 H   0  0  0  0  0  0
  -21.2016   -7.6149   23.9695 H   0  0  0  0  0  0
  -21.1496   -6.0528   25.9058 H   0  0  0  0  0  0
  -22.0603   -2.7610   23.2826 H   0  0  0  0  0  0
  -22.4181  -11.9852   22.4701 H   0  0  0  0  0  0
  -21.1168  -13.1225   22.2619 H   0  0  0  0  0  0
  -24.6723  -15.8484   20.5223 H   0  0  0  0  0  0
  -26.2955  -15.6247   20.1093 H   0  0  0  0  0  0
  -26.7268  -32.5450   23.1254 H   0  0  0  0  0  0
  -25.0291  -33.9757   25.0601 H   0  0  0  0  0  0
  -22.7060  -31.3150   21.4100 H   0  0  0  0  0  0
  -23.3709  -35.9667   23.3294 H   0  0  0  0  0  0
  -24.3617  -36.8917   22.2077 H   0  0  0  0  0  0
  -23.7251  -37.6525   23.6636 H   0  0  0  0  0  0
  -26.0663  -31.5949   20.6041 H   0  0  0  0  0  0
  -26.8326  -30.8696   21.9856 H   0  0  0  0  0  0
  -28.1058  -29.0629   21.1624 H   0  0  0  0  0  0
  -25.9919  -26.0051   18.9385 H   0  0  0  0  0  0
  -23.9644  -27.3184   19.0256 H   0  0  0  0  0  0
  -23.7253  -30.6031   19.4044 H   0  0  0  0  0  0
  -22.7396  -29.2507   19.8741 H   0  0  0  0  0  0
  -25.1257  -36.1957   25.0850 H   0  0  0  0  0  0
  -20.9960  -28.3225   24.1435 H   0  0  0  0  0  0
  -20.5707  -26.2276   23.3595 H   0  0  0  0  0  0
  -21.6646  -26.7457   22.1170 H   0  0  0  0  0  0
  -19.6875  -25.6283   21.1254 H   0  0  0  0  0  0
  -19.6654  -27.3203   20.6759 H   0  0  0  0  0  0
  -17.4199  -26.6752   21.4010 H   0  0  0  0  0  0
  -18.0243  -26.0045   22.8983 H   0  0  0  0  0  0
  -19.7941  -30.7265   24.2267 H   0  0  0  0  0  0
  -17.5000  -31.6244   24.5165 H   0  0  0  0  0  0
  -15.5339  -30.2923   23.7643 H   0  0  0  0  0  0
  -15.8703  -28.0752   22.7066 H   0  0  0  0  0  0
  -24.5914  -30.7000   25.7926 H   0  0  0  0  0  0
  -24.8860  -32.2822   26.5001 H   0  0  0  0  0  0
  -25.8096  -30.8898   27.0317 H   0  0  0  0  0  0
  -26.2847  -29.6800   24.1229 H   0  0  0  0  0  0
  -27.4124  -29.7295   25.4615 H   0  0  0  0  0  0
  -27.8643  -30.4389   23.9265 H   0  0  0  0  0  0
  -27.2678  -33.3654   26.2057 H   0  0  0  0  0  0
  -28.3824  -32.6865   25.0322 H   0  0  0  0  0  0
  -28.0706  -31.8480   26.5476 H   0  0  0  0  0  0
  -28.2567  -38.0112   24.7502 H   0  0  0  0  0  0
  -28.1059  -36.2628   24.6255 H   0  0  0  0  0  0
  -27.2271  -37.1427   25.8867 H   0  0  0  0  0  0
  -20.9348  -29.8828   21.7008 H   0  0  0  0  0  0
  -26.0144  -38.2853   24.1412 H   0  0  0  0  0  0
  -31.0286  -20.4466   17.5770 H   0  0  0  0  0  0
  -34.2751  -18.3234   20.3220 H   0  0  0  0  0  0
  -33.4869  -16.7516   20.3228 H   0  0  0  0  0  0
  -33.4133  -17.8306   21.7326 H   0  0  0  0  0  0
  -35.1353  -20.4338   17.6658 H   0  0  0  0  0  0
  -34.5802  -20.3991   19.3403 H   0  0  0  0  0  0
  -33.6930  -21.3292   18.1386 H   0  0  0  0  0  0
  -28.9693  -18.8316   22.8788 H   0  0  0  0  0  0
  -29.1906  -17.3391   23.7640 H   0  0  0  0  0  0
  -28.5293  -17.2984   22.1330 H   0  0  0  0  0  0
  -28.7210  -25.1912   22.2961 H   0  0  0  0  0  0
  -27.8646  -23.7732   21.7257 H   0  0  0  0  0  0
  -27.0026  -25.2860   21.9168 H   0  0  0  0  0  0
  -33.0642  -19.2246   16.9431 H   0  0  0  0  0  0
  -33.9663  -18.2649   18.0636 H   0  0  0  0  0  0
  -27.7916  -20.1733   19.3207 H   0  0  0  0  0  0
  -28.5655  -20.8484   17.9187 H   0  0  0  0  0  0
  -29.1008  -21.9649   20.7274 H   0  0  0  0  0  0
  -27.6751  -22.4157   19.8276 H   0  0  0  0  0  0
  -28.9794  -23.3803   18.0041 H   0  0  0  0  0  0
  -30.4681  -22.8379   18.7187 H   0  0  0  0  0  0
  -30.1220  -25.2410   19.0081 H   0  0  0  0  0  0
  -30.2995  -24.4569   20.5487 H   0  0  0  0  0  0
  -31.1839  -15.9466   23.4154 H   0  0  0  0  0  0
  -32.2281  -16.0612   22.0800 H   0  0  0  0  0  0
  -31.3279  -18.2531   22.8734 H   0  0  0  0  0  0
  -27.5402  -24.8412   19.4863 H   0  0  0  0  0  0
  -29.5305  -14.8551   22.1949 H   0  0  0  0  0  0
  1 25  1  0  0  0
  1 30  2  0  0  0
  1 89  1  0  0  0
  2  3  1  0  0  0
  2 25  1  0  0  0
  2 90  1  0  0  0
  2 91  1  0  0  0
  3  4  1  0  0  0
  3 92  1  0  0  0
  3 93  1  0  0  0
  4  5  1  0  0  0
  4 94  1  0  0  0
  4 95  1  0  0  0
  5  6  1  0  0  0
  5 26  1  0  0  0
  5 96  1  0  0  0
  6 25  1  0  0  0
  6 97  1  0  0  0
  6 98  1  0  0  0
  7  8  2  0  0  0
  7 26  1  0  0  0
  7 29  1  0  0  0
  8  9  1  0  0  0
  8 22  1  0  0  0
  9 10  1  0  0  0
  9 27  2  0  0  0
 10 11  2  0  0  0
 10 15  1  0  0  0
 11 12  1  0  0  0
 11 99  1  0  0  0
 12 13  2  0  0  0
 12100  1  0  0  0
 13 14  1  0  0  0
 13 31  1  0  0  0
 14 15  2  0  0  0
 14101  1  0  0  0
 15102  1  0  0  0
 16 17  2  0  0  0
 16 21  1  0  0  0
 16 31  1  0  0  0
 17 18  1  0  0  0
 17103  1  0  0  0
 18 19  2  0  0  0
 18104  1  0  0  0
 19 20  1  0  0  0
 19 24  1  0  0  0
 20 21  2  0  0  0
 20105  1  0  0  0
 21 23  1  0  0  0
 22 28  1  0  0  0
 22 32  2  0  0  0
 26 27  1  0  0  0
 28106  1  0  0  0
 28107  1  0  0  0
 29108  1  0  0  0
 29109  1  0  0  0
 33 34  1  0  0  0
 33 66  1  0  0  0
 33 70  2  0  0  0
 34 36  1  0  0  0
 34 59  1  0  0  0
 34110  1  0  0  0
 35 44  2  0  0  0
 35 45  1  0  0  0
 35 68  1  0  0  0
 36 56  1  0  0  0
 36111  1  0  0  0
 37 39  1  0  0  0
 37 47  1  0  0  0
 37 66  1  0  0  0
 37112  1  0  0  0
 38 43  2  0  0  0
 38 46  1  0  0  0
 38 47  1  0  0  0
 39 64  1  0  0  0
 39 67  2  0  0  0
 40 52  1  0  0  0
 40 53  2  0  0  0
 40 58  1  0  0  0
 41113  1  0  0  0
 41114  1  0  0  0
 41115  1  0  0  0
 41 48  1  0  0  0
 42 43  1  0  0  0
 42 66  1  0  0  0
 42116  1  0  0  0
 42117  1  0  0  0
 43 44  1  0  0  0
 44118  1  0  0  0
 45 46  2  0  0  0
 45119  1  0  0  0
 46120  1  0  0  0
 47121  1  0  0  0
 47122  1  0  0  0
 48 56  1  0  0  0
 48 65  1  0  0  0
 48123  1  0  0  0
 49 50  1  0  0  0
 49 53  1  0  0  0
 49 64  1  0  0  0
 49124  1  0  0  0
 50 51  1  0  0  0
 50125  1  0  0  0
 50126  1  0  0  0
 51 52  1  0  0  0
 51127  1  0  0  0
 51128  1  0  0  0
 52129  1  0  0  0
 52130  1  0  0  0
 53 54  1  0  0  0
 54 55  2  0  0  0
 54131  1  0  0  0
 55 57  1  0  0  0
 55132  1  0  0  0
 56 69  2  0  0  0
 57 58  2  0  0  0
 57133  1  0  0  0
 58134  1  0  0  0
 59 60  1  0  0  0
 59 61  1  0  0  0
 59 62  1  0  0  0
 60135  1  0  0  0
 60136  1  0  0  0
 60137  1  0  0  0
 61138  1  0  0  0
 61139  1  0  0  0
 61140  1  0  0  0
 62141  1  0  0  0
 62142  1  0  0  0
 62143  1  0  0  0
 63 65  1  0  0  0
 63144  1  0  0  0
 63145  1  0  0  0
 63146  1  0  0  0
 64147  1  0  0  0
 65148  1  0  0  0
 68 87  1  0  0  0
 71 72  2  0  0  0
 71 74  1  0  0  0
 71149  1  0  0  0
 72 73  1  0  0  0
 72 80  1  0  0  0
 73 75  2  0  0  0
 73 76  1  0  0  0
 74 81  1  0  0  0
 74 88  2  0  0  0
 75 86  1  0  0  0
 75 88  1  0  0  0
 76150  1  0  0  0
 76151  1  0  0  0
 76152  1  0  0  0
 77 80  1  0  0  0
 77153  1  0  0  0
 77154  1  0  0  0
 77155  1  0  0  0
 78156  1  0  0  0
 78157  1  0  0  0
 78158  1  0  0  0
 78 86  1  0  0  0
 79159  1  0  0  0
 79160  1  0  0  0
 79161  1  0  0  0
 79 87  1  0  0  0
 80162  1  0  0  0
 80163  1  0  0  0
 81 82  1  0  0  0
 81164  1  0  0  0
 81165  1  0  0  0
 82 83  1  0  0  0
 82166  1  0  0  0
 82167  1  0  0  0
 83 84  1  0  0  0
 83168  1  0  0  0
 83169  1  0  0  0
 84 87  1  0  0  0
 84170  1  0  0  0
 84171  1  0  0  0
 85 86  1  0  0  0
 85 89  1  0  0  0
 85172  1  0  0  0
 85173  1  0  0  0
 86174  1  0  0  0
 87175  1  0  0  0
 89176  1  0  0  0
M  ISO  4   1 100  68 101  87 101  89 100
M  END
> <chiral flag>
0

> <version>
0

> <s_m_source_file>
/data/baiqing/PycharmProjects/Reinvent-master-3.2/result/LINK_invent/BTK/process_docking_weight1_custom_sum_contain_oxygen_bond_distance_aromatic_linkinvent_7_9_3/rearranged_h_0086.sdf

> <i_m_source_file_index>
20

> <r_mmod_Potential_Energy-OPLS-2005>
-192.660888671875

> <r_mmod_Stretch_Energy-OPLS-2005>
42.6992530822754

> <r_mmod_Bend_Energy-OPLS-2005>
115.756652832031

> <r_mmod_Torsional_Energy-OPLS-2005>
228.541198730469

> <r_mmod_Improper_Torsional_Energy-OPLS-2005>
3.29422187805176

> <r_mmod_Van_der_Waal_Energy-OPLS-2005>
164.770401000977

> <r_mmod_Electrostatic_Energy-OPLS-2005>
-551.718872070312

> <r_mmod_Solvation_Energy-OPLS-2005>
-206.405807495117

> <b_mmod_Minimization_Converged-OPLS-2005>
0

> <r_mmod_RMS_Derivative-OPLS-2005>
3.72877216339111

$$$$
20
                    3D
 Structure written by MMmdl.
160168  0  0  1  0            999 V2000
  -30.6707  -14.5157   20.5811 C   0  0  0  0  0  0
  -30.4396  -12.3328   19.4341 C   0  0  0  0  0  0
  -29.5051  -12.5170   18.2174 C   0  0  0  0  0  0
  -28.0257  -12.3692   18.6270 C   0  0  0  0  0  0
  -27.6687  -13.2042   19.8851 C   0  0  2  0  0  0
  -28.7113  -12.9775   21.0062 C   0  0  0  0  0  0
  -25.2616  -13.8151   20.5681 C   0  0  0  0  0  0
  -24.1851  -13.0435   20.9162 C   0  0  0  0  0  0
  -24.6399  -11.6902   20.8724 C   0  0  0  0  0  0
  -23.9058  -10.4291   21.0396 C   0  0  0  0  0  0
  -24.3610   -9.4211   21.9181 C   0  0  0  0  0  0
  -23.6288   -8.2246   22.0755 C   0  0  0  0  0  0
  -22.4272   -8.0279   21.3542 C   0  0  0  0  0  0
  -21.9903   -9.0252   20.4643 C   0  0  0  0  0  0
  -22.7229  -10.2132   20.3051 C   0  0  0  0  0  0
  -21.6853   -6.0733   22.5277 C   0  0  0  0  0  0
  -21.4012   -6.5638   23.8210 C   0  0  0  0  0  0
  -21.3661   -5.6792   24.9174 C   0  0  0  0  0  0
  -21.6044   -4.3054   24.7224 C   0  0  0  0  0  0
  -21.8822   -3.8144   23.4347 C   0  0  0  0  0  0
  -21.9193   -4.6961   22.3400 C   0  0  0  0  0  0
  -22.7875  -13.5238   21.1828 C   0  0  0  0  0  0
  -22.1662   -4.2144   21.0978 F   0  0  0  0  0  0
  -21.5632   -3.4537   25.7740 F   0  0  0  0  0  0
  -30.0459  -13.3066   20.4682 N   0  0  0  0  0  0
  -26.3062  -12.9311   20.3407 N   0  0  0  0  0  0
  -25.9333  -11.6473   20.5786 N   0  0  0  0  0  0
  -22.0507  -12.8231   22.0386 N   0  0  0  0  0  0
  -25.4341  -15.1867   20.4086 N   0  0  0  0  0  0
  -31.7513  -14.7665   20.0398 O   0  0  0  0  0  0
  -21.6639   -6.8875   21.4237 O   0  0  0  0  0  0
  -22.3567  -14.5551   20.6692 O   0  0  0  0  0  0
  -24.6189  -31.8655   23.2092 C   0  0  0  0  0  0
  -25.9072  -32.4806   23.8393 C   0  0  1  0  0  0
  -27.2403  -27.3899   20.0987 C   0  0  0  0  0  0
  -25.5909  -33.8600   24.2322 N   0  0  0  0  0  0
  -23.4096  -30.4882   21.5499 C   0  0  2  0  0  0
  -24.8585  -28.9550   20.1124 C   0  0  0  0  0  0
  -22.7428  -29.4639   22.4968 C   0  0  0  0  0  0
  -18.0270  -28.1376   22.8480 C   0  0  0  0  0  0
  -24.1495  -36.7313   23.2634 C   0  0  0  0  0  0
  -25.9441  -30.8151   21.3721 C   0  0  0  0  0  0
  -26.0219  -29.4485   20.7148 C   0  0  0  0  0  0
  -27.2121  -28.6744   20.7060 C   0  0  0  0  0  0
  -26.0521  -26.9355   19.4721 C   0  0  0  0  0  0
  -24.8711  -27.6987   19.4884 C   0  0  0  0  0  0
  -23.6222  -29.8246   20.1638 C   0  0  0  0  0  0
  -25.4114  -36.3099   24.0336 C   0  0  1  0  0  0
  -20.5863  -28.3668   23.1287 C   0  0  2  0  0  0
  -20.6779  -26.9399   22.5400 C   0  0  0  0  0  0
  -19.5763  -26.6385   21.5192 C   0  0  0  0  0  0
  -18.1938  -26.7924   22.1606 C   0  0  0  0  0  0
  -19.1521  -28.8835   23.2883 C   0  0  0  0  0  0
  -18.9458  -30.1441   23.8894 C   0  0  0  0  0  0
  -17.6467  -30.6589   24.0554 C   0  0  0  0  0  0
  -25.9039  -34.9463   23.5129 C   0  0  0  0  0  0
  -16.5351  -29.9093   23.6325 C   0  0  0  0  0  0
  -16.7262  -28.6511   23.0341 C   0  0  0  0  0  0
  -26.4489  -31.6578   25.0725 C   0  0  0  0  0  0
  -25.3746  -31.3686   26.1460 C   0  0  0  0  0  0
  -27.0319  -30.3012   24.6126 C   0  0  0  0  0  0
  -27.6051  -32.4303   25.7497 C   0  0  0  0  0  0
  -27.5595  -37.1814   24.8465 C   0  0  0  0  0  0
  -21.4148  -29.3041   22.3702 N   0  0  0  0  0  0
  -26.4301  -37.3780   23.9408 N   0  0  0  0  0  0
  -24.6757  -31.0725   22.1011 N   0  0  0  0  0  0
  -23.4167  -28.8154   23.3016 O   0  0  0  0  0  0
  -28.3958  -26.6075   20.1368 O   0  0  0  0  0  0
  -26.5603  -34.8921   22.4688 O   0  0  0  0  0  0
  -23.5372  -32.1424   23.7460 O   0  0  0  0  0  0
  -30.0459  -20.3974   20.6587 C   0  0  0  0  0  0
  -29.4068  -21.6047   21.0799 C   0  0  0  0  0  0
  -30.2422  -19.3484   21.6017 C   0  0  0  0  0  0
  -29.0120  -21.6460   22.4462 C   0  0  0  0  0  0
  -26.9457  -22.3284   23.8030 C   0  0  0  0  0  0
  -29.0273  -22.7067   20.0552 C   0  0  0  0  0  0
  -30.8235  -17.9508   21.2693 C   0  0  0  0  0  0
  -28.2193  -22.7899   23.0763 C   0  0  0  0  0  0
  -29.3946  -24.2173   20.3184 C   0  0  0  0  0  0
  -29.7597  -16.9005   20.8237 C   0  0  0  0  0  0
  -28.2432  -25.1838   19.8820 C   0  0  0  0  0  0
  -29.8872  -19.5121   22.8974 N   0  0  0  0  0  0
  -29.3094  -20.6422   23.3106 N   0  0  0  0  0  0
  -29.9457  -15.4727   21.1972 N   0  0  0  0  0  0
  -31.4814  -12.4518   19.1322 H   0  0  0  0  0  0
  -30.3587  -11.3193   19.8292 H   0  0  0  0  0  0
  -29.7505  -11.7903   17.4411 H   0  0  0  0  0  0
  -29.6648  -13.5017   17.7750 H   0  0  0  0  0  0
  -27.8398  -11.3118   18.8218 H   0  0  0  0  0  0
  -27.3754  -12.6443   17.7956 H   0  0  0  0  0  0
  -27.7157  -14.2528   19.5923 H   0  0  0  0  0  0
  -28.6959  -11.9353   21.3289 H   0  0  0  0  0  0
  -28.4591  -13.5554   21.8960 H   0  0  0  0  0  0
  -25.2753   -9.5693   22.4755 H   0  0  0  0  0  0
  -23.9996   -7.4641   22.7480 H   0  0  0  0  0  0
  -21.0834   -8.8768   19.8949 H   0  0  0  0  0  0
  -22.3682  -10.9671   19.6161 H   0  0  0  0  0  0
  -21.2003   -7.6146   23.9710 H   0  0  0  0  0  0
  -21.1482   -6.0523   25.9077 H   0  0  0  0  0  0
  -22.0599   -2.7607   23.2849 H   0  0  0  0  0  0
  -22.4120  -11.9890   22.4769 H   0  0  0  0  0  0
  -21.1132  -13.1271   22.2595 H   0  0  0  0  0  0
  -24.6683  -15.8438   20.5126 H   0  0  0  0  0  0
  -26.2915  -15.6231   20.0933 H   0  0  0  0  0  0
  -26.7132  -32.5524   23.1150 H   0  0  0  0  0  0
  -25.0044  -33.9746   25.0456 H   0  0  0  0  0  0
  -22.7007  -31.3072   21.4128 H   0  0  0  0  0  0
  -23.3747  -35.9659   23.3296 H   0  0  0  0  0  0
  -24.3570  -36.8932   22.2045 H   0  0  0  0  0  0
  -23.7268  -37.6528   23.6648 H   0  0  0  0  0  0
  -26.0643  -31.5812   20.6055 H   0  0  0  0  0  0
  -26.8282  -30.8642   21.9955 H   0  0  0  0  0  0
  -28.1059  -29.0490   21.1864 H   0  0  0  0  0  0
  -26.0080  -25.9851   18.9616 H   0  0  0  0  0  0
  -23.9791  -27.3132   19.0129 H   0  0  0  0  0  0
  -23.7368  -30.6030   19.4085 H   0  0  0  0  0  0
  -22.7453  -29.2483   19.8635 H   0  0  0  0  0  0
  -25.1294  -36.1960   25.0831 H   0  0  0  0  0  0
  -20.9932  -28.3246   24.1414 H   0  0  0  0  0  0
  -20.5671  -26.2286   23.3604 H   0  0  0  0  0  0
  -21.6661  -26.7447   22.1209 H   0  0  0  0  0  0
  -19.6926  -25.6293   21.1239 H   0  0  0  0  0  0
  -19.6714  -27.3182   20.6716 H   0  0  0  0  0  0
  -17.4213  -26.6646   21.4012 H   0  0  0  0  0  0
  -18.0350  -26.0059   22.8999 H   0  0  0  0  0  0
  -19.7938  -30.7231   24.2285 H   0  0  0  0  0  0
  -17.5037  -31.6273   24.5157 H   0  0  0  0  0  0
  -15.5355  -30.3001   23.7673 H   0  0  0  0  0  0
  -15.8658  -28.0840   22.7055 H   0  0  0  0  0  0
  -24.5946  -30.6996   25.7810 H   0  0  0  0  0  0
  -24.8895  -32.2835   26.4875 H   0  0  0  0  0  0
  -25.8090  -30.8895   27.0239 H   0  0  0  0  0  0
  -26.2857  -29.6777   24.1184 H   0  0  0  0  0  0
  -27.4067  -29.7262   25.4605 H   0  0  0  0  0  0
  -27.8725  -30.4317   23.9300 H   0  0  0  0  0  0
  -27.2657  -33.3604   26.2074 H   0  0  0  0  0  0
  -28.3866  -32.6848   25.0324 H   0  0  0  0  0  0
  -28.0706  -31.8414   26.5415 H   0  0  0  0  0  0
  -28.2603  -38.0122   24.7499 H   0  0  0  0  0  0
  -28.1095  -36.2641   24.6294 H   0  0  0  0  0  0
  -27.2291  -37.1466   25.8863 H   0  0  0  0  0  0
  -20.9318  -29.8773   21.6928 H   0  0  0  0  0  0
  -26.0193  -38.2862   24.1395 H   0  0  0  0  0  0
  -30.3350  -20.2534   19.6274 H   0  0  0  0  0  0
  -26.4060  -23.1801   24.2181 H   0  0  0  0  0  0
  -27.1758  -21.6543   24.6282 H   0  0  0  0  0  0
  -26.2708  -21.8065   23.1257 H   0  0  0  0  0  0
  -27.9471  -22.6238   19.9300 H   0  0  0  0  0  0
  -29.4356  -22.4259   19.0836 H   0  0  0  0  0  0
  -31.3416  -17.5829   22.1562 H   0  0  0  0  0  0
  -31.5921  -18.0518   20.5014 H   0  0  0  0  0  0
  -27.8955  -23.5020   22.3246 H   0  0  0  0  0  0
  -28.8715  -23.3365   23.7589 H   0  0  0  0  0  0
  -30.3081  -24.4673   19.7765 H   0  0  0  0  0  0
  -29.6362  -24.3910   21.3659 H   0  0  0  0  0  0
  -29.5926  -16.9816   19.7491 H   0  0  0  0  0  0
  -28.8096  -17.1772   21.2818 H   0  0  0  0  0  0
  -27.3457  -24.8419   20.3989 H   0  0  0  0  0  0
  -28.0704  -25.0419   18.8137 H   0  0  0  0  0  0
  -29.1764  -15.0906   21.7288 H   0  0  0  0  0  0
  1 25  1  0  0  0
  1 30  2  0  0  0
  1 84  1  0  0  0
  2  3  1  0  0  0
  2 25  1  0  0  0
  2 85  1  0  0  0
  2 86  1  0  0  0
  3  4  1  0  0  0
  3 87  1  0  0  0
  3 88  1  0  0  0
  4  5  1  0  0  0
  4 89  1  0  0  0
  4 90  1  0  0  0
  5  6  1  0  0  0
  5 26  1  0  0  0
  5 91  1  0  0  0
  6 25  1  0  0  0
  6 92  1  0  0  0
  6 93  1  0  0  0
  7  8  2  0  0  0
  7 26  1  0  0  0
  7 29  1  0  0  0
  8  9  1  0  0  0
  8 22  1  0  0  0
  9 10  1  0  0  0
  9 27  2  0  0  0
 10 11  2  0  0  0
 10 15  1  0  0  0
 11 12  1  0  0  0
 11 94  1  0  0  0
 12 13  2  0  0  0
 12 95  1  0  0  0
 13 14  1  0  0  0
 13 31  1  0  0  0
 14 15  2  0  0  0
 14 96  1  0  0  0
 15 97  1  0  0  0
 16 17  2  0  0  0
 16 21  1  0  0  0
 16 31  1  0  0  0
 17 18  1  0  0  0
 17 98  1  0  0  0
 18 19  2  0  0  0
 18 99  1  0  0  0
 19 20  1  0  0  0
 19 24  1  0  0  0
 20 21  2  0  0  0
 20100  1  0  0  0
 21 23  1  0  0  0
 22 28  1  0  0  0
 22 32  2  0  0  0
 26 27  1  0  0  0
 28101  1  0  0  0
 28102  1  0  0  0
 29103  1  0  0  0
 29104  1  0  0  0
 33 34  1  0  0  0
 33 66  1  0  0  0
 33 70  2  0  0  0
 34 36  1  0  0  0
 34 59  1  0  0  0
 34105  1  0  0  0
 35 44  2  0  0  0
 35 45  1  0  0  0
 35 68  1  0  0  0
 36 56  1  0  0  0
 36106  1  0  0  0
 37 39  1  0  0  0
 37 47  1  0  0  0
 37 66  1  0  0  0
 37107  1  0  0  0
 38 43  2  0  0  0
 38 46  1  0  0  0
 38 47  1  0  0  0
 39 64  1  0  0  0
 39 67  2  0  0  0
 40 52  1  0  0  0
 40 53  2  0  0  0
 40 58  1  0  0  0
 41108  1  0  0  0
 41109  1  0  0  0
 41110  1  0  0  0
 41 48  1  0  0  0
 42 43  1  0  0  0
 42 66  1  0  0  0
 42111  1  0  0  0
 42112  1  0  0  0
 43 44  1  0  0  0
 44113  1  0  0  0
 45 46  2  0  0  0
 45114  1  0  0  0
 46115  1  0  0  0
 47116  1  0  0  0
 47117  1  0  0  0
 48 56  1  0  0  0
 48 65  1  0  0  0
 48118  1  0  0  0
 49 50  1  0  0  0
 49 53  1  0  0  0
 49 64  1  0  0  0
 49119  1  0  0  0
 50 51  1  0  0  0
 50120  1  0  0  0
 50121  1  0  0  0
 51 52  1  0  0  0
 51122  1  0  0  0
 51123  1  0  0  0
 52124  1  0  0  0
 52125  1  0  0  0
 53 54  1  0  0  0
 54 55  2  0  0  0
 54126  1  0  0  0
 55 57  1  0  0  0
 55127  1  0  0  0
 56 69  2  0  0  0
 57 58  2  0  0  0
 57128  1  0  0  0
 58129  1  0  0  0
 59 60  1  0  0  0
 59 61  1  0  0  0
 59 62  1  0  0  0
 60130  1  0  0  0
 60131  1  0  0  0
 60132  1  0  0  0
 61133  1  0  0  0
 61134  1  0  0  0
 61135  1  0  0  0
 62136  1  0  0  0
 62137  1  0  0  0
 62138  1  0  0  0
 63 65  1  0  0  0
 63139  1  0  0  0
 63140  1  0  0  0
 63141  1  0  0  0
 64142  1  0  0  0
 65143  1  0  0  0
 68 81  1  0  0  0
 71 72  2  0  0  0
 71 73  1  0  0  0
 71144  1  0  0  0
 72 74  1  0  0  0
 72 76  1  0  0  0
 73 77  1  0  0  0
 73 82  2  0  0  0
 74 78  1  0  0  0
 74 83  2  0  0  0
 75 78  1  0  0  0
 75145  1  0  0  0
 75146  1  0  0  0
 75147  1  0  0  0
 76 79  1  0  0  0
 76148  1  0  0  0
 76149  1  0  0  0
 77 80  1  0  0  0
 77150  1  0  0  0
 77151  1  0  0  0
 78152  1  0  0  0
 78153  1  0  0  0
 79 81  1  0  0  0
 79154  1  0  0  0
 79155  1  0  0  0
 80 84  1  0  0  0
 80156  1  0  0  0
 80157  1  0  0  0
 81158  1  0  0  0
 81159  1  0  0  0
 82 83  1  0  0  0
 84160  1  0  0  0
M  ISO  4   1 100  68 101  81 101  84 100
M  END
> <chiral flag>
0

> <version>
0

> <s_m_source_file>
/data/baiqing/PycharmProjects/Reinvent-master-3.2/result/LINK_invent/BTK/process_docking_weight1_custom_sum_contain_oxygen_bond_distance_aromatic_linkinvent_7_9_3/rearranged_h_0086.sdf

> <i_m_source_file_index>
21

> <r_mmod_Potential_Energy-OPLS-2005>
-12.7723751068115

> <r_mmod_Stretch_Energy-OPLS-2005>
54.533748626709

> <r_mmod_Bend_Energy-OPLS-2005>
125.950927734375

> <r_mmod_Torsional_Energy-OPLS-2005>
214.900436401367

> <r_mmod_Improper_Torsional_Energy-OPLS-2005>
5.92126607894897

> <r_mmod_Van_der_Waal_Energy-OPLS-2005>
155.55534362793

> <r_mmod_Electrostatic_Energy-OPLS-2005>
-354.5830078125

> <r_mmod_Solvation_Energy-OPLS-2005>
-235.007064819336

> <b_mmod_Minimization_Converged-OPLS-2005>
0

> <r_mmod_RMS_Derivative-OPLS-2005>
1.93022727966309

$$$$
21
                    3D
 Structure written by MMmdl.
169177  0  0  1  0            999 V2000
  -30.5350  -14.9708   20.4222 C   0  0  0  0  0  0
  -30.4419  -12.6081   19.4851 C   0  0  0  0  0  0
  -29.5181  -12.5252   18.2483 C   0  0  0  0  0  0
  -28.0537  -12.3051   18.6751 C   0  0  0  0  0  0
  -27.6256  -13.2475   19.8302 C   0  0  2  0  0  0
  -28.6717  -13.2900   20.9619 C   0  0  0  0  0  0
  -25.2457  -13.8209   20.5716 C   0  0  0  0  0  0
  -24.1773  -13.0434   20.9234 C   0  0  0  0  0  0
  -24.6393  -11.6922   20.8760 C   0  0  0  0  0  0
  -23.9080  -10.4292   21.0416 C   0  0  0  0  0  0
  -24.3627   -9.4204   21.9193 C   0  0  0  0  0  0
  -23.6297   -8.2241   22.0759 C   0  0  0  0  0  0
  -22.4281   -8.0284   21.3547 C   0  0  0  0  0  0
  -21.9921   -9.0258   20.4650 C   0  0  0  0  0  0
  -22.7254  -10.2134   20.3063 C   0  0  0  0  0  0
  -21.6850   -6.0741   22.5282 C   0  0  0  0  0  0
  -21.4010   -6.5644   23.8216 C   0  0  0  0  0  0
  -21.3659   -5.6797   24.9177 C   0  0  0  0  0  0
  -21.6044   -4.3059   24.7229 C   0  0  0  0  0  0
  -21.8817   -3.8152   23.4348 C   0  0  0  0  0  0
  -21.9190   -4.6969   22.3404 C   0  0  0  0  0  0
  -22.7794  -13.5209   21.1885 C   0  0  0  0  0  0
  -22.1660   -4.2157   21.0982 F   0  0  0  0  0  0
  -21.5629   -3.4541   25.7739 F   0  0  0  0  0  0
  -29.9373  -13.7128   20.3491 N   0  0  0  0  0  0
  -26.2875  -12.9441   20.3231 N   0  0  0  0  0  0
  -25.9323  -11.6571   20.5737 N   0  0  0  0  0  0
  -22.0442  -12.8199   22.0441 N   0  0  0  0  0  0
  -25.4109  -15.1937   20.4151 N   0  0  0  0  0  0
  -31.7537  -15.0234   20.2280 O   0  0  0  0  0  0
  -21.6638   -6.8886   21.4246 O   0  0  0  0  0  0
  -22.3478  -14.5511   20.6729 O   0  0  0  0  0  0
  -24.6458  -31.8428   23.1878 C   0  0  0  0  0  0
  -25.9224  -32.4682   23.8267 C   0  0  1  0  0  0
  -27.2142  -27.1154   20.1463 C   0  0  0  0  0  0
  -25.5964  -33.8490   24.2174 N   0  0  0  0  0  0
  -23.4496  -30.4636   21.5350 C   0  0  2  0  0  0
  -24.8982  -28.8913   20.1121 C   0  0  0  0  0  0
  -22.7582  -29.4536   22.4854 C   0  0  0  0  0  0
  -18.0313  -28.1389   22.8467 C   0  0  0  0  0  0
  -24.1487  -36.7249   23.2645 C   0  0  0  0  0  0
  -26.0091  -30.7091   21.3919 C   0  0  0  0  0  0
  -26.0790  -29.3192   20.7321 C   0  0  0  0  0  0
  -27.2376  -28.4492   20.7319 C   0  0  0  0  0  0
  -26.0045  -26.8026   19.4832 C   0  0  0  0  0  0
  -24.8755  -27.6462   19.4726 C   0  0  0  0  0  0
  -23.6770  -29.7963   20.1535 C   0  0  0  0  0  0
  -25.4121  -36.3017   24.0307 C   0  0  1  0  0  0
  -20.5928  -28.3713   23.1227 C   0  0  2  0  0  0
  -20.6801  -26.9402   22.5417 C   0  0  0  0  0  0
  -19.5771  -26.6352   21.5225 C   0  0  0  0  0  0
  -18.1948  -26.7919   22.1626 C   0  0  0  0  0  0
  -19.1570  -28.8872   23.2833 C   0  0  0  0  0  0
  -18.9488  -30.1473   23.8851 C   0  0  0  0  0  0
  -17.6485  -30.6586   24.0556 C   0  0  0  0  0  0
  -25.9079  -34.9398   23.5045 C   0  0  0  0  0  0
  -16.5375  -29.9077   23.6339 C   0  0  0  0  0  0
  -16.7299  -28.6501   23.0344 C   0  0  0  0  0  0
  -26.4533  -31.6563   25.0724 C   0  0  0  0  0  0
  -25.3705  -31.3770   26.1411 C   0  0  0  0  0  0
  -27.0418  -30.2953   24.6349 C   0  0  0  0  0  0
  -27.6048  -32.4353   25.7509 C   0  0  0  0  0  0
  -27.5565  -37.1779   24.8464 C   0  0  0  0  0  0
  -21.4275  -29.3035   22.3596 N   0  0  0  0  0  0
  -26.4273  -37.3737   23.9410 N   0  0  0  0  0  0
  -24.7217  -31.0267   22.0927 N   0  0  0  0  0  0
  -23.4217  -28.8082   23.3011 O   0  0  0  0  0  0
  -28.2586  -26.1090   20.1974 O   0  0  0  0  0  0
  -26.5668  -34.8896   22.4629 O   0  0  0  0  0  0
  -23.5572  -32.1325   23.7076 O   0  0  0  0  0  0
  -26.6850  -21.8480   20.4757 C   0  0  0  0  0  0
  -28.0871  -21.6424   20.3632 C   0  0  0  0  0  0
  -25.7785  -20.8016   20.6760 C   0  0  0  0  0  0
  -28.4457  -20.1476   20.4485 C   0  0  0  0  0  0
  -21.8942  -22.5527   23.4893 C   0  0  0  0  0  0
  -30.7174  -22.1261   18.6746 C   0  0  0  0  0  0
  -24.2865  -21.0828   20.7464 C   0  0  0  0  0  0
  -29.7167  -19.1648   20.1381 C   0  0  0  0  0  0
  -22.3509  -21.9990   22.1346 C   0  0  0  0  0  0
  -29.6613  -23.2152   18.8855 C   0  0  0  0  0  0
  -23.8247  -21.5622   22.1321 C   0  0  0  0  0  0
  -30.0779  -17.6742   20.8979 C   0  0  0  0  0  0
  -27.9110  -24.5788   20.2261 C   0  0  0  0  0  0
  -28.8329  -23.1271   20.1853 C   0  0  1  0  0  0
  -26.1739  -19.5287   20.8131 N   0  0  0  0  0  0
  -27.4618  -19.2357   20.6776 N   0  0  0  0  0  0
  -29.7544  -16.1638   20.5128 N   0  0  0  0  0  0
  -31.4716  -12.7788   19.1679 H   0  0  0  0  0  0
  -30.4486  -11.6634   20.0309 H   0  0  0  0  0  0
  -29.8400  -11.7201   17.5868 H   0  0  0  0  0  0
  -29.5958  -13.4472   17.6702 H   0  0  0  0  0  0
  -27.9611  -11.2674   18.9977 H   0  0  0  0  0  0
  -27.3853  -12.4184   17.8211 H   0  0  0  0  0  0
  -27.5822  -14.2445   19.3911 H   0  0  0  0  0  0
  -28.7712  -12.3167   21.4446 H   0  0  0  0  0  0
  -28.3708  -13.9940   21.7396 H   0  0  0  0  0  0
  -25.2766   -9.5679   22.4774 H   0  0  0  0  0  0
  -24.0001   -7.4634   22.7481 H   0  0  0  0  0  0
  -21.0851   -8.8783   19.8955 H   0  0  0  0  0  0
  -22.3715  -10.9678   19.6177 H   0  0  0  0  0  0
  -21.2001   -7.6150   23.9723 H   0  0  0  0  0  0
  -21.1482   -6.0525   25.9081 H   0  0  0  0  0  0
  -22.0595   -2.7615   23.2846 H   0  0  0  0  0  0
  -22.4051  -11.9862   22.4835 H   0  0  0  0  0  0
  -21.1060  -13.1232   22.2646 H   0  0  0  0  0  0
  -24.6459  -15.8465   20.5460 H   0  0  0  0  0  0
  -26.2573  -15.6452   20.0944 H   0  0  0  0  0  0
  -26.7291  -32.5286   23.0996 H   0  0  0  0  0  0
  -25.0090  -33.9599   25.0308 H   0  0  0  0  0  0
  -22.7537  -31.2908   21.3811 H   0  0  0  0  0  0
  -23.3746  -35.9582   23.3292 H   0  0  0  0  0  0
  -24.3578  -36.8907   22.2065 H   0  0  0  0  0  0
  -23.7246  -37.6440   23.6705 H   0  0  0  0  0  0
  -26.1710  -31.4639   20.6213 H   0  0  0  0  0  0
  -26.8771  -30.7569   22.0379 H   0  0  0  0  0  0
  -28.1360  -28.7722   21.2386 H   0  0  0  0  0  0
  -25.8822  -25.8694   18.9597 H   0  0  0  0  0  0
  -23.9776  -27.3172   18.9672 H   0  0  0  0  0  0
  -23.8177  -30.5730   19.4007 H   0  0  0  0  0  0
  -22.7910  -29.2419   19.8391 H   0  0  0  0  0  0
  -25.1309  -36.1834   25.0795 H   0  0  0  0  0  0
  -21.0013  -28.3311   24.1351 H   0  0  0  0  0  0
  -20.5693  -26.2316   23.3641 H   0  0  0  0  0  0
  -21.6663  -26.7399   22.1215 H   0  0  0  0  0  0
  -19.6928  -25.6248   21.1289 H   0  0  0  0  0  0
  -19.6710  -27.3137   20.6734 H   0  0  0  0  0  0
  -17.4219  -26.6661   21.4028 H   0  0  0  0  0  0
  -18.0337  -26.0070   22.9031 H   0  0  0  0  0  0
  -19.7970  -30.7304   24.2179 H   0  0  0  0  0  0
  -17.5045  -31.6258   24.5174 H   0  0  0  0  0  0
  -15.5373  -30.2968   23.7697 H   0  0  0  0  0  0
  -15.8697  -28.0828   22.7054 H   0  0  0  0  0  0
  -24.5875  -30.7129   25.7733 H   0  0  0  0  0  0
  -24.8903  -32.2961   26.4785 H   0  0  0  0  0  0
  -25.7968  -30.8978   27.0230 H   0  0  0  0  0  0
  -26.3063  -29.6654   24.1333 H   0  0  0  0  0  0
  -27.3994  -29.7277   25.4954 H   0  0  0  0  0  0
  -27.8980  -30.4186   23.9707 H   0  0  0  0  0  0
  -27.2623  -33.3683   26.1997 H   0  0  0  0  0  0
  -28.3887  -32.6875   25.0353 H   0  0  0  0  0  0
  -28.0673  -31.8546   26.5496 H   0  0  0  0  0  0
  -28.2570  -38.0085   24.7510 H   0  0  0  0  0  0
  -28.1066  -36.2617   24.6284 H   0  0  0  0  0  0
  -27.2284  -37.1420   25.8865 H   0  0  0  0  0  0
  -20.9486  -29.8769   21.6792 H   0  0  0  0  0  0
  -26.0129  -38.2795   24.1433 H   0  0  0  0  0  0
  -26.2280  -22.8173   20.4007 H   0  0  0  0  0  0
  -20.8465  -22.8541   23.4512 H   0  0  0  0  0  0
  -22.4780  -23.4275   23.7788 H   0  0  0  0  0  0
  -21.9949  -21.8056   24.2776 H   0  0  0  0  0  0
  -31.3906  -22.3992   17.8612 H   0  0  0  0  0  0
  -30.2549  -21.1829   18.3930 H   0  0  0  0  0  0
  -31.3262  -21.9749   19.5664 H   0  0  0  0  0  0
  -23.7326  -20.1881   20.4579 H   0  0  0  0  0  0
  -24.0483  -21.8373   19.9954 H   0  0  0  0  0  0
  -30.5789  -19.8002   20.3356 H   0  0  0  0  0  0
  -29.7353  -19.0001   19.0613 H   0  0  0  0  0  0
  -22.1942  -22.7610   21.3692 H   0  0  0  0  0  0
  -21.7185  -21.1543   21.8575 H   0  0  0  0  0  0
  -28.9887  -23.2230   18.0268 H   0  0  0  0  0  0
  -30.1657  -24.1829   18.8723 H   0  0  0  0  0  0
  -24.4454  -22.4035   22.4442 H   0  0  0  0  0  0
  -23.9846  -20.7715   22.8656 H   0  0  0  0  0  0
  -29.7955  -17.7850   21.9454 H   0  0  0  0  0  0
  -31.1681  -17.6671   20.9325 H   0  0  0  0  0  0
  -27.2915  -24.5095   21.1206 H   0  0  0  0  0  0
  -27.2503  -24.4373   19.3764 H   0  0  0  0  0  0
  -29.5278  -23.1856   21.0235 H   0  0  0  0  0  0
  -28.7640  -15.9699   20.5053 H   0  0  0  0  0  0
  1 25  1  0  0  0
  1 30  2  0  0  0
  1 87  1  0  0  0
  2  3  1  0  0  0
  2 25  1  0  0  0
  2 88  1  0  0  0
  2 89  1  0  0  0
  3  4  1  0  0  0
  3 90  1  0  0  0
  3 91  1  0  0  0
  4  5  1  0  0  0
  4 92  1  0  0  0
  4 93  1  0  0  0
  5  6  1  0  0  0
  5 26  1  0  0  0
  5 94  1  0  0  0
  6 25  1  0  0  0
  6 95  1  0  0  0
  6 96  1  0  0  0
  7  8  2  0  0  0
  7 26  1  0  0  0
  7 29  1  0  0  0
  8  9  1  0  0  0
  8 22  1  0  0  0
  9 10  1  0  0  0
  9 27  2  0  0  0
 10 11  2  0  0  0
 10 15  1  0  0  0
 11 12  1  0  0  0
 11 97  1  0  0  0
 12 13  2  0  0  0
 12 98  1  0  0  0
 13 14  1  0  0  0
 13 31  1  0  0  0
 14 15  2  0  0  0
 14 99  1  0  0  0
 15100  1  0  0  0
 16 17  2  0  0  0
 16 21  1  0  0  0
 16 31  1  0  0  0
 17 18  1  0  0  0
 17101  1  0  0  0
 18 19  2  0  0  0
 18102  1  0  0  0
 19 20  1  0  0  0
 19 24  1  0  0  0
 20 21  2  0  0  0
 20103  1  0  0  0
 21 23  1  0  0  0
 22 28  1  0  0  0
 22 32  2  0  0  0
 26 27  1  0  0  0
 28104  1  0  0  0
 28105  1  0  0  0
 29106  1  0  0  0
 29107  1  0  0  0
 33 34  1  0  0  0
 33 66  1  0  0  0
 33 70  2  0  0  0
 34 36  1  0  0  0
 34 59  1  0  0  0
 34108  1  0  0  0
 35 44  2  0  0  0
 35 45  1  0  0  0
 35 68  1  0  0  0
 36 56  1  0  0  0
 36109  1  0  0  0
 37 39  1  0  0  0
 37 47  1  0  0  0
 37 66  1  0  0  0
 37110  1  0  0  0
 38 43  2  0  0  0
 38 46  1  0  0  0
 38 47  1  0  0  0
 39 64  1  0  0  0
 39 67  2  0  0  0
 40 52  1  0  0  0
 40 53  2  0  0  0
 40 58  1  0  0  0
 41111  1  0  0  0
 41112  1  0  0  0
 41113  1  0  0  0
 41 48  1  0  0  0
 42 43  1  0  0  0
 42 66  1  0  0  0
 42114  1  0  0  0
 42115  1  0  0  0
 43 44  1  0  0  0
 44116  1  0  0  0
 45 46  2  0  0  0
 45117  1  0  0  0
 46118  1  0  0  0
 47119  1  0  0  0
 47120  1  0  0  0
 48 56  1  0  0  0
 48 65  1  0  0  0
 48121  1  0  0  0
 49 50  1  0  0  0
 49 53  1  0  0  0
 49 64  1  0  0  0
 49122  1  0  0  0
 50 51  1  0  0  0
 50123  1  0  0  0
 50124  1  0  0  0
 51 52  1  0  0  0
 51125  1  0  0  0
 51126  1  0  0  0
 52127  1  0  0  0
 52128  1  0  0  0
 53 54  1  0  0  0
 54 55  2  0  0  0
 54129  1  0  0  0
 55 57  1  0  0  0
 55130  1  0  0  0
 56 69  2  0  0  0
 57 58  2  0  0  0
 57131  1  0  0  0
 58132  1  0  0  0
 59 60  1  0  0  0
 59 61  1  0  0  0
 59 62  1  0  0  0
 60133  1  0  0  0
 60134  1  0  0  0
 60135  1  0  0  0
 61136  1  0  0  0
 61137  1  0  0  0
 61138  1  0  0  0
 62139  1  0  0  0
 62140  1  0  0  0
 62141  1  0  0  0
 63 65  1  0  0  0
 63142  1  0  0  0
 63143  1  0  0  0
 63144  1  0  0  0
 64145  1  0  0  0
 65146  1  0  0  0
 68 83  1  0  0  0
 71 72  2  0  0  0
 71 73  1  0  0  0
 71147  1  0  0  0
 72 74  1  0  0  0
 72 84  1  0  0  0
 73 77  1  0  0  0
 73 85  2  0  0  0
 74 78  1  0  0  0
 74 86  2  0  0  0
 75 79  1  0  0  0
 75148  1  0  0  0
 75149  1  0  0  0
 75150  1  0  0  0
 76 80  1  0  0  0
 76151  1  0  0  0
 76152  1  0  0  0
 76153  1  0  0  0
 77 81  1  0  0  0
 77154  1  0  0  0
 77155  1  0  0  0
 78 82  1  0  0  0
 78156  1  0  0  0
 78157  1  0  0  0
 79 81  1  0  0  0
 79158  1  0  0  0
 79159  1  0  0  0
 80160  1  0  0  0
 80161  1  0  0  0
 80 84  1  0  0  0
 81162  1  0  0  0
 81163  1  0  0  0
 82 87  1  0  0  0
 82164  1  0  0  0
 82165  1  0  0  0
 83 84  1  0  0  0
 83166  1  0  0  0
 83167  1  0  0  0
 84168  1  0  0  0
 85 86  1  0  0  0
 87169  1  0  0  0
M  ISO  4   1 100  68 101  83 101  87 100
M  END
> <chiral flag>
0

> <version>
0

> <s_m_source_file>
/data/baiqing/PycharmProjects/Reinvent-master-3.2/result/LINK_invent/BTK/process_docking_weight1_custom_sum_contain_oxygen_bond_distance_aromatic_linkinvent_7_9_3/rearranged_h_0086.sdf

> <i_m_source_file_index>
22

> <r_mmod_Potential_Energy-OPLS-2005>
735.353698730469

> <r_mmod_Stretch_Energy-OPLS-2005>
321.19873046875

> <r_mmod_Bend_Energy-OPLS-2005>
388.023773193359

> <r_mmod_Torsional_Energy-OPLS-2005>
231.960403442383

> <r_mmod_Improper_Torsional_Energy-OPLS-2005>
4.89717292785645

> <r_mmod_Van_der_Waal_Energy-OPLS-2005>
134.437225341797

> <r_mmod_Electrostatic_Energy-OPLS-2005>
-336.522216796875

> <r_mmod_Solvation_Energy-OPLS-2005>
-221.121551513672

> <b_mmod_Minimization_Converged-OPLS-2005>
0

> <r_mmod_RMS_Derivative-OPLS-2005>
1.03560996055603

$$$$
22
                    3D
 Structure written by MMmdl.
170177  0  0  1  0            999 V2000
  -31.2975  -14.7736   21.1075 C   0  0  0  0  0  0
  -30.5889  -14.4313   18.8568 C   0  0  0  0  0  0
  -29.1994  -14.6607   17.6582 C   0  0  0  0  0  0
  -27.4356  -14.7677   18.3500 C   0  0  0  0  0  0
  -27.2167  -14.5307   20.2274 C   0  0  2  0  0  0
  -28.6949  -14.4065   21.2676 C   0  0  0  0  0  0
  -24.8987  -14.0565   20.5960 C   0  0  0  0  0  0
  -24.0168  -13.1019   20.9364 C   0  0  0  0  0  0
  -24.6773  -11.8393   20.8958 C   0  0  0  0  0  0
  -24.0118  -10.4903   21.0180 C   0  0  0  0  0  0
  -24.4373   -9.4704   21.9058 C   0  0  0  0  0  0
  -23.6885   -8.2732   22.0708 C   0  0  0  0  0  0
  -22.4822   -8.0645   21.3546 C   0  0  0  0  0  0
  -22.0663   -9.0638   20.4574 C   0  0  0  0  0  0
  -22.8189  -10.2458   20.2918 C   0  0  0  0  0  0
  -21.7105   -6.0974   22.5246 C   0  0  0  0  0  0
  -21.4184   -6.5790   23.8188 C   0  0  0  0  0  0
  -21.3718   -5.6890   24.9110 C   0  0  0  0  0  0
  -21.6042   -4.3148   24.7141 C   0  0  0  0  0  0
  -21.8820   -3.8288   23.4240 C   0  0  0  0  0  0
  -21.9265   -4.7153   22.3328 C   0  0  0  0  0  0
  -22.5961  -13.4373   21.1996 C   0  0  0  0  0  0
  -22.1711   -4.2308   21.0914 F   0  0  0  0  0  0
  -21.5575   -3.4605   25.7632 F   0  0  0  0  0  0
  -30.2159  -14.4532   20.5012 N   0  0  0  0  0  0
  -26.1146  -13.5082   20.5300 N   0  0  0  0  0  0
  -26.0031  -12.0982   20.7040 N   0  0  0  0  0  0
  -21.9531  -12.6986   22.0858 N   0  0  0  0  0  0
  -24.7413  -15.4123   20.3471 N   0  0  0  0  0  0
  -32.3960  -14.5179   20.6378 O   0  0  0  0  0  0
  -21.7084   -6.9227   21.4246 O   0  0  0  0  0  0
  -22.0904  -14.4419   20.6960 O   0  0  0  0  0  0
  -24.7874  -31.6582   23.0629 C   0  0  0  0  0  0
  -25.9921  -32.3809   23.7553 C   0  0  1  0  0  0
  -27.0757  -25.5768   20.1349 C   0  0  0  0  0  0
  -25.6038  -33.7706   24.1314 N   0  0  0  0  0  0
  -23.6419  -30.2240   21.4492 C   0  0  2  0  0  0
  -25.0473  -28.3361   20.1029 C   0  0  0  0  0  0
  -22.8144  -29.3581   22.4474 C   0  0  0  0  0  0
  -18.0358  -28.1474   22.8394 C   0  0  0  0  0  0
  -24.1456  -36.6852   23.2699 C   0  0  0  0  0  0
  -26.2377  -29.9920   21.4821 C   0  0  0  0  0  0
  -26.2477  -28.4481   20.8070 C   0  0  0  0  0  0
  -27.1948  -27.1319   20.7765 C   0  0  0  0  0  0
  -25.8853  -25.9703   19.3745 C   0  0  0  0  0  0
  -24.9710  -27.1309   19.3646 C   0  0  0  0  0  0
  -23.9234  -29.4388   20.1154 C   0  0  0  0  0  0
  -25.4154  -36.2509   24.0212 C   0  0  1  0  0  0
  -20.6028  -28.3851   23.0975 C   0  0  2  0  0  0
  -20.6762  -26.9415   22.5451 C   0  0  0  0  0  0
  -19.5767  -26.6322   21.5235 C   0  0  0  0  0  0
  -18.1938  -26.7988   22.1589 C   0  0  0  0  0  0
  -19.1648  -28.9006   23.2634 C   0  0  0  0  0  0
  -18.9568  -30.1564   23.8719 C   0  0  0  0  0  0
  -17.6559  -30.6640   24.0515 C   0  0  0  0  0  0
  -25.9208  -34.8941   23.4684 C   0  0  0  0  0  0
  -16.5429  -29.9119   23.6364 C   0  0  0  0  0  0
  -16.7343  -28.6545   23.0376 C   0  0  0  0  0  0
  -26.4766  -31.6393   25.0647 C   0  0  0  0  0  0
  -25.3559  -31.4027   26.1072 C   0  0  0  0  0  0
  -27.0913  -30.2688   24.7277 C   0  0  0  0  0  0
  -27.5971  -32.4552   25.7537 C   0  0  0  0  0  0
  -27.5482  -37.1584   24.8478 C   0  0  0  0  0  0
  -21.4712  -29.2885   22.3215 N   0  0  0  0  0  0
  -26.4170  -37.3412   23.9425 N   0  0  0  0  0  0
  -24.9340  -30.6872   22.0499 N   0  0  0  0  0  0
  -23.4131  -28.7345   23.3264 O   0  0  0  0  0  0
  -27.7912  -23.8407   20.1407 O   0  0  0  0  0  0
  -26.5997  -34.8746   22.4404 O   0  0  0  0  0  0
  -23.6711  -32.0191   23.4933 O   0  0  0  0  0  0
  -27.7944  -12.1790   18.3155 C   0  0  0  0  0  0
  -29.1733  -11.9507   20.3438 C   0  0  0  0  0  0
  -26.5240  -18.6496   19.8449 C   0  0  0  0  0  0
  -30.5978  -17.4028   17.5495 C   0  0  0  0  0  0
  -32.8801  -17.2752   19.4032 C   0  0  0  0  0  0
  -31.5629  -19.1554   20.1388 C   0  0  0  0  0  0
  -31.4898  -17.1665   21.5483 C   0  0  0  0  0  0
  -27.9432  -21.5433   19.6829 C   0  0  0  0  0  0
  -28.7219  -13.1185   19.2923 C   0  0  0  0  0  0
  -28.0333  -18.9028   19.8400 C   0  0  2  0  0  0
  -30.2549  -17.1773   19.0589 C   0  0  1  0  0  0
  -28.8506  -16.3805   19.5172 C   0  0  2  0  0  0
  -31.4888  -17.6012   20.0331 C   0  0  0  0  0  0
  -31.0494  -15.8232   21.8748 N   0  0  0  0  0  0
  -31.3675  -15.1224   18.5749 H   0  0  0  0  0  0
  -31.1820  -13.5395   18.6342 H   0  0  0  0  0  0
  -29.2874  -13.9003   16.8838 H   0  0  0  0  0  0
  -29.3168  -15.4955   16.9915 H   0  0  0  0  0  0
  -26.6965  -14.2451   17.7489 H   0  0  0  0  0  0
  -27.0568  -15.7613   18.1090 H   0  0  0  0  0  0
  -26.9466  -15.4902   20.6528 H   0  0  0  0  0  0
  -28.6126  -13.5960   21.9846 H   0  0  0  0  0  0
  -28.6178  -15.1894   22.0218 H   0  0  0  0  0  0
  -25.3373   -9.6222   22.4828 H   0  0  0  0  0  0
  -24.0509   -7.5204   22.7556 H   0  0  0  0  0  0
  -21.1594   -8.9291   19.8872 H   0  0  0  0  0  0
  -22.4535  -10.9973   19.6070 H   0  0  0  0  0  0
  -21.2284   -7.6310   23.9747 H   0  0  0  0  0  0
  -21.1484   -6.0592   25.9015 H   0  0  0  0  0  0
  -22.0517   -2.7740   23.2688 H   0  0  0  0  0  0
  -22.3970  -11.8960   22.5085 H   0  0  0  0  0  0
  -21.0082  -12.9359   22.3534 H   0  0  0  0  0  0
  -23.8281  -15.8540   20.3868 H   0  0  0  0  0  0
  -25.4556  -16.0007   19.9371 H   0  0  0  0  0  0
  -26.8187  -32.4126   23.0432 H   0  0  0  0  0  0
  -24.9977  -33.8550   24.9338 H   0  0  0  0  0  0
  -23.0359  -31.0941   21.1893 H   0  0  0  0  0  0
  -23.3764  -35.9132   23.3248 H   0  0  0  0  0  0
  -24.3463  -36.8701   22.2133 H   0  0  0  0  0  0
  -23.7167  -37.5937   23.6941 H   0  0  0  0  0  0
  -26.5814  -30.6531   20.6866 H   0  0  0  0  0  0
  -27.0485  -30.0277   22.1951 H   0  0  0  0  0  0
  -28.0739  -27.2488   21.3951 H   0  0  0  0  0  0
  -25.5220  -25.1647   18.7481 H   0  0  0  0  0  0
  -24.0954  -27.0164   18.7410 H   0  0  0  0  0  0
  -24.1986  -30.1619   19.3475 H   0  0  0  0  0  0
  -22.9926  -28.9913   19.7597 H   0  0  0  0  0  0
  -25.1413  -36.1119   25.0696 H   0  0  0  0  0  0
  -21.0049  -28.3543   24.1127 H   0  0  0  0  0  0
  -20.5501  -26.2497   23.3800 H   0  0  0  0  0  0
  -21.6615  -26.7190   22.1334 H   0  0  0  0  0  0
  -19.6886  -25.6182   21.1370 H   0  0  0  0  0  0
  -19.6740  -27.3030   20.6681 H   0  0  0  0  0  0
  -17.4220  -26.6740   21.3966 H   0  0  0  0  0  0
  -18.0263  -26.0170   22.9008 H   0  0  0  0  0  0
  -19.8050  -30.7397   24.2033 H   0  0  0  0  0  0
  -17.5114  -31.6294   24.5173 H   0  0  0  0  0  0
  -15.5426  -30.2984   23.7805 H   0  0  0  0  0  0
  -15.8726  -28.0819   22.7225 H   0  0  0  0  0  0
  -24.5810  -30.7325   25.7343 H   0  0  0  0  0  0
  -24.8690  -32.3356   26.3933 H   0  0  0  0  0  0
  -25.7457  -30.9556   27.0230 H   0  0  0  0  0  0
  -26.3739  -29.5853   24.2741 H   0  0  0  0  0  0
  -27.4439  -29.7732   25.6329 H   0  0  0  0  0  0
  -27.9647  -30.3679   24.0835 H   0  0  0  0  0  0
  -27.2347  -33.4051   26.1499 H   0  0  0  0  0  0
  -28.4077  -32.6819   25.0599 H   0  0  0  0  0  0
  -28.0326  -31.9160   26.5966 H   0  0  0  0  0  0
  -28.2450  -37.9928   24.7481 H   0  0  0  0  0  0
  -28.1015  -36.2413   24.6345 H   0  0  0  0  0  0
  -27.2190  -37.1272   25.8889 H   0  0  0  0  0  0
  -21.0283  -29.8439   21.6018 H   0  0  0  0  0  0
  -25.9888  -38.2408   24.1482 H   0  0  0  0  0  0
  -27.9768  -12.3374   17.2521 H   0  0  0  0  0  0
  -26.7206  -12.2792   18.4049 H   0  0  0  0  0  0
  -27.9534  -11.1055   18.4177 H   0  0  0  0  0  0
  -29.3814  -10.9901   19.8713 H   0  0  0  0  0  0
  -28.4309  -11.7144   21.1026 H   0  0  0  0  0  0
  -30.1138  -12.1146   20.8671 H   0  0  0  0  0  0
  -25.9856  -19.4901   20.2883 H   0  0  0  0  0  0
  -26.2890  -17.7591   20.4217 H   0  0  0  0  0  0
  -26.1419  -18.5047   18.8329 H   0  0  0  0  0  0
  -29.7039  -17.5781   16.9546 H   0  0  0  0  0  0
  -31.1823  -16.6105   17.0830 H   0  0  0  0  0  0
  -31.1929  -18.3026   17.3968 H   0  0  0  0  0  0
  -33.6965  -17.5557   20.0736 H   0  0  0  0  0  0
  -33.0645  -17.8267   18.4844 H   0  0  0  0  0  0
  -33.0488  -16.2371   19.1533 H   0  0  0  0  0  0
  -32.4253  -19.4718   20.7269 H   0  0  0  0  0  0
  -30.6876  -19.5834   20.6262 H   0  0  0  0  0  0
  -31.6655  -19.6357   19.1645 H   0  0  0  0  0  0
  -32.4770  -17.3129   21.9904 H   0  0  0  0  0  0
  -30.8249  -17.8264   22.1042 H   0  0  0  0  0  0
  -28.9614  -21.6471   19.3092 H   0  0  0  0  0  0
  -27.3285  -21.5983   18.7841 H   0  0  0  0  0  0
  -29.4535  -12.6085   18.6554 H   0  0  0  0  0  0
  -28.3570  -18.9294   20.8820 H   0  0  0  0  0  0
  -29.8329  -18.1534   19.0266 H   0  0  0  0  0  0
  -28.9336  -16.5399   20.5779 H   0  0  0  0  0  0
  -30.1046  -15.8069   22.2275 H   0  0  0  0  0  0
  1 25  1  0  0  0
  1 30  2  0  0  0
  1 84  1  0  0  0
  2  3  1  0  0  0
  2 25  1  0  0  0
  2 85  1  0  0  0
  2 86  1  0  0  0
  3  4  1  0  0  0
  3 87  1  0  0  0
  3 88  1  0  0  0
  4  5  1  0  0  0
  4 89  1  0  0  0
  4 90  1  0  0  0
  5  6  1  0  0  0
  5 26  1  0  0  0
  5 91  1  0  0  0
  6 25  1  0  0  0
  6 92  1  0  0  0
  6 93  1  0  0  0
  7  8  2  0  0  0
  7 26  1  0  0  0
  7 29  1  0  0  0
  8  9  1  0  0  0
  8 22  1  0  0  0
  9 10  1  0  0  0
  9 27  2  0  0  0
 10 11  2  0  0  0
 10 15  1  0  0  0
 11 12  1  0  0  0
 11 94  1  0  0  0
 12 13  2  0  0  0
 12 95  1  0  0  0
 13 14  1  0  0  0
 13 31  1  0  0  0
 14 15  2  0  0  0
 14 96  1  0  0  0
 15 97  1  0  0  0
 16 17  2  0  0  0
 16 21  1  0  0  0
 16 31  1  0  0  0
 17 18  1  0  0  0
 17 98  1  0  0  0
 18 19  2  0  0  0
 18 99  1  0  0  0
 19 20  1  0  0  0
 19 24  1  0  0  0
 20 21  2  0  0  0
 20100  1  0  0  0
 21 23  1  0  0  0
 22 28  1  0  0  0
 22 32  2  0  0  0
 26 27  1  0  0  0
 28101  1  0  0  0
 28102  1  0  0  0
 29103  1  0  0  0
 29104  1  0  0  0
 33 34  1  0  0  0
 33 66  1  0  0  0
 33 70  2  0  0  0
 34 36  1  0  0  0
 34 59  1  0  0  0
 34105  1  0  0  0
 35 44  2  0  0  0
 35 45  1  0  0  0
 35 68  1  0  0  0
 36 56  1  0  0  0
 36106  1  0  0  0
 37 39  1  0  0  0
 37 47  1  0  0  0
 37 66  1  0  0  0
 37107  1  0  0  0
 38 43  2  0  0  0
 38 46  1  0  0  0
 38 47  1  0  0  0
 39 64  1  0  0  0
 39 67  2  0  0  0
 40 52  1  0  0  0
 40 53  2  0  0  0
 40 58  1  0  0  0
 41108  1  0  0  0
 41109  1  0  0  0
 41110  1  0  0  0
 41 48  1  0  0  0
 42 43  1  0  0  0
 42 66  1  0  0  0
 42111  1  0  0  0
 42112  1  0  0  0
 43 44  1  0  0  0
 44113  1  0  0  0
 45 46  2  0  0  0
 45114  1  0  0  0
 46115  1  0  0  0
 47116  1  0  0  0
 47117  1  0  0  0
 48 56  1  0  0  0
 48 65  1  0  0  0
 48118  1  0  0  0
 49 50  1  0  0  0
 49 53  1  0  0  0
 49 64  1  0  0  0
 49119  1  0  0  0
 50 51  1  0  0  0
 50120  1  0  0  0
 50121  1  0  0  0
 51 52  1  0  0  0
 51122  1  0  0  0
 51123  1  0  0  0
 52124  1  0  0  0
 52125  1  0  0  0
 53 54  1  0  0  0
 54 55  2  0  0  0
 54126  1  0  0  0
 55 57  1  0  0  0
 55127  1  0  0  0
 56 69  2  0  0  0
 57 58  2  0  0  0
 57128  1  0  0  0
 58129  1  0  0  0
 59 60  1  0  0  0
 59 61  1  0  0  0
 59 62  1  0  0  0
 60130  1  0  0  0
 60131  1  0  0  0
 60132  1  0  0  0
 61133  1  0  0  0
 61134  1  0  0  0
 61135  1  0  0  0
 62136  1  0  0  0
 62137  1  0  0  0
 62138  1  0  0  0
 63 65  1  0  0  0
 63139  1  0  0  0
 63140  1  0  0  0
 63141  1  0  0  0
 64142  1  0  0  0
 65143  1  0  0  0
 68 78  1  0  0  0
 71144  1  0  0  0
 71145  1  0  0  0
 71146  1  0  0  0
 71 79  1  0  0  0
 72 79  1  0  0  0
 72147  1  0  0  0
 72148  1  0  0  0
 72149  1  0  0  0
 73150  1  0  0  0
 73151  1  0  0  0
 73152  1  0  0  0
 73 80  1  0  0  0
 74153  1  0  0  0
 74154  1  0  0  0
 74155  1  0  0  0
 74 81  1  0  0  0
 75156  1  0  0  0
 75157  1  0  0  0
 75158  1  0  0  0
 75 83  1  0  0  0
 76 83  1  0  0  0
 76159  1  0  0  0
 76160  1  0  0  0
 76161  1  0  0  0
 77 83  1  0  0  0
 77 84  1  0  0  0
 77162  1  0  0  0
 77163  1  0  0  0
 78 80  1  0  0  0
 78164  1  0  0  0
 78165  1  0  0  0
 79166  1  0  0  0
 79 82  1  0  0  0
 80 82  1  0  0  0
 80167  1  0  0  0
 81 82  1  0  0  0
 81 83  1  0  0  0
 81168  1  0  0  0
 82169  1  0  0  0
 84170  1  0  0  0
M  ISO  4   1 100  68 101  78 101  84 100
M  END
> <chiral flag>
0

> <version>
0

> <s_m_source_file>
/data/baiqing/PycharmProjects/Reinvent-master-3.2/result/LINK_invent/BTK/process_docking_weight1_custom_sum_contain_oxygen_bond_distance_aromatic_linkinvent_7_9_3/rearranged_h_0086.sdf

> <i_m_source_file_index>
23

> <r_mmod_Potential_Energy-OPLS-2005>
16853.455078125

> <r_mmod_Stretch_Energy-OPLS-2005>
9134.044921875

> <r_mmod_Bend_Energy-OPLS-2005>
1795.72619628906

> <r_mmod_Torsional_Energy-OPLS-2005>
399.449981689453

> <r_mmod_Improper_Torsional_Energy-OPLS-2005>
25.6563091278076

> <r_mmod_Van_der_Waal_Energy-OPLS-2005>
1600.13061523438

> <r_mmod_Electrostatic_Energy-OPLS-2005>
-401.383605957031

> <r_mmod_Solvation_Energy-OPLS-2005>
-186.142730712891

> <b_mmod_Minimization_Converged-OPLS-2005>
0

> <r_mmod_RMS_Derivative-OPLS-2005>
6.85047817230225

$$$$
23
                    3D
 Structure written by MMmdl.
165173  0  0  1  0            999 V2000
  -30.7213  -14.6034   20.6247 C   0  0  0  0  0  0
  -30.4203  -12.4022   19.4760 C   0  0  0  0  0  0
  -29.5127  -12.5235   18.2360 C   0  0  0  0  0  0
  -28.0332  -12.3426   18.6289 C   0  0  0  0  0  0
  -27.6463  -13.2205   19.8428 C   0  0  2  0  0  0
  -28.6684  -13.0649   20.9774 C   0  0  0  0  0  0
  -25.2515  -13.8151   20.5642 C   0  0  0  0  0  0
  -24.1823  -13.0422   20.9153 C   0  0  0  0  0  0
  -24.6405  -11.6883   20.8727 C   0  0  0  0  0  0
  -23.9082  -10.4268   21.0411 C   0  0  0  0  0  0
  -24.3636   -9.4171   21.9180 C   0  0  0  0  0  0
  -23.6302   -8.2209   22.0770 C   0  0  0  0  0  0
  -22.4294   -8.0258   21.3545 C   0  0  0  0  0  0
  -21.9921   -9.0227   20.4660 C   0  0  0  0  0  0
  -22.7262  -10.2096   20.3060 C   0  0  0  0  0  0
  -21.6822   -6.0739   22.5281 C   0  0  0  0  0  0
  -21.3978   -6.5638   23.8219 C   0  0  0  0  0  0
  -21.3672   -5.6791   24.9174 C   0  0  0  0  0  0
  -21.6051   -4.3060   24.7234 C   0  0  0  0  0  0
  -21.8815   -3.8165   23.4354 C   0  0  0  0  0  0
  -21.9182   -4.6973   22.3408 C   0  0  0  0  0  0
  -22.7852  -13.5200   21.1869 C   0  0  0  0  0  0
  -22.1662   -4.2176   21.0985 F   0  0  0  0  0  0
  -21.5657   -3.4533   25.7738 F   0  0  0  0  0  0
  -30.0059  -13.4303   20.4694 N   0  0  0  0  0  0
  -26.2932  -12.9357   20.3145 N   0  0  0  0  0  0
  -25.9327  -11.6506   20.5679 N   0  0  0  0  0  0
  -22.0511  -12.8197   22.0412 N   0  0  0  0  0  0
  -25.4252  -15.1881   20.4101 N   0  0  0  0  0  0
  -31.7897  -14.6967   20.0082 O   0  0  0  0  0  0
  -21.6635   -6.8878   21.4255 O   0  0  0  0  0  0
  -22.3523  -14.5498   20.6726 O   0  0  0  0  0  0
  -24.6256  -31.8608   23.2041 C   0  0  0  0  0  0
  -25.9110  -32.4774   23.8375 C   0  0  1  0  0  0
  -27.2156  -27.3097   20.1005 C   0  0  0  0  0  0
  -25.5944  -33.8588   24.2296 N   0  0  0  0  0  0
  -23.4237  -30.4893   21.5399 C   0  0  2  0  0  0
  -24.8697  -28.9483   20.1083 C   0  0  0  0  0  0
  -22.7499  -29.4670   22.4862 C   0  0  0  0  0  0
  -18.0344  -28.1417   22.8476 C   0  0  0  0  0  0
  -24.1499  -36.7302   23.2639 C   0  0  0  0  0  0
  -25.9713  -30.7809   21.3896 C   0  0  0  0  0  0
  -26.0373  -29.4089   20.7303 C   0  0  0  0  0  0
  -27.2067  -28.5924   20.7350 C   0  0  0  0  0  0
  -26.0341  -26.9274   19.4235 C   0  0  0  0  0  0
  -24.8693  -27.7101   19.4551 C   0  0  0  0  0  0
  -23.6423  -29.8314   20.1540 C   0  0  0  0  0  0
  -25.4109  -36.3073   24.0332 C   0  0  1  0  0  0
  -20.5938  -28.3692   23.1269 C   0  0  2  0  0  0
  -20.6819  -26.9417   22.5358 C   0  0  0  0  0  0
  -19.5764  -26.6430   21.5171 C   0  0  0  0  0  0
  -18.1958  -26.7984   22.1576 C   0  0  0  0  0  0
  -19.1595  -28.8865   23.2885 C   0  0  0  0  0  0
  -18.9491  -30.1433   23.8949 C   0  0  0  0  0  0
  -17.6486  -30.6561   24.0630 C   0  0  0  0  0  0
  -25.9056  -34.9439   23.5101 C   0  0  0  0  0  0
  -16.5381  -29.9082   23.6350 C   0  0  0  0  0  0
  -16.7329  -28.6533   23.0330 C   0  0  0  0  0  0
  -26.4493  -31.6590   25.0759 C   0  0  0  0  0  0
  -25.3720  -31.3707   26.1480 C   0  0  0  0  0  0
  -27.0361  -30.3016   24.6245 C   0  0  0  0  0  0
  -27.6060  -32.4329   25.7501 C   0  0  0  0  0  0
  -27.5583  -37.1805   24.8462 C   0  0  0  0  0  0
  -21.4210  -29.3087   22.3653 N   0  0  0  0  0  0
  -26.4288  -37.3757   23.9419 N   0  0  0  0  0  0
  -24.6916  -31.0643   22.0980 N   0  0  0  0  0  0
  -23.4241  -28.8171   23.2903 O   0  0  0  0  0  0
  -28.3194  -26.4385   20.1616 O   0  0  0  0  0  0
  -26.5592  -34.8872   22.4660 O   0  0  0  0  0  0
  -23.5402  -32.1428   23.7332 O   0  0  0  0  0  0
  -29.3678  -19.7611   20.4598 C   0  0  0  0  0  0
  -29.5234  -18.8407   22.6618 C   0  0  0  0  0  0
  -29.5684  -18.5951   21.2820 C   0  0  0  0  0  0
  -29.0796  -21.0781   20.9984 C   0  0  0  0  0  0
  -29.0132  -21.1103   22.4192 C   0  0  0  0  0  0
  -28.5570  -22.3112   23.2222 C   0  0  0  0  0  0
  -29.1183  -22.1086   18.6201 C   0  0  0  0  0  0
  -29.5449  -15.5137   22.7936 C   0  0  0  0  0  0
  -31.7261  -16.3850   22.1011 C   0  0  0  0  0  0
  -29.7079  -17.1193   20.7085 C   0  0  0  0  0  0
  -29.0238  -23.8696   20.4627 C   0  0  0  0  0  0
  -28.1153  -25.0087   19.8097 C   0  0  0  0  0  0
  -28.6815  -22.3340   20.0843 C   0  0  2  0  0  0
  -30.3644  -15.8913   21.5324 C   0  0  0  0  0  0
  -29.2643  -20.0430   23.2040 N   0  0  0  0  0  0
  -31.4669  -12.4784   19.1769 H   0  0  0  0  0  0
  -30.3339  -11.4040   19.9106 H   0  0  0  0  0  0
  -29.7925  -11.7809   17.4899 H   0  0  0  0  0  0
  -29.6592  -13.5013   17.7741 H   0  0  0  0  0  0
  -27.8888  -11.2927   18.8860 H   0  0  0  0  0  0
  -27.3771  -12.5514   17.7841 H   0  0  0  0  0  0
  -27.6762  -14.2587   19.5098 H   0  0  0  0  0  0
  -28.6806  -12.0325   21.3314 H   0  0  0  0  0  0
  -28.2887  -13.6399   21.8071 H   0  0  0  0  0  0
  -25.2760   -9.5647   22.4772 H   0  0  0  0  0  0
  -24.0024   -7.4586   22.7471 H   0  0  0  0  0  0
  -21.0871   -8.8724   19.8941 H   0  0  0  0  0  0
  -22.3721  -10.9632   19.6174 H   0  0  0  0  0  0
  -21.1936   -7.6141   23.9727 H   0  0  0  0  0  0
  -21.1512   -6.0520   25.9073 H   0  0  0  0  0  0
  -22.0601   -2.7644   23.2832 H   0  0  0  0  0  0
  -22.4134  -11.9877   22.4825 H   0  0  0  0  0  0
  -21.1110  -13.1211   22.2617 H   0  0  0  0  0  0
  -24.6604  -15.8441   20.5146 H   0  0  0  0  0  0
  -26.2891  -15.6257   20.1204 H   0  0  0  0  0  0
  -26.7186  -32.5428   23.1112 H   0  0  0  0  0  0
  -25.0113  -33.9757   25.0447 H   0  0  0  0  0  0
  -22.7176  -31.3096   21.3914 H   0  0  0  0  0  0
  -23.3741  -35.9667   23.3272 H   0  0  0  0  0  0
  -24.3607  -36.8964   22.2072 H   0  0  0  0  0  0
  -23.7283  -37.6495   23.6684 H   0  0  0  0  0  0
  -26.1259  -31.5395   20.6204 H   0  0  0  0  0  0
  -26.8456  -30.8207   22.0295 H   0  0  0  0  0  0
  -28.0912  -28.9188   21.2628 H   0  0  0  0  0  0
  -25.9639  -26.0109   18.8585 H   0  0  0  0  0  0
  -23.9815  -27.3542   18.9537 H   0  0  0  0  0  0
  -23.7694  -30.6096   19.3988 H   0  0  0  0  0  0
  -22.7616  -29.2653   19.8402 H   0  0  0  0  0  0
  -25.1285  -36.1920   25.0824 H   0  0  0  0  0  0
  -21.0103  -28.3244   24.1352 H   0  0  0  0  0  0
  -20.5770  -26.2274   23.3526 H   0  0  0  0  0  0
  -21.6659  -26.7467   22.1095 H   0  0  0  0  0  0
  -19.6903  -25.6340   21.1160 H   0  0  0  0  0  0
  -19.6721  -27.3263   20.6714 H   0  0  0  0  0  0
  -17.4240  -26.6799   21.3959 H   0  0  0  0  0  0
  -18.0284  -26.0107   22.8928 H   0  0  0  0  0  0
  -19.7954  -30.7263   24.2362 H   0  0  0  0  0  0
  -17.5027  -31.6232   24.5260 H   0  0  0  0  0  0
  -15.5383  -30.2972   23.7681 H   0  0  0  0  0  0
  -15.8738  -28.0875   22.6971 H   0  0  0  0  0  0
  -24.5914  -30.7038   25.7795 H   0  0  0  0  0  0
  -24.8864  -32.2846   26.4900 H   0  0  0  0  0  0
  -25.8054  -30.8892   27.0257 H   0  0  0  0  0  0
  -26.2960  -29.6733   24.1276 H   0  0  0  0  0  0
  -27.4056  -29.7305   25.4769 H   0  0  0  0  0  0
  -27.8825  -30.4282   23.9495 H   0  0  0  0  0  0
  -27.2698  -33.3638   26.2050 H   0  0  0  0  0  0
  -28.3848  -32.6882   25.0314 H   0  0  0  0  0  0
  -28.0734  -31.8478   26.5412 H   0  0  0  0  0  0
  -28.2555  -38.0130   24.7505 H   0  0  0  0  0  0
  -28.1112  -36.2665   24.6269 H   0  0  0  0  0  0
  -27.2313  -37.1428   25.8859 H   0  0  0  0  0  0
  -20.9351  -29.8854   21.6912 H   0  0  0  0  0  0
  -26.0161  -38.2841   24.1373 H   0  0  0  0  0  0
  -29.3788  -19.5987   19.3954 H   0  0  0  0  0  0
  -29.6589  -18.0580   23.3854 H   0  0  0  0  0  0
  -27.6646  -22.7656   22.7868 H   0  0  0  0  0  0
  -29.3682  -23.0341   23.3092 H   0  0  0  0  0  0
  -28.2840  -22.0292   24.2381 H   0  0  0  0  0  0
  -28.6800  -21.2048   18.1965 H   0  0  0  0  0  0
  -30.2041  -22.0338   18.5312 H   0  0  0  0  0  0
  -28.7956  -22.9189   17.9675 H   0  0  0  0  0  0
  -28.4829  -15.7342   22.6692 H   0  0  0  0  0  0
  -29.8742  -16.0129   23.7022 H   0  0  0  0  0  0
  -29.6773  -14.4665   23.0641 H   0  0  0  0  0  0
  -31.6249  -17.1944   22.8195 H   0  0  0  0  0  0
  -32.3901  -16.7542   21.3214 H   0  0  0  0  0  0
  -32.2524  -15.5822   22.6234 H   0  0  0  0  0  0
  -30.2298  -17.1997   19.7531 H   0  0  0  0  0  0
  -28.6927  -16.8152   20.4427 H   0  0  0  0  0  0
  -28.9058  -24.0655   21.5167 H   0  0  0  0  0  0
  -30.0753  -24.0706   20.2578 H   0  0  0  0  0  0
  -27.1022  -24.7116   20.0775 H   0  0  0  0  0  0
  -28.1698  -24.9416   18.7226 H   0  0  0  0  0  0
  -27.5913  -22.2941   20.0929 H   0  0  0  0  0  0
  1 25  1  0  0  0
  1 30  2  0  0  0
  1 84  1  0  0  0
  2  3  1  0  0  0
  2 25  1  0  0  0
  2 86  1  0  0  0
  2 87  1  0  0  0
  3  4  1  0  0  0
  3 88  1  0  0  0
  3 89  1  0  0  0
  4  5  1  0  0  0
  4 90  1  0  0  0
  4 91  1  0  0  0
  5  6  1  0  0  0
  5 26  1  0  0  0
  5 92  1  0  0  0
  6 25  1  0  0  0
  6 93  1  0  0  0
  6 94  1  0  0  0
  7  8  2  0  0  0
  7 26  1  0  0  0
  7 29  1  0  0  0
  8  9  1  0  0  0
  8 22  1  0  0  0
  9 10  1  0  0  0
  9 27  2  0  0  0
 10 11  2  0  0  0
 10 15  1  0  0  0
 11 12  1  0  0  0
 11 95  1  0  0  0
 12 13  2  0  0  0
 12 96  1  0  0  0
 13 14  1  0  0  0
 13 31  1  0  0  0
 14 15  2  0  0  0
 14 97  1  0  0  0
 15 98  1  0  0  0
 16 17  2  0  0  0
 16 21  1  0  0  0
 16 31  1  0  0  0
 17 18  1  0  0  0
 17 99  1  0  0  0
 18 19  2  0  0  0
 18100  1  0  0  0
 19 20  1  0  0  0
 19 24  1  0  0  0
 20 21  2  0  0  0
 20101  1  0  0  0
 21 23  1  0  0  0
 22 28  1  0  0  0
 22 32  2  0  0  0
 26 27  1  0  0  0
 28102  1  0  0  0
 28103  1  0  0  0
 29104  1  0  0  0
 29105  1  0  0  0
 33 34  1  0  0  0
 33 66  1  0  0  0
 33 70  2  0  0  0
 34 36  1  0  0  0
 34 59  1  0  0  0
 34106  1  0  0  0
 35 44  2  0  0  0
 35 45  1  0  0  0
 35 68  1  0  0  0
 36 56  1  0  0  0
 36107  1  0  0  0
 37 39  1  0  0  0
 37 47  1  0  0  0
 37 66  1  0  0  0
 37108  1  0  0  0
 38 43  2  0  0  0
 38 46  1  0  0  0
 38 47  1  0  0  0
 39 64  1  0  0  0
 39 67  2  0  0  0
 40 52  1  0  0  0
 40 53  2  0  0  0
 40 58  1  0  0  0
 41109  1  0  0  0
 41110  1  0  0  0
 41111  1  0  0  0
 41 48  1  0  0  0
 42 43  1  0  0  0
 42 66  1  0  0  0
 42112  1  0  0  0
 42113  1  0  0  0
 43 44  1  0  0  0
 44114  1  0  0  0
 45 46  2  0  0  0
 45115  1  0  0  0
 46116  1  0  0  0
 47117  1  0  0  0
 47118  1  0  0  0
 48 56  1  0  0  0
 48 65  1  0  0  0
 48119  1  0  0  0
 49 50  1  0  0  0
 49 53  1  0  0  0
 49 64  1  0  0  0
 49120  1  0  0  0
 50 51  1  0  0  0
 50121  1  0  0  0
 50122  1  0  0  0
 51 52  1  0  0  0
 51123  1  0  0  0
 51124  1  0  0  0
 52125  1  0  0  0
 52126  1  0  0  0
 53 54  1  0  0  0
 54 55  2  0  0  0
 54127  1  0  0  0
 55 57  1  0  0  0
 55128  1  0  0  0
 56 69  2  0  0  0
 57 58  2  0  0  0
 57129  1  0  0  0
 58130  1  0  0  0
 59 60  1  0  0  0
 59 61  1  0  0  0
 59 62  1  0  0  0
 60131  1  0  0  0
 60132  1  0  0  0
 60133  1  0  0  0
 61134  1  0  0  0
 61135  1  0  0  0
 61136  1  0  0  0
 62137  1  0  0  0
 62138  1  0  0  0
 62139  1  0  0  0
 63 65  1  0  0  0
 63140  1  0  0  0
 63141  1  0  0  0
 63142  1  0  0  0
 64143  1  0  0  0
 65144  1  0  0  0
 68 82  1  0  0  0
 71 73  2  0  0  0
 71 74  1  0  0  0
 71145  1  0  0  0
 72 73  1  0  0  0
 72 85  2  0  0  0
 72146  1  0  0  0
 73 80  1  0  0  0
 74 75  2  0  0  0
 74 83  1  0  0  0
 75 76  1  0  0  0
 75 85  1  0  0  0
 76147  1  0  0  0
 76148  1  0  0  0
 76149  1  0  0  0
 77150  1  0  0  0
 77151  1  0  0  0
 77152  1  0  0  0
 77 83  1  0  0  0
 78153  1  0  0  0
 78154  1  0  0  0
 78155  1  0  0  0
 78 84  1  0  0  0
 79 84  1  0  0  0
 79156  1  0  0  0
 79157  1  0  0  0
 79158  1  0  0  0
 80 84  1  0  0  0
 80159  1  0  0  0
 80160  1  0  0  0
 81 82  1  0  0  0
 81 83  1  0  0  0
 81161  1  0  0  0
 81162  1  0  0  0
 82163  1  0  0  0
 82164  1  0  0  0
 83165  1  0  0  0
M  ISO  4   1 100  68 101  82 101  84 100
M  END
> <chiral flag>
0

> <version>
0

> <s_m_source_file>
/data/baiqing/PycharmProjects/Reinvent-master-3.2/result/LINK_invent/BTK/process_docking_weight1_custom_sum_contain_oxygen_bond_distance_aromatic_linkinvent_7_9_3/rearranged_h_0086.sdf

> <i_m_source_file_index>
24

> <r_mmod_Potential_Energy-OPLS-2005>
86.6399078369141

> <r_mmod_Stretch_Energy-OPLS-2005>
115.527534484863

> <r_mmod_Bend_Energy-OPLS-2005>
194.186859130859

> <r_mmod_Torsional_Energy-OPLS-2005>
192.826507568359

> <r_mmod_Improper_Torsional_Energy-OPLS-2005>
2.78975391387939

> <r_mmod_Van_der_Waal_Energy-OPLS-2005>
183.20085144043

> <r_mmod_Electrostatic_Energy-OPLS-2005>
-450.773254394531

> <r_mmod_Solvation_Energy-OPLS-2005>
-198.25537109375

> <b_mmod_Minimization_Converged-OPLS-2005>
0

> <r_mmod_RMS_Derivative-OPLS-2005>
5.85990762710571

$$$$
24
                    3D
 Structure written by MMmdl.
168176  0  0  1  0            999 V2000
  -30.7486  -14.4003   20.6909 C   0  0  0  0  0  0
  -30.4232  -12.3129   19.3991 C   0  0  0  0  0  0
  -29.4921  -12.5388   18.1906 C   0  0  0  0  0  0
  -28.0126  -12.3914   18.6000 C   0  0  0  0  0  0
  -27.6663  -13.2056   19.8754 C   0  0  2  0  0  0
  -28.7037  -12.9493   20.9921 C   0  0  0  0  0  0
  -25.2613  -13.8178   20.5683 C   0  0  0  0  0  0
  -24.1851  -13.0463   20.9154 C   0  0  0  0  0  0
  -24.6389  -11.6927   20.8697 C   0  0  0  0  0  0
  -23.9055  -10.4317   21.0399 C   0  0  0  0  0  0
  -24.3609   -9.4236   21.9170 C   0  0  0  0  0  0
  -23.6305   -8.2266   22.0750 C   0  0  0  0  0  0
  -22.4288   -8.0284   21.3545 C   0  0  0  0  0  0
  -21.9912   -9.0260   20.4654 C   0  0  0  0  0  0
  -22.7230  -10.2150   20.3056 C   0  0  0  0  0  0
  -21.6851   -6.0745   22.5294 C   0  0  0  0  0  0
  -21.4005   -6.5646   23.8232 C   0  0  0  0  0  0
  -21.3651   -5.6790   24.9188 C   0  0  0  0  0  0
  -21.6050   -4.3054   24.7218 C   0  0  0  0  0  0
  -21.8817   -3.8150   23.4331 C   0  0  0  0  0  0
  -21.9191   -4.6975   22.3396 C   0  0  0  0  0  0
  -22.7877  -13.5273   21.1820 C   0  0  0  0  0  0
  -22.1662   -4.2172   21.0968 F   0  0  0  0  0  0
  -21.5637   -3.4528   25.7721 F   0  0  0  0  0  0
  -30.0452  -13.2572   20.4622 N   0  0  0  0  0  0
  -26.3042  -12.9337   20.3343 N   0  0  0  0  0  0
  -25.9308  -11.6486   20.5699 N   0  0  0  0  0  0
  -22.0482  -12.8302   22.0375 N   0  0  0  0  0  0
  -25.4384  -15.1899   20.4171 N   0  0  0  0  0  0
  -31.7823  -14.6886   20.0844 O   0  0  0  0  0  0
  -21.6646   -6.8886   21.4261 O   0  0  0  0  0  0
  -22.3572  -14.5563   20.6648 O   0  0  0  0  0  0
  -24.6083  -31.8709   23.2113 C   0  0  0  0  0  0
  -25.8993  -32.4840   23.8398 C   0  0  1  0  0  0
  -27.2421  -27.4622   20.1072 C   0  0  0  0  0  0
  -25.5882  -33.8632   24.2343 N   0  0  0  0  0  0
  -23.3965  -30.4929   21.5485 C   0  0  2  0  0  0
  -24.8481  -28.9535   20.1196 C   0  0  0  0  0  0
  -22.7367  -29.4682   22.4983 C   0  0  0  0  0  0
  -18.0276  -28.1392   22.8509 C   0  0  0  0  0  0
  -24.1488  -36.7341   23.2638 C   0  0  0  0  0  0
  -25.9199  -30.8408   21.3621 C   0  0  0  0  0  0
  -26.0002  -29.4713   20.7254 C   0  0  0  0  0  0
  -27.1991  -28.7277   20.7299 C   0  0  0  0  0  0
  -26.0804  -26.9507   19.4945 C   0  0  0  0  0  0
  -24.8794  -27.6860   19.5069 C   0  0  0  0  0  0
  -23.6075  -29.8165   20.1657 C   0  0  0  0  0  0
  -25.4098  -36.3123   24.0358 C   0  0  1  0  0  0
  -20.5866  -28.3659   23.1347 C   0  0  2  0  0  0
  -20.6759  -26.9395   22.5444 C   0  0  0  0  0  0
  -19.5734  -26.6389   21.5235 C   0  0  0  0  0  0
  -18.1922  -26.7940   22.1650 C   0  0  0  0  0  0
  -19.1528  -28.8838   23.2934 C   0  0  0  0  0  0
  -18.9473  -30.1465   23.8914 C   0  0  0  0  0  0
  -17.6484  -30.6611   24.0599 C   0  0  0  0  0  0
  -25.9029  -34.9489   23.5143 C   0  0  0  0  0  0
  -16.5368  -29.9131   23.6341 C   0  0  0  0  0  0
  -16.7272  -28.6551   23.0338 C   0  0  0  0  0  0
  -26.4446  -31.6625   25.0717 C   0  0  0  0  0  0
  -25.3733  -31.3732   26.1483 C   0  0  0  0  0  0
  -27.0305  -30.3075   24.6094 C   0  0  0  0  0  0
  -27.6051  -32.4334   25.7435 C   0  0  0  0  0  0
  -27.5586  -37.1825   24.8463 C   0  0  0  0  0  0
  -21.4094  -29.3047   22.3738 N   0  0  0  0  0  0
  -26.4284  -37.3810   23.9427 N   0  0  0  0  0  0
  -24.6595  -31.0820   22.1007 N   0  0  0  0  0  0
  -23.4158  -28.8218   23.2998 O   0  0  0  0  0  0
  -28.3948  -26.7179   20.0638 O   0  0  0  0  0  0
  -26.5587  -34.8952   22.4700 O   0  0  0  0  0  0
  -23.5281  -32.1454   23.7520 O   0  0  0  0  0  0
  -29.9053  -22.0920   19.9586 C   0  0  0  0  0  0
  -29.9679  -21.5058   21.2515 C   0  0  0  0  0  0
  -30.8404  -23.9841   20.8229 C   0  0  0  0  0  0
  -29.3288  -21.3883   18.7445 C   0  0  0  0  0  0
  -30.2053  -19.2095   23.7856 C   0  0  0  0  0  0
  -28.2891  -17.2752   22.3308 C   0  0  0  0  0  0
  -29.2789  -20.1828   21.6113 C   0  0  0  0  0  0
  -31.2319  -25.4455   20.6389 C   0  0  0  0  0  0
  -30.3720  -26.4330   21.4549 C   0  0  0  0  0  0
  -30.7205  -16.5186   22.0656 C   0  0  0  0  0  0
  -28.8494  -26.2590   21.3351 C   0  0  0  0  0  0
  -30.1598  -19.0661   22.2455 C   0  0  2  0  0  0
  -29.6886  -17.6466   21.7876 C   0  0  2  0  0  0
  -30.3415  -23.3545   19.7577 N   0  0  0  0  0  0
  -30.5127  -22.2143   22.2758 N   0  0  0  0  0  0
  -30.9723  -23.4568   22.0541 N   0  0  0  0  0  0
  -30.2333  -15.2036   21.6364 N   0  0  0  0  0  0
  -31.4681  -12.4220   19.1021 H   0  0  0  0  0  0
  -30.3287  -11.2904   19.7688 H   0  0  0  0  0  0
  -29.7351  -11.8352   17.3939 H   0  0  0  0  0  0
  -29.6628  -13.5356   17.7797 H   0  0  0  0  0  0
  -27.8086  -11.3315   18.7654 H   0  0  0  0  0  0
  -27.3687  -12.6975   17.7738 H   0  0  0  0  0  0
  -27.7240  -14.2586   19.5997 H   0  0  0  0  0  0
  -28.6824  -11.9014   21.2951 H   0  0  0  0  0  0
  -28.4414  -13.5120   21.8891 H   0  0  0  0  0  0
  -25.2759   -9.5719   22.4731 H   0  0  0  0  0  0
  -24.0034   -7.4647   22.7464 H   0  0  0  0  0  0
  -21.0838   -8.8754   19.8966 H   0  0  0  0  0  0
  -22.3665  -10.9674   19.6147 H   0  0  0  0  0  0
  -21.1991   -7.6160   23.9726 H   0  0  0  0  0  0
  -21.1477   -6.0528   25.9097 H   0  0  0  0  0  0
  -22.0598   -2.7620   23.2812 H   0  0  0  0  0  0
  -22.4067  -11.9970   22.4794 H   0  0  0  0  0  0
  -21.1087  -13.1343   22.2521 H   0  0  0  0  0  0
  -24.6830  -15.8529   20.5553 H   0  0  0  0  0  0
  -26.3095  -15.6294   20.1476 H   0  0  0  0  0  0
  -26.7041  -32.5586   23.1142 H   0  0  0  0  0  0
  -25.0032  -33.9782   25.0483 H   0  0  0  0  0  0
  -22.6862  -31.3085   21.4030 H   0  0  0  0  0  0
  -23.3757  -35.9667   23.3279 H   0  0  0  0  0  0
  -24.3575  -36.8974   22.2055 H   0  0  0  0  0  0
  -23.7244  -37.6547   23.6650 H   0  0  0  0  0  0
  -26.0251  -31.5971   20.5819 H   0  0  0  0  0  0
  -26.8117  -30.8998   21.9735 H   0  0  0  0  0  0
  -28.0868  -29.1267   21.2007 H   0  0  0  0  0  0
  -26.1049  -25.9780   19.0226 H   0  0  0  0  0  0
  -23.9882  -27.2784   19.0496 H   0  0  0  0  0  0
  -23.7143  -30.5822   19.3969 H   0  0  0  0  0  0
  -22.7349  -29.2286   19.8759 H   0  0  0  0  0  0
  -25.1262  -36.1976   25.0852 H   0  0  0  0  0  0
  -20.9981  -28.3242   24.1462 H   0  0  0  0  0  0
  -20.5679  -26.2257   23.3633 H   0  0  0  0  0  0
  -21.6626  -26.7450   22.1226 H   0  0  0  0  0  0
  -19.6872  -25.6294   21.1275 H   0  0  0  0  0  0
  -19.6692  -27.3183   20.6758 H   0  0  0  0  0  0
  -17.4199  -26.6718   21.4051 H   0  0  0  0  0  0
  -18.0314  -26.0072   22.9030 H   0  0  0  0  0  0
  -19.7963  -30.7281   24.2253 H   0  0  0  0  0  0
  -17.5064  -31.6278   24.5230 H   0  0  0  0  0  0
  -15.5374  -30.3066   23.7645 H   0  0  0  0  0  0
  -15.8669  -28.0920   22.6982 H   0  0  0  0  0  0
  -24.5877  -30.7081   25.7847 H   0  0  0  0  0  0
  -24.8931  -32.2885   26.4965 H   0  0  0  0  0  0
  -25.8116  -30.8894   27.0219 H   0  0  0  0  0  0
  -26.2836  -29.6752   24.1246 H   0  0  0  0  0  0
  -27.4199  -29.7393   25.4558 H   0  0  0  0  0  0
  -27.8617  -30.4420   23.9156 H   0  0  0  0  0  0
  -27.2726  -33.3687   26.1943 H   0  0  0  0  0  0
  -28.3869  -32.6788   25.0232 H   0  0  0  0  0  0
  -28.0669  -31.8467   26.5382 H   0  0  0  0  0  0
  -28.2600  -38.0131   24.7510 H   0  0  0  0  0  0
  -28.1098  -36.2664   24.6264 H   0  0  0  0  0  0
  -27.2318  -37.1445   25.8873 H   0  0  0  0  0  0
  -20.9228  -29.8841   21.7040 H   0  0  0  0  0  0
  -26.0191  -38.2892   24.1428 H   0  0  0  0  0  0
  -28.2927  -21.1004   18.9197 H   0  0  0  0  0  0
  -29.9118  -20.4942   18.5276 H   0  0  0  0  0  0
  -29.3509  -22.0267   17.8601 H   0  0  0  0  0  0
  -30.5199  -20.2067   24.0893 H   0  0  0  0  0  0
  -30.9129  -18.5150   24.2373 H   0  0  0  0  0  0
  -29.2295  -19.0352   24.2407 H   0  0  0  0  0  0
  -27.8676  -16.4227   21.7961 H   0  0  0  0  0  0
  -27.5723  -18.0902   22.2291 H   0  0  0  0  0  0
  -28.3313  -17.0126   23.3878 H   0  0  0  0  0  0
  -28.8174  -19.7885   20.7086 H   0  0  0  0  0  0
  -28.4408  -20.4117   22.2677 H   0  0  0  0  0  0
  -31.1525  -25.7068   19.5825 H   0  0  0  0  0  0
  -32.2831  -25.5697   20.8989 H   0  0  0  0  0  0
  -30.6462  -27.4576   21.2027 H   0  0  0  0  0  0
  -30.6354  -26.3056   22.5045 H   0  0  0  0  0  0
  -30.9249  -16.4593   23.1369 H   0  0  0  0  0  0
  -31.6720  -16.7552   21.5862 H   0  0  0  0  0  0
  -28.3797  -26.7935   22.1639 H   0  0  0  0  0  0
  -28.5562  -25.2177   21.4680 H   0  0  0  0  0  0
  -31.1725  -19.2006   21.8641 H   0  0  0  0  0  0
  -29.5998  -17.6926   20.7005 H   0  0  0  0  0  0
  -29.4009  -14.8619   22.0908 H   0  0  0  0  0  0
  1 25  1  0  0  0
  1 30  2  0  0  0
  1 87  1  0  0  0
  2  3  1  0  0  0
  2 25  1  0  0  0
  2 88  1  0  0  0
  2 89  1  0  0  0
  3  4  1  0  0  0
  3 90  1  0  0  0
  3 91  1  0  0  0
  4  5  1  0  0  0
  4 92  1  0  0  0
  4 93  1  0  0  0
  5  6  1  0  0  0
  5 26  1  0  0  0
  5 94  1  0  0  0
  6 25  1  0  0  0
  6 95  1  0  0  0
  6 96  1  0  0  0
  7  8  2  0  0  0
  7 26  1  0  0  0
  7 29  1  0  0  0
  8  9  1  0  0  0
  8 22  1  0  0  0
  9 10  1  0  0  0
  9 27  2  0  0  0
 10 11  2  0  0  0
 10 15  1  0  0  0
 11 12  1  0  0  0
 11 97  1  0  0  0
 12 13  2  0  0  0
 12 98  1  0  0  0
 13 14  1  0  0  0
 13 31  1  0  0  0
 14 15  2  0  0  0
 14 99  1  0  0  0
 15100  1  0  0  0
 16 17  2  0  0  0
 16 21  1  0  0  0
 16 31  1  0  0  0
 17 18  1  0  0  0
 17101  1  0  0  0
 18 19  2  0  0  0
 18102  1  0  0  0
 19 20  1  0  0  0
 19 24  1  0  0  0
 20 21  2  0  0  0
 20103  1  0  0  0
 21 23  1  0  0  0
 22 28  1  0  0  0
 22 32  2  0  0  0
 26 27  1  0  0  0
 28104  1  0  0  0
 28105  1  0  0  0
 29106  1  0  0  0
 29107  1  0  0  0
 33 34  1  0  0  0
 33 66  1  0  0  0
 33 70  2  0  0  0
 34 36  1  0  0  0
 34 59  1  0  0  0
 34108  1  0  0  0
 35 44  2  0  0  0
 35 45  1  0  0  0
 35 68  1  0  0  0
 36 56  1  0  0  0
 36109  1  0  0  0
 37 39  1  0  0  0
 37 47  1  0  0  0
 37 66  1  0  0  0
 37110  1  0  0  0
 38 43  2  0  0  0
 38 46  1  0  0  0
 38 47  1  0  0  0
 39 64  1  0  0  0
 39 67  2  0  0  0
 40 52  1  0  0  0
 40 53  2  0  0  0
 40 58  1  0  0  0
 41111  1  0  0  0
 41112  1  0  0  0
 41113  1  0  0  0
 41 48  1  0  0  0
 42 43  1  0  0  0
 42 66  1  0  0  0
 42114  1  0  0  0
 42115  1  0  0  0
 43 44  1  0  0  0
 44116  1  0  0  0
 45 46  2  0  0  0
 45117  1  0  0  0
 46118  1  0  0  0
 47119  1  0  0  0
 47120  1  0  0  0
 48 56  1  0  0  0
 48 65  1  0  0  0
 48121  1  0  0  0
 49 50  1  0  0  0
 49 53  1  0  0  0
 49 64  1  0  0  0
 49122  1  0  0  0
 50 51  1  0  0  0
 50123  1  0  0  0
 50124  1  0  0  0
 51 52  1  0  0  0
 51125  1  0  0  0
 51126  1  0  0  0
 52127  1  0  0  0
 52128  1  0  0  0
 53 54  1  0  0  0
 54 55  2  0  0  0
 54129  1  0  0  0
 55 57  1  0  0  0
 55130  1  0  0  0
 56 69  2  0  0  0
 57 58  2  0  0  0
 57131  1  0  0  0
 58132  1  0  0  0
 59 60  1  0  0  0
 59 61  1  0  0  0
 59 62  1  0  0  0
 60133  1  0  0  0
 60134  1  0  0  0
 60135  1  0  0  0
 61136  1  0  0  0
 61137  1  0  0  0
 61138  1  0  0  0
 62139  1  0  0  0
 62140  1  0  0  0
 62141  1  0  0  0
 63 65  1  0  0  0
 63142  1  0  0  0
 63143  1  0  0  0
 63144  1  0  0  0
 64145  1  0  0  0
 65146  1  0  0  0
 68 81  1  0  0  0
 71 72  2  0  0  0
 71 74  1  0  0  0
 71 84  1  0  0  0
 72 77  1  0  0  0
 72 85  1  0  0  0
 73 78  1  0  0  0
 73 84  2  0  0  0
 73 86  1  0  0  0
 74147  1  0  0  0
 74148  1  0  0  0
 74149  1  0  0  0
 75150  1  0  0  0
 75151  1  0  0  0
 75152  1  0  0  0
 75 82  1  0  0  0
 76153  1  0  0  0
 76154  1  0  0  0
 76155  1  0  0  0
 76 83  1  0  0  0
 77 82  1  0  0  0
 77156  1  0  0  0
 77157  1  0  0  0
 78 79  1  0  0  0
 78158  1  0  0  0
 78159  1  0  0  0
 79 81  1  0  0  0
 79160  1  0  0  0
 79161  1  0  0  0
 80 83  1  0  0  0
 80 87  1  0  0  0
 80162  1  0  0  0
 80163  1  0  0  0
 81164  1  0  0  0
 81165  1  0  0  0
 82 83  1  0  0  0
 82166  1  0  0  0
 83167  1  0  0  0
 85 86  2  0  0  0
 87168  1  0  0  0
M  ISO  4   1 100  68 101  81 101  87 100
M  END
> <chiral flag>
0

> <version>
0

> <s_m_source_file>
/data/baiqing/PycharmProjects/Reinvent-master-3.2/result/LINK_invent/BTK/process_docking_weight1_custom_sum_contain_oxygen_bond_distance_aromatic_linkinvent_7_9_3/rearranged_h_0086.sdf

> <i_m_source_file_index>
25

> <r_mmod_Potential_Energy-OPLS-2005>
-152.911926269531

> <r_mmod_Stretch_Energy-OPLS-2005>
39.5178756713867

> <r_mmod_Bend_Energy-OPLS-2005>
103.594314575195

> <r_mmod_Torsional_Energy-OPLS-2005>
223.736236572266

> <r_mmod_Improper_Torsional_Energy-OPLS-2005>
2.37332844734192

> <r_mmod_Van_der_Waal_Energy-OPLS-2005>
160.903137207031

> <r_mmod_Electrostatic_Energy-OPLS-2005>
-462.394989013672

> <r_mmod_Solvation_Energy-OPLS-2005>
-227.973175048828

> <b_mmod_Minimization_Converged-OPLS-2005>
0

> <r_mmod_RMS_Derivative-OPLS-2005>
4.62972259521484

$$$$
25
                    3D
 Structure written by MMmdl.
164172  0  0  1  0            999 V2000
  -30.5626  -14.9330   20.4816 C   0  0  0  0  0  0
  -30.4391  -12.5870   19.4964 C   0  0  0  0  0  0
  -29.5177  -12.5514   18.2522 C   0  0  0  0  0  0
  -28.0490  -12.3265   18.6598 C   0  0  0  0  0  0
  -27.6324  -13.2347   19.8427 C   0  0  2  0  0  0
  -28.6797  -13.1926   20.9768 C   0  0  0  0  0  0
  -25.2419  -13.8169   20.5642 C   0  0  0  0  0  0
  -24.1756  -13.0407   20.9209 C   0  0  0  0  0  0
  -24.6380  -11.6895   20.8763 C   0  0  0  0  0  0
  -23.9073  -10.4273   21.0418 C   0  0  0  0  0  0
  -24.3622   -9.4185   21.9188 C   0  0  0  0  0  0
  -23.6293   -8.2226   22.0749 C   0  0  0  0  0  0
  -22.4267   -8.0272   21.3549 C   0  0  0  0  0  0
  -21.9920   -9.0244   20.4645 C   0  0  0  0  0  0
  -22.7254  -10.2119   20.3058 C   0  0  0  0  0  0
  -21.6836   -6.0733   22.5284 C   0  0  0  0  0  0
  -21.4012   -6.5640   23.8218 C   0  0  0  0  0  0
  -21.3663   -5.6791   24.9180 C   0  0  0  0  0  0
  -21.6043   -4.3056   24.7233 C   0  0  0  0  0  0
  -21.8823   -3.8146   23.4355 C   0  0  0  0  0  0
  -21.9184   -4.6959   22.3409 C   0  0  0  0  0  0
  -22.7771  -13.5171   21.1880 C   0  0  0  0  0  0
  -22.1654   -4.2147   21.0983 F   0  0  0  0  0  0
  -21.5629   -3.4546   25.7752 F   0  0  0  0  0  0
  -29.9549  -13.6684   20.4139 N   0  0  0  0  0  0
  -26.2876  -12.9398   20.3228 N   0  0  0  0  0  0
  -25.9309  -11.6540   20.5737 N   0  0  0  0  0  0
  -22.0454  -12.8154   22.0446 N   0  0  0  0  0  0
  -25.3977  -15.1896   20.3965 N   0  0  0  0  0  0
  -31.7273  -14.9498   20.0650 O   0  0  0  0  0  0
  -21.6623   -6.8875   21.4244 O   0  0  0  0  0  0
  -22.3426  -14.5471   20.6728 O   0  0  0  0  0  0
  -24.6397  -31.8466   23.1895 C   0  0  0  0  0  0
  -25.9180  -32.4706   23.8275 C   0  0  1  0  0  0
  -27.2214  -27.1635   20.1538 C   0  0  0  0  0  0
  -25.5940  -33.8513   24.2196 N   0  0  0  0  0  0
  -23.4414  -30.4645   21.5354 C   0  0  2  0  0  0
  -24.8906  -28.8882   20.1176 C   0  0  0  0  0  0
  -22.7540  -29.4554   22.4882 C   0  0  0  0  0  0
  -18.0299  -28.1391   22.8468 C   0  0  0  0  0  0
  -24.1495  -36.7264   23.2639 C   0  0  0  0  0  0
  -25.9942  -30.7281   21.3833 C   0  0  0  0  0  0
  -26.0678  -29.3401   20.7281 C   0  0  0  0  0  0
  -27.2370  -28.4953   20.7239 C   0  0  0  0  0  0
  -26.0204  -26.8002   19.5104 C   0  0  0  0  0  0
  -24.8770  -27.6295   19.4951 C   0  0  0  0  0  0
  -23.6673  -29.7906   20.1562 C   0  0  0  0  0  0
  -25.4126  -36.3034   24.0308 C   0  0  1  0  0  0
  -20.5902  -28.3710   23.1244 C   0  0  2  0  0  0
  -20.6785  -26.9416   22.5406 C   0  0  0  0  0  0
  -19.5761  -26.6375   21.5209 C   0  0  0  0  0  0
  -18.1941  -26.7928   22.1615 C   0  0  0  0  0  0
  -19.1553  -28.8870   23.2845 C   0  0  0  0  0  0
  -18.9474  -30.1468   23.8865 C   0  0  0  0  0  0
  -17.6473  -30.6585   24.0558 C   0  0  0  0  0  0
  -25.9074  -34.9412   23.5062 C   0  0  0  0  0  0
  -16.5362  -29.9080   23.6337 C   0  0  0  0  0  0
  -16.7284  -28.6502   23.0347 C   0  0  0  0  0  0
  -26.4515  -31.6557   25.0700 C   0  0  0  0  0  0
  -25.3711  -31.3738   26.1403 C   0  0  0  0  0  0
  -27.0377  -30.2952   24.6266 C   0  0  0  0  0  0
  -27.6039  -32.4331   25.7490 C   0  0  0  0  0  0
  -27.5580  -37.1786   24.8459 C   0  0  0  0  0  0
  -21.4236  -29.3038   22.3615 N   0  0  0  0  0  0
  -26.4291  -37.3743   23.9402 N   0  0  0  0  0  0
  -24.7111  -31.0348   22.0911 N   0  0  0  0  0  0
  -23.4196  -28.8108   23.3027 O   0  0  0  0  0  0
  -28.3002  -26.2177   20.1558 O   0  0  0  0  0  0
  -26.5665  -34.8900   22.4641 O   0  0  0  0  0  0
  -23.5524  -32.1333   23.7135 O   0  0  0  0  0  0
  -29.1652  -20.5794   20.0809 C   0  0  0  0  0  0
  -29.2374  -21.9588   20.6343 C   0  0  0  0  0  0
  -29.7348  -19.3845   20.7523 C   0  0  0  0  0  0
  -29.9114  -21.9560   21.8866 C   0  0  0  0  0  0
  -30.2211  -23.2230   22.6600 C   0  0  0  0  0  0
  -28.1694  -23.1163   18.5476 C   0  0  0  0  0  0
  -31.2301  -17.9440   19.2549 C   0  0  0  0  0  0
  -28.5355  -16.3142   21.5704 C   0  0  0  0  0  0
  -30.8523  -16.6346   22.3186 C   0  0  0  0  0  0
  -28.1142  -24.7385   20.5750 C   0  0  0  0  0  0
  -28.8629  -23.3945   19.8909 C   0  0  1  0  0  0
  -29.9801  -17.8610   20.1464 C   0  0  2  0  0  0
  -29.9808  -16.4128   21.0553 C   0  0  0  0  0  0
  -30.3540  -19.6205   21.9304 N   0  0  0  0  0  0
  -30.4037  -20.8371   22.4847 N   0  0  0  0  0  0
  -31.4732  -12.7302   19.1808 H   0  0  0  0  0  0
  -30.4346  -11.6223   20.0042 H   0  0  0  0  0  0
  -29.8374  -11.7692   17.5622 H   0  0  0  0  0  0
  -29.6076  -13.4932   17.7075 H   0  0  0  0  0  0
  -27.9360  -11.2786   18.9408 H   0  0  0  0  0  0
  -27.3896  -12.4881   17.8066 H   0  0  0  0  0  0
  -27.6084  -14.2421   19.4317 H   0  0  0  0  0  0
  -28.7764  -12.1732   21.3526 H   0  0  0  0  0  0
  -28.3628  -13.7551   21.8449 H   0  0  0  0  0  0
  -25.2770   -9.5653   22.4752 H   0  0  0  0  0  0
  -24.0014   -7.4612   22.7453 H   0  0  0  0  0  0
  -21.0867   -8.8757   19.8938 H   0  0  0  0  0  0
  -22.3730  -10.9652   19.6153 H   0  0  0  0  0  0
  -21.2012   -7.6148   23.9726 H   0  0  0  0  0  0
  -21.1469   -6.0517   25.9080 H   0  0  0  0  0  0
  -22.0602   -2.7607   23.2858 H   0  0  0  0  0  0
  -22.4101  -11.9824   22.4832 H   0  0  0  0  0  0
  -21.1056  -13.1130   22.2654 H   0  0  0  0  0  0
  -24.6272  -15.8396   20.5052 H   0  0  0  0  0  0
  -26.2425  -15.6330   20.0628 H   0  0  0  0  0  0
  -26.7237  -32.5328   23.1000 H   0  0  0  0  0  0
  -25.0040  -33.9635   25.0308 H   0  0  0  0  0  0
  -22.7408  -31.2882   21.3827 H   0  0  0  0  0  0
  -23.3754  -35.9599   23.3283 H   0  0  0  0  0  0
  -24.3570  -36.8923   22.2056 H   0  0  0  0  0  0
  -23.7265  -37.6455   23.6699 H   0  0  0  0  0  0
  -26.1475  -31.4827   20.6114 H   0  0  0  0  0  0
  -26.8652  -30.7793   22.0250 H   0  0  0  0  0  0
  -28.1400  -28.8427   21.2052 H   0  0  0  0  0  0
  -25.9560  -25.8394   19.0199 H   0  0  0  0  0  0
  -23.9773  -27.2779   19.0090 H   0  0  0  0  0  0
  -23.8042  -30.5653   19.4008 H   0  0  0  0  0  0
  -22.7822  -29.2331   19.8445 H   0  0  0  0  0  0
  -25.1318  -36.1856   25.0800 H   0  0  0  0  0  0
  -20.9988  -28.3309   24.1369 H   0  0  0  0  0  0
  -20.5689  -26.2318   23.3619 H   0  0  0  0  0  0
  -21.6654  -26.7434   22.1205 H   0  0  0  0  0  0
  -19.6926  -25.6284   21.1250 H   0  0  0  0  0  0
  -19.6707  -27.3170   20.6729 H   0  0  0  0  0  0
  -17.4212  -26.6662   21.4019 H   0  0  0  0  0  0
  -18.0345  -26.0082   22.9024 H   0  0  0  0  0  0
  -19.7949  -30.7292   24.2216 H   0  0  0  0  0  0
  -17.5027  -31.6262   24.5161 H   0  0  0  0  0  0
  -15.5359  -30.2973   23.7684 H   0  0  0  0  0  0
  -15.8681  -28.0819   22.7069 H   0  0  0  0  0  0
  -24.5885  -30.7094   25.7721 H   0  0  0  0  0  0
  -24.8908  -32.2920   26.4793 H   0  0  0  0  0  0
  -25.8005  -30.8927   27.0201 H   0  0  0  0  0  0
  -26.2985  -29.6673   24.1281 H   0  0  0  0  0  0
  -27.3991  -29.7252   25.4836 H   0  0  0  0  0  0
  -27.8893  -30.4168   23.9571 H   0  0  0  0  0  0
  -27.2606  -33.3638   26.2015 H   0  0  0  0  0  0
  -28.3872  -32.6887   25.0344 H   0  0  0  0  0  0
  -28.0676  -31.8499   26.5453 H   0  0  0  0  0  0
  -28.2578  -38.0101   24.7512 H   0  0  0  0  0  0
  -28.1100  -36.2629   24.6284 H   0  0  0  0  0  0
  -27.2292  -37.1426   25.8859 H   0  0  0  0  0  0
  -20.9442  -29.8740   21.6783 H   0  0  0  0  0  0
  -26.0154  -38.2807   24.1412 H   0  0  0  0  0  0
  -28.7346  -20.4335   19.1013 H   0  0  0  0  0  0
  -30.5768  -24.0170   22.0048 H   0  0  0  0  0  0
  -31.0035  -23.0513   23.3999 H   0  0  0  0  0  0
  -29.3387  -23.5627   23.2014 H   0  0  0  0  0  0
  -28.7826  -22.4887   17.9016 H   0  0  0  0  0  0
  -27.9762  -24.0411   18.0034 H   0  0  0  0  0  0
  -27.2111  -22.6171   18.6948 H   0  0  0  0  0  0
  -32.1314  -18.0805   19.8515 H   0  0  0  0  0  0
  -31.1587  -18.7900   18.5702 H   0  0  0  0  0  0
  -31.3584  -17.0551   18.6402 H   0  0  0  0  0  0
  -28.1492  -17.2954   21.8476 H   0  0  0  0  0  0
  -28.4473  -15.7123   22.4717 H   0  0  0  0  0  0
  -27.8739  -15.9333   20.8031 H   0  0  0  0  0  0
  -31.0252  -15.7047   22.8648 H   0  0  0  0  0  0
  -30.3849  -17.3106   23.0337 H   0  0  0  0  0  0
  -31.8305  -17.0428   22.0620 H   0  0  0  0  0  0
  -28.3978  -24.7756   21.6220 H   0  0  0  0  0  0
  -27.0470  -24.5221   20.6197 H   0  0  0  0  0  0
  -29.8544  -23.7697   19.6344 H   0  0  0  0  0  0
  -29.1482  -17.7448   19.4497 H   0  0  0  0  0  0
  1 25  1  0  0  0
  1 30  2  0  0  0
  1 83  1  0  0  0
  2  3  1  0  0  0
  2 25  1  0  0  0
  2 86  1  0  0  0
  2 87  1  0  0  0
  3  4  1  0  0  0
  3 88  1  0  0  0
  3 89  1  0  0  0
  4  5  1  0  0  0
  4 90  1  0  0  0
  4 91  1  0  0  0
  5  6  1  0  0  0
  5 26  1  0  0  0
  5 92  1  0  0  0
  6 25  1  0  0  0
  6 93  1  0  0  0
  6 94  1  0  0  0
  7  8  2  0  0  0
  7 26  1  0  0  0
  7 29  1  0  0  0
  8  9  1  0  0  0
  8 22  1  0  0  0
  9 10  1  0  0  0
  9 27  2  0  0  0
 10 11  2  0  0  0
 10 15  1  0  0  0
 11 12  1  0  0  0
 11 95  1  0  0  0
 12 13  2  0  0  0
 12 96  1  0  0  0
 13 14  1  0  0  0
 13 31  1  0  0  0
 14 15  2  0  0  0
 14 97  1  0  0  0
 15 98  1  0  0  0
 16 17  2  0  0  0
 16 21  1  0  0  0
 16 31  1  0  0  0
 17 18  1  0  0  0
 17 99  1  0  0  0
 18 19  2  0  0  0
 18100  1  0  0  0
 19 20  1  0  0  0
 19 24  1  0  0  0
 20 21  2  0  0  0
 20101  1  0  0  0
 21 23  1  0  0  0
 22 28  1  0  0  0
 22 32  2  0  0  0
 26 27  1  0  0  0
 28102  1  0  0  0
 28103  1  0  0  0
 29104  1  0  0  0
 29105  1  0  0  0
 33 34  1  0  0  0
 33 66  1  0  0  0
 33 70  2  0  0  0
 34 36  1  0  0  0
 34 59  1  0  0  0
 34106  1  0  0  0
 35 44  2  0  0  0
 35 45  1  0  0  0
 35 68  1  0  0  0
 36 56  1  0  0  0
 36107  1  0  0  0
 37 39  1  0  0  0
 37 47  1  0  0  0
 37 66  1  0  0  0
 37108  1  0  0  0
 38 43  2  0  0  0
 38 46  1  0  0  0
 38 47  1  0  0  0
 39 64  1  0  0  0
 39 67  2  0  0  0
 40 52  1  0  0  0
 40 53  2  0  0  0
 40 58  1  0  0  0
 41109  1  0  0  0
 41110  1  0  0  0
 41111  1  0  0  0
 41 48  1  0  0  0
 42 43  1  0  0  0
 42 66  1  0  0  0
 42112  1  0  0  0
 42113  1  0  0  0
 43 44  1  0  0  0
 44114  1  0  0  0
 45 46  2  0  0  0
 45115  1  0  0  0
 46116  1  0  0  0
 47117  1  0  0  0
 47118  1  0  0  0
 48 56  1  0  0  0
 48 65  1  0  0  0
 48119  1  0  0  0
 49 50  1  0  0  0
 49 53  1  0  0  0
 49 64  1  0  0  0
 49120  1  0  0  0
 50 51  1  0  0  0
 50121  1  0  0  0
 50122  1  0  0  0
 51 52  1  0  0  0
 51123  1  0  0  0
 51124  1  0  0  0
 52125  1  0  0  0
 52126  1  0  0  0
 53 54  1  0  0  0
 54 55  2  0  0  0
 54127  1  0  0  0
 55 57  1  0  0  0
 55128  1  0  0  0
 56 69  2  0  0  0
 57 58  2  0  0  0
 57129  1  0  0  0
 58130  1  0  0  0
 59 60  1  0  0  0
 59 61  1  0  0  0
 59 62  1  0  0  0
 60131  1  0  0  0
 60132  1  0  0  0
 60133  1  0  0  0
 61134  1  0  0  0
 61135  1  0  0  0
 61136  1  0  0  0
 62137  1  0  0  0
 62138  1  0  0  0
 62139  1  0  0  0
 63 65  1  0  0  0
 63140  1  0  0  0
 63141  1  0  0  0
 63142  1  0  0  0
 64143  1  0  0  0
 65144  1  0  0  0
 68 80  1  0  0  0
 71 72  2  0  0  0
 71 73  1  0  0  0
 71145  1  0  0  0
 72 74  1  0  0  0
 72 81  1  0  0  0
 73 82  1  0  0  0
 73 84  2  0  0  0
 74 75  1  0  0  0
 74 85  2  0  0  0
 75146  1  0  0  0
 75147  1  0  0  0
 75148  1  0  0  0
 76149  1  0  0  0
 76150  1  0  0  0
 76151  1  0  0  0
 76 81  1  0  0  0
 77152  1  0  0  0
 77153  1  0  0  0
 77154  1  0  0  0
 77 82  1  0  0  0
 78155  1  0  0  0
 78156  1  0  0  0
 78157  1  0  0  0
 78 83  1  0  0  0
 79 83  1  0  0  0
 79158  1  0  0  0
 79159  1  0  0  0
 79160  1  0  0  0
 80 81  1  0  0  0
 80161  1  0  0  0
 80162  1  0  0  0
 81163  1  0  0  0
 82 83  1  0  0  0
 82164  1  0  0  0
 84 85  1  0  0  0
M  ISO  4   1 100  68 101  80 101  83 100
M  END
> <chiral flag>
0

> <version>
0

> <s_m_source_file>
/data/baiqing/PycharmProjects/Reinvent-master-3.2/result/LINK_invent/BTK/process_docking_weight1_custom_sum_contain_oxygen_bond_distance_aromatic_linkinvent_7_9_3/rearranged_h_0086.sdf

> <i_m_source_file_index>
26

> <r_mmod_Potential_Energy-OPLS-2005>
573.519775390625

> <r_mmod_Stretch_Energy-OPLS-2005>
279.706268310547

> <r_mmod_Bend_Energy-OPLS-2005>
289.868347167969

> <r_mmod_Torsional_Energy-OPLS-2005>
205.684997558594

> <r_mmod_Improper_Torsional_Energy-OPLS-2005>
4.24043273925781

> <r_mmod_Van_der_Waal_Energy-OPLS-2005>
147.119384765625

> <r_mmod_Electrostatic_Energy-OPLS-2005>
-308.589447021484

> <r_mmod_Solvation_Energy-OPLS-2005>
-204.126770019531

> <b_mmod_Minimization_Converged-OPLS-2005>
0

> <r_mmod_RMS_Derivative-OPLS-2005>
1.69934260845184

$$$$
26
                    3D
 Structure written by MMmdl.
164172  0  0  1  0            999 V2000
  -30.3599  -15.9789   20.6623 C   0  0  0  0  0  0
  -30.4372  -13.5430   19.6046 C   0  0  0  0  0  0
  -29.6053  -12.8940   18.4356 C   0  0  0  0  0  0
  -28.2595  -12.3521   18.9333 C   0  0  0  0  0  0
  -27.6261  -13.4035   19.8708 C   0  0  2  0  0  0
  -28.5895  -13.9768   20.9761 C   0  0  0  0  0  0
  -25.2307  -13.8489   20.5916 C   0  0  0  0  0  0
  -24.1768  -13.0506   20.9307 C   0  0  0  0  0  0
  -24.6608  -11.7059   20.8743 C   0  0  0  0  0  0
  -23.9338  -10.4361   21.0337 C   0  0  0  0  0  0
  -24.3811   -9.4278   21.9153 C   0  0  0  0  0  0
  -23.6423   -8.2343   22.0762 C   0  0  0  0  0  0
  -22.4395   -8.0382   21.3548 C   0  0  0  0  0  0
  -22.0093   -9.0372   20.4626 C   0  0  0  0  0  0
  -22.7494  -10.2209   20.3005 C   0  0  0  0  0  0
  -21.6907   -6.0809   22.5277 C   0  0  0  0  0  0
  -21.4059   -6.5693   23.8217 C   0  0  0  0  0  0
  -21.3670   -5.6825   24.9163 C   0  0  0  0  0  0
  -21.6041   -4.3087   24.7197 C   0  0  0  0  0  0
  -21.8816   -3.8198   23.4311 C   0  0  0  0  0  0
  -21.9214   -4.7031   22.3382 C   0  0  0  0  0  0
  -22.7728  -13.5120   21.1889 C   0  0  0  0  0  0
  -22.1675   -4.2221   21.0956 F   0  0  0  0  0  0
  -21.5613   -3.4555   25.7699 F   0  0  0  0  0  0
  -29.7409  -14.6805   20.3739 N   0  0  0  0  0  0
  -26.2964  -13.0030   20.3514 N   0  0  0  0  0  0
  -25.9618  -11.6962   20.5787 N   0  0  0  0  0  0
  -22.0444  -12.8038   22.0429 N   0  0  0  0  0  0
  -25.3683  -15.2277   20.4407 N   0  0  0  0  0  0
  -31.5752  -15.7910   20.5107 O   0  0  0  0  0  0
  -21.6717   -6.8983   21.4251 O   0  0  0  0  0  0
  -22.3353  -14.5396   20.6720 O   0  0  0  0  0  0
  -24.5743  -31.9169   23.2116 C   0  0  0  0  0  0
  -25.9256  -32.4644   23.8083 C   0  0  1  0  0  0
  -26.8530  -27.5070   20.0761 C   0  0  0  0  0  0
  -25.6094  -33.8411   24.1587 N   0  0  0  0  0  0
  -23.3602  -30.6225   21.5146 C   0  0  2  0  0  0
  -24.8023  -29.2713   20.1327 C   0  0  0  0  0  0
  -22.7324  -29.5042   22.4451 C   0  0  0  0  0  0
  -18.0367  -28.1411   22.8490 C   0  0  0  0  0  0
  -24.1568  -36.6915   23.2624 C   0  0  0  0  0  0
  -25.8439  -30.9274   21.4174 C   0  0  0  0  0  0
  -25.9733  -29.6165   20.7556 C   0  0  0  0  0  0
  -27.0850  -28.7625   20.7502 C   0  0  0  0  0  0
  -25.8853  -27.4163   19.1526 C   0  0  0  0  0  0
  -24.6828  -28.1019   19.3486 C   0  0  0  0  0  0
  -23.5291  -30.0969   20.0971 C   0  0  0  0  0  0
  -25.4252  -36.2711   24.0162 C   0  0  1  0  0  0
  -20.5894  -28.3606   23.1340 C   0  0  2  0  0  0
  -20.6762  -26.9256   22.5762 C   0  0  0  0  0  0
  -19.5874  -26.6156   21.5420 C   0  0  0  0  0  0
  -18.1875  -26.8034   22.1453 C   0  0  0  0  0  0
  -19.1666  -28.8840   23.2789 C   0  0  0  0  0  0
  -18.9473  -30.1401   23.8832 C   0  0  0  0  0  0
  -17.6484  -30.6587   24.0547 C   0  0  0  0  0  0
  -25.9354  -34.9199   23.4575 C   0  0  0  0  0  0
  -16.5343  -29.9031   23.6401 C   0  0  0  0  0  0
  -16.7257  -28.6446   23.0334 C   0  0  0  0  0  0
  -26.4649  -31.6759   25.0645 C   0  0  0  0  0  0
  -25.3600  -31.3688   26.0934 C   0  0  0  0  0  0
  -27.1419  -30.3257   24.6902 C   0  0  0  0  0  0
  -27.5194  -32.5382   25.7781 C   0  0  0  0  0  0
  -27.5475  -37.1670   24.8500 C   0  0  0  0  0  0
  -21.3852  -29.2956   22.3120 N   0  0  0  0  0  0
  -26.4267  -37.3387   23.9326 N   0  0  0  0  0  0
  -24.5856  -31.2224   22.0451 N   0  0  0  0  0  0
  -23.4655  -28.8486   23.1891 O   0  0  0  0  0  0
  -27.5695  -26.2782   19.9938 O   0  0  0  0  0  0
  -26.5958  -34.8707   22.4266 O   0  0  0  0  0  0
  -23.5298  -32.1407   23.8302 O   0  0  0  0  0  0
  -28.5786  -25.0737   22.0196 C   0  0  0  0  0  0
  -29.1447  -23.7570   21.7554 C   0  0  0  0  0  0
  -27.4226  -25.2028   22.8398 C   0  0  0  0  0  0
  -28.7091  -22.4546   22.3593 C   0  0  0  0  0  0
  -27.5188  -24.1051   23.7998 C   0  0  0  0  0  0
  -27.6022  -24.8916   25.1343 C   0  0  0  0  0  0
  -31.1952  -19.9524   21.3897 C   0  0  0  0  0  0
  -26.1842  -26.2040   22.8728 C   0  0  0  0  0  0
  -28.8884  -20.8529   21.4324 C   0  0  0  0  0  0
  -25.0000  -25.7619   21.8898 C   0  0  0  0  0  0
  -25.5200  -24.6585   20.8955 C   0  0  0  0  0  0
  -26.7286  -25.0364   19.9336 C   0  0  0  0  0  0
  -29.8370  -19.1663   21.5519 C   0  0  1  0  0  0
  -27.9010  -22.7747   23.4709 N   0  0  0  0  0  0
  -29.8033  -17.4627   20.8127 N   0  0  0  0  0  0
  -31.2814  -13.9786   19.0547 H   0  0  0  0  0  0
  -30.8777  -12.8273   20.3081 H   0  0  0  0  0  0
  -30.2083  -12.1111   17.9475 H   0  0  0  0  0  0
  -29.4184  -13.6611   17.6761 H   0  0  0  0  0  0
  -28.4713  -11.4512   19.5219 H   0  0  0  0  0  0
  -27.6123  -12.0834   18.1045 H   0  0  0  0  0  0
  -27.4174  -14.2409   19.2016 H   0  0  0  0  0  0
  -28.8936  -13.2521   21.7294 H   0  0  0  0  0  0
  -28.0193  -14.7412   21.5032 H   0  0  0  0  0  0
  -25.2946   -9.5743   22.4740 H   0  0  0  0  0  0
  -24.0114   -7.4753   22.7512 H   0  0  0  0  0  0
  -21.1034   -8.8934   19.8913 H   0  0  0  0  0  0
  -22.4003  -10.9747   19.6099 H   0  0  0  0  0  0
  -21.2077   -7.6204   23.9740 H   0  0  0  0  0  0
  -21.1482   -6.0545   25.9066 H   0  0  0  0  0  0
  -22.0576   -2.7663   23.2782 H   0  0  0  0  0  0
  -22.4166  -11.9757   22.4810 H   0  0  0  0  0  0
  -21.1027  -13.0914   22.2582 H   0  0  0  0  0  0
  -24.5773  -15.8572   20.5513 H   0  0  0  0  0  0
  -26.2183  -15.7080   20.1639 H   0  0  0  0  0  0
  -26.7206  -32.4770   23.0611 H   0  0  0  0  0  0
  -24.9846  -33.9193   24.9423 H   0  0  0  0  0  0
  -22.5537  -31.4036   21.5200 H   0  0  0  0  0  0
  -23.3752  -35.9295   23.3357 H   0  0  0  0  0  0
  -24.3527  -36.8551   22.1988 H   0  0  0  0  0  0
  -23.7514  -37.6127   23.6788 H   0  0  0  0  0  0
  -26.4717  -31.7414   21.0813 H   0  0  0  0  0  0
  -26.3874  -30.6703   22.2832 H   0  0  0  0  0  0
  -28.0362  -28.9854   21.2959 H   0  0  0  0  0  0
  -25.7597  -26.7781   18.2727 H   0  0  0  0  0  0
  -23.7606  -27.6018   19.1899 H   0  0  0  0  0  0
  -23.5440  -31.0098   19.4200 H   0  0  0  0  0  0
  -22.6537  -29.4922   19.8677 H   0  0  0  0  0  0
  -25.1593  -36.1019   25.0599 H   0  0  0  0  0  0
  -21.0203  -28.3630   24.1281 H   0  0  0  0  0  0
  -20.5336  -26.2391   23.4044 H   0  0  0  0  0  0
  -21.6627  -26.7007   22.1737 H   0  0  0  0  0  0
  -19.6980  -25.5922   21.1666 H   0  0  0  0  0  0
  -19.7128  -27.2761   20.6777 H   0  0  0  0  0  0
  -17.4347  -26.7014   21.3482 H   0  0  0  0  0  0
  -17.9798  -26.0017   22.8627 H   0  0  0  0  0  0
  -19.7871  -30.7283   24.2040 H   0  0  0  0  0  0
  -17.5000  -31.6277   24.5149 H   0  0  0  0  0  0
  -15.5263  -30.2941   23.7855 H   0  0  0  0  0  0
  -15.8542  -28.0800   22.7100 H   0  0  0  0  0  0
  -24.6465  -30.6247   25.7373 H   0  0  0  0  0  0
  -24.7988  -32.2642   26.3325 H   0  0  0  0  0  0
  -25.7816  -30.9894   27.0184 H   0  0  0  0  0  0
  -26.6146  -29.4398   25.0407 H   0  0  0  0  0  0
  -28.1558  -30.2574   25.0660 H   0  0  0  0  0  0
  -27.3533  -30.1477   23.6629 H   0  0  0  0  0  0
  -27.0712  -33.4493   26.1505 H   0  0  0  0  0  0
  -28.3321  -32.8387   25.1297 H   0  0  0  0  0  0
  -27.9285  -32.0522   26.6494 H   0  0  0  0  0  0
  -28.2586  -37.9840   24.7235 H   0  0  0  0  0  0
  -28.0920  -36.2347   24.6819 H   0  0  0  0  0  0
  -27.2126  -37.1789   25.8882 H   0  0  0  0  0  0
  -20.8712  -29.8240   21.6315 H   0  0  0  0  0  0
  -26.0000  -38.2398   24.1097 H   0  0  0  0  0  0
  -29.0318  -25.9845   21.6489 H   0  0  0  0  0  0
  -29.9926  -23.7540   21.0509 H   0  0  0  0  0  0
  -26.6073  -25.1825   25.5910 H   0  0  0  0  0  0
  -27.7016  -25.9973   24.9489 H   0  0  0  0  0  0
  -28.5128  -24.8847   25.7715 H   0  0  0  0  0  0
  -31.1869  -20.8969   21.9659 H   0  0  0  0  0  0
  -31.3494  -20.3163   20.3682 H   0  0  0  0  0  0
  -32.0999  -19.5073   21.7591 H   0  0  0  0  0  0
  -26.4671  -27.1978   22.5494 H   0  0  0  0  0  0
  -25.8246  -26.5152   23.8334 H   0  0  0  0  0  0
  -29.4931  -21.4430   20.7127 H   0  0  0  0  0  0
  -27.9999  -20.8011   20.7590 H   0  0  0  0  0  0
  -24.4395  -26.4985   21.2959 H   0  0  0  0  0  0
  -24.1447  -25.6075   22.5489 H   0  0  0  0  0  0
  -24.7166  -24.1740   20.3552 H   0  0  0  0  0  0
  -25.8058  -23.9365   21.5324 H   0  0  0  0  0  0
  -26.2120  -24.9273   19.0394 H   0  0  0  0  0  0
  -27.3875  -24.2677   19.6479 H   0  0  0  0  0  0
  -29.6228  -18.9600   22.6004 H   0  0  0  0  0  0
  -30.3859  -17.7923   20.0445 H   0  0  0  0  0  0
  1 25  1  0  0  0
  1 30  2  0  0  0
  1 85  1  0  0  0
  2  3  1  0  0  0
  2 25  1  0  0  0
  2 86  1  0  0  0
  2 87  1  0  0  0
  3  4  1  0  0  0
  3 88  1  0  0  0
  3 89  1  0  0  0
  4  5  1  0  0  0
  4 90  1  0  0  0
  4 91  1  0  0  0
  5  6  1  0  0  0
  5 26  1  0  0  0
  5 92  1  0  0  0
  6 25  1  0  0  0
  6 93  1  0  0  0
  6 94  1  0  0  0
  7  8  2  0  0  0
  7 26  1  0  0  0
  7 29  1  0  0  0
  8  9  1  0  0  0
  8 22  1  0  0  0
  9 10  1  0  0  0
  9 27  2  0  0  0
 10 11  2  0  0  0
 10 15  1  0  0  0
 11 12  1  0  0  0
 11 95  1  0  0  0
 12 13  2  0  0  0
 12 96  1  0  0  0
 13 14  1  0  0  0
 13 31  1  0  0  0
 14 15  2  0  0  0
 14 97  1  0  0  0
 15 98  1  0  0  0
 16 17  2  0  0  0
 16 21  1  0  0  0
 16 31  1  0  0  0
 17 18  1  0  0  0
 17 99  1  0  0  0
 18 19  2  0  0  0
 18100  1  0  0  0
 19 20  1  0  0  0
 19 24  1  0  0  0
 20 21  2  0  0  0
 20101  1  0  0  0
 21 23  1  0  0  0
 22 28  1  0  0  0
 22 32  2  0  0  0
 26 27  1  0  0  0
 28102  1  0  0  0
 28103  1  0  0  0
 29104  1  0  0  0
 29105  1  0  0  0
 33 34  1  0  0  0
 33 66  1  0  0  0
 33 70  2  0  0  0
 34 36  1  0  0  0
 34 59  1  0  0  0
 34106  1  0  0  0
 35 44  2  0  0  0
 35 45  1  0  0  0
 35 68  1  0  0  0
 36 56  1  0  0  0
 36107  1  0  0  0
 37 39  1  0  0  0
 37 47  1  0  0  0
 37 66  1  0  0  0
 37108  1  0  0  0
 38 43  2  0  0  0
 38 46  1  0  0  0
 38 47  1  0  0  0
 39 64  1  0  0  0
 39 67  2  0  0  0
 40 52  1  0  0  0
 40 53  2  0  0  0
 40 58  1  0  0  0
 41109  1  0  0  0
 41110  1  0  0  0
 41111  1  0  0  0
 41 48  1  0  0  0
 42 43  1  0  0  0
 42 66  1  0  0  0
 42112  1  0  0  0
 42113  1  0  0  0
 43 44  1  0  0  0
 44114  1  0  0  0
 45 46  2  0  0  0
 45115  1  0  0  0
 46116  1  0  0  0
 47117  1  0  0  0
 47118  1  0  0  0
 48 56  1  0  0  0
 48 65  1  0  0  0
 48119  1  0  0  0
 49 50  1  0  0  0
 49 53  1  0  0  0
 49 64  1  0  0  0
 49120  1  0  0  0
 50 51  1  0  0  0
 50121  1  0  0  0
 50122  1  0  0  0
 51 52  1  0  0  0
 51123  1  0  0  0
 51124  1  0  0  0
 52125  1  0  0  0
 52126  1  0  0  0
 53 54  1  0  0  0
 54 55  2  0  0  0
 54127  1  0  0  0
 55 57  1  0  0  0
 55128  1  0  0  0
 56 69  2  0  0  0
 57 58  2  0  0  0
 57129  1  0  0  0
 58130  1  0  0  0
 59 60  1  0  0  0
 59 61  1  0  0  0
 59 62  1  0  0  0
 60131  1  0  0  0
 60132  1  0  0  0
 60133  1  0  0  0
 61134  1  0  0  0
 61135  1  0  0  0
 61136  1  0  0  0
 62137  1  0  0  0
 62138  1  0  0  0
 62139  1  0  0  0
 63 65  1  0  0  0
 63140  1  0  0  0
 63141  1  0  0  0
 63142  1  0  0  0
 64143  1  0  0  0
 65144  1  0  0  0
 68 82  1  0  0  0
 71 72  2  0  0  0
 71 73  1  0  0  0
 71145  1  0  0  0
 72 74  1  0  0  0
 72146  1  0  0  0
 73 75  2  0  0  0
 73 78  1  0  0  0
 74 79  1  0  0  0
 74 84  2  0  0  0
 75 76  1  0  0  0
 75 84  1  0  0  0
 76147  1  0  0  0
 76148  1  0  0  0
 76149  1  0  0  0
 77150  1  0  0  0
 77151  1  0  0  0
 77152  1  0  0  0
 77 83  1  0  0  0
 78 80  1  0  0  0
 78153  1  0  0  0
 78154  1  0  0  0
 79 83  1  0  0  0
 79155  1  0  0  0
 79156  1  0  0  0
 80 81  1  0  0  0
 80157  1  0  0  0
 80158  1  0  0  0
 81 82  1  0  0  0
 81159  1  0  0  0
 81160  1  0  0  0
 82161  1  0  0  0
 82162  1  0  0  0
 83 85  1  0  0  0
 83163  1  0  0  0
 85164  1  0  0  0
M  ISO  4   1 100  68 101  82 101  85 100
M  END
> <chiral flag>
0

> <version>
0

> <s_m_source_file>
/data/baiqing/PycharmProjects/Reinvent-master-3.2/result/LINK_invent/BTK/process_docking_weight1_custom_sum_contain_oxygen_bond_distance_aromatic_linkinvent_7_9_3/rearranged_h_0086.sdf

> <i_m_source_file_index>
27

> <r_mmod_Potential_Energy-OPLS-2005>
3314.2880859375

> <r_mmod_Stretch_Energy-OPLS-2005>
958.245422363281

> <r_mmod_Bend_Energy-OPLS-2005>
1002.12145996094

> <r_mmod_Torsional_Energy-OPLS-2005>
546.161437988281

> <r_mmod_Improper_Torsional_Energy-OPLS-2005>
28.611364364624

> <r_mmod_Van_der_Waal_Energy-OPLS-2005>
309.228912353516

> <r_mmod_Electrostatic_Energy-OPLS-2005>
-505.575653076172

> <r_mmod_Solvation_Energy-OPLS-2005>
-213.503799438477

> <b_mmod_Minimization_Converged-OPLS-2005>
0

> <r_mmod_RMS_Derivative-OPLS-2005>
99.9990005493164

$$$$
27
                    3D
 Structure written by MMmdl.
158166  0  0  1  0            999 V2000
  -30.1763  -16.0285   20.3281 C   0  0  0  0  0  0
  -30.4090  -13.3832   19.5657 C   0  0  0  0  0  0
  -29.5834  -12.7725   18.3821 C   0  0  0  0  0  0
  -28.1803  -12.3452   18.8248 C   0  0  0  0  0  0
  -27.5997  -13.3608   19.8293 C   0  0  2  0  0  0
  -28.5943  -13.8386   20.9317 C   0  0  0  0  0  0
  -25.2328  -13.8390   20.5904 C   0  0  0  0  0  0
  -24.1751  -13.0492   20.9319 C   0  0  0  0  0  0
  -24.6509  -11.7006   20.8771 C   0  0  0  0  0  0
  -23.9199  -10.4331   21.0378 C   0  0  0  0  0  0
  -24.3680   -9.4228   21.9177 C   0  0  0  0  0  0
  -23.6309   -8.2280   22.0742 C   0  0  0  0  0  0
  -22.4297   -8.0332   21.3530 C   0  0  0  0  0  0
  -21.9968   -9.0338   20.4637 C   0  0  0  0  0  0
  -22.7348  -10.2192   20.3045 C   0  0  0  0  0  0
  -21.6874   -6.0764   22.5263 C   0  0  0  0  0  0
  -21.4037   -6.5645   23.8196 C   0  0  0  0  0  0
  -21.3644   -5.6779   24.9146 C   0  0  0  0  0  0
  -21.6036   -4.3046   24.7187 C   0  0  0  0  0  0
  -21.8829   -3.8157   23.4313 C   0  0  0  0  0  0
  -21.9213   -4.6977   22.3365 C   0  0  0  0  0  0
  -22.7742  -13.5195   21.1912 C   0  0  0  0  0  0
  -22.1674   -4.2149   21.0953 F   0  0  0  0  0  0
  -21.5588   -3.4540   25.7711 F   0  0  0  0  0  0
  -29.7043  -14.5903   20.2686 N   0  0  0  0  0  0
  -26.2866  -12.9834   20.3384 N   0  0  0  0  0  0
  -25.9490  -11.6846   20.5713 N   0  0  0  0  0  0
  -22.0374  -12.8205   22.0439 N   0  0  0  0  0  0
  -25.3911  -15.2149   20.4327 N   0  0  0  0  0  0
  -31.4076  -15.9105   20.1334 O   0  0  0  0  0  0
  -21.6643   -6.8934   21.4233 O   0  0  0  0  0  0
  -22.3434  -14.5505   20.6741 O   0  0  0  0  0  0
  -24.7058  -31.7722   23.1328 C   0  0  0  0  0  0
  -25.9552  -32.4325   23.7949 C   0  0  1  0  0  0
  -27.2526  -26.4663   20.2808 C   0  0  0  0  0  0
  -25.6068  -33.8157   24.1822 N   0  0  0  0  0  0
  -23.5483  -30.3600   21.4826 C   0  0  2  0  0  0
  -25.0226  -28.6511   20.1184 C   0  0  0  0  0  0
  -22.7885  -29.4170   22.4600 C   0  0  0  0  0  0
  -18.0364  -28.1399   22.8393 C   0  0  0  0  0  0
  -24.1506  -36.7085   23.2652 C   0  0  0  0  0  0
  -26.1327  -30.4342   21.4338 C   0  0  0  0  0  0
  -26.2022  -28.9665   20.8014 C   0  0  0  0  0  0
  -27.2848  -27.9073   20.8477 C   0  0  0  0  0  0
  -26.0598  -26.4352   19.4949 C   0  0  0  0  0  0
  -25.0098  -27.4215   19.4314 C   0  0  0  0  0  0
  -23.8192  -29.6234   20.1306 C   0  0  0  0  0  0
  -25.4153  -36.2789   24.0264 C   0  0  1  0  0  0
  -20.6018  -28.3774   23.1037 C   0  0  2  0  0  0
  -20.6784  -26.9405   22.5357 C   0  0  0  0  0  0
  -19.5773  -26.6327   21.5144 C   0  0  0  0  0  0
  -18.1971  -26.7927   22.1563 C   0  0  0  0  0  0
  -19.1635  -28.8918   23.2688 C   0  0  0  0  0  0
  -18.9525  -30.1489   23.8748 C   0  0  0  0  0  0
  -17.6512  -30.6562   24.0513 C   0  0  0  0  0  0
  -25.9148  -34.9186   23.4879 C   0  0  0  0  0  0
  -16.5403  -29.9032   23.6332 C   0  0  0  0  0  0
  -16.7348  -28.6469   23.0338 C   0  0  0  0  0  0
  -26.4682  -31.6467   25.0663 C   0  0  0  0  0  0
  -25.3737  -31.3835   26.1281 C   0  0  0  0  0  0
  -27.0599  -30.2753   24.6748 C   0  0  0  0  0  0
  -27.6082  -32.4414   25.7499 C   0  0  0  0  0  0
  -27.5532  -37.1712   24.8452 C   0  0  0  0  0  0
  -21.4517  -29.3009   22.3343 N   0  0  0  0  0  0
  -26.4241  -37.3573   23.9411 N   0  0  0  0  0  0
  -24.8196  -30.8955   22.0676 N   0  0  0  0  0  0
  -23.4211  -28.7820   23.3069 O   0  0  0  0  0  0
  -28.1527  -25.1322   20.4862 O   0  0  0  0  0  0
  -26.5741  -34.8822   22.4467 O   0  0  0  0  0  0
  -23.6032  -32.0871   23.6139 O   0  0  0  0  0  0
  -30.8031  -23.8573   17.2935 C   0  0  0  0  0  0
  -29.9443  -23.7539   16.1770 C   0  0  0  0  0  0
  -30.2879  -23.6745   18.5855 C   0  0  0  0  0  0
  -28.5805  -23.4385   16.4041 C   0  0  0  0  0  0
  -28.9172  -23.3767   18.7071 C   0  0  0  0  0  0
  -30.5376  -23.9944   14.7972 C   0  0  0  0  0  0
  -31.2040  -23.8343   19.8031 C   0  0  0  0  0  0
  -27.5210  -23.3272   15.3134 C   0  0  0  0  0  0
  -28.6826  -21.3009   20.6385 C   0  0  0  0  0  0
  -29.4201  -19.3920   20.1231 C   0  0  0  0  0  0
  -28.2754  -23.2925   20.0725 C   0  0  2  0  0  0
  -28.0970  -23.2448   17.6442 N   0  0  0  0  0  0
  -29.4254  -17.4970   20.4292 N   0  0  0  0  0  0
  -31.3636  -13.7039   19.1470 H   0  0  0  0  0  0
  -30.6839  -12.6120   20.2869 H   0  0  0  0  0  0
  -30.1148  -11.9290   17.9401 H   0  0  0  0  0  0
  -29.4991  -13.5205   17.5936 H   0  0  0  0  0  0
  -28.2588  -11.3680   19.3005 H   0  0  0  0  0  0
  -27.5202  -12.2264   17.9643 H   0  0  0  0  0  0
  -27.4191  -14.2414   19.2112 H   0  0  0  0  0  0
  -28.9511  -13.0176   21.5556 H   0  0  0  0  0  0
  -28.0970  -14.5322   21.6087 H   0  0  0  0  0  0
  -25.2813   -9.5686   22.4778 H   0  0  0  0  0  0
  -23.9980   -7.4691   22.7508 H   0  0  0  0  0  0
  -21.0863   -8.8917   19.8999 H   0  0  0  0  0  0
  -22.3812  -10.9732   19.6154 H   0  0  0  0  0  0
  -21.2080   -7.6163   23.9708 H   0  0  0  0  0  0
  -21.1422   -6.0495   25.9034 H   0  0  0  0  0  0
  -22.0640   -2.7624   23.2804 H   0  0  0  0  0  0
  -22.3935  -11.9830   22.4801 H   0  0  0  0  0  0
  -21.0999  -13.1256   22.2636 H   0  0  0  0  0  0
  -24.6273  -15.8705   20.5493 H   0  0  0  0  0  0
  -26.2336  -15.6476   20.0811 H   0  0  0  0  0  0
  -26.7655  -32.4778   23.0668 H   0  0  0  0  0  0
  -25.0264  -33.9157   25.0027 H   0  0  0  0  0  0
  -22.8864  -31.2010   21.2626 H   0  0  0  0  0  0
  -23.3754  -35.9421   23.3247 H   0  0  0  0  0  0
  -24.3568  -36.8803   22.2068 H   0  0  0  0  0  0
  -23.7276  -37.6261   23.6769 H   0  0  0  0  0  0
  -26.3487  -31.1374   20.6283 H   0  0  0  0  0  0
  -26.9809  -30.5294   22.1007 H   0  0  0  0  0  0
  -28.1585  -28.1613   21.4304 H   0  0  0  0  0  0
  -25.8803  -25.5167   18.9563 H   0  0  0  0  0  0
  -24.1418  -27.1781   18.8362 H   0  0  0  0  0  0
  -23.9973  -30.3626   19.3484 H   0  0  0  0  0  0
  -22.9267  -29.0790   19.8171 H   0  0  0  0  0  0
  -25.1376  -36.1489   25.0745 H   0  0  0  0  0  0
  -21.0075  -28.3401   24.1178 H   0  0  0  0  0  0
  -20.5472  -26.2441   23.3656 H   0  0  0  0  0  0
  -21.6659  -26.7220   22.1278 H   0  0  0  0  0  0
  -19.6915  -25.6200   21.1257 H   0  0  0  0  0  0
  -19.6721  -27.3052   20.6602 H   0  0  0  0  0  0
  -17.4223  -26.6614   21.3995 H   0  0  0  0  0  0
  -18.0399  -26.0101   22.8993 H   0  0  0  0  0  0
  -19.8002  -30.7325   24.2055 H   0  0  0  0  0  0
  -17.5062  -31.6239   24.5133 H   0  0  0  0  0  0
  -15.5383  -30.2871   23.7751 H   0  0  0  0  0  0
  -15.8755  -28.0738   22.7108 H   0  0  0  0  0  0
  -24.5970  -30.7122   25.7607 H   0  0  0  0  0  0
  -24.8901  -32.3050   26.4505 H   0  0  0  0  0  0
  -25.7960  -30.9153   27.0182 H   0  0  0  0  0  0
  -26.3339  -29.6370   24.1700 H   0  0  0  0  0  0
  -27.3803  -29.7260   25.5610 H   0  0  0  0  0  0
  -27.9429  -30.3746   24.0442 H   0  0  0  0  0  0
  -27.2573  -33.3811   26.1781 H   0  0  0  0  0  0
  -28.4053  -32.6839   25.0461 H   0  0  0  0  0  0
  -28.0586  -31.8759   26.5663 H   0  0  0  0  0  0
  -28.2515  -38.0029   24.7448 H   0  0  0  0  0  0
  -28.1059  -36.2541   24.6338 H   0  0  0  0  0  0
  -27.2255  -37.1419   25.8857 H   0  0  0  0  0  0
  -20.9876  -29.8690   21.6398 H   0  0  0  0  0  0
  -26.0024  -38.2614   24.1405 H   0  0  0  0  0  0
  -31.8483  -24.0962   17.1746 H   0  0  0  0  0  0
  -29.8294  -23.8675   13.9814 H   0  0  0  0  0  0
  -31.3746  -23.3138   14.6393 H   0  0  0  0  0  0
  -30.9346  -25.0074   14.7255 H   0  0  0  0  0  0
  -31.7378  -24.7856   19.7681 H   0  0  0  0  0  0
  -31.9546  -23.0470   19.8459 H   0  0  0  0  0  0
  -30.6727  -23.8010   20.7525 H   0  0  0  0  0  0
  -27.8549  -22.7678   14.4393 H   0  0  0  0  0  0
  -27.1794  -24.3112   14.9954 H   0  0  0  0  0  0
  -26.6315  -22.8251   15.7010 H   0  0  0  0  0  0
  -29.2316  -21.4787   21.5633 H   0  0  0  0  0  0
  -27.7012  -21.0306   21.0254 H   0  0  0  0  0  0
  -30.4948  -19.5832   20.0930 H   0  0  0  0  0  0
  -29.1367  -19.3723   19.0723 H   0  0  0  0  0  0
  -27.2048  -23.1718   19.9168 H   0  0  0  0  0  0
  -28.4800  -17.2594   20.6979 H   0  0  0  0  0  0
  1 25  1  0  0  0
  1 30  2  0  0  0
  1 83  1  0  0  0
  2  3  1  0  0  0
  2 25  1  0  0  0
  2 84  1  0  0  0
  2 85  1  0  0  0
  3  4  1  0  0  0
  3 86  1  0  0  0
  3 87  1  0  0  0
  4  5  1  0  0  0
  4 88  1  0  0  0
  4 89  1  0  0  0
  5  6  1  0  0  0
  5 26  1  0  0  0
  5 90  1  0  0  0
  6 25  1  0  0  0
  6 91  1  0  0  0
  6 92  1  0  0  0
  7  8  2  0  0  0
  7 26  1  0  0  0
  7 29  1  0  0  0
  8  9  1  0  0  0
  8 22  1  0  0  0
  9 10  1  0  0  0
  9 27  2  0  0  0
 10 11  2  0  0  0
 10 15  1  0  0  0
 11 12  1  0  0  0
 11 93  1  0  0  0
 12 13  2  0  0  0
 12 94  1  0  0  0
 13 14  1  0  0  0
 13 31  1  0  0  0
 14 15  2  0  0  0
 14 95  1  0  0  0
 15 96  1  0  0  0
 16 17  2  0  0  0
 16 21  1  0  0  0
 16 31  1  0  0  0
 17 18  1  0  0  0
 17 97  1  0  0  0
 18 19  2  0  0  0
 18 98  1  0  0  0
 19 20  1  0  0  0
 19 24  1  0  0  0
 20 21  2  0  0  0
 20 99  1  0  0  0
 21 23  1  0  0  0
 22 28  1  0  0  0
 22 32  2  0  0  0
 26 27  1  0  0  0
 28100  1  0  0  0
 28101  1  0  0  0
 29102  1  0  0  0
 29103  1  0  0  0
 33 34  1  0  0  0
 33 66  1  0  0  0
 33 70  2  0  0  0
 34 36  1  0  0  0
 34 59  1  0  0  0
 34104  1  0  0  0
 35 44  2  0  0  0
 35 45  1  0  0  0
 35 68  1  0  0  0
 36 56  1  0  0  0
 36105  1  0  0  0
 37 39  1  0  0  0
 37 47  1  0  0  0
 37 66  1  0  0  0
 37106  1  0  0  0
 38 43  2  0  0  0
 38 46  1  0  0  0
 38 47  1  0  0  0
 39 64  1  0  0  0
 39 67  2  0  0  0
 40 52  1  0  0  0
 40 53  2  0  0  0
 40 58  1  0  0  0
 41107  1  0  0  0
 41108  1  0  0  0
 41109  1  0  0  0
 41 48  1  0  0  0
 42 43  1  0  0  0
 42 66  1  0  0  0
 42110  1  0  0  0
 42111  1  0  0  0
 43 44  1  0  0  0
 44112  1  0  0  0
 45 46  2  0  0  0
 45113  1  0  0  0
 46114  1  0  0  0
 47115  1  0  0  0
 47116  1  0  0  0
 48 56  1  0  0  0
 48 65  1  0  0  0
 48117  1  0  0  0
 49 50  1  0  0  0
 49 53  1  0  0  0
 49 64  1  0  0  0
 49118  1  0  0  0
 50 51  1  0  0  0
 50119  1  0  0  0
 50120  1  0  0  0
 51 52  1  0  0  0
 51121  1  0  0  0
 51122  1  0  0  0
 52123  1  0  0  0
 52124  1  0  0  0
 53 54  1  0  0  0
 54 55  2  0  0  0
 54125  1  0  0  0
 55 57  1  0  0  0
 55126  1  0  0  0
 56 69  2  0  0  0
 57 58  2  0  0  0
 57127  1  0  0  0
 58128  1  0  0  0
 59 60  1  0  0  0
 59 61  1  0  0  0
 59 62  1  0  0  0
 60129  1  0  0  0
 60130  1  0  0  0
 60131  1  0  0  0
 61132  1  0  0  0
 61133  1  0  0  0
 61134  1  0  0  0
 62135  1  0  0  0
 62136  1  0  0  0
 62137  1  0  0  0
 63 65  1  0  0  0
 63138  1  0  0  0
 63139  1  0  0  0
 63140  1  0  0  0
 64141  1  0  0  0
 65142  1  0  0  0
 68 81  1  0  0  0
 71 72  2  0  0  0
 71 73  1  0  0  0
 71143  1  0  0  0
 72 74  1  0  0  0
 72 76  1  0  0  0
 73 75  2  0  0  0
 73 77  1  0  0  0
 74 78  1  0  0  0
 74 82  2  0  0  0
 75 81  1  0  0  0
 75 82  1  0  0  0
 76144  1  0  0  0
 76145  1  0  0  0
 76146  1  0  0  0
 77147  1  0  0  0
 77148  1  0  0  0
 77149  1  0  0  0
 78150  1  0  0  0
 78151  1  0  0  0
 78152  1  0  0  0
 79 80  1  0  0  0
 79153  1  0  0  0
 79154  1  0  0  0
 79 81  1  0  0  0
 80 83  1  0  0  0
 80155  1  0  0  0
 80156  1  0  0  0
 81157  1  0  0  0
 83158  1  0  0  0
M  ISO  4   1 100  68 101  81 101  83 100
M  END
> <chiral flag>
0

> <version>
0

> <s_m_source_file>
/data/baiqing/PycharmProjects/Reinvent-master-3.2/result/LINK_invent/BTK/process_docking_weight1_custom_sum_contain_oxygen_bond_distance_aromatic_linkinvent_7_9_3/rearranged_h_0086.sdf

> <i_m_source_file_index>
28

> <r_mmod_Potential_Energy-OPLS-2005>
4018.90673828125

> <r_mmod_Stretch_Energy-OPLS-2005>
1931.27526855469

> <r_mmod_Bend_Energy-OPLS-2005>
909.322448730469

> <r_mmod_Torsional_Energy-OPLS-2005>
225.842697143555

> <r_mmod_Improper_Torsional_Energy-OPLS-2005>
4.29723691940308

> <r_mmod_Van_der_Waal_Energy-OPLS-2005>
132.175857543945

> <r_mmod_Electrostatic_Energy-OPLS-2005>
-495.241668701172

> <r_mmod_Solvation_Energy-OPLS-2005>
-240.338348388672

> <b_mmod_Minimization_Converged-OPLS-2005>
0

> <r_mmod_RMS_Derivative-OPLS-2005>
6.09971237182617

$$$$
28
                    3D
 Structure written by MMmdl.
158166  0  0  1  0            999 V2000
  -30.6003  -14.6890   20.4902 C   0  0  0  0  0  0
  -30.4388  -12.4238   19.4531 C   0  0  0  0  0  0
  -29.5053  -12.4993   18.2244 C   0  0  0  0  0  0
  -28.0302  -12.3266   18.6421 C   0  0  0  0  0  0
  -27.6429  -13.2164   19.8535 C   0  0  2  0  0  0
  -28.6898  -13.1044   20.9830 C   0  0  0  0  0  0
  -25.2498  -13.8152   20.5670 C   0  0  0  0  0  0
  -24.1784  -13.0421   20.9196 C   0  0  0  0  0  0
  -24.6357  -11.6898   20.8745 C   0  0  0  0  0  0
  -23.9033  -10.4288   21.0416 C   0  0  0  0  0  0
  -24.3593   -9.4207   21.9192 C   0  0  0  0  0  0
  -23.6283   -8.2234   22.0753 C   0  0  0  0  0  0
  -22.4263   -8.0267   21.3548 C   0  0  0  0  0  0
  -21.9891   -9.0234   20.4645 C   0  0  0  0  0  0
  -22.7204  -10.2124   20.3064 C   0  0  0  0  0  0
  -21.6848   -6.0728   22.5287 C   0  0  0  0  0  0
  -21.4013   -6.5634   23.8220 C   0  0  0  0  0  0
  -21.3665   -5.6789   24.9184 C   0  0  0  0  0  0
  -21.6050   -4.3053   24.7236 C   0  0  0  0  0  0
  -21.8819   -3.8142   23.4356 C   0  0  0  0  0  0
  -21.9192   -4.6957   22.3411 C   0  0  0  0  0  0
  -22.7813  -13.5211   21.1885 C   0  0  0  0  0  0
  -22.1655   -4.2144   21.0988 F   0  0  0  0  0  0
  -21.5635   -3.4535   25.7747 F   0  0  0  0  0  0
  -29.9939  -13.4606   20.4062 N   0  0  0  0  0  0
  -26.2925  -12.9338   20.3291 N   0  0  0  0  0  0
  -25.9285  -11.6497   20.5758 N   0  0  0  0  0  0
  -22.0456  -12.8217   22.0449 N   0  0  0  0  0  0
  -25.4170  -15.1874   20.4044 N   0  0  0  0  0  0
  -31.7883  -14.8339   20.1900 O   0  0  0  0  0  0
  -21.6633   -6.8859   21.4244 O   0  0  0  0  0  0
  -22.3512  -14.5530   20.6741 O   0  0  0  0  0  0
  -24.6303  -31.8569   23.2008 C   0  0  0  0  0  0
  -25.9130  -32.4761   23.8349 C   0  0  1  0  0  0
  -27.2226  -27.2839   20.1163 C   0  0  0  0  0  0
  -25.5929  -33.8561   24.2281 N   0  0  0  0  0  0
  -23.4266  -30.4821   21.5426 C   0  0  2  0  0  0
  -24.8751  -28.9365   20.1081 C   0  0  0  0  0  0
  -22.7495  -29.4613   22.4899 C   0  0  0  0  0  0
  -18.0289  -28.1406   22.8489 C   0  0  0  0  0  0
  -24.1492  -36.7280   23.2641 C   0  0  0  0  0  0
  -25.9726  -30.7770   21.3787 C   0  0  0  0  0  0
  -26.0464  -29.4026   20.7186 C   0  0  0  0  0  0
  -27.2236  -28.5889   20.7130 C   0  0  0  0  0  0
  -26.0259  -26.8853   19.4758 C   0  0  0  0  0  0
  -24.8691  -27.6852   19.4768 C   0  0  0  0  0  0
  -23.6446  -29.8196   20.1570 C   0  0  0  0  0  0
  -25.4117  -36.3071   24.0333 C   0  0  1  0  0  0
  -20.5896  -28.3711   23.1267 C   0  0  2  0  0  0
  -20.6783  -26.9427   22.5408 C   0  0  0  0  0  0
  -19.5752  -26.6400   21.5219 C   0  0  0  0  0  0
  -18.1930  -26.7948   22.1631 C   0  0  0  0  0  0
  -19.1545  -28.8876   23.2877 C   0  0  0  0  0  0
  -18.9465  -30.1476   23.8901 C   0  0  0  0  0  0
  -17.6461  -30.6598   24.0574 C   0  0  0  0  0  0
  -25.9057  -34.9439   23.5110 C   0  0  0  0  0  0
  -16.5353  -29.9101   23.6336 C   0  0  0  0  0  0
  -16.7275  -28.6524   23.0350 C   0  0  0  0  0  0
  -26.4509  -31.6569   25.0720 C   0  0  0  0  0  0
  -25.3726  -31.3701   26.1429 C   0  0  0  0  0  0
  -27.0362  -30.2989   24.6192 C   0  0  0  0  0  0
  -27.6074  -32.4301   25.7478 C   0  0  0  0  0  0
  -27.5580  -37.1794   24.8466 C   0  0  0  0  0  0
  -21.4201  -29.3055   22.3647 N   0  0  0  0  0  0
  -26.4296  -37.3766   23.9406 N   0  0  0  0  0  0
  -24.6956  -31.0555   22.0972 N   0  0  0  0  0  0
  -23.4206  -28.8139   23.2980 O   0  0  0  0  0  0
  -28.3202  -26.3954   20.1694 O   0  0  0  0  0  0
  -26.5626  -34.8912   22.4676 O   0  0  0  0  0  0
  -23.5453  -32.1380   23.7312 O   0  0  0  0  0  0
  -29.3092  -21.1187   20.2672 C   0  0  0  0  0  0
  -28.7551  -22.3217   20.8627 C   0  0  0  0  0  0
  -27.8889  -22.0896   21.9681 C   0  0  0  0  0  0
  -28.9831  -19.7940   20.7529 C   0  0  0  0  0  0
  -27.5655  -20.7605   22.3397 C   0  0  0  0  0  0
  -27.3128  -23.2430   22.7884 C   0  0  0  0  0  0
  -26.5708  -20.4562   23.4482 C   0  0  0  0  0  0
  -29.1574  -23.8119   20.4488 C   0  0  0  0  0  0
  -29.3928  -18.3962   20.1156 C   0  0  0  0  0  0
  -30.0691  -17.2398   21.0169 C   0  0  0  0  0  0
  -28.0503  -24.9225   20.0635 C   0  0  0  0  0  0
  -28.0929  -19.6666   21.7547 N   0  0  0  0  0  0
  -29.7807  -15.7691   20.7313 N   0  0  0  0  0  0
  -31.4768  -12.5682   19.1477 H   0  0  0  0  0  0
  -30.3949  -11.4360   19.9155 H   0  0  0  0  0  0
  -29.7786  -11.7365   17.4935 H   0  0  0  0  0  0
  -29.6357  -13.4600   17.7240 H   0  0  0  0  0  0
  -27.8821  -11.2762   18.8977 H   0  0  0  0  0  0
  -27.3701  -12.5262   17.7972 H   0  0  0  0  0  0
  -27.6488  -14.2439   19.4897 H   0  0  0  0  0  0
  -28.7152  -12.0890   21.3825 H   0  0  0  0  0  0
  -28.4329  -13.7507   21.8238 H   0  0  0  0  0  0
  -25.2739   -9.5704   22.4763 H   0  0  0  0  0  0
  -24.0012   -7.4627   22.7468 H   0  0  0  0  0  0
  -21.0825   -8.8736   19.8942 H   0  0  0  0  0  0
  -22.3650  -10.9659   19.6176 H   0  0  0  0  0  0
  -21.1996   -7.6142   23.9723 H   0  0  0  0  0  0
  -21.1491   -6.0520   25.9090 H   0  0  0  0  0  0
  -22.0592   -2.7606   23.2859 H   0  0  0  0  0  0
  -22.4051  -11.9878   22.4855 H   0  0  0  0  0  0
  -21.1074  -13.1263   22.2636 H   0  0  0  0  0  0
  -24.6414  -15.8323   20.5122 H   0  0  0  0  0  0
  -26.2562  -15.6351   20.0609 H   0  0  0  0  0  0
  -26.7194  -32.5428   23.1091 H   0  0  0  0  0  0
  -25.0063  -33.9705   25.0418 H   0  0  0  0  0  0
  -22.7242  -31.3049   21.3977 H   0  0  0  0  0  0
  -23.3756  -35.9611   23.3307 H   0  0  0  0  0  0
  -24.3586  -36.8897   22.2057 H   0  0  0  0  0  0
  -23.7242  -37.6483   23.6659 H   0  0  0  0  0  0
  -26.1106  -31.5404   20.6117 H   0  0  0  0  0  0
  -26.8507  -30.8250   22.0110 H   0  0  0  0  0  0
  -28.1193  -28.9399   21.2070 H   0  0  0  0  0  0
  -25.9507  -25.9327   18.9739 H   0  0  0  0  0  0
  -23.9735  -27.3264   18.9879 H   0  0  0  0  0  0
  -23.7670  -30.5974   19.4019 H   0  0  0  0  0  0
  -22.7650  -29.2503   19.8518 H   0  0  0  0  0  0
  -25.1299  -36.1932   25.0828 H   0  0  0  0  0  0
  -21.0007  -28.3299   24.1381 H   0  0  0  0  0  0
  -20.5705  -26.2315   23.3615 H   0  0  0  0  0  0
  -21.6644  -26.7465   22.1184 H   0  0  0  0  0  0
  -19.6912  -25.6313   21.1246 H   0  0  0  0  0  0
  -19.6692  -27.3219   20.6757 H   0  0  0  0  0  0
  -17.4201  -26.6704   21.4030 H   0  0  0  0  0  0
  -18.0324  -26.0098   22.9038 H   0  0  0  0  0  0
  -19.7936  -30.7295   24.2273 H   0  0  0  0  0  0
  -17.5009  -31.6275   24.5178 H   0  0  0  0  0  0
  -15.5351  -30.3001   23.7656 H   0  0  0  0  0  0
  -15.8677  -28.0845   22.7056 H   0  0  0  0  0  0
  -24.5908  -30.7058   25.7724 H   0  0  0  0  0  0
  -24.8907  -32.2865   26.4847 H   0  0  0  0  0  0
  -25.8028  -30.8861   27.0204 H   0  0  0  0  0  0
  -26.2950  -29.6716   24.1227 H   0  0  0  0  0  0
  -27.4071  -29.7270   25.4708 H   0  0  0  0  0  0
  -27.8814  -30.4275   23.9425 H   0  0  0  0  0  0
  -27.2705  -33.3605   26.2058 H   0  0  0  0  0  0
  -28.3870  -32.6851   25.0286 H   0  0  0  0  0  0
  -28.0757  -31.8418   26.5381 H   0  0  0  0  0  0
  -28.2600  -38.0088   24.7513 H   0  0  0  0  0  0
  -28.1077  -36.2621   24.6301 H   0  0  0  0  0  0
  -27.2294  -37.1450   25.8868 H   0  0  0  0  0  0
  -20.9387  -29.8777   21.6851 H   0  0  0  0  0  0
  -26.0180  -38.2844   24.1401 H   0  0  0  0  0  0
  -29.9896  -21.2130   19.4304 H   0  0  0  0  0  0
  -27.9630  -24.1163   22.7991 H   0  0  0  0  0  0
  -27.1873  -22.9671   23.8346 H   0  0  0  0  0  0
  -26.3351  -23.5352   22.4036 H   0  0  0  0  0  0
  -26.9964  -20.6813   24.4264 H   0  0  0  0  0  0
  -26.2755  -19.4067   23.4447 H   0  0  0  0  0  0
  -25.6642  -21.0477   23.3226 H   0  0  0  0  0  0
  -29.8696  -23.7491   19.6256 H   0  0  0  0  0  0
  -29.7409  -24.2034   21.2819 H   0  0  0  0  0  0
  -30.0425  -18.5928   19.2627 H   0  0  0  0  0  0
  -28.4777  -17.9920   19.6813 H   0  0  0  0  0  0
  -29.7103  -17.3854   22.0365 H   0  0  0  0  0  0
  -31.1454  -17.4061   21.0744 H   0  0  0  0  0  0
  -27.1631  -24.7331   20.6616 H   0  0  0  0  0  0
  -27.7526  -24.7068   19.0371 H   0  0  0  0  0  0
  -28.8155  -15.5050   20.8630 H   0  0  0  0  0  0
  1 25  1  0  0  0
  1 30  2  0  0  0
  1 83  1  0  0  0
  2  3  1  0  0  0
  2 25  1  0  0  0
  2 84  1  0  0  0
  2 85  1  0  0  0
  3  4  1  0  0  0
  3 86  1  0  0  0
  3 87  1  0  0  0
  4  5  1  0  0  0
  4 88  1  0  0  0
  4 89  1  0  0  0
  5  6  1  0  0  0
  5 26  1  0  0  0
  5 90  1  0  0  0
  6 25  1  0  0  0
  6 91  1  0  0  0
  6 92  1  0  0  0
  7  8  2  0  0  0
  7 26  1  0  0  0
  7 29  1  0  0  0
  8  9  1  0  0  0
  8 22  1  0  0  0
  9 10  1  0  0  0
  9 27  2  0  0  0
 10 11  2  0  0  0
 10 15  1  0  0  0
 11 12  1  0  0  0
 11 93  1  0  0  0
 12 13  2  0  0  0
 12 94  1  0  0  0
 13 14  1  0  0  0
 13 31  1  0  0  0
 14 15  2  0  0  0
 14 95  1  0  0  0
 15 96  1  0  0  0
 16 17  2  0  0  0
 16 21  1  0  0  0
 16 31  1  0  0  0
 17 18  1  0  0  0
 17 97  1  0  0  0
 18 19  2  0  0  0
 18 98  1  0  0  0
 19 20  1  0  0  0
 19 24  1  0  0  0
 20 21  2  0  0  0
 20 99  1  0  0  0
 21 23  1  0  0  0
 22 28  1  0  0  0
 22 32  2  0  0  0
 26 27  1  0  0  0
 28100  1  0  0  0
 28101  1  0  0  0
 29102  1  0  0  0
 29103  1  0  0  0
 33 34  1  0  0  0
 33 66  1  0  0  0
 33 70  2  0  0  0
 34 36  1  0  0  0
 34 59  1  0  0  0
 34104  1  0  0  0
 35 44  2  0  0  0
 35 45  1  0  0  0
 35 68  1  0  0  0
 36 56  1  0  0  0
 36105  1  0  0  0
 37 39  1  0  0  0
 37 47  1  0  0  0
 37 66  1  0  0  0
 37106  1  0  0  0
 38 43  2  0  0  0
 38 46  1  0  0  0
 38 47  1  0  0  0
 39 64  1  0  0  0
 39 67  2  0  0  0
 40 52  1  0  0  0
 40 53  2  0  0  0
 40 58  1  0  0  0
 41107  1  0  0  0
 41108  1  0  0  0
 41109  1  0  0  0
 41 48  1  0  0  0
 42 43  1  0  0  0
 42 66  1  0  0  0
 42110  1  0  0  0
 42111  1  0  0  0
 43 44  1  0  0  0
 44112  1  0  0  0
 45 46  2  0  0  0
 45113  1  0  0  0
 46114  1  0  0  0
 47115  1  0  0  0
 47116  1  0  0  0
 48 56  1  0  0  0
 48 65  1  0  0  0
 48117  1  0  0  0
 49 50  1  0  0  0
 49 53  1  0  0  0
 49 64  1  0  0  0
 49118  1  0  0  0
 50 51  1  0  0  0
 50119  1  0  0  0
 50120  1  0  0  0
 51 52  1  0  0  0
 51121  1  0  0  0
 51122  1  0  0  0
 52123  1  0  0  0
 52124  1  0  0  0
 53 54  1  0  0  0
 54 55  2  0  0  0
 54125  1  0  0  0
 55 57  1  0  0  0
 55126  1  0  0  0
 56 69  2  0  0  0
 57 58  2  0  0  0
 57127  1  0  0  0
 58128  1  0  0  0
 59 60  1  0  0  0
 59 61  1  0  0  0
 59 62  1  0  0  0
 60129  1  0  0  0
 60130  1  0  0  0
 60131  1  0  0  0
 61132  1  0  0  0
 61133  1  0  0  0
 61134  1  0  0  0
 62135  1  0  0  0
 62136  1  0  0  0
 62137  1  0  0  0
 63 65  1  0  0  0
 63138  1  0  0  0
 63139  1  0  0  0
 63140  1  0  0  0
 64141  1  0  0  0
 65142  1  0  0  0
 68 81  1  0  0  0
 71 72  2  0  0  0
 71 74  1  0  0  0
 71143  1  0  0  0
 72 73  1  0  0  0
 72 78  1  0  0  0
 73 75  2  0  0  0
 73 76  1  0  0  0
 74 79  1  0  0  0
 74 82  2  0  0  0
 75 77  1  0  0  0
 75 82  1  0  0  0
 76144  1  0  0  0
 76145  1  0  0  0
 76146  1  0  0  0
 77147  1  0  0  0
 77148  1  0  0  0
 77149  1  0  0  0
 78 81  1  0  0  0
 78150  1  0  0  0
 78151  1  0  0  0
 79 80  1  0  0  0
 79152  1  0  0  0
 79153  1  0  0  0
 80 83  1  0  0  0
 80154  1  0  0  0
 80155  1  0  0  0
 81156  1  0  0  0
 81157  1  0  0  0
 83158  1  0  0  0
M  ISO  4   1 100  68 101  81 101  83 100
M  END
> <chiral flag>
0

> <version>
0

> <s_m_source_file>
/data/baiqing/PycharmProjects/Reinvent-master-3.2/result/LINK_invent/BTK/process_docking_weight1_custom_sum_contain_oxygen_bond_distance_aromatic_linkinvent_7_9_3/rearranged_h_0086.sdf

> <i_m_source_file_index>
29

> <r_mmod_Potential_Energy-OPLS-2005>
-24.4828014373779

> <r_mmod_Stretch_Energy-OPLS-2005>
111.471420288086

> <r_mmod_Bend_Energy-OPLS-2005>
157.156295776367

> <r_mmod_Torsional_Energy-OPLS-2005>
211.063446044922

> <r_mmod_Improper_Torsional_Energy-OPLS-2005>
5.41248273849487

> <r_mmod_Van_der_Waal_Energy-OPLS-2005>
149.510864257812

> <r_mmod_Electrostatic_Energy-OPLS-2005>
-506.660705566406

> <r_mmod_Solvation_Energy-OPLS-2005>
-221.355316162109

> <b_mmod_Minimization_Converged-OPLS-2005>
0

> <r_mmod_RMS_Derivative-OPLS-2005>
1.64149785041809

$$$$
29
                    3D
 Structure written by MMmdl.
160168  0  0  1  0            999 V2000
  -30.5712  -14.7469   20.4568 C   0  0  0  0  0  0
  -30.4442  -12.4511   19.4819 C   0  0  0  0  0  0
  -29.5177  -12.5118   18.2443 C   0  0  0  0  0  0
  -28.0420  -12.3313   18.6536 C   0  0  0  0  0  0
  -27.6476  -13.2246   19.8594 C   0  0  2  0  0  0
  -28.6894  -13.1319   20.9983 C   0  0  0  0  0  0
  -25.2535  -13.8186   20.5677 C   0  0  0  0  0  0
  -24.1821  -13.0438   20.9193 C   0  0  0  0  0  0
  -24.6402  -11.6912   20.8745 C   0  0  0  0  0  0
  -23.9083  -10.4291   21.0411 C   0  0  0  0  0  0
  -24.3637   -9.4204   21.9190 C   0  0  0  0  0  0
  -23.6301   -8.2244   22.0762 C   0  0  0  0  0  0
  -22.4280   -8.0297   21.3550 C   0  0  0  0  0  0
  -21.9919   -9.0272   20.4648 C   0  0  0  0  0  0
  -22.7254  -10.2144   20.3055 C   0  0  0  0  0  0
  -21.6850   -6.0751   22.5283 C   0  0  0  0  0  0
  -21.4014   -6.5650   23.8218 C   0  0  0  0  0  0
  -21.3654   -5.6798   24.9176 C   0  0  0  0  0  0
  -21.6040   -4.3061   24.7219 C   0  0  0  0  0  0
  -21.8818   -3.8158   23.4337 C   0  0  0  0  0  0
  -21.9187   -4.6980   22.3399 C   0  0  0  0  0  0
  -22.7842  -13.5233   21.1853 C   0  0  0  0  0  0
  -22.1658   -4.2172   21.0973 F   0  0  0  0  0  0
  -21.5626   -3.4537   25.7729 F   0  0  0  0  0  0
  -29.9972  -13.4950   20.4340 N   0  0  0  0  0  0
  -26.2959  -12.9375   20.3290 N   0  0  0  0  0  0
  -25.9327  -11.6526   20.5753 N   0  0  0  0  0  0
  -22.0468  -12.8237   22.0405 N   0  0  0  0  0  0
  -25.4237  -15.1914   20.4102 N   0  0  0  0  0  0
  -31.7260  -14.9102   20.0534 O   0  0  0  0  0  0
  -21.6634   -6.8899   21.4248 O   0  0  0  0  0  0
  -22.3531  -14.5535   20.6692 O   0  0  0  0  0  0
  -24.6295  -31.8556   23.1980 C   0  0  0  0  0  0
  -25.9126  -32.4750   23.8322 C   0  0  1  0  0  0
  -27.2140  -27.2652   20.1445 C   0  0  0  0  0  0
  -25.5937  -33.8553   24.2254 N   0  0  0  0  0  0
  -23.4253  -30.4775   21.5412 C   0  0  2  0  0  0
  -24.8726  -28.9208   20.1107 C   0  0  0  0  0  0
  -22.7489  -29.4605   22.4916 C   0  0  0  0  0  0
  -18.0289  -28.1395   22.8488 C   0  0  0  0  0  0
  -24.1484  -36.7275   23.2639 C   0  0  0  0  0  0
  -25.9690  -30.7703   21.3757 C   0  0  0  0  0  0
  -26.0423  -29.3915   20.7218 C   0  0  0  0  0  0
  -27.2186  -28.5773   20.7246 C   0  0  0  0  0  0
  -26.0313  -26.8609   19.4944 C   0  0  0  0  0  0
  -24.8719  -27.6634   19.4837 C   0  0  0  0  0  0
  -23.6432  -29.8081   20.1576 C   0  0  0  0  0  0
  -25.4116  -36.3063   24.0322 C   0  0  1  0  0  0
  -20.5889  -28.3705   23.1273 C   0  0  2  0  0  0
  -20.6784  -26.9427   22.5410 C   0  0  0  0  0  0
  -19.5760  -26.6391   21.5216 C   0  0  0  0  0  0
  -18.1937  -26.7938   22.1623 C   0  0  0  0  0  0
  -19.1546  -28.8869   23.2874 C   0  0  0  0  0  0
  -18.9465  -30.1469   23.8891 C   0  0  0  0  0  0
  -17.6466  -30.6595   24.0567 C   0  0  0  0  0  0
  -25.9057  -34.9436   23.5092 C   0  0  0  0  0  0
  -16.5359  -29.9094   23.6332 C   0  0  0  0  0  0
  -16.7277  -28.6512   23.0352 C   0  0  0  0  0  0
  -26.4506  -31.6579   25.0711 C   0  0  0  0  0  0
  -25.3727  -31.3745   26.1433 C   0  0  0  0  0  0
  -27.0362  -30.2994   24.6206 C   0  0  0  0  0  0
  -27.6052  -32.4330   25.7490 C   0  0  0  0  0  0
  -27.5576  -37.1795   24.8471 C   0  0  0  0  0  0
  -21.4202  -29.3044   22.3653 N   0  0  0  0  0  0
  -26.4290  -37.3766   23.9404 N   0  0  0  0  0  0
  -24.6935  -31.0529   22.0945 N   0  0  0  0  0  0
  -23.4195  -28.8161   23.3027 O   0  0  0  0  0  0
  -28.3154  -26.3820   20.1656 O   0  0  0  0  0  0
  -26.5628  -34.8912   22.4658 O   0  0  0  0  0  0
  -23.5442  -32.1390   23.7270 O   0  0  0  0  0  0
  -31.3081  -18.2587   21.8461 C   0  0  0  0  0  0
  -30.3145  -18.4501   20.9211 C   0  0  0  0  0  0
  -31.2254  -20.4388   21.4736 C   0  0  0  0  0  0
  -31.7235  -21.8555   21.4734 C   0  0  0  0  0  0
  -26.9907  -24.7965   21.6635 C   0  0  0  0  0  0
  -29.6437  -17.2511   20.1893 C   0  0  0  0  0  0
  -28.6979  -22.2183   20.7161 C   0  0  0  0  0  0
  -28.5972  -23.6552   19.9507 C   0  0  0  0  0  0
  -29.2712  -20.8553   20.0102 C   0  0  0  0  0  0
  -28.2413  -25.0044   20.7853 C   0  0  1  0  0  0
  -30.1826  -19.8876   20.8050 N   0  0  0  0  0  0
  -31.8356  -19.4706   22.1523 N   0  3  0  0  0  0
  -29.7379  -15.8165   20.7359 N   0  0  0  0  0  0
  -31.4846  -12.5889   19.1808 H   0  0  0  0  0  0
  -30.3998  -11.4677   19.9522 H   0  0  0  0  0  0
  -29.8024  -11.7444   17.5237 H   0  0  0  0  0  0
  -29.6427  -13.4677   17.7344 H   0  0  0  0  0  0
  -27.8996  -11.2816   18.9122 H   0  0  0  0  0  0
  -27.3863  -12.5259   17.8041 H   0  0  0  0  0  0
  -27.6493  -14.2495   19.4903 H   0  0  0  0  0  0
  -28.7211  -12.1221   21.4108 H   0  0  0  0  0  0
  -28.4182  -13.7868   21.8283 H   0  0  0  0  0  0
  -25.2788   -9.5671   22.4758 H   0  0  0  0  0  0
  -24.0007   -7.4633   22.7476 H   0  0  0  0  0  0
  -21.0849   -8.8794   19.8954 H   0  0  0  0  0  0
  -22.3723  -10.9689   19.6166 H   0  0  0  0  0  0
  -21.2013   -7.6160   23.9731 H   0  0  0  0  0  0
  -21.1474   -6.0522   25.9081 H   0  0  0  0  0  0
  -22.0598   -2.7623   23.2820 H   0  0  0  0  0  0
  -22.4087  -11.9914   22.4813 H   0  0  0  0  0  0
  -21.1091  -13.1284   22.2597 H   0  0  0  0  0  0
  -24.6538  -15.8430   20.5156 H   0  0  0  0  0  0
  -26.2643  -15.6278   20.0542 H   0  0  0  0  0  0
  -26.7190  -32.5419   23.1057 H   0  0  0  0  0  0
  -25.0098  -33.9694   25.0411 H   0  0  0  0  0  0
  -22.7212  -31.2993   21.3943 H   0  0  0  0  0  0
  -23.3740  -35.9613   23.3316 H   0  0  0  0  0  0
  -24.3574  -36.8884   22.2052 H   0  0  0  0  0  0
  -23.7234  -37.6479   23.6656 H   0  0  0  0  0  0
  -26.1061  -31.5292   20.6040 H   0  0  0  0  0  0
  -26.8454  -30.8223   22.0096 H   0  0  0  0  0  0
  -28.1147  -28.9330   21.2123 H   0  0  0  0  0  0
  -25.9963  -25.8930   19.0139 H   0  0  0  0  0  0
  -23.9776  -27.3011   18.9955 H   0  0  0  0  0  0
  -23.7666  -30.5828   19.4002 H   0  0  0  0  0  0
  -22.7608  -29.2419   19.8534 H   0  0  0  0  0  0
  -25.1290  -36.1914   25.0813 H   0  0  0  0  0  0
  -20.9991  -28.3296   24.1392 H   0  0  0  0  0  0
  -20.5702  -26.2318   23.3620 H   0  0  0  0  0  0
  -21.6651  -26.7468   22.1197 H   0  0  0  0  0  0
  -19.6923  -25.6302   21.1249 H   0  0  0  0  0  0
  -19.6688  -27.3200   20.6748 H   0  0  0  0  0  0
  -17.4207  -26.6688   21.4021 H   0  0  0  0  0  0
  -18.0331  -26.0082   22.9023 H   0  0  0  0  0  0
  -19.7943  -30.7287   24.2254 H   0  0  0  0  0  0
  -17.5021  -31.6276   24.5175 H   0  0  0  0  0  0
  -15.5359  -30.2993   23.7665 H   0  0  0  0  0  0
  -15.8676  -28.0831   22.7066 H   0  0  0  0  0  0
  -24.5893  -30.7104   25.7766 H   0  0  0  0  0  0
  -24.8935  -32.2928   26.4841 H   0  0  0  0  0  0
  -25.8041  -30.8935   27.0221 H   0  0  0  0  0  0
  -26.2959  -29.6730   24.1216 H   0  0  0  0  0  0
  -27.4025  -29.7267   25.4738 H   0  0  0  0  0  0
  -27.8837  -30.4264   23.9463 H   0  0  0  0  0  0
  -27.2645  -33.3628   26.2062 H   0  0  0  0  0  0
  -28.3867  -32.6904   25.0326 H   0  0  0  0  0  0
  -28.0716  -31.8467   26.5420 H   0  0  0  0  0  0
  -28.2601  -38.0084   24.7501 H   0  0  0  0  0  0
  -28.1056  -36.2613   24.6309 H   0  0  0  0  0  0
  -27.2296  -37.1465   25.8875 H   0  0  0  0  0  0
  -20.9394  -29.8743   21.6835 H   0  0  0  0  0  0
  -26.0164  -38.2836   24.1406 H   0  0  0  0  0  0
  -31.7204  -17.3424   22.2450 H   0  0  0  0  0  0
  -31.4335  -22.3583   20.5522 H   0  0  0  0  0  0
  -32.8120  -21.8378   21.5238 H   0  0  0  0  0  0
  -31.3307  -22.3759   22.3464 H   0  0  0  0  0  0
  -27.1040  -23.9240   22.3063 H   0  0  0  0  0  0
  -26.0952  -24.6346   21.0649 H   0  0  0  0  0  0
  -26.8121  -25.6456   22.3245 H   0  0  0  0  0  0
  -30.0273  -17.2367   19.1683 H   0  0  0  0  0  0
  -28.5825  -17.4853   20.0963 H   0  0  0  0  0  0
  -27.6904  -21.9714   21.0512 H   0  0  0  0  0  0
  -29.2171  -22.3928   21.6537 H   0  0  0  0  0  0
  -27.8719  -23.5574   19.1427 H   0  0  0  0  0  0
  -29.5518  -23.8308   19.4547 H   0  0  0  0  0  0
  -29.8399  -21.1388   19.1245 H   0  0  0  0  0  0
  -28.4337  -20.2665   19.6341 H   0  0  0  0  0  0
  -29.0560  -25.0660   21.5080 H   0  0  0  0  0  0
  -32.6312  -19.6101   22.7641 H   0  0  0  0  0  0
  -28.8748  -15.5113   21.1602 H   0  0  0  0  0  0
  1 25  1  0  0  0
  1 30  2  0  0  0
  1 83  1  0  0  0
  2  3  1  0  0  0
  2 25  1  0  0  0
  2 84  1  0  0  0
  2 85  1  0  0  0
  3  4  1  0  0  0
  3 86  1  0  0  0
  3 87  1  0  0  0
  4  5  1  0  0  0
  4 88  1  0  0  0
  4 89  1  0  0  0
  5  6  1  0  0  0
  5 26  1  0  0  0
  5 90  1  0  0  0
  6 25  1  0  0  0
  6 91  1  0  0  0
  6 92  1  0  0  0
  7  8  2  0  0  0
  7 26  1  0  0  0
  7 29  1  0  0  0
  8  9  1  0  0  0
  8 22  1  0  0  0
  9 10  1  0  0  0
  9 27  2  0  0  0
 10 11  2  0  0  0
 10 15  1  0  0  0
 11 12  1  0  0  0
 11 93  1  0  0  0
 12 13  2  0  0  0
 12 94  1  0  0  0
 13 14  1  0  0  0
 13 31  1  0  0  0
 14 15  2  0  0  0
 14 95  1  0  0  0
 15 96  1  0  0  0
 16 17  2  0  0  0
 16 21  1  0  0  0
 16 31  1  0  0  0
 17 18  1  0  0  0
 17 97  1  0  0  0
 18 19  2  0  0  0
 18 98  1  0  0  0
 19 20  1  0  0  0
 19 24  1  0  0  0
 20 21  2  0  0  0
 20 99  1  0  0  0
 21 23  1  0  0  0
 22 28  1  0  0  0
 22 32  2  0  0  0
 26 27  1  0  0  0
 28100  1  0  0  0
 28101  1  0  0  0
 29102  1  0  0  0
 29103  1  0  0  0
 33 34  1  0  0  0
 33 66  1  0  0  0
 33 70  2  0  0  0
 34 36  1  0  0  0
 34 59  1  0  0  0
 34104  1  0  0  0
 35 44  2  0  0  0
 35 45  1  0  0  0
 35 68  1  0  0  0
 36 56  1  0  0  0
 36105  1  0  0  0
 37 39  1  0  0  0
 37 47  1  0  0  0
 37 66  1  0  0  0
 37106  1  0  0  0
 38 43  2  0  0  0
 38 46  1  0  0  0
 38 47  1  0  0  0
 39 64  1  0  0  0
 39 67  2  0  0  0
 40 52  1  0  0  0
 40 53  2  0  0  0
 40 58  1  0  0  0
 41107  1  0  0  0
 41108  1  0  0  0
 41109  1  0  0  0
 41 48  1  0  0  0
 42 43  1  0  0  0
 42 66  1  0  0  0
 42110  1  0  0  0
 42111  1  0  0  0
 43 44  1  0  0  0
 44112  1  0  0  0
 45 46  2  0  0  0
 45113  1  0  0  0
 46114  1  0  0  0
 47115  1  0  0  0
 47116  1  0  0  0
 48 56  1  0  0  0
 48 65  1  0  0  0
 48117  1  0  0  0
 49 50  1  0  0  0
 49 53  1  0  0  0
 49 64  1  0  0  0
 49118  1  0  0  0
 50 51  1  0  0  0
 50119  1  0  0  0
 50120  1  0  0  0
 51 52  1  0  0  0
 51121  1  0  0  0
 51122  1  0  0  0
 52123  1  0  0  0
 52124  1  0  0  0
 53 54  1  0  0  0
 54 55  2  0  0  0
 54125  1  0  0  0
 55 57  1  0  0  0
 55126  1  0  0  0
 56 69  2  0  0  0
 57 58  2  0  0  0
 57127  1  0  0  0
 58128  1  0  0  0
 59 60  1  0  0  0
 59 61  1  0  0  0
 59 62  1  0  0  0
 60129  1  0  0  0
 60130  1  0  0  0
 60131  1  0  0  0
 61132  1  0  0  0
 61133  1  0  0  0
 61134  1  0  0  0
 62135  1  0  0  0
 62136  1  0  0  0
 62137  1  0  0  0
 63 65  1  0  0  0
 63138  1  0  0  0
 63139  1  0  0  0
 63140  1  0  0  0
 64141  1  0  0  0
 65142  1  0  0  0
 68 80  1  0  0  0
 71 72  2  0  0  0
 71 82  1  0  0  0
 71143  1  0  0  0
 72 76  1  0  0  0
 72 81  1  0  0  0
 73 74  1  0  0  0
 73 81  1  0  0  0
 73 82  2  0  0  0
 74144  1  0  0  0
 74145  1  0  0  0
 74146  1  0  0  0
 75147  1  0  0  0
 75148  1  0  0  0
 75149  1  0  0  0
 75 80  1  0  0  0
 76 83  1  0  0  0
 76150  1  0  0  0
 76151  1  0  0  0
 77 78  1  0  0  0
 77 79  1  0  0  0
 77152  1  0  0  0
 77153  1  0  0  0
 78 80  1  0  0  0
 78154  1  0  0  0
 78155  1  0  0  0
 79 81  1  0  0  0
 79156  1  0  0  0
 79157  1  0  0  0
 80158  1  0  0  0
 82159  1  0  0  0
 83160  1  0  0  0
M  CHG  1  82   1
M  ISO  4   1 100  68 101  80 101  83 100
M  END
> <chiral flag>
0

> <version>
0

> <s_m_source_file>
/data/baiqing/PycharmProjects/Reinvent-master-3.2/result/LINK_invent/BTK/process_docking_weight1_custom_sum_contain_oxygen_bond_distance_aromatic_linkinvent_7_9_3/rearranged_h_0086.sdf

> <i_m_source_file_index>
30

> <r_mmod_Potential_Energy-OPLS-2005>
108.942428588867

> <r_mmod_Stretch_Energy-OPLS-2005>
137.885147094727

> <r_mmod_Bend_Energy-OPLS-2005>
198.76628112793

> <r_mmod_Torsional_Energy-OPLS-2005>
257.115325927734

> <r_mmod_Improper_Torsional_Energy-OPLS-2005>
7.2947473526001

> <r_mmod_Van_der_Waal_Energy-OPLS-2005>
116.925636291504

> <r_mmod_Electrostatic_Energy-OPLS-2005>
-271.984619140625

> <r_mmod_Solvation_Energy-OPLS-2005>
-421.214324951172

> <b_mmod_Minimization_Converged-OPLS-2005>
0

> <r_mmod_RMS_Derivative-OPLS-2005>
1.57088947296143

$$$$
30
                    3D
 Structure written by MMmdl.
177185  0  0  1  0            999 V2000
  -30.6906  -14.5263   20.5592 C   0  0  0  0  0  0
  -30.4327  -12.3431   19.4206 C   0  0  0  0  0  0
  -29.4952  -12.5018   18.2052 C   0  0  0  0  0  0
  -28.0181  -12.3557   18.6226 C   0  0  0  0  0  0
  -27.6596  -13.2089   19.8685 C   0  0  2  0  0  0
  -28.7082  -13.0178   20.9876 C   0  0  0  0  0  0
  -25.2596  -13.8163   20.5688 C   0  0  0  0  0  0
  -24.1854  -13.0452   20.9184 C   0  0  0  0  0  0
  -24.6398  -11.6905   20.8739 C   0  0  0  0  0  0
  -23.9058  -10.4300   21.0405 C   0  0  0  0  0  0
  -24.3612   -9.4217   21.9188 C   0  0  0  0  0  0
  -23.6296   -8.2250   22.0754 C   0  0  0  0  0  0
  -22.4279   -8.0285   21.3541 C   0  0  0  0  0  0
  -21.9908   -9.0260   20.4648 C   0  0  0  0  0  0
  -22.7227  -10.2144   20.3060 C   0  0  0  0  0  0
  -21.6852   -6.0747   22.5280 C   0  0  0  0  0  0
  -21.4015   -6.5648   23.8214 C   0  0  0  0  0  0
  -21.3655   -5.6797   24.9176 C   0  0  0  0  0  0
  -21.6037   -4.3062   24.7222 C   0  0  0  0  0  0
  -21.8821   -3.8155   23.4341 C   0  0  0  0  0  0
  -21.9198   -4.6975   22.3401 C   0  0  0  0  0  0
  -22.7869  -13.5245   21.1844 C   0  0  0  0  0  0
  -22.1666   -4.2163   21.0977 F   0  0  0  0  0  0
  -21.5626   -3.4538   25.7732 F   0  0  0  0  0  0
  -30.0301  -13.3401   20.4245 N   0  0  0  0  0  0
  -26.3030  -12.9330   20.3364 N   0  0  0  0  0  0
  -25.9329  -11.6488   20.5778 N   0  0  0  0  0  0
  -22.0503  -12.8255   22.0395 N   0  0  0  0  0  0
  -25.4330  -15.1884   20.4080 N   0  0  0  0  0  0
  -31.8319  -14.7063   20.1302 O   0  0  0  0  0  0
  -21.6641   -6.8884   21.4238 O   0  0  0  0  0  0
  -22.3561  -14.5553   20.6677 O   0  0  0  0  0  0
  -24.6197  -31.8675   23.2073 C   0  0  0  0  0  0
  -25.9063  -32.4833   23.8355 C   0  0  1  0  0  0
  -27.2261  -27.3710   20.0813 C   0  0  0  0  0  0
  -25.5911  -33.8630   24.2295 N   0  0  0  0  0  0
  -23.4083  -30.4934   21.5495 C   0  0  2  0  0  0
  -24.8529  -28.9560   20.1136 C   0  0  0  0  0  0
  -22.7434  -29.4658   22.4946 C   0  0  0  0  0  0
  -18.0295  -28.1432   22.8506 C   0  0  0  0  0  0
  -24.1488  -36.7282   23.2629 C   0  0  0  0  0  0
  -25.9465  -30.8070   21.3753 C   0  0  0  0  0  0
  -26.0192  -29.4373   20.7193 C   0  0  0  0  0  0
  -27.2041  -28.6512   20.7050 C   0  0  0  0  0  0
  -26.0313  -26.9364   19.4542 C   0  0  0  0  0  0
  -24.8579  -27.7087   19.4791 C   0  0  0  0  0  0
  -23.6211  -29.8337   20.1620 C   0  0  0  0  0  0
  -25.4129  -36.3102   24.0311 C   0  0  1  0  0  0
  -20.5889  -28.3719   23.1309 C   0  0  2  0  0  0
  -20.6778  -26.9450   22.5414 C   0  0  0  0  0  0
  -19.5755  -26.6423   21.5220 C   0  0  0  0  0  0
  -18.1942  -26.7976   22.1636 C   0  0  0  0  0  0
  -19.1549  -28.8886   23.2905 C   0  0  0  0  0  0
  -18.9471  -30.1491   23.8932 C   0  0  0  0  0  0
  -17.6471  -30.6621   24.0599 C   0  0  0  0  0  0
  -25.9054  -34.9479   23.5096 C   0  0  0  0  0  0
  -16.5361  -29.9136   23.6339 C   0  0  0  0  0  0
  -16.7287  -28.6559   23.0363 C   0  0  0  0  0  0
  -26.4483  -31.6640   25.0701 C   0  0  0  0  0  0
  -25.3693  -31.3792   26.1410 C   0  0  0  0  0  0
  -27.0300  -30.3073   24.6089 C   0  0  0  0  0  0
  -27.6070  -32.4357   25.7461 C   0  0  0  0  0  0
  -27.5594  -37.1806   24.8472 C   0  0  0  0  0  0
  -21.4154  -29.3059   22.3679 N   0  0  0  0  0  0
  -26.4310  -37.3795   23.9401 N   0  0  0  0  0  0
  -24.6762  -31.0714   22.1016 N   0  0  0  0  0  0
  -23.4188  -28.8173   23.2975 O   0  0  0  0  0  0
  -28.3781  -26.5813   20.1317 O   0  0  0  0  0  0
  -26.5629  -34.8923   22.4666 O   0  0  0  0  0  0
  -23.5372  -32.1468   23.7424 O   0  0  0  0  0  0
  -27.8741  -23.7148   21.9876 C   0  0  0  0  0  0
  -28.8176  -23.3085   21.0822 C   0  0  0  0  0  0
  -29.0503  -21.9217   21.4404 C   0  0  0  0  0  0
  -31.3790  -21.0433   21.5328 C   0  0  0  0  0  0
  -28.6809  -17.5839   19.5745 C   0  0  0  0  0  0
  -31.0418  -18.3226   19.3900 C   0  0  0  0  0  0
  -26.9251  -23.7356   24.9538 C   0  0  0  0  0  0
  -26.6638  -21.2640   24.6894 C   0  0  0  0  0  0
  -25.2185  -22.8208   23.3467 C   0  0  0  0  0  0
  -29.4061  -24.2048   19.9913 C   0  0  0  0  0  0
  -29.4548  -19.3737   21.1845 C   0  0  0  0  0  0
  -30.3707  -16.9280   21.3913 C   0  0  0  0  0  0
  -28.4228  -25.2956   19.4390 C   0  0  0  0  0  0
  -29.9947  -20.8335   20.8913 C   0  0  1  0  0  0
  -29.9008  -18.0657   20.3961 C   0  0  0  0  0  0
  -26.6260  -22.6175   23.9397 C   0  0  0  0  0  0
  -28.3748  -21.6112   22.5397 N   0  0  0  0  0  0
  -27.6055  -22.6737   22.8465 N   0  0  0  0  0  0
  -29.9639  -15.5381   21.0763 N   0  0  0  0  0  0
  -31.4720  -12.4603   19.1087 H   0  0  0  0  0  0
  -30.3597  -11.3380   19.8398 H   0  0  0  0  0  0
  -29.7400  -11.7626   17.4415 H   0  0  0  0  0  0
  -29.6501  -13.4789   17.7461 H   0  0  0  0  0  0
  -27.8338  -11.3008   18.8316 H   0  0  0  0  0  0
  -27.3639  -12.6167   17.7900 H   0  0  0  0  0  0
  -27.6951  -14.2513   19.5513 H   0  0  0  0  0  0
  -28.7048  -11.9860   21.3428 H   0  0  0  0  0  0
  -28.4671  -13.6284   21.8589 H   0  0  0  0  0  0
  -25.2754   -9.5708   22.4764 H   0  0  0  0  0  0
  -24.0012   -7.4644   22.7471 H   0  0  0  0  0  0
  -21.0837   -8.8770   19.8955 H   0  0  0  0  0  0
  -22.3672  -10.9685   19.6176 H   0  0  0  0  0  0
  -21.2004   -7.6154   23.9722 H   0  0  0  0  0  0
  -21.1472   -6.0525   25.9078 H   0  0  0  0  0  0
  -22.0603   -2.7616   23.2834 H   0  0  0  0  0  0
  -22.4105  -11.9916   22.4796 H   0  0  0  0  0  0
  -21.1131  -13.1302   22.2596 H   0  0  0  0  0  0
  -24.6676  -15.8450   20.5151 H   0  0  0  0  0  0
  -26.2837  -15.6225   20.0751 H   0  0  0  0  0  0
  -26.7118  -32.5525   23.1096 H   0  0  0  0  0  0
  -25.0071  -33.9794   25.0443 H   0  0  0  0  0  0
  -22.6976  -31.3116   21.4139 H   0  0  0  0  0  0
  -23.3766  -35.9600   23.3329 H   0  0  0  0  0  0
  -24.3550  -36.8862   22.2030 H   0  0  0  0  0  0
  -23.7226  -37.6474   23.6651 H   0  0  0  0  0  0
  -26.0647  -31.5685   20.6034 H   0  0  0  0  0  0
  -26.8319  -30.8626   21.9966 H   0  0  0  0  0  0
  -28.0990  -29.0195   21.1878 H   0  0  0  0  0  0
  -25.9393  -26.0011   18.9289 H   0  0  0  0  0  0
  -23.9631  -27.3420   18.9973 H   0  0  0  0  0  0
  -23.7403  -30.6129   19.4084 H   0  0  0  0  0  0
  -22.7423  -29.2624   19.8598 H   0  0  0  0  0  0
  -25.1322  -36.1948   25.0807 H   0  0  0  0  0  0
  -21.0024  -28.3317   24.1416 H   0  0  0  0  0  0
  -20.5696  -26.2333   23.3610 H   0  0  0  0  0  0
  -21.6649  -26.7501   22.1200 H   0  0  0  0  0  0
  -19.6885  -25.6329   21.1262 H   0  0  0  0  0  0
  -19.6687  -27.3220   20.6746 H   0  0  0  0  0  0
  -17.4195  -26.6753   21.4043 H   0  0  0  0  0  0
  -18.0348  -26.0118   22.9043 H   0  0  0  0  0  0
  -19.7936  -30.7318   24.2308 H   0  0  0  0  0  0
  -17.5020  -31.6296   24.5210 H   0  0  0  0  0  0
  -15.5366  -30.3062   23.7619 H   0  0  0  0  0  0
  -15.8694  -28.0874   22.7080 H   0  0  0  0  0  0
  -24.5861  -30.7163   25.7715 H   0  0  0  0  0  0
  -24.8873  -32.2971   26.4796 H   0  0  0  0  0  0
  -25.7966  -30.8972   27.0206 H   0  0  0  0  0  0
  -26.2840  -29.6848   24.1136 H   0  0  0  0  0  0
  -27.4048  -29.7313   25.4551 H   0  0  0  0  0  0
  -27.8701  -30.4373   23.9260 H   0  0  0  0  0  0
  -27.2732  -33.3677   26.2040 H   0  0  0  0  0  0
  -28.3901  -32.6889   25.0300 H   0  0  0  0  0  0
  -28.0726  -31.8456   26.5356 H   0  0  0  0  0  0
  -28.2649  -38.0080   24.7553 H   0  0  0  0  0  0
  -28.1068  -36.2620   24.6312 H   0  0  0  0  0  0
  -27.2297  -37.1444   25.8869 H   0  0  0  0  0  0
  -20.9306  -29.8784   21.6911 H   0  0  0  0  0  0
  -26.0188  -38.2850   24.1464 H   0  0  0  0  0  0
  -27.3685  -24.6656   22.0854 H   0  0  0  0  0  0
  -31.7532  -22.0473   21.3300 H   0  0  0  0  0  0
  -32.1244  -20.3421   21.1648 H   0  0  0  0  0  0
  -31.3261  -20.9304   22.6175 H   0  0  0  0  0  0
  -28.3227  -18.3664   18.9039 H   0  0  0  0  0  0
  -27.8487  -17.3044   20.2224 H   0  0  0  0  0  0
  -28.9186  -16.7238   18.9475 H   0  0  0  0  0  0
  -30.7899  -19.0976   18.6665 H   0  0  0  0  0  0
  -31.2658  -17.4206   18.8193 H   0  0  0  0  0  0
  -31.9689  -18.6071   19.8845 H   0  0  0  0  0  0
  -26.1821  -23.7425   25.7517 H   0  0  0  0  0  0
  -26.9128  -24.7230   24.4923 H   0  0  0  0  0  0
  -27.9029  -23.5980   25.4155 H   0  0  0  0  0  0
  -25.9254  -21.2334   25.4911 H   0  0  0  0  0  0
  -27.6399  -21.0902   25.1443 H   0  0  0  0  0  0
  -26.4530  -20.4271   24.0225 H   0  0  0  0  0  0
  -24.4454  -22.7047   24.1075 H   0  0  0  0  0  0
  -25.0128  -22.1028   22.5503 H   0  0  0  0  0  0
  -25.1086  -23.8194   22.9210 H   0  0  0  0  0  0
  -30.3160  -24.6903   20.3415 H   0  0  0  0  0  0
  -29.7295  -23.5869   19.1519 H   0  0  0  0  0  0
  -28.3721  -19.4355   21.0658 H   0  0  0  0  0  0
  -29.5665  -19.2097   22.2561 H   0  0  0  0  0  0
  -29.9551  -17.1006   22.3839 H   0  0  0  0  0  0
  -31.4517  -16.9786   21.5373 H   0  0  0  0  0  0
  -27.4614  -24.7936   19.3752 H   0  0  0  0  0  0
  -28.7092  -25.5210   18.4111 H   0  0  0  0  0  0
  -30.0725  -20.9673   19.8124 H   0  0  0  0  0  0
  -29.0204  -15.2979   21.3367 H   0  0  0  0  0  0
  1 25  1  0  0  0
  1 30  2  0  0  0
  1 89  1  0  0  0
  2  3  1  0  0  0
  2 25  1  0  0  0
  2 90  1  0  0  0
  2 91  1  0  0  0
  3  4  1  0  0  0
  3 92  1  0  0  0
  3 93  1  0  0  0
  4  5  1  0  0  0
  4 94  1  0  0  0
  4 95  1  0  0  0
  5  6  1  0  0  0
  5 26  1  0  0  0
  5 96  1  0  0  0
  6 25  1  0  0  0
  6 97  1  0  0  0
  6 98  1  0  0  0
  7  8  2  0  0  0
  7 26  1  0  0  0
  7 29  1  0  0  0
  8  9  1  0  0  0
  8 22  1  0  0  0
  9 10  1  0  0  0
  9 27  2  0  0  0
 10 11  2  0  0  0
 10 15  1  0  0  0
 11 12  1  0  0  0
 11 99  1  0  0  0
 12 13  2  0  0  0
 12100  1  0  0  0
 13 14  1  0  0  0
 13 31  1  0  0  0
 14 15  2  0  0  0
 14101  1  0  0  0
 15102  1  0  0  0
 16 17  2  0  0  0
 16 21  1  0  0  0
 16 31  1  0  0  0
 17 18  1  0  0  0
 17103  1  0  0  0
 18 19  2  0  0  0
 18104  1  0  0  0
 19 20  1  0  0  0
 19 24  1  0  0  0
 20 21  2  0  0  0
 20105  1  0  0  0
 21 23  1  0  0  0
 22 28  1  0  0  0
 22 32  2  0  0  0
 26 27  1  0  0  0
 28106  1  0  0  0
 28107  1  0  0  0
 29108  1  0  0  0
 29109  1  0  0  0
 33 34  1  0  0  0
 33 66  1  0  0  0
 33 70  2  0  0  0
 34 36  1  0  0  0
 34 59  1  0  0  0
 34110  1  0  0  0
 35 44  2  0  0  0
 35 45  1  0  0  0
 35 68  1  0  0  0
 36 56  1  0  0  0
 36111  1  0  0  0
 37 39  1  0  0  0
 37 47  1  0  0  0
 37 66  1  0  0  0
 37112  1  0  0  0
 38 43  2  0  0  0
 38 46  1  0  0  0
 38 47  1  0  0  0
 39 64  1  0  0  0
 39 67  2  0  0  0
 40 52  1  0  0  0
 40 53  2  0  0  0
 40 58  1  0  0  0
 41113  1  0  0  0
 41114  1  0  0  0
 41115  1  0  0  0
 41 48  1  0  0  0
 42 43  1  0  0  0
 42 66  1  0  0  0
 42116  1  0  0  0
 42117  1  0  0  0
 43 44  1  0  0  0
 44118  1  0  0  0
 45 46  2  0  0  0
 45119  1  0  0  0
 46120  1  0  0  0
 47121  1  0  0  0
 47122  1  0  0  0
 48 56  1  0  0  0
 48 65  1  0  0  0
 48123  1  0  0  0
 49 50  1  0  0  0
 49 53  1  0  0  0
 49 64  1  0  0  0
 49124  1  0  0  0
 50 51  1  0  0  0
 50125  1  0  0  0
 50126  1  0  0  0
 51 52  1  0  0  0
 51127  1  0  0  0
 51128  1  0  0  0
 52129  1  0  0  0
 52130  1  0  0  0
 53 54  1  0  0  0
 54 55  2  0  0  0
 54131  1  0  0  0
 55 57  1  0  0  0
 55132  1  0  0  0
 56 69  2  0  0  0
 57 58  2  0  0  0
 57133  1  0  0  0
 58134  1  0  0  0
 59 60  1  0  0  0
 59 61  1  0  0  0
 59 62  1  0  0  0
 60135  1  0  0  0
 60136  1  0  0  0
 60137  1  0  0  0
 61138  1  0  0  0
 61139  1  0  0  0
 61140  1  0  0  0
 62141  1  0  0  0
 62142  1  0  0  0
 62143  1  0  0  0
 63 65  1  0  0  0
 63144  1  0  0  0
 63145  1  0  0  0
 63146  1  0  0  0
 64147  1  0  0  0
 65148  1  0  0  0
 68 83  1  0  0  0
 71 72  2  0  0  0
 71 88  1  0  0  0
 71149  1  0  0  0
 72 73  1  0  0  0
 72 80  1  0  0  0
 73 84  1  0  0  0
 73 87  2  0  0  0
 74150  1  0  0  0
 74151  1  0  0  0
 74152  1  0  0  0
 74 84  1  0  0  0
 75153  1  0  0  0
 75154  1  0  0  0
 75155  1  0  0  0
 75 85  1  0  0  0
 76 85  1  0  0  0
 76156  1  0  0  0
 76157  1  0  0  0
 76158  1  0  0  0
 77159  1  0  0  0
 77160  1  0  0  0
 77161  1  0  0  0
 77 86  1  0  0  0
 78 86  1  0  0  0
 78162  1  0  0  0
 78163  1  0  0  0
 78164  1  0  0  0
 79 86  1  0  0  0
 79165  1  0  0  0
 79166  1  0  0  0
 79167  1  0  0  0
 80 83  1  0  0  0
 80168  1  0  0  0
 80169  1  0  0  0
 81 84  1  0  0  0
 81 85  1  0  0  0
 81170  1  0  0  0
 81171  1  0  0  0
 82 85  1  0  0  0
 82 89  1  0  0  0
 82172  1  0  0  0
 82173  1  0  0  0
 83174  1  0  0  0
 83175  1  0  0  0
 84176  1  0  0  0
 86 88  1  0  0  0
 87 88  1  0  0  0
 89177  1  0  0  0
M  ISO  4   1 100  68 101  83 101  89 100
M  END
> <chiral flag>
0

> <version>
0

> <s_m_source_file>
/data/baiqing/PycharmProjects/Reinvent-master-3.2/result/LINK_invent/BTK/process_docking_weight1_custom_sum_contain_oxygen_bond_distance_aromatic_linkinvent_7_9_3/rearranged_h_0086.sdf

> <i_m_source_file_index>
31

> <r_mmod_Potential_Energy-OPLS-2005>
-45.6326141357422

> <r_mmod_Stretch_Energy-OPLS-2005>
59.4046401977539

> <r_mmod_Bend_Energy-OPLS-2005>
146.658538818359

> <r_mmod_Torsional_Energy-OPLS-2005>
263.568908691406

> <r_mmod_Improper_Torsional_Energy-OPLS-2005>
3.21601295471191

> <r_mmod_Van_der_Waal_Energy-OPLS-2005>
139.995483398438

> <r_mmod_Electrostatic_Energy-OPLS-2005>
-488.663635253906

> <r_mmod_Solvation_Energy-OPLS-2005>
-194.329544067383

> <b_mmod_Minimization_Converged-OPLS-2005>
0

> <r_mmod_RMS_Derivative-OPLS-2005>
2.98371362686157

$$$$
31
                    3D
 Structure written by MMmdl.
182190  0  0  1  0            999 V2000
  -30.7296  -14.4007   20.6158 C   0  0  0  0  0  0
  -30.4188  -12.2870   19.3820 C   0  0  0  0  0  0
  -29.4824  -12.5044   18.1768 C   0  0  0  0  0  0
  -28.0056  -12.3631   18.5959 C   0  0  0  0  0  0
  -27.6600  -13.1958   19.8600 C   0  0  2  0  0  0
  -28.7007  -12.9466   20.9715 C   0  0  0  0  0  0
  -25.2607  -13.8143   20.5642 C   0  0  0  0  0  0
  -24.1856  -13.0452   20.9169 C   0  0  0  0  0  0
  -24.6388  -11.6908   20.8733 C   0  0  0  0  0  0
  -23.9048  -10.4306   21.0404 C   0  0  0  0  0  0
  -24.3610   -9.4234   21.9173 C   0  0  0  0  0  0
  -23.6303   -8.2257   22.0741 C   0  0  0  0  0  0
  -22.4281   -8.0286   21.3544 C   0  0  0  0  0  0
  -21.9916   -9.0250   20.4640 C   0  0  0  0  0  0
  -22.7224  -10.2140   20.3047 C   0  0  0  0  0  0
  -21.6856   -6.0755   22.5294 C   0  0  0  0  0  0
  -21.4012   -6.5653   23.8225 C   0  0  0  0  0  0
  -21.3654   -5.6804   24.9189 C   0  0  0  0  0  0
  -21.6034   -4.3066   24.7243 C   0  0  0  0  0  0
  -21.8826   -3.8165   23.4361 C   0  0  0  0  0  0
  -21.9203   -4.6982   22.3420 C   0  0  0  0  0  0
  -22.7888  -13.5265   21.1853 C   0  0  0  0  0  0
  -22.1669   -4.2171   21.1000 F   0  0  0  0  0  0
  -21.5629   -3.4544   25.7748 F   0  0  0  0  0  0
  -30.0314  -13.2541   20.4182 N   0  0  0  0  0  0
  -26.3011  -12.9291   20.3263 N   0  0  0  0  0  0
  -25.9295  -11.6464   20.5694 N   0  0  0  0  0  0
  -22.0514  -12.8246   22.0397 N   0  0  0  0  0  0
  -25.4399  -15.1865   20.4065 N   0  0  0  0  0  0
  -31.8653  -14.5771   20.1754 O   0  0  0  0  0  0
  -21.6643   -6.8893   21.4248 O   0  0  0  0  0  0
  -22.3577  -14.5586   20.6725 O   0  0  0  0  0  0
  -24.6097  -31.8691   23.2138 C   0  0  0  0  0  0
  -25.9022  -32.4804   23.8398 C   0  0  1  0  0  0
  -27.2680  -27.4967   20.0639 C   0  0  0  0  0  0
  -25.5897  -33.8597   24.2329 N   0  0  0  0  0  0
  -23.3953  -30.4902   21.5518 C   0  0  2  0  0  0
  -24.8476  -28.9560   20.1179 C   0  0  0  0  0  0
  -22.7387  -29.4640   22.5022 C   0  0  0  0  0  0
  -18.0273  -28.1366   22.8483 C   0  0  0  0  0  0
  -24.1484  -36.7332   23.2630 C   0  0  0  0  0  0
  -25.9166  -30.8488   21.3591 C   0  0  0  0  0  0
  -25.9986  -29.4832   20.7150 C   0  0  0  0  0  0
  -27.2029  -28.7521   20.7004 C   0  0  0  0  0  0
  -26.0939  -26.9589   19.4857 C   0  0  0  0  0  0
  -24.8857  -27.6860   19.5128 C   0  0  0  0  0  0
  -23.6024  -29.8145   20.1671 C   0  0  0  0  0  0
  -25.4084  -36.3082   24.0323 C   0  0  1  0  0  0
  -20.5852  -28.3624   23.1347 C   0  0  2  0  0  0
  -20.6751  -26.9355   22.5437 C   0  0  0  0  0  0
  -19.5719  -26.6373   21.5223 C   0  0  0  0  0  0
  -18.1906  -26.7922   22.1629 C   0  0  0  0  0  0
  -19.1517  -28.8824   23.2901 C   0  0  0  0  0  0
  -18.9436  -30.1448   23.8866 C   0  0  0  0  0  0
  -17.6433  -30.6551   24.0563 C   0  0  0  0  0  0
  -25.9015  -34.9448   23.5121 C   0  0  0  0  0  0
  -16.5330  -29.9053   23.6319 C   0  0  0  0  0  0
  -16.7266  -28.6503   23.0284 C   0  0  0  0  0  0
  -26.4478  -31.6565   25.0704 C   0  0  0  0  0  0
  -25.3754  -31.3674   26.1465 C   0  0  0  0  0  0
  -27.0300  -30.2994   24.6071 C   0  0  0  0  0  0
  -27.6054  -32.4287   25.7461 C   0  0  0  0  0  0
  -27.5569  -37.1797   24.8437 C   0  0  0  0  0  0
  -21.4128  -29.2982   22.3750 N   0  0  0  0  0  0
  -26.4264  -37.3763   23.9415 N   0  0  0  0  0  0
  -24.6570  -31.0834   22.1018 N   0  0  0  0  0  0
  -23.4180  -28.8194   23.3040 O   0  0  0  0  0  0
  -28.4814  -26.8462   20.0715 O   0  0  0  0  0  0
  -26.5566  -34.8909   22.4682 O   0  0  0  0  0  0
  -23.5301  -32.1452   23.7574 O   0  0  0  0  0  0
  -28.5970  -21.7024   19.1906 C   0  0  0  0  0  0
  -29.7867  -22.3175   18.7744 C   0  0  0  0  0  0
  -28.5596  -20.3461   19.5997 C   0  0  0  0  0  0
  -30.9620  -21.5485   18.7916 C   0  0  0  0  0  0
  -29.8171  -19.6579   19.5916 C   0  0  0  0  0  0
  -32.3052  -22.0971   18.3497 C   0  0  0  0  0  0
  -30.2619  -17.4108   18.5568 C   0  0  0  0  0  0
  -26.0113  -20.7185   19.8401 C   0  0  0  0  0  0
  -27.1071  -19.1932   21.3984 C   0  0  0  0  0  0
  -26.8321  -18.6005   18.9132 C   0  0  0  0  0  0
  -32.4587  -17.5996   20.5619 C   0  0  0  0  0  0
  -31.1074  -18.9458   22.1166 C   0  0  0  0  0  0
  -29.7206  -23.7620   18.2862 C   0  0  0  0  0  0
  -29.3801  -24.7465   19.4174 C   0  0  0  0  0  0
  -30.5629  -16.5626   21.9258 C   0  0  0  0  0  0
  -28.9005  -26.1161   18.9211 C   0  0  0  0  0  0
  -30.0222  -18.1570   19.8892 C   0  0  1  0  0  0
  -27.1808  -19.7039   19.9394 C   0  0  0  0  0  0
  -31.0145  -17.8001   21.0740 C   0  0  0  0  0  0
  -30.9605  -20.2625   19.1806 N   0  0  0  0  0  0
  -30.0534  -15.3589   21.2646 N   0  0  0  0  0  0
  -31.4604  -12.3927   19.0731 H   0  0  0  0  0  0
  -30.3242  -11.2685   19.7624 H   0  0  0  0  0  0
  -29.7139  -11.7930   17.3820 H   0  0  0  0  0  0
  -29.6487  -13.4959   17.7514 H   0  0  0  0  0  0
  -27.8185  -11.3062   18.7868 H   0  0  0  0  0  0
  -27.3515  -12.6416   17.7685 H   0  0  0  0  0  0
  -27.7120  -14.2463   19.5714 H   0  0  0  0  0  0
  -28.6721  -11.9015   21.2823 H   0  0  0  0  0  0
  -28.4607  -13.5192   21.8675 H   0  0  0  0  0  0
  -25.2758   -9.5738   22.4732 H   0  0  0  0  0  0
  -24.0048   -7.4657   22.7447 H   0  0  0  0  0  0
  -21.0860   -8.8767   19.8928 H   0  0  0  0  0  0
  -22.3686  -10.9682   19.6161 H   0  0  0  0  0  0
  -21.1982   -7.6155   23.9748 H   0  0  0  0  0  0
  -21.1457   -6.0520   25.9096 H   0  0  0  0  0  0
  -22.0600   -2.7626   23.2858 H   0  0  0  0  0  0
  -22.4124  -11.9914   22.4808 H   0  0  0  0  0  0
  -21.1108  -13.1242   22.2539 H   0  0  0  0  0  0
  -24.6778  -15.8479   20.5072 H   0  0  0  0  0  0
  -26.2986  -15.6157   20.0889 H   0  0  0  0  0  0
  -26.7091  -32.5543   23.1166 H   0  0  0  0  0  0
  -24.9981  -33.9726   25.0426 H   0  0  0  0  0  0
  -22.6769  -31.2993   21.4103 H   0  0  0  0  0  0
  -23.3697  -35.9713   23.3269 H   0  0  0  0  0  0
  -24.3558  -36.8995   22.2046 H   0  0  0  0  0  0
  -23.7327  -37.6562   23.6671 H   0  0  0  0  0  0
  -26.0112  -31.6115   20.5859 H   0  0  0  0  0  0
  -26.8108  -30.9131   21.9653 H   0  0  0  0  0  0
  -28.0955  -29.1650   21.1546 H   0  0  0  0  0  0
  -26.1016  -25.9847   19.0210 H   0  0  0  0  0  0
  -23.9951  -27.2655   19.0677 H   0  0  0  0  0  0
  -23.6999  -30.5848   19.4009 H   0  0  0  0  0  0
  -22.7330  -29.2193   19.8815 H   0  0  0  0  0  0
  -25.1263  -36.1909   25.0811 H   0  0  0  0  0  0
  -20.9902  -28.3207   24.1481 H   0  0  0  0  0  0
  -20.5676  -26.2208   23.3613 H   0  0  0  0  0  0
  -21.6626  -26.7422   22.1198 H   0  0  0  0  0  0
  -19.6854  -25.6297   21.1210 H   0  0  0  0  0  0
  -19.6682  -27.3218   20.6775 H   0  0  0  0  0  0
  -17.4182  -26.6671   21.4024 H   0  0  0  0  0  0
  -18.0286  -26.0074   22.9026 H   0  0  0  0  0  0
  -19.7897  -30.7286   24.2195 H   0  0  0  0  0  0
  -17.4968  -31.6212   24.5184 H   0  0  0  0  0  0
  -15.5315  -30.2916   23.7657 H   0  0  0  0  0  0
  -15.8682  -28.0845   22.6910 H   0  0  0  0  0  0
  -24.5906  -30.7036   25.7820 H   0  0  0  0  0  0
  -24.8958  -32.2835   26.4912 H   0  0  0  0  0  0
  -25.8125  -30.8843   27.0213 H   0  0  0  0  0  0
  -26.2838  -29.6746   24.1151 H   0  0  0  0  0  0
  -27.4090  -29.7228   25.4518 H   0  0  0  0  0  0
  -27.8664  -30.4272   23.9194 H   0  0  0  0  0  0
  -27.2663  -33.3575   26.2046 H   0  0  0  0  0  0
  -28.3868  -32.6877   25.0304 H   0  0  0  0  0  0
  -28.0715  -31.8409   26.5376 H   0  0  0  0  0  0
  -28.2536  -38.0138   24.7499 H   0  0  0  0  0  0
  -28.1124  -36.2669   24.6218 H   0  0  0  0  0  0
  -27.2284  -37.1396   25.8836 H   0  0  0  0  0  0
  -20.9291  -29.8726   21.6991 H   0  0  0  0  0  0
  -26.0135  -38.2827   24.1443 H   0  0  0  0  0  0
  -27.7126  -22.3171   19.1496 H   0  0  0  0  0  0
  -32.2735  -22.3690   17.2947 H   0  0  0  0  0  0
  -33.0971  -21.3581   18.4696 H   0  0  0  0  0  0
  -32.5805  -22.9771   18.9322 H   0  0  0  0  0  0
  -29.4550  -17.6115   17.8528 H   0  0  0  0  0  0
  -30.3045  -16.3351   18.6907 H   0  0  0  0  0  0
  -31.1843  -17.7317   18.0739 H   0  0  0  0  0  0
  -26.1331  -21.5560   20.5307 H   0  0  0  0  0  0
  -25.0556  -20.2547   20.0860 H   0  0  0  0  0  0
  -25.8978  -21.1216   18.8323 H   0  0  0  0  0  0
  -27.2176  -20.0134   22.1083 H   0  0  0  0  0  0
  -27.8448  -18.4509   21.6792 H   0  0  0  0  0  0
  -26.1372  -18.7334   21.5951 H   0  0  0  0  0  0
  -26.9110  -18.9868   17.8957 H   0  0  0  0  0  0
  -25.8078  -18.2487   19.0391 H   0  0  0  0  0  0
  -27.4531  -17.7126   18.9626 H   0  0  0  0  0  0
  -33.1253  -17.2836   21.3643 H   0  0  0  0  0  0
  -32.8629  -18.5244   20.1517 H   0  0  0  0  0  0
  -32.5350  -16.8607   19.7706 H   0  0  0  0  0  0
  -31.6986  -18.6460   22.9836 H   0  0  0  0  0  0
  -30.1249  -19.2435   22.4852 H   0  0  0  0  0  0
  -31.5879  -19.8384   21.7171 H   0  0  0  0  0  0
  -28.9327  -23.8000   17.5318 H   0  0  0  0  0  0
  -30.6342  -24.0687   17.7785 H   0  0  0  0  0  0
  -30.2429  -24.8631   20.0730 H   0  0  0  0  0  0
  -28.5829  -24.3323   20.0343 H   0  0  0  0  0  0
  -29.7463  -16.8689   22.5799 H   0  0  0  0  0  0
  -31.3653  -16.2595   22.6011 H   0  0  0  0  0  0
  -28.1297  -26.0092   18.1582 H   0  0  0  0  0  0
  -29.7286  -26.6552   18.4524 H   0  0  0  0  0  0
  -29.0803  -17.7654   20.2340 H   0  0  0  0  0  0
  -29.1088  -15.1025   21.5079 H   0  0  0  0  0  0
  1 25  1  0  0  0
  1 30  2  0  0  0
  1 91  1  0  0  0
  2  3  1  0  0  0
  2 25  1  0  0  0
  2 92  1  0  0  0
  2 93  1  0  0  0
  3  4  1  0  0  0
  3 94  1  0  0  0
  3 95  1  0  0  0
  4  5  1  0  0  0
  4 96  1  0  0  0
  4 97  1  0  0  0
  5  6  1  0  0  0
  5 26  1  0  0  0
  5 98  1  0  0  0
  6 25  1  0  0  0
  6 99  1  0  0  0
  6100  1  0  0  0
  7  8  2  0  0  0
  7 26  1  0  0  0
  7 29  1  0  0  0
  8  9  1  0  0  0
  8 22  1  0  0  0
  9 10  1  0  0  0
  9 27  2  0  0  0
 10 11  2  0  0  0
 10 15  1  0  0  0
 11 12  1  0  0  0
 11101  1  0  0  0
 12 13  2  0  0  0
 12102  1  0  0  0
 13 14  1  0  0  0
 13 31  1  0  0  0
 14 15  2  0  0  0
 14103  1  0  0  0
 15104  1  0  0  0
 16 17  2  0  0  0
 16 21  1  0  0  0
 16 31  1  0  0  0
 17 18  1  0  0  0
 17105  1  0  0  0
 18 19  2  0  0  0
 18106  1  0  0  0
 19 20  1  0  0  0
 19 24  1  0  0  0
 20 21  2  0  0  0
 20107  1  0  0  0
 21 23  1  0  0  0
 22 28  1  0  0  0
 22 32  2  0  0  0
 26 27  1  0  0  0
 28108  1  0  0  0
 28109  1  0  0  0
 29110  1  0  0  0
 29111  1  0  0  0
 33 34  1  0  0  0
 33 66  1  0  0  0
 33 70  2  0  0  0
 34 36  1  0  0  0
 34 59  1  0  0  0
 34112  1  0  0  0
 35 44  2  0  0  0
 35 45  1  0  0  0
 35 68  1  0  0  0
 36 56  1  0  0  0
 36113  1  0  0  0
 37 39  1  0  0  0
 37 47  1  0  0  0
 37 66  1  0  0  0
 37114  1  0  0  0
 38 43  2  0  0  0
 38 46  1  0  0  0
 38 47  1  0  0  0
 39 64  1  0  0  0
 39 67  2  0  0  0
 40 52  1  0  0  0
 40 53  2  0  0  0
 40 58  1  0  0  0
 41115  1  0  0  0
 41116  1  0  0  0
 41117  1  0  0  0
 41 48  1  0  0  0
 42 43  1  0  0  0
 42 66  1  0  0  0
 42118  1  0  0  0
 42119  1  0  0  0
 43 44  1  0  0  0
 44120  1  0  0  0
 45 46  2  0  0  0
 45121  1  0  0  0
 46122  1  0  0  0
 47123  1  0  0  0
 47124  1  0  0  0
 48 56  1  0  0  0
 48 65  1  0  0  0
 48125  1  0  0  0
 49 50  1  0  0  0
 49 53  1  0  0  0
 49 64  1  0  0  0
 49126  1  0  0  0
 50 51  1  0  0  0
 50127  1  0  0  0
 50128  1  0  0  0
 51 52  1  0  0  0
 51129  1  0  0  0
 51130  1  0  0  0
 52131  1  0  0  0
 52132  1  0  0  0
 53 54  1  0  0  0
 54 55  2  0  0  0
 54133  1  0  0  0
 55 57  1  0  0  0
 55134  1  0  0  0
 56 69  2  0  0  0
 57 58  2  0  0  0
 57135  1  0  0  0
 58136  1  0  0  0
 59 60  1  0  0  0
 59 61  1  0  0  0
 59 62  1  0  0  0
 60137  1  0  0  0
 60138  1  0  0  0
 60139  1  0  0  0
 61140  1  0  0  0
 61141  1  0  0  0
 61142  1  0  0  0
 62143  1  0  0  0
 62144  1  0  0  0
 62145  1  0  0  0
 63 65  1  0  0  0
 63146  1  0  0  0
 63147  1  0  0  0
 63148  1  0  0  0
 64149  1  0  0  0
 65150  1  0  0  0
 68 86  1  0  0  0
 71 72  2  0  0  0
 71 73  1  0  0  0
 71151  1  0  0  0
 72 74  1  0  0  0
 72 83  1  0  0  0
 73 75  2  0  0  0
 73 88  1  0  0  0
 74 76  1  0  0  0
 74 90  2  0  0  0
 75 87  1  0  0  0
 75 90  1  0  0  0
 76152  1  0  0  0
 76153  1  0  0  0
 76154  1  0  0  0
 77155  1  0  0  0
 77156  1  0  0  0
 77157  1  0  0  0
 77 87  1  0  0  0
 78158  1  0  0  0
 78159  1  0  0  0
 78160  1  0  0  0
 78 88  1  0  0  0
 79 88  1  0  0  0
 79161  1  0  0  0
 79162  1  0  0  0
 79163  1  0  0  0
 80 88  1  0  0  0
 80164  1  0  0  0
 80165  1  0  0  0
 80166  1  0  0  0
 81167  1  0  0  0
 81168  1  0  0  0
 81169  1  0  0  0
 81 89  1  0  0  0
 82 89  1  0  0  0
 82170  1  0  0  0
 82171  1  0  0  0
 82172  1  0  0  0
 83 84  1  0  0  0
 83173  1  0  0  0
 83174  1  0  0  0
 84 86  1  0  0  0
 84175  1  0  0  0
 84176  1  0  0  0
 85 89  1  0  0  0
 85 91  1  0  0  0
 85177  1  0  0  0
 85178  1  0  0  0
 86179  1  0  0  0
 86180  1  0  0  0
 87 89  1  0  0  0
 87181  1  0  0  0
 91182  1  0  0  0
M  ISO  4   1 100  68 101  86 101  91 100
M  END
> <chiral flag>
0

> <version>
0

> <s_m_source_file>
/data/baiqing/PycharmProjects/Reinvent-master-3.2/result/LINK_invent/BTK/process_docking_weight1_custom_sum_contain_oxygen_bond_distance_aromatic_linkinvent_7_9_3/rearranged_h_0086.sdf

> <i_m_source_file_index>
32

> <r_mmod_Potential_Energy-OPLS-2005>
-141.199844360352

> <r_mmod_Stretch_Energy-OPLS-2005>
45.9665031433105

> <r_mmod_Bend_Energy-OPLS-2005>
154.317367553711

> <r_mmod_Torsional_Energy-OPLS-2005>
215.122192382812

> <r_mmod_Improper_Torsional_Energy-OPLS-2005>
3.24979043006897

> <r_mmod_Van_der_Waal_Energy-OPLS-2005>
172.966949462891

> <r_mmod_Electrostatic_Energy-OPLS-2005>
-541.201782226562

> <r_mmod_Solvation_Energy-OPLS-2005>
-204.115005493164

> <b_mmod_Minimization_Converged-OPLS-2005>
0

> <r_mmod_RMS_Derivative-OPLS-2005>
3.40718841552734

$$$$
32
                    3D
 Structure written by MMmdl.
169177  0  0  1  0            999 V2000
  -30.6946  -14.4057   20.5966 C   0  0  0  0  0  0
  -30.4173  -12.2889   19.3771 C   0  0  0  0  0  0
  -29.4915  -12.5385   18.1711 C   0  0  0  0  0  0
  -28.0131  -12.3723   18.5846 C   0  0  0  0  0  0
  -27.6589  -13.1845   19.8577 C   0  0  2  0  0  0
  -28.6960  -12.9336   20.9726 C   0  0  0  0  0  0
  -25.2641  -13.8118   20.5635 C   0  0  0  0  0  0
  -24.1855  -13.0395   20.9151 C   0  0  0  0  0  0
  -24.6393  -11.6868   20.8744 C   0  0  0  0  0  0
  -23.9049  -10.4247   21.0404 C   0  0  0  0  0  0
  -24.3573   -9.4169   21.9198 C   0  0  0  0  0  0
  -23.6254   -8.2206   22.0768 C   0  0  0  0  0  0
  -22.4262   -8.0228   21.3538 C   0  0  0  0  0  0
  -21.9863   -9.0210   20.4649 C   0  0  0  0  0  0
  -22.7205  -10.2097   20.3059 C   0  0  0  0  0  0
  -21.6825   -6.0693   22.5274 C   0  0  0  0  0  0
  -21.4010   -6.5602   23.8197 C   0  0  0  0  0  0
  -21.3680   -5.6778   24.9168 C   0  0  0  0  0  0
  -21.6038   -4.3036   24.7234 C   0  0  0  0  0  0
  -21.8821   -3.8126   23.4352 C   0  0  0  0  0  0
  -21.9190   -4.6934   22.3406 C   0  0  0  0  0  0
  -22.7889  -13.5241   21.1817 C   0  0  0  0  0  0
  -22.1653   -4.2083   21.0987 F   0  0  0  0  0  0
  -21.5628   -3.4525   25.7765 F   0  0  0  0  0  0
  -30.0279  -13.2430   20.4238 N   0  0  0  0  0  0
  -26.2996  -12.9194   20.3216 N   0  0  0  0  0  0
  -25.9303  -11.6397   20.5703 N   0  0  0  0  0  0
  -22.0483  -12.8262   22.0354 N   0  0  0  0  0  0
  -25.4418  -15.1809   20.4093 N   0  0  0  0  0  0
  -31.7840  -14.6488   20.0684 O   0  0  0  0  0  0
  -21.6629   -6.8820   21.4230 O   0  0  0  0  0  0
  -22.3591  -14.5502   20.6584 O   0  0  0  0  0  0
  -24.6142  -31.8654   23.2040 C   0  0  0  0  0  0
  -25.9039  -32.4779   23.8352 C   0  0  1  0  0  0
  -27.2167  -27.4219   20.0573 C   0  0  0  0  0  0
  -25.5869  -33.8590   24.2295 N   0  0  0  0  0  0
  -23.4059  -30.4898   21.5433 C   0  0  2  0  0  0
  -24.8511  -28.9604   20.1085 C   0  0  0  0  0  0
  -22.7429  -29.4658   22.4965 C   0  0  0  0  0  0
  -18.0250  -28.1353   22.8569 C   0  0  0  0  0  0
  -24.1483  -36.7289   23.2636 C   0  0  0  0  0  0
  -25.9391  -30.8259   21.3678 C   0  0  0  0  0  0
  -26.0173  -29.4619   20.7022 C   0  0  0  0  0  0
  -27.2073  -28.6961   20.6757 C   0  0  0  0  0  0
  -26.0304  -26.9362   19.4700 C   0  0  0  0  0  0
  -24.8520  -27.7001   19.4983 C   0  0  0  0  0  0
  -23.6162  -29.8276   20.1573 C   0  0  0  0  0  0
  -25.4113  -36.3088   24.0328 C   0  0  1  0  0  0
  -20.5847  -28.3739   23.1337 C   0  0  2  0  0  0
  -20.6835  -26.9363   22.5699 C   0  0  0  0  0  0
  -19.5792  -26.6134   21.5550 C   0  0  0  0  0  0
  -18.1898  -26.7784   22.1912 C   0  0  0  0  0  0
  -19.1501  -28.8887   23.2791 C   0  0  0  0  0  0
  -18.9480  -30.1617   23.8554 C   0  0  0  0  0  0
  -17.6497  -30.6787   24.0210 C   0  0  0  0  0  0
  -25.9042  -34.9446   23.5112 C   0  0  0  0  0  0
  -16.5350  -29.9183   23.6262 C   0  0  0  0  0  0
  -16.7233  -28.6486   23.0575 C   0  0  0  0  0  0
  -26.4473  -31.6529   25.0666 C   0  0  0  0  0  0
  -25.3770  -31.3602   26.1413 C   0  0  0  0  0  0
  -27.0321  -30.2954   24.6087 C   0  0  0  0  0  0
  -27.6033  -32.4263   25.7442 C   0  0  0  0  0  0
  -27.5592  -37.1786   24.8474 C   0  0  0  0  0  0
  -21.4165  -29.3076   22.3729 N   0  0  0  0  0  0
  -26.4307  -37.3760   23.9407 N   0  0  0  0  0  0
  -24.6686  -31.0782   22.0935 N   0  0  0  0  0  0
  -23.4169  -28.8180   23.3019 O   0  0  0  0  0  0
  -28.3656  -26.6582   20.0287 O   0  0  0  0  0  0
  -26.5621  -34.8920   22.4672 O   0  0  0  0  0  0
  -23.5342  -32.1415   23.7415 O   0  0  0  0  0  0
  -29.2681  -19.5289   18.8016 C   0  0  0  0  0  0
  -28.6482  -20.9385   21.0232 C   0  0  0  0  0  0
  -28.8714  -21.6045   19.7858 C   0  0  0  0  0  0
  -29.2606  -18.8961   20.0812 C   0  0  0  0  0  0
  -29.5127  -18.7716   17.5105 C   0  0  0  0  0  0
  -26.7801  -21.8449   22.5192 C   0  0  0  0  0  0
  -31.2880  -17.8835   21.1760 C   0  0  0  0  0  0
  -28.4737  -16.7822   22.3442 C   0  0  0  0  0  0
  -28.2935  -21.6528   22.3155 C   0  0  0  0  0  0
  -29.1777  -23.1160   19.6922 C   0  0  0  0  0  0
  -28.0088  -24.1384   19.6915 C   0  0  0  0  0  0
  -28.2356  -25.3574   20.6414 C   0  0  0  0  0  0
  -30.0080  -17.5655   20.3747 C   0  0  2  0  0  0
  -29.2299  -16.3872   21.0660 C   0  0  2  0  0  0
  -29.0823  -20.8731   18.6601 N   0  0  0  0  0  0
  -28.8477  -19.6015   21.1629 N   0  0  0  0  0  0
  -30.1393  -15.2810   21.4423 N   0  0  0  0  0  0
  -31.4614  -12.3927   19.0780 H   0  0  0  0  0  0
  -30.3083  -11.2675   19.7352 H   0  0  0  0  0  0
  -29.7314  -11.8512   17.3545 H   0  0  0  0  0  0
  -29.6597  -13.5463   17.7850 H   0  0  0  0  0  0
  -27.8320  -11.3105   18.7591 H   0  0  0  0  0  0
  -27.3628  -12.6739   17.7591 H   0  0  0  0  0  0
  -27.6980  -14.2308   19.5734 H   0  0  0  0  0  0
  -28.6817  -11.8931   21.3013 H   0  0  0  0  0  0
  -28.4591  -13.5183   21.8591 H   0  0  0  0  0  0
  -25.2684   -9.5640   22.4786 H   0  0  0  0  0  0
  -23.9924   -7.4609   22.7511 H   0  0  0  0  0  0
  -21.0753   -8.8772   19.8965 H   0  0  0  0  0  0
  -22.3664  -10.9643   19.6181 H   0  0  0  0  0  0
  -21.2003   -7.6108   23.9680 H   0  0  0  0  0  0
  -21.1502   -6.0506   25.9059 H   0  0  0  0  0  0
  -22.0596   -2.7566   23.2898 H   0  0  0  0  0  0
  -22.4052  -11.9925   22.4745 H   0  0  0  0  0  0
  -21.1115  -13.1378   22.2483 H   0  0  0  0  0  0
  -24.6891  -15.8487   20.5276 H   0  0  0  0  0  0
  -26.2974  -15.6113   20.0844 H   0  0  0  0  0  0
  -26.7133  -32.5496   23.1143 H   0  0  0  0  0  0
  -24.9945  -33.9745   25.0384 H   0  0  0  0  0  0
  -22.6951  -31.3096   21.4042 H   0  0  0  0  0  0
  -23.3755  -35.9614   23.3327 H   0  0  0  0  0  0
  -24.3547  -36.8894   22.2052 H   0  0  0  0  0  0
  -23.7292  -37.6505   23.6656 H   0  0  0  0  0  0
  -26.0782  -31.6020   20.6150 H   0  0  0  0  0  0
  -26.8090  -30.8567   22.0100 H   0  0  0  0  0  0
  -28.1138  -29.0645   21.1377 H   0  0  0  0  0  0
  -25.9859  -25.9757   18.9791 H   0  0  0  0  0  0
  -23.9513  -27.3122   19.0468 H   0  0  0  0  0  0
  -23.7304  -30.5933   19.3867 H   0  0  0  0  0  0
  -22.7352  -29.2579   19.8647 H   0  0  0  0  0  0
  -25.1318  -36.1932   25.0833 H   0  0  0  0  0  0
  -20.9761  -28.3512   24.1536 H   0  0  0  0  0  0
  -20.5868  -26.2367   23.3985 H   0  0  0  0  0  0
  -21.6765  -26.7403   22.1577 H   0  0  0  0  0  0
  -19.6971  -25.5871   21.2015 H   0  0  0  0  0  0
  -19.6766  -27.2685   20.6896 H   0  0  0  0  0  0
  -17.4193  -26.6241   21.4290 H   0  0  0  0  0  0
  -18.0336  -26.0085   22.9451 H   0  0  0  0  0  0
  -19.8047  -30.7553   24.1593 H   0  0  0  0  0  0
  -17.5058  -31.6655   24.4413 H   0  0  0  0  0  0
  -15.5358  -30.3131   23.7573 H   0  0  0  0  0  0
  -15.8556  -28.0713   22.7654 H   0  0  0  0  0  0
  -24.5936  -30.6975   25.7725 H   0  0  0  0  0  0
  -24.8961  -32.2743   26.4903 H   0  0  0  0  0  0
  -25.8097  -30.8720   27.0162 H   0  0  0  0  0  0
  -26.2855  -29.6680   24.1192 H   0  0  0  0  0  0
  -27.4146  -29.7224   25.4560 H   0  0  0  0  0  0
  -27.8686  -30.4246   23.9206 H   0  0  0  0  0  0
  -27.2614  -33.3546   26.2043 H   0  0  0  0  0  0
  -28.3789  -32.6862   25.0221 H   0  0  0  0  0  0
  -28.0761  -31.8388   26.5333 H   0  0  0  0  0  0
  -28.2603  -38.0078   24.7498 H   0  0  0  0  0  0
  -28.1098  -36.2621   24.6336 H   0  0  0  0  0  0
  -27.2283  -37.1468   25.8858 H   0  0  0  0  0  0
  -20.9408  -29.8792   21.6881 H   0  0  0  0  0  0
  -26.0206  -38.2833   24.1380 H   0  0  0  0  0  0
  -28.8834  -19.1780   16.7178 H   0  0  0  0  0  0
  -29.2202  -17.7258   17.5916 H   0  0  0  0  0  0
  -30.5587  -18.8261   17.1939 H   0  0  0  0  0  0
  -26.6102  -22.3011   23.4938 H   0  0  0  0  0  0
  -26.2590  -20.8831   22.4949 H   0  0  0  0  0  0
  -26.3060  -22.4899   21.7802 H   0  0  0  0  0  0
  -31.9663  -17.0379   21.2545 H   0  0  0  0  0  0
  -31.8651  -18.6755   20.7080 H   0  0  0  0  0  0
  -31.0196  -18.2047   22.1842 H   0  0  0  0  0  0
  -27.6137  -17.4029   22.1036 H   0  0  0  0  0  0
  -29.1097  -17.3321   23.0483 H   0  0  0  0  0  0
  -28.1020  -15.9081   22.8747 H   0  0  0  0  0  0
  -28.8335  -22.5983   22.3817 H   0  0  0  0  0  0
  -28.6477  -21.0367   23.1402 H   0  0  0  0  0  0
  -29.8880  -23.3407   20.4868 H   0  0  0  0  0  0
  -29.7669  -23.2921   18.7922 H   0  0  0  0  0  0
  -27.0897  -23.6379   19.9999 H   0  0  0  0  0  0
  -27.8143  -24.4662   18.6715 H   0  0  0  0  0  0
  -29.1227  -25.1963   21.2578 H   0  0  0  0  0  0
  -27.4155  -25.3902   21.3595 H   0  0  0  0  0  0
  -30.3523  -17.1838   19.4095 H   0  0  0  0  0  0
  -28.4809  -16.0279   20.3596 H   0  0  0  0  0  0
  -30.8631  -15.6476   22.0379 H   0  0  0  0  0  0
  1 25  1  0  0  0
  1 30  2  0  0  0
  1 87  1  0  0  0
  2  3  1  0  0  0
  2 25  1  0  0  0
  2 88  1  0  0  0
  2 89  1  0  0  0
  3  4  1  0  0  0
  3 90  1  0  0  0
  3 91  1  0  0  0
  4  5  1  0  0  0
  4 92  1  0  0  0
  4 93  1  0  0  0
  5  6  1  0  0  0
  5 26  1  0  0  0
  5 94  1  0  0  0
  6 25  1  0  0  0
  6 95  1  0  0  0
  6 96  1  0  0  0
  7  8  2  0  0  0
  7 26  1  0  0  0
  7 29  1  0  0  0
  8  9  1  0  0  0
  8 22  1  0  0  0
  9 10  1  0  0  0
  9 27  2  0  0  0
 10 11  2  0  0  0
 10 15  1  0  0  0
 11 12  1  0  0  0
 11 97  1  0  0  0
 12 13  2  0  0  0
 12 98  1  0  0  0
 13 14  1  0  0  0
 13 31  1  0  0  0
 14 15  2  0  0  0
 14 99  1  0  0  0
 15100  1  0  0  0
 16 17  2  0  0  0
 16 21  1  0  0  0
 16 31  1  0  0  0
 17 18  1  0  0  0
 17101  1  0  0  0
 18 19  2  0  0  0
 18102  1  0  0  0
 19 20  1  0  0  0
 19 24  1  0  0  0
 20 21  2  0  0  0
 20103  1  0  0  0
 21 23  1  0  0  0
 22 28  1  0  0  0
 22 32  2  0  0  0
 26 27  1  0  0  0
 28104  1  0  0  0
 28105  1  0  0  0
 29106  1  0  0  0
 29107  1  0  0  0
 33 34  1  0  0  0
 33 66  1  0  0  0
 33 70  2  0  0  0
 34 36  1  0  0  0
 34 59  1  0  0  0
 34108  1  0  0  0
 35 44  2  0  0  0
 35 45  1  0  0  0
 35 68  1  0  0  0
 36 56  1  0  0  0
 36109  1  0  0  0
 37 39  1  0  0  0
 37 47  1  0  0  0
 37 66  1  0  0  0
 37110  1  0  0  0
 38 43  2  0  0  0
 38 46  1  0  0  0
 38 47  1  0  0  0
 39 64  1  0  0  0
 39 67  2  0  0  0
 40 52  1  0  0  0
 40 53  2  0  0  0
 40 58  1  0  0  0
 41111  1  0  0  0
 41112  1  0  0  0
 41113  1  0  0  0
 41 48  1  0  0  0
 42 43  1  0  0  0
 42 66  1  0  0  0
 42114  1  0  0  0
 42115  1  0  0  0
 43 44  1  0  0  0
 44116  1  0  0  0
 45 46  2  0  0  0
 45117  1  0  0  0
 46118  1  0  0  0
 47119  1  0  0  0
 47120  1  0  0  0
 48 56  1  0  0  0
 48 65  1  0  0  0
 48121  1  0  0  0
 49 50  1  0  0  0
 49 53  1  0  0  0
 49 64  1  0  0  0
 49122  1  0  0  0
 50 51  1  0  0  0
 50123  1  0  0  0
 50124  1  0  0  0
 51 52  1  0  0  0
 51125  1  0  0  0
 51126  1  0  0  0
 52127  1  0  0  0
 52128  1  0  0  0
 53 54  1  0  0  0
 54 55  2  0  0  0
 54129  1  0  0  0
 55 57  1  0  0  0
 55130  1  0  0  0
 56 69  2  0  0  0
 57 58  2  0  0  0
 57131  1  0  0  0
 58132  1  0  0  0
 59 60  1  0  0  0
 59 61  1  0  0  0
 59 62  1  0  0  0
 60133  1  0  0  0
 60134  1  0  0  0
 60135  1  0  0  0
 61136  1  0  0  0
 61137  1  0  0  0
 61138  1  0  0  0
 62139  1  0  0  0
 62140  1  0  0  0
 62141  1  0  0  0
 63 65  1  0  0  0
 63142  1  0  0  0
 63143  1  0  0  0
 63144  1  0  0  0
 64145  1  0  0  0
 65146  1  0  0  0
 68 82  1  0  0  0
 71 74  2  0  0  0
 71 75  1  0  0  0
 71 85  1  0  0  0
 72 73  1  0  0  0
 72 79  1  0  0  0
 72 86  2  0  0  0
 73 80  1  0  0  0
 73 85  2  0  0  0
 74 83  1  0  0  0
 74 86  1  0  0  0
 75147  1  0  0  0
 75148  1  0  0  0
 75149  1  0  0  0
 76 79  1  0  0  0
 76150  1  0  0  0
 76151  1  0  0  0
 76152  1  0  0  0
 77153  1  0  0  0
 77154  1  0  0  0
 77155  1  0  0  0
 77 83  1  0  0  0
 78156  1  0  0  0
 78157  1  0  0  0
 78158  1  0  0  0
 78 84  1  0  0  0
 79159  1  0  0  0
 79160  1  0  0  0
 80 81  1  0  0  0
 80161  1  0  0  0
 80162  1  0  0  0
 81 82  1  0  0  0
 81163  1  0  0  0
 81164  1  0  0  0
 82165  1  0  0  0
 82166  1  0  0  0
 83 84  1  0  0  0
 83167  1  0  0  0
 84 87  1  0  0  0
 84168  1  0  0  0
 87169  1  0  0  0
M  ISO  4   1 100  68 101  82 101  87 100
M  END
> <chiral flag>
0

> <version>
0

> <s_m_source_file>
/data/baiqing/PycharmProjects/Reinvent-master-3.2/result/LINK_invent/BTK/process_docking_weight1_custom_sum_contain_oxygen_bond_distance_aromatic_linkinvent_7_9_3/rearranged_h_0086.sdf

> <i_m_source_file_index>
33

> <r_mmod_Potential_Energy-OPLS-2005>
84.8292922973633

> <r_mmod_Stretch_Energy-OPLS-2005>
46.8561096191406

> <r_mmod_Bend_Energy-OPLS-2005>
128.74609375

> <r_mmod_Torsional_Energy-OPLS-2005>
314.403930664062

> <r_mmod_Improper_Torsional_Energy-OPLS-2005>
10.5535049438477

> <r_mmod_Van_der_Waal_Energy-OPLS-2005>
156.490936279297

> <r_mmod_Electrostatic_Energy-OPLS-2005>
-383.700347900391

> <r_mmod_Solvation_Energy-OPLS-2005>
-201.066207885742

> <b_mmod_Minimization_Converged-OPLS-2005>
0

> <r_mmod_RMS_Derivative-OPLS-2005>
11.5246534347534

$$$$
33
                    3D
 Structure written by MMmdl.
170178  0  0  1  0            999 V2000
  -29.3300  -14.9079   21.2277 C   0  0  0  0  0  0
  -30.2655  -12.9046   19.7434 C   0  0  0  0  0  0
  -29.3823  -12.8941   18.4027 C   0  0  0  0  0  0
  -28.0056  -12.2701   18.6373 C   0  0  0  0  0  0
  -27.4835  -12.9954   19.8842 C   0  0  2  0  0  0
  -28.3177  -12.7059   21.1198 C   0  0  0  0  0  0
  -25.0991  -13.5498   20.3181 C   0  0  0  0  0  0
  -24.0266  -12.9465   21.0160 C   0  0  0  0  0  0
  -24.5891  -11.5636   21.1017 C   0  0  0  0  0  0
  -23.7340  -10.4266   21.1844 C   0  0  0  0  0  0
  -24.1044   -9.5160   22.2069 C   0  0  0  0  0  0
  -23.4486   -8.3093   22.3083 C   0  0  0  0  0  0
  -22.3553   -8.0199   21.4252 C   0  0  0  0  0  0
  -21.9538   -8.9635   20.4138 C   0  0  0  0  0  0
  -22.6643  -10.1746   20.3139 C   0  0  0  0  0  0
  -21.6713   -6.0587   22.5370 C   0  0  0  0  0  0
  -21.3805   -6.5686   23.8205 C   0  0  0  0  0  0
  -21.3939   -5.6873   24.9255 C   0  0  0  0  0  0
  -21.6135   -4.3067   24.7147 C   0  0  0  0  0  0
  -21.8853   -3.8153   23.4251 C   0  0  0  0  0  0
  -21.8972   -4.7035   22.3299 C   0  0  0  0  0  0
  -22.5509  -13.2689   20.8293 C   0  0  0  0  0  0
  -22.1629   -4.2593   21.0789 F   0  0  0  0  0  0
  -21.5625   -3.4556   25.7453 F   0  0  0  0  0  0
  -29.4205  -13.5733   20.8245 N   0  0  0  0  0  0
  -26.1594  -12.6675   20.2865 N   0  0  0  0  0  0
  -25.8875  -11.4007   20.6548 N   0  0  0  0  0  0
  -22.4151  -14.5133   20.3695 N   0  0  0  0  0  0
  -25.1983  -14.4942   19.3205 N   0  0  0  0  0  0
  -30.5073  -15.3523   20.9760 O   0  0  0  0  0  0
  -21.6765   -6.8699   21.4068 O   0  0  0  0  0  0
  -21.7495  -13.4218   21.7133 O   0  0  0  0  0  0
  -24.6475  -31.8378   23.2394 C   0  0  0  0  0  0
  -25.9352  -32.4611   23.8557 C   0  0  1  0  0  0
  -26.4406  -26.8363   20.4382 C   0  0  0  0  0  0
  -25.6165  -33.8537   24.2363 N   0  0  0  0  0  0
  -23.4244  -30.5384   21.5760 C   0  0  2  0  0  0
  -24.7728  -29.0562   19.9985 C   0  0  0  0  0  0
  -22.7488  -29.4676   22.4685 C   0  0  0  0  0  0
  -18.0290  -28.1416   22.8440 C   0  0  0  0  0  0
  -24.1417  -36.7047   23.2658 C   0  0  0  0  0  0
  -25.9927  -30.6067   21.5196 C   0  0  0  0  0  0
  -25.8911  -29.2500   20.7962 C   0  0  0  0  0  0
  -26.7953  -28.1355   21.0025 C   0  0  0  0  0  0
  -25.5416  -26.8305   19.3828 C   0  0  0  0  0  0
  -24.6778  -27.9165   19.2013 C   0  0  0  0  0  0
  -23.6310  -30.0317   20.1326 C   0  0  0  0  0  0
  -25.4106  -36.3007   24.0328 C   0  0  1  0  0  0
  -20.5900  -28.3710   23.1156 C   0  0  2  0  0  0
  -20.6798  -26.9393   22.5379 C   0  0  0  0  0  0
  -19.5758  -26.6322   21.5224 C   0  0  0  0  0  0
  -18.1947  -26.7941   22.1620 C   0  0  0  0  0  0
  -19.1565  -28.8884   23.2791 C   0  0  0  0  0  0
  -18.9511  -30.1507   23.8794 C   0  0  0  0  0  0
  -17.6538  -30.6620   24.0556 C   0  0  0  0  0  0
  -25.9136  -34.9403   23.5122 C   0  0  0  0  0  0
  -16.5403  -29.9109   23.6400 C   0  0  0  0  0  0
  -16.7299  -28.6527   23.0387 C   0  0  0  0  0  0
  -26.4560  -31.6711   25.1185 C   0  0  0  0  0  0
  -25.3672  -31.4123   26.1866 C   0  0  0  0  0  0
  -27.0529  -30.2950   24.7463 C   0  0  0  0  0  0
  -27.6063  -32.4660   25.7845 C   0  0  0  0  0  0
  -27.5571  -37.1669   24.8473 C   0  0  0  0  0  0
  -21.4234  -29.3032   22.3442 N   0  0  0  0  0  0
  -26.4209  -37.3776   23.9551 N   0  0  0  0  0  0
  -24.7077  -31.0336   22.1423 N   0  0  0  0  0  0
  -23.4188  -28.8082   23.2741 O   0  0  0  0  0  0
  -26.7339  -25.4987   20.8989 O   0  0  0  0  0  0
  -26.5710  -34.8821   22.4683 O   0  0  0  0  0  0
  -23.5637  -32.1609   23.7456 O   0  0  0  0  0  0
  -22.9160  -19.5328   20.5080 C   0  0  0  0  0  0
  -23.7040  -20.7802   20.5824 C   0  0  0  0  0  0
  -23.5193  -21.7792   21.6463 C   0  0  0  0  0  0
  -22.8098  -20.9703   22.6944 C   0  0  0  0  0  0
  -23.1611  -19.4722   22.7085 C   0  0  0  0  0  0
  -20.0610  -22.1688   22.5558 C   0  0  0  0  0  0
  -24.1291  -20.6618   18.1842 C   0  0  0  0  0  0
  -25.8724  -20.0239   19.9008 C   0  0  0  0  0  0
  -24.0709  -23.4198   21.5529 C   0  0  0  0  0  0
  -21.1786  -21.1303   23.0312 C   0  0  0  0  0  0
  -24.1532  -18.3635   23.5994 C   0  0  0  0  0  0
  -25.2527  -16.8380   23.3371 C   0  0  0  0  0  0
  -26.8362  -15.8654   22.8137 C   0  0  0  0  0  0
  -25.6773  -24.2625   21.4951 C   0  0  0  0  0  0
  -24.7073  -20.9301   19.5381 C   0  0  0  0  0  0
  -22.7497  -18.7965   21.6289 N   0  0  0  0  0  0
  -28.0303  -15.6293   21.6410 N   0  0  0  0  0  0
  -31.2205  -13.5080   19.5870 H   0  0  0  0  0  0
  -30.4842  -11.8401   20.0203 H   0  0  0  0  0  0
  -29.9223  -12.4073   17.5810 H   0  0  0  0  0  0
  -29.1817  -13.9661   18.1505 H   0  0  0  0  0  0
  -28.1483  -11.2175   18.8612 H   0  0  0  0  0  0
  -27.3209  -12.3360   17.7852 H   0  0  0  0  0  0
  -27.5263  -14.0832   19.6972 H   0  0  0  0  0  0
  -28.5196  -11.6385   21.0489 H   0  0  0  0  0  0
  -27.7621  -12.8152   22.0928 H   0  0  0  0  0  0
  -24.8163   -9.9202   22.9308 H   0  0  0  0  0  0
  -23.7533   -7.7248   23.1506 H   0  0  0  0  0  0
  -21.1708   -8.7674   19.7251 H   0  0  0  0  0  0
  -22.4260  -10.9353   19.5458 H   0  0  0  0  0  0
  -21.1856   -7.6328   24.0100 H   0  0  0  0  0  0
  -21.1745   -6.0411   25.9352 H   0  0  0  0  0  0
  -22.0132   -2.7716   23.2395 H   0  0  0  0  0  0
  -23.2124  -14.5077   19.8955 H   0  0  0  0  0  0
  -21.4348  -14.8966   19.8893 H   0  0  0  0  0  0
  -26.0119  -14.0955   18.9893 H   0  0  0  0  0  0
  -24.7027  -14.0388   18.6518 H   0  0  0  0  0  0
  -26.7355  -32.4846   23.1181 H   0  0  0  0  0  0
  -25.0331  -33.9700   25.0497 H   0  0  0  0  0  0
  -22.7215  -31.3784   21.5202 H   0  0  0  0  0  0
  -23.3889  -35.9165   23.3276 H   0  0  0  0  0  0
  -24.3452  -36.8756   22.2086 H   0  0  0  0  0  0
  -23.6911  -37.6062   23.6757 H   0  0  0  0  0  0
  -26.3692  -31.3789   20.8406 H   0  0  0  0  0  0
  -26.7682  -30.4500   22.2643 H   0  0  0  0  0  0
  -27.5762  -28.1718   21.7479 H   0  0  0  0  0  0
  -25.3071  -25.9337   18.8043 H   0  0  0  0  0  0
  -23.8460  -27.8469   18.5060 H   0  0  0  0  0  0
  -23.8741  -30.8905   19.5151 H   0  0  0  0  0  0
  -22.7094  -29.6403   19.7227 H   0  0  0  0  0  0
  -25.1283  -36.1803   25.0807 H   0  0  0  0  0  0
  -21.0048  -28.3398   24.1256 H   0  0  0  0  0  0
  -20.5750  -26.2359   23.3629 H   0  0  0  0  0  0
  -21.6670  -26.7444   22.1164 H   0  0  0  0  0  0
  -19.6936  -25.6210   21.1336 H   0  0  0  0  0  0
  -19.6728  -27.3051   20.6695 H   0  0  0  0  0  0
  -17.4222  -26.6664   21.4026 H   0  0  0  0  0  0
  -18.0339  -26.0115   22.9039 H   0  0  0  0  0  0
  -19.8008  -30.7336   24.2093 H   0  0  0  0  0  0
  -17.5106  -31.6285   24.5176 H   0  0  0  0  0  0
  -15.5409  -30.2995   23.7830 H   0  0  0  0  0  0
  -15.8673  -28.0844   22.7192 H   0  0  0  0  0  0
  -24.5768  -30.7540   25.8261 H   0  0  0  0  0  0
  -24.8910  -32.3362   26.5152 H   0  0  0  0  0  0
  -25.7783  -30.9380   27.0786 H   0  0  0  0  0  0
  -26.3047  -29.6200   24.3268 H   0  0  0  0  0  0
  -27.4455  -29.7989   25.6371 H   0  0  0  0  0  0
  -27.8959  -30.3854   24.0643 H   0  0  0  0  0  0
  -27.2581  -33.3941   26.2428 H   0  0  0  0  0  0
  -28.3741  -32.7364   25.0588 H   0  0  0  0  0  0
  -28.0970  -31.8978   26.5766 H   0  0  0  0  0  0
  -28.2522  -38.0035   24.7799 H   0  0  0  0  0  0
  -28.1138  -36.2635   24.5986 H   0  0  0  0  0  0
  -27.2339  -37.0917   25.8852 H   0  0  0  0  0  0
  -20.9406  -29.8736   21.6603 H   0  0  0  0  0  0
  -26.0067  -38.2755   24.1825 H   0  0  0  0  0  0
  -21.8628  -19.7706   20.5603 H   0  0  0  0  0  0
  -19.0687  -21.8219   22.9060 H   0  0  0  0  0  0
  -19.7655  -22.1934   21.5040 H   0  0  0  0  0  0
  -20.0759  -23.2071   22.9318 H   0  0  0  0  0  0
  -23.1455  -21.1022   18.0548 H   0  0  0  0  0  0
  -23.8848  -19.6284   17.9402 H   0  0  0  0  0  0
  -24.9115  -21.1433   17.5929 H   0  0  0  0  0  0
  -26.4485  -20.7480   20.5059 H   0  0  0  0  0  0
  -26.3214  -19.6364   19.0111 H   0  0  0  0  0  0
  -25.6960  -19.0391   20.3478 H   0  0  0  0  0  0
  -23.5329  -23.9184   22.3563 H   0  0  0  0  0  0
  -23.4457  -23.6801   20.7030 H   0  0  0  0  0  0
  -21.0781  -21.3575   24.1226 H   0  0  0  0  0  0
  -20.5919  -20.2514   22.6940 H   0  0  0  0  0  0
  -23.2193  -17.7734   23.8832 H   0  0  0  0  0  0
  -24.1963  -18.6629   24.6668 H   0  0  0  0  0  0
  -24.5057  -15.9724   23.2852 H   0  0  0  0  0  0
  -25.4193  -16.8450   24.4468 H   0  0  0  0  0  0
  -26.2197  -14.9778   22.4612 H   0  0  0  0  0  0
  -27.1874  -15.5657   23.8849 H   0  0  0  0  0  0
  -26.0421  -23.3754   20.9921 H   0  0  0  0  0  0
  -25.8721  -24.1804   22.5773 H   0  0  0  0  0  0
  -25.0677  -21.9402   19.5633 H   0  0  0  0  0  0
  -27.6700  -15.9637   20.7210 H   0  0  0  0  0  0
  1 25  1  0  0  0
  1 30  2  0  0  0
  1 87  1  0  0  0
  2  3  1  0  0  0
  2 25  1  0  0  0
  2 88  1  0  0  0
  2 89  1  0  0  0
  3  4  1  0  0  0
  3 90  1  0  0  0
  3 91  1  0  0  0
  4  5  1  0  0  0
  4 92  1  0  0  0
  4 93  1  0  0  0
  5  6  1  0  0  0
  5 26  1  0  0  0
  5 94  1  0  0  0
  6 25  1  0  0  0
  6 95  1  0  0  0
  6 96  1  0  0  0
  7  8  2  0  0  0
  7 26  1  0  0  0
  7 29  1  0  0  0
  8  9  1  0  0  0
  8 22  1  0  0  0
  9 10  1  0  0  0
  9 27  2  0  0  0
 10 11  2  0  0  0
 10 15  1  0  0  0
 11 12  1  0  0  0
 11 97  1  0  0  0
 12 13  2  0  0  0
 12 98  1  0  0  0
 13 14  1  0  0  0
 13 31  1  0  0  0
 14 15  2  0  0  0
 14 99  1  0  0  0
 15100  1  0  0  0
 16 17  2  0  0  0
 16 21  1  0  0  0
 16 31  1  0  0  0
 17 18  1  0  0  0
 17101  1  0  0  0
 18 19  2  0  0  0
 18102  1  0  0  0
 19 20  1  0  0  0
 19 24  1  0  0  0
 20 21  2  0  0  0
 20103  1  0  0  0
 21 23  1  0  0  0
 22 28  1  0  0  0
 22 32  2  0  0  0
 26 27  1  0  0  0
 28104  1  0  0  0
 28105  1  0  0  0
 29106  1  0  0  0
 29107  1  0  0  0
 33 34  1  0  0  0
 33 66  1  0  0  0
 33 70  2  0  0  0
 34 36  1  0  0  0
 34 59  1  0  0  0
 34108  1  0  0  0
 35 44  2  0  0  0
 35 45  1  0  0  0
 35 68  1  0  0  0
 36 56  1  0  0  0
 36109  1  0  0  0
 37 39  1  0  0  0
 37 47  1  0  0  0
 37 66  1  0  0  0
 37110  1  0  0  0
 38 43  2  0  0  0
 38 46  1  0  0  0
 38 47  1  0  0  0
 39 64  1  0  0  0
 39 67  2  0  0  0
 40 52  1  0  0  0
 40 53  2  0  0  0
 40 58  1  0  0  0
 41111  1  0  0  0
 41112  1  0  0  0
 41113  1  0  0  0
 41 48  1  0  0  0
 42 43  1  0  0  0
 42 66  1  0  0  0
 42114  1  0  0  0
 42115  1  0  0  0
 43 44  1  0  0  0
 44116  1  0  0  0
 45 46  2  0  0  0
 45117  1  0  0  0
 46118  1  0  0  0
 47119  1  0  0  0
 47120  1  0  0  0
 48 56  1  0  0  0
 48 65  1  0  0  0
 48121  1  0  0  0
 49 50  1  0  0  0
 49 53  1  0  0  0
 49 64  1  0  0  0
 49122  1  0  0  0
 50 51  1  0  0  0
 50123  1  0  0  0
 50124  1  0  0  0
 51 52  1  0  0  0
 51125  1  0  0  0
 51126  1  0  0  0
 52127  1  0  0  0
 52128  1  0  0  0
 53 54  1  0  0  0
 54 55  2  0  0  0
 54129  1  0  0  0
 55 57  1  0  0  0
 55130  1  0  0  0
 56 69  2  0  0  0
 57 58  2  0  0  0
 57131  1  0  0  0
 58132  1  0  0  0
 59 60  1  0  0  0
 59 61  1  0  0  0
 59 62  1  0  0  0
 60133  1  0  0  0
 60134  1  0  0  0
 60135  1  0  0  0
 61136  1  0  0  0
 61137  1  0  0  0
 61138  1  0  0  0
 62139  1  0  0  0
 62140  1  0  0  0
 62141  1  0  0  0
 63 65  1  0  0  0
 63142  1  0  0  0
 63143  1  0  0  0
 63144  1  0  0  0
 64145  1  0  0  0
 65146  1  0  0  0
 68 84  1  0  0  0
 71 72  2  0  0  0
 71 86  1  0  0  0
 71147  1  0  0  0
 72 73  1  0  0  0
 72 85  1  0  0  0
 73 74  2  0  0  0
 73 79  1  0  0  0
 74 75  1  0  0  0
 74 80  1  0  0  0
 75 81  1  0  0  0
 75 86  2  0  0  0
 76 80  1  0  0  0
 76148  1  0  0  0
 76149  1  0  0  0
 76150  1  0  0  0
 77151  1  0  0  0
 77152  1  0  0  0
 77153  1  0  0  0
 77 85  1  0  0  0
 78 85  1  0  0  0
 78154  1  0  0  0
 78155  1  0  0  0
 78156  1  0  0  0
 79 84  1  0  0  0
 79157  1  0  0  0
 79158  1  0  0  0
 80159  1  0  0  0
 80160  1  0  0  0
 81 82  1  0  0  0
 81161  1  0  0  0
 81162  1  0  0  0
 82 83  1  0  0  0
 82163  1  0  0  0
 82164  1  0  0  0
 83 87  1  0  0  0
 83165  1  0  0  0
 83166  1  0  0  0
 84167  1  0  0  0
 84168  1  0  0  0
 85169  1  0  0  0
 87170  1  0  0  0
M  ISO  4   1 100  68 101  84 101  87 100
M  END
> <chiral flag>
0

> <version>
0

> <s_m_source_file>
/data/baiqing/PycharmProjects/Reinvent-master-3.2/result/LINK_invent/BTK/process_docking_weight1_custom_sum_contain_oxygen_bond_distance_aromatic_linkinvent_7_9_3/rearranged_h_0086.sdf

> <i_m_source_file_index>
34

> <r_mmod_Potential_Energy-OPLS-2005>
5768.02392578125

> <r_mmod_Stretch_Energy-OPLS-2005>
1212.22583007812

> <r_mmod_Bend_Energy-OPLS-2005>
1476.07995605469

> <r_mmod_Torsional_Energy-OPLS-2005>
847.694396972656

> <r_mmod_Improper_Torsional_Energy-OPLS-2005>
125.086433410645

> <r_mmod_Van_der_Waal_Energy-OPLS-2005>
216.999496459961

> <r_mmod_Electrostatic_Energy-OPLS-2005>
-515.110961914062

> <r_mmod_Solvation_Energy-OPLS-2005>
-245.769165039062

> <b_mmod_Minimization_Converged-OPLS-2005>
0

> <r_mmod_RMS_Derivative-OPLS-2005>
99.9990005493164

$$$$
34
                    3D
 Structure written by MMmdl.
178186  0  0  1  0            999 V2000
  -30.6726  -14.5570   20.5173 C   0  0  0  0  0  0
  -30.4261  -12.3399   19.4511 C   0  0  0  0  0  0
  -29.5038  -12.5005   18.2224 C   0  0  0  0  0  0
  -28.0233  -12.3561   18.6286 C   0  0  0  0  0  0
  -27.6577  -13.2145   19.8690 C   0  0  2  0  0  0
  -28.6998  -13.0501   21.0002 C   0  0  0  0  0  0
  -25.2573  -13.8168   20.5689 C   0  0  0  0  0  0
  -24.1825  -13.0447   20.9158 C   0  0  0  0  0  0
  -24.6383  -11.6913   20.8715 C   0  0  0  0  0  0
  -23.9051  -10.4296   21.0394 C   0  0  0  0  0  0
  -24.3611   -9.4207   21.9171 C   0  0  0  0  0  0
  -23.6284   -8.2250   22.0755 C   0  0  0  0  0  0
  -22.4260   -8.0290   21.3551 C   0  0  0  0  0  0
  -21.9895   -9.0261   20.4651 C   0  0  0  0  0  0
  -22.7232  -10.2134   20.3045 C   0  0  0  0  0  0
  -21.6848   -6.0723   22.5273 C   0  0  0  0  0  0
  -21.4028   -6.5630   23.8208 C   0  0  0  0  0  0
  -21.3663   -5.6792   24.9170 C   0  0  0  0  0  0
  -21.6043   -4.3050   24.7227 C   0  0  0  0  0  0
  -21.8818   -3.8134   23.4350 C   0  0  0  0  0  0
  -21.9199   -4.6951   22.3405 C   0  0  0  0  0  0
  -22.7852  -13.5249   21.1836 C   0  0  0  0  0  0
  -22.1660   -4.2139   21.0976 F   0  0  0  0  0  0
  -21.5635   -3.4532   25.7734 F   0  0  0  0  0  0
  -30.0242  -13.3575   20.4398 N   0  0  0  0  0  0
  -26.3004  -12.9353   20.3336 N   0  0  0  0  0  0
  -25.9307  -11.6504   20.5724 N   0  0  0  0  0  0
  -22.0497  -12.8253   22.0394 N   0  0  0  0  0  0
  -25.4281  -15.1890   20.4113 N   0  0  0  0  0  0
  -31.8241  -14.7040   20.1008 O   0  0  0  0  0  0
  -21.6641   -6.8875   21.4239 O   0  0  0  0  0  0
  -22.3541  -14.5557   20.6674 O   0  0  0  0  0  0
  -24.6212  -31.8609   23.2089 C   0  0  0  0  0  0
  -25.9067  -32.4785   23.8417 C   0  0  1  0  0  0
  -27.2379  -27.3807   20.1236 C   0  0  0  0  0  0
  -25.5901  -33.8599   24.2309 N   0  0  0  0  0  0
  -23.4161  -30.4842   21.5453 C   0  0  2  0  0  0
  -24.8671  -28.9389   20.1181 C   0  0  0  0  0  0
  -22.7459  -29.4643   22.4959 C   0  0  0  0  0  0
  -18.0286  -28.1388   22.8501 C   0  0  0  0  0  0
  -24.1512  -36.7279   23.2611 C   0  0  0  0  0  0
  -25.9500  -30.8108   21.3736 C   0  0  0  0  0  0
  -26.0292  -29.4419   20.7208 C   0  0  0  0  0  0
  -27.2232  -28.6725   20.7146 C   0  0  0  0  0  0
  -26.0613  -26.9037   19.5122 C   0  0  0  0  0  0
  -24.8798  -27.6713   19.5096 C   0  0  0  0  0  0
  -23.6321  -29.8134   20.1615 C   0  0  0  0  0  0
  -25.4126  -36.3084   24.0313 C   0  0  1  0  0  0
  -20.5879  -28.3691   23.1285 C   0  0  2  0  0  0
  -20.6782  -26.9418   22.5414 C   0  0  0  0  0  0
  -19.5748  -26.6388   21.5227 C   0  0  0  0  0  0
  -18.1924  -26.7934   22.1634 C   0  0  0  0  0  0
  -19.1536  -28.8857   23.2887 C   0  0  0  0  0  0
  -18.9465  -30.1461   23.8906 C   0  0  0  0  0  0
  -17.6460  -30.6583   24.0576 C   0  0  0  0  0  0
  -25.9056  -34.9443   23.5117 C   0  0  0  0  0  0
  -16.5354  -29.9094   23.6325 C   0  0  0  0  0  0
  -16.7273  -28.6508   23.0355 C   0  0  0  0  0  0
  -26.4521  -31.6569   25.0748 C   0  0  0  0  0  0
  -25.3854  -31.3693   26.1557 C   0  0  0  0  0  0
  -27.0295  -30.2988   24.6148 C   0  0  0  0  0  0
  -27.6101  -32.4317   25.7445 C   0  0  0  0  0  0
  -27.5582  -37.1766   24.8438 C   0  0  0  0  0  0
  -21.4180  -29.3053   22.3679 N   0  0  0  0  0  0
  -26.4298  -37.3777   23.9392 N   0  0  0  0  0  0
  -24.6807  -31.0681   22.1003 N   0  0  0  0  0  0
  -23.4183  -28.8201   23.3045 O   0  0  0  0  0  0
  -28.3678  -26.5757   20.0888 O   0  0  0  0  0  0
  -26.5644  -34.8890   22.4700 O   0  0  0  0  0  0
  -23.5387  -32.1370   23.7439 O   0  0  0  0  0  0
  -29.7880  -21.4108   24.1975 C   0  0  0  0  0  0
  -29.0516  -22.3502   23.5246 C   0  0  0  0  0  0
  -29.6022  -20.7098   22.0972 C   0  0  0  0  0  0
  -28.6698  -26.1325   27.7348 C   0  0  0  0  0  0
  -31.0160  -25.2418   27.3669 C   0  0  0  0  0  0
  -29.2935  -26.2158   22.1971 C   0  0  0  0  0  0
  -28.2713  -23.4991   24.0925 C   0  0  0  0  0  0
  -29.7229  -19.6742   20.9732 C   0  0  0  0  0  0
  -29.0417  -24.3577   25.1217 C   0  0  0  0  0  0
  -29.6051  -18.1553   21.4284 C   0  0  0  0  0  0
  -28.9937  -23.8618   26.5779 C   0  0  0  0  0  0
  -29.1114  -24.1683   20.6362 C   0  0  0  0  0  0
  -28.4692  -22.7683   21.0452 C   0  0  0  0  0  0
  -30.1978  -17.0571   20.4759 C   0  0  0  0  0  0
  -29.5426  -24.8733   27.6107 C   0  0  0  0  0  0
  -28.4540  -25.5359   21.1040 C   0  0  2  0  0  0
  -29.0728  -21.9770   22.1820 N   0  0  0  0  0  0
  -30.1094  -20.4429   23.3024 N   0  3  0  0  0  0
  -29.9179  -15.6376   20.8554 N   0  0  0  0  0  0
  -31.4731  -12.4340   19.1539 H   0  0  0  0  0  0
  -30.3313  -11.3407   19.8791 H   0  0  0  0  0  0
  -29.7537  -11.7590   17.4609 H   0  0  0  0  0  0
  -29.6693  -13.4782   17.7647 H   0  0  0  0  0  0
  -27.8383  -11.3006   18.8376 H   0  0  0  0  0  0
  -27.3797  -12.6185   17.7884 H   0  0  0  0  0  0
  -27.6843  -14.2539   19.5379 H   0  0  0  0  0  0
  -28.6909  -12.0295   21.3853 H   0  0  0  0  0  0
  -28.4576  -13.6915   21.8501 H   0  0  0  0  0  0
  -25.2756   -9.5681   22.4746 H   0  0  0  0  0  0
  -23.9987   -7.4637   22.7467 H   0  0  0  0  0  0
  -21.0831   -8.8779   19.8954 H   0  0  0  0  0  0
  -22.3690  -10.9672   19.6150 H   0  0  0  0  0  0
  -21.2018   -7.6135   23.9712 H   0  0  0  0  0  0
  -21.1488   -6.0512   25.9076 H   0  0  0  0  0  0
  -22.0588   -2.7597   23.2845 H   0  0  0  0  0  0
  -22.4098  -11.9924   22.4806 H   0  0  0  0  0  0
  -21.1112  -13.1285   22.2569 H   0  0  0  0  0  0
  -24.6614  -15.8432   20.5236 H   0  0  0  0  0  0
  -26.2757  -15.6310   20.0811 H   0  0  0  0  0  0
  -26.7127  -32.5509   23.1164 H   0  0  0  0  0  0
  -25.0047  -33.9820   25.0441 H   0  0  0  0  0  0
  -22.7086  -31.3029   21.3980 H   0  0  0  0  0  0
  -23.3757  -35.9641   23.3329 H   0  0  0  0  0  0
  -24.3568  -36.8817   22.2004 H   0  0  0  0  0  0
  -23.7298  -37.6506   23.6586 H   0  0  0  0  0  0
  -26.0801  -31.5760   20.6074 H   0  0  0  0  0  0
  -26.8302  -30.8576   22.0043 H   0  0  0  0  0  0
  -28.1249  -29.0555   21.1754 H   0  0  0  0  0  0
  -26.0589  -25.9283   19.0446 H   0  0  0  0  0  0
  -23.9891  -27.2769   19.0386 H   0  0  0  0  0  0
  -23.7502  -30.5872   19.4015 H   0  0  0  0  0  0
  -22.7569  -29.2344   19.8607 H   0  0  0  0  0  0
  -25.1333  -36.1963   25.0813 H   0  0  0  0  0  0
  -20.9971  -28.3266   24.1406 H   0  0  0  0  0  0
  -20.5692  -26.2314   23.3625 H   0  0  0  0  0  0
  -21.6652  -26.7458   22.1203 H   0  0  0  0  0  0
  -19.6911  -25.6308   21.1243 H   0  0  0  0  0  0
  -19.6673  -27.3208   20.6765 H   0  0  0  0  0  0
  -17.4206  -26.6707   21.4019 H   0  0  0  0  0  0
  -18.0307  -26.0080   22.9028 H   0  0  0  0  0  0
  -19.7940  -30.7278   24.2283 H   0  0  0  0  0  0
  -17.5016  -31.6265   24.5169 H   0  0  0  0  0  0
  -15.5353  -30.2984   23.7653 H   0  0  0  0  0  0
  -15.8689  -28.0816   22.7063 H   0  0  0  0  0  0
  -24.5754  -30.7380   25.7903 H   0  0  0  0  0  0
  -24.9407  -32.2881   26.5372 H   0  0  0  0  0  0
  -25.8235  -30.8561   27.0122 H   0  0  0  0  0  0
  -26.2828  -29.6796   24.1153 H   0  0  0  0  0  0
  -27.3984  -29.7180   25.4621 H   0  0  0  0  0  0
  -27.8708  -30.4244   23.9342 H   0  0  0  0  0  0
  -28.3883  -32.6785   25.0221 H   0  0  0  0  0  0
  -28.0721  -31.8541   26.5456 H   0  0  0  0  0  0
  -27.2777  -33.3706   26.1885 H   0  0  0  0  0  0
  -28.2505  -38.0162   24.7675 H   0  0  0  0  0  0
  -28.1149  -36.2673   24.6120 H   0  0  0  0  0  0
  -27.2282  -37.1191   25.8820 H   0  0  0  0  0  0
  -20.9364  -29.8757   21.6870 H   0  0  0  0  0  0
  -26.0174  -38.2832   24.1444 H   0  0  0  0  0  0
  -30.0470  -21.3147   25.2413 H   0  0  0  0  0  0
  -27.6167  -25.8789   27.8660 H   0  0  0  0  0  0
  -28.7496  -26.7765   26.8596 H   0  0  0  0  0  0
  -28.9689  -26.7273   28.5976 H   0  0  0  0  0  0
  -31.6408  -24.3511   27.2812 H   0  0  0  0  0  0
  -31.4077  -25.8424   28.1876 H   0  0  0  0  0  0
  -31.1421  -25.8248   26.4546 H   0  0  0  0  0  0
  -29.7287  -25.4988   22.8822 H   0  0  0  0  0  0
  -28.6972  -26.9259   22.7717 H   0  0  0  0  0  0
  -30.1317  -26.7643   21.7661 H   0  0  0  0  0  0
  -27.3678  -23.0953   24.5487 H   0  0  0  0  0  0
  -27.9050  -24.1243   23.2888 H   0  0  0  0  0  0
  -30.6923  -19.8560   20.5103 H   0  0  0  0  0  0
  -28.9644  -19.9045   20.2258 H   0  0  0  0  0  0
  -28.5868  -25.3475   25.0988 H   0  0  0  0  0  0
  -30.0761  -24.4929   24.8082 H   0  0  0  0  0  0
  -28.5576  -17.9309   21.6325 H   0  0  0  0  0  0
  -30.1207  -18.0237   22.3796 H   0  0  0  0  0  0
  -29.5585  -22.9362   26.6657 H   0  0  0  0  0  0
  -27.9674  -23.6074   26.8461 H   0  0  0  0  0  0
  -29.0753  -24.1922   19.5459 H   0  0  0  0  0  0
  -30.1792  -24.1613   20.8592 H   0  0  0  0  0  0
  -28.5011  -22.1244   20.1671 H   0  0  0  0  0  0
  -27.4084  -22.8907   21.2620 H   0  0  0  0  0  0
  -31.2749  -17.2092   20.3937 H   0  0  0  0  0  0
  -29.7977  -17.2087   19.4716 H   0  0  0  0  0  0
  -29.4986  -24.3717   28.5793 H   0  0  0  0  0  0
  -27.4524  -25.3232   21.4816 H   0  0  0  0  0  0
  -30.6184  -19.5980   23.5358 H   0  0  0  0  0  0
  -28.9857  -15.4281   21.1815 H   0  0  0  0  0  0
  1 25  1  0  0  0
  1 30  2  0  0  0
  1 89  1  0  0  0
  2  3  1  0  0  0
  2 25  1  0  0  0
  2 90  1  0  0  0
  2 91  1  0  0  0
  3  4  1  0  0  0
  3 92  1  0  0  0
  3 93  1  0  0  0
  4  5  1  0  0  0
  4 94  1  0  0  0
  4 95  1  0  0  0
  5  6  1  0  0  0
  5 26  1  0  0  0
  5 96  1  0  0  0
  6 25  1  0  0  0
  6 97  1  0  0  0
  6 98  1  0  0  0
  7  8  2  0  0  0
  7 26  1  0  0  0
  7 29  1  0  0  0
  8  9  1  0  0  0
  8 22  1  0  0  0
  9 10  1  0  0  0
  9 27  2  0  0  0
 10 11  2  0  0  0
 10 15  1  0  0  0
 11 12  1  0  0  0
 11 99  1  0  0  0
 12 13  2  0  0  0
 12100  1  0  0  0
 13 14  1  0  0  0
 13 31  1  0  0  0
 14 15  2  0  0  0
 14101  1  0  0  0
 15102  1  0  0  0
 16 17  2  0  0  0
 16 21  1  0  0  0
 16 31  1  0  0  0
 17 18  1  0  0  0
 17103  1  0  0  0
 18 19  2  0  0  0
 18104  1  0  0  0
 19 20  1  0  0  0
 19 24  1  0  0  0
 20 21  2  0  0  0
 20105  1  0  0  0
 21 23  1  0  0  0
 22 28  1  0  0  0
 22 32  2  0  0  0
 26 27  1  0  0  0
 28106  1  0  0  0
 28107  1  0  0  0
 29108  1  0  0  0
 29109  1  0  0  0
 33 34  1  0  0  0
 33 66  1  0  0  0
 33 70  2  0  0  0
 34 36  1  0  0  0
 34 59  1  0  0  0
 34110  1  0  0  0
 35 44  2  0  0  0
 35 45  1  0  0  0
 35 68  1  0  0  0
 36 56  1  0  0  0
 36111  1  0  0  0
 37 39  1  0  0  0
 37 47  1  0  0  0
 37 66  1  0  0  0
 37112  1  0  0  0
 38 43  2  0  0  0
 38 46  1  0  0  0
 38 47  1  0  0  0
 39 64  1  0  0  0
 39 67  2  0  0  0
 40 52  1  0  0  0
 40 53  2  0  0  0
 40 58  1  0  0  0
 41113  1  0  0  0
 41114  1  0  0  0
 41115  1  0  0  0
 41 48  1  0  0  0
 42 43  1  0  0  0
 42 66  1  0  0  0
 42116  1  0  0  0
 42117  1  0  0  0
 43 44  1  0  0  0
 44118  1  0  0  0
 45 46  2  0  0  0
 45119  1  0  0  0
 46120  1  0  0  0
 47121  1  0  0  0
 47122  1  0  0  0
 48 56  1  0  0  0
 48 65  1  0  0  0
 48123  1  0  0  0
 49 50  1  0  0  0
 49 53  1  0  0  0
 49 64  1  0  0  0
 49124  1  0  0  0
 50 51  1  0  0  0
 50125  1  0  0  0
 50126  1  0  0  0
 51 52  1  0  0  0
 51127  1  0  0  0
 51128  1  0  0  0
 52129  1  0  0  0
 52130  1  0  0  0
 53 54  1  0  0  0
 54 55  2  0  0  0
 54131  1  0  0  0
 55 57  1  0  0  0
 55132  1  0  0  0
 56 69  2  0  0  0
 57 58  2  0  0  0
 57133  1  0  0  0
 58134  1  0  0  0
 59 60  1  0  0  0
 59 61  1  0  0  0
 59 62  1  0  0  0
 60135  1  0  0  0
 60136  1  0  0  0
 60137  1  0  0  0
 61138  1  0  0  0
 61139  1  0  0  0
 61140  1  0  0  0
 62141  1  0  0  0
 62142  1  0  0  0
 62143  1  0  0  0
 63 65  1  0  0  0
 63144  1  0  0  0
 63145  1  0  0  0
 63146  1  0  0  0
 64147  1  0  0  0
 65148  1  0  0  0
 68 86  1  0  0  0
 71 72  2  0  0  0
 71 88  1  0  0  0
 71149  1  0  0  0
 72 77  1  0  0  0
 72 87  1  0  0  0
 73 78  1  0  0  0
 73 87  1  0  0  0
 73 88  2  0  0  0
 74150  1  0  0  0
 74151  1  0  0  0
 74152  1  0  0  0
 74 85  1  0  0  0
 75 85  1  0  0  0
 75153  1  0  0  0
 75154  1  0  0  0
 75155  1  0  0  0
 76156  1  0  0  0
 76157  1  0  0  0
 76158  1  0  0  0
 76 86  1  0  0  0
 77 79  1  0  0  0
 77159  1  0  0  0
 77160  1  0  0  0
 78 80  1  0  0  0
 78161  1  0  0  0
 78162  1  0  0  0
 79 81  1  0  0  0
 79163  1  0  0  0
 79164  1  0  0  0
 80 84  1  0  0  0
 80165  1  0  0  0
 80166  1  0  0  0
 81 85  1  0  0  0
 81167  1  0  0  0
 81168  1  0  0  0
 82 83  1  0  0  0
 82 86  1  0  0  0
 82169  1  0  0  0
 82170  1  0  0  0
 83 87  1  0  0  0
 83171  1  0  0  0
 83172  1  0  0  0
 84 89  1  0  0  0
 84173  1  0  0  0
 84174  1  0  0  0
 85175  1  0  0  0
 86176  1  0  0  0
 88177  1  0  0  0
 89178  1  0  0  0
M  CHG  1  88   1
M  ISO  4   1 100  68 101  86 101  89 100
M  END
> <chiral flag>
0

> <version>
0

> <s_m_source_file>
/data/baiqing/PycharmProjects/Reinvent-master-3.2/result/LINK_invent/BTK/process_docking_weight1_custom_sum_contain_oxygen_bond_distance_aromatic_linkinvent_7_9_3/rearranged_h_0086.sdf

> <i_m_source_file_index>
35

> <r_mmod_Potential_Energy-OPLS-2005>
-11.2815732955933

> <r_mmod_Stretch_Energy-OPLS-2005>
66.4697189331055

> <r_mmod_Bend_Energy-OPLS-2005>
136.55778503418

> <r_mmod_Torsional_Energy-OPLS-2005>
294.726745605469

> <r_mmod_Improper_Torsional_Energy-OPLS-2005>
6.76899814605713

> <r_mmod_Van_der_Waal_Energy-OPLS-2005>
118.240715026855

> <r_mmod_Electrostatic_Energy-OPLS-2005>
-240.681427001953

> <r_mmod_Solvation_Energy-OPLS-2005>
-419.052124023438

> <b_mmod_Minimization_Converged-OPLS-2005>
0

> <r_mmod_RMS_Derivative-OPLS-2005>
3.19624781608582

$$$$
35
                    3D
 Structure written by MMmdl.
170178  0  0  1  0            999 V2000
  -30.7759  -14.3694   20.7035 C   0  0  0  0  0  0
  -30.4160  -12.3056   19.3954 C   0  0  0  0  0  0
  -29.4811  -12.5393   18.1941 C   0  0  0  0  0  0
  -28.0066  -12.3839   18.6110 C   0  0  0  0  0  0
  -27.6661  -13.2032   19.8829 C   0  0  2  0  0  0
  -28.7051  -12.9263   20.9899 C   0  0  0  0  0  0
  -25.2605  -13.8156   20.5719 C   0  0  0  0  0  0
  -24.1847  -13.0448   20.9180 C   0  0  0  0  0  0
  -24.6376  -11.6913   20.8727 C   0  0  0  0  0  0
  -23.9039  -10.4305   21.0404 C   0  0  0  0  0  0
  -24.3610   -9.4226   21.9159 C   0  0  0  0  0  0
  -23.6297   -8.2251   22.0734 C   0  0  0  0  0  0
  -22.4261   -8.0293   21.3558 C   0  0  0  0  0  0
  -21.9862   -9.0268   20.4675 C   0  0  0  0  0  0
  -22.7181  -10.2154   20.3087 C   0  0  0  0  0  0
  -21.6864   -6.0741   22.5294 C   0  0  0  0  0  0
  -21.4020   -6.5647   23.8220 C   0  0  0  0  0  0
  -21.3663   -5.6804   24.9186 C   0  0  0  0  0  0
  -21.6041   -4.3064   24.7234 C   0  0  0  0  0  0
  -21.8822   -3.8148   23.4360 C   0  0  0  0  0  0
  -21.9185   -4.6963   22.3411 C   0  0  0  0  0  0
  -22.7871  -13.5250   21.1866 C   0  0  0  0  0  0
  -22.1648   -4.2150   21.0994 F   0  0  0  0  0  0
  -21.5629   -3.4544   25.7744 F   0  0  0  0  0  0
  -30.0463  -13.2427   20.4710 N   0  0  0  0  0  0
  -26.3046  -12.9330   20.3421 N   0  0  0  0  0  0
  -25.9294  -11.6486   20.5727 N   0  0  0  0  0  0
  -22.0533  -12.8285   22.0481 N   0  0  0  0  0  0
  -25.4327  -15.1873   20.4197 N   0  0  0  0  0  0
  -31.7666  -14.6690   20.0351 O   0  0  0  0  0  0
  -21.6644   -6.8883   21.4256 O   0  0  0  0  0  0
  -22.3546  -14.5526   20.6676 O   0  0  0  0  0  0
  -24.6149  -31.8684   23.2094 C   0  0  0  0  0  0
  -25.9052  -32.4823   23.8392 C   0  0  1  0  0  0
  -27.2356  -27.4527   20.0891 C   0  0  0  0  0  0
  -25.5918  -33.8621   24.2331 N   0  0  0  0  0  0
  -23.4008  -30.4926   21.5493 C   0  0  2  0  0  0
  -24.8457  -28.9557   20.1182 C   0  0  0  0  0  0
  -22.7414  -29.4670   22.4993 C   0  0  0  0  0  0
  -18.0275  -28.1383   22.8501 C   0  0  0  0  0  0
  -24.1481  -36.7307   23.2634 C   0  0  0  0  0  0
  -25.9268  -30.8407   21.3562 C   0  0  0  0  0  0
  -26.0057  -29.4756   20.7053 C   0  0  0  0  0  0
  -27.2074  -28.7339   20.6816 C   0  0  0  0  0  0
  -26.0570  -26.9374   19.5071 C   0  0  0  0  0  0
  -24.8645  -27.6858   19.5148 C   0  0  0  0  0  0
  -23.6071  -29.8208   20.1656 C   0  0  0  0  0  0
  -25.4103  -36.3112   24.0338 C   0  0  1  0  0  0
  -20.5868  -28.3669   23.1321 C   0  0  2  0  0  0
  -20.6769  -26.9404   22.5416 C   0  0  0  0  0  0
  -19.5743  -26.6392   21.5213 C   0  0  0  0  0  0
  -18.1921  -26.7933   22.1625 C   0  0  0  0  0  0
  -19.1521  -28.8842   23.2914 C   0  0  0  0  0  0
  -18.9451  -30.1453   23.8911 C   0  0  0  0  0  0
  -17.6447  -30.6585   24.0570 C   0  0  0  0  0  0
  -25.9030  -34.9478   23.5125 C   0  0  0  0  0  0
  -16.5344  -29.9085   23.6328 C   0  0  0  0  0  0
  -16.7264  -28.6511   23.0348 C   0  0  0  0  0  0
  -26.4474  -31.6583   25.0707 C   0  0  0  0  0  0
  -25.3749  -31.3661   26.1455 C   0  0  0  0  0  0
  -27.0293  -30.3034   24.6052 C   0  0  0  0  0  0
  -27.6069  -32.4277   25.7459 C   0  0  0  0  0  0
  -27.5574  -37.1810   24.8472 C   0  0  0  0  0  0
  -21.4144  -29.3038   22.3731 N   0  0  0  0  0  0
  -26.4286  -37.3804   23.9413 N   0  0  0  0  0  0
  -24.6658  -31.0814   22.0971 N   0  0  0  0  0  0
  -23.4196  -28.8223   23.3040 O   0  0  0  0  0  0
  -28.4058  -26.7317   20.0636 O   0  0  0  0  0  0
  -26.5584  -34.8936   22.4680 O   0  0  0  0  0  0
  -23.5350  -32.1415   23.7513 O   0  0  0  0  0  0
  -26.7380  -20.2382   21.1478 C   0  0  0  0  0  0
  -28.9897  -19.4462   20.7679 C   0  0  0  0  0  0
  -27.9915  -20.4166   20.5355 C   0  0  0  0  0  0
  -26.5419  -19.1261   21.9804 C   0  0  0  0  0  0
  -28.7066  -18.3525   21.6185 C   0  0  0  0  0  0
  -25.2225  -18.9164   22.6921 C   0  0  0  0  0  0
  -30.0353  -15.9641   24.7720 C   0  0  0  0  0  0
  -27.6057  -15.7323   24.1045 C   0  0  0  0  0  0
  -28.2525  -21.6580   19.6926 C   0  0  0  0  0  0
  -29.8132  -17.3631   22.0055 C   0  0  0  0  0  0
  -28.3813  -22.9225   20.5682 C   0  0  0  0  0  0
  -28.3897  -24.2585   19.7941 C   0  0  0  0  0  0
  -28.3710  -25.4751   20.7461 C   0  0  0  0  0  0
  -29.0586  -15.4502   23.6977 C   0  0  0  0  0  0
  -29.4312  -15.8572   22.2302 C   0  0  2  0  0  0
  -27.5071  -18.2164   22.2186 N   0  0  0  0  0  0
  -30.5801  -15.0104   21.8650 N   0  0  0  0  0  0
  -31.4579  -12.4108   19.0882 H   0  0  0  0  0  0
  -30.3194  -11.2790   19.7529 H   0  0  0  0  0  0
  -29.7196  -11.8418   17.3901 H   0  0  0  0  0  0
  -29.6466  -13.5398   17.7927 H   0  0  0  0  0  0
  -27.8192  -11.3242   18.7915 H   0  0  0  0  0  0
  -27.3472  -12.6705   17.7913 H   0  0  0  0  0  0
  -27.7255  -14.2591   19.6178 H   0  0  0  0  0  0
  -28.6767  -11.8743   21.2735 H   0  0  0  0  0  0
  -28.4430  -13.4589   21.8957 H   0  0  0  0  0  0
  -25.2775   -9.5697   22.4703 H   0  0  0  0  0  0
  -24.0027   -7.4622   22.7422 H   0  0  0  0  0  0
  -21.0767   -8.8784   19.9006 H   0  0  0  0  0  0
  -22.3596  -10.9702   19.6228 H   0  0  0  0  0  0
  -21.2034   -7.6158   23.9723 H   0  0  0  0  0  0
  -21.1466   -6.0545   25.9092 H   0  0  0  0  0  0
  -22.0593   -2.7605   23.2863 H   0  0  0  0  0  0
  -22.4147  -11.9982   22.4924 H   0  0  0  0  0  0
  -21.1183  -13.1353   22.2760 H   0  0  0  0  0  0
  -24.6788  -15.8466   20.5738 H   0  0  0  0  0  0
  -26.3125  -15.6392   20.2079 H   0  0  0  0  0  0
  -26.7131  -32.5527   23.1167 H   0  0  0  0  0  0
  -25.0129  -33.9781   25.0522 H   0  0  0  0  0  0
  -22.6888  -31.3089   21.4106 H   0  0  0  0  0  0
  -23.3746  -35.9638   23.3310 H   0  0  0  0  0  0
  -24.3574  -36.8896   22.2043 H   0  0  0  0  0  0
  -23.7228  -37.6518   23.6631 H   0  0  0  0  0  0
  -26.0360  -31.6069   20.5858 H   0  0  0  0  0  0
  -26.8171  -30.8965   21.9705 H   0  0  0  0  0  0
  -28.1077  -29.1374   21.1222 H   0  0  0  0  0  0
  -26.0569  -25.9659   19.0368 H   0  0  0  0  0  0
  -23.9728  -27.2797   19.0565 H   0  0  0  0  0  0
  -23.7167  -30.5926   19.4026 H   0  0  0  0  0  0
  -22.7318  -29.2403   19.8715 H   0  0  0  0  0  0
  -25.1282  -36.1973   25.0832 H   0  0  0  0  0  0
  -20.9969  -28.3226   24.1440 H   0  0  0  0  0  0
  -20.5686  -26.2270   23.3606 H   0  0  0  0  0  0
  -21.6636  -26.7456   22.1188 H   0  0  0  0  0  0
  -19.6895  -25.6310   21.1220 H   0  0  0  0  0  0
  -19.6669  -27.3225   20.6761 H   0  0  0  0  0  0
  -17.4195  -26.6701   21.4020 H   0  0  0  0  0  0
  -18.0307  -26.0062   22.9009 H   0  0  0  0  0  0
  -19.7923  -30.7278   24.2269 H   0  0  0  0  0  0
  -17.5001  -31.6259   24.5185 H   0  0  0  0  0  0
  -15.5346  -30.2994   23.7637 H   0  0  0  0  0  0
  -15.8670  -28.0835   22.7043 H   0  0  0  0  0  0
  -24.5943  -30.6993   25.7776 H   0  0  0  0  0  0
  -24.8926  -32.2803   26.4916 H   0  0  0  0  0  0
  -25.8113  -30.8816   27.0198 H   0  0  0  0  0  0
  -26.2814  -29.6797   24.1142 H   0  0  0  0  0  0
  -27.4119  -29.7261   25.4480 H   0  0  0  0  0  0
  -27.8631  -30.4360   23.9151 H   0  0  0  0  0  0
  -27.2713  -33.3569   26.2071 H   0  0  0  0  0  0
  -28.3858  -32.6833   25.0262 H   0  0  0  0  0  0
  -28.0767  -31.8376   26.5336 H   0  0  0  0  0  0
  -28.2614  -38.0091   24.7525 H   0  0  0  0  0  0
  -28.1047  -36.2628   24.6289 H   0  0  0  0  0  0
  -27.2299  -37.1451   25.8879 H   0  0  0  0  0  0
  -20.9305  -29.8744   21.6938 H   0  0  0  0  0  0
  -26.0172  -38.2879   24.1426 H   0  0  0  0  0  0
  -25.9430  -20.9569   21.0004 H   0  0  0  0  0  0
  -29.9731  -19.5622   20.3306 H   0  0  0  0  0  0
  -24.3928  -19.0148   21.9920 H   0  0  0  0  0  0
  -25.0964  -19.6632   23.4768 H   0  0  0  0  0  0
  -25.1645  -17.9277   23.1477 H   0  0  0  0  0  0
  -29.8418  -15.4835   25.7312 H   0  0  0  0  0  0
  -29.9342  -17.0394   24.9273 H   0  0  0  0  0  0
  -31.0736  -15.7552   24.5132 H   0  0  0  0  0  0
  -27.3429  -15.1826   25.0092 H   0  0  0  0  0  0
  -26.9075  -15.4274   23.3238 H   0  0  0  0  0  0
  -27.4423  -16.7874   24.3187 H   0  0  0  0  0  0
  -27.4257  -21.7721   18.9895 H   0  0  0  0  0  0
  -29.1505  -21.5163   19.0901 H   0  0  0  0  0  0
  -30.3630  -17.7729   22.8508 H   0  0  0  0  0  0
  -30.5217  -17.4066   21.1772 H   0  0  0  0  0  0
  -29.2777  -22.8424   21.1832 H   0  0  0  0  0  0
  -27.5446  -22.9458   21.2656 H   0  0  0  0  0  0
  -27.5247  -24.2938   19.1346 H   0  0  0  0  0  0
  -29.2696  -24.3064   19.1516 H   0  0  0  0  0  0
  -29.2522  -25.4377   21.3866 H   0  0  0  0  0  0
  -27.5148  -25.4130   21.4221 H   0  0  0  0  0  0
  -29.1348  -14.3640   23.7489 H   0  0  0  0  0  0
  -28.6038  -15.6287   21.5569 H   0  0  0  0  0  0
  -31.4433  -15.4263   22.1820 H   0  0  0  0  0  0
  1 25  1  0  0  0
  1 30  2  0  0  0
  1 87  1  0  0  0
  2  3  1  0  0  0
  2 25  1  0  0  0
  2 88  1  0  0  0
  2 89  1  0  0  0
  3  4  1  0  0  0
  3 90  1  0  0  0
  3 91  1  0  0  0
  4  5  1  0  0  0
  4 92  1  0  0  0
  4 93  1  0  0  0
  5  6  1  0  0  0
  5 26  1  0  0  0
  5 94  1  0  0  0
  6 25  1  0  0  0
  6 95  1  0  0  0
  6 96  1  0  0  0
  7  8  2  0  0  0
  7 26  1  0  0  0
  7 29  1  0  0  0
  8  9  1  0  0  0
  8 22  1  0  0  0
  9 10  1  0  0  0
  9 27  2  0  0  0
 10 11  2  0  0  0
 10 15  1  0  0  0
 11 12  1  0  0  0
 11 97  1  0  0  0
 12 13  2  0  0  0
 12 98  1  0  0  0
 13 14  1  0  0  0
 13 31  1  0  0  0
 14 15  2  0  0  0
 14 99  1  0  0  0
 15100  1  0  0  0
 16 17  2  0  0  0
 16 21  1  0  0  0
 16 31  1  0  0  0
 17 18  1  0  0  0
 17101  1  0  0  0
 18 19  2  0  0  0
 18102  1  0  0  0
 19 20  1  0  0  0
 19 24  1  0  0  0
 20 21  2  0  0  0
 20103  1  0  0  0
 21 23  1  0  0  0
 22 28  1  0  0  0
 22 32  2  0  0  0
 26 27  1  0  0  0
 28104  1  0  0  0
 28105  1  0  0  0
 29106  1  0  0  0
 29107  1  0  0  0
 33 34  1  0  0  0
 33 66  1  0  0  0
 33 70  2  0  0  0
 34 36  1  0  0  0
 34 59  1  0  0  0
 34108  1  0  0  0
 35 44  2  0  0  0
 35 45  1  0  0  0
 35 68  1  0  0  0
 36 56  1  0  0  0
 36109  1  0  0  0
 37 39  1  0  0  0
 37 47  1  0  0  0
 37 66  1  0  0  0
 37110  1  0  0  0
 38 43  2  0  0  0
 38 46  1  0  0  0
 38 47  1  0  0  0
 39 64  1  0  0  0
 39 67  2  0  0  0
 40 52  1  0  0  0
 40 53  2  0  0  0
 40 58  1  0  0  0
 41111  1  0  0  0
 41112  1  0  0  0
 41113  1  0  0  0
 41 48  1  0  0  0
 42 43  1  0  0  0
 42 66  1  0  0  0
 42114  1  0  0  0
 42115  1  0  0  0
 43 44  1  0  0  0
 44116  1  0  0  0
 45 46  2  0  0  0
 45117  1  0  0  0
 46118  1  0  0  0
 47119  1  0  0  0
 47120  1  0  0  0
 48 56  1  0  0  0
 48 65  1  0  0  0
 48121  1  0  0  0
 49 50  1  0  0  0
 49 53  1  0  0  0
 49 64  1  0  0  0
 49122  1  0  0  0
 50 51  1  0  0  0
 50123  1  0  0  0
 50124  1  0  0  0
 51 52  1  0  0  0
 51125  1  0  0  0
 51126  1  0  0  0
 52127  1  0  0  0
 52128  1  0  0  0
 53 54  1  0  0  0
 54 55  2  0  0  0
 54129  1  0  0  0
 55 57  1  0  0  0
 55130  1  0  0  0
 56 69  2  0  0  0
 57 58  2  0  0  0
 57131  1  0  0  0
 58132  1  0  0  0
 59 60  1  0  0  0
 59 61  1  0  0  0
 59 62  1  0  0  0
 60133  1  0  0  0
 60134  1  0  0  0
 60135  1  0  0  0
 61136  1  0  0  0
 61137  1  0  0  0
 61138  1  0  0  0
 62139  1  0  0  0
 62140  1  0  0  0
 62141  1  0  0  0
 63 65  1  0  0  0
 63142  1  0  0  0
 63143  1  0  0  0
 63144  1  0  0  0
 64145  1  0  0  0
 65146  1  0  0  0
 68 83  1  0  0  0
 71 73  2  0  0  0
 71 74  1  0  0  0
 71147  1  0  0  0
 72 73  1  0  0  0
 72 75  2  0  0  0
 72148  1  0  0  0
 73 79  1  0  0  0
 74 76  1  0  0  0
 74 86  2  0  0  0
 75 80  1  0  0  0
 75 86  1  0  0  0
 76149  1  0  0  0
 76150  1  0  0  0
 76151  1  0  0  0
 77152  1  0  0  0
 77153  1  0  0  0
 77154  1  0  0  0
 77 84  1  0  0  0
 78 84  1  0  0  0
 78155  1  0  0  0
 78156  1  0  0  0
 78157  1  0  0  0
 79 81  1  0  0  0
 79158  1  0  0  0
 79159  1  0  0  0
 80160  1  0  0  0
 80161  1  0  0  0
 80 85  1  0  0  0
 81 82  1  0  0  0
 81162  1  0  0  0
 81163  1  0  0  0
 82 83  1  0  0  0
 82164  1  0  0  0
 82165  1  0  0  0
 83166  1  0  0  0
 83167  1  0  0  0
 84 85  1  0  0  0
 84168  1  0  0  0
 85 87  1  0  0  0
 85169  1  0  0  0
 87170  1  0  0  0
M  ISO  4   1 100  68 101  83 101  87 100
M  END
> <chiral flag>
0

> <version>
0

> <s_m_source_file>
/data/baiqing/PycharmProjects/Reinvent-master-3.2/result/LINK_invent/BTK/process_docking_weight1_custom_sum_contain_oxygen_bond_distance_aromatic_linkinvent_7_9_3/rearranged_h_0086.sdf

> <i_m_source_file_index>
36

> <r_mmod_Potential_Energy-OPLS-2005>
-122.433654785156

> <r_mmod_Stretch_Energy-OPLS-2005>
37.216552734375

> <r_mmod_Bend_Energy-OPLS-2005>
115.535629272461

> <r_mmod_Torsional_Energy-OPLS-2005>
285.053039550781

> <r_mmod_Improper_Torsional_Energy-OPLS-2005>
10.8701953887939

> <r_mmod_Van_der_Waal_Energy-OPLS-2005>
141.955001831055

> <r_mmod_Electrostatic_Energy-OPLS-2005>
-528.683227539062

> <r_mmod_Solvation_Energy-OPLS-2005>
-192.126495361328

> <b_mmod_Minimization_Converged-OPLS-2005>
0

> <r_mmod_RMS_Derivative-OPLS-2005>
2.41362380981445

$$$$
36
                    3D
 Structure written by MMmdl.
175183  0  0  1  0            999 V2000
  -30.5744  -14.7853   20.4612 C   0  0  0  0  0  0
  -30.4382  -12.4799   19.4784 C   0  0  0  0  0  0
  -29.5143  -12.5255   18.2408 C   0  0  0  0  0  0
  -28.0421  -12.3339   18.6518 C   0  0  0  0  0  0
  -27.6406  -13.2301   19.8520 C   0  0  2  0  0  0
  -28.6845  -13.1660   20.9887 C   0  0  0  0  0  0
  -25.2503  -13.8176   20.5682 C   0  0  0  0  0  0
  -24.1800  -13.0423   20.9217 C   0  0  0  0  0  0
  -24.6386  -11.6904   20.8710 C   0  0  0  0  0  0
  -23.9054  -10.4290   21.0381 C   0  0  0  0  0  0
  -24.3618   -9.4210   21.9167 C   0  0  0  0  0  0
  -23.6304   -8.2235   22.0731 C   0  0  0  0  0  0
  -22.4278   -8.0272   21.3539 C   0  0  0  0  0  0
  -21.9907   -9.0230   20.4625 C   0  0  0  0  0  0
  -22.7219  -10.2122   20.3037 C   0  0  0  0  0  0
  -21.6859   -6.0730   22.5278 C   0  0  0  0  0  0
  -21.4020   -6.5635   23.8210 C   0  0  0  0  0  0
  -21.3669   -5.6782   24.9175 C   0  0  0  0  0  0
  -21.6049   -4.3043   24.7222 C   0  0  0  0  0  0
  -21.8825   -3.8146   23.4337 C   0  0  0  0  0  0
  -21.9199   -4.6962   22.3399 C   0  0  0  0  0  0
  -22.7824  -13.5192   21.1892 C   0  0  0  0  0  0
  -22.1656   -4.2154   21.0971 F   0  0  0  0  0  0
  -21.5645   -3.4519   25.7732 F   0  0  0  0  0  0
  -29.9837  -13.5382   20.4105 N   0  0  0  0  0  0
  -26.2927  -12.9382   20.3259 N   0  0  0  0  0  0
  -25.9318  -11.6524   20.5714 N   0  0  0  0  0  0
  -22.0494  -12.8158   22.0449 N   0  0  0  0  0  0
  -25.4191  -15.1897   20.4086 N   0  0  0  0  0  0
  -31.7585  -14.9162   20.1399 O   0  0  0  0  0  0
  -21.6654   -6.8869   21.4232 O   0  0  0  0  0  0
  -22.3493  -14.5491   20.6745 O   0  0  0  0  0  0
  -24.6336  -31.8527   23.1943 C   0  0  0  0  0  0
  -25.9151  -32.4742   23.8301 C   0  0  1  0  0  0
  -27.2269  -27.2352   20.1337 C   0  0  0  0  0  0
  -25.5928  -33.8546   24.2227 N   0  0  0  0  0  0
  -23.4329  -30.4732   21.5378 C   0  0  2  0  0  0
  -24.8831  -28.9158   20.1080 C   0  0  0  0  0  0
  -22.7529  -29.4588   22.4897 C   0  0  0  0  0  0
  -18.0302  -28.1389   22.8487 C   0  0  0  0  0  0
  -24.1486  -36.7274   23.2649 C   0  0  0  0  0  0
  -25.9811  -30.7550   21.3829 C   0  0  0  0  0  0
  -26.0535  -29.3756   20.7245 C   0  0  0  0  0  0
  -27.2245  -28.5465   20.7294 C   0  0  0  0  0  0
  -26.0357  -26.8588   19.4723 C   0  0  0  0  0  0
  -24.8805  -27.6650   19.4718 C   0  0  0  0  0  0
  -23.6550  -29.8057   20.1550 C   0  0  0  0  0  0
  -25.4113  -36.3062   24.0332 C   0  0  1  0  0  0
  -20.5907  -28.3711   23.1257 C   0  0  2  0  0  0
  -20.6789  -26.9422   22.5414 C   0  0  0  0  0  0
  -19.5768  -26.6382   21.5220 C   0  0  0  0  0  0
  -18.1945  -26.7931   22.1621 C   0  0  0  0  0  0
  -19.1554  -28.8864   23.2867 C   0  0  0  0  0  0
  -18.9477  -30.1459   23.8892 C   0  0  0  0  0  0
  -17.6480  -30.6589   24.0568 C   0  0  0  0  0  0
  -25.9057  -34.9439   23.5083 C   0  0  0  0  0  0
  -16.5369  -29.9094   23.6333 C   0  0  0  0  0  0
  -16.7288  -28.6508   23.0355 C   0  0  0  0  0  0
  -26.4499  -31.6585   25.0715 C   0  0  0  0  0  0
  -25.3703  -31.3773   26.1428 C   0  0  0  0  0  0
  -27.0375  -30.2993   24.6247 C   0  0  0  0  0  0
  -27.6031  -32.4351   25.7496 C   0  0  0  0  0  0
  -27.5576  -37.1791   24.8467 C   0  0  0  0  0  0
  -21.4227  -29.3055   22.3649 N   0  0  0  0  0  0
  -26.4285  -37.3766   23.9415 N   0  0  0  0  0  0
  -24.7014  -31.0463   22.0944 N   0  0  0  0  0  0
  -23.4206  -28.8149   23.3028 O   0  0  0  0  0  0
  -28.3140  -26.3211   20.2198 O   0  0  0  0  0  0
  -26.5639  -34.8922   22.4655 O   0  0  0  0  0  0
  -23.5473  -32.1377   23.7208 O   0  0  0  0  0  0
  -28.2790  -21.8696   18.7085 C   0  0  0  0  0  0
  -29.3318  -20.8599   20.3348 C   0  0  0  0  0  0
  -28.9176  -22.1501   19.9311 C   0  0  0  0  0  0
  -28.3728  -20.5484   18.3323 C   0  0  0  0  0  0
  -30.5383  -24.0638   20.2673 C   0  0  0  0  0  0
  -28.8303  -23.5946   22.0325 C   0  0  0  0  0  0
  -28.1409  -21.2117   15.9009 C   0  0  0  0  0  0
  -26.2199  -20.1614   17.0569 C   0  0  0  0  0  0
  -28.1871  -18.8261   16.2644 C   0  0  0  0  0  0
  -27.8663  -17.5863   19.3525 C   0  0  0  0  0  0
  -30.2205  -17.8906   18.2962 C   0  0  0  0  0  0
  -29.9204  -17.4250   20.6926 C   0  0  0  0  0  0
  -28.1264  -24.8442   19.9118 C   0  0  0  0  0  0
  -29.0792  -23.6475   20.5166 C   0  0  0  0  0  0
  -27.7620  -20.1398   16.9617 C   0  0  0  0  0  0
  -29.2584  -18.2578   19.4556 C   0  0  0  0  0  0
  -29.0028  -19.8148   19.4014 N   0  0  0  0  0  0
  -29.7510  -15.8818   20.6924 N   0  0  0  0  0  0
  -31.4753  -12.6198   19.1732 H   0  0  0  0  0  0
  -30.3917  -11.5013   19.9599 H   0  0  0  0  0  0
  -29.8047  -11.7602   17.5199 H   0  0  0  0  0  0
  -29.6333  -13.4849   17.7347 H   0  0  0  0  0  0
  -27.9079  -11.2841   18.9152 H   0  0  0  0  0  0
  -27.3836  -12.5203   17.8039 H   0  0  0  0  0  0
  -27.6309  -14.2497   19.4704 H   0  0  0  0  0  0
  -28.7301  -12.1647   21.4213 H   0  0  0  0  0  0
  -28.4088  -13.8378   21.8027 H   0  0  0  0  0  0
  -25.2756   -9.5698   22.4745 H   0  0  0  0  0  0
  -24.0030   -7.4622   22.7432 H   0  0  0  0  0  0
  -21.0852   -8.8723   19.8920 H   0  0  0  0  0  0
  -22.3657  -10.9657   19.6154 H   0  0  0  0  0  0
  -21.2003   -7.6142   23.9713 H   0  0  0  0  0  0
  -21.1490   -6.0511   25.9075 H   0  0  0  0  0  0
  -22.0602   -2.7608   23.2827 H   0  0  0  0  0  0
  -22.4116  -11.9804   22.4804 H   0  0  0  0  0  0
  -21.1111  -13.1164   22.2685 H   0  0  0  0  0  0
  -24.6443  -15.8370   20.5027 H   0  0  0  0  0  0
  -26.2535  -15.6246   20.0392 H   0  0  0  0  0  0
  -26.7231  -32.5377   23.1049 H   0  0  0  0  0  0
  -25.0072  -33.9676   25.0369 H   0  0  0  0  0  0
  -22.7328  -31.2975   21.3873 H   0  0  0  0  0  0
  -23.3757  -35.9598   23.3301 H   0  0  0  0  0  0
  -24.3583  -36.8900   22.2065 H   0  0  0  0  0  0
  -23.7222  -37.6465   23.6676 H   0  0  0  0  0  0
  -26.1282  -31.5161   20.6152 H   0  0  0  0  0  0
  -26.8552  -30.8001   22.0214 H   0  0  0  0  0  0
  -28.1122  -28.8908   21.2412 H   0  0  0  0  0  0
  -25.9628  -25.9113   18.9605 H   0  0  0  0  0  0
  -23.9886  -27.3074   18.9768 H   0  0  0  0  0  0
  -23.7849  -30.5822   19.4005 H   0  0  0  0  0  0
  -22.7736  -29.2420   19.8451 H   0  0  0  0  0  0
  -25.1296  -36.1908   25.0826 H   0  0  0  0  0  0
  -20.9992  -28.3286   24.1378 H   0  0  0  0  0  0
  -20.5681  -26.2328   23.3629 H   0  0  0  0  0  0
  -21.6657  -26.7444   22.1206 H   0  0  0  0  0  0
  -19.6933  -25.6288   21.1263 H   0  0  0  0  0  0
  -19.6698  -27.3189   20.6747 H   0  0  0  0  0  0
  -17.4218  -26.6689   21.4014 H   0  0  0  0  0  0
  -18.0327  -26.0066   22.9005 H   0  0  0  0  0  0
  -19.7961  -30.7274   24.2251 H   0  0  0  0  0  0
  -17.5044  -31.6269   24.5176 H   0  0  0  0  0  0
  -15.5373  -30.3004   23.7653 H   0  0  0  0  0  0
  -15.8685  -28.0833   22.7072 H   0  0  0  0  0  0
  -24.5866  -30.7131   25.7759 H   0  0  0  0  0  0
  -24.8911  -32.2967   26.4802 H   0  0  0  0  0  0
  -25.7993  -30.8979   27.0236 H   0  0  0  0  0  0
  -26.2989  -29.6717   24.1240 H   0  0  0  0  0  0
  -27.4018  -29.7277   25.4796 H   0  0  0  0  0  0
  -27.8875  -30.4270   23.9541 H   0  0  0  0  0  0
  -27.2609  -33.3661   26.2028 H   0  0  0  0  0  0
  -28.3851  -32.6896   25.0331 H   0  0  0  0  0  0
  -28.0684  -31.8513   26.5448 H   0  0  0  0  0  0
  -28.2590  -38.0094   24.7516 H   0  0  0  0  0  0
  -28.1076  -36.2620   24.6281 H   0  0  0  0  0  0
  -27.2307  -37.1426   25.8877 H   0  0  0  0  0  0
  -20.9427  -29.8780   21.6849 H   0  0  0  0  0  0
  -26.0163  -38.2843   24.1406 H   0  0  0  0  0  0
  -27.8026  -22.6340   18.1146 H   0  0  0  0  0  0
  -29.8642  -20.5804   21.2340 H   0  0  0  0  0  0
  -31.2374  -23.3697   20.7370 H   0  0  0  0  0  0
  -30.7426  -25.0572   20.6664 H   0  0  0  0  0  0
  -30.7628  -24.0863   19.1996 H   0  0  0  0  0  0
  -29.5128  -22.9074   22.5314 H   0  0  0  0  0  0
  -27.8140  -23.2652   22.2501 H   0  0  0  0  0  0
  -28.9604  -24.5773   22.4884 H   0  0  0  0  0  0
  -27.6777  -22.1817   16.0770 H   0  0  0  0  0  0
  -27.8254  -20.9278   14.8961 H   0  0  0  0  0  0
  -29.2207  -21.3635   15.8665 H   0  0  0  0  0  0
  -25.8550  -21.1398   17.3726 H   0  0  0  0  0  0
  -25.8185  -19.4368   17.7619 H   0  0  0  0  0  0
  -25.7630  -19.9480   16.0906 H   0  0  0  0  0  0
  -29.2364  -18.8302   15.9765 H   0  0  0  0  0  0
  -27.6489  -18.7029   15.3238 H   0  0  0  0  0  0
  -27.9628  -17.9186   16.8093 H   0  0  0  0  0  0
  -27.9217  -16.5735   18.9556 H   0  0  0  0  0  0
  -27.1612  -18.1237   18.7378 H   0  0  0  0  0  0
  -27.3909  -17.5382   20.3327 H   0  0  0  0  0  0
  -29.8387  -17.0865   17.6679 H   0  0  0  0  0  0
  -31.1953  -17.5481   18.6435 H   0  0  0  0  0  0
  -30.4607  -18.7518   17.6786 H   0  0  0  0  0  0
  -29.4609  -17.7844   21.6151 H   0  0  0  0  0  0
  -30.9793  -17.6641   20.8055 H   0  0  0  0  0  0
  -27.1121  -24.5616   20.1953 H   0  0  0  0  0  0
  -28.1600  -24.7786   18.8242 H   0  0  0  0  0  0
  -28.8089  -15.6015   20.9167 H   0  0  0  0  0  0
  1 25  1  0  0  0
  1 30  2  0  0  0
  1 88  1  0  0  0
  2  3  1  0  0  0
  2 25  1  0  0  0
  2 89  1  0  0  0
  2 90  1  0  0  0
  3  4  1  0  0  0
  3 91  1  0  0  0
  3 92  1  0  0  0
  4  5  1  0  0  0
  4 93  1  0  0  0
  4 94  1  0  0  0
  5  6  1  0  0  0
  5 26  1  0  0  0
  5 95  1  0  0  0
  6 25  1  0  0  0
  6 96  1  0  0  0
  6 97  1  0  0  0
  7  8  2  0  0  0
  7 26  1  0  0  0
  7 29  1  0  0  0
  8  9  1  0  0  0
  8 22  1  0  0  0
  9 10  1  0  0  0
  9 27  2  0  0  0
 10 11  2  0  0  0
 10 15  1  0  0  0
 11 12  1  0  0  0
 11 98  1  0  0  0
 12 13  2  0  0  0
 12 99  1  0  0  0
 13 14  1  0  0  0
 13 31  1  0  0  0
 14 15  2  0  0  0
 14100  1  0  0  0
 15101  1  0  0  0
 16 17  2  0  0  0
 16 21  1  0  0  0
 16 31  1  0  0  0
 17 18  1  0  0  0
 17102  1  0  0  0
 18 19  2  0  0  0
 18103  1  0  0  0
 19 20  1  0  0  0
 19 24  1  0  0  0
 20 21  2  0  0  0
 20104  1  0  0  0
 21 23  1  0  0  0
 22 28  1  0  0  0
 22 32  2  0  0  0
 26 27  1  0  0  0
 28105  1  0  0  0
 28106  1  0  0  0
 29107  1  0  0  0
 29108  1  0  0  0
 33 34  1  0  0  0
 33 66  1  0  0  0
 33 70  2  0  0  0
 34 36  1  0  0  0
 34 59  1  0  0  0
 34109  1  0  0  0
 35 44  2  0  0  0
 35 45  1  0  0  0
 35 68  1  0  0  0
 36 56  1  0  0  0
 36110  1  0  0  0
 37 39  1  0  0  0
 37 47  1  0  0  0
 37 66  1  0  0  0
 37111  1  0  0  0
 38 43  2  0  0  0
 38 46  1  0  0  0
 38 47  1  0  0  0
 39 64  1  0  0  0
 39 67  2  0  0  0
 40 52  1  0  0  0
 40 53  2  0  0  0
 40 58  1  0  0  0
 41112  1  0  0  0
 41113  1  0  0  0
 41114  1  0  0  0
 41 48  1  0  0  0
 42 43  1  0  0  0
 42 66  1  0  0  0
 42115  1  0  0  0
 42116  1  0  0  0
 43 44  1  0  0  0
 44117  1  0  0  0
 45 46  2  0  0  0
 45118  1  0  0  0
 46119  1  0  0  0
 47120  1  0  0  0
 47121  1  0  0  0
 48 56  1  0  0  0
 48 65  1  0  0  0
 48122  1  0  0  0
 49 50  1  0  0  0
 49 53  1  0  0  0
 49 64  1  0  0  0
 49123  1  0  0  0
 50 51  1  0  0  0
 50124  1  0  0  0
 50125  1  0  0  0
 51 52  1  0  0  0
 51126  1  0  0  0
 51127  1  0  0  0
 52128  1  0  0  0
 52129  1  0  0  0
 53 54  1  0  0  0
 54 55  2  0  0  0
 54130  1  0  0  0
 55 57  1  0  0  0
 55131  1  0  0  0
 56 69  2  0  0  0
 57 58  2  0  0  0
 57132  1  0  0  0
 58133  1  0  0  0
 59 60  1  0  0  0
 59 61  1  0  0  0
 59 62  1  0  0  0
 60134  1  0  0  0
 60135  1  0  0  0
 60136  1  0  0  0
 61137  1  0  0  0
 61138  1  0  0  0
 61139  1  0  0  0
 62140  1  0  0  0
 62141  1  0  0  0
 62142  1  0  0  0
 63 65  1  0  0  0
 63143  1  0  0  0
 63144  1  0  0  0
 63145  1  0  0  0
 64146  1  0  0  0
 65147  1  0  0  0
 68 83  1  0  0  0
 71 73  1  0  0  0
 71 74  2  0  0  0
 71148  1  0  0  0
 72 73  2  0  0  0
 72 87  1  0  0  0
 72149  1  0  0  0
 73 84  1  0  0  0
 74 85  1  0  0  0
 74 87  1  0  0  0
 75150  1  0  0  0
 75151  1  0  0  0
 75152  1  0  0  0
 75 84  1  0  0  0
 76 84  1  0  0  0
 76153  1  0  0  0
 76154  1  0  0  0
 76155  1  0  0  0
 77156  1  0  0  0
 77157  1  0  0  0
 77158  1  0  0  0
 77 85  1  0  0  0
 78 85  1  0  0  0
 78159  1  0  0  0
 78160  1  0  0  0
 78161  1  0  0  0
 79 85  1  0  0  0
 79162  1  0  0  0
 79163  1  0  0  0
 79164  1  0  0  0
 80165  1  0  0  0
 80166  1  0  0  0
 80167  1  0  0  0
 80 86  1  0  0  0
 81 86  1  0  0  0
 81168  1  0  0  0
 81169  1  0  0  0
 81170  1  0  0  0
 82 86  1  0  0  0
 82 88  1  0  0  0
 82171  1  0  0  0
 82172  1  0  0  0
 83 84  1  0  0  0
 83173  1  0  0  0
 83174  1  0  0  0
 86 87  1  0  0  0
 88175  1  0  0  0
M  ISO  4   1 100  68 101  83 101  88 100
M  END
> <chiral flag>
0

> <version>
0

> <s_m_source_file>
/data/baiqing/PycharmProjects/Reinvent-master-3.2/result/LINK_invent/BTK/process_docking_weight1_custom_sum_contain_oxygen_bond_distance_aromatic_linkinvent_7_9_3/rearranged_h_0086.sdf

> <i_m_source_file_index>
37

> <r_mmod_Potential_Energy-OPLS-2005>
282.770050048828

> <r_mmod_Stretch_Energy-OPLS-2005>
177.80339050293

> <r_mmod_Bend_Energy-OPLS-2005>
274.560363769531

> <r_mmod_Torsional_Energy-OPLS-2005>
279.967163085938

> <r_mmod_Improper_Torsional_Energy-OPLS-2005>
4.56501626968384

> <r_mmod_Van_der_Waal_Energy-OPLS-2005>
142.301406860352

> <r_mmod_Electrostatic_Energy-OPLS-2005>
-507.662841796875

> <r_mmod_Solvation_Energy-OPLS-2005>
-193.347915649414

> <b_mmod_Minimization_Converged-OPLS-2005>
0

> <r_mmod_RMS_Derivative-OPLS-2005>
2.25624179840088

$$$$
37
                    3D
 Structure written by MMmdl.
160168  0  0  1  0            999 V2000
  -30.7306  -14.4965   20.5766 C   0  0  0  0  0  0
  -30.4253  -12.3406   19.4132 C   0  0  0  0  0  0
  -29.4854  -12.5213   18.2022 C   0  0  0  0  0  0
  -28.0150  -12.3606   18.6329 C   0  0  0  0  0  0
  -27.6640  -13.2092   19.8837 C   0  0  2  0  0  0
  -28.7137  -12.9843   20.9918 C   0  0  0  0  0  0
  -25.2570  -13.8125   20.5675 C   0  0  0  0  0  0
  -24.1839  -13.0400   20.9167 C   0  0  0  0  0  0
  -24.6420  -11.6862   20.8784 C   0  0  0  0  0  0
  -23.9078  -10.4239   21.0467 C   0  0  0  0  0  0
  -24.3613   -9.4123   21.9243 C   0  0  0  0  0  0
  -23.6277   -8.2172   22.0787 C   0  0  0  0  0  0
  -22.4265   -8.0238   21.3562 C   0  0  0  0  0  0
  -21.9909   -9.0214   20.4667 C   0  0  0  0  0  0
  -22.7254  -10.2089   20.3100 C   0  0  0  0  0  0
  -21.6816   -6.0705   22.5275 C   0  0  0  0  0  0
  -21.3990   -6.5629   23.8203 C   0  0  0  0  0  0
  -21.3666   -5.6802   24.9177 C   0  0  0  0  0  0
  -21.6068   -4.3058   24.7248 C   0  0  0  0  0  0
  -21.8811   -3.8133   23.4363 C   0  0  0  0  0  0
  -21.9181   -4.6938   22.3403 C   0  0  0  0  0  0
  -22.7848  -13.5178   21.1807 C   0  0  0  0  0  0
  -22.1666   -4.2116   21.0989 F   0  0  0  0  0  0
  -21.5634   -3.4555   25.7760 F   0  0  0  0  0  0
  -30.0332  -13.3257   20.4409 N   0  0  0  0  0  0
  -26.3051  -12.9336   20.3484 N   0  0  0  0  0  0
  -25.9360  -11.6478   20.5846 N   0  0  0  0  0  0
  -22.0524  -12.8202   22.0402 N   0  0  0  0  0  0
  -25.4265  -15.1827   20.3928 N   0  0  0  0  0  0
  -31.8657  -14.6102   20.1048 O   0  0  0  0  0  0
  -21.6622   -6.8849   21.4233 O   0  0  0  0  0  0
  -22.3531  -14.5492   20.6647 O   0  0  0  0  0  0
  -24.6157  -31.8667   23.2053 C   0  0  0  0  0  0
  -25.9044  -32.4814   23.8353 C   0  0  1  0  0  0
  -27.2552  -27.4163   20.0951 C   0  0  0  0  0  0
  -25.5888  -33.8610   24.2291 N   0  0  0  0  0  0
  -23.4057  -30.4852   21.5475 C   0  0  2  0  0  0
  -24.8583  -28.9506   20.1142 C   0  0  0  0  0  0
  -22.7427  -29.4637   22.4991 C   0  0  0  0  0  0
  -18.0280  -28.1373   22.8514 C   0  0  0  0  0  0
  -24.1477  -36.7309   23.2632 C   0  0  0  0  0  0
  -25.9350  -30.8258   21.3603 C   0  0  0  0  0  0
  -26.0171  -29.4558   20.7146 C   0  0  0  0  0  0
  -27.2114  -28.6938   20.7095 C   0  0  0  0  0  0
  -26.0762  -26.9461   19.4653 C   0  0  0  0  0  0
  -24.8840  -27.6949   19.4864 C   0  0  0  0  0  0
  -23.6164  -29.8120   20.1649 C   0  0  0  0  0  0
  -25.4095  -36.3103   24.0332 C   0  0  1  0  0  0
  -20.5871  -28.3651   23.1351 C   0  0  2  0  0  0
  -20.6770  -26.9382   22.5460 C   0  0  0  0  0  0
  -19.5740  -26.6368   21.5272 C   0  0  0  0  0  0
  -18.1915  -26.7924   22.1652 C   0  0  0  0  0  0
  -19.1528  -28.8837   23.2925 C   0  0  0  0  0  0
  -18.9450  -30.1454   23.8916 C   0  0  0  0  0  0
  -17.6447  -30.6575   24.0571 C   0  0  0  0  0  0
  -25.9053  -34.9470   23.5117 C   0  0  0  0  0  0
  -16.5350  -29.9073   23.6324 C   0  0  0  0  0  0
  -16.7269  -28.6493   23.0354 C   0  0  0  0  0  0
  -26.4461  -31.6563   25.0662 C   0  0  0  0  0  0
  -25.3717  -31.3643   26.1383 C   0  0  0  0  0  0
  -27.0283  -30.3008   24.6000 C   0  0  0  0  0  0
  -27.6003  -32.4268   25.7485 C   0  0  0  0  0  0
  -27.5592  -37.1788   24.8428 C   0  0  0  0  0  0
  -21.4153  -29.3004   22.3734 N   0  0  0  0  0  0
  -26.4257  -37.3810   23.9449 N   0  0  0  0  0  0
  -24.6707  -31.0735   22.0972 N   0  0  0  0  0  0
  -23.4190  -28.8200   23.3058 O   0  0  0  0  0  0
  -28.4383  -26.6827   20.1408 O   0  0  0  0  0  0
  -26.5630  -34.8936   22.4686 O   0  0  0  0  0  0
  -23.5345  -32.1429   23.7433 O   0  0  0  0  0  0
  -30.6836  -17.0226   21.0413 C   0  0  0  0  0  0
  -28.8045  -17.2388   22.0817 C   0  0  0  0  0  0
  -30.0949  -15.7692   21.1419 C   0  0  0  0  0  0
  -28.5982  -19.8913   19.8054 C   0  0  0  0  0  0
  -30.9273  -24.8548   20.2027 C   0  0  0  0  0  0
  -29.7525  -21.8376   21.0735 C   0  0  0  0  0  0
  -29.3224  -22.8866   20.0008 C   0  0  0  0  0  0
  -30.0721  -19.3996   21.8599 C   0  0  0  0  0  0
  -28.4534  -25.3084   19.6907 C   0  0  0  0  0  0
  -29.8210  -20.3345   20.6322 C   0  0  1  0  0  0
  -29.4773  -24.3863   20.4218 C   0  0  2  0  0  0
  -28.8806  -15.9353   21.8197 N   0  0  0  0  0  0
  -29.8521  -17.9584   21.6579 N   0  0  0  0  0  0
  -31.4613  -12.4441   19.0891 H   0  0  0  0  0  0
  -30.3468  -11.3289   19.8092 H   0  0  0  0  0  0
  -29.7237  -11.7920   17.4253 H   0  0  0  0  0  0
  -29.6360  -13.5047   17.7531 H   0  0  0  0  0  0
  -27.8545  -11.3059   18.8592 H   0  0  0  0  0  0
  -27.3436  -12.6001   17.8095 H   0  0  0  0  0  0
  -27.7085  -14.2586   19.5909 H   0  0  0  0  0  0
  -28.7064  -11.9369   21.2944 H   0  0  0  0  0  0
  -28.4725  -13.5279   21.9016 H   0  0  0  0  0  0
  -25.2762   -9.5546   22.4830 H   0  0  0  0  0  0
  -23.9948   -7.4537   22.7502 H   0  0  0  0  0  0
  -21.0851   -8.8741   19.8969 H   0  0  0  0  0  0
  -22.3749  -10.9630   19.6208 H   0  0  0  0  0  0
  -21.1979   -7.6145   23.9674 H   0  0  0  0  0  0
  -21.1525   -6.0565   25.9078 H   0  0  0  0  0  0
  -22.0598   -2.7595   23.2887 H   0  0  0  0  0  0
  -22.4158  -11.9876   22.4808 H   0  0  0  0  0  0
  -21.1132  -13.1221   22.2609 H   0  0  0  0  0  0
  -24.6656  -15.8460   20.4669 H   0  0  0  0  0  0
  -26.3058  -15.6069   20.1233 H   0  0  0  0  0  0
  -26.7112  -32.5543   23.1121 H   0  0  0  0  0  0
  -24.9978  -33.9741   25.0394 H   0  0  0  0  0  0
  -22.6948  -31.3012   21.4050 H   0  0  0  0  0  0
  -23.3774  -35.9599   23.3186 H   0  0  0  0  0  0
  -24.3611  -36.9047   22.2075 H   0  0  0  0  0  0
  -23.7166  -37.6446   23.6731 H   0  0  0  0  0  0
  -26.0368  -31.5826   20.5815 H   0  0  0  0  0  0
  -26.8286  -30.8954   21.9691 H   0  0  0  0  0  0
  -28.1003  -29.0805   21.1884 H   0  0  0  0  0  0
  -26.0455  -26.0022   18.9420 H   0  0  0  0  0  0
  -23.9989  -27.3005   19.0071 H   0  0  0  0  0  0
  -23.7183  -30.5831   19.4011 H   0  0  0  0  0  0
  -22.7435  -29.2236   19.8742 H   0  0  0  0  0  0
  -25.1257  -36.1944   25.0819 H   0  0  0  0  0  0
  -20.9968  -28.3246   24.1474 H   0  0  0  0  0  0
  -20.5739  -26.2258   23.3653 H   0  0  0  0  0  0
  -21.6637  -26.7460   22.1229 H   0  0  0  0  0  0
  -19.6905  -25.6294   21.1280 H   0  0  0  0  0  0
  -19.6683  -27.3214   20.6836 H   0  0  0  0  0  0
  -17.4207  -26.6723   21.4022 H   0  0  0  0  0  0
  -18.0252  -26.0057   22.9028 H   0  0  0  0  0  0
  -19.7918  -30.7286   24.2282 H   0  0  0  0  0  0
  -17.4993  -31.6255   24.5157 H   0  0  0  0  0  0
  -15.5358  -30.2987   23.7620 H   0  0  0  0  0  0
  -15.8667  -28.0834   22.7040 H   0  0  0  0  0  0
  -24.5921  -30.6961   25.7702 H   0  0  0  0  0  0
  -24.8866  -32.2784   26.4812 H   0  0  0  0  0  0
  -25.8060  -30.8821   27.0148 H   0  0  0  0  0  0
  -26.2818  -29.6799   24.1028 H   0  0  0  0  0  0
  -27.4049  -29.7191   25.4423 H   0  0  0  0  0  0
  -27.8648  -30.4330   23.9134 H   0  0  0  0  0  0
  -27.2606  -33.3598   26.1989 H   0  0  0  0  0  0
  -28.3888  -32.6758   25.0376 H   0  0  0  0  0  0
  -28.0556  -31.8409   26.5476 H   0  0  0  0  0  0
  -28.2468  -38.0222   24.7679 H   0  0  0  0  0  0
  -28.1228  -36.2770   24.5986 H   0  0  0  0  0  0
  -27.2349  -37.1102   25.8825 H   0  0  0  0  0  0
  -20.9327  -29.8681   21.6908 H   0  0  0  0  0  0
  -26.0127  -38.2853   24.1565 H   0  0  0  0  0  0
  -31.6257  -17.3003   20.5889 H   0  0  0  0  0  0
  -27.9702  -17.6839   22.6057 H   0  0  0  0  0  0
  -28.4809  -20.5077   18.9148 H   0  0  0  0  0  0
  -27.6775  -19.9465   20.3851 H   0  0  0  0  0  0
  -28.7117  -18.8680   19.4473 H   0  0  0  0  0  0
  -31.6386  -24.1974   20.7020 H   0  0  0  0  0  0
  -31.0853  -25.8586   20.5959 H   0  0  0  0  0  0
  -31.1871  -24.8701   19.1434 H   0  0  0  0  0  0
  -29.0643  -21.9308   21.9150 H   0  0  0  0  0  0
  -30.7317  -22.1178   21.4662 H   0  0  0  0  0  0
  -28.2753  -22.6998   19.7564 H   0  0  0  0  0  0
  -29.8645  -22.7179   19.0689 H   0  0  0  0  0  0
  -29.4156  -19.7082   22.6757 H   0  0  0  0  0  0
  -31.0847  -19.5442   22.2378 H   0  0  0  0  0  0
  -27.4855  -24.8405   19.8582 H   0  0  0  0  0  0
  -28.6402  -25.3035   18.6156 H   0  0  0  0  0  0
  -30.6866  -20.2356   19.9737 H   0  0  0  0  0  0
  -29.2615  -24.4589   21.4891 H   0  0  0  0  0  0
  1 25  1  0  0  0
  1 30  2  0  0  0
  1 73  1  0  0  0
  2  3  1  0  0  0
  2 25  1  0  0  0
  2 84  1  0  0  0
  2 85  1  0  0  0
  3  4  1  0  0  0
  3 86  1  0  0  0
  3 87  1  0  0  0
  4  5  1  0  0  0
  4 88  1  0  0  0
  4 89  1  0  0  0
  5  6  1  0  0  0
  5 26  1  0  0  0
  5 90  1  0  0  0
  6 25  1  0  0  0
  6 91  1  0  0  0
  6 92  1  0  0  0
  7  8  2  0  0  0
  7 26  1  0  0  0
  7 29  1  0  0  0
  8  9  1  0  0  0
  8 22  1  0  0  0
  9 10  1  0  0  0
  9 27  2  0  0  0
 10 11  2  0  0  0
 10 15  1  0  0  0
 11 12  1  0  0  0
 11 93  1  0  0  0
 12 13  2  0  0  0
 12 94  1  0  0  0
 13 14  1  0  0  0
 13 31  1  0  0  0
 14 15  2  0  0  0
 14 95  1  0  0  0
 15 96  1  0  0  0
 16 17  2  0  0  0
 16 21  1  0  0  0
 16 31  1  0  0  0
 17 18  1  0  0  0
 17 97  1  0  0  0
 18 19  2  0  0  0
 18 98  1  0  0  0
 19 20  1  0  0  0
 19 24  1  0  0  0
 20 21  2  0  0  0
 20 99  1  0  0  0
 21 23  1  0  0  0
 22 28  1  0  0  0
 22 32  2  0  0  0
 26 27  1  0  0  0
 28100  1  0  0  0
 28101  1  0  0  0
 29102  1  0  0  0
 29103  1  0  0  0
 33 34  1  0  0  0
 33 66  1  0  0  0
 33 70  2  0  0  0
 34 36  1  0  0  0
 34 59  1  0  0  0
 34104  1  0  0  0
 35 44  2  0  0  0
 35 45  1  0  0  0
 35 68  1  0  0  0
 36 56  1  0  0  0
 36105  1  0  0  0
 37 39  1  0  0  0
 37 47  1  0  0  0
 37 66  1  0  0  0
 37106  1  0  0  0
 38 43  2  0  0  0
 38 46  1  0  0  0
 38 47  1  0  0  0
 39 64  1  0  0  0
 39 67  2  0  0  0
 40 52  1  0  0  0
 40 53  2  0  0  0
 40 58  1  0  0  0
 41107  1  0  0  0
 41108  1  0  0  0
 41109  1  0  0  0
 41 48  1  0  0  0
 42 43  1  0  0  0
 42 66  1  0  0  0
 42110  1  0  0  0
 42111  1  0  0  0
 43 44  1  0  0  0
 44112  1  0  0  0
 45 46  2  0  0  0
 45113  1  0  0  0
 46114  1  0  0  0
 47115  1  0  0  0
 47116  1  0  0  0
 48 56  1  0  0  0
 48 65  1  0  0  0
 48117  1  0  0  0
 49 50  1  0  0  0
 49 53  1  0  0  0
 49 64  1  0  0  0
 49118  1  0  0  0
 50 51  1  0  0  0
 50119  1  0  0  0
 50120  1  0  0  0
 51 52  1  0  0  0
 51121  1  0  0  0
 51122  1  0  0  0
 52123  1  0  0  0
 52124  1  0  0  0
 53 54  1  0  0  0
 54 55  2  0  0  0
 54125  1  0  0  0
 55 57  1  0  0  0
 55126  1  0  0  0
 56 69  2  0  0  0
 57 58  2  0  0  0
 57127  1  0  0  0
 58128  1  0  0  0
 59 60  1  0  0  0
 59 61  1  0  0  0
 59 62  1  0  0  0
 60129  1  0  0  0
 60130  1  0  0  0
 60131  1  0  0  0
 61132  1  0  0  0
 61133  1  0  0  0
 61134  1  0  0  0
 62135  1  0  0  0
 62136  1  0  0  0
 62137  1  0  0  0
 63 65  1  0  0  0
 63138  1  0  0  0
 63139  1  0  0  0
 63140  1  0  0  0
 64141  1  0  0  0
 65142  1  0  0  0
 68 79  1  0  0  0
 71 73  2  0  0  0
 71 83  1  0  0  0
 71143  1  0  0  0
 72 82  2  0  0  0
 72 83  1  0  0  0
 72144  1  0  0  0
 73 82  1  0  0  0
 74145  1  0  0  0
 74146  1  0  0  0
 74147  1  0  0  0
 74 80  1  0  0  0
 75148  1  0  0  0
 75149  1  0  0  0
 75150  1  0  0  0
 75 81  1  0  0  0
 76 77  1  0  0  0
 76 80  1  0  0  0
 76151  1  0  0  0
 76152  1  0  0  0
 77 81  1  0  0  0
 77153  1  0  0  0
 77154  1  0  0  0
 78 80  1  0  0  0
 78 83  1  0  0  0
 78155  1  0  0  0
 78156  1  0  0  0
 79 81  1  0  0  0
 79157  1  0  0  0
 79158  1  0  0  0
 80159  1  0  0  0
 81160  1  0  0  0
M  ISO  4   1 100  68 101  73 100  79 101
M  END
> <chiral flag>
0

> <version>
0

> <s_m_source_file>
/data/baiqing/PycharmProjects/Reinvent-master-3.2/result/LINK_invent/BTK/process_docking_weight1_custom_sum_contain_oxygen_bond_distance_aromatic_linkinvent_7_9_3/rearranged_h_0086.sdf

> <i_m_source_file_index>
38

> <r_mmod_Potential_Energy-OPLS-2005>
110.991287231445

> <r_mmod_Stretch_Energy-OPLS-2005>
47.8975830078125

> <r_mmod_Bend_Energy-OPLS-2005>
130.530639648438

> <r_mmod_Torsional_Energy-OPLS-2005>
202.478302001953

> <r_mmod_Improper_Torsional_Energy-OPLS-2005>
3.48761940002441

> <r_mmod_Van_der_Waal_Energy-OPLS-2005>
132.776596069336

> <r_mmod_Electrostatic_Energy-OPLS-2005>
-238.449966430664

> <r_mmod_Solvation_Energy-OPLS-2005>
-184.518768310547

> <b_mmod_Minimization_Converged-OPLS-2005>
0

> <r_mmod_RMS_Derivative-OPLS-2005>
3.44719457626343

$$$$
38
                    3D
 Structure written by MMmdl.
161169  0  0  1  0            999 V2000
  -30.6082  -14.7496   20.4552 C   0  0  0  0  0  0
  -30.4285  -12.4574   19.4682 C   0  0  0  0  0  0
  -29.4981  -12.4957   18.2368 C   0  0  0  0  0  0
  -28.0313  -12.3130   18.6657 C   0  0  0  0  0  0
  -27.6389  -13.2279   19.8533 C   0  0  2  0  0  0
  -28.6865  -13.1737   20.9852 C   0  0  0  0  0  0
  -25.2502  -13.8208   20.5746 C   0  0  0  0  0  0
  -24.1800  -13.0435   20.9212 C   0  0  0  0  0  0
  -24.6389  -11.6893   20.8790 C   0  0  0  0  0  0
  -23.9070  -10.4279   21.0432 C   0  0  0  0  0  0
  -24.3619   -9.4198   21.9211 C   0  0  0  0  0  0
  -23.6299   -8.2241   22.0765 C   0  0  0  0  0  0
  -22.4291   -8.0287   21.3544 C   0  0  0  0  0  0
  -21.9922   -9.0261   20.4655 C   0  0  0  0  0  0
  -22.7240  -10.2135   20.3078 C   0  0  0  0  0  0
  -21.6855   -6.0745   22.5274 C   0  0  0  0  0  0
  -21.4013   -6.5653   23.8210 C   0  0  0  0  0  0
  -21.3667   -5.6810   24.9177 C   0  0  0  0  0  0
  -21.6039   -4.3070   24.7230 C   0  0  0  0  0  0
  -21.8824   -3.8153   23.4351 C   0  0  0  0  0  0
  -21.9191   -4.6971   22.3403 C   0  0  0  0  0  0
  -22.7827  -13.5217   21.1873 C   0  0  0  0  0  0
  -22.1668   -4.2151   21.0985 F   0  0  0  0  0  0
  -21.5626   -3.4553   25.7748 F   0  0  0  0  0  0
  -29.9805  -13.5252   20.3913 N   0  0  0  0  0  0
  -26.2939  -12.9400   20.3337 N   0  0  0  0  0  0
  -25.9319  -11.6533   20.5815 N   0  0  0  0  0  0
  -22.0499  -12.8200   22.0446 N   0  0  0  0  0  0
  -25.4170  -15.1936   20.4151 N   0  0  0  0  0  0
  -31.7984  -14.8402   20.1492 O   0  0  0  0  0  0
  -21.6652   -6.8879   21.4237 O   0  0  0  0  0  0
  -22.3523  -14.5543   20.6742 O   0  0  0  0  0  0
  -24.6457  -31.8416   23.1982 C   0  0  0  0  0  0
  -25.9252  -32.4617   23.8358 C   0  0  1  0  0  0
  -27.2060  -27.2226   20.1318 C   0  0  0  0  0  0
  -25.5953  -33.8437   24.2215 N   0  0  0  0  0  0
  -23.4417  -30.4725   21.5369 C   0  0  2  0  0  0
  -24.8845  -28.9256   20.1012 C   0  0  0  0  0  0
  -22.7553  -29.4545   22.4824 C   0  0  0  0  0  0
  -18.0327  -28.1393   22.8414 C   0  0  0  0  0  0
  -24.1501  -36.7315   23.2604 C   0  0  0  0  0  0
  -25.9929  -30.7481   21.3869 C   0  0  0  0  0  0
  -26.0585  -29.3708   20.7261 C   0  0  0  0  0  0
  -27.2212  -28.5306   20.7305 C   0  0  0  0  0  0
  -26.0172  -26.8714   19.4482 C   0  0  0  0  0  0
  -24.8761  -27.6887   19.4441 C   0  0  0  0  0  0
  -23.6540  -29.8052   20.1542 C   0  0  0  0  0  0
  -25.4096  -36.2927   24.0230 C   0  0  1  0  0  0
  -20.5939  -28.3694   23.1164 C   0  0  2  0  0  0
  -20.6802  -26.9387   22.5351 C   0  0  0  0  0  0
  -19.5778  -26.6377   21.5135 C   0  0  0  0  0  0
  -18.1978  -26.7924   22.1555 C   0  0  0  0  0  0
  -19.1579  -28.8875   23.2783 C   0  0  0  0  0  0
  -18.9455  -30.1478   23.8779 C   0  0  0  0  0  0
  -17.6431  -30.6535   24.0564 C   0  0  0  0  0  0
  -25.9027  -34.9299   23.4999 C   0  0  0  0  0  0
  -16.5329  -29.9030   23.6314 C   0  0  0  0  0  0
  -16.7309  -28.6505   23.0246 C   0  0  0  0  0  0
  -26.4604  -31.6475   25.0797 C   0  0  0  0  0  0
  -25.3767  -31.3683   26.1481 C   0  0  0  0  0  0
  -27.0495  -30.2828   24.6476 C   0  0  0  0  0  0
  -27.6145  -32.4298   25.7555 C   0  0  0  0  0  0
  -27.5570  -37.1722   24.8384 C   0  0  0  0  0  0
  -21.4268  -29.3011   22.3516 N   0  0  0  0  0  0
  -26.4252  -37.3639   23.9358 N   0  0  0  0  0  0
  -24.7126  -31.0384   22.0956 N   0  0  0  0  0  0
  -23.4193  -28.8028   23.2932 O   0  0  0  0  0  0
  -28.2746  -26.2922   20.2354 O   0  0  0  0  0  0
  -26.5659  -34.8775   22.4600 O   0  0  0  0  0  0
  -23.5581  -32.1262   23.7209 O   0  0  0  0  0  0
  -27.8317  -18.6226   22.0102 C   0  0  0  0  0  0
  -28.4923  -19.4532   21.0830 C   0  0  0  0  0  0
  -28.0244  -20.8537   20.9637 C   0  0  0  0  0  0
  -26.8005  -21.1384   21.6583 C   0  0  0  0  0  0
  -26.2610  -20.1990   22.5741 C   0  0  0  0  0  0
  -25.9816  -22.4025   21.3773 C   0  0  0  0  0  0
  -25.0161  -20.4543   23.4161 C   0  0  0  0  0  0
  -29.5693  -18.6660   20.2415 C   0  0  0  0  0  0
  -28.6410  -22.0418   20.0892 C   0  0  0  0  0  0
  -28.7691  -23.5763   20.6573 C   0  0  0  0  0  0
  -30.3224  -17.3424   20.8391 C   0  0  0  0  0  0
  -28.0707  -24.8301   19.8900 C   0  0  0  0  0  0
  -26.7900  -18.9864   22.7646 N   0  0  0  0  0  0
  -29.8433  -15.8939   20.6655 N   0  0  0  0  0  0
  -31.4663  -12.5820   19.1546 H   0  0  0  0  0  0
  -30.3795  -11.4855   19.9604 H   0  0  0  0  0  0
  -29.7767  -11.7188   17.5243 H   0  0  0  0  0  0
  -29.6106  -13.4494   17.7154 H   0  0  0  0  0  0
  -27.9066  -11.2687   18.9565 H   0  0  0  0  0  0
  -27.3600  -12.4746   17.8229 H   0  0  0  0  0  0
  -27.6317  -14.2453   19.4627 H   0  0  0  0  0  0
  -28.7261  -12.1822   21.4367 H   0  0  0  0  0  0
  -28.4248  -13.8645   21.7881 H   0  0  0  0  0  0
  -25.2744   -9.5695   22.4792 H   0  0  0  0  0  0
  -24.0003   -7.4648   22.7505 H   0  0  0  0  0  0
  -21.0839   -8.8784   19.8982 H   0  0  0  0  0  0
  -22.3690  -10.9686   19.6213 H   0  0  0  0  0  0
  -21.2020   -7.6160   23.9712 H   0  0  0  0  0  0
  -21.1490   -6.0540   25.9071 H   0  0  0  0  0  0
  -22.0598   -2.7613   23.2853 H   0  0  0  0  0  0
  -22.4125  -11.9809   22.4718 H   0  0  0  0  0  0
  -21.1152  -13.1246   22.2759 H   0  0  0  0  0  0
  -24.6437  -15.8378   20.5335 H   0  0  0  0  0  0
  -26.2549  -15.6390   20.0672 H   0  0  0  0  0  0
  -26.7340  -32.5277   23.1137 H   0  0  0  0  0  0
  -24.9907  -33.9553   25.0228 H   0  0  0  0  0  0
  -22.7444  -31.2974   21.3857 H   0  0  0  0  0  0
  -23.3627  -35.9788   23.3186 H   0  0  0  0  0  0
  -24.3609  -36.9152   22.2057 H   0  0  0  0  0  0
  -23.7455  -37.6525   23.6808 H   0  0  0  0  0  0
  -26.1390  -31.5057   20.6172 H   0  0  0  0  0  0
  -26.8754  -30.8030   22.0144 H   0  0  0  0  0  0
  -28.1247  -28.8468   21.2330 H   0  0  0  0  0  0
  -25.9256  -25.9445   18.9104 H   0  0  0  0  0  0
  -23.9861  -27.3558   18.9304 H   0  0  0  0  0  0
  -23.7581  -30.5732   19.3886 H   0  0  0  0  0  0
  -22.7813  -29.2197   19.8592 H   0  0  0  0  0  0
  -25.1302  -36.1693   25.0708 H   0  0  0  0  0  0
  -21.0072  -28.3337   24.1275 H   0  0  0  0  0  0
  -20.5656  -26.2293   23.3574 H   0  0  0  0  0  0
  -21.6640  -26.7372   22.1160 H   0  0  0  0  0  0
  -19.6898  -25.6285   21.1185 H   0  0  0  0  0  0
  -19.6729  -27.3142   20.6643 H   0  0  0  0  0  0
  -17.4220  -26.6619   21.3998 H   0  0  0  0  0  0
  -18.0398  -26.0113   22.9007 H   0  0  0  0  0  0
  -19.7926  -30.7365   24.2056 H   0  0  0  0  0  0
  -17.4949  -31.6186   24.5251 H   0  0  0  0  0  0
  -15.5301  -30.2826   23.7717 H   0  0  0  0  0  0
  -15.8750  -28.0819   22.6860 H   0  0  0  0  0  0
  -24.5945  -30.7044   25.7785 H   0  0  0  0  0  0
  -24.8921  -32.2842   26.4838 H   0  0  0  0  0  0
  -25.8009  -30.8879   27.0306 H   0  0  0  0  0  0
  -26.3165  -29.6432   24.1540 H   0  0  0  0  0  0
  -27.4090  -29.7240   25.5139 H   0  0  0  0  0  0
  -27.9084  -30.3994   23.9869 H   0  0  0  0  0  0
  -27.2784  -33.3650   26.2042 H   0  0  0  0  0  0
  -28.3985  -32.6793   25.0387 H   0  0  0  0  0  0
  -28.0803  -31.8502   26.5531 H   0  0  0  0  0  0
  -28.2378  -38.0204   24.7527 H   0  0  0  0  0  0
  -28.1277  -36.2699   24.6070 H   0  0  0  0  0  0
  -27.2299  -37.1235   25.8790 H   0  0  0  0  0  0
  -20.9468  -29.8719   21.6692 H   0  0  0  0  0  0
  -26.0040  -38.2656   24.1457 H   0  0  0  0  0  0
  -28.1191  -17.5912   22.1494 H   0  0  0  0  0  0
  -26.0320  -22.6907   20.3294 H   0  0  0  0  0  0
  -26.2812  -23.2413   22.0033 H   0  0  0  0  0  0
  -24.9170  -22.2451   21.5545 H   0  0  0  0  0  0
  -24.1136  -20.1740   22.8695 H   0  0  0  0  0  0
  -24.9342  -21.4975   23.7186 H   0  0  0  0  0  0
  -25.0381  -19.8644   24.3361 H   0  0  0  0  0  0
  -30.3427  -19.4025   20.0137 H   0  0  0  0  0  0
  -29.1230  -18.4213   19.2750 H   0  0  0  0  0  0
  -28.0741  -22.0805   19.1560 H   0  0  0  0  0  0
  -29.6395  -21.7266   19.7859 H   0  0  0  0  0  0
  -29.8343  -23.7932   20.7222 H   0  0  0  0  0  0
  -28.4482  -23.5885   21.6964 H   0  0  0  0  0  0
  -30.5254  -17.5021   21.9014 H   0  0  0  0  0  0
  -31.3118  -17.3635   20.3791 H   0  0  0  0  0  0
  -27.0144  -24.6008   19.9805 H   0  0  0  0  0  0
  -28.3118  -24.7330   18.8300 H   0  0  0  0  0  0
  -28.8597  -15.7276   20.8123 H   0  0  0  0  0  0
  1 25  1  0  0  0
  1 30  2  0  0  0
  1 84  1  0  0  0
  2  3  1  0  0  0
  2 25  1  0  0  0
  2 85  1  0  0  0
  2 86  1  0  0  0
  3  4  1  0  0  0
  3 87  1  0  0  0
  3 88  1  0  0  0
  4  5  1  0  0  0
  4 89  1  0  0  0
  4 90  1  0  0  0
  5  6  1  0  0  0
  5 26  1  0  0  0
  5 91  1  0  0  0
  6 25  1  0  0  0
  6 92  1  0  0  0
  6 93  1  0  0  0
  7  8  2  0  0  0
  7 26  1  0  0  0
  7 29  1  0  0  0
  8  9  1  0  0  0
  8 22  1  0  0  0
  9 10  1  0  0  0
  9 27  2  0  0  0
 10 11  2  0  0  0
 10 15  1  0  0  0
 11 12  1  0  0  0
 11 94  1  0  0  0
 12 13  2  0  0  0
 12 95  1  0  0  0
 13 14  1  0  0  0
 13 31  1  0  0  0
 14 15  2  0  0  0
 14 96  1  0  0  0
 15 97  1  0  0  0
 16 17  2  0  0  0
 16 21  1  0  0  0
 16 31  1  0  0  0
 17 18  1  0  0  0
 17 98  1  0  0  0
 18 19  2  0  0  0
 18 99  1  0  0  0
 19 20  1  0  0  0
 19 24  1  0  0  0
 20 21  2  0  0  0
 20100  1  0  0  0
 21 23  1  0  0  0
 22 28  1  0  0  0
 22 32  2  0  0  0
 26 27  1  0  0  0
 28101  1  0  0  0
 28102  1  0  0  0
 29103  1  0  0  0
 29104  1  0  0  0
 33 34  1  0  0  0
 33 66  1  0  0  0
 33 70  2  0  0  0
 34 36  1  0  0  0
 34 59  1  0  0  0
 34105  1  0  0  0
 35 44  2  0  0  0
 35 45  1  0  0  0
 35 68  1  0  0  0
 36 56  1  0  0  0
 36106  1  0  0  0
 37 39  1  0  0  0
 37 47  1  0  0  0
 37 66  1  0  0  0
 37107  1  0  0  0
 38 43  2  0  0  0
 38 46  1  0  0  0
 38 47  1  0  0  0
 39 64  1  0  0  0
 39 67  2  0  0  0
 40 52  1  0  0  0
 40 53  2  0  0  0
 40 58  1  0  0  0
 41108  1  0  0  0
 41109  1  0  0  0
 41110  1  0  0  0
 41 48  1  0  0  0
 42 43  1  0  0  0
 42 66  1  0  0  0
 42111  1  0  0  0
 42112  1  0  0  0
 43 44  1  0  0  0
 44113  1  0  0  0
 45 46  2  0  0  0
 45114  1  0  0  0
 46115  1  0  0  0
 47116  1  0  0  0
 47117  1  0  0  0
 48 56  1  0  0  0
 48 65  1  0  0  0
 48118  1  0  0  0
 49 50  1  0  0  0
 49 53  1  0  0  0
 49 64  1  0  0  0
 49119  1  0  0  0
 50 51  1  0  0  0
 50120  1  0  0  0
 50121  1  0  0  0
 51 52  1  0  0  0
 51122  1  0  0  0
 51123  1  0  0  0
 52124  1  0  0  0
 52125  1  0  0  0
 53 54  1  0  0  0
 54 55  2  0  0  0
 54126  1  0  0  0
 55 57  1  0  0  0
 55127  1  0  0  0
 56 69  2  0  0  0
 57 58  2  0  0  0
 57128  1  0  0  0
 58129  1  0  0  0
 59 60  1  0  0  0
 59 61  1  0  0  0
 59 62  1  0  0  0
 60130  1  0  0  0
 60131  1  0  0  0
 60132  1  0  0  0
 61133  1  0  0  0
 61134  1  0  0  0
 61135  1  0  0  0
 62136  1  0  0  0
 62137  1  0  0  0
 62138  1  0  0  0
 63 65  1  0  0  0
 63139  1  0  0  0
 63140  1  0  0  0
 63141  1  0  0  0
 64142  1  0  0  0
 65143  1  0  0  0
 68 82  1  0  0  0
 71 72  2  0  0  0
 71 83  1  0  0  0
 71144  1  0  0  0
 72 73  1  0  0  0
 72 78  1  0  0  0
 73 74  2  0  0  0
 73 79  1  0  0  0
 74 75  1  0  0  0
 74 76  1  0  0  0
 75 77  1  0  0  0
 75 83  2  0  0  0
 76145  1  0  0  0
 76146  1  0  0  0
 76147  1  0  0  0
 77148  1  0  0  0
 77149  1  0  0  0
 77150  1  0  0  0
 78 81  1  0  0  0
 78151  1  0  0  0
 78152  1  0  0  0
 79 80  1  0  0  0
 79153  1  0  0  0
 79154  1  0  0  0
 80 82  1  0  0  0
 80155  1  0  0  0
 80156  1  0  0  0
 81 84  1  0  0  0
 81157  1  0  0  0
 81158  1  0  0  0
 82159  1  0  0  0
 82160  1  0  0  0
 84161  1  0  0  0
M  ISO  4   1 100  68 101  82 101  84 100
M  END
> <chiral flag>
0

> <version>
0

> <s_m_source_file>
/data/baiqing/PycharmProjects/Reinvent-master-3.2/result/LINK_invent/BTK/process_docking_weight1_custom_sum_contain_oxygen_bond_distance_aromatic_linkinvent_7_9_3/rearranged_h_0086.sdf

> <i_m_source_file_index>
39

> <r_mmod_Potential_Energy-OPLS-2005>
48.1481704711914

> <r_mmod_Stretch_Energy-OPLS-2005>
148.740081787109

> <r_mmod_Bend_Energy-OPLS-2005>
208.461517333984

> <r_mmod_Torsional_Energy-OPLS-2005>
238.269058227539

> <r_mmod_Improper_Torsional_Energy-OPLS-2005>
5.21759939193726

> <r_mmod_Van_der_Waal_Energy-OPLS-2005>
154.422286987305

> <r_mmod_Electrostatic_Energy-OPLS-2005>
-585.635498046875

> <r_mmod_Solvation_Energy-OPLS-2005>
-225.547882080078

> <b_mmod_Minimization_Converged-OPLS-2005>
0

> <r_mmod_RMS_Derivative-OPLS-2005>
5.85981178283691

$$$$
40
                    3D
 Structure written by MMmdl.
188196  0  0  1  0            999 V2000
  -30.7355  -14.4089   20.6021 C   0  0  0  0  0  0
  -30.4128  -12.2841   19.4090 C   0  0  0  0  0  0
  -29.4879  -12.5105   18.1973 C   0  0  0  0  0  0
  -28.0087  -12.3778   18.6084 C   0  0  0  0  0  0
  -27.6617  -13.2070   19.8743 C   0  0  2  0  0  0
  -28.7009  -12.9720   20.9933 C   0  0  0  0  0  0
  -25.2591  -13.8174   20.5673 C   0  0  0  0  0  0
  -24.1843  -13.0450   20.9169 C   0  0  0  0  0  0
  -24.6389  -11.6915   20.8731 C   0  0  0  0  0  0
  -23.9060  -10.4304   21.0403 C   0  0  0  0  0  0
  -24.3609   -9.4221   21.9182 C   0  0  0  0  0  0
  -23.6293   -8.2258   22.0754 C   0  0  0  0  0  0
  -22.4281   -8.0289   21.3547 C   0  0  0  0  0  0
  -21.9905   -9.0257   20.4647 C   0  0  0  0  0  0
  -22.7228  -10.2142   20.3051 C   0  0  0  0  0  0
  -21.6850   -6.0744   22.5283 C   0  0  0  0  0  0
  -21.4012   -6.5643   23.8218 C   0  0  0  0  0  0
  -21.3658   -5.6793   24.9177 C   0  0  0  0  0  0
  -21.6036   -4.3056   24.7223 C   0  0  0  0  0  0
  -21.8824   -3.8152   23.4344 C   0  0  0  0  0  0
  -21.9195   -4.6973   22.3401 C   0  0  0  0  0  0
  -22.7870  -13.5254   21.1834 C   0  0  0  0  0  0
  -22.1664   -4.2159   21.0980 F   0  0  0  0  0  0
  -21.5627   -3.4539   25.7734 F   0  0  0  0  0  0
  -30.0358  -13.2581   20.4425 N   0  0  0  0  0  0
  -26.3026  -12.9334   20.3351 N   0  0  0  0  0  0
  -25.9317  -11.6501   20.5745 N   0  0  0  0  0  0
  -22.0483  -12.8256   22.0383 N   0  0  0  0  0  0
  -25.4337  -15.1881   20.4084 N   0  0  0  0  0  0
  -31.8638  -14.5801   20.1334 O   0  0  0  0  0  0
  -21.6642   -6.8884   21.4245 O   0  0  0  0  0  0
  -22.3563  -14.5564   20.6679 O   0  0  0  0  0  0
  -24.6088  -31.8721   23.2095 C   0  0  0  0  0  0
  -25.9006  -32.4849   23.8397 C   0  0  1  0  0  0
  -27.2442  -27.4802   20.1071 C   0  0  0  0  0  0
  -25.5889  -33.8632   24.2344 N   0  0  0  0  0  0
  -23.3958  -30.4961   21.5468 C   0  0  2  0  0  0
  -24.8472  -28.9603   20.1177 C   0  0  0  0  0  0
  -22.7379  -29.4692   22.4962 C   0  0  0  0  0  0
  -18.0303  -28.1411   22.8522 C   0  0  0  0  0  0
  -24.1464  -36.7327   23.2646 C   0  0  0  0  0  0
  -25.9189  -30.8517   21.3575 C   0  0  0  0  0  0
  -26.0012  -29.4872   20.7151 C   0  0  0  0  0  0
  -27.2013  -28.7518   20.7157 C   0  0  0  0  0  0
  -26.0864  -26.9578   19.4966 C   0  0  0  0  0  0
  -24.8826  -27.6914   19.5079 C   0  0  0  0  0  0
  -23.6059  -29.8242   20.1620 C   0  0  0  0  0  0
  -25.4084  -36.3110   24.0338 C   0  0  1  0  0  0
  -20.5882  -28.3684   23.1330 C   0  0  2  0  0  0
  -20.6773  -26.9434   22.5409 C   0  0  0  0  0  0
  -19.5745  -26.6413   21.5214 C   0  0  0  0  0  0
  -18.1933  -26.7969   22.1633 C   0  0  0  0  0  0
  -19.1541  -28.8869   23.2926 C   0  0  0  0  0  0
  -18.9470  -30.1483   23.8934 C   0  0  0  0  0  0
  -17.6467  -30.6602   24.0600 C   0  0  0  0  0  0
  -25.9022  -34.9495   23.5134 C   0  0  0  0  0  0
  -16.5371  -29.9103   23.6353 C   0  0  0  0  0  0
  -16.7295  -28.6525   23.0373 C   0  0  0  0  0  0
  -26.4478  -31.6623   25.0701 C   0  0  0  0  0  0
  -25.3754  -31.3738   26.1449 C   0  0  0  0  0  0
  -27.0342  -30.3083   24.6072 C   0  0  0  0  0  0
  -27.6068  -32.4354   25.7455 C   0  0  0  0  0  0
  -27.5577  -37.1812   24.8467 C   0  0  0  0  0  0
  -21.4117  -29.3029   22.3686 N   0  0  0  0  0  0
  -26.4271  -37.3793   23.9432 N   0  0  0  0  0  0
  -24.6591  -31.0861   22.0975 N   0  0  0  0  0  0
  -23.4161  -28.8255   23.3011 O   0  0  0  0  0  0
  -28.4039  -26.7531   20.1056 O   0  0  0  0  0  0
  -26.5572  -34.8964   22.4679 O   0  0  0  0  0  0
  -23.5294  -32.1471   23.7507 O   0  0  0  0  0  0
  -28.7642  -23.2224   19.7652 C   0  0  0  0  0  0
  -29.1279  -21.5968   21.4982 C   0  0  0  0  0  0
  -29.2869  -22.9161   21.0336 C   0  0  0  0  0  0
  -28.1073  -22.2280   19.0298 C   0  0  0  0  0  0
  -28.4699  -20.6485   20.6876 C   0  0  0  0  0  0
  -26.8017  -19.0433   21.6715 C   0  0  0  0  0  0
  -27.6880  -23.8039   14.7557 C   0  0  0  0  0  0
  -30.1747  -23.6039   14.7957 C   0  0  0  0  0  0
  -29.0387  -25.1024   16.4446 C   0  0  0  0  0  0
  -30.4312  -17.0517   18.7320 C   0  0  0  0  0  0
  -31.0972  -18.9639   20.1500 C   0  0  0  0  0  0
  -30.0202  -23.9508   21.8822 C   0  0  0  0  0  0
  -27.6480  -22.5484   17.6232 C   0  0  0  0  0  0
  -30.0069  -25.3950   21.3355 C   0  0  0  0  0  0
  -28.8439  -22.5644   16.6424 C   0  0  0  0  0  0
  -28.6723  -18.1252   20.1591 C   0  0  0  0  0  0
  -30.5626  -16.7943   21.2924 C   0  0  0  0  0  0
  -28.6115  -26.0500   21.3297 C   0  0  0  0  0  0
  -28.2511  -19.2167   21.1876 C   0  0  1  0  0  0
  -28.9200  -23.7688   15.6732 C   0  0  0  0  0  0
  -30.1783  -17.7284   20.0998 C   0  0  0  0  0  0
  -27.9493  -20.9666   19.4784 N   0  0  0  0  0  0
  -30.0663  -15.4185   21.1807 N   0  0  0  0  0  0
  -31.4580  -12.3716   19.1073 H   0  0  0  0  0  0
  -30.2993  -11.2704   19.7950 H   0  0  0  0  0  0
  -29.7222  -11.7972   17.4061 H   0  0  0  0  0  0
  -29.6649  -13.5015   17.7761 H   0  0  0  0  0  0
  -27.8079  -11.3214   18.7891 H   0  0  0  0  0  0
  -27.3624  -12.6702   17.7804 H   0  0  0  0  0  0
  -27.7123  -14.2579   19.5882 H   0  0  0  0  0  0
  -28.6659  -11.9356   21.3320 H   0  0  0  0  0  0
  -28.4673  -13.5729   21.8735 H   0  0  0  0  0  0
  -25.2760   -9.5706   22.4753 H   0  0  0  0  0  0
  -24.0009   -7.4649   22.7474 H   0  0  0  0  0  0
  -21.0844   -8.8774   19.8950 H   0  0  0  0  0  0
  -22.3690  -10.9678   19.6159 H   0  0  0  0  0  0
  -21.2000   -7.6152   23.9722 H   0  0  0  0  0  0
  -21.1469   -6.0522   25.9079 H   0  0  0  0  0  0
  -22.0598   -2.7618   23.2839 H   0  0  0  0  0  0
  -22.4088  -11.9905   22.4774 H   0  0  0  0  0  0
  -21.1106  -13.1305   22.2561 H   0  0  0  0  0  0
  -24.6702  -15.8464   20.5185 H   0  0  0  0  0  0
  -26.2863  -15.6212   20.0783 H   0  0  0  0  0  0
  -26.7060  -32.5586   23.1158 H   0  0  0  0  0  0
  -25.0039  -33.9799   25.0484 H   0  0  0  0  0  0
  -22.6847  -31.3126   21.4074 H   0  0  0  0  0  0
  -23.3716  -35.9673   23.3310 H   0  0  0  0  0  0
  -24.3564  -36.8917   22.2065 H   0  0  0  0  0  0
  -23.7223  -37.6534   23.6647 H   0  0  0  0  0  0
  -26.0228  -31.6148   20.5837 H   0  0  0  0  0  0
  -26.8087  -30.9088   21.9728 H   0  0  0  0  0  0
  -28.0907  -29.1546   21.1804 H   0  0  0  0  0  0
  -26.1140  -25.9832   19.0279 H   0  0  0  0  0  0
  -23.9943  -27.2798   19.0476 H   0  0  0  0  0  0
  -23.7144  -30.5978   19.4011 H   0  0  0  0  0  0
  -22.7302  -29.2416   19.8695 H   0  0  0  0  0  0
  -25.1255  -36.1977   25.0826 H   0  0  0  0  0  0
  -21.0058  -28.3248   24.1419 H   0  0  0  0  0  0
  -20.5689  -26.2304   23.3578 H   0  0  0  0  0  0
  -21.6647  -26.7459   22.1208 H   0  0  0  0  0  0
  -19.6873  -25.6314   21.1255 H   0  0  0  0  0  0
  -19.6691  -27.3218   20.6734 H   0  0  0  0  0  0
  -17.4221  -26.6807   21.4014 H   0  0  0  0  0  0
  -18.0310  -26.0082   22.9004 H   0  0  0  0  0  0
  -19.7930  -30.7336   24.2277 H   0  0  0  0  0  0
  -17.5006  -31.6280   24.5207 H   0  0  0  0  0  0
  -15.5366  -30.2992   23.7652 H   0  0  0  0  0  0
  -15.8719  -28.0840   22.7032 H   0  0  0  0  0  0
  -24.5878  -30.7143   25.7779 H   0  0  0  0  0  0
  -24.9006  -32.2906   26.4961 H   0  0  0  0  0  0
  -25.8104  -30.8850   27.0167 H   0  0  0  0  0  0
  -26.2879  -29.6760   24.1237 H   0  0  0  0  0  0
  -27.4252  -29.7414   25.4530 H   0  0  0  0  0  0
  -27.8643  -30.4434   23.9127 H   0  0  0  0  0  0
  -27.2692  -33.3628   26.2109 H   0  0  0  0  0  0
  -28.3841  -32.6962   25.0252 H   0  0  0  0  0  0
  -28.0779  -31.8431   26.5302 H   0  0  0  0  0  0
  -28.2606  -38.0105   24.7519 H   0  0  0  0  0  0
  -28.1073  -36.2650   24.6271 H   0  0  0  0  0  0
  -27.2339  -37.1432   25.8883 H   0  0  0  0  0  0
  -20.9277  -29.8735   21.6908 H   0  0  0  0  0  0
  -26.0164  -38.2874   24.1420 H   0  0  0  0  0  0
  -28.8698  -24.2009   19.3229 H   0  0  0  0  0  0
  -29.5124  -21.3144   22.4688 H   0  0  0  0  0  0
  -26.5736  -19.7765   22.4457 H   0  0  0  0  0  0
  -26.6387  -18.0559   22.1015 H   0  0  0  0  0  0
  -26.0878  -19.1862   20.8613 H   0  0  0  0  0  0
  -27.7499  -24.6318   14.0478 H   0  0  0  0  0  0
  -26.7641  -23.9306   15.3187 H   0  0  0  0  0  0
  -27.5986  -22.8858   14.1737 H   0  0  0  0  0  0
  -30.2694  -24.4130   14.0687 H   0  0  0  0  0  0
  -30.1470  -22.6686   14.2355 H   0  0  0  0  0  0
  -31.0883  -23.5962   15.3915 H   0  0  0  0  0  0
  -29.2141  -25.9390   15.7678 H   0  0  0  0  0  0
  -29.8691  -25.0818   17.1541 H   0  0  0  0  0  0
  -28.1371  -25.3439   17.0080 H   0  0  0  0  0  0
  -30.2652  -17.7474   17.9089 H   0  0  0  0  0  0
  -29.7712  -16.2014   18.5605 H   0  0  0  0  0  0
  -31.4588  -16.6983   18.6422 H   0  0  0  0  0  0
  -30.8292  -19.6971   19.3873 H   0  0  0  0  0  0
  -32.1383  -18.6877   19.9789 H   0  0  0  0  0  0
  -31.0633  -19.4612   21.1190 H   0  0  0  0  0  0
  -31.0556  -23.6190   21.9722 H   0  0  0  0  0  0
  -29.5991  -23.9320   22.8884 H   0  0  0  0  0  0
  -27.1409  -23.5111   17.6652 H   0  0  0  0  0  0
  -26.8891  -21.8404   17.2882 H   0  0  0  0  0  0
  -30.4458  -25.4081   20.3354 H   0  0  0  0  0  0
  -30.6733  -26.0060   21.9473 H   0  0  0  0  0  0
  -28.8489  -21.6237   16.0900 H   0  0  0  0  0  0
  -29.7743  -22.5457   17.2139 H   0  0  0  0  0  0
  -28.3270  -18.4257   19.1686 H   0  0  0  0  0  0
  -28.1052  -17.2176   20.3655 H   0  0  0  0  0  0
  -30.1899  -17.2068   22.2298 H   0  0  0  0  0  0
  -31.6472  -16.7709   21.4150 H   0  0  0  0  0  0
  -28.5197  -26.7168   22.1903 H   0  0  0  0  0  0
  -27.8257  -25.3009   21.4344 H   0  0  0  0  0  0
  -28.8724  -19.0866   22.0734 H   0  0  0  0  0  0
  -29.1414  -15.2212   21.5306 H   0  0  0  0  0  0
  1 25  1  0  0  0
  1 30  2  0  0  0
  1 93  1  0  0  0
  2  3  1  0  0  0
  2 25  1  0  0  0
  2 94  1  0  0  0
  2 95  1  0  0  0
  3  4  1  0  0  0
  3 96  1  0  0  0
  3 97  1  0  0  0
  4  5  1  0  0  0
  4 98  1  0  0  0
  4 99  1  0  0  0
  5  6  1  0  0  0
  5 26  1  0  0  0
  5100  1  0  0  0
  6 25  1  0  0  0
  6101  1  0  0  0
  6102  1  0  0  0
  7  8  2  0  0  0
  7 26  1  0  0  0
  7 29  1  0  0  0
  8  9  1  0  0  0
  8 22  1  0  0  0
  9 10  1  0  0  0
  9 27  2  0  0  0
 10 11  2  0  0  0
 10 15  1  0  0  0
 11 12  1  0  0  0
 11103  1  0  0  0
 12 13  2  0  0  0
 12104  1  0  0  0
 13 14  1  0  0  0
 13 31  1  0  0  0
 14 15  2  0  0  0
 14105  1  0  0  0
 15106  1  0  0  0
 16 17  2  0  0  0
 16 21  1  0  0  0
 16 31  1  0  0  0
 17 18  1  0  0  0
 17107  1  0  0  0
 18 19  2  0  0  0
 18108  1  0  0  0
 19 20  1  0  0  0
 19 24  1  0  0  0
 20 21  2  0  0  0
 20109  1  0  0  0
 21 23  1  0  0  0
 22 28  1  0  0  0
 22 32  2  0  0  0
 26 27  1  0  0  0
 28110  1  0  0  0
 28111  1  0  0  0
 29112  1  0  0  0
 29113  1  0  0  0
 33 34  1  0  0  0
 33 66  1  0  0  0
 33 70  2  0  0  0
 34 36  1  0  0  0
 34 59  1  0  0  0
 34114  1  0  0  0
 35 44  2  0  0  0
 35 45  1  0  0  0
 35 68  1  0  0  0
 36 56  1  0  0  0
 36115  1  0  0  0
 37 39  1  0  0  0
 37 47  1  0  0  0
 37 66  1  0  0  0
 37116  1  0  0  0
 38 43  2  0  0  0
 38 46  1  0  0  0
 38 47  1  0  0  0
 39 64  1  0  0  0
 39 67  2  0  0  0
 40 52  1  0  0  0
 40 53  2  0  0  0
 40 58  1  0  0  0
 41117  1  0  0  0
 41118  1  0  0  0
 41119  1  0  0  0
 41 48  1  0  0  0
 42 43  1  0  0  0
 42 66  1  0  0  0
 42120  1  0  0  0
 42121  1  0  0  0
 43 44  1  0  0  0
 44122  1  0  0  0
 45 46  2  0  0  0
 45123  1  0  0  0
 46124  1  0  0  0
 47125  1  0  0  0
 47126  1  0  0  0
 48 56  1  0  0  0
 48 65  1  0  0  0
 48127  1  0  0  0
 49 50  1  0  0  0
 49 53  1  0  0  0
 49 64  1  0  0  0
 49128  1  0  0  0
 50 51  1  0  0  0
 50129  1  0  0  0
 50130  1  0  0  0
 51 52  1  0  0  0
 51131  1  0  0  0
 51132  1  0  0  0
 52133  1  0  0  0
 52134  1  0  0  0
 53 54  1  0  0  0
 54 55  2  0  0  0
 54135  1  0  0  0
 55 57  1  0  0  0
 55136  1  0  0  0
 56 69  2  0  0  0
 57 58  2  0  0  0
 57137  1  0  0  0
 58138  1  0  0  0
 59 60  1  0  0  0
 59 61  1  0  0  0
 59 62  1  0  0  0
 60139  1  0  0  0
 60140  1  0  0  0
 60141  1  0  0  0
 61142  1  0  0  0
 61143  1  0  0  0
 61144  1  0  0  0
 62145  1  0  0  0
 62146  1  0  0  0
 62147  1  0  0  0
 63 65  1  0  0  0
 63148  1  0  0  0
 63149  1  0  0  0
 63150  1  0  0  0
 64151  1  0  0  0
 65152  1  0  0  0
 68 88  1  0  0  0
 71 73  2  0  0  0
 71 74  1  0  0  0
 71153  1  0  0  0
 72 73  1  0  0  0
 72 75  2  0  0  0
 72154  1  0  0  0
 73 82  1  0  0  0
 74 83  1  0  0  0
 74 92  2  0  0  0
 75 89  1  0  0  0
 75 92  1  0  0  0
 76155  1  0  0  0
 76156  1  0  0  0
 76157  1  0  0  0
 76 89  1  0  0  0
 77158  1  0  0  0
 77159  1  0  0  0
 77160  1  0  0  0
 77 90  1  0  0  0
 78 90  1  0  0  0
 78161  1  0  0  0
 78162  1  0  0  0
 78163  1  0  0  0
 79 90  1  0  0  0
 79164  1  0  0  0
 79165  1  0  0  0
 79166  1  0  0  0
 80167  1  0  0  0
 80168  1  0  0  0
 80169  1  0  0  0
 80 91  1  0  0  0
 81 91  1  0  0  0
 81170  1  0  0  0
 81171  1  0  0  0
 81172  1  0  0  0
 82 84  1  0  0  0
 82173  1  0  0  0
 82174  1  0  0  0
 83 85  1  0  0  0
 83175  1  0  0  0
 83176  1  0  0  0
 84 88  1  0  0  0
 84177  1  0  0  0
 84178  1  0  0  0
 85 90  1  0  0  0
 85179  1  0  0  0
 85180  1  0  0  0
 86 89  1  0  0  0
 86 91  1  0  0  0
 86181  1  0  0  0
 86182  1  0  0  0
 87 91  1  0  0  0
 87 93  1  0  0  0
 87183  1  0  0  0
 87184  1  0  0  0
 88185  1  0  0  0
 88186  1  0  0  0
 89187  1  0  0  0
 93188  1  0  0  0
M  ISO  4   1 100  68 101  88 101  93 100
M  END
> <chiral flag>
0

> <version>
0

> <s_m_source_file>
/data/baiqing/PycharmProjects/Reinvent-master-3.2/result/LINK_invent/BTK/process_docking_weight1_custom_sum_contain_oxygen_bond_distance_aromatic_linkinvent_7_9_3/rearranged_h_0086.sdf

> <i_m_source_file_index>
40

> <r_mmod_Potential_Energy-OPLS-2005>
-252.143569946289

> <r_mmod_Stretch_Energy-OPLS-2005>
36.0632400512695

> <r_mmod_Bend_Energy-OPLS-2005>
107.744956970215

> <r_mmod_Torsional_Energy-OPLS-2005>
260.622009277344

> <r_mmod_Improper_Torsional_Energy-OPLS-2005>
3.46955752372742

> <r_mmod_Van_der_Waal_Energy-OPLS-2005>
154.251541137695

> <r_mmod_Electrostatic_Energy-OPLS-2005>
-631.456970214844

> <r_mmod_Solvation_Energy-OPLS-2005>
-192.598159790039

> <b_mmod_Minimization_Converged-OPLS-2005>
0

> <r_mmod_RMS_Derivative-OPLS-2005>
3.11014080047607

$$$$
41
                    3D
 Structure written by MMmdl.
195203  0  0  1  0            999 V2000
  -30.7266  -14.5515   20.5280 C   0  0  0  0  0  0
  -30.4112  -12.3419   19.4798 C   0  0  0  0  0  0
  -29.5209  -12.4965   18.2267 C   0  0  0  0  0  0
  -28.0421  -12.3284   18.6259 C   0  0  0  0  0  0
  -27.6527  -13.2257   19.8327 C   0  0  2  0  0  0
  -28.6821  -13.1292   20.9875 C   0  0  0  0  0  0
  -25.2590  -13.8255   20.5684 C   0  0  0  0  0  0
  -24.1856  -13.0425   20.9182 C   0  0  0  0  0  0
  -24.6437  -11.6953   20.8724 C   0  0  0  0  0  0
  -23.9145  -10.4283   21.0398 C   0  0  0  0  0  0
  -24.3657   -9.4221   21.9179 C   0  0  0  0  0  0
  -23.6308   -8.2265   22.0792 C   0  0  0  0  0  0
  -22.4315   -8.0315   21.3554 C   0  0  0  0  0  0
  -21.9947   -9.0296   20.4683 C   0  0  0  0  0  0
  -22.7297  -10.2153   20.3058 C   0  0  0  0  0  0
  -21.6845   -6.0770   22.5308 C   0  0  0  0  0  0
  -21.3996   -6.5656   23.8252 C   0  0  0  0  0  0
  -21.3660   -5.6821   24.9199 C   0  0  0  0  0  0
  -21.6059   -4.3088   24.7265 C   0  0  0  0  0  0
  -21.8802   -3.8167   23.4371 C   0  0  0  0  0  0
  -21.9177   -4.6981   22.3430 C   0  0  0  0  0  0
  -22.7870  -13.5285   21.1833 C   0  0  0  0  0  0
  -22.1664   -4.2190   21.1000 F   0  0  0  0  0  0
  -21.5644   -3.4560   25.7763 F   0  0  0  0  0  0
  -30.0225  -13.3845   20.4441 N   0  0  0  0  0  0
  -26.3005  -12.9439   20.3132 N   0  0  0  0  0  0
  -25.9364  -11.6609   20.5643 N   0  0  0  0  0  0
  -22.0454  -12.8255   22.0375 N   0  0  0  0  0  0
  -25.4259  -15.1971   20.4290 N   0  0  0  0  0  0
  -31.8548  -14.6737   20.0481 O   0  0  0  0  0  0
  -21.6639   -6.8925   21.4297 O   0  0  0  0  0  0
  -22.3599  -14.5571   20.6711 O   0  0  0  0  0  0
  -24.6304  -31.8652   23.2197 C   0  0  0  0  0  0
  -25.9252  -32.4802   23.8413 C   0  0  1  0  0  0
  -27.1432  -27.3065   20.1128 C   0  0  0  0  0  0
  -25.6136  -33.8601   24.2389 N   0  0  0  0  0  0
  -23.4250  -30.4965   21.5665 C   0  0  2  0  0  0
  -24.8587  -28.9895   20.0928 C   0  0  0  0  0  0
  -22.7455  -29.4753   22.4999 C   0  0  0  0  0  0
  -18.0270  -28.1436   22.8666 C   0  0  0  0  0  0
  -24.1508  -36.7348   23.2566 C   0  0  0  0  0  0
  -25.9629  -30.7746   21.4104 C   0  0  0  0  0  0
  -26.0191  -29.4068   20.7578 C   0  0  0  0  0  0
  -27.1601  -28.5522   20.8058 C   0  0  0  0  0  0
  -26.0425  -27.0390   19.2961 C   0  0  0  0  0  0
  -24.8720  -27.8041   19.3585 C   0  0  0  0  0  0
  -23.6336  -29.8731   20.1648 C   0  0  0  0  0  0
  -25.4144  -36.3100   24.0243 C   0  0  1  0  0  0
  -20.5847  -28.3899   23.1243 C   0  0  2  0  0  0
  -20.6908  -26.9690   22.5256 C   0  0  0  0  0  0
  -19.5626  -26.6483   21.5411 C   0  0  0  0  0  0
  -18.1911  -26.7922   22.2002 C   0  0  0  0  0  0
  -19.1490  -28.8996   23.2891 C   0  0  0  0  0  0
  -18.9399  -30.1628   23.8850 C   0  0  0  0  0  0
  -17.6395  -30.6702   24.0600 C   0  0  0  0  0  0
  -25.9067  -34.9465   23.5088 C   0  0  0  0  0  0
  -16.5327  -29.9168   23.6362 C   0  0  0  0  0  0
  -16.7275  -28.6514   23.0524 C   0  0  0  0  0  0
  -26.4605  -31.6475   25.0688 C   0  0  0  0  0  0
  -25.3785  -31.3716   26.1387 C   0  0  0  0  0  0
  -27.0376  -30.2890   24.6021 C   0  0  0  0  0  0
  -27.6092  -32.4271   25.7449 C   0  0  0  0  0  0
  -27.5572  -37.1805   24.8424 C   0  0  0  0  0  0
  -21.4169  -29.3276   22.3764 N   0  0  0  0  0  0
  -26.4325  -37.3812   23.9327 N   0  0  0  0  0  0
  -24.6913  -31.0581   22.1239 N   0  0  0  0  0  0
  -23.4119  -28.8250   23.3106 O   0  0  0  0  0  0
  -28.1831  -26.3853   20.1136 O   0  0  0  0  0  0
  -26.5549  -34.8932   22.4578 O   0  0  0  0  0  0
  -23.5496  -32.1633   23.7439 O   0  0  0  0  0  0
  -25.9388  -24.0099   19.3436 C   0  0  0  0  0  0
  -27.2131  -23.9318   19.8798 C   0  0  0  0  0  0
  -26.5094  -22.0680   18.8229 C   0  0  0  0  0  0
  -21.3527  -25.8618   18.3858 C   0  0  0  0  0  0
  -26.4271  -24.6160   22.7567 C   0  0  0  0  0  0
  -29.1506  -17.3867   18.9245 C   0  0  0  0  0  0
  -29.5867  -24.7204   20.4733 C   0  0  0  0  0  0
  -24.7377  -20.7495   17.5492 C   0  0  0  0  0  0
  -25.7665  -19.7520   19.5403 C   0  0  0  0  0  0
  -27.0324  -20.0223   17.3413 C   0  0  0  0  0  0
  -28.8523  -19.0541   22.3134 C   0  0  0  0  0  0
  -24.6062  -24.4155   19.9278 C   0  0  0  0  0  0
  -22.2656  -25.3026   19.4734 C   0  0  0  0  0  0
  -27.8097  -25.0314   22.2216 C   0  0  0  0  0  0
  -23.5297  -24.6892   18.8635 C   0  0  0  0  0  0
  -28.1291  -21.6197   20.7720 C   0  0  0  0  0  0
  -30.5861  -17.0296   21.0280 C   0  0  0  0  0  0
  -29.0553  -20.4684   20.2394 C   0  0  0  0  0  0
  -29.7926  -18.0669   20.1514 C   0  0  2  0  0  0
  -28.0769  -24.9975   20.6849 C   0  0  1  0  0  0
  -26.0714  -20.6712   18.3487 C   0  0  0  0  0  0
  -25.8202  -23.0739   18.3577 N   0  0  0  0  0  0
  -27.3901  -22.4901   19.8054 N   0  0  0  0  0  0
  -30.0785  -15.6272   21.0296 N   0  0  0  0  0  0
  -28.8935  -19.0801   20.8301 N   0  3  1  0  0  0
  -31.4683  -12.3839   19.2071 H   0  0  0  0  0  0
  -30.2586  -11.3614   19.9328 H   0  0  0  0  0  0
  -29.7905  -11.7466   17.4829 H   0  0  0  0  0  0
  -29.6815  -13.4671   17.7539 H   0  0  0  0  0  0
  -27.8888  -11.2780   18.8821 H   0  0  0  0  0  0
  -27.3972  -12.5168   17.7687 H   0  0  0  0  0  0
  -27.6563  -14.2493   19.4523 H   0  0  0  0  0  0
  -28.6569  -12.1479   21.4641 H   0  0  0  0  0  0
  -28.4140  -13.8429   21.7729 H   0  0  0  0  0  0
  -25.2782   -9.5711   22.4758 H   0  0  0  0  0  0
  -23.9984   -7.4695   22.7520 H   0  0  0  0  0  0
  -21.0866   -8.8850   19.9009 H   0  0  0  0  0  0
  -22.3757  -10.9700   19.6182 H   0  0  0  0  0  0
  -21.1978   -7.6160   23.9784 H   0  0  0  0  0  0
  -21.1495   -6.0524   25.9116 H   0  0  0  0  0  0
  -22.0552   -2.7627   23.2861 H   0  0  0  0  0  0
  -22.3971  -11.9923   22.4792 H   0  0  0  0  0  0
  -21.1121  -13.1441   22.2516 H   0  0  0  0  0  0
  -24.6526  -15.8383   20.5898 H   0  0  0  0  0  0
  -26.2891  -15.6652   20.1815 H   0  0  0  0  0  0
  -26.7290  -32.5495   23.1103 H   0  0  0  0  0  0
  -25.0208  -33.9689   25.0522 H   0  0  0  0  0  0
  -22.7299  -31.3257   21.4407 H   0  0  0  0  0  0
  -23.3765  -35.9686   23.3255 H   0  0  0  0  0  0
  -24.3527  -36.8991   22.1966 H   0  0  0  0  0  0
  -23.7330  -37.6582   23.6593 H   0  0  0  0  0  0
  -26.0893  -31.5193   20.6261 H   0  0  0  0  0  0
  -26.8500  -30.8375   22.0254 H   0  0  0  0  0  0
  -28.0105  -28.8290   21.4198 H   0  0  0  0  0  0
  -26.0826  -26.2360   18.5857 H   0  0  0  0  0  0
  -24.0057  -27.5205   18.7826 H   0  0  0  0  0  0
  -23.7440  -30.6762   19.4327 H   0  0  0  0  0  0
  -22.7544  -29.3118   19.8468 H   0  0  0  0  0  0
  -25.1316  -36.1886   25.0736 H   0  0  0  0  0  0
  -20.9876  -28.3638   24.1373 H   0  0  0  0  0  0
  -20.6257  -26.2601   23.3506 H   0  0  0  0  0  0
  -21.6673  -26.8050   22.0679 H   0  0  0  0  0  0
  -19.6713  -25.6504   21.1163 H   0  0  0  0  0  0
  -19.6051  -27.3545   20.7136 H   0  0  0  0  0  0
  -17.3970  -26.6467   21.4644 H   0  0  0  0  0  0
  -18.0418  -26.0316   22.9617 H   0  0  0  0  0  0
  -19.7906  -30.7513   24.1951 H   0  0  0  0  0  0
  -17.4864  -31.6349   24.5264 H   0  0  0  0  0  0
  -15.5369  -30.3043   23.7820 H   0  0  0  0  0  0
  -15.8668  -28.0725   22.7430 H   0  0  0  0  0  0
  -24.5883  -30.7138   25.7778 H   0  0  0  0  0  0
  -24.9020  -32.2966   26.4619 H   0  0  0  0  0  0
  -25.8039  -30.8988   27.0237 H   0  0  0  0  0  0
  -26.2869  -29.6727   24.1055 H   0  0  0  0  0  0
  -27.4256  -29.6984   25.4317 H   0  0  0  0  0  0
  -27.8723  -30.4234   23.9146 H   0  0  0  0  0  0
  -27.2529  -33.3534   26.1980 H   0  0  0  0  0  0
  -28.3883  -32.6935   25.0296 H   0  0  0  0  0  0
  -28.0828  -31.8493   26.5366 H   0  0  0  0  0  0
  -28.2549  -38.0137   24.7536 H   0  0  0  0  0  0
  -28.1114  -36.2640   24.6238 H   0  0  0  0  0  0
  -27.2180  -37.1487   25.8799 H   0  0  0  0  0  0
  -20.9364  -29.8815   21.6832 H   0  0  0  0  0  0
  -26.0192  -38.2880   24.1380 H   0  0  0  0  0  0
  -21.8745  -26.5854   17.7589 H   0  0  0  0  0  0
  -20.4998  -26.3780   18.8213 H   0  0  0  0  0  0
  -20.9802  -25.0556   17.7506 H   0  0  0  0  0  0
  -26.0497  -23.6913   22.3195 H   0  0  0  0  0  0
  -25.6989  -25.4115   22.6091 H   0  0  0  0  0  0
  -26.4849  -24.4279   23.8296 H   0  0  0  0  0  0
  -29.8866  -16.7627   18.4162 H   0  0  0  0  0  0
  -28.8402  -18.0738   18.1558 H   0  0  0  0  0  0
  -28.2830  -16.7786   19.1717 H   0  0  0  0  0  0
  -29.8067  -24.5891   19.4149 H   0  0  0  0  0  0
  -29.9632  -23.8539   21.0033 H   0  0  0  0  0  0
  -30.2115  -25.5528   20.8089 H   0  0  0  0  0  0
  -23.9282  -21.1907   18.1341 H   0  0  0  0  0  0
  -24.4006  -19.7557   17.2439 H   0  0  0  0  0  0
  -24.8433  -21.3463   16.6384 H   0  0  0  0  0  0
  -25.0613  -20.2159   20.2348 H   0  0  0  0  0  0
  -26.6481  -19.5284   20.1084 H   0  0  0  0  0  0
  -25.3693  -18.7846   19.2300 H   0  0  0  0  0  0
  -27.2722  -20.6620   16.4907 H   0  0  0  0  0  0
  -26.6538  -19.0564   16.9971 H   0  0  0  0  0  0
  -27.9727  -19.7736   17.7511 H   0  0  0  0  0  0
  -27.9715  -19.5708   22.6943 H   0  0  0  0  0  0
  -29.7218  -19.5387   22.7568 H   0  0  0  0  0  0
  -28.7590  -18.0288   22.6790 H   0  0  0  0  0  0
  -24.2204  -23.5939   20.5335 H   0  0  0  0  0  0
  -24.6935  -25.2725   20.5931 H   0  0  0  0  0  0
  -21.7340  -24.5663   20.0834 H   0  0  0  0  0  0
  -22.5634  -26.1074   20.1382 H   0  0  0  0  0  0
  -28.5154  -24.3488   22.6951 H   0  0  0  0  0  0
  -28.0560  -26.0169   22.6074 H   0  0  0  0  0  0
  -23.2663  -23.7749   18.3238 H   0  0  0  0  0  0
  -23.9466  -25.3702   18.1214 H   0  0  0  0  0  0
  -28.7860  -22.2418   21.3728 H   0  0  0  0  0  0
  -27.3602  -21.2339   21.4524 H   0  0  0  0  0  0
  -30.7836  -17.3659   22.0444 H   0  0  0  0  0  0
  -31.5806  -17.0343   20.5770 H   0  0  0  0  0  0
  -30.0953  -20.7593   20.3626 H   0  0  0  0  0  0
  -29.0289  -20.4412   19.1711 H   0  0  0  0  0  0
  -30.5851  -18.6855   19.7300 H   0  0  0  0  0  0
  -29.1705  -15.4678   21.4352 H   0  0  0  0  0  0
  -27.9563  -18.7669   20.6076 H   0  0  0  0  0  0
  1 25  1  0  0  0
  1 30  2  0  0  0
  1 94  1  0  0  0
  2  3  1  0  0  0
  2 25  1  0  0  0
  2 96  1  0  0  0
  2 97  1  0  0  0
  3  4  1  0  0  0
  3 98  1  0  0  0
  3 99  1  0  0  0
  4  5  1  0  0  0
  4100  1  0  0  0
  4101  1  0  0  0
  5  6  1  0  0  0
  5 26  1  0  0  0
  5102  1  0  0  0
  6 25  1  0  0  0
  6103  1  0  0  0
  6104  1  0  0  0
  7  8  2  0  0  0
  7 26  1  0  0  0
  7 29  1  0  0  0
  8  9  1  0  0  0
  8 22  1  0  0  0
  9 10  1  0  0  0
  9 27  2  0  0  0
 10 11  2  0  0  0
 10 15  1  0  0  0
 11 12  1  0  0  0
 11105  1  0  0  0
 12 13  2  0  0  0
 12106  1  0  0  0
 13 14  1  0  0  0
 13 31  1  0  0  0
 14 15  2  0  0  0
 14107  1  0  0  0
 15108  1  0  0  0
 16 17  2  0  0  0
 16 21  1  0  0  0
 16 31  1  0  0  0
 17 18  1  0  0  0
 17109  1  0  0  0
 18 19  2  0  0  0
 18110  1  0  0  0
 19 20  1  0  0  0
 19 24  1  0  0  0
 20 21  2  0  0  0
 20111  1  0  0  0
 21 23  1  0  0  0
 22 28  1  0  0  0
 22 32  2  0  0  0
 26 27  1  0  0  0
 28112  1  0  0  0
 28113  1  0  0  0
 29114  1  0  0  0
 29115  1  0  0  0
 33 34  1  0  0  0
 33 66  1  0  0  0
 33 70  2  0  0  0
 34 36  1  0  0  0
 34 59  1  0  0  0
 34116  1  0  0  0
 35 44  2  0  0  0
 35 45  1  0  0  0
 35 68  1  0  0  0
 36 56  1  0  0  0
 36117  1  0  0  0
 37 39  1  0  0  0
 37 47  1  0  0  0
 37 66  1  0  0  0
 37118  1  0  0  0
 38 43  2  0  0  0
 38 46  1  0  0  0
 38 47  1  0  0  0
 39 64  1  0  0  0
 39 67  2  0  0  0
 40 52  1  0  0  0
 40 53  2  0  0  0
 40 58  1  0  0  0
 41119  1  0  0  0
 41120  1  0  0  0
 41121  1  0  0  0
 41 48  1  0  0  0
 42 43  1  0  0  0
 42 66  1  0  0  0
 42122  1  0  0  0
 42123  1  0  0  0
 43 44  1  0  0  0
 44124  1  0  0  0
 45 46  2  0  0  0
 45125  1  0  0  0
 46126  1  0  0  0
 47127  1  0  0  0
 47128  1  0  0  0
 48 56  1  0  0  0
 48 65  1  0  0  0
 48129  1  0  0  0
 49 50  1  0  0  0
 49 53  1  0  0  0
 49 64  1  0  0  0
 49130  1  0  0  0
 50 51  1  0  0  0
 50131  1  0  0  0
 50132  1  0  0  0
 51 52  1  0  0  0
 51133  1  0  0  0
 51134  1  0  0  0
 52135  1  0  0  0
 52136  1  0  0  0
 53 54  1  0  0  0
 54 55  2  0  0  0
 54137  1  0  0  0
 55 57  1  0  0  0
 55138  1  0  0  0
 56 69  2  0  0  0
 57 58  2  0  0  0
 57139  1  0  0  0
 58140  1  0  0  0
 59 60  1  0  0  0
 59 61  1  0  0  0
 59 62  1  0  0  0
 60141  1  0  0  0
 60142  1  0  0  0
 60143  1  0  0  0
 61144  1  0  0  0
 61145  1  0  0  0
 61146  1  0  0  0
 62147  1  0  0  0
 62148  1  0  0  0
 62149  1  0  0  0
 63 65  1  0  0  0
 63150  1  0  0  0
 63151  1  0  0  0
 63152  1  0  0  0
 64153  1  0  0  0
 65154  1  0  0  0
 68 90  1  0  0  0
 71 72  2  0  0  0
 71 82  1  0  0  0
 71 92  1  0  0  0
 72 90  1  0  0  0
 72 93  1  0  0  0
 73 91  1  0  0  0
 73 92  2  0  0  0
 73 93  1  0  0  0
 74 83  1  0  0  0
 74155  1  0  0  0
 74156  1  0  0  0
 74157  1  0  0  0
 75 84  1  0  0  0
 75158  1  0  0  0
 75159  1  0  0  0
 75160  1  0  0  0
 76161  1  0  0  0
 76162  1  0  0  0
 76163  1  0  0  0
 76 89  1  0  0  0
 77164  1  0  0  0
 77165  1  0  0  0
 77166  1  0  0  0
 77 90  1  0  0  0
 78167  1  0  0  0
 78168  1  0  0  0
 78169  1  0  0  0
 78 91  1  0  0  0
 79 91  1  0  0  0
 79170  1  0  0  0
 79171  1  0  0  0
 79172  1  0  0  0
 80 91  1  0  0  0
 80173  1  0  0  0
 80174  1  0  0  0
 80175  1  0  0  0
 81176  1  0  0  0
 81177  1  0  0  0
 81178  1  0  0  0
 81 95  1  0  0  0
 82 85  1  0  0  0
 82179  1  0  0  0
 82180  1  0  0  0
 83 85  1  0  0  0
 83181  1  0  0  0
 83182  1  0  0  0
 84 90  1  0  0  0
 84183  1  0  0  0
 84184  1  0  0  0
 85185  1  0  0  0
 85186  1  0  0  0
 86 88  1  0  0  0
 86 93  1  0  0  0
 86187  1  0  0  0
 86188  1  0  0  0
 87 89  1  0  0  0
 87 94  1  0  0  0
 87189  1  0  0  0
 87190  1  0  0  0
 88 95  1  0  0  0
 88191  1  0  0  0
 88192  1  0  0  0
 89 95  1  0  0  0
 89193  1  0  0  0
 94194  1  0  0  0
 95195  1  0  0  0
M  CHG  1  95   1
M  ISO  4   1 100  68 101  90 101  94 100
M  END
> <chiral flag>
0

> <version>
0

> <s_m_source_file>
/data/baiqing/PycharmProjects/Reinvent-master-3.2/result/LINK_invent/BTK/process_docking_weight1_custom_sum_contain_oxygen_bond_distance_aromatic_linkinvent_7_9_3/rearranged_h_0086.sdf

> <i_m_source_file_index>
41

> <r_mmod_Potential_Energy-OPLS-2005>
260.073822021484

> <r_mmod_Stretch_Energy-OPLS-2005>
100.770706176758

> <r_mmod_Bend_Energy-OPLS-2005>
260.204193115234

> <r_mmod_Torsional_Energy-OPLS-2005>
457.887939453125

> <r_mmod_Improper_Torsional_Energy-OPLS-2005>
13.8578395843506

> <r_mmod_Van_der_Waal_Energy-OPLS-2005>
163.661407470703

> <r_mmod_Electrostatic_Energy-OPLS-2005>
-328.886810302734

> <r_mmod_Solvation_Energy-OPLS-2005>
-470.636444091797

> <b_mmod_Minimization_Converged-OPLS-2005>
0

> <r_mmod_RMS_Derivative-OPLS-2005>
14.1663503646851

$$$$
42
                    3D
 Structure written by MMmdl.
164172  0  0  1  0            999 V2000
  -30.5348  -14.9734   20.4189 C   0  0  0  0  0  0
  -30.4406  -12.6060   19.4974 C   0  0  0  0  0  0
  -29.5216  -12.5312   18.2566 C   0  0  0  0  0  0
  -28.0559  -12.3122   18.6758 C   0  0  0  0  0  0
  -27.6283  -13.2492   19.8353 C   0  0  2  0  0  0
  -28.6713  -13.2906   20.9714 C   0  0  0  0  0  0
  -25.2461  -13.8219   20.5704 C   0  0  0  0  0  0
  -24.1778  -13.0442   20.9224 C   0  0  0  0  0  0
  -24.6396  -11.6926   20.8752 C   0  0  0  0  0  0
  -23.9086  -10.4292   21.0406 C   0  0  0  0  0  0
  -24.3634   -9.4208   21.9184 C   0  0  0  0  0  0
  -23.6301   -8.2248   22.0756 C   0  0  0  0  0  0
  -22.4284   -8.0283   21.3546 C   0  0  0  0  0  0
  -21.9922   -9.0258   20.4652 C   0  0  0  0  0  0
  -22.7256  -10.2133   20.3059 C   0  0  0  0  0  0
  -21.6860   -6.0736   22.5274 C   0  0  0  0  0  0
  -21.4020   -6.5640   23.8206 C   0  0  0  0  0  0
  -21.3661   -5.6792   24.9167 C   0  0  0  0  0  0
  -21.6044   -4.3053   24.7221 C   0  0  0  0  0  0
  -21.8823   -3.8148   23.4342 C   0  0  0  0  0  0
  -21.9197   -4.6964   22.3398 C   0  0  0  0  0  0
  -22.7798  -13.5215   21.1875 C   0  0  0  0  0  0
  -22.1661   -4.2149   21.0973 F   0  0  0  0  0  0
  -21.5627   -3.4536   25.7734 F   0  0  0  0  0  0
  -29.9411  -13.7109   20.3667 N   0  0  0  0  0  0
  -26.2882  -12.9452   20.3234 N   0  0  0  0  0  0
  -25.9328  -11.6580   20.5736 N   0  0  0  0  0  0
  -22.0454  -12.8203   22.0435 N   0  0  0  0  0  0
  -25.4123  -15.1947   20.4109 N   0  0  0  0  0  0
  -31.7447  -15.0308   20.1758 O   0  0  0  0  0  0
  -21.6649   -6.8879   21.4237 O   0  0  0  0  0  0
  -22.3477  -14.5512   20.6708 O   0  0  0  0  0  0
  -24.6460  -31.8416   23.1861 C   0  0  0  0  0  0
  -25.9220  -32.4685   23.8264 C   0  0  1  0  0  0
  -27.2173  -27.1110   20.1570 C   0  0  0  0  0  0
  -25.5956  -33.8492   24.2179 N   0  0  0  0  0  0
  -23.4508  -30.4607   21.5322 C   0  0  2  0  0  0
  -24.9010  -28.8817   20.1115 C   0  0  0  0  0  0
  -22.7583  -29.4539   22.4851 C   0  0  0  0  0  0
  -18.0309  -28.1398   22.8480 C   0  0  0  0  0  0
  -24.1490  -36.7248   23.2644 C   0  0  0  0  0  0
  -26.0090  -30.7076   21.3888 C   0  0  0  0  0  0
  -26.0799  -29.3165   20.7304 C   0  0  0  0  0  0
  -27.2393  -28.4483   20.7331 C   0  0  0  0  0  0
  -26.0111  -26.7836   19.4986 C   0  0  0  0  0  0
  -24.8813  -27.6305   19.4789 C   0  0  0  0  0  0
  -23.6788  -29.7870   20.1529 C   0  0  0  0  0  0
  -25.4128  -36.3030   24.0318 C   0  0  1  0  0  0
  -20.5924  -28.3730   23.1232 C   0  0  2  0  0  0
  -20.6790  -26.9431   22.5407 C   0  0  0  0  0  0
  -19.5763  -26.6382   21.5216 C   0  0  0  0  0  0
  -18.1944  -26.7937   22.1624 C   0  0  0  0  0  0
  -19.1565  -28.8883   23.2845 C   0  0  0  0  0  0
  -18.9481  -30.1477   23.8876 C   0  0  0  0  0  0
  -17.6476  -30.6595   24.0559 C   0  0  0  0  0  0
  -25.9079  -34.9403   23.5060 C   0  0  0  0  0  0
  -16.5368  -29.9088   23.6337 C   0  0  0  0  0  0
  -16.7291  -28.6503   23.0366 C   0  0  0  0  0  0
  -26.4532  -31.6562   25.0714 C   0  0  0  0  0  0
  -25.3706  -31.3754   26.1401 C   0  0  0  0  0  0
  -27.0403  -30.2953   24.6316 C   0  0  0  0  0  0
  -27.6058  -32.4340   25.7495 C   0  0  0  0  0  0
  -27.5580  -37.1782   24.8466 C   0  0  0  0  0  0
  -21.4272  -29.3050   22.3597 N   0  0  0  0  0  0
  -26.4289  -37.3748   23.9411 N   0  0  0  0  0  0
  -24.7217  -31.0256   22.0901 N   0  0  0  0  0  0
  -23.4212  -28.8093   23.3017 O   0  0  0  0  0  0
  -28.2627  -26.1110   20.2330 O   0  0  0  0  0  0
  -26.5668  -34.8905   22.4639 O   0  0  0  0  0  0
  -23.5575  -32.1301   23.7075 O   0  0  0  0  0  0
  -28.5604  -21.8292   20.2397 C   0  0  0  0  0  0
  -28.9889  -23.2543   20.3394 C   0  0  0  0  0  0
  -30.3915  -23.3558   20.6289 C   0  0  0  0  0  0
  -29.4277  -20.6341   20.3987 C   0  0  0  0  0  0
  -31.1803  -22.1596   20.7452 C   0  0  0  0  0  0
  -32.6760  -22.1902   21.0269 C   0  0  0  0  0  0
  -30.6102  -25.4692   22.0777 C   0  0  0  0  0  0
  -31.1761  -25.5404   19.5186 C   0  0  0  0  0  0
  -28.5242  -18.7866   18.8230 C   0  0  0  0  0  0
  -27.9742  -24.5699   20.1117 C   0  0  0  0  0  0
  -30.1151  -17.7202   20.5854 C   0  0  0  0  0  0
  -31.0825  -24.7196   20.8178 C   0  0  0  0  0  0
  -29.0630  -19.0157   20.2407 C   0  0  1  0  0  0
  -30.7251  -20.8878   20.6226 N   0  0  0  0  0  0
  -29.7572  -16.1652   20.5423 N   0  0  0  0  0  0
  -31.4723  -12.7712   19.1827 H   0  0  0  0  0  0
  -30.4410  -11.6587   20.0388 H   0  0  0  0  0  0
  -29.8444  -11.7283   17.5928 H   0  0  0  0  0  0
  -29.6046  -13.4570   17.6847 H   0  0  0  0  0  0
  -27.9575  -11.2718   18.9881 H   0  0  0  0  0  0
  -27.3930  -12.4377   17.8191 H   0  0  0  0  0  0
  -27.5872  -14.2486   19.4006 H   0  0  0  0  0  0
  -28.7671  -12.3189   21.4571 H   0  0  0  0  0  0
  -28.3675  -13.9967   21.7461 H   0  0  0  0  0  0
  -25.2777   -9.5683   22.4761 H   0  0  0  0  0  0
  -24.0008   -7.4645   22.7482 H   0  0  0  0  0  0
  -21.0851   -8.8783   19.8960 H   0  0  0  0  0  0
  -22.3714  -10.9676   19.6172 H   0  0  0  0  0  0
  -21.2010   -7.6148   23.9708 H   0  0  0  0  0  0
  -21.1479   -6.0521   25.9069 H   0  0  0  0  0  0
  -22.0600   -2.7610   23.2842 H   0  0  0  0  0  0
  -22.4085  -11.9871   22.4824 H   0  0  0  0  0  0
  -21.1067  -13.1213   22.2636 H   0  0  0  0  0  0
  -24.6415  -15.8452   20.5224 H   0  0  0  0  0  0
  -26.2481  -15.6339   20.0495 H   0  0  0  0  0  0
  -26.7279  -32.5280   23.0988 H   0  0  0  0  0  0
  -25.0081  -33.9602   25.0313 H   0  0  0  0  0  0
  -22.7549  -31.2875   21.3753 H   0  0  0  0  0  0
  -23.3769  -35.9560   23.3288 H   0  0  0  0  0  0
  -24.3571  -36.8900   22.2061 H   0  0  0  0  0  0
  -23.7225  -37.6432   23.6691 H   0  0  0  0  0  0
  -26.1707  -31.4617   20.6174 H   0  0  0  0  0  0
  -26.8764  -30.7567   22.0347 H   0  0  0  0  0  0
  -28.1367  -28.7763   21.2387 H   0  0  0  0  0  0
  -25.9042  -25.8272   19.0104 H   0  0  0  0  0  0
  -23.9817  -27.2937   18.9823 H   0  0  0  0  0  0
  -23.8190  -30.5594   19.3961 H   0  0  0  0  0  0
  -22.7928  -29.2306   19.8415 H   0  0  0  0  0  0
  -25.1319  -36.1852   25.0810 H   0  0  0  0  0  0
  -21.0018  -28.3320   24.1351 H   0  0  0  0  0  0
  -20.5688  -26.2347   23.3631 H   0  0  0  0  0  0
  -21.6656  -26.7435   22.1204 H   0  0  0  0  0  0
  -19.6927  -25.6284   21.1267 H   0  0  0  0  0  0
  -19.6699  -27.3176   20.6730 H   0  0  0  0  0  0
  -17.4218  -26.6693   21.4020 H   0  0  0  0  0  0
  -18.0337  -26.0077   22.9017 H   0  0  0  0  0  0
  -19.7953  -30.7297   24.2242 H   0  0  0  0  0  0
  -17.5026  -31.6274   24.5163 H   0  0  0  0  0  0
  -15.5367  -30.2983   23.7671 H   0  0  0  0  0  0
  -15.8689  -28.0806   22.7109 H   0  0  0  0  0  0
  -24.5902  -30.7087   25.7719 H   0  0  0  0  0  0
  -24.8877  -32.2931   26.4765 H   0  0  0  0  0  0
  -25.7985  -30.8971   27.0219 H   0  0  0  0  0  0
  -26.3027  -29.6668   24.1314 H   0  0  0  0  0  0
  -27.3995  -29.7269   25.4907 H   0  0  0  0  0  0
  -27.8944  -30.4194   23.9654 H   0  0  0  0  0  0
  -27.2654  -33.3670   26.2001 H   0  0  0  0  0  0
  -28.3897  -32.6856   25.0337 H   0  0  0  0  0  0
  -28.0687  -31.8508   26.5467 H   0  0  0  0  0  0
  -28.2596  -38.0083   24.7525 H   0  0  0  0  0  0
  -28.1083  -36.2617   24.6282 H   0  0  0  0  0  0
  -27.2295  -37.1411   25.8868 H   0  0  0  0  0  0
  -20.9494  -29.8746   21.6754 H   0  0  0  0  0  0
  -26.0156  -38.2816   24.1417 H   0  0  0  0  0  0
  -27.5176  -21.6457   20.0177 H   0  0  0  0  0  0
  -33.2055  -22.7401   20.2483 H   0  0  0  0  0  0
  -33.1066  -21.1886   21.0602 H   0  0  0  0  0  0
  -32.8779  -22.6563   21.9917 H   0  0  0  0  0  0
  -30.8729  -24.9002   22.9707 H   0  0  0  0  0  0
  -29.5384  -25.6313   22.1301 H   0  0  0  0  0  0
  -31.0963  -26.4416   22.1641 H   0  0  0  0  0  0
  -31.8043  -25.0229   18.7920 H   0  0  0  0  0  0
  -31.6333  -26.5135   19.7002 H   0  0  0  0  0  0
  -30.2246  -25.7099   19.0251 H   0  0  0  0  0  0
  -27.6881  -19.4518   18.6070 H   0  0  0  0  0  0
  -28.1768  -17.7628   18.6883 H   0  0  0  0  0  0
  -29.3000  -18.9770   18.0814 H   0  0  0  0  0  0
  -27.1182  -24.3783   20.7591 H   0  0  0  0  0  0
  -27.6019  -24.4256   19.0981 H   0  0  0  0  0  0
  -30.4920  -17.8944   21.5933 H   0  0  0  0  0  0
  -30.9879  -17.8459   19.9434 H   0  0  0  0  0  0
  -32.1317  -24.5645   21.0495 H   0  0  0  0  0  0
  -28.2195  -18.8824   20.9187 H   0  0  0  0  0  0
  -28.7744  -15.9768   20.6719 H   0  0  0  0  0  0
  1 25  1  0  0  0
  1 30  2  0  0  0
  1 85  1  0  0  0
  2  3  1  0  0  0
  2 25  1  0  0  0
  2 86  1  0  0  0
  2 87  1  0  0  0
  3  4  1  0  0  0
  3 88  1  0  0  0
  3 89  1  0  0  0
  4  5  1  0  0  0
  4 90  1  0  0  0
  4 91  1  0  0  0
  5  6  1  0  0  0
  5 26  1  0  0  0
  5 92  1  0  0  0
  6 25  1  0  0  0
  6 93  1  0  0  0
  6 94  1  0  0  0
  7  8  2  0  0  0
  7 26  1  0  0  0
  7 29  1  0  0  0
  8  9  1  0  0  0
  8 22  1  0  0  0
  9 10  1  0  0  0
  9 27  2  0  0  0
 10 11  2  0  0  0
 10 15  1  0  0  0
 11 12  1  0  0  0
 11 95  1  0  0  0
 12 13  2  0  0  0
 12 96  1  0  0  0
 13 14  1  0  0  0
 13 31  1  0  0  0
 14 15  2  0  0  0
 14 97  1  0  0  0
 15 98  1  0  0  0
 16 17  2  0  0  0
 16 21  1  0  0  0
 16 31  1  0  0  0
 17 18  1  0  0  0
 17 99  1  0  0  0
 18 19  2  0  0  0
 18100  1  0  0  0
 19 20  1  0  0  0
 19 24  1  0  0  0
 20 21  2  0  0  0
 20101  1  0  0  0
 21 23  1  0  0  0
 22 28  1  0  0  0
 22 32  2  0  0  0
 26 27  1  0  0  0
 28102  1  0  0  0
 28103  1  0  0  0
 29104  1  0  0  0
 29105  1  0  0  0
 33 34  1  0  0  0
 33 66  1  0  0  0
 33 70  2  0  0  0
 34 36  1  0  0  0
 34 59  1  0  0  0
 34106  1  0  0  0
 35 44  2  0  0  0
 35 45  1  0  0  0
 35 68  1  0  0  0
 36 56  1  0  0  0
 36107  1  0  0  0
 37 39  1  0  0  0
 37 47  1  0  0  0
 37 66  1  0  0  0
 37108  1  0  0  0
 38 43  2  0  0  0
 38 46  1  0  0  0
 38 47  1  0  0  0
 39 64  1  0  0  0
 39 67  2  0  0  0
 40 52  1  0  0  0
 40 53  2  0  0  0
 40 58  1  0  0  0
 41109  1  0  0  0
 41110  1  0  0  0
 41111  1  0  0  0
 41 48  1  0  0  0
 42 43  1  0  0  0
 42 66  1  0  0  0
 42112  1  0  0  0
 42113  1  0  0  0
 43 44  1  0  0  0
 44114  1  0  0  0
 45 46  2  0  0  0
 45115  1  0  0  0
 46116  1  0  0  0
 47117  1  0  0  0
 47118  1  0  0  0
 48 56  1  0  0  0
 48 65  1  0  0  0
 48119  1  0  0  0
 49 50  1  0  0  0
 49 53  1  0  0  0
 49 64  1  0  0  0
 49120  1  0  0  0
 50 51  1  0  0  0
 50121  1  0  0  0
 50122  1  0  0  0
 51 52  1  0  0  0
 51123  1  0  0  0
 51124  1  0  0  0
 52125  1  0  0  0
 52126  1  0  0  0
 53 54  1  0  0  0
 54 55  2  0  0  0
 54127  1  0  0  0
 55 57  1  0  0  0
 55128  1  0  0  0
 56 69  2  0  0  0
 57 58  2  0  0  0
 57129  1  0  0  0
 58130  1  0  0  0
 59 60  1  0  0  0
 59 61  1  0  0  0
 59 62  1  0  0  0
 60131  1  0  0  0
 60132  1  0  0  0
 60133  1  0  0  0
 61134  1  0  0  0
 61135  1  0  0  0
 61136  1  0  0  0
 62137  1  0  0  0
 62138  1  0  0  0
 62139  1  0  0  0
 63 65  1  0  0  0
 63140  1  0  0  0
 63141  1  0  0  0
 63142  1  0  0  0
 64143  1  0  0  0
 65144  1  0  0  0
 68 80  1  0  0  0
 71 72  2  0  0  0
 71 74  1  0  0  0
 71145  1  0  0  0
 72 73  1  0  0  0
 72 80  1  0  0  0
 73 75  2  0  0  0
 73 82  1  0  0  0
 74 83  1  0  0  0
 74 84  2  0  0  0
 75 76  1  0  0  0
 75 84  1  0  0  0
 76146  1  0  0  0
 76147  1  0  0  0
 76148  1  0  0  0
 77149  1  0  0  0
 77150  1  0  0  0
 77151  1  0  0  0
 77 82  1  0  0  0
 78 82  1  0  0  0
 78152  1  0  0  0
 78153  1  0  0  0
 78154  1  0  0  0
 79155  1  0  0  0
 79156  1  0  0  0
 79157  1  0  0  0
 79 83  1  0  0  0
 80158  1  0  0  0
 80159  1  0  0  0
 81 83  1  0  0  0
 81 85  1  0  0  0
 81160  1  0  0  0
 81161  1  0  0  0
 82162  1  0  0  0
 83163  1  0  0  0
 85164  1  0  0  0
M  ISO  4   1 100  68 101  80 101  85 100
M  END
> <chiral flag>
0

> <version>
0

> <s_m_source_file>
/data/baiqing/PycharmProjects/Reinvent-master-3.2/result/LINK_invent/BTK/process_docking_weight1_custom_sum_contain_oxygen_bond_distance_aromatic_linkinvent_7_9_3/rearranged_h_0086.sdf

> <i_m_source_file_index>
42

> <r_mmod_Potential_Energy-OPLS-2005>
394.880798339844

> <r_mmod_Stretch_Energy-OPLS-2005>
291.557220458984

> <r_mmod_Bend_Energy-OPLS-2005>
270.738250732422

> <r_mmod_Torsional_Energy-OPLS-2005>
222.42822265625

> <r_mmod_Improper_Torsional_Energy-OPLS-2005>
4.33511781692505

> <r_mmod_Van_der_Waal_Energy-OPLS-2005>
139.034805297852

> <r_mmod_Electrostatic_Energy-OPLS-2005>
-524.420532226562

> <r_mmod_Solvation_Energy-OPLS-2005>
-222.672653198242

> <b_mmod_Minimization_Converged-OPLS-2005>
0

> <r_mmod_RMS_Derivative-OPLS-2005>
0.905574262142181

$$$$
43
                    3D
 Structure written by MMmdl.
172180  0  0  1  0            999 V2000
  -30.7356  -14.3718   20.6741 C   0  0  0  0  0  0
  -30.4303  -12.2889   19.3942 C   0  0  0  0  0  0
  -29.4938  -12.5308   18.1958 C   0  0  0  0  0  0
  -28.0126  -12.3863   18.6034 C   0  0  0  0  0  0
  -27.6696  -13.1945   19.8790 C   0  0  2  0  0  0
  -28.7058  -12.9153   20.9896 C   0  0  0  0  0  0
  -25.2632  -13.8165   20.5642 C   0  0  0  0  0  0
  -24.1855  -13.0472   20.9169 C   0  0  0  0  0  0
  -24.6377  -11.6930   20.8720 C   0  0  0  0  0  0
  -23.9033  -10.4316   21.0377 C   0  0  0  0  0  0
  -24.3602   -9.4240   21.9149 C   0  0  0  0  0  0
  -23.6299   -8.2263   22.0740 C   0  0  0  0  0  0
  -22.4285   -8.0271   21.3541 C   0  0  0  0  0  0
  -21.9891   -9.0230   20.4636 C   0  0  0  0  0  0
  -22.7197  -10.2125   20.3035 C   0  0  0  0  0  0
  -21.6856   -6.0729   22.5281 C   0  0  0  0  0  0
  -21.3996   -6.5631   23.8210 C   0  0  0  0  0  0
  -21.3673   -5.6779   24.9173 C   0  0  0  0  0  0
  -21.6057   -4.3054   24.7225 C   0  0  0  0  0  0
  -21.8826   -3.8145   23.4347 C   0  0  0  0  0  0
  -21.9188   -4.6951   22.3406 C   0  0  0  0  0  0
  -22.7875  -13.5276   21.1814 C   0  0  0  0  0  0
  -22.1678   -4.2139   21.0986 F   0  0  0  0  0  0
  -21.5643   -3.4548   25.7751 F   0  0  0  0  0  0
  -30.0504  -13.2227   20.4610 N   0  0  0  0  0  0
  -26.3047  -12.9298   20.3342 N   0  0  0  0  0  0
  -25.9301  -11.6478   20.5746 N   0  0  0  0  0  0
  -22.0475  -12.8287   22.0366 N   0  0  0  0  0  0
  -25.4413  -15.1873   20.4048 N   0  0  0  0  0  0
  -31.7938  -14.6571   20.1042 O   0  0  0  0  0  0
  -21.6644   -6.8866   21.4249 O   0  0  0  0  0  0
  -22.3577  -14.5559   20.6607 O   0  0  0  0  0  0
  -24.6101  -31.8719   23.2116 C   0  0  0  0  0  0
  -25.9022  -32.4840   23.8394 C   0  0  1  0  0  0
  -27.2368  -27.4762   20.0673 C   0  0  0  0  0  0
  -25.5901  -33.8634   24.2340 N   0  0  0  0  0  0
  -23.3963  -30.4949   21.5527 C   0  0  2  0  0  0
  -24.8377  -28.9627   20.1148 C   0  0  0  0  0  0
  -22.7393  -29.4680   22.5024 C   0  0  0  0  0  0
  -18.0270  -28.1384   22.8497 C   0  0  0  0  0  0
  -24.1509  -36.7320   23.2636 C   0  0  0  0  0  0
  -25.9217  -30.8438   21.3609 C   0  0  0  0  0  0
  -25.9926  -29.4814   20.7075 C   0  0  0  0  0  0
  -27.1914  -28.7410   20.6845 C   0  0  0  0  0  0
  -26.0548  -26.9524   19.4889 C   0  0  0  0  0  0
  -24.8599  -27.6952   19.5069 C   0  0  0  0  0  0
  -23.5991  -29.8257   20.1670 C   0  0  0  0  0  0
  -25.4115  -36.3114   24.0350 C   0  0  1  0  0  0
  -20.5859  -28.3652   23.1356 C   0  0  2  0  0  0
  -20.6765  -26.9401   22.5436 C   0  0  0  0  0  0
  -19.5738  -26.6389   21.5234 C   0  0  0  0  0  0
  -18.1910  -26.7935   22.1628 C   0  0  0  0  0  0
  -19.1522  -28.8826   23.2924 C   0  0  0  0  0  0
  -18.9451  -30.1431   23.8938 C   0  0  0  0  0  0
  -17.6453  -30.6589   24.0570 C   0  0  0  0  0  0
  -25.9030  -34.9484   23.5138 C   0  0  0  0  0  0
  -16.5344  -29.9107   23.6317 C   0  0  0  0  0  0
  -16.7262  -28.6519   23.0339 C   0  0  0  0  0  0
  -26.4468  -31.6582   25.0693 C   0  0  0  0  0  0
  -25.3779  -31.3716   26.1496 C   0  0  0  0  0  0
  -27.0261  -30.3034   24.6030 C   0  0  0  0  0  0
  -27.6079  -32.4275   25.7422 C   0  0  0  0  0  0
  -27.5596  -37.1814   24.8452 C   0  0  0  0  0  0
  -21.4125  -29.3024   22.3776 N   0  0  0  0  0  0
  -26.4304  -37.3791   23.9408 N   0  0  0  0  0  0
  -24.6608  -31.0851   22.0997 N   0  0  0  0  0  0
  -23.4179  -28.8219   23.3057 O   0  0  0  0  0  0
  -28.4542  -26.8372   20.0434 O   0  0  0  0  0  0
  -26.5589  -34.8936   22.4688 O   0  0  0  0  0  0
  -23.5298  -32.1464   23.7521 O   0  0  0  0  0  0
  -28.7058  -19.8798   21.0626 C   0  0  0  0  0  0
  -29.7095  -18.9725   21.2553 C   0  0  0  0  0  0
  -30.2509  -20.8762   22.3258 C   0  0  0  0  0  0
  -30.4624  -17.5458   19.3677 C   0  0  0  0  0  0
  -30.2823  -21.6257   24.6911 C   0  0  0  0  0  0
  -31.0284  -23.2762   22.9302 C   0  0  0  0  0  0
  -32.4595  -21.3299   23.4664 C   0  0  0  0  0  0
  -28.5988  -23.1484   20.5752 C   0  0  0  0  0  0
  -28.0350  -24.5624   20.7230 C   0  0  0  0  0  0
  -28.2130  -22.2235   21.7388 C   0  0  0  0  0  0
  -30.4837  -16.6123   21.7726 C   0  0  0  0  0  0
  -28.5420  -25.4895   19.6117 C   0  0  0  0  0  0
  -29.8026  -17.5604   20.7554 C   0  0  1  0  0  0
  -30.9820  -21.7765   23.3216 C   0  0  0  0  0  0
  -29.0491  -21.0241   21.7263 N   0  0  0  0  0  0
  -30.6508  -19.6323   22.0109 N   0  3  0  0  0  0
  -30.1355  -15.2183   21.5168 N   0  0  0  0  0  0
  -31.4697  -12.4147   19.0867 H   0  0  0  0  0  0
  -30.3530  -11.2613   19.7532 H   0  0  0  0  0  0
  -29.7295  -11.8435   17.3827 H   0  0  0  0  0  0
  -29.6698  -13.5358   17.8100 H   0  0  0  0  0  0
  -27.8062  -11.3250   18.7619 H   0  0  0  0  0  0
  -27.3660  -12.6946   17.7828 H   0  0  0  0  0  0
  -27.7351  -14.2489   19.6123 H   0  0  0  0  0  0
  -28.6688  -11.8646   21.2772 H   0  0  0  0  0  0
  -28.4448  -13.4619   21.8961 H   0  0  0  0  0  0
  -25.2736   -9.5748   22.4730 H   0  0  0  0  0  0
  -24.0024   -7.4664   22.7463 H   0  0  0  0  0  0
  -21.0821   -8.8718   19.8949 H   0  0  0  0  0  0
  -22.3620  -10.9646   19.6159 H   0  0  0  0  0  0
  -21.1967   -7.6129   23.9712 H   0  0  0  0  0  0
  -21.1503   -6.0509   25.9071 H   0  0  0  0  0  0
  -22.0584   -2.7601   23.2852 H   0  0  0  0  0  0
  -22.4080  -11.9986   22.4838 H   0  0  0  0  0  0
  -21.1075  -13.1305   22.2491 H   0  0  0  0  0  0
  -24.6775  -15.8491   20.4931 H   0  0  0  0  0  0
  -26.2966  -15.6136   20.0735 H   0  0  0  0  0  0
  -26.7069  -32.5575   23.1124 H   0  0  0  0  0  0
  -25.0078  -33.9769   25.0502 H   0  0  0  0  0  0
  -22.6834  -31.3100   21.4156 H   0  0  0  0  0  0
  -23.3780  -35.9646   23.3299 H   0  0  0  0  0  0
  -24.3570  -36.8936   22.2040 H   0  0  0  0  0  0
  -23.7277  -37.6534   23.6639 H   0  0  0  0  0  0
  -26.0391  -31.6140   20.5985 H   0  0  0  0  0  0
  -26.8070  -30.8898   21.9831 H   0  0  0  0  0  0
  -28.0875  -29.1437   21.1334 H   0  0  0  0  0  0
  -26.0333  -25.9865   19.0078 H   0  0  0  0  0  0
  -23.9675  -27.2939   19.0462 H   0  0  0  0  0  0
  -23.6951  -30.5980   19.4029 H   0  0  0  0  0  0
  -22.7238  -29.2390   19.8794 H   0  0  0  0  0  0
  -25.1289  -36.1953   25.0844 H   0  0  0  0  0  0
  -20.9940  -28.3196   24.1481 H   0  0  0  0  0  0
  -20.5678  -26.2258   23.3612 H   0  0  0  0  0  0
  -21.6637  -26.7458   22.1216 H   0  0  0  0  0  0
  -19.6914  -25.6309   21.1241 H   0  0  0  0  0  0
  -19.6682  -27.3229   20.6781 H   0  0  0  0  0  0
  -17.4194  -26.6693   21.4021 H   0  0  0  0  0  0
  -18.0285  -26.0084   22.9012 H   0  0  0  0  0  0
  -19.7922  -30.7235   24.2339 H   0  0  0  0  0  0
  -17.5011  -31.6275   24.5164 H   0  0  0  0  0  0
  -15.5345  -30.3014   23.7629 H   0  0  0  0  0  0
  -15.8656  -28.0849   22.7028 H   0  0  0  0  0  0
  -24.5879  -30.7118   25.7898 H   0  0  0  0  0  0
  -24.9074  -32.2908   26.5000 H   0  0  0  0  0  0
  -25.8160  -30.8874   27.0233 H   0  0  0  0  0  0
  -27.4039  -29.7172   25.4409 H   0  0  0  0  0  0
  -26.2802  -29.6827   24.1053 H   0  0  0  0  0  0
  -27.8635  -30.4369   23.9178 H   0  0  0  0  0  0
  -27.2725  -33.3518   26.2099 H   0  0  0  0  0  0
  -28.3825  -32.6904   25.0205 H   0  0  0  0  0  0
  -28.0840  -31.8370   26.5264 H   0  0  0  0  0  0
  -28.2611  -38.0110   24.7499 H   0  0  0  0  0  0
  -28.1105  -36.2650   24.6275 H   0  0  0  0  0  0
  -27.2306  -37.1461   25.8850 H   0  0  0  0  0  0
  -20.9255  -29.8744   21.7024 H   0  0  0  0  0  0
  -26.0211  -38.2894   24.1342 H   0  0  0  0  0  0
  -27.7794  -19.7853   20.5156 H   0  0  0  0  0  0
  -30.0055  -18.2833   18.7085 H   0  0  0  0  0  0
  -30.3533  -16.5766   18.8818 H   0  0  0  0  0  0
  -31.5255  -17.7762   19.4318 H   0  0  0  0  0  0
  -29.2367  -21.9407   24.6506 H   0  0  0  0  0  0
  -30.7684  -22.2234   25.4617 H   0  0  0  0  0  0
  -30.2853  -20.5894   25.0332 H   0  0  0  0  0  0
  -30.0631  -23.7746   22.9461 H   0  0  0  0  0  0
  -31.4752  -23.4318   21.9479 H   0  0  0  0  0  0
  -31.6364  -23.8394   23.6395 H   0  0  0  0  0  0
  -32.5567  -20.2970   23.7968 H   0  0  0  0  0  0
  -32.9918  -21.9352   24.2025 H   0  0  0  0  0  0
  -32.9992  -21.4292   22.5219 H   0  0  0  0  0  0
  -29.6838  -23.2225   20.5099 H   0  0  0  0  0  0
  -28.2824  -22.7031   19.6294 H   0  0  0  0  0  0
  -28.3447  -24.9608   21.6910 H   0  0  0  0  0  0
  -26.9452  -24.5438   20.7366 H   0  0  0  0  0  0
  -27.1746  -21.9068   21.6276 H   0  0  0  0  0  0
  -28.2707  -22.6936   22.7156 H   0  0  0  0  0  0
  -31.5645  -16.7530   21.7796 H   0  0  0  0  0  0
  -30.1436  -16.8438   22.7833 H   0  0  0  0  0  0
  -28.0493  -25.3091   18.6564 H   0  0  0  0  0  0
  -29.6010  -25.3015   19.4312 H   0  0  0  0  0  0
  -28.7711  -17.2226   20.6295 H   0  0  0  0  0  0
  -31.5296  -19.2407   22.3237 H   0  0  0  0  0  0
  -29.2855  -14.8779   21.9437 H   0  0  0  0  0  0
  1 25  1  0  0  0
  1 30  2  0  0  0
  1 87  1  0  0  0
  2  3  1  0  0  0
  2 25  1  0  0  0
  2 88  1  0  0  0
  2 89  1  0  0  0
  3  4  1  0  0  0
  3 90  1  0  0  0
  3 91  1  0  0  0
  4  5  1  0  0  0
  4 92  1  0  0  0
  4 93  1  0  0  0
  5  6  1  0  0  0
  5 26  1  0  0  0
  5 94  1  0  0  0
  6 25  1  0  0  0
  6 95  1  0  0  0
  6 96  1  0  0  0
  7  8  2  0  0  0
  7 26  1  0  0  0
  7 29  1  0  0  0
  8  9  1  0  0  0
  8 22  1  0  0  0
  9 10  1  0  0  0
  9 27  2  0  0  0
 10 11  2  0  0  0
 10 15  1  0  0  0
 11 12  1  0  0  0
 11 97  1  0  0  0
 12 13  2  0  0  0
 12 98  1  0  0  0
 13 14  1  0  0  0
 13 31  1  0  0  0
 14 15  2  0  0  0
 14 99  1  0  0  0
 15100  1  0  0  0
 16 17  2  0  0  0
 16 21  1  0  0  0
 16 31  1  0  0  0
 17 18  1  0  0  0
 17101  1  0  0  0
 18 19  2  0  0  0
 18102  1  0  0  0
 19 20  1  0  0  0
 19 24  1  0  0  0
 20 21  2  0  0  0
 20103  1  0  0  0
 21 23  1  0  0  0
 22 28  1  0  0  0
 22 32  2  0  0  0
 26 27  1  0  0  0
 28104  1  0  0  0
 28105  1  0  0  0
 29106  1  0  0  0
 29107  1  0  0  0
 33 34  1  0  0  0
 33 66  1  0  0  0
 33 70  2  0  0  0
 34 36  1  0  0  0
 34 59  1  0  0  0
 34108  1  0  0  0
 35 44  2  0  0  0
 35 45  1  0  0  0
 35 68  1  0  0  0
 36 56  1  0  0  0
 36109  1  0  0  0
 37 39  1  0  0  0
 37 47  1  0  0  0
 37 66  1  0  0  0
 37110  1  0  0  0
 38 43  2  0  0  0
 38 46  1  0  0  0
 38 47  1  0  0  0
 39 64  1  0  0  0
 39 67  2  0  0  0
 40 52  1  0  0  0
 40 53  2  0  0  0
 40 58  1  0  0  0
 41111  1  0  0  0
 41112  1  0  0  0
 41113  1  0  0  0
 41 48  1  0  0  0
 42 43  1  0  0  0
 42 66  1  0  0  0
 42114  1  0  0  0
 42115  1  0  0  0
 43 44  1  0  0  0
 44116  1  0  0  0
 45 46  2  0  0  0
 45117  1  0  0  0
 46118  1  0  0  0
 47119  1  0  0  0
 47120  1  0  0  0
 48 56  1  0  0  0
 48 65  1  0  0  0
 48121  1  0  0  0
 49 50  1  0  0  0
 49 53  1  0  0  0
 49 64  1  0  0  0
 49122  1  0  0  0
 50 51  1  0  0  0
 50123  1  0  0  0
 50124  1  0  0  0
 51 52  1  0  0  0
 51125  1  0  0  0
 51126  1  0  0  0
 52127  1  0  0  0
 52128  1  0  0  0
 53 54  1  0  0  0
 54 55  2  0  0  0
 54129  1  0  0  0
 55 57  1  0  0  0
 55130  1  0  0  0
 56 69  2  0  0  0
 57 58  2  0  0  0
 57131  1  0  0  0
 58132  1  0  0  0
 59 60  1  0  0  0
 59 61  1  0  0  0
 59 62  1  0  0  0
 60133  1  0  0  0
 60134  1  0  0  0
 60135  1  0  0  0
 61136  1  0  0  0
 61137  1  0  0  0
 61138  1  0  0  0
 62139  1  0  0  0
 62140  1  0  0  0
 62141  1  0  0  0
 63 65  1  0  0  0
 63142  1  0  0  0
 63143  1  0  0  0
 63144  1  0  0  0
 64145  1  0  0  0
 65146  1  0  0  0
 68 82  1  0  0  0
 71 72  2  0  0  0
 71 85  1  0  0  0
 71147  1  0  0  0
 72 83  1  0  0  0
 72 86  1  0  0  0
 73 84  1  0  0  0
 73 85  1  0  0  0
 73 86  2  0  0  0
 74148  1  0  0  0
 74149  1  0  0  0
 74150  1  0  0  0
 74 83  1  0  0  0
 75151  1  0  0  0
 75152  1  0  0  0
 75153  1  0  0  0
 75 84  1  0  0  0
 76 84  1  0  0  0
 76154  1  0  0  0
 76155  1  0  0  0
 76156  1  0  0  0
 77 84  1  0  0  0
 77157  1  0  0  0
 77158  1  0  0  0
 77159  1  0  0  0
 78 79  1  0  0  0
 78 80  1  0  0  0
 78160  1  0  0  0
 78161  1  0  0  0
 79 82  1  0  0  0
 79162  1  0  0  0
 79163  1  0  0  0
 80 85  1  0  0  0
 80164  1  0  0  0
 80165  1  0  0  0
 81 83  1  0  0  0
 81 87  1  0  0  0
 81166  1  0  0  0
 81167  1  0  0  0
 82168  1  0  0  0
 82169  1  0  0  0
 83170  1  0  0  0
 86171  1  0  0  0
 87172  1  0  0  0
M  CHG  1  86   1
M  ISO  4   1 100  68 101  82 101  87 100
M  END
> <chiral flag>
0

> <version>
0

> <s_m_source_file>
/data/baiqing/PycharmProjects/Reinvent-master-3.2/result/LINK_invent/BTK/process_docking_weight1_custom_sum_contain_oxygen_bond_distance_aromatic_linkinvent_7_9_3/rearranged_h_0086.sdf

> <i_m_source_file_index>
43

> <r_mmod_Potential_Energy-OPLS-2005>
-119.307464599609

> <r_mmod_Stretch_Energy-OPLS-2005>
33.1548538208008

> <r_mmod_Bend_Energy-OPLS-2005>
114.269020080566

> <r_mmod_Torsional_Energy-OPLS-2005>
235.640808105469

> <r_mmod_Improper_Torsional_Energy-OPLS-2005>
2.8985743522644

> <r_mmod_Van_der_Waal_Energy-OPLS-2005>
135.06559753418

> <r_mmod_Electrostatic_Energy-OPLS-2005>
-245.105209350586

> <r_mmod_Solvation_Energy-OPLS-2005>
-403.950317382812

> <b_mmod_Minimization_Converged-OPLS-2005>
0

> <r_mmod_RMS_Derivative-OPLS-2005>
4.05154085159302

$$$$
44
                    3D
 Structure written by MMmdl.
170178  0  0  1  0            999 V2000
  -30.5079  -14.9712   20.4054 C   0  0  0  0  0  0
  -30.4441  -12.5979   19.4942 C   0  0  0  0  0  0
  -29.5210  -12.5296   18.2559 C   0  0  0  0  0  0
  -28.0563  -12.3037   18.6794 C   0  0  0  0  0  0
  -27.6279  -13.2429   19.8369 C   0  0  2  0  0  0
  -28.6721  -13.2729   20.9710 C   0  0  0  0  0  0
  -25.2457  -13.8221   20.5718 C   0  0  0  0  0  0
  -24.1787  -13.0448   20.9242 C   0  0  0  0  0  0
  -24.6393  -11.6922   20.8774 C   0  0  0  0  0  0
  -23.9082  -10.4297   21.0421 C   0  0  0  0  0  0
  -24.3634   -9.4207   21.9196 C   0  0  0  0  0  0
  -23.6302   -8.2242   22.0759 C   0  0  0  0  0  0
  -22.4278   -8.0287   21.3547 C   0  0  0  0  0  0
  -21.9921   -9.0265   20.4650 C   0  0  0  0  0  0
  -22.7258  -10.2139   20.3065 C   0  0  0  0  0  0
  -21.6852   -6.0744   22.5281 C   0  0  0  0  0  0
  -21.4017   -6.5646   23.8215 C   0  0  0  0  0  0
  -21.3662   -5.6799   24.9175 C   0  0  0  0  0  0
  -21.6042   -4.3059   24.7220 C   0  0  0  0  0  0
  -21.8819   -3.8153   23.4339 C   0  0  0  0  0  0
  -21.9189   -4.6973   22.3397 C   0  0  0  0  0  0
  -22.7803  -13.5209   21.1880 C   0  0  0  0  0  0
  -22.1656   -4.2154   21.0977 F   0  0  0  0  0  0
  -21.5625   -3.4547   25.7735 F   0  0  0  0  0  0
  -29.9380  -13.6993   20.3615 N   0  0  0  0  0  0
  -26.2874  -12.9431   20.3247 N   0  0  0  0  0  0
  -25.9320  -11.6565   20.5764 N   0  0  0  0  0  0
  -22.0454  -12.8206   22.0437 N   0  0  0  0  0  0
  -25.4101  -15.1961   20.4123 N   0  0  0  0  0  0
  -31.7217  -15.0501   20.1872 O   0  0  0  0  0  0
  -21.6632   -6.8885   21.4239 O   0  0  0  0  0  0
  -22.3484  -14.5504   20.6699 O   0  0  0  0  0  0
  -24.6461  -31.8396   23.1896 C   0  0  0  0  0  0
  -25.9221  -32.4650   23.8279 C   0  0  1  0  0  0
  -27.2116  -27.0970   20.1301 C   0  0  0  0  0  0
  -25.5933  -33.8463   24.2154 N   0  0  0  0  0  0
  -23.4522  -30.4606   21.5362 C   0  0  2  0  0  0
  -24.9015  -28.8892   20.1077 C   0  0  0  0  0  0
  -22.7573  -29.4517   22.4845 C   0  0  0  0  0  0
  -18.0306  -28.1376   22.8449 C   0  0  0  0  0  0
  -24.1494  -36.7264   23.2643 C   0  0  0  0  0  0
  -26.0136  -30.6955   21.4036 C   0  0  0  0  0  0
  -26.0790  -29.3076   20.7358 C   0  0  0  0  0  0
  -27.2309  -28.4263   20.7348 C   0  0  0  0  0  0
  -26.0092  -26.8038   19.4467 C   0  0  0  0  0  0
  -24.8821  -27.6523   19.4495 C   0  0  0  0  0  0
  -23.6801  -29.7949   20.1557 C   0  0  0  0  0  0
  -25.4137  -36.3011   24.0279 C   0  0  1  0  0  0
  -20.5921  -28.3721   23.1210 C   0  0  2  0  0  0
  -20.6786  -26.9421   22.5375 C   0  0  0  0  0  0
  -19.5769  -26.6371   21.5174 C   0  0  0  0  0  0
  -18.1953  -26.7910   22.1599 C   0  0  0  0  0  0
  -19.1554  -28.8861   23.2814 C   0  0  0  0  0  0
  -18.9476  -30.1455   23.8837 C   0  0  0  0  0  0
  -17.6476  -30.6569   24.0552 C   0  0  0  0  0  0
  -25.9074  -34.9378   23.5031 C   0  0  0  0  0  0
  -16.5359  -29.9068   23.6330 C   0  0  0  0  0  0
  -16.7292  -28.6488   23.0339 C   0  0  0  0  0  0
  -26.4528  -31.6547   25.0750 C   0  0  0  0  0  0
  -25.3681  -31.3749   26.1424 C   0  0  0  0  0  0
  -27.0436  -30.2939   24.6405 C   0  0  0  0  0  0
  -27.6036  -32.4362   25.7524 C   0  0  0  0  0  0
  -27.5587  -37.1784   24.8457 C   0  0  0  0  0  0
  -21.4264  -29.3047   22.3575 N   0  0  0  0  0  0
  -26.4297  -37.3727   23.9386 N   0  0  0  0  0  0
  -24.7235  -31.0203   22.0973 N   0  0  0  0  0  0
  -23.4179  -28.8064   23.3019 O   0  0  0  0  0  0
  -28.2499  -26.0829   20.2480 O   0  0  0  0  0  0
  -26.5703  -34.8873   22.4633 O   0  0  0  0  0  0
  -23.5568  -32.1301   23.7065 O   0  0  0  0  0  0
  -28.9177  -21.8569   19.8938 C   0  0  0  0  0  0
  -28.4310  -23.1486   20.4712 C   0  0  0  0  0  0
  -27.9067  -22.9599   21.7856 C   0  0  0  0  0  0
  -28.8901  -20.5290   20.5657 C   0  0  0  0  0  0
  -27.8397  -21.6503   22.3610 C   0  0  0  0  0  0
  -27.3485  -24.1531   22.5580 C   0  0  0  0  0  0
  -28.5201  -24.0784   17.1462 C   0  0  0  0  0  0
  -29.5405  -19.0323   18.5065 C   0  0  0  0  0  0
  -28.0157  -20.7207   24.7229 C   0  0  0  0  0  0
  -25.8381  -20.4814   23.4062 C   0  0  0  0  0  0
  -29.1229  -24.7024   18.4187 C   0  0  0  0  0  0
  -29.9287  -17.6982   20.7289 C   0  0  0  0  0  0
  -28.2194  -24.6120   19.6700 C   0  0  2  0  0  0
  -29.1006  -18.9786   19.9759 C   0  0  1  0  0  0
  -27.0876  -21.3459   23.6682 C   0  0  0  0  0  0
  -28.3256  -20.5224   21.7832 N   0  0  0  0  0  0
  -29.6885  -16.1365   20.4996 N   0  0  0  0  0  0
  -31.4757  -12.7683   19.1817 H   0  0  0  0  0  0
  -30.4483  -11.6488   20.0341 H   0  0  0  0  0  0
  -29.8441  -11.7376   17.5803 H   0  0  0  0  0  0
  -29.5982  -13.4640   17.6964 H   0  0  0  0  0  0
  -27.9636  -11.2663   19.0019 H   0  0  0  0  0  0
  -27.3879  -12.4197   17.8244 H   0  0  0  0  0  0
  -27.5900  -14.2411   19.4020 H   0  0  0  0  0  0
  -28.7689  -12.2926   21.4425 H   0  0  0  0  0  0
  -28.3745  -13.9687   21.7568 H   0  0  0  0  0  0
  -25.2775   -9.5672   22.4785 H   0  0  0  0  0  0
  -23.9996   -7.4626   22.7490 H   0  0  0  0  0  0
  -21.0846   -8.8804   19.8959 H   0  0  0  0  0  0
  -22.3729  -10.9689   19.6182 H   0  0  0  0  0  0
  -21.2022   -7.6156   23.9721 H   0  0  0  0  0  0
  -21.1483   -6.0528   25.9078 H   0  0  0  0  0  0
  -22.0596   -2.7613   23.2841 H   0  0  0  0  0  0
  -22.4053  -11.9870   22.4844 H   0  0  0  0  0  0
  -21.1067  -13.1234   22.2634 H   0  0  0  0  0  0
  -24.6368  -15.8422   20.5255 H   0  0  0  0  0  0
  -26.2399  -15.6387   20.0419 H   0  0  0  0  0  0
  -26.7269  -32.5216   23.0984 H   0  0  0  0  0  0
  -24.9984  -33.9562   25.0233 H   0  0  0  0  0  0
  -22.7548  -31.2865   21.3859 H   0  0  0  0  0  0
  -23.3738  -35.9618   23.3283 H   0  0  0  0  0  0
  -24.3571  -36.8944   22.2071 H   0  0  0  0  0  0
  -23.7260  -37.6436   23.6735 H   0  0  0  0  0  0
  -26.1865  -31.4533   20.6382 H   0  0  0  0  0  0
  -26.8740  -30.7350   22.0590 H   0  0  0  0  0  0
  -28.1235  -28.7417   21.2574 H   0  0  0  0  0  0
  -25.8740  -25.8797   18.9131 H   0  0  0  0  0  0
  -23.9850  -27.3305   18.9395 H   0  0  0  0  0  0
  -23.8192  -30.5714   19.4029 H   0  0  0  0  0  0
  -22.7928  -29.2416   19.8449 H   0  0  0  0  0  0
  -25.1326  -36.1848   25.0767 H   0  0  0  0  0  0
  -20.9985  -28.3327   24.1348 H   0  0  0  0  0  0
  -20.5654  -26.2338   23.3603 H   0  0  0  0  0  0
  -21.6660  -26.7408   22.1203 H   0  0  0  0  0  0
  -19.6927  -25.6267   21.1244 H   0  0  0  0  0  0
  -19.6722  -27.3131   20.6676 H   0  0  0  0  0  0
  -17.4224  -26.6624   21.4017 H   0  0  0  0  0  0
  -18.0372  -26.0040   22.8995 H   0  0  0  0  0  0
  -19.7938  -30.7284   24.2177 H   0  0  0  0  0  0
  -17.5031  -31.6234   24.5177 H   0  0  0  0  0  0
  -15.5353  -30.2970   23.7690 H   0  0  0  0  0  0
  -15.8685  -28.0819   22.7090 H   0  0  0  0  0  0
  -24.5865  -30.7085   25.7741 H   0  0  0  0  0  0
  -24.8865  -32.2941   26.4788 H   0  0  0  0  0  0
  -25.7942  -30.8968   27.0248 H   0  0  0  0  0  0
  -26.3098  -29.6585   24.1440 H   0  0  0  0  0  0
  -27.4031  -29.7312   25.5029 H   0  0  0  0  0  0
  -27.9002  -30.4146   23.9767 H   0  0  0  0  0  0
  -27.2602  -33.3699   26.1986 H   0  0  0  0  0  0
  -28.3900  -32.6853   25.0387 H   0  0  0  0  0  0
  -28.0636  -31.8578   26.5540 H   0  0  0  0  0  0
  -28.2570  -38.0119   24.7532 H   0  0  0  0  0  0
  -28.1109  -36.2633   24.6264 H   0  0  0  0  0  0
  -27.2282  -37.1386   25.8850 H   0  0  0  0  0  0
  -20.9466  -29.8780   21.6769 H   0  0  0  0  0  0
  -26.0147  -38.2768   24.1429 H   0  0  0  0  0  0
  -29.2756  -21.8669   18.8744 H   0  0  0  0  0  0
  -27.8116  -25.0919   22.2807 H   0  0  0  0  0  0
  -27.5624  -24.0807   23.6221 H   0  0  0  0  0  0
  -26.2708  -24.2417   22.4177 H   0  0  0  0  0  0
  -28.2807  -23.0239   17.2707 H   0  0  0  0  0  0
  -29.2134  -24.1559   16.3091 H   0  0  0  0  0  0
  -27.6018  -24.5898   16.8550 H   0  0  0  0  0  0
  -28.8695  -19.6561   17.9139 H   0  0  0  0  0  0
  -29.5365  -18.0357   18.0621 H   0  0  0  0  0  0
  -30.5474  -19.4362   18.4144 H   0  0  0  0  0  0
  -28.8621  -21.3779   24.9278 H   0  0  0  0  0  0
  -28.4130  -19.7620   24.3906 H   0  0  0  0  0  0
  -27.4901  -20.5488   25.6616 H   0  0  0  0  0  0
  -25.1782  -20.9618   22.6816 H   0  0  0  0  0  0
  -25.2589  -20.3242   24.3164 H   0  0  0  0  0  0
  -26.1067  -19.5025   23.0071 H   0  0  0  0  0  0
  -29.3060  -25.7536   18.1891 H   0  0  0  0  0  0
  -30.1059  -24.2841   18.6385 H   0  0  0  0  0  0
  -29.7301  -17.8292   21.7937 H   0  0  0  0  0  0
  -30.9992  -17.8821   20.6301 H   0  0  0  0  0  0
  -27.2111  -24.4449   19.3128 H   0  0  0  0  0  0
  -28.0719  -18.6148   19.9487 H   0  0  0  0  0  0
  -26.7019  -22.2571   24.1160 H   0  0  0  0  0  0
  -28.7130  -15.8898   20.5674 H   0  0  0  0  0  0
  1 25  1  0  0  0
  1 30  2  0  0  0
  1 87  1  0  0  0
  2  3  1  0  0  0
  2 25  1  0  0  0
  2 88  1  0  0  0
  2 89  1  0  0  0
  3  4  1  0  0  0
  3 90  1  0  0  0
  3 91  1  0  0  0
  4  5  1  0  0  0
  4 92  1  0  0  0
  4 93  1  0  0  0
  5  6  1  0  0  0
  5 26  1  0  0  0
  5 94  1  0  0  0
  6 25  1  0  0  0
  6 95  1  0  0  0
  6 96  1  0  0  0
  7  8  2  0  0  0
  7 26  1  0  0  0
  7 29  1  0  0  0
  8  9  1  0  0  0
  8 22  1  0  0  0
  9 10  1  0  0  0
  9 27  2  0  0  0
 10 11  2  0  0  0
 10 15  1  0  0  0
 11 12  1  0  0  0
 11 97  1  0  0  0
 12 13  2  0  0  0
 12 98  1  0  0  0
 13 14  1  0  0  0
 13 31  1  0  0  0
 14 15  2  0  0  0
 14 99  1  0  0  0
 15100  1  0  0  0
 16 17  2  0  0  0
 16 21  1  0  0  0
 16 31  1  0  0  0
 17 18  1  0  0  0
 17101  1  0  0  0
 18 19  2  0  0  0
 18102  1  0  0  0
 19 20  1  0  0  0
 19 24  1  0  0  0
 20 21  2  0  0  0
 20103  1  0  0  0
 21 23  1  0  0  0
 22 28  1  0  0  0
 22 32  2  0  0  0
 26 27  1  0  0  0
 28104  1  0  0  0
 28105  1  0  0  0
 29106  1  0  0  0
 29107  1  0  0  0
 33 34  1  0  0  0
 33 66  1  0  0  0
 33 70  2  0  0  0
 34 36  1  0  0  0
 34 59  1  0  0  0
 34108  1  0  0  0
 35 44  2  0  0  0
 35 45  1  0  0  0
 35 68  1  0  0  0
 36 56  1  0  0  0
 36109  1  0  0  0
 37 39  1  0  0  0
 37 47  1  0  0  0
 37 66  1  0  0  0
 37110  1  0  0  0
 38 43  2  0  0  0
 38 46  1  0  0  0
 38 47  1  0  0  0
 39 64  1  0  0  0
 39 67  2  0  0  0
 40 52  1  0  0  0
 40 53  2  0  0  0
 40 58  1  0  0  0
 41111  1  0  0  0
 41112  1  0  0  0
 41113  1  0  0  0
 41 48  1  0  0  0
 42 43  1  0  0  0
 42 66  1  0  0  0
 42114  1  0  0  0
 42115  1  0  0  0
 43 44  1  0  0  0
 44116  1  0  0  0
 45 46  2  0  0  0
 45117  1  0  0  0
 46118  1  0  0  0
 47119  1  0  0  0
 47120  1  0  0  0
 48 56  1  0  0  0
 48 65  1  0  0  0
 48121  1  0  0  0
 49 50  1  0  0  0
 49 53  1  0  0  0
 49 64  1  0  0  0
 49122  1  0  0  0
 50 51  1  0  0  0
 50123  1  0  0  0
 50124  1  0  0  0
 51 52  1  0  0  0
 51125  1  0  0  0
 51126  1  0  0  0
 52127  1  0  0  0
 52128  1  0  0  0
 53 54  1  0  0  0
 54 55  2  0  0  0
 54129  1  0  0  0
 55 57  1  0  0  0
 55130  1  0  0  0
 56 69  2  0  0  0
 57 58  2  0  0  0
 57131  1  0  0  0
 58132  1  0  0  0
 59 60  1  0  0  0
 59 61  1  0  0  0
 59 62  1  0  0  0
 60133  1  0  0  0
 60134  1  0  0  0
 60135  1  0  0  0
 61136  1  0  0  0
 61137  1  0  0  0
 61138  1  0  0  0
 62139  1  0  0  0
 62140  1  0  0  0
 62141  1  0  0  0
 63 65  1  0  0  0
 63142  1  0  0  0
 63143  1  0  0  0
 63144  1  0  0  0
 64145  1  0  0  0
 65146  1  0  0  0
 68 83  1  0  0  0
 71 72  2  0  0  0
 71 74  1  0  0  0
 71147  1  0  0  0
 72 73  1  0  0  0
 72 83  1  0  0  0
 73 75  2  0  0  0
 73 76  1  0  0  0
 74 84  1  0  0  0
 74 86  2  0  0  0
 75 85  1  0  0  0
 75 86  1  0  0  0
 76148  1  0  0  0
 76149  1  0  0  0
 76150  1  0  0  0
 77 81  1  0  0  0
 77151  1  0  0  0
 77152  1  0  0  0
 77153  1  0  0  0
 78154  1  0  0  0
 78155  1  0  0  0
 78156  1  0  0  0
 78 84  1  0  0  0
 79157  1  0  0  0
 79158  1  0  0  0
 79159  1  0  0  0
 79 85  1  0  0  0
 80 85  1  0  0  0
 80160  1  0  0  0
 80161  1  0  0  0
 80162  1  0  0  0
 81163  1  0  0  0
 81164  1  0  0  0
 81 83  1  0  0  0
 82 84  1  0  0  0
 82 87  1  0  0  0
 82165  1  0  0  0
 82166  1  0  0  0
 83167  1  0  0  0
 84168  1  0  0  0
 85169  1  0  0  0
 87170  1  0  0  0
M  ISO  4   1 100  68 101  83 101  87 100
M  END
> <chiral flag>
0

> <version>
0

> <s_m_source_file>
/data/baiqing/PycharmProjects/Reinvent-master-3.2/result/LINK_invent/BTK/process_docking_weight1_custom_sum_contain_oxygen_bond_distance_aromatic_linkinvent_7_9_3/rearranged_h_0086.sdf

> <i_m_source_file_index>
44

> <r_mmod_Potential_Energy-OPLS-2005>
436.598327636719

> <r_mmod_Stretch_Energy-OPLS-2005>
302.978790283203

> <r_mmod_Bend_Energy-OPLS-2005>
296.106597900391

> <r_mmod_Torsional_Energy-OPLS-2005>
225.381912231445

> <r_mmod_Improper_Torsional_Energy-OPLS-2005>
8.001708984375

> <r_mmod_Van_der_Waal_Energy-OPLS-2005>
138.731018066406

> <r_mmod_Electrostatic_Energy-OPLS-2005>
-549.744201660156

> <r_mmod_Solvation_Energy-OPLS-2005>
-207.734832763672

> <b_mmod_Minimization_Converged-OPLS-2005>
0

> <r_mmod_RMS_Derivative-OPLS-2005>
2.95372319221497

$$$$
45
                    3D
 Structure written by MMmdl.
179187  0  0  1  0            999 V2000
  -30.8048  -14.3300   20.7287 C   0  0  0  0  0  0
  -30.4085  -12.3000   19.3821 C   0  0  0  0  0  0
  -29.4738  -12.5302   18.1829 C   0  0  0  0  0  0
  -28.0032  -12.3731   18.6069 C   0  0  0  0  0  0
  -27.6603  -13.2034   19.8706 C   0  0  2  0  0  0
  -28.6980  -12.9626   20.9875 C   0  0  0  0  0  0
  -25.2577  -13.8160   20.5654 C   0  0  0  0  0  0
  -24.1822  -13.0441   20.9162 C   0  0  0  0  0  0
  -24.6376  -11.6914   20.8727 C   0  0  0  0  0  0
  -23.9038  -10.4302   21.0396 C   0  0  0  0  0  0
  -24.3598   -9.4222   21.9178 C   0  0  0  0  0  0
  -23.6283   -8.2252   22.0751 C   0  0  0  0  0  0
  -22.4265   -8.0278   21.3545 C   0  0  0  0  0  0
  -21.9893   -9.0243   20.4638 C   0  0  0  0  0  0
  -22.7210  -10.2133   20.3043 C   0  0  0  0  0  0
  -21.6849   -6.0726   22.5273 C   0  0  0  0  0  0
  -21.4016   -6.5633   23.8206 C   0  0  0  0  0  0
  -21.3663   -5.6791   24.9174 C   0  0  0  0  0  0
  -21.6044   -4.3052   24.7229 C   0  0  0  0  0  0
  -21.8818   -3.8139   23.4350 C   0  0  0  0  0  0
  -21.9194   -4.6954   22.3403 C   0  0  0  0  0  0
  -22.7849  -13.5249   21.1831 C   0  0  0  0  0  0
  -22.1657   -4.2135   21.0981 F   0  0  0  0  0  0
  -21.5632   -3.4537   25.7745 F   0  0  0  0  0  0
  -30.0419  -13.2434   20.4478 N   0  0  0  0  0  0
  -26.3006  -12.9328   20.3336 N   0  0  0  0  0  0
  -25.9299  -11.6487   20.5735 N   0  0  0  0  0  0
  -22.0501  -12.8237   22.0390 N   0  0  0  0  0  0
  -25.4323  -15.1874   20.4082 N   0  0  0  0  0  0
  -31.8023  -14.6432   20.0732 O   0  0  0  0  0  0
  -21.6640   -6.8868   21.4238 O   0  0  0  0  0  0
  -22.3531  -14.5556   20.6686 O   0  0  0  0  0  0
  -24.6092  -31.8722   23.2167 C   0  0  0  0  0  0
  -25.8997  -32.4857   23.8433 C   0  0  1  0  0  0
  -27.2297  -27.4689   20.0701 C   0  0  0  0  0  0
  -25.5872  -33.8651   24.2365 N   0  0  0  0  0  0
  -23.3976  -30.4949   21.5615 C   0  0  2  0  0  0
  -24.8439  -28.9655   20.1202 C   0  0  0  0  0  0
  -22.7381  -29.4651   22.5065 C   0  0  0  0  0  0
  -18.0251  -28.1345   22.8483 C   0  0  0  0  0  0
  -24.1504  -36.7324   23.2633 C   0  0  0  0  0  0
  -25.9260  -30.8388   21.3751 C   0  0  0  0  0  0
  -26.0044  -29.4787   20.7140 C   0  0  0  0  0  0
  -27.2036  -28.7322   20.6932 C   0  0  0  0  0  0
  -26.0576  -26.9625   19.4704 C   0  0  0  0  0  0
  -24.8605  -27.7008   19.5063 C   0  0  0  0  0  0
  -23.6062  -29.8331   20.1747 C   0  0  0  0  0  0
  -25.4126  -36.3141   24.0342 C   0  0  1  0  0  0
  -20.5844  -28.3623   23.1334 C   0  0  2  0  0  0
  -20.6767  -26.9375   22.5420 C   0  0  0  0  0  0
  -19.5747  -26.6375   21.5197 C   0  0  0  0  0  0
  -18.1901  -26.7898   22.1600 C   0  0  0  0  0  0
  -19.1501  -28.8797   23.2903 C   0  0  0  0  0  0
  -18.9436  -30.1393   23.8928 C   0  0  0  0  0  0
  -17.6443  -30.6576   24.0532 C   0  0  0  0  0  0
  -25.9045  -34.9489   23.5169 C   0  0  0  0  0  0
  -16.5333  -29.9072   23.6314 C   0  0  0  0  0  0
  -16.7237  -28.6475   23.0365 C   0  0  0  0  0  0
  -26.4457  -31.6611   25.0734 C   0  0  0  0  0  0
  -25.3705  -31.3650   26.1453 C   0  0  0  0  0  0
  -27.0296  -30.3068   24.6088 C   0  0  0  0  0  0
  -27.6074  -32.4305   25.7471 C   0  0  0  0  0  0
  -27.5615  -37.1811   24.8462 C   0  0  0  0  0  0
  -21.4118  -29.3004   22.3752 N   0  0  0  0  0  0
  -26.4329  -37.3813   23.9390 N   0  0  0  0  0  0
  -24.6617  -31.0802   22.1101 N   0  0  0  0  0  0
  -23.4131  -28.8178   23.3099 O   0  0  0  0  0  0
  -28.3785  -26.7237   20.0062 O   0  0  0  0  0  0
  -26.5614  -34.8935   22.4734 O   0  0  0  0  0  0
  -23.5299  -32.1486   23.7579 O   0  0  0  0  0  0
  -30.1929  -22.8148   22.5102 C   0  0  0  0  0  0
  -31.0373  -21.7281   22.2252 C   0  0  0  0  0  0
  -28.8222  -22.7300   22.2125 C   0  0  0  0  0  0
  -30.4713  -20.5730   21.6328 C   0  0  0  0  0  0
  -28.3390  -21.5360   21.6260 C   0  0  0  0  0  0
  -32.5123  -21.8431   22.5792 C   0  0  0  0  0  0
  -31.2861  -19.1042   19.7293 C   0  0  0  0  0  0
  -26.2188  -20.3473   22.3314 C   0  0  0  0  0  0
  -26.6437  -20.8508   19.8560 C   0  0  0  0  0  0
  -33.0788  -17.4852   23.1671 C   0  0  0  0  0  0
  -27.9195  -23.9027   22.5732 C   0  0  0  0  0  0
  -27.5948  -24.8130   21.3756 C   0  0  0  0  0  0
  -30.8636  -18.0774   22.0433 C   0  0  0  0  0  0
  -31.4208  -15.6585   22.7498 C   0  0  0  0  0  0
  -28.6406  -25.9282   21.1576 C   0  0  0  0  0  0
  -31.2972  -19.3374   21.2502 C   0  0  2  0  0  0
  -26.8594  -21.3016   21.3114 C   0  0  0  0  0  0
  -31.9677  -17.0043   22.2144 C   0  0  2  0  0  0
  -29.1532  -20.4913   21.3592 N   0  0  0  0  0  0
  -30.4897  -14.9450   21.8759 N   0  0  0  0  0  0
  -31.4501  -12.4009   19.0730 H   0  0  0  0  0  0
  -30.3081  -11.2782   19.7521 H   0  0  0  0  0  0
  -29.7088  -11.8285   17.3820 H   0  0  0  0  0  0
  -29.6346  -13.5292   17.7737 H   0  0  0  0  0  0
  -27.8216  -11.3150   18.7985 H   0  0  0  0  0  0
  -27.3418  -12.6501   17.7850 H   0  0  0  0  0  0
  -27.7142  -14.2551   19.5875 H   0  0  0  0  0  0
  -28.6607  -11.9251   21.3240 H   0  0  0  0  0  0
  -28.4368  -13.5617   21.8597 H   0  0  0  0  0  0
  -25.2742   -9.5709   22.4748 H   0  0  0  0  0  0
  -23.9990   -7.4653   22.7478 H   0  0  0  0  0  0
  -21.0821   -8.8757   19.8947 H   0  0  0  0  0  0
  -22.3657  -10.9669   19.6149 H   0  0  0  0  0  0
  -21.2009   -7.6140   23.9705 H   0  0  0  0  0  0
  -21.1482   -6.0523   25.9073 H   0  0  0  0  0  0
  -22.0596   -2.7601   23.2858 H   0  0  0  0  0  0
  -22.4103  -11.9885   22.4770 H   0  0  0  0  0  0
  -21.1122  -13.1266   22.2600 H   0  0  0  0  0  0
  -24.6756  -15.8512   20.5264 H   0  0  0  0  0  0
  -26.2960  -15.6226   20.1084 H   0  0  0  0  0  0
  -26.7046  -32.5581   23.1181 H   0  0  0  0  0  0
  -24.9976  -33.9824   25.0474 H   0  0  0  0  0  0
  -22.6879  -31.3125   21.4272 H   0  0  0  0  0  0
  -23.3787  -35.9635   23.3307 H   0  0  0  0  0  0
  -24.3581  -36.8933   22.2047 H   0  0  0  0  0  0
  -23.7241  -37.6521   23.6648 H   0  0  0  0  0  0
  -26.0456  -31.6166   20.6187 H   0  0  0  0  0  0
  -26.8091  -30.8766   22.0024 H   0  0  0  0  0  0
  -28.1070  -29.1232   21.1415 H   0  0  0  0  0  0
  -26.0714  -25.9967   18.9850 H   0  0  0  0  0  0
  -23.9628  -27.3011   19.0537 H   0  0  0  0  0  0
  -23.7152  -30.6132   19.4208 H   0  0  0  0  0  0
  -22.7276  -29.2574   19.8790 H   0  0  0  0  0  0
  -25.1305  -36.2043   25.0843 H   0  0  0  0  0  0
  -20.9874  -28.3189   24.1483 H   0  0  0  0  0  0
  -20.5680  -26.2225   23.3601 H   0  0  0  0  0  0
  -21.6639  -26.7473   22.1198 H   0  0  0  0  0  0
  -19.6944  -25.6285   21.1226 H   0  0  0  0  0  0
  -19.6712  -27.3198   20.6733 H   0  0  0  0  0  0
  -17.4198  -26.6617   21.3989 H   0  0  0  0  0  0
  -18.0291  -26.0037   22.9000 H   0  0  0  0  0  0
  -19.7926  -30.7140   24.2373 H   0  0  0  0  0  0
  -17.5038  -31.6280   24.5075 H   0  0  0  0  0  0
  -15.5333  -30.2982   23.7674 H   0  0  0  0  0  0
  -15.8630  -28.0791   22.7133 H   0  0  0  0  0  0
  -24.5916  -30.7003   25.7719 H   0  0  0  0  0  0
  -24.8828  -32.2753   26.4947 H   0  0  0  0  0  0
  -25.8014  -30.8756   27.0195 H   0  0  0  0  0  0
  -26.2848  -29.6797   24.1189 H   0  0  0  0  0  0
  -27.4125  -29.7337   25.4540 H   0  0  0  0  0  0
  -27.8658  -30.4409   23.9214 H   0  0  0  0  0  0
  -27.2767  -33.3613   26.2093 H   0  0  0  0  0  0
  -28.3837  -32.6830   25.0235 H   0  0  0  0  0  0
  -28.0782  -31.8371   26.5325 H   0  0  0  0  0  0
  -28.2624  -38.0129   24.7558 H   0  0  0  0  0  0
  -28.1134  -36.2657   24.6262 H   0  0  0  0  0  0
  -27.2306  -37.1420   25.8858 H   0  0  0  0  0  0
  -20.9283  -29.8733   21.6985 H   0  0  0  0  0  0
  -26.0248  -38.2910   24.1380 H   0  0  0  0  0  0
  -30.5919  -23.7108   22.9632 H   0  0  0  0  0  0
  -32.7334  -22.8017   23.0511 H   0  0  0  0  0  0
  -33.1342  -21.7586   21.6881 H   0  0  0  0  0  0
  -32.8039  -21.0652   23.2854 H   0  0  0  0  0  0
  -31.6480  -19.9854   19.1999 H   0  0  0  0  0  0
  -30.2798  -18.8898   19.3698 H   0  0  0  0  0  0
  -31.9264  -18.2699   19.4459 H   0  0  0  0  0  0
  -26.3476  -20.7279   23.3463 H   0  0  0  0  0  0
  -26.6744  -19.3579   22.2917 H   0  0  0  0  0  0
  -25.1492  -20.2360   22.1536 H   0  0  0  0  0  0
  -27.0432  -21.5918   19.1622 H   0  0  0  0  0  0
  -25.5836  -20.7240   19.6372 H   0  0  0  0  0  0
  -27.1424  -19.9040   19.6482 H   0  0  0  0  0  0
  -33.5951  -18.3693   22.7968 H   0  0  0  0  0  0
  -33.8403  -16.7153   23.2995 H   0  0  0  0  0  0
  -32.6785  -17.7228   24.1527 H   0  0  0  0  0  0
  -28.3873  -24.4931   23.3635 H   0  0  0  0  0  0
  -27.0012  -23.5196   23.0195 H   0  0  0  0  0  0
  -26.6311  -25.2782   21.5858 H   0  0  0  0  0  0
  -27.4547  -24.2301   20.4646 H   0  0  0  0  0  0
  -29.9819  -17.6511   21.5640 H   0  0  0  0  0  0
  -30.5337  -18.3756   23.0393 H   0  0  0  0  0  0
  -30.9198  -15.8191   23.7055 H   0  0  0  0  0  0
  -32.2500  -14.9798   22.9607 H   0  0  0  0  0  0
  -29.6237  -25.4770   21.0237 H   0  0  0  0  0  0
  -28.7072  -26.5666   22.0400 H   0  0  0  0  0  0
  -32.3318  -19.5477   21.4997 H   0  0  0  0  0  0
  -26.3196  -22.2428   21.3940 H   0  0  0  0  0  0
  -32.4304  -16.8249   21.2447 H   0  0  0  0  0  0
  -29.6372  -14.6230   22.3094 H   0  0  0  0  0  0
  1 25  1  0  0  0
  1 30  2  0  0  0
  1 90  1  0  0  0
  2  3  1  0  0  0
  2 25  1  0  0  0
  2 91  1  0  0  0
  2 92  1  0  0  0
  3  4  1  0  0  0
  3 93  1  0  0  0
  3 94  1  0  0  0
  4  5  1  0  0  0
  4 95  1  0  0  0
  4 96  1  0  0  0
  5  6  1  0  0  0
  5 26  1  0  0  0
  5 97  1  0  0  0
  6 25  1  0  0  0
  6 98  1  0  0  0
  6 99  1  0  0  0
  7  8  2  0  0  0
  7 26  1  0  0  0
  7 29  1  0  0  0
  8  9  1  0  0  0
  8 22  1  0  0  0
  9 10  1  0  0  0
  9 27  2  0  0  0
 10 11  2  0  0  0
 10 15  1  0  0  0
 11 12  1  0  0  0
 11100  1  0  0  0
 12 13  2  0  0  0
 12101  1  0  0  0
 13 14  1  0  0  0
 13 31  1  0  0  0
 14 15  2  0  0  0
 14102  1  0  0  0
 15103  1  0  0  0
 16 17  2  0  0  0
 16 21  1  0  0  0
 16 31  1  0  0  0
 17 18  1  0  0  0
 17104  1  0  0  0
 18 19  2  0  0  0
 18105  1  0  0  0
 19 20  1  0  0  0
 19 24  1  0  0  0
 20 21  2  0  0  0
 20106  1  0  0  0
 21 23  1  0  0  0
 22 28  1  0  0  0
 22 32  2  0  0  0
 26 27  1  0  0  0
 28107  1  0  0  0
 28108  1  0  0  0
 29109  1  0  0  0
 29110  1  0  0  0
 33 34  1  0  0  0
 33 66  1  0  0  0
 33 70  2  0  0  0
 34 36  1  0  0  0
 34 59  1  0  0  0
 34111  1  0  0  0
 35 44  2  0  0  0
 35 45  1  0  0  0
 35 68  1  0  0  0
 36 56  1  0  0  0
 36112  1  0  0  0
 37 39  1  0  0  0
 37 47  1  0  0  0
 37 66  1  0  0  0
 37113  1  0  0  0
 38 43  2  0  0  0
 38 46  1  0  0  0
 38 47  1  0  0  0
 39 64  1  0  0  0
 39 67  2  0  0  0
 40 52  1  0  0  0
 40 53  2  0  0  0
 40 58  1  0  0  0
 41114  1  0  0  0
 41115  1  0  0  0
 41116  1  0  0  0
 41 48  1  0  0  0
 42 43  1  0  0  0
 42 66  1  0  0  0
 42117  1  0  0  0
 42118  1  0  0  0
 43 44  1  0  0  0
 44119  1  0  0  0
 45 46  2  0  0  0
 45120  1  0  0  0
 46121  1  0  0  0
 47122  1  0  0  0
 47123  1  0  0  0
 48 56  1  0  0  0
 48 65  1  0  0  0
 48124  1  0  0  0
 49 50  1  0  0  0
 49 53  1  0  0  0
 49 64  1  0  0  0
 49125  1  0  0  0
 50 51  1  0  0  0
 50126  1  0  0  0
 50127  1  0  0  0
 51 52  1  0  0  0
 51128  1  0  0  0
 51129  1  0  0  0
 52130  1  0  0  0
 52131  1  0  0  0
 53 54  1  0  0  0
 54 55  2  0  0  0
 54132  1  0  0  0
 55 57  1  0  0  0
 55133  1  0  0  0
 56 69  2  0  0  0
 57 58  2  0  0  0
 57134  1  0  0  0
 58135  1  0  0  0
 59 60  1  0  0  0
 59 61  1  0  0  0
 59 62  1  0  0  0
 60136  1  0  0  0
 60137  1  0  0  0
 60138  1  0  0  0
 61139  1  0  0  0
 61140  1  0  0  0
 61141  1  0  0  0
 62142  1  0  0  0
 62143  1  0  0  0
 62144  1  0  0  0
 63 65  1  0  0  0
 63145  1  0  0  0
 63146  1  0  0  0
 63147  1  0  0  0
 64148  1  0  0  0
 65149  1  0  0  0
 68 85  1  0  0  0
 71 72  2  0  0  0
 71 73  1  0  0  0
 71150  1  0  0  0
 72 74  1  0  0  0
 72 76  1  0  0  0
 73 75  2  0  0  0
 73 81  1  0  0  0
 74 86  1  0  0  0
 74 89  2  0  0  0
 75 87  1  0  0  0
 75 89  1  0  0  0
 76151  1  0  0  0
 76152  1  0  0  0
 76153  1  0  0  0
 77154  1  0  0  0
 77155  1  0  0  0
 77156  1  0  0  0
 77 86  1  0  0  0
 78157  1  0  0  0
 78158  1  0  0  0
 78159  1  0  0  0
 78 87  1  0  0  0
 79 87  1  0  0  0
 79160  1  0  0  0
 79161  1  0  0  0
 79162  1  0  0  0
 80163  1  0  0  0
 80164  1  0  0  0
 80165  1  0  0  0
 80 88  1  0  0  0
 81 82  1  0  0  0
 81166  1  0  0  0
 81167  1  0  0  0
 82 85  1  0  0  0
 82168  1  0  0  0
 82169  1  0  0  0
 83 86  1  0  0  0
 83 88  1  0  0  0
 83170  1  0  0  0
 83171  1  0  0  0
 84 88  1  0  0  0
 84 90  1  0  0  0
 84172  1  0  0  0
 84173  1  0  0  0
 85174  1  0  0  0
 85175  1  0  0  0
 86176  1  0  0  0
 87177  1  0  0  0
 88178  1  0  0  0
 90179  1  0  0  0
M  ISO  4   1 100  68 101  85 101  90 100
M  END
> <chiral flag>
0

> <version>
0

> <s_m_source_file>
/data/baiqing/PycharmProjects/Reinvent-master-3.2/result/LINK_invent/BTK/process_docking_weight1_custom_sum_contain_oxygen_bond_distance_aromatic_linkinvent_7_9_3/rearranged_h_0086.sdf

> <i_m_source_file_index>
45

> <r_mmod_Potential_Energy-OPLS-2005>
-278.735534667969

> <r_mmod_Stretch_Energy-OPLS-2005>
33.8409881591797

> <r_mmod_Bend_Energy-OPLS-2005>
100.083923339844

> <r_mmod_Torsional_Energy-OPLS-2005>
216.959487915039

> <r_mmod_Improper_Torsional_Energy-OPLS-2005>
4.30863571166992

> <r_mmod_Van_der_Waal_Energy-OPLS-2005>
152.986618041992

> <r_mmod_Electrostatic_Energy-OPLS-2005>
-592.021789550781

> <r_mmod_Solvation_Energy-OPLS-2005>
-202.775390625

> <b_mmod_Minimization_Converged-OPLS-2005>
0

> <r_mmod_RMS_Derivative-OPLS-2005>
3.0371687412262

$$$$
46
                    3D
 Structure written by MMmdl.
165173  0  0  1  0            999 V2000
  -29.1346  -18.3766   21.0437 C   0  0  0  0  0  0
  -29.9246  -15.1863   19.9276 C   0  0  0  0  0  0
  -29.5573  -13.9271   18.8331 C   0  0  0  0  0  0
  -28.4489  -12.9439   19.2144 C   0  0  0  0  0  0
  -27.5636  -13.8681   20.0486 C   0  0  2  0  0  0
  -28.2249  -15.0304   21.1066 C   0  0  0  0  0  0
  -25.1498  -13.9345   20.6183 C   0  0  0  0  0  0
  -24.1473  -13.0728   20.9321 C   0  0  0  0  0  0
  -24.6977  -11.7540   20.8649 C   0  0  0  0  0  0
  -23.9779  -10.4545   21.0150 C   0  0  0  0  0  0
  -24.4074   -9.4428   21.9053 C   0  0  0  0  0  0
  -23.6590   -8.2522   22.0738 C   0  0  0  0  0  0
  -22.4563   -8.0515   21.3540 C   0  0  0  0  0  0
  -22.0332   -9.0518   20.4610 C   0  0  0  0  0  0
  -22.7837  -10.2309   20.2911 C   0  0  0  0  0  0
  -21.6985   -6.0890   22.5267 C   0  0  0  0  0  0
  -21.4122   -6.5732   23.8218 C   0  0  0  0  0  0
  -21.3679   -5.6842   24.9151 C   0  0  0  0  0  0
  -21.6032   -4.3101   24.7170 C   0  0  0  0  0  0
  -21.8813   -3.8232   23.4274 C   0  0  0  0  0  0
  -21.9237   -4.7093   22.3360 C   0  0  0  0  0  0
  -22.7328  -13.4906   21.1832 C   0  0  0  0  0  0
  -22.1681   -4.2259   21.0937 F   0  0  0  0  0  0
  -21.5585   -3.4573   25.7667 F   0  0  0  0  0  0
  -28.9473  -16.5020   20.6605 N   0  0  0  0  0  0
  -26.2942  -13.2032   20.4550 N   0  0  0  0  0  0
  -26.0248  -11.8456   20.5949 N   0  0  0  0  0  0
  -22.0235  -12.7767   22.0450 N   0  0  0  0  0  0
  -25.1907  -15.3140   20.4431 N   0  0  0  0  0  0
  -30.3694  -17.8956   20.8292 O   0  0  0  0  0  0
  -21.6845   -6.9114   21.4259 O   0  0  0  0  0  0
  -22.2788  -14.5141   20.6701 O   0  0  0  0  0  0
  -26.6799  -29.4562   23.6933 C   0  0  0  0  0  0
  -26.6180  -31.4633   24.1553 C   0  0  1  0  0  0
  -27.3991  -27.3073   19.1082 C   0  0  0  0  0  0
  -25.7832  -32.9452   23.9222 N   0  0  0  0  0  0
  -23.5817  -29.1899   21.5235 C   0  0  2  0  0  0
  -24.7578  -28.6119   19.5540 C   0  0  0  0  0  0
  -22.4034  -28.8095   22.3352 C   0  0  0  0  0  0
  -17.8521  -28.1420   22.8073 C   0  0  0  0  0  0
  -24.1966  -36.2354   23.2986 C   0  0  0  0  0  0
  -24.7135  -27.3592   21.4550 C   0  0  0  0  0  0
  -25.1541  -27.4922   20.1111 C   0  0  0  0  0  0
  -26.2752  -26.7312   19.6835 C   0  0  0  0  0  0
  -27.2679  -28.5165   19.4526 C   0  0  0  0  0  0
  -26.0060  -29.0725   19.5623 C   0  0  0  0  0  0
  -23.4974  -29.2339   20.0241 C   0  0  0  0  0  0
  -25.4663  -35.7276   24.0393 C   0  0  1  0  0  0
  -20.3173  -28.2814   23.0547 C   0  0  2  0  0  0
  -20.3691  -26.7912   22.5965 C   0  0  0  0  0  0
  -19.3662  -26.5662   21.4927 C   0  0  0  0  0  0
  -17.9781  -26.8003   22.1018 C   0  0  0  0  0  0
  -18.9751  -28.8648   23.2356 C   0  0  0  0  0  0
  -18.8429  -30.1138   23.8698 C   0  0  0  0  0  0
  -17.5616  -30.6591   24.0542 C   0  0  0  0  0  0
  -26.0597  -34.3057   23.4853 C   0  0  0  0  0  0
  -16.4299  -29.9376   23.6271 C   0  0  0  0  0  0
  -16.5755  -28.6755   23.0212 C   0  0  0  0  0  0
  -26.7453  -31.4714   25.6463 C   0  0  0  0  0  0
  -25.3966  -31.3478   26.3936 C   0  0  0  0  0  0
  -27.5891  -30.2686   25.9944 C   0  0  0  0  0  0
  -27.5552  -32.6777   26.1410 C   0  0  0  0  0  0
  -27.4942  -36.9831   24.8721 C   0  0  0  0  0  0
  -21.1602  -29.1246   22.2074 N   0  0  0  0  0  0
  -26.3781  -36.9331   23.9377 N   0  0  0  0  0  0
  -24.9716  -28.3909   22.3331 N   0  0  0  0  0  0
  -22.7251  -28.1620   23.2842 O   0  0  0  0  0  0
  -27.5905  -27.8354   17.8626 O   0  0  0  0  0  0
  -26.8530  -34.4908   22.5634 O   0  0  0  0  0  0
  -27.5535  -30.1353   23.2693 O   0  0  0  0  0  0
  -25.8485  -26.8714   23.9663 C   0  0  0  0  0  0
  -27.1457  -27.9415   21.8810 C   0  0  0  0  0  0
  -24.8254  -28.2481   24.5788 C   0  0  0  0  0  0
  -27.0102  -26.1086   22.4928 C   0  0  0  0  0  0
  -24.4741  -30.2589   23.5719 C   0  0  0  0  0  0
  -25.2670  -27.4243   27.0885 C   0  0  0  0  0  0
  -22.7441  -27.5579   26.2362 C   0  0  0  0  0  0
  -27.9644  -23.3046   21.9652 C   0  0  0  0  0  0
  -25.8709  -31.6689   19.1342 C   0  0  0  0  0  0
  -26.6003  -30.8311   17.7207 C   0  0  0  0  0  0
  -26.0445  -31.5493   20.8744 C   0  0  0  0  0  0
  -26.8439  -29.1318   17.1567 C   0  0  0  0  0  0
  -24.2621  -27.7884   25.9521 C   0  0  0  0  0  0
  -25.7803  -30.2867   21.8254 N   0  0  0  0  0  0
  -28.4236  -20.5236   21.4684 N   0  0  0  0  0  0
  -23.6718  -31.1268   23.9302 O   0  0  0  0  0  0
  -30.6351  -15.7742   19.3469 H   0  0  0  0  0  0
  -30.5810  -14.7681   20.6971 H   0  0  0  0  0  0
  -30.4637  -13.3636   18.5956 H   0  0  0  0  0  0
  -29.2694  -14.3988   17.8907 H   0  0  0  0  0  0
  -28.8331  -12.1225   19.8254 H   0  0  0  0  0  0
  -27.9393  -12.5242   18.3415 H   0  0  0  0  0  0
  -27.2167  -14.5229   19.2461 H   0  0  0  0  0  0
  -28.7922  -14.5198   21.8864 H   0  0  0  0  0  0
  -27.3965  -15.3962   21.7049 H   0  0  0  0  0  0
  -25.3159   -9.5889   22.4737 H   0  0  0  0  0  0
  -24.0224   -7.4963   22.7562 H   0  0  0  0  0  0
  -21.1244   -8.9135   19.8922 H   0  0  0  0  0  0
  -22.4290  -10.9840   19.6007 H   0  0  0  0  0  0
  -21.2181   -7.6253   23.9748 H   0  0  0  0  0  0
  -21.1473   -6.0562   25.9041 H   0  0  0  0  0  0
  -22.0555   -2.7702   23.2748 H   0  0  0  0  0  0
  -22.4124  -11.9571   22.4855 H   0  0  0  0  0  0
  -21.0757  -13.0508   22.2622 H   0  0  0  0  0  0
  -24.3633  -15.8951   20.4969 H   0  0  0  0  0  0
  -26.0235  -15.8213   20.1721 H   0  0  0  0  0  0
  -27.5325  -32.0299   23.8508 H   0  0  0  0  0  0
  -24.9202  -32.9192   24.4525 H   0  0  0  0  0  0
  -23.3921  -30.2764   21.5469 H   0  0  0  0  0  0
  -23.4074  -35.4709   23.3022 H   0  0  0  0  0  0
  -24.4090  -36.4663   22.2479 H   0  0  0  0  0  0
  -23.7664  -37.1336   23.7582 H   0  0  0  0  0  0
  -24.8288  -26.3726   21.8244 H   0  0  0  0  0  0
  -23.6722  -27.0334   21.3248 H   0  0  0  0  0  0
  -26.4189  -25.7716   20.1232 H   0  0  0  0  0  0
  -28.1677  -29.1513   19.4731 H   0  0  0  0  0  0
  -26.6051  -29.8557   19.7726 H   0  0  0  0  0  0
  -23.2875  -30.2005   19.5732 H   0  0  0  0  0  0
  -22.7084  -28.5943   19.6423 H   0  0  0  0  0  0
  -25.1851  -35.5848   25.0828 H   0  0  0  0  0  0
  -20.6298  -28.2923   24.0966 H   0  0  0  0  0  0
  -20.0760  -26.1722   23.4483 H   0  0  0  0  0  0
  -21.3437  -26.4039   22.2992 H   0  0  0  0  0  0
  -19.4261  -25.5554   21.0780 H   0  0  0  0  0  0
  -19.5407  -27.2678   20.6729 H   0  0  0  0  0  0
  -17.2197  -26.7580   21.3094 H   0  0  0  0  0  0
  -17.7198  -26.0092   22.8174 H   0  0  0  0  0  0
  -19.7102  -30.6518   24.2185 H   0  0  0  0  0  0
  -17.4362  -31.6245   24.5304 H   0  0  0  0  0  0
  -15.4349  -30.3513   23.7652 H   0  0  0  0  0  0
  -15.7002  -28.1307   22.6934 H   0  0  0  0  0  0
  -24.9191  -30.3789   26.2780 H   0  0  0  0  0  0
  -24.6747  -32.1102   26.1064 H   0  0  0  0  0  0
  -25.5247  -31.4465   27.4656 H   0  0  0  0  0  0
  -27.0771  -29.3105   26.0085 H   0  0  0  0  0  0
  -27.8851  -30.3217   27.0403 H   0  0  0  0  0  0
  -28.5404  -30.2183   25.4578 H   0  0  0  0  0  0
  -27.0518  -33.6247   25.9725 H   0  0  0  0  0  0
  -28.5514  -32.7307   25.6998 H   0  0  0  0  0  0
  -27.6892  -32.6438   27.2242 H   0  0  0  0  0  0
  -28.0966  -37.8786   24.6897 H   0  0  0  0  0  0
  -28.1447  -36.1092   24.7679 H   0  0  0  0  0  0
  -27.1336  -37.0298   25.9056 H   0  0  0  0  0  0
  -20.8317  -29.6066   21.3968 H   0  0  0  0  0  0
  -25.8528  -37.7940   24.0391 H   0  0  0  0  0  0
  -25.8934  -26.0715   24.6739 H   0  0  0  0  0  0
  -28.1180  -28.1221   21.4629 H   0  0  0  0  0  0
  -26.0637  -26.7705   26.7300 H   0  0  0  0  0  0
  -24.7774  -26.8356   27.8755 H   0  0  0  0  0  0
  -25.7817  -28.2481   27.5737 H   0  0  0  0  0  0
  -22.1128  -28.3833   25.9372 H   0  0  0  0  0  0
  -22.5563  -27.3743   27.2969 H   0  0  0  0  0  0
  -22.3674  -26.6531   25.7248 H   0  0  0  0  0  0
  -28.6215  -23.3075   22.8315 H   0  0  0  0  0  0
  -28.5691  -23.6129   21.1127 H   0  0  0  0  0  0
  -24.8089  -31.9066   19.0017 H   0  0  0  0  0  0
  -26.3449  -32.6313   19.0773 H   0  0  0  0  0  0
  -27.5257  -31.3679   17.5886 H   0  0  0  0  0  0
  -26.0437  -31.2546   16.8706 H   0  0  0  0  0  0
  -25.3663  -32.3115   21.2746 H   0  0  0  0  0  0
  -27.0480  -31.9066   21.1246 H   0  0  0  0  0  0
  -27.2215  -29.1728   16.1132 H   0  0  0  0  0  0
  -25.8512  -28.6976   16.9723 H   0  0  0  0  0  0
  -24.2662  -26.7623   25.6198 H   0  0  0  0  0  0
  -29.4188  -20.7277   21.4437 H   0  0  0  0  0  0
  1 25  1  0  0  0
  1 30  2  0  0  0
  1 85  1  0  0  0
  2  3  1  0  0  0
  2 25  1  0  0  0
  2 87  1  0  0  0
  2 88  1  0  0  0
  3  4  1  0  0  0
  3 89  1  0  0  0
  3 90  1  0  0  0
  4  5  1  0  0  0
  4 91  1  0  0  0
  4 92  1  0  0  0
  5  6  1  0  0  0
  5 26  1  0  0  0
  5 93  1  0  0  0
  6 25  1  0  0  0
  6 94  1  0  0  0
  6 95  1  0  0  0
  7  8  2  0  0  0
  7 26  1  0  0  0
  7 29  1  0  0  0
  8  9  1  0  0  0
  8 22  1  0  0  0
  9 10  1  0  0  0
  9 27  2  0  0  0
 10 11  2  0  0  0
 10 15  1  0  0  0
 11 12  1  0  0  0
 11 96  1  0  0  0
 12 13  2  0  0  0
 12 97  1  0  0  0
 13 14  1  0  0  0
 13 31  1  0  0  0
 14 15  2  0  0  0
 14 98  1  0  0  0
 15 99  1  0  0  0
 16 17  2  0  0  0
 16 21  1  0  0  0
 16 31  1  0  0  0
 17 18  1  0  0  0
 17100  1  0  0  0
 18 19  2  0  0  0
 18101  1  0  0  0
 19 20  1  0  0  0
 19 24  1  0  0  0
 20 21  2  0  0  0
 20102  1  0  0  0
 21 23  1  0  0  0
 22 28  1  0  0  0
 22 32  2  0  0  0
 26 27  1  0  0  0
 28103  1  0  0  0
 28104  1  0  0  0
 29105  1  0  0  0
 29106  1  0  0  0
 33 34  1  0  0  0
 33 66  1  0  0  0
 33 70  2  0  0  0
 34 36  1  0  0  0
 34 59  1  0  0  0
 34107  1  0  0  0
 35 44  2  0  0  0
 35 45  1  0  0  0
 35 68  1  0  0  0
 36 56  1  0  0  0
 36108  1  0  0  0
 37 39  1  0  0  0
 37 47  1  0  0  0
 37 66  1  0  0  0
 37109  1  0  0  0
 38 43  2  0  0  0
 38 46  1  0  0  0
 38 47  1  0  0  0
 39 64  1  0  0  0
 39 67  2  0  0  0
 40 52  1  0  0  0
 40 53  2  0  0  0
 40 58  1  0  0  0
 41110  1  0  0  0
 41111  1  0  0  0
 41112  1  0  0  0
 41 48  1  0  0  0
 42 43  1  0  0  0
 42 66  1  0  0  0
 42113  1  0  0  0
 42114  1  0  0  0
 43 44  1  0  0  0
 44115  1  0  0  0
 45 46  2  0  0  0
 45116  1  0  0  0
 46117  1  0  0  0
 47118  1  0  0  0
 47119  1  0  0  0
 48 56  1  0  0  0
 48 65  1  0  0  0
 48120  1  0  0  0
 49 50  1  0  0  0
 49 53  1  0  0  0
 49 64  1  0  0  0
 49121  1  0  0  0
 50 51  1  0  0  0
 50122  1  0  0  0
 50123  1  0  0  0
 51 52  1  0  0  0
 51124  1  0  0  0
 51125  1  0  0  0
 52126  1  0  0  0
 52127  1  0  0  0
 53 54  1  0  0  0
 54 55  2  0  0  0
 54128  1  0  0  0
 55 57  1  0  0  0
 55129  1  0  0  0
 56 69  2  0  0  0
 57 58  2  0  0  0
 57130  1  0  0  0
 58131  1  0  0  0
 59 60  1  0  0  0
 59 61  1  0  0  0
 59 62  1  0  0  0
 60132  1  0  0  0
 60133  1  0  0  0
 60134  1  0  0  0
 61135  1  0  0  0
 61136  1  0  0  0
 61137  1  0  0  0
 62138  1  0  0  0
 62139  1  0  0  0
 62140  1  0  0  0
 63 65  1  0  0  0
 63141  1  0  0  0
 63142  1  0  0  0
 63143  1  0  0  0
 64144  1  0  0  0
 65145  1  0  0  0
 68 82  1  0  0  0
 71 73  2  0  0  0
 71 74  1  0  0  0
 71146  1  0  0  0
 72 74  2  0  0  0
 72 84  1  0  0  0
 72147  1  0  0  0
 73 75  1  0  0  0
 73 83  1  0  0  0
 74 78  1  0  0  0
 75 84  1  0  0  0
 75 86  2  0  0  0
 76148  1  0  0  0
 76149  1  0  0  0
 76150  1  0  0  0
 76 83  1  0  0  0
 77 83  1  0  0  0
 77151  1  0  0  0
 77152  1  0  0  0
 77153  1  0  0  0
 78 85  1  0  0  0
 78154  1  0  0  0
 78155  1  0  0  0
 79 80  1  0  0  0
 79 81  1  0  0  0
 79156  1  0  0  0
 79157  1  0  0  0
 80 82  1  0  0  0
 80158  1  0  0  0
 80159  1  0  0  0
 81 84  1  0  0  0
 81160  1  0  0  0
 81161  1  0  0  0
 82162  1  0  0  0
 82163  1  0  0  0
 83164  1  0  0  0
 85165  1  0  0  0
M  ISO  4   1 100  68 101  82 101  85 100
M  END
> <chiral flag>
0

> <version>
0

> <s_m_source_file>
/data/baiqing/PycharmProjects/Reinvent-master-3.2/result/LINK_invent/BTK/process_docking_weight1_custom_sum_contain_oxygen_bond_distance_aromatic_linkinvent_7_9_3/rearranged_h_0086.sdf

> <i_m_source_file_index>
46

> <r_mmod_Potential_Energy-OPLS-2005>
43089.22265625

> <r_mmod_Stretch_Energy-OPLS-2005>
19919.318359375

> <r_mmod_Bend_Energy-OPLS-2005>
3439.31762695312

> <r_mmod_Torsional_Energy-OPLS-2005>
690.978210449219

> <r_mmod_Improper_Torsional_Energy-OPLS-2005>
159.673522949219

> <r_mmod_Van_der_Waal_Energy-OPLS-2005>
4310.20556640625

> <r_mmod_Electrostatic_Energy-OPLS-2005>
-296.398284912109

> <r_mmod_Solvation_Energy-OPLS-2005>
-217.939926147461

> <b_mmod_Minimization_Converged-OPLS-2005>
0

> <r_mmod_RMS_Derivative-OPLS-2005>
55.4989471435547

$$$$
47
                    3D
 Structure written by MMmdl.
168176  0  0  1  0            999 V2000
  -30.6477  -14.5968   20.5567 C   0  0  0  0  0  0
  -30.4399  -12.3828   19.4372 C   0  0  0  0  0  0
  -29.4997  -12.5040   18.2181 C   0  0  0  0  0  0
  -28.0249  -12.3367   18.6351 C   0  0  0  0  0  0
  -27.6527  -13.2126   19.8595 C   0  0  2  0  0  0
  -28.6977  -13.0456   20.9837 C   0  0  0  0  0  0
  -25.2545  -13.8170   20.5699 C   0  0  0  0  0  0
  -24.1817  -13.0455   20.9211 C   0  0  0  0  0  0
  -24.6375  -11.6918   20.8746 C   0  0  0  0  0  0
  -23.9043  -10.4313   21.0412 C   0  0  0  0  0  0
  -24.3600   -9.4225   21.9189 C   0  0  0  0  0  0
  -23.6289   -8.2251   22.0752 C   0  0  0  0  0  0
  -22.4269   -8.0287   21.3548 C   0  0  0  0  0  0
  -21.9903   -9.0253   20.4643 C   0  0  0  0  0  0
  -22.7218  -10.2140   20.3057 C   0  0  0  0  0  0
  -21.6835   -6.0741   22.5285 C   0  0  0  0  0  0
  -21.3993   -6.5639   23.8219 C   0  0  0  0  0  0
  -21.3670   -5.6793   24.9183 C   0  0  0  0  0  0
  -21.6044   -4.3055   24.7229 C   0  0  0  0  0  0
  -21.8813   -3.8152   23.4348 C   0  0  0  0  0  0
  -21.9190   -4.6974   22.3407 C   0  0  0  0  0  0
  -22.7833  -13.5236   21.1892 C   0  0  0  0  0  0
  -22.1654   -4.2159   21.0982 F   0  0  0  0  0  0
  -21.5650   -3.4541   25.7744 F   0  0  0  0  0  0
  -30.0160  -13.3881   20.4296 N   0  0  0  0  0  0
  -26.2979  -12.9352   20.3313 N   0  0  0  0  0  0
  -25.9299  -11.6513   20.5751 N   0  0  0  0  0  0
  -22.0456  -12.8228   22.0430 N   0  0  0  0  0  0
  -25.4264  -15.1901   20.4115 N   0  0  0  0  0  0
  -31.7875  -14.7592   20.1100 O   0  0  0  0  0  0
  -21.6631   -6.8883   21.4246 O   0  0  0  0  0  0
  -22.3524  -14.5562   20.6757 O   0  0  0  0  0  0
  -24.6202  -31.8571   23.2056 C   0  0  0  0  0  0
  -25.9039  -32.4783   23.8362 C   0  0  1  0  0  0
  -27.2433  -27.3430   20.0996 C   0  0  0  0  0  0
  -25.5839  -33.8571   24.2300 N   0  0  0  0  0  0
  -23.4210  -30.4762   21.5451 C   0  0  2  0  0  0
  -24.8706  -28.9297   20.1209 C   0  0  0  0  0  0
  -22.7472  -29.4597   22.4960 C   0  0  0  0  0  0
  -18.0248  -28.1426   22.8496 C   0  0  0  0  0  0
  -24.1482  -36.7320   23.2642 C   0  0  0  0  0  0
  -25.9565  -30.7933   21.3741 C   0  0  0  0  0  0
  -26.0348  -29.4194   20.7243 C   0  0  0  0  0  0
  -27.2188  -28.6347   20.7068 C   0  0  0  0  0  0
  -26.0501  -26.8896   19.4890 C   0  0  0  0  0  0
  -24.8780  -27.6708   19.4996 C   0  0  0  0  0  0
  -23.6397  -29.8046   20.1649 C   0  0  0  0  0  0
  -25.4084  -36.3065   24.0355 C   0  0  1  0  0  0
  -20.5858  -28.3723   23.1304 C   0  0  2  0  0  0
  -20.6790  -26.9457   22.5408 C   0  0  0  0  0  0
  -19.5758  -26.6432   21.5224 C   0  0  0  0  0  0
  -18.1919  -26.7961   22.1629 C   0  0  0  0  0  0
  -19.1507  -28.8892   23.2901 C   0  0  0  0  0  0
  -18.9430  -30.1479   23.8948 C   0  0  0  0  0  0
  -17.6442  -30.6653   24.0555 C   0  0  0  0  0  0
  -25.9019  -34.9438   23.5150 C   0  0  0  0  0  0
  -16.5324  -29.9157   23.6338 C   0  0  0  0  0  0
  -16.7232  -28.6563   23.0369 C   0  0  0  0  0  0
  -26.4419  -31.6576   25.0720 C   0  0  0  0  0  0
  -25.3648  -31.3679   26.1446 C   0  0  0  0  0  0
  -27.0237  -30.2991   24.6150 C   0  0  0  0  0  0
  -27.5987  -32.4309   25.7440 C   0  0  0  0  0  0
  -27.5584  -37.1777   24.8473 C   0  0  0  0  0  0
  -21.4186  -29.3059   22.3706 N   0  0  0  0  0  0
  -26.4278  -37.3746   23.9438 N   0  0  0  0  0  0
  -24.6847  -31.0595   22.0996 N   0  0  0  0  0  0
  -23.4190  -28.8120   23.3036 O   0  0  0  0  0  0
  -28.4219  -26.5911   20.1229 O   0  0  0  0  0  0
  -26.5615  -34.8913   22.4735 O   0  0  0  0  0  0
  -23.5389  -32.1325   23.7433 O   0  0  0  0  0  0
  -29.5580  -20.5747   19.1219 C   0  0  0  0  0  0
  -29.4869  -21.9900   19.2702 C   0  0  0  0  0  0
  -28.9301  -22.5622   20.4542 C   0  0  0  0  0  0
  -29.1095  -19.7100   20.1450 C   0  0  0  0  0  0
  -28.5711  -21.6051   21.4573 C   0  0  0  0  0  0
  -30.0662  -22.8361   18.1561 C   0  0  0  0  0  0
  -28.7163  -21.2172   23.9881 C   0  0  0  0  0  0
  -28.7255  -17.7075   18.5627 C   0  0  0  0  0  0
  -30.1596  -15.8490   22.7068 C   0  0  0  0  0  0
  -28.7742  -24.1163   20.7384 C   0  0  0  0  0  0
  -28.0566  -22.0021   22.8405 C   0  0  0  0  0  0
  -30.2376  -17.2947   20.5903 C   0  0  0  0  0  0
  -28.5356  -25.2117   19.6228 C   0  0  0  0  0  0
  -29.0375  -18.1439   20.0084 C   0  0  1  0  0  0
  -29.9111  -15.8459   21.1843 C   0  0  1  0  0  0
  -28.6236  -20.2526   21.2809 N   0  0  0  0  0  0
  -31.4762  -12.5191   19.1226 H   0  0  0  0  0  0
  -30.3924  -11.3831   19.8708 H   0  0  0  0  0  0
  -29.7625  -11.7569   17.4674 H   0  0  0  0  0  0
  -29.6373  -13.4775   17.7454 H   0  0  0  0  0  0
  -27.8678  -11.2847   18.8770 H   0  0  0  0  0  0
  -27.3648  -12.5555   17.7953 H   0  0  0  0  0  0
  -27.6768  -14.2492   19.5223 H   0  0  0  0  0  0
  -28.7046  -12.0150   21.3407 H   0  0  0  0  0  0
  -28.4376  -13.6536   21.8499 H   0  0  0  0  0  0
  -25.2740   -9.5718   22.4766 H   0  0  0  0  0  0
  -24.0009   -7.4642   22.7469 H   0  0  0  0  0  0
  -21.0832   -8.8762   19.8942 H   0  0  0  0  0  0
  -22.3667  -10.9681   19.6165 H   0  0  0  0  0  0
  -21.1946   -7.6138   23.9723 H   0  0  0  0  0  0
  -21.1503   -6.0520   25.9090 H   0  0  0  0  0  0
  -22.0577   -2.7612   23.2842 H   0  0  0  0  0  0
  -22.4036  -11.9874   22.4821 H   0  0  0  0  0  0
  -21.1074  -13.1267   22.2623 H   0  0  0  0  0  0
  -24.6607  -15.8452   20.5281 H   0  0  0  0  0  0
  -26.2805  -15.6314   20.0980 H   0  0  0  0  0  0
  -26.7086  -32.5450   23.1095 H   0  0  0  0  0  0
  -24.9789  -33.9714   25.0305 H   0  0  0  0  0  0
  -22.7120  -31.2915   21.3951 H   0  0  0  0  0  0
  -23.3740  -35.9661   23.3276 H   0  0  0  0  0  0
  -24.3545  -36.8980   22.2060 H   0  0  0  0  0  0
  -23.7269  -37.6540   23.6661 H   0  0  0  0  0  0
  -26.0762  -31.5490   20.5968 H   0  0  0  0  0  0
  -26.8456  -30.8554   21.9933 H   0  0  0  0  0  0
  -28.1200  -29.0058   21.1750 H   0  0  0  0  0  0
  -25.9900  -25.9327   18.9938 H   0  0  0  0  0  0
  -23.9792  -27.3003   19.0263 H   0  0  0  0  0  0
  -23.7605  -30.5701   19.3981 H   0  0  0  0  0  0
  -22.7682  -29.2209   19.8682 H   0  0  0  0  0  0
  -25.1249  -36.1900   25.0846 H   0  0  0  0  0  0
  -20.9897  -28.3310   24.1450 H   0  0  0  0  0  0
  -20.5776  -26.2302   23.3591 H   0  0  0  0  0  0
  -21.6642  -26.7563   22.1136 H   0  0  0  0  0  0
  -19.6938  -25.6350   21.1255 H   0  0  0  0  0  0
  -19.6728  -27.3248   20.6763 H   0  0  0  0  0  0
  -17.4180  -26.6660   21.4044 H   0  0  0  0  0  0
  -18.0362  -26.0105   22.9045 H   0  0  0  0  0  0
  -19.7892  -30.7241   24.2416 H   0  0  0  0  0  0
  -17.5000  -31.6341   24.5130 H   0  0  0  0  0  0
  -15.5333  -30.3084   23.7707 H   0  0  0  0  0  0
  -15.8587  -28.0915   22.7129 H   0  0  0  0  0  0
  -24.5867  -30.6974   25.7776 H   0  0  0  0  0  0
  -24.8754  -32.2816   26.4826 H   0  0  0  0  0  0
  -25.7967  -30.8890   27.0240 H   0  0  0  0  0  0
  -26.2796  -29.6745   24.1190 H   0  0  0  0  0  0
  -27.3952  -29.7222   25.4626 H   0  0  0  0  0  0
  -27.8644  -30.4306   23.9341 H   0  0  0  0  0  0
  -27.2626  -33.3631   26.1991 H   0  0  0  0  0  0
  -28.3755  -32.6839   25.0213 H   0  0  0  0  0  0
  -28.0660  -31.8423   26.5347 H   0  0  0  0  0  0
  -28.2560  -38.0101   24.7533 H   0  0  0  0  0  0
  -28.1113  -36.2635   24.6265 H   0  0  0  0  0  0
  -27.2309  -37.1440   25.8872 H   0  0  0  0  0  0
  -20.9420  -29.8687   21.6803 H   0  0  0  0  0  0
  -26.0175  -38.2827   24.1423 H   0  0  0  0  0  0
  -29.9559  -20.1515   18.2098 H   0  0  0  0  0  0
  -30.6870  -22.2374   17.4880 H   0  0  0  0  0  0
  -30.7135  -23.6063   18.5701 H   0  0  0  0  0  0
  -29.2798  -23.2998   17.5624 H   0  0  0  0  0  0
  -28.3174  -21.5425   24.9473 H   0  0  0  0  0  0
  -29.7947  -21.3771   23.9940 H   0  0  0  0  0  0
  -28.5377  -20.1440   23.9114 H   0  0  0  0  0  0
  -27.8513  -18.2337   18.1791 H   0  0  0  0  0  0
  -28.5191  -16.6377   18.5000 H   0  0  0  0  0  0
  -29.5558  -17.9174   17.8900 H   0  0  0  0  0  0
  -29.5702  -16.6197   23.2055 H   0  0  0  0  0  0
  -31.2093  -16.0375   22.9363 H   0  0  0  0  0  0
  -29.8963  -14.8962   23.1689 H   0  0  0  0  0  0
  -29.6427  -24.4177   21.3220 H   0  0  0  0  0  0
  -27.9107  -24.2476   21.3863 H   0  0  0  0  0  0
  -26.9738  -21.8785   22.8569 H   0  0  0  0  0  0
  -28.2498  -23.0496   23.0572 H   0  0  0  0  0  0
  -30.6640  -17.8933   21.3936 H   0  0  0  0  0  0
  -31.0414  -17.2457   19.8545 H   0  0  0  0  0  0
  -27.7242  -24.8998   18.9733 H   0  0  0  0  0  0
  -29.4111  -25.2659   18.9848 H   0  0  0  0  0  0
  -28.1610  -17.8674   20.5948 H   0  0  0  0  0  0
  -28.8447  -15.6974   21.0286 H   0  0  0  0  0  0
  1 25  1  0  0  0
  1 30  2  0  0  0
  1 85  1  0  0  0
  2  3  1  0  0  0
  2 25  1  0  0  0
  2 87  1  0  0  0
  2 88  1  0  0  0
  3  4  1  0  0  0
  3 89  1  0  0  0
  3 90  1  0  0  0
  4  5  1  0  0  0
  4 91  1  0  0  0
  4 92  1  0  0  0
  5  6  1  0  0  0
  5 26  1  0  0  0
  5 93  1  0  0  0
  6 25  1  0  0  0
  6 94  1  0  0  0
  6 95  1  0  0  0
  7  8  2  0  0  0
  7 26  1  0  0  0
  7 29  1  0  0  0
  8  9  1  0  0  0
  8 22  1  0  0  0
  9 10  1  0  0  0
  9 27  2  0  0  0
 10 11  2  0  0  0
 10 15  1  0  0  0
 11 12  1  0  0  0
 11 96  1  0  0  0
 12 13  2  0  0  0
 12 97  1  0  0  0
 13 14  1  0  0  0
 13 31  1  0  0  0
 14 15  2  0  0  0
 14 98  1  0  0  0
 15 99  1  0  0  0
 16 17  2  0  0  0
 16 21  1  0  0  0
 16 31  1  0  0  0
 17 18  1  0  0  0
 17100  1  0  0  0
 18 19  2  0  0  0
 18101  1  0  0  0
 19 20  1  0  0  0
 19 24  1  0  0  0
 20 21  2  0  0  0
 20102  1  0  0  0
 21 23  1  0  0  0
 22 28  1  0  0  0
 22 32  2  0  0  0
 26 27  1  0  0  0
 28103  1  0  0  0
 28104  1  0  0  0
 29105  1  0  0  0
 29106  1  0  0  0
 33 34  1  0  0  0
 33 66  1  0  0  0
 33 70  2  0  0  0
 34 36  1  0  0  0
 34 59  1  0  0  0
 34107  1  0  0  0
 35 44  2  0  0  0
 35 45  1  0  0  0
 35 68  1  0  0  0
 36 56  1  0  0  0
 36108  1  0  0  0
 37 39  1  0  0  0
 37 47  1  0  0  0
 37 66  1  0  0  0
 37109  1  0  0  0
 38 43  2  0  0  0
 38 46  1  0  0  0
 38 47  1  0  0  0
 39 64  1  0  0  0
 39 67  2  0  0  0
 40 52  1  0  0  0
 40 53  2  0  0  0
 40 58  1  0  0  0
 41110  1  0  0  0
 41111  1  0  0  0
 41112  1  0  0  0
 41 48  1  0  0  0
 42 43  1  0  0  0
 42 66  1  0  0  0
 42113  1  0  0  0
 42114  1  0  0  0
 43 44  1  0  0  0
 44115  1  0  0  0
 45 46  2  0  0  0
 45116  1  0  0  0
 46117  1  0  0  0
 47118  1  0  0  0
 47119  1  0  0  0
 48 56  1  0  0  0
 48 65  1  0  0  0
 48120  1  0  0  0
 49 50  1  0  0  0
 49 53  1  0  0  0
 49 64  1  0  0  0
 49121  1  0  0  0
 50 51  1  0  0  0
 50122  1  0  0  0
 50123  1  0  0  0
 51 52  1  0  0  0
 51124  1  0  0  0
 51125  1  0  0  0
 52126  1  0  0  0
 52127  1  0  0  0
 53 54  1  0  0  0
 54 55  2  0  0  0
 54128  1  0  0  0
 55 57  1  0  0  0
 55129  1  0  0  0
 56 69  2  0  0  0
 57 58  2  0  0  0
 57130  1  0  0  0
 58131  1  0  0  0
 59 60  1  0  0  0
 59 61  1  0  0  0
 59 62  1  0  0  0
 60132  1  0  0  0
 60133  1  0  0  0
 60134  1  0  0  0
 61135  1  0  0  0
 61136  1  0  0  0
 61137  1  0  0  0
 62138  1  0  0  0
 62139  1  0  0  0
 62140  1  0  0  0
 63 65  1  0  0  0
 63141  1  0  0  0
 63142  1  0  0  0
 63143  1  0  0  0
 64144  1  0  0  0
 65145  1  0  0  0
 68 83  1  0  0  0
 71 72  2  0  0  0
 71 74  1  0  0  0
 71146  1  0  0  0
 72 73  1  0  0  0
 72 76  1  0  0  0
 73 75  2  0  0  0
 73 80  1  0  0  0
 74 84  1  0  0  0
 74 86  2  0  0  0
 75 81  1  0  0  0
 75 86  1  0  0  0
 76147  1  0  0  0
 76148  1  0  0  0
 76149  1  0  0  0
 77 81  1  0  0  0
 77150  1  0  0  0
 77151  1  0  0  0
 77152  1  0  0  0
 78153  1  0  0  0
 78154  1  0  0  0
 78155  1  0  0  0
 78 84  1  0  0  0
 79156  1  0  0  0
 79157  1  0  0  0
 79158  1  0  0  0
 79 85  1  0  0  0
 80 83  1  0  0  0
 80159  1  0  0  0
 80160  1  0  0  0
 81161  1  0  0  0
 81162  1  0  0  0
 82 84  1  0  0  0
 82 85  1  0  0  0
 82163  1  0  0  0
 82164  1  0  0  0
 83165  1  0  0  0
 83166  1  0  0  0
 84167  1  0  0  0
 85168  1  0  0  0
M  ISO  4   1 100  68 101  83 101  85 100
M  END
> <chiral flag>
0

> <version>
0

> <s_m_source_file>
/data/baiqing/PycharmProjects/Reinvent-master-3.2/result/LINK_invent/BTK/process_docking_weight1_custom_sum_contain_oxygen_bond_distance_aromatic_linkinvent_7_9_3/rearranged_h_0086.sdf

> <i_m_source_file_index>
47

> <r_mmod_Potential_Energy-OPLS-2005>
-109.818069458008

> <r_mmod_Stretch_Energy-OPLS-2005>
77.4485931396484

> <r_mmod_Bend_Energy-OPLS-2005>
156.340270996094

> <r_mmod_Torsional_Energy-OPLS-2005>
175.868087768555

> <r_mmod_Improper_Torsional_Energy-OPLS-2005>
2.66724681854248

> <r_mmod_Van_der_Waal_Energy-OPLS-2005>
152.592559814453

> <r_mmod_Electrostatic_Energy-OPLS-2005>
-513.427001953125

> <r_mmod_Solvation_Energy-OPLS-2005>
-194.609497070312

> <b_mmod_Minimization_Converged-OPLS-2005>
0

> <r_mmod_RMS_Derivative-OPLS-2005>
3.93994379043579

$$$$
48
                    3D
 Structure written by MMmdl.
158165  0  0  1  0            999 V2000
  -30.4350  -15.2316   20.3935 C   0  0  0  0  0  0
  -30.4366  -12.7856   19.5271 C   0  0  0  0  0  0
  -29.5312  -12.5675   18.2884 C   0  0  0  0  0  0
  -28.0828  -12.2850   18.7220 C   0  0  0  0  0  0
  -27.6114  -13.2638   19.8268 C   0  0  2  0  0  0
  -28.6443  -13.4202   20.9625 C   0  0  0  0  0  0
  -25.2406  -13.8223   20.5722 C   0  0  0  0  0  0
  -24.1729  -13.0431   20.9250 C   0  0  0  0  0  0
  -24.6364  -11.6926   20.8760 C   0  0  0  0  0  0
  -23.9061  -10.4302   21.0416 C   0  0  0  0  0  0
  -24.3611   -9.4212   21.9188 C   0  0  0  0  0  0
  -23.6287   -8.2252   22.0758 C   0  0  0  0  0  0
  -22.4273   -8.0283   21.3543 C   0  0  0  0  0  0
  -21.9914   -9.0255   20.4648 C   0  0  0  0  0  0
  -22.7238  -10.2132   20.3057 C   0  0  0  0  0  0
  -21.6848   -6.0727   22.5267 C   0  0  0  0  0  0
  -21.4012   -6.5636   23.8202 C   0  0  0  0  0  0
  -21.3653   -5.6789   24.9157 C   0  0  0  0  0  0
  -21.6037   -4.3056   24.7218 C   0  0  0  0  0  0
  -21.8829   -3.8144   23.4337 C   0  0  0  0  0  0
  -21.9198   -4.6965   22.3395 C   0  0  0  0  0  0
  -22.7759  -13.5209   21.1873 C   0  0  0  0  0  0
  -22.1666   -4.2147   21.0969 F   0  0  0  0  0  0
  -21.5626   -3.4537   25.7729 F   0  0  0  0  0  0
  -29.8766  -13.9263   20.3385 N   0  0  0  0  0  0
  -26.2807  -12.9466   20.3223 N   0  0  0  0  0  0
  -25.9304  -11.6589   20.5749 N   0  0  0  0  0  0
  -22.0404  -12.8206   22.0437 N   0  0  0  0  0  0
  -25.4086  -15.1938   20.4120 N   0  0  0  0  0  0
  -31.6576  -15.2469   20.1964 O   0  0  0  0  0  0
  -21.6635   -6.8876   21.4234 O   0  0  0  0  0  0
  -22.3465  -14.5514   20.6710 O   0  0  0  0  0  0
  -24.6659  -31.8213   23.1668 C   0  0  0  0  0  0
  -25.9333  -32.4560   23.8143 C   0  0  1  0  0  0
  -27.2200  -26.9139   20.1930 C   0  0  0  0  0  0
  -25.6000  -33.8376   24.2064 N   0  0  0  0  0  0
  -23.4784  -30.4306   21.5180 C   0  0  2  0  0  0
  -24.9312  -28.8077   20.1213 C   0  0  0  0  0  0
  -22.7652  -29.4429   22.4771 C   0  0  0  0  0  0
  -18.0315  -28.1394   22.8456 C   0  0  0  0  0  0
  -24.1484  -36.7166   23.2651 C   0  0  0  0  0  0
  -26.0475  -30.6241   21.3966 C   0  0  0  0  0  0
  -26.1180  -29.2100   20.7473 C   0  0  0  0  0  0
  -27.2615  -28.2884   20.7473 C   0  0  0  0  0  0
  -25.9994  -26.6587   19.5305 C   0  0  0  0  0  0
  -24.8973  -27.5516   19.4928 C   0  0  0  0  0  0
  -23.7198  -29.7398   20.1481 C   0  0  0  0  0  0
  -25.4119  -36.2925   24.0302 C   0  0  1  0  0  0
  -20.5945  -28.3746   23.1164 C   0  0  2  0  0  0
  -20.6787  -26.9426   22.5383 C   0  0  0  0  0  0
  -19.5760  -26.6376   21.5188 C   0  0  0  0  0  0
  -18.1944  -26.7926   22.1607 C   0  0  0  0  0  0
  -19.1583  -28.8888   23.2792 C   0  0  0  0  0  0
  -18.9512  -30.1481   23.8833 C   0  0  0  0  0  0
  -17.6505  -30.6594   24.0547 C   0  0  0  0  0  0
  -25.9106  -34.9327   23.4996 C   0  0  0  0  0  0
  -16.5391  -29.9085   23.6351 C   0  0  0  0  0  0
  -16.7302  -28.6498   23.0371 C   0  0  0  0  0  0
  -26.4596  -31.6504   25.0677 C   0  0  0  0  0  0
  -25.3731  -31.3717   26.1337 C   0  0  0  0  0  0
  -27.0541  -30.2886   24.6411 C   0  0  0  0  0  0
  -27.6067  -32.4345   25.7487 C   0  0  0  0  0  0
  -27.5540  -37.1718   24.8477 C   0  0  0  0  0  0
  -21.4331  -29.3039   22.3518 N   0  0  0  0  0  0
  -26.4248  -37.3673   23.9428 N   0  0  0  0  0  0
  -24.7522  -30.9853   22.0819 N   0  0  0  0  0  0
  -23.4186  -28.8006   23.3026 O   0  0  0  0  0  0
  -28.2601  -25.8434   20.1564 O   0  0  0  0  0  0
  -26.5713  -34.8886   22.4595 O   0  0  0  0  0  0
  -23.5727  -32.1215   23.6745 O   0  0  0  0  0  0
  -31.5069  -20.9240   21.6607 C   0  0  0  0  0  0
  -29.3184  -21.1873   22.9813 C   0  0  0  0  0  0
  -27.5292  -19.2908   20.8248 C   0  0  0  0  0  0
  -29.9315  -18.1290   20.5932 C   0  0  0  0  0  0
  -28.5182  -22.6004   19.8991 C   0  0  0  0  0  0
  -28.2259  -24.2459   20.6121 C   0  0  0  0  0  0
  -30.0812  -21.5108   21.6902 C   0  0  0  0  0  0
  -28.9248  -19.5845   20.2473 C   0  0  2  0  0  0
  -29.6544  -16.4874   20.4762 N   0  0  0  0  0  0
  -29.2902  -21.2131   20.4650 N   0  3  1  0  0  0
  -31.4593  -12.9853   19.2042 H   0  0  0  0  0  0
  -30.4943  -11.8756   20.1283 H   0  0  0  0  0  0
  -29.9103  -11.7453   17.6801 H   0  0  0  0  0  0
  -29.5553  -13.4567   17.6587 H   0  0  0  0  0  0
  -28.0501  -11.2635   19.1058 H   0  0  0  0  0  0
  -27.4090  -12.3105   17.8652 H   0  0  0  0  0  0
  -27.5352  -14.2309   19.3296 H   0  0  0  0  0  0
  -28.8084  -12.4752   21.4839 H   0  0  0  0  0  0
  -28.2874  -14.1288   21.7119 H   0  0  0  0  0  0
  -25.2744   -9.5686   22.4777 H   0  0  0  0  0  0
  -23.9980   -7.4645   22.7491 H   0  0  0  0  0  0
  -21.0840   -8.8778   19.8956 H   0  0  0  0  0  0
  -22.3690  -10.9675   19.6178 H   0  0  0  0  0  0
  -21.2005   -7.6139   23.9694 H   0  0  0  0  0  0
  -21.1457   -6.0518   25.9055 H   0  0  0  0  0  0
  -22.0617   -2.7615   23.2834 H   0  0  0  0  0  0
  -22.4016  -11.9871   22.4829 H   0  0  0  0  0  0
  -21.1027  -13.1248   22.2629 H   0  0  0  0  0  0
  -24.6380  -15.8467   20.5060 H   0  0  0  0  0  0
  -26.2452  -15.6233   20.0405 H   0  0  0  0  0  0
  -26.7408  -32.5105   23.0858 H   0  0  0  0  0  0
  -25.0072  -33.9451   25.0165 H   0  0  0  0  0  0
  -22.7916  -31.2624   21.3420 H   0  0  0  0  0  0
  -23.3758  -35.9482   23.3290 H   0  0  0  0  0  0
  -24.3545  -36.8855   22.2070 H   0  0  0  0  0  0
  -23.7262  -37.6346   23.6746 H   0  0  0  0  0  0
  -26.2221  -31.3617   20.6129 H   0  0  0  0  0  0
  -26.9083  -30.6841   22.0505 H   0  0  0  0  0  0
  -28.1731  -28.6042   21.2348 H   0  0  0  0  0  0
  -25.8782  -25.7024   19.0397 H   0  0  0  0  0  0
  -23.9973  -27.2367   18.9834 H   0  0  0  0  0  0
  -23.8784  -30.5069   19.3888 H   0  0  0  0  0  0
  -22.8290  -29.1965   19.8292 H   0  0  0  0  0  0
  -25.1313  -36.1671   25.0787 H   0  0  0  0  0  0
  -21.0018  -28.3373   24.1300 H   0  0  0  0  0  0
  -20.5664  -26.2375   23.3629 H   0  0  0  0  0  0
  -21.6652  -26.7405   22.1192 H   0  0  0  0  0  0
  -19.6939  -25.6275   21.1245 H   0  0  0  0  0  0
  -19.6704  -27.3168   20.6690 H   0  0  0  0  0  0
  -17.4209  -26.6677   21.4013 H   0  0  0  0  0  0
  -18.0346  -26.0070   22.9010 H   0  0  0  0  0  0
  -19.8005  -30.7281   24.2190 H   0  0  0  0  0  0
  -17.5085  -31.6274   24.5149 H   0  0  0  0  0  0
  -15.5394  -30.2965   23.7727 H   0  0  0  0  0  0
  -15.8701  -28.0798   22.7128 H   0  0  0  0  0  0
  -24.5933  -30.7051   25.7618 H   0  0  0  0  0  0
  -24.8903  -32.2905   26.4666 H   0  0  0  0  0  0
  -25.7978  -30.8932   27.0174 H   0  0  0  0  0  0
  -26.3233  -29.6502   24.1428 H   0  0  0  0  0  0
  -27.4112  -29.7284   25.5062 H   0  0  0  0  0  0
  -27.9144  -30.4082   23.9823 H   0  0  0  0  0  0
  -27.2616  -33.3712   26.1870 H   0  0  0  0  0  0
  -28.3960  -32.6801   25.0371 H   0  0  0  0  0  0
  -28.0640  -31.8608   26.5559 H   0  0  0  0  0  0
  -28.2511  -38.0047   24.7506 H   0  0  0  0  0  0
  -28.1076  -36.2566   24.6312 H   0  0  0  0  0  0
  -27.2249  -37.1348   25.8878 H   0  0  0  0  0  0
  -20.9600  -29.8724   21.6642 H   0  0  0  0  0  0
  -26.0074  -38.2710   24.1492 H   0  0  0  0  0  0
  -32.1113  -21.3793   22.4455 H   0  0  0  0  0  0
  -32.0114  -21.1351   20.7178 H   0  0  0  0  0  0
  -31.5469  -19.8526   21.8340 H   0  0  0  0  0  0
  -29.8396  -21.5986   23.8464 H   0  0  0  0  0  0
  -29.2235  -20.1143   23.1398 H   0  0  0  0  0  0
  -28.3183  -21.6217   22.9624 H   0  0  0  0  0  0
  -27.1159  -18.3810   20.3864 H   0  0  0  0  0  0
  -26.8271  -20.0993   20.6254 H   0  0  0  0  0  0
  -27.5611  -19.1338   21.9033 H   0  0  0  0  0  0
  -30.1366  -18.2112   21.6606 H   0  0  0  0  0  0
  -30.8968  -18.2951   20.1158 H   0  0  0  0  0  0
  -29.0870  -22.8106   18.9953 H   0  0  0  0  0  0
  -27.5580  -22.2622   19.5112 H   0  0  0  0  0  0
  -28.9566  -24.2930   21.4169 H   0  0  0  0  0  0
  -27.2866  -24.1481   21.1557 H   0  0  0  0  0  0
  -30.2570  -22.5832   21.6865 H   0  0  0  0  0  0
  -28.7897  -19.5379   19.1669 H   0  0  0  0  0  0
  -28.6709  -16.2770   20.5606 H   0  0  0  0  0  0
  -30.0431  -21.2405   19.7898 H   0  0  0  0  0  0
  1 25  1  0  0  0
  1 30  2  0  0  0
  1 79  1  0  0  0
  2  3  1  0  0  0
  2 25  1  0  0  0
  2 81  1  0  0  0
  2 82  1  0  0  0
  3  4  1  0  0  0
  3 83  1  0  0  0
  3 84  1  0  0  0
  4  5  1  0  0  0
  4 85  1  0  0  0
  4 86  1  0  0  0
  5  6  1  0  0  0
  5 26  1  0  0  0
  5 87  1  0  0  0
  6 25  1  0  0  0
  6 88  1  0  0  0
  6 89  1  0  0  0
  7  8  2  0  0  0
  7 26  1  0  0  0
  7 29  1  0  0  0
  8  9  1  0  0  0
  8 22  1  0  0  0
  9 10  1  0  0  0
  9 27  2  0  0  0
 10 11  2  0  0  0
 10 15  1  0  0  0
 11 12  1  0  0  0
 11 90  1  0  0  0
 12 13  2  0  0  0
 12 91  1  0  0  0
 13 14  1  0  0  0
 13 31  1  0  0  0
 14 15  2  0  0  0
 14 92  1  0  0  0
 15 93  1  0  0  0
 16 17  2  0  0  0
 16 21  1  0  0  0
 16 31  1  0  0  0
 17 18  1  0  0  0
 17 94  1  0  0  0
 18 19  2  0  0  0
 18 95  1  0  0  0
 19 20  1  0  0  0
 19 24  1  0  0  0
 20 21  2  0  0  0
 20 96  1  0  0  0
 21 23  1  0  0  0
 22 28  1  0  0  0
 22 32  2  0  0  0
 26 27  1  0  0  0
 28 97  1  0  0  0
 28 98  1  0  0  0
 29 99  1  0  0  0
 29100  1  0  0  0
 33 34  1  0  0  0
 33 66  1  0  0  0
 33 70  2  0  0  0
 34 36  1  0  0  0
 34 59  1  0  0  0
 34101  1  0  0  0
 35 44  2  0  0  0
 35 45  1  0  0  0
 35 68  1  0  0  0
 36 56  1  0  0  0
 36102  1  0  0  0
 37 39  1  0  0  0
 37 47  1  0  0  0
 37 66  1  0  0  0
 37103  1  0  0  0
 38 43  2  0  0  0
 38 46  1  0  0  0
 38 47  1  0  0  0
 39 64  1  0  0  0
 39 67  2  0  0  0
 40 52  1  0  0  0
 40 53  2  0  0  0
 40 58  1  0  0  0
 41104  1  0  0  0
 41105  1  0  0  0
 41106  1  0  0  0
 41 48  1  0  0  0
 42 43  1  0  0  0
 42 66  1  0  0  0
 42107  1  0  0  0
 42108  1  0  0  0
 43 44  1  0  0  0
 44109  1  0  0  0
 45 46  2  0  0  0
 45110  1  0  0  0
 46111  1  0  0  0
 47112  1  0  0  0
 47113  1  0  0  0
 48 56  1  0  0  0
 48 65  1  0  0  0
 48114  1  0  0  0
 49 50  1  0  0  0
 49 53  1  0  0  0
 49 64  1  0  0  0
 49115  1  0  0  0
 50 51  1  0  0  0
 50116  1  0  0  0
 50117  1  0  0  0
 51 52  1  0  0  0
 51118  1  0  0  0
 51119  1  0  0  0
 52120  1  0  0  0
 52121  1  0  0  0
 53 54  1  0  0  0
 54 55  2  0  0  0
 54122  1  0  0  0
 55 57  1  0  0  0
 55123  1  0  0  0
 56 69  2  0  0  0
 57 58  2  0  0  0
 57124  1  0  0  0
 58125  1  0  0  0
 59 60  1  0  0  0
 59 61  1  0  0  0
 59 62  1  0  0  0
 60126  1  0  0  0
 60127  1  0  0  0
 60128  1  0  0  0
 61129  1  0  0  0
 61130  1  0  0  0
 61131  1  0  0  0
 62132  1  0  0  0
 62133  1  0  0  0
 62134  1  0  0  0
 63 65  1  0  0  0
 63135  1  0  0  0
 63136  1  0  0  0
 63137  1  0  0  0
 64138  1  0  0  0
 65139  1  0  0  0
 68 76  1  0  0  0
 71140  1  0  0  0
 71141  1  0  0  0
 71142  1  0  0  0
 71 77  1  0  0  0
 72 77  1  0  0  0
 72143  1  0  0  0
 72144  1  0  0  0
 72145  1  0  0  0
 73146  1  0  0  0
 73147  1  0  0  0
 73148  1  0  0  0
 73 78  1  0  0  0
 74 78  1  0  0  0
 74 79  1  0  0  0
 74149  1  0  0  0
 74150  1  0  0  0
 75 76  1  0  0  0
 75151  1  0  0  0
 75152  1  0  0  0
 75 80  1  0  0  0
 76153  1  0  0  0
 76154  1  0  0  0
 77 80  1  0  0  0
 77155  1  0  0  0
 78 80  1  0  0  0
 78156  1  0  0  0
 79157  1  0  0  0
 80158  1  0  0  0
M  CHG  1  80   1
M  ISO  4   1 100  68 101  76 101  79 100
M  END
> <chiral flag>
0

> <version>
0

> <s_m_source_file>
/data/baiqing/PycharmProjects/Reinvent-master-3.2/result/LINK_invent/BTK/process_docking_weight1_custom_sum_contain_oxygen_bond_distance_aromatic_linkinvent_7_9_3/rearranged_h_0086.sdf

> <i_m_source_file_index>
48

> <r_mmod_Potential_Energy-OPLS-2005>
1228.39282226562

> <r_mmod_Stretch_Energy-OPLS-2005>
624.695190429688

> <r_mmod_Bend_Energy-OPLS-2005>
496.055419921875

> <r_mmod_Torsional_Energy-OPLS-2005>
264.530578613281

> <r_mmod_Improper_Torsional_Energy-OPLS-2005>
4.10572719573975

> <r_mmod_Van_der_Waal_Energy-OPLS-2005>
104.255554199219

> <r_mmod_Electrostatic_Energy-OPLS-2005>
-261.815032958984

> <r_mmod_Solvation_Energy-OPLS-2005>
-440.384338378906

> <b_mmod_Minimization_Converged-OPLS-2005>
0

> <r_mmod_RMS_Derivative-OPLS-2005>
2.9685378074646

$$$$
49
                    3D
 Structure written by MMmdl.
183191  0  0  1  0            999 V2000
  -30.6868  -14.4966   20.5356 C   0  0  0  0  0  0
  -30.4256  -12.3077   19.4300 C   0  0  0  0  0  0
  -29.4971  -12.4852   18.2114 C   0  0  0  0  0  0
  -28.0175  -12.3411   18.6254 C   0  0  0  0  0  0
  -27.6531  -13.1917   19.8712 C   0  0  2  0  0  0
  -28.7009  -13.0186   20.9945 C   0  0  0  0  0  0
  -25.2571  -13.8110   20.5727 C   0  0  0  0  0  0
  -24.1807  -13.0412   20.9209 C   0  0  0  0  0  0
  -24.6344  -11.6870   20.8756 C   0  0  0  0  0  0
  -23.9019  -10.4278   21.0433 C   0  0  0  0  0  0
  -24.3588   -9.4193   21.9202 C   0  0  0  0  0  0
  -23.6269   -8.2230   22.0757 C   0  0  0  0  0  0
  -22.4252   -8.0277   21.3553 C   0  0  0  0  0  0
  -21.9889   -9.0244   20.4653 C   0  0  0  0  0  0
  -22.7202  -10.2128   20.3074 C   0  0  0  0  0  0
  -21.6845   -6.0732   22.5283 C   0  0  0  0  0  0
  -21.4002   -6.5632   23.8217 C   0  0  0  0  0  0
  -21.3662   -5.6788   24.9179 C   0  0  0  0  0  0
  -21.6049   -4.3055   24.7225 C   0  0  0  0  0  0
  -21.8812   -3.8142   23.4346 C   0  0  0  0  0  0
  -21.9180   -4.6959   22.3399 C   0  0  0  0  0  0
  -22.7842  -13.5245   21.1871 C   0  0  0  0  0  0
  -22.1655   -4.2148   21.0980 F   0  0  0  0  0  0
  -21.5635   -3.4538   25.7737 F   0  0  0  0  0  0
  -30.0271  -13.3104   20.4281 N   0  0  0  0  0  0
  -26.2980  -12.9241   20.3393 N   0  0  0  0  0  0
  -25.9267  -11.6421   20.5799 N   0  0  0  0  0  0
  -22.0464  -12.8250   22.0419 N   0  0  0  0  0  0
  -25.4311  -15.1830   20.4158 N   0  0  0  0  0  0
  -31.8514  -14.6535   20.1581 O   0  0  0  0  0  0
  -21.6624   -6.8871   21.4249 O   0  0  0  0  0  0
  -22.3544  -14.5560   20.6717 O   0  0  0  0  0  0
  -24.6119  -31.8676   23.2098 C   0  0  0  0  0  0
  -25.9016  -32.4809   23.8398 C   0  0  1  0  0  0
  -27.2328  -27.4555   20.1003 C   0  0  0  0  0  0
  -25.5888  -33.8613   24.2352 N   0  0  0  0  0  0
  -23.3980  -30.4883   21.5513 C   0  0  2  0  0  0
  -24.8459  -28.9572   20.1123 C   0  0  0  0  0  0
  -22.7396  -29.4640   22.5024 C   0  0  0  0  0  0
  -18.0251  -28.1361   22.8478 C   0  0  0  0  0  0
  -24.1475  -36.7333   23.2637 C   0  0  0  0  0  0
  -25.9228  -30.8448   21.3533 C   0  0  0  0  0  0
  -26.0057  -29.4830   20.6993 C   0  0  0  0  0  0
  -27.2066  -28.7427   20.6838 C   0  0  0  0  0  0
  -26.0663  -26.9436   19.4994 C   0  0  0  0  0  0
  -24.8706  -27.6866   19.5096 C   0  0  0  0  0  0
  -23.6033  -29.8151   20.1675 C   0  0  0  0  0  0
  -25.4090  -36.3103   24.0348 C   0  0  1  0  0  0
  -20.5839  -28.3638   23.1330 C   0  0  2  0  0  0
  -20.6740  -26.9383   22.5411 C   0  0  0  0  0  0
  -19.5721  -26.6373   21.5201 C   0  0  0  0  0  0
  -18.1903  -26.7904   22.1617 C   0  0  0  0  0  0
  -19.1504  -28.8818   23.2894 C   0  0  0  0  0  0
  -18.9441  -30.1433   23.8895 C   0  0  0  0  0  0
  -17.6448  -30.6574   24.0561 C   0  0  0  0  0  0
  -25.9011  -34.9465   23.5141 C   0  0  0  0  0  0
  -16.5336  -29.9072   23.6332 C   0  0  0  0  0  0
  -16.7246  -28.6489   23.0339 C   0  0  0  0  0  0
  -26.4472  -31.6559   25.0696 C   0  0  0  0  0  0
  -25.3761  -31.3643   26.1459 C   0  0  0  0  0  0
  -27.0296  -30.3022   24.5991 C   0  0  0  0  0  0
  -27.6075  -32.4237   25.7445 C   0  0  0  0  0  0
  -27.5562  -37.1815   24.8469 C   0  0  0  0  0  0
  -21.4120  -29.3010   22.3753 N   0  0  0  0  0  0
  -26.4286  -37.3776   23.9402 N   0  0  0  0  0  0
  -24.6629  -31.0790   22.0984 N   0  0  0  0  0  0
  -23.4184  -28.8197   23.3068 O   0  0  0  0  0  0
  -28.3614  -26.6702   20.1142 O   0  0  0  0  0  0
  -26.5561  -34.8923   22.4699 O   0  0  0  0  0  0
  -23.5321  -32.1421   23.7507 O   0  0  0  0  0  0
  -29.5744  -19.6512   25.5746 C   0  0  0  0  0  0
  -29.5972  -19.0189   24.3217 C   0  0  0  0  0  0
  -29.5840  -21.7990   24.4704 C   0  0  0  0  0  0
  -29.6064  -21.0565   25.6738 C   0  0  0  0  0  0
  -29.6430  -19.7603   23.1206 C   0  0  0  0  0  0
  -29.5791  -21.1851   23.1878 C   0  0  0  0  0  0
  -30.5508  -20.9895   28.0370 C   0  0  0  0  0  0
  -28.1906  -21.7492   27.6237 C   0  0  0  0  0  0
  -30.1278  -23.2004   27.0019 C   0  0  0  0  0  0
  -30.0427  -26.6438   21.7610 C   0  0  0  0  0  0
  -27.6819  -26.1640   22.4992 C   0  0  0  0  0  0
  -29.2759  -16.3033   19.7281 C   0  0  0  0  0  0
  -29.7597  -18.9787   21.8040 C   0  0  0  0  0  0
  -29.4968  -22.0680   21.9223 C   0  0  0  0  0  0
  -30.7465  -17.7712   21.8617 C   0  0  0  0  0  0
  -29.1447  -23.5569   22.1963 C   0  0  0  0  0  0
  -28.8976  -24.4865   20.9825 C   0  0  0  0  0  0
  -30.0983  -16.3663   22.0623 C   0  0  0  0  0  0
  -29.6210  -21.7411   27.0581 C   0  0  0  0  0  0
  -28.7120  -25.9973   21.3440 C   0  0  0  0  0  0
  -29.9118  -15.5714   20.8326 N   0  0  0  0  0  0
  -31.4719  -12.4045   19.1324 H   0  0  0  0  0  0
  -30.3258  -11.3035   19.8449 H   0  0  0  0  0  0
  -29.7393  -11.7485   17.4441 H   0  0  0  0  0  0
  -29.6654  -13.4627   17.7578 H   0  0  0  0  0  0
  -27.8367  -11.2866   18.8338 H   0  0  0  0  0  0
  -27.3650  -12.6012   17.7919 H   0  0  0  0  0  0
  -27.6660  -14.2269   19.5477 H   0  0  0  0  0  0
  -28.6848  -12.0001   21.3846 H   0  0  0  0  0  0
  -28.4724  -13.6666   21.8435 H   0  0  0  0  0  0
  -25.2741   -9.5659   22.4765 H   0  0  0  0  0  0
  -23.9973   -7.4621   22.7467 H   0  0  0  0  0  0
  -21.0826   -8.8760   19.8959 H   0  0  0  0  0  0
  -22.3671  -10.9664   19.6177 H   0  0  0  0  0  0
  -21.1993   -7.6138   23.9718 H   0  0  0  0  0  0
  -21.1500   -6.0521   25.9083 H   0  0  0  0  0  0
  -22.0587   -2.7602   23.2845 H   0  0  0  0  0  0
  -22.4066  -11.9905   22.4806 H   0  0  0  0  0  0
  -21.1099  -13.1311   22.2656 H   0  0  0  0  0  0
  -24.6708  -15.8428   20.5393 H   0  0  0  0  0  0
  -26.2962  -15.6199   20.1274 H   0  0  0  0  0  0
  -26.7083  -32.5540   23.1171 H   0  0  0  0  0  0
  -25.0088  -33.9786   25.0531 H   0  0  0  0  0  0
  -22.6843  -31.3028   21.4116 H   0  0  0  0  0  0
  -23.3723  -35.9685   23.3317 H   0  0  0  0  0  0
  -24.3581  -36.8934   22.2047 H   0  0  0  0  0  0
  -23.7245  -37.6554   23.6652 H   0  0  0  0  0  0
  -26.0240  -31.6114   20.5832 H   0  0  0  0  0  0
  -26.8147  -30.9041   21.9642 H   0  0  0  0  0  0
  -28.1014  -29.1427   21.1394 H   0  0  0  0  0  0
  -26.0823  -25.9594   19.0506 H   0  0  0  0  0  0
  -23.9763  -27.2730   19.0649 H   0  0  0  0  0  0
  -23.7024  -30.5866   19.4034 H   0  0  0  0  0  0
  -22.7282  -29.2289   19.8788 H   0  0  0  0  0  0
  -25.1244  -36.1990   25.0842 H   0  0  0  0  0  0
  -20.9922  -28.3189   24.1452 H   0  0  0  0  0  0
  -20.5641  -26.2253   23.3583 H   0  0  0  0  0  0
  -21.6618  -26.7418   22.1216 H   0  0  0  0  0  0
  -19.6903  -25.6295   21.1196 H   0  0  0  0  0  0
  -19.6673  -27.3203   20.6743 H   0  0  0  0  0  0
  -17.4174  -26.6637   21.4021 H   0  0  0  0  0  0
  -18.0328  -26.0047   22.9017 H   0  0  0  0  0  0
  -19.7929  -30.7238   24.2271 H   0  0  0  0  0  0
  -17.5006  -31.6257   24.5159 H   0  0  0  0  0  0
  -15.5338  -30.2975   23.7661 H   0  0  0  0  0  0
  -15.8636  -28.0815   22.7054 H   0  0  0  0  0  0
  -24.5959  -30.6950   25.7810 H   0  0  0  0  0  0
  -24.8910  -32.2779   26.4888 H   0  0  0  0  0  0
  -25.8147  -30.8827   27.0210 H   0  0  0  0  0  0
  -26.2839  -29.6804   24.1002 H   0  0  0  0  0  0
  -27.4066  -29.7206   25.4411 H   0  0  0  0  0  0
  -27.8690  -30.4402   23.9176 H   0  0  0  0  0  0
  -27.2754  -33.3556   26.2046 H   0  0  0  0  0  0
  -28.3855  -32.6760   25.0239 H   0  0  0  0  0  0
  -28.0752  -31.8326   26.5324 H   0  0  0  0  0  0
  -28.2579  -38.0110   24.7491 H   0  0  0  0  0  0
  -28.1047  -36.2640   24.6309 H   0  0  0  0  0  0
  -27.2283  -37.1467   25.8871 H   0  0  0  0  0  0
  -20.9281  -29.8753   21.6989 H   0  0  0  0  0  0
  -26.0186  -38.2858   24.1391 H   0  0  0  0  0  0
  -29.5407  -19.0314   26.4584 H   0  0  0  0  0  0
  -29.5937  -17.9389   24.3002 H   0  0  0  0  0  0
  -29.5637  -22.8709   24.5461 H   0  0  0  0  0  0
  -30.1932  -19.9878   28.2730 H   0  0  0  0  0  0
  -30.6304  -21.5146   28.9897 H   0  0  0  0  0  0
  -31.5590  -20.8959   27.6306 H   0  0  0  0  0  0
  -27.7957  -20.7386   27.7283 H   0  0  0  0  0  0
  -27.5115  -22.3017   26.9730 H   0  0  0  0  0  0
  -28.1522  -22.2185   28.6082 H   0  0  0  0  0  0
  -31.1169  -23.2652   26.5463 H   0  0  0  0  0  0
  -30.2061  -23.6291   28.0021 H   0  0  0  0  0  0
  -29.4555  -23.8581   26.4501 H   0  0  0  0  0  0
  -29.9203  -27.7124   21.9399 H   0  0  0  0  0  0
  -30.7997  -26.5329   20.9843 H   0  0  0  0  0  0
  -30.4402  -26.2060   22.6754 H   0  0  0  0  0  0
  -28.0081  -25.6727   23.4146 H   0  0  0  0  0  0
  -26.7074  -25.7493   22.2324 H   0  0  0  0  0  0
  -27.5368  -27.2056   22.7824 H   0  0  0  0  0  0
  -28.2921  -16.6640   20.0284 H   0  0  0  0  0  0
  -29.1458  -15.6844   18.8386 H   0  0  0  0  0  0
  -29.8683  -17.1581   19.4079 H   0  0  0  0  0  0
  -30.1044  -19.6499   21.0179 H   0  0  0  0  0  0
  -28.7668  -18.6477   21.4994 H   0  0  0  0  0  0
  -28.7421  -21.6460   21.2573 H   0  0  0  0  0  0
  -30.4485  -22.0109   21.3927 H   0  0  0  0  0  0
  -31.4796  -17.9510   22.6496 H   0  0  0  0  0  0
  -31.3521  -17.7572   20.9557 H   0  0  0  0  0  0
  -29.9448  -23.9966   22.7879 H   0  0  0  0  0  0
  -28.2424  -23.5627   22.8074 H   0  0  0  0  0  0
  -28.0133  -24.1326   20.4510 H   0  0  0  0  0  0
  -29.7266  -24.3872   20.2806 H   0  0  0  0  0  0
  -29.1323  -16.4535   22.5623 H   0  0  0  0  0  0
  -30.7224  -15.7947   22.7532 H   0  0  0  0  0  0
  1 25  1  0  0  0
  1 30  2  0  0  0
  1 91  1  0  0  0
  2  3  1  0  0  0
  2 25  1  0  0  0
  2 92  1  0  0  0
  2 93  1  0  0  0
  3  4  1  0  0  0
  3 94  1  0  0  0
  3 95  1  0  0  0
  4  5  1  0  0  0
  4 96  1  0  0  0
  4 97  1  0  0  0
  5  6  1  0  0  0
  5 26  1  0  0  0
  5 98  1  0  0  0
  6 25  1  0  0  0
  6 99  1  0  0  0
  6100  1  0  0  0
  7  8  2  0  0  0
  7 26  1  0  0  0
  7 29  1  0  0  0
  8  9  1  0  0  0
  8 22  1  0  0  0
  9 10  1  0  0  0
  9 27  2  0  0  0
 10 11  2  0  0  0
 10 15  1  0  0  0
 11 12  1  0  0  0
 11101  1  0  0  0
 12 13  2  0  0  0
 12102  1  0  0  0
 13 14  1  0  0  0
 13 31  1  0  0  0
 14 15  2  0  0  0
 14103  1  0  0  0
 15104  1  0  0  0
 16 17  2  0  0  0
 16 21  1  0  0  0
 16 31  1  0  0  0
 17 18  1  0  0  0
 17105  1  0  0  0
 18 19  2  0  0  0
 18106  1  0  0  0
 19 20  1  0  0  0
 19 24  1  0  0  0
 20 21  2  0  0  0
 20107  1  0  0  0
 21 23  1  0  0  0
 22 28  1  0  0  0
 22 32  2  0  0  0
 26 27  1  0  0  0
 28108  1  0  0  0
 28109  1  0  0  0
 29110  1  0  0  0
 29111  1  0  0  0
 33 34  1  0  0  0
 33 66  1  0  0  0
 33 70  2  0  0  0
 34 36  1  0  0  0
 34 59  1  0  0  0
 34112  1  0  0  0
 35 44  2  0  0  0
 35 45  1  0  0  0
 35 68  1  0  0  0
 36 56  1  0  0  0
 36113  1  0  0  0
 37 39  1  0  0  0
 37 47  1  0  0  0
 37 66  1  0  0  0
 37114  1  0  0  0
 38 43  2  0  0  0
 38 46  1  0  0  0
 38 47  1  0  0  0
 39 64  1  0  0  0
 39 67  2  0  0  0
 40 52  1  0  0  0
 40 53  2  0  0  0
 40 58  1  0  0  0
 41115  1  0  0  0
 41116  1  0  0  0
 41117  1  0  0  0
 41 48  1  0  0  0
 42 43  1  0  0  0
 42 66  1  0  0  0
 42118  1  0  0  0
 42119  1  0  0  0
 43 44  1  0  0  0
 44120  1  0  0  0
 45 46  2  0  0  0
 45121  1  0  0  0
 46122  1  0  0  0
 47123  1  0  0  0
 47124  1  0  0  0
 48 56  1  0  0  0
 48 65  1  0  0  0
 48125  1  0  0  0
 49 50  1  0  0  0
 49 53  1  0  0  0
 49 64  1  0  0  0
 49126  1  0  0  0
 50 51  1  0  0  0
 50127  1  0  0  0
 50128  1  0  0  0
 51 52  1  0  0  0
 51129  1  0  0  0
 51130  1  0  0  0
 52131  1  0  0  0
 52132  1  0  0  0
 53 54  1  0  0  0
 54 55  2  0  0  0
 54133  1  0  0  0
 55 57  1  0  0  0
 55134  1  0  0  0
 56 69  2  0  0  0
 57 58  2  0  0  0
 57135  1  0  0  0
 58136  1  0  0  0
 59 60  1  0  0  0
 59 61  1  0  0  0
 59 62  1  0  0  0
 60137  1  0  0  0
 60138  1  0  0  0
 60139  1  0  0  0
 61140  1  0  0  0
 61141  1  0  0  0
 61142  1  0  0  0
 62143  1  0  0  0
 62144  1  0  0  0
 62145  1  0  0  0
 63 65  1  0  0  0
 63146  1  0  0  0
 63147  1  0  0  0
 63148  1  0  0  0
 64149  1  0  0  0
 65150  1  0  0  0
 68 90  1  0  0  0
 71 72  2  0  0  0
 71 74  1  0  0  0
 71151  1  0  0  0
 72 75  1  0  0  0
 72152  1  0  0  0
 73 74  2  0  0  0
 73 76  1  0  0  0
 73153  1  0  0  0
 74 89  1  0  0  0
 75 76  2  0  0  0
 75 83  1  0  0  0
 76 84  1  0  0  0
 77154  1  0  0  0
 77155  1  0  0  0
 77156  1  0  0  0
 77 89  1  0  0  0
 78 89  1  0  0  0
 78157  1  0  0  0
 78158  1  0  0  0
 78159  1  0  0  0
 79 89  1  0  0  0
 79160  1  0  0  0
 79161  1  0  0  0
 79162  1  0  0  0
 80163  1  0  0  0
 80164  1  0  0  0
 80165  1  0  0  0
 80 90  1  0  0  0
 81 90  1  0  0  0
 81166  1  0  0  0
 81167  1  0  0  0
 81168  1  0  0  0
 82 91  1  0  0  0
 82169  1  0  0  0
 82170  1  0  0  0
 82171  1  0  0  0
 83 85  1  0  0  0
 83172  1  0  0  0
 83173  1  0  0  0
 84 86  1  0  0  0
 84174  1  0  0  0
 84175  1  0  0  0
 85 88  1  0  0  0
 85176  1  0  0  0
 85177  1  0  0  0
 86 87  1  0  0  0
 86178  1  0  0  0
 86179  1  0  0  0
 87 90  1  0  0  0
 87180  1  0  0  0
 87181  1  0  0  0
 88 91  1  0  0  0
 88182  1  0  0  0
 88183  1  0  0  0
M  ISO  4   1 100  68 101  90 101  91 100
M  END
> <chiral flag>
0

> <version>
0

> <s_m_source_file>
/data/baiqing/PycharmProjects/Reinvent-master-3.2/result/LINK_invent/BTK/process_docking_weight1_custom_sum_contain_oxygen_bond_distance_aromatic_linkinvent_7_9_3/rearranged_h_0086.sdf

> <i_m_source_file_index>
49

> <r_mmod_Potential_Energy-OPLS-2005>
173.716415405273

> <r_mmod_Stretch_Energy-OPLS-2005>
46.9816703796387

> <r_mmod_Bend_Energy-OPLS-2005>
114.762214660645

> <r_mmod_Torsional_Energy-OPLS-2005>
355.069732666016

> <r_mmod_Improper_Torsional_Energy-OPLS-2005>
7.47825336456299

> <r_mmod_Van_der_Waal_Energy-OPLS-2005>
171.981216430664

> <r_mmod_Electrostatic_Energy-OPLS-2005>
-363.667724609375

> <r_mmod_Solvation_Energy-OPLS-2005>
-175.088012695312

> <b_mmod_Minimization_Converged-OPLS-2005>
0

> <r_mmod_RMS_Derivative-OPLS-2005>
2.60323715209961

$$$$
50
                    3D
 Structure written by MMmdl.
176184  0  0  1  0            999 V2000
  -30.6849  -14.5527   20.5626 C   0  0  0  0  0  0
  -30.4389  -12.3562   19.4360 C   0  0  0  0  0  0
  -29.5111  -12.5198   18.2176 C   0  0  0  0  0  0
  -28.0356  -12.3547   18.6283 C   0  0  0  0  0  0
  -27.6661  -13.2026   19.8735 C   0  0  2  0  0  0
  -28.7097  -13.0319   20.9990 C   0  0  0  0  0  0
  -25.2677  -13.8035   20.5701 C   0  0  0  0  0  0
  -24.1896  -13.0421   20.9199 C   0  0  0  0  0  0
  -24.6429  -11.6864   20.8808 C   0  0  0  0  0  0
  -23.9088  -10.4273   21.0474 C   0  0  0  0  0  0
  -24.3632   -9.4143   21.9223 C   0  0  0  0  0  0
  -23.6291   -8.2198   22.0759 C   0  0  0  0  0  0
  -22.4266   -8.0287   21.3546 C   0  0  0  0  0  0
  -21.9939   -9.0265   20.4654 C   0  0  0  0  0  0
  -22.7278  -10.2134   20.3089 C   0  0  0  0  0  0
  -21.6844   -6.0792   22.5298 C   0  0  0  0  0  0
  -21.4026   -6.5683   23.8249 C   0  0  0  0  0  0
  -21.3619   -5.6799   24.9181 C   0  0  0  0  0  0
  -21.6012   -4.3063   24.7192 C   0  0  0  0  0  0
  -21.8820   -3.8188   23.4297 C   0  0  0  0  0  0
  -21.9182   -4.7037   22.3385 C   0  0  0  0  0  0
  -22.7919  -13.5305   21.1830 C   0  0  0  0  0  0
  -22.1649   -4.2243   21.0946 F   0  0  0  0  0  0
  -21.5591   -3.4508   25.7679 F   0  0  0  0  0  0
  -30.0318  -13.3586   20.4361 N   0  0  0  0  0  0
  -26.3095  -12.9214   20.3376 N   0  0  0  0  0  0
  -25.9369  -11.6399   20.5825 N   0  0  0  0  0  0
  -22.0490  -12.8349   22.0328 N   0  0  0  0  0  0
  -25.4481  -15.1718   20.4084 N   0  0  0  0  0  0
  -31.8256  -14.7312   20.1303 O   0  0  0  0  0  0
  -21.6593   -6.8935   21.4265 O   0  0  0  0  0  0
  -22.3671  -14.5661   20.6704 O   0  0  0  0  0  0
  -24.6203  -31.8665   23.2069 C   0  0  0  0  0  0
  -25.9077  -32.4830   23.8386 C   0  0  1  0  0  0
  -27.2502  -27.3958   20.1022 C   0  0  0  0  0  0
  -25.5897  -33.8634   24.2331 N   0  0  0  0  0  0
  -23.4128  -30.4882   21.5474 C   0  0  2  0  0  0
  -24.8616  -28.9521   20.1143 C   0  0  0  0  0  0
  -22.7463  -29.4658   22.4991 C   0  0  0  0  0  0
  -18.0295  -28.1369   22.8517 C   0  0  0  0  0  0
  -24.1473  -36.7304   23.2640 C   0  0  0  0  0  0
  -25.9457  -30.8175   21.3719 C   0  0  0  0  0  0
  -26.0236  -29.4490   20.7179 C   0  0  0  0  0  0
  -27.2153  -28.6776   20.7126 C   0  0  0  0  0  0
  -26.0668  -26.9430   19.4666 C   0  0  0  0  0  0
  -24.8787  -27.6962   19.4885 C   0  0  0  0  0  0
  -23.6282  -29.8251   20.1615 C   0  0  0  0  0  0
  -25.4097  -36.3127   24.0349 C   0  0  1  0  0  0
  -20.5892  -28.3680   23.1309 C   0  0  2  0  0  0
  -20.6779  -26.9413   22.5423 C   0  0  0  0  0  0
  -19.5749  -26.6383   21.5231 C   0  0  0  0  0  0
  -18.1931  -26.7915   22.1637 C   0  0  0  0  0  0
  -19.1544  -28.8847   23.2902 C   0  0  0  0  0  0
  -18.9459  -30.1449   23.8911 C   0  0  0  0  0  0
  -17.6453  -30.6576   24.0586 C   0  0  0  0  0  0
  -25.9014  -34.9493   23.5142 C   0  0  0  0  0  0
  -16.5356  -29.9079   23.6331 C   0  0  0  0  0  0
  -16.7274  -28.6498   23.0354 C   0  0  0  0  0  0
  -26.4472  -31.6610   25.0736 C   0  0  0  0  0  0
  -25.3743  -31.3767   26.1502 C   0  0  0  0  0  0
  -27.0285  -30.3025   24.6170 C   0  0  0  0  0  0
  -27.6045  -32.4332   25.7479 C   0  0  0  0  0  0
  -27.5590  -37.1808   24.8467 C   0  0  0  0  0  0
  -21.4184  -29.3028   22.3706 N   0  0  0  0  0  0
  -26.4291  -37.3798   23.9422 N   0  0  0  0  0  0
  -24.6762  -31.0736   22.0990 N   0  0  0  0  0  0
  -23.4204  -28.8245   23.3096 O   0  0  0  0  0  0
  -28.4071  -26.6152   20.1549 O   0  0  0  0  0  0
  -26.5575  -34.8943   22.4698 O   0  0  0  0  0  0
  -23.5360  -32.1436   23.7418 O   0  0  0  0  0  0
  -27.1036  -22.1600   19.8738 C   0  0  0  0  0  0
  -25.9959  -21.3879   20.2348 C   0  0  0  0  0  0
  -28.4094  -21.7311   20.1693 C   0  0  0  0  0  0
  -26.2334  -20.1586   20.8683 C   0  0  0  0  0  0
  -28.5582  -20.3830   20.6614 C   0  0  0  0  0  0
  -24.6024  -21.9090   19.9330 C   0  0  0  0  0  0
  -24.6425  -18.3410   20.1029 C   0  0  0  0  0  0
  -30.3274  -19.8053   22.3508 C   0  0  0  0  0  0
  -28.8270  -17.6318   19.4652 C   0  0  0  0  0  0
  -31.2702  -18.0660   19.3880 C   0  0  0  0  0  0
  -29.5282  -22.7673   19.9197 C   0  0  0  0  0  0
  -25.1141  -19.2192   21.2715 C   0  0  0  0  0  0
  -29.3384  -24.2189   20.5367 C   0  0  0  0  0  0
  -30.3027  -16.9738   21.4230 C   0  0  0  0  0  0
  -28.2751  -25.1859   19.9055 C   0  0  0  0  0  0
  -29.8939  -19.6100   20.8880 C   0  0  1  0  0  0
  -30.0373  -18.0868   20.3235 C   0  0  0  0  0  0
  -27.4751  -19.6930   21.0822 N   0  0  0  0  0  0
  -29.9499  -15.5677   21.0779 N   0  0  0  0  0  0
  -31.4782  -12.4786   19.1323 H   0  0  0  0  0  0
  -30.3608  -11.3471   19.8433 H   0  0  0  0  0  0
  -29.7750  -11.7952   17.4456 H   0  0  0  0  0  0
  -29.6648  -13.5068   17.7786 H   0  0  0  0  0  0
  -27.8684  -11.2982   18.8343 H   0  0  0  0  0  0
  -27.3830  -12.6070   17.7918 H   0  0  0  0  0  0
  -27.6981  -14.2473   19.5637 H   0  0  0  0  0  0
  -28.7081  -12.0109   21.3832 H   0  0  0  0  0  0
  -28.4542  -13.6618   21.8529 H   0  0  0  0  0  0
  -25.2772   -9.5551   22.4841 H   0  0  0  0  0  0
  -23.9971   -7.4562   22.7460 H   0  0  0  0  0  0
  -21.0891   -8.8770   19.8950 H   0  0  0  0  0  0
  -22.3767  -10.9690   19.6197 H   0  0  0  0  0  0
  -21.2085   -7.6183   23.9785 H   0  0  0  0  0  0
  -21.1421   -6.0502   25.9080 H   0  0  0  0  0  0
  -22.0662   -2.7674   23.2735 H   0  0  0  0  0  0
  -22.4075  -12.0049   22.4801 H   0  0  0  0  0  0
  -21.1102  -13.1402   22.2421 H   0  0  0  0  0  0
  -24.6761  -15.8195   20.4957 H   0  0  0  0  0  0
  -26.2829  -15.5965   20.0297 H   0  0  0  0  0  0
  -26.7188  -32.5559   23.1180 H   0  0  0  0  0  0
  -25.0108  -33.9769   25.0528 H   0  0  0  0  0  0
  -22.7032  -31.3053   21.4056 H   0  0  0  0  0  0
  -23.3738  -35.9629   23.3316 H   0  0  0  0  0  0
  -24.3579  -36.8896   22.2048 H   0  0  0  0  0  0
  -23.7203  -37.6514   23.6629 H   0  0  0  0  0  0
  -26.0711  -31.5872   20.6086 H   0  0  0  0  0  0
  -26.8252  -30.8619   22.0017 H   0  0  0  0  0  0
  -28.1026  -29.0575   21.1981 H   0  0  0  0  0  0
  -26.0407  -25.9998   18.9424 H   0  0  0  0  0  0
  -23.9889  -27.3025   19.0128 H   0  0  0  0  0  0
  -23.7572  -30.6021   19.4071 H   0  0  0  0  0  0
  -22.7488  -29.2556   19.8568 H   0  0  0  0  0  0
  -25.1269  -36.1996   25.0838 H   0  0  0  0  0  0
  -21.0000  -28.3234   24.1417 H   0  0  0  0  0  0
  -20.5682  -26.2294   23.3618 H   0  0  0  0  0  0
  -21.6654  -26.7415   22.1235 H   0  0  0  0  0  0
  -19.6902  -25.6299   21.1252 H   0  0  0  0  0  0
  -19.6680  -27.3211   20.6781 H   0  0  0  0  0  0
  -17.4221  -26.6727   21.4013 H   0  0  0  0  0  0
  -18.0274  -26.0017   22.8985 H   0  0  0  0  0  0
  -19.7933  -30.7287   24.2261 H   0  0  0  0  0  0
  -17.5004  -31.6250   24.5194 H   0  0  0  0  0  0
  -15.5359  -30.2992   23.7606 H   0  0  0  0  0  0
  -15.8682  -28.0828   22.7019 H   0  0  0  0  0  0
  -24.5942  -30.7047   25.7921 H   0  0  0  0  0  0
  -24.8895  -32.2928   26.4880 H   0  0  0  0  0  0
  -25.8116  -30.9054   27.0314 H   0  0  0  0  0  0
  -26.2848  -29.6801   24.1180 H   0  0  0  0  0  0
  -27.3959  -29.7257   25.4671 H   0  0  0  0  0  0
  -27.8730  -30.4298   23.9395 H   0  0  0  0  0  0
  -27.2674  -33.3642   26.2038 H   0  0  0  0  0  0
  -28.3829  -32.6872   25.0284 H   0  0  0  0  0  0
  -28.0723  -31.8477   26.5398 H   0  0  0  0  0  0
  -28.2625  -38.0085   24.7505 H   0  0  0  0  0  0
  -28.1060  -36.2628   24.6287 H   0  0  0  0  0  0
  -27.2327  -37.1466   25.8873 H   0  0  0  0  0  0
  -20.9343  -29.8746   21.6934 H   0  0  0  0  0  0
  -26.0193  -38.2885   24.1414 H   0  0  0  0  0  0
  -26.9398  -23.0901   19.3613 H   0  0  0  0  0  0
  -24.6455  -22.9412   19.5855 H   0  0  0  0  0  0
  -23.9655  -21.8905   20.8173 H   0  0  0  0  0  0
  -24.1347  -21.3198   19.1456 H   0  0  0  0  0  0
  -23.8831  -17.6330   20.4378 H   0  0  0  0  0  0
  -25.4731  -17.7789   19.6747 H   0  0  0  0  0  0
  -24.2138  -18.9405   19.2982 H   0  0  0  0  0  0
  -30.3972  -20.8676   22.5865 H   0  0  0  0  0  0
  -31.2994  -19.3661   22.5607 H   0  0  0  0  0  0
  -29.5960  -19.3819   23.0354 H   0  0  0  0  0  0
  -29.0245  -16.7069   18.9208 H   0  0  0  0  0  0
  -28.5395  -18.3847   18.7304 H   0  0  0  0  0  0
  -27.9588  -17.4338   20.0952 H   0  0  0  0  0  0
  -31.4165  -17.0951   18.9135 H   0  0  0  0  0  0
  -32.1870  -18.3010   19.9331 H   0  0  0  0  0  0
  -31.1762  -18.8016   18.5891 H   0  0  0  0  0  0
  -29.6731  -22.8497   18.8397 H   0  0  0  0  0  0
  -30.4602  -22.3680   20.3154 H   0  0  0  0  0  0
  -24.2807  -19.7867   21.6814 H   0  0  0  0  0  0
  -25.4655  -18.5832   22.0853 H   0  0  0  0  0  0
  -30.3024  -24.7187   20.4563 H   0  0  0  0  0  0
  -29.1514  -24.1327   21.6089 H   0  0  0  0  0  0
  -29.6930  -17.1839   22.3026 H   0  0  0  0  0  0
  -31.3360  -17.0102   21.7712 H   0  0  0  0  0  0
  -27.3190  -24.8652   20.3125 H   0  0  0  0  0  0
  -28.2512  -25.0388   18.8264 H   0  0  0  0  0  0
  -30.6205  -20.1878   20.3206 H   0  0  0  0  0  0
  -28.9964  -15.3246   21.2941 H   0  0  0  0  0  0
  1 25  1  0  0  0
  1 30  2  0  0  0
  1 89  1  0  0  0
  2  3  1  0  0  0
  2 25  1  0  0  0
  2 90  1  0  0  0
  2 91  1  0  0  0
  3  4  1  0  0  0
  3 92  1  0  0  0
  3 93  1  0  0  0
  4  5  1  0  0  0
  4 94  1  0  0  0
  4 95  1  0  0  0
  5  6  1  0  0  0
  5 26  1  0  0  0
  5 96  1  0  0  0
  6 25  1  0  0  0
  6 97  1  0  0  0
  6 98  1  0  0  0
  7  8  2  0  0  0
  7 26  1  0  0  0
  7 29  1  0  0  0
  8  9  1  0  0  0
  8 22  1  0  0  0
  9 10  1  0  0  0
  9 27  2  0  0  0
 10 11  2  0  0  0
 10 15  1  0  0  0
 11 12  1  0  0  0
 11 99  1  0  0  0
 12 13  2  0  0  0
 12100  1  0  0  0
 13 14  1  0  0  0
 13 31  1  0  0  0
 14 15  2  0  0  0
 14101  1  0  0  0
 15102  1  0  0  0
 16 17  2  0  0  0
 16 21  1  0  0  0
 16 31  1  0  0  0
 17 18  1  0  0  0
 17103  1  0  0  0
 18 19  2  0  0  0
 18104  1  0  0  0
 19 20  1  0  0  0
 19 24  1  0  0  0
 20 21  2  0  0  0
 20105  1  0  0  0
 21 23  1  0  0  0
 22 28  1  0  0  0
 22 32  2  0  0  0
 26 27  1  0  0  0
 28106  1  0  0  0
 28107  1  0  0  0
 29108  1  0  0  0
 29109  1  0  0  0
 33 34  1  0  0  0
 33 66  1  0  0  0
 33 70  2  0  0  0
 34 36  1  0  0  0
 34 59  1  0  0  0
 34110  1  0  0  0
 35 44  2  0  0  0
 35 45  1  0  0  0
 35 68  1  0  0  0
 36 56  1  0  0  0
 36111  1  0  0  0
 37 39  1  0  0  0
 37 47  1  0  0  0
 37 66  1  0  0  0
 37112  1  0  0  0
 38 43  2  0  0  0
 38 46  1  0  0  0
 38 47  1  0  0  0
 39 64  1  0  0  0
 39 67  2  0  0  0
 40 52  1  0  0  0
 40 53  2  0  0  0
 40 58  1  0  0  0
 41113  1  0  0  0
 41114  1  0  0  0
 41115  1  0  0  0
 41 48  1  0  0  0
 42 43  1  0  0  0
 42 66  1  0  0  0
 42116  1  0  0  0
 42117  1  0  0  0
 43 44  1  0  0  0
 44118  1  0  0  0
 45 46  2  0  0  0
 45119  1  0  0  0
 46120  1  0  0  0
 47121  1  0  0  0
 47122  1  0  0  0
 48 56  1  0  0  0
 48 65  1  0  0  0
 48123  1  0  0  0
 49 50  1  0  0  0
 49 53  1  0  0  0
 49 64  1  0  0  0
 49124  1  0  0  0
 50 51  1  0  0  0
 50125  1  0  0  0
 50126  1  0  0  0
 51 52  1  0  0  0
 51127  1  0  0  0
 51128  1  0  0  0
 52129  1  0  0  0
 52130  1  0  0  0
 53 54  1  0  0  0
 54 55  2  0  0  0
 54131  1  0  0  0
 55 57  1  0  0  0
 55132  1  0  0  0
 56 69  2  0  0  0
 57 58  2  0  0  0
 57133  1  0  0  0
 58134  1  0  0  0
 59 60  1  0  0  0
 59 61  1  0  0  0
 59 62  1  0  0  0
 60135  1  0  0  0
 60136  1  0  0  0
 60137  1  0  0  0
 61138  1  0  0  0
 61139  1  0  0  0
 61140  1  0  0  0
 62141  1  0  0  0
 62142  1  0  0  0
 62143  1  0  0  0
 63 65  1  0  0  0
 63144  1  0  0  0
 63145  1  0  0  0
 63146  1  0  0  0
 64147  1  0  0  0
 65148  1  0  0  0
 68 85  1  0  0  0
 71 72  2  0  0  0
 71 73  1  0  0  0
 71149  1  0  0  0
 72 74  1  0  0  0
 72 76  1  0  0  0
 73 75  2  0  0  0
 73 81  1  0  0  0
 74 82  1  0  0  0
 74 88  2  0  0  0
 75 86  1  0  0  0
 75 88  1  0  0  0
 76150  1  0  0  0
 76151  1  0  0  0
 76152  1  0  0  0
 77 82  1  0  0  0
 77153  1  0  0  0
 77154  1  0  0  0
 77155  1  0  0  0
 78156  1  0  0  0
 78157  1  0  0  0
 78158  1  0  0  0
 78 86  1  0  0  0
 79159  1  0  0  0
 79160  1  0  0  0
 79161  1  0  0  0
 79 87  1  0  0  0
 80 87  1  0  0  0
 80162  1  0  0  0
 80163  1  0  0  0
 80164  1  0  0  0
 81 83  1  0  0  0
 81165  1  0  0  0
 81166  1  0  0  0
 82167  1  0  0  0
 82168  1  0  0  0
 83 85  1  0  0  0
 83169  1  0  0  0
 83170  1  0  0  0
 84 87  1  0  0  0
 84 89  1  0  0  0
 84171  1  0  0  0
 84172  1  0  0  0
 85173  1  0  0  0
 85174  1  0  0  0
 86 87  1  0  0  0
 86175  1  0  0  0
 89176  1  0  0  0
M  ISO  4   1 100  68 101  85 101  89 100
M  END
> <chiral flag>
0

> <version>
0

> <s_m_source_file>
/data/baiqing/PycharmProjects/Reinvent-master-3.2/result/LINK_invent/BTK/process_docking_weight1_custom_sum_contain_oxygen_bond_distance_aromatic_linkinvent_7_9_3/rearranged_h_0086.sdf

> <i_m_source_file_index>
50

> <r_mmod_Potential_Energy-OPLS-2005>
-138.193069458008

> <r_mmod_Stretch_Energy-OPLS-2005>
71.107795715332

> <r_mmod_Bend_Energy-OPLS-2005>
154.175765991211

> <r_mmod_Torsional_Energy-OPLS-2005>
212.868240356445

> <r_mmod_Improper_Torsional_Energy-OPLS-2005>
3.45415592193604

> <r_mmod_Van_der_Waal_Energy-OPLS-2005>
161.658020019531

> <r_mmod_Electrostatic_Energy-OPLS-2005>
-563.108215332031

> <r_mmod_Solvation_Energy-OPLS-2005>
-202.729675292969

> <b_mmod_Minimization_Converged-OPLS-2005>
0

> <r_mmod_RMS_Derivative-OPLS-2005>
5.09991598129272

$$$$
51
                    3D
 Structure written by MMmdl.
158165  0  0  1  0            999 V2000
  -30.6604  -14.6445   20.4325 C   0  0  0  0  0  0
  -30.4323  -12.3918   19.4252 C   0  0  0  0  0  0
  -29.4961  -12.4951   18.2015 C   0  0  0  0  0  0
  -28.0180  -12.3553   18.6212 C   0  0  0  0  0  0
  -27.6498  -13.2323   19.8494 C   0  0  2  0  0  0
  -28.7085  -13.1233   20.9716 C   0  0  0  0  0  0
  -25.2565  -13.8218   20.5732 C   0  0  0  0  0  0
  -24.1875  -13.0462   20.9217 C   0  0  0  0  0  0
  -24.6435  -11.6927   20.8722 C   0  0  0  0  0  0
  -23.9090  -10.4313   21.0351 C   0  0  0  0  0  0
  -24.3688   -9.4193   21.9051 C   0  0  0  0  0  0
  -23.6357   -8.2233   22.0641 C   0  0  0  0  0  0
  -22.4274   -8.0311   21.3523 C   0  0  0  0  0  0
  -21.9844   -9.0323   20.4703 C   0  0  0  0  0  0
  -22.7185  -10.2193   20.3096 C   0  0  0  0  0  0
  -21.6858   -6.0751   22.5269 C   0  0  0  0  0  0
  -21.4036   -6.5664   23.8213 C   0  0  0  0  0  0
  -21.3662   -5.6803   24.9170 C   0  0  0  0  0  0
  -21.6040   -4.3065   24.7196 C   0  0  0  0  0  0
  -21.8822   -3.8164   23.4312 C   0  0  0  0  0  0
  -21.9196   -4.6984   22.3381 C   0  0  0  0  0  0
  -22.7871  -13.5212   21.1863 C   0  0  0  0  0  0
  -22.1643   -4.2187   21.0949 F   0  0  0  0  0  0
  -21.5633   -3.4539   25.7703 F   0  0  0  0  0  0
  -30.0133  -13.4398   20.3754 N   0  0  0  0  0  0
  -26.3008  -12.9431   20.3296 N   0  0  0  0  0  0
  -25.9376  -11.6577   20.5748 N   0  0  0  0  0  0
  -22.0545  -12.8221   22.0440 N   0  0  0  0  0  0
  -25.4204  -15.1949   20.4149 N   0  0  0  0  0  0
  -31.8592  -14.7397   20.1638 O   0  0  0  0  0  0
  -21.6644   -6.8897   21.4219 O   0  0  0  0  0  0
  -22.3514  -14.5473   20.6660 O   0  0  0  0  0  0
  -24.6268  -31.8614   23.1954 C   0  0  0  0  0  0
  -25.9114  -32.4771   23.8306 C   0  0  1  0  0  0
  -27.2336  -27.3285   20.1139 C   0  0  0  0  0  0
  -25.5962  -33.8577   24.2265 N   0  0  0  0  0  0
  -23.4179  -30.4801   21.5417 C   0  0  2  0  0  0
  -24.8624  -28.9192   20.1190 C   0  0  0  0  0  0
  -22.7470  -29.4644   22.4955 C   0  0  0  0  0  0
  -18.0304  -28.1394   22.8513 C   0  0  0  0  0  0
  -24.1474  -36.7278   23.2644 C   0  0  0  0  0  0
  -25.9583  -30.7901   21.3622 C   0  0  0  0  0  0
  -26.0307  -29.4135   20.7135 C   0  0  0  0  0  0
  -27.2202  -28.6312   20.6967 C   0  0  0  0  0  0
  -26.0425  -26.8666   19.5212 C   0  0  0  0  0  0
  -24.8691  -27.6491   19.5150 C   0  0  0  0  0  0
  -23.6306  -29.8021   20.1617 C   0  0  0  0  0  0
  -25.4110  -36.3090   24.0339 C   0  0  1  0  0  0
  -20.5911  -28.3699   23.1310 C   0  0  2  0  0  0
  -20.6801  -26.9423   22.5430 C   0  0  0  0  0  0
  -19.5758  -26.6396   21.5254 C   0  0  0  0  0  0
  -18.1935  -26.7953   22.1647 C   0  0  0  0  0  0
  -19.1555  -28.8862   23.2908 C   0  0  0  0  0  0
  -18.9473  -30.1475   23.8897 C   0  0  0  0  0  0
  -17.6469  -30.6590   24.0570 C   0  0  0  0  0  0
  -25.9057  -34.9466   23.5099 C   0  0  0  0  0  0
  -16.5365  -29.9079   23.6335 C   0  0  0  0  0  0
  -16.7295  -28.6506   23.0349 C   0  0  0  0  0  0
  -26.4483  -31.6567   25.0681 C   0  0  0  0  0  0
  -25.3703  -31.3674   26.1383 C   0  0  0  0  0  0
  -27.0301  -30.2998   24.6105 C   0  0  0  0  0  0
  -27.6056  -32.4277   25.7455 C   0  0  0  0  0  0
  -27.5564  -37.1796   24.8485 C   0  0  0  0  0  0
  -21.4193  -29.3047   22.3691 N   0  0  0  0  0  0
  -26.4280  -37.3795   23.9424 N   0  0  0  0  0  0
  -24.6868  -31.0630   22.0891 N   0  0  0  0  0  0
  -23.4198  -28.8239   23.3076 O   0  0  0  0  0  0
  -28.3811  -26.5340   20.0530 O   0  0  0  0  0  0
  -26.5621  -34.8943   22.4662 O   0  0  0  0  0  0
  -23.5448  -32.1404   23.7304 O   0  0  0  0  0  0
  -28.5078  -18.0119   18.9100 C   0  0  0  0  0  0
  -28.1864  -18.1548   21.4003 C   0  0  0  0  0  0
  -29.1249  -22.5566   20.3565 C   0  0  0  0  0  0
  -28.7325  -21.0754   19.8856 C   0  0  0  0  0  0
  -28.4390  -23.8605   19.7171 C   0  0  0  0  0  0
  -29.7103  -19.8527   20.2580 C   0  0  0  0  0  0
  -30.3317  -17.2137   20.4647 C   0  0  0  0  0  0
  -28.3730  -25.1730   20.6269 C   0  0  0  0  0  0
  -29.1978  -18.3234   20.2519 C   0  0  0  0  0  0
  -29.8911  -15.7695   20.5556 N   0  0  0  0  0  0
  -31.4728  -12.5073   19.1127 H   0  0  0  0  0  0
  -30.3647  -11.4057   19.8893 H   0  0  0  0  0  0
  -29.7430  -11.7270   17.4687 H   0  0  0  0  0  0
  -29.6469  -13.4512   17.6972 H   0  0  0  0  0  0
  -27.8406  -11.3045   18.8477 H   0  0  0  0  0  0
  -27.3648  -12.5976   17.7795 H   0  0  0  0  0  0
  -27.6514  -14.2638   19.4937 H   0  0  0  0  0  0
  -28.7270  -12.1156   21.3943 H   0  0  0  0  0  0
  -28.4798  -13.8023   21.7953 H   0  0  0  0  0  0
  -25.2905   -9.5630   22.4527 H   0  0  0  0  0  0
  -24.0144   -7.4577   22.7251 H   0  0  0  0  0  0
  -21.0712   -8.8879   19.9104 H   0  0  0  0  0  0
  -22.3551  -10.9781   19.6308 H   0  0  0  0  0  0
  -21.2036   -7.6168   23.9737 H   0  0  0  0  0  0
  -21.1468   -6.0508   25.9079 H   0  0  0  0  0  0
  -22.0584   -2.7621   23.2778 H   0  0  0  0  0  0
  -22.4162  -11.9921   22.4920 H   0  0  0  0  0  0
  -21.1178  -13.1261   22.2612 H   0  0  0  0  0  0
  -24.6536  -15.8388   20.5752 H   0  0  0  0  0  0
  -26.2417  -15.6433   20.0318 H   0  0  0  0  0  0
  -26.7175  -32.5409   23.1045 H   0  0  0  0  0  0
  -25.0154  -33.9723   25.0441 H   0  0  0  0  0  0
  -22.7154  -31.3033   21.3937 H   0  0  0  0  0  0
  -23.3754  -35.9583   23.3334 H   0  0  0  0  0  0
  -24.3570  -36.8873   22.2048 H   0  0  0  0  0  0
  -23.7200  -37.6481   23.6652 H   0  0  0  0  0  0
  -26.0905  -31.5444   20.5850 H   0  0  0  0  0  0
  -26.8401  -30.8442   21.9879 H   0  0  0  0  0  0
  -28.1207  -29.0190   21.1497 H   0  0  0  0  0  0
  -26.0253  -25.8914   19.0569 H   0  0  0  0  0  0
  -23.9740  -27.2605   19.0495 H   0  0  0  0  0  0
  -23.7494  -30.5728   19.4008 H   0  0  0  0  0  0
  -22.7492  -29.2327   19.8607 H   0  0  0  0  0  0
  -25.1295  -36.1925   25.0833 H   0  0  0  0  0  0
  -21.0023  -28.3260   24.1426 H   0  0  0  0  0  0
  -20.5770  -26.2300   23.3630 H   0  0  0  0  0  0
  -21.6654  -26.7483   22.1174 H   0  0  0  0  0  0
  -19.6904  -25.6319   21.1240 H   0  0  0  0  0  0
  -19.6666  -27.3246   20.6819 H   0  0  0  0  0  0
  -17.4227  -26.6775   21.4015 H   0  0  0  0  0  0
  -18.0253  -26.0084   22.9015 H   0  0  0  0  0  0
  -19.7942  -30.7321   24.2229 H   0  0  0  0  0  0
  -17.5008  -31.6263   24.5180 H   0  0  0  0  0  0
  -15.5360  -30.2963   23.7657 H   0  0  0  0  0  0
  -15.8713  -28.0817   22.7038 H   0  0  0  0  0  0
  -24.5939  -30.6964   25.7684 H   0  0  0  0  0  0
  -24.8817  -32.2826   26.4754 H   0  0  0  0  0  0
  -25.8031  -30.8879   27.0181 H   0  0  0  0  0  0
  -26.2855  -29.6782   24.1113 H   0  0  0  0  0  0
  -27.4010  -29.7214   25.4587 H   0  0  0  0  0  0
  -27.8737  -30.4314   23.9313 H   0  0  0  0  0  0
  -27.2704  -33.3634   26.1949 H   0  0  0  0  0  0
  -28.3901  -32.6729   25.0274 H   0  0  0  0  0  0
  -28.0663  -31.8411   26.5417 H   0  0  0  0  0  0
  -28.2622  -38.0067   24.7542 H   0  0  0  0  0  0
  -28.1020  -36.2603   24.6292 H   0  0  0  0  0  0
  -27.2294  -37.1436   25.8898 H   0  0  0  0  0  0
  -20.9374  -29.8681   21.6823 H   0  0  0  0  0  0
  -26.0156  -38.2871   24.1424 H   0  0  0  0  0  0
  -27.7513  -18.7531   18.6522 H   0  0  0  0  0  0
  -28.0046  -17.0447   18.9381 H   0  0  0  0  0  0
  -29.2269  -17.9741   18.0892 H   0  0  0  0  0  0
  -27.3047  -18.7768   21.2593 H   0  0  0  0  0  0
  -28.6379  -18.4242   22.3578 H   0  0  0  0  0  0
  -27.8333  -17.1281   21.4883 H   0  0  0  0  0  0
  -30.2023  -22.6764   20.2287 H   0  0  0  0  0  0
  -28.9652  -22.5987   21.4346 H   0  0  0  0  0  0
  -28.5986  -21.0740   18.8034 H   0  0  0  0  0  0
  -27.7385  -20.8682   20.2840 H   0  0  0  0  0  0
  -27.4294  -23.6221   19.3807 H   0  0  0  0  0  0
  -28.9870  -24.1037   18.8047 H   0  0  0  0  0  0
  -30.1317  -20.0483   21.2456 H   0  0  0  0  0  0
  -30.5702  -19.9206   19.5880 H   0  0  0  0  0  0
  -31.0755  -17.3035   19.6699 H   0  0  0  0  0  0
  -30.8776  -17.4312   21.3831 H   0  0  0  0  0  0
  -29.2669  -25.1560   21.2508 H   0  0  0  0  0  0
  -27.5468  -25.0789   21.3320 H   0  0  0  0  0  0
  -28.9012  -15.6124   20.6613 H   0  0  0  0  0  0
  1 25  1  0  0  0
  1 30  2  0  0  0
  1 80  1  0  0  0
  2  3  1  0  0  0
  2 25  1  0  0  0
  2 81  1  0  0  0
  2 82  1  0  0  0
  3  4  1  0  0  0
  3 83  1  0  0  0
  3 84  1  0  0  0
  4  5  1  0  0  0
  4 85  1  0  0  0
  4 86  1  0  0  0
  5  6  1  0  0  0
  5 26  1  0  0  0
  5 87  1  0  0  0
  6 25  1  0  0  0
  6 88  1  0  0  0
  6 89  1  0  0  0
  7  8  2  0  0  0
  7 26  1  0  0  0
  7 29  1  0  0  0
  8  9  1  0  0  0
  8 22  1  0  0  0
  9 10  1  0  0  0
  9 27  2  0  0  0
 10 11  2  0  0  0
 10 15  1  0  0  0
 11 12  1  0  0  0
 11 90  1  0  0  0
 12 13  2  0  0  0
 12 91  1  0  0  0
 13 14  1  0  0  0
 13 31  1  0  0  0
 14 15  2  0  0  0
 14 92  1  0  0  0
 15 93  1  0  0  0
 16 17  2  0  0  0
 16 21  1  0  0  0
 16 31  1  0  0  0
 17 18  1  0  0  0
 17 94  1  0  0  0
 18 19  2  0  0  0
 18 95  1  0  0  0
 19 20  1  0  0  0
 19 24  1  0  0  0
 20 21  2  0  0  0
 20 96  1  0  0  0
 21 23  1  0  0  0
 22 28  1  0  0  0
 22 32  2  0  0  0
 26 27  1  0  0  0
 28 97  1  0  0  0
 28 98  1  0  0  0
 29 99  1  0  0  0
 29100  1  0  0  0
 33 34  1  0  0  0
 33 66  1  0  0  0
 33 70  2  0  0  0
 34 36  1  0  0  0
 34 59  1  0  0  0
 34101  1  0  0  0
 35 44  2  0  0  0
 35 45  1  0  0  0
 35 68  1  0  0  0
 36 56  1  0  0  0
 36102  1  0  0  0
 37 39  1  0  0  0
 37 47  1  0  0  0
 37 66  1  0  0  0
 37103  1  0  0  0
 38 43  2  0  0  0
 38 46  1  0  0  0
 38 47  1  0  0  0
 39 64  1  0  0  0
 39 67  2  0  0  0
 40 52  1  0  0  0
 40 53  2  0  0  0
 40 58  1  0  0  0
 41104  1  0  0  0
 41105  1  0  0  0
 41106  1  0  0  0
 41 48  1  0  0  0
 42 43  1  0  0  0
 42 66  1  0  0  0
 42107  1  0  0  0
 42108  1  0  0  0
 43 44  1  0  0  0
 44109  1  0  0  0
 45 46  2  0  0  0
 45110  1  0  0  0
 46111  1  0  0  0
 47112  1  0  0  0
 47113  1  0  0  0
 48 56  1  0  0  0
 48 65  1  0  0  0
 48114  1  0  0  0
 49 50  1  0  0  0
 49 53  1  0  0  0
 49 64  1  0  0  0
 49115  1  0  0  0
 50 51  1  0  0  0
 50116  1  0  0  0
 50117  1  0  0  0
 51 52  1  0  0  0
 51118  1  0  0  0
 51119  1  0  0  0
 52120  1  0  0  0
 52121  1  0  0  0
 53 54  1  0  0  0
 54 55  2  0  0  0
 54122  1  0  0  0
 55 57  1  0  0  0
 55123  1  0  0  0
 56 69  2  0  0  0
 57 58  2  0  0  0
 57124  1  0  0  0
 58125  1  0  0  0
 59 60  1  0  0  0
 59 61  1  0  0  0
 59 62  1  0  0  0
 60126  1  0  0  0
 60127  1  0  0  0
 60128  1  0  0  0
 61129  1  0  0  0
 61130  1  0  0  0
 61131  1  0  0  0
 62132  1  0  0  0
 62133  1  0  0  0
 62134  1  0  0  0
 63 65  1  0  0  0
 63135  1  0  0  0
 63136  1  0  0  0
 63137  1  0  0  0
 64138  1  0  0  0
 65139  1  0  0  0
 68 78  1  0  0  0
 71140  1  0  0  0
 71141  1  0  0  0
 71142  1  0  0  0
 71 79  1  0  0  0
 72 79  1  0  0  0
 72143  1  0  0  0
 72144  1  0  0  0
 72145  1  0  0  0
 73 74  1  0  0  0
 73 75  1  0  0  0
 73146  1  0  0  0
 73147  1  0  0  0
 74 76  1  0  0  0
 74148  1  0  0  0
 74149  1  0  0  0
 75 78  1  0  0  0
 75150  1  0  0  0
 75151  1  0  0  0
 76 79  1  0  0  0
 76152  1  0  0  0
 76153  1  0  0  0
 77 79  1  0  0  0
 77 80  1  0  0  0
 77154  1  0  0  0
 77155  1  0  0  0
 78156  1  0  0  0
 78157  1  0  0  0
 80158  1  0  0  0
M  ISO  4   1 100  68 101  78 101  80 100
M  END
> <chiral flag>
0

> <version>
0

> <s_m_source_file>
/data/baiqing/PycharmProjects/Reinvent-master-3.2/result/LINK_invent/BTK/process_docking_weight1_custom_sum_contain_oxygen_bond_distance_aromatic_linkinvent_7_9_3/rearranged_h_0086.sdf

> <i_m_source_file_index>
51

> <r_mmod_Potential_Energy-OPLS-2005>
52.5734100341797

> <r_mmod_Stretch_Energy-OPLS-2005>
89.4228973388672

> <r_mmod_Bend_Energy-OPLS-2005>
146.016723632812

> <r_mmod_Torsional_Energy-OPLS-2005>
251.795501708984

> <r_mmod_Improper_Torsional_Energy-OPLS-2005>
5.46463918685913

> <r_mmod_Van_der_Waal_Energy-OPLS-2005>
112.80850982666

> <r_mmod_Electrostatic_Energy-OPLS-2005>
-410.225463867188

> <r_mmod_Solvation_Energy-OPLS-2005>
-190.873168945312

> <b_mmod_Minimization_Converged-OPLS-2005>
0

> <r_mmod_RMS_Derivative-OPLS-2005>
3.9565281867981

$$$$
52
                    3D
 Structure written by MMmdl.
184192  0  0  1  0            999 V2000
  -30.7682  -14.3902   20.6234 C   0  0  0  0  0  0
  -30.4080  -12.2795   19.4160 C   0  0  0  0  0  0
  -29.4888  -12.5091   18.2019 C   0  0  0  0  0  0
  -28.0105  -12.3759   18.6129 C   0  0  0  0  0  0
  -27.6623  -13.2100   19.8749 C   0  0  2  0  0  0
  -28.7011  -12.9824   20.9970 C   0  0  0  0  0  0
  -25.2583  -13.8174   20.5663 C   0  0  0  0  0  0
  -24.1833  -13.0437   20.9160 C   0  0  0  0  0  0
  -24.6393  -11.6912   20.8722 C   0  0  0  0  0  0
  -23.9060  -10.4291   21.0391 C   0  0  0  0  0  0
  -24.3607   -9.4209   21.9172 C   0  0  0  0  0  0
  -23.6283   -8.2249   22.0751 C   0  0  0  0  0  0
  -22.4268   -8.0279   21.3542 C   0  0  0  0  0  0
  -21.9899   -9.0251   20.4645 C   0  0  0  0  0  0
  -22.7229  -10.2133   20.3044 C   0  0  0  0  0  0
  -21.6847   -6.0730   22.5274 C   0  0  0  0  0  0
  -21.4016   -6.5640   23.8211 C   0  0  0  0  0  0
  -21.3662   -5.6790   24.9176 C   0  0  0  0  0  0
  -21.6038   -4.3048   24.7225 C   0  0  0  0  0  0
  -21.8826   -3.8141   23.4347 C   0  0  0  0  0  0
  -21.9198   -4.6957   22.3399 C   0  0  0  0  0  0
  -22.7863  -13.5244   21.1829 C   0  0  0  0  0  0
  -22.1663   -4.2139   21.0971 F   0  0  0  0  0  0
  -21.5631   -3.4532   25.7743 F   0  0  0  0  0  0
  -30.0403  -13.2577   20.4497 N   0  0  0  0  0  0
  -26.3021  -12.9349   20.3356 N   0  0  0  0  0  0
  -25.9320  -11.6502   20.5741 N   0  0  0  0  0  0
  -22.0503  -12.8231   22.0395 N   0  0  0  0  0  0
  -25.4312  -15.1885   20.4081 N   0  0  0  0  0  0
  -31.8718  -14.5603   20.1023 O   0  0  0  0  0  0
  -21.6638   -6.8872   21.4234 O   0  0  0  0  0  0
  -22.3537  -14.5544   20.6682 O   0  0  0  0  0  0
  -24.6086  -31.8671   23.2141 C   0  0  0  0  0  0
  -25.9006  -32.4807   23.8409 C   0  0  1  0  0  0
  -27.2473  -27.4773   20.0991 C   0  0  0  0  0  0
  -25.5872  -33.8614   24.2336 N   0  0  0  0  0  0
  -23.3955  -30.4885   21.5522 C   0  0  2  0  0  0
  -24.8461  -28.9588   20.1162 C   0  0  0  0  0  0
  -22.7395  -29.4611   22.4995 C   0  0  0  0  0  0
  -18.0243  -28.1330   22.8453 C   0  0  0  0  0  0
  -24.1487  -36.7330   23.2633 C   0  0  0  0  0  0
  -25.9163  -30.8469   21.3632 C   0  0  0  0  0  0
  -25.9986  -29.4823   20.7180 C   0  0  0  0  0  0
  -27.2012  -28.7493   20.7130 C   0  0  0  0  0  0
  -26.0843  -26.9618   19.4900 C   0  0  0  0  0  0
  -24.8807  -27.6940   19.5031 C   0  0  0  0  0  0
  -23.6050  -29.8210   20.1653 C   0  0  0  0  0  0
  -25.4107  -36.3117   24.0326 C   0  0  1  0  0  0
  -20.5832  -28.3618   23.1302 C   0  0  2  0  0  0
  -20.6743  -26.9354   22.5402 C   0  0  0  0  0  0
  -19.5742  -26.6340   21.5177 C   0  0  0  0  0  0
  -18.1903  -26.7879   22.1568 C   0  0  0  0  0  0
  -19.1490  -28.8787   23.2878 C   0  0  0  0  0  0
  -18.9441  -30.1377   23.8895 C   0  0  0  0  0  0
  -17.6451  -30.6556   24.0515 C   0  0  0  0  0  0
  -25.9000  -34.9466   23.5117 C   0  0  0  0  0  0
  -16.5334  -29.9053   23.6306 C   0  0  0  0  0  0
  -16.7239  -28.6461   23.0318 C   0  0  0  0  0  0
  -26.4472  -31.6578   25.0720 C   0  0  0  0  0  0
  -25.3775  -31.3682   26.1492 C   0  0  0  0  0  0
  -27.0280  -30.3019   24.6047 C   0  0  0  0  0  0
  -27.6035  -32.4314   25.7494 C   0  0  0  0  0  0
  -27.5586  -37.1816   24.8446 C   0  0  0  0  0  0
  -21.4128  -29.2995   22.3739 N   0  0  0  0  0  0
  -26.4289  -37.3793   23.9402 N   0  0  0  0  0  0
  -24.6575  -31.0812   22.1031 N   0  0  0  0  0  0
  -23.4198  -28.8141   23.3000 O   0  0  0  0  0  0
  -28.3999  -26.7370   20.0216 O   0  0  0  0  0  0
  -26.5571  -34.8911   22.4685 O   0  0  0  0  0  0
  -23.5297  -32.1402   23.7556 O   0  0  0  0  0  0
  -27.8956  -21.6662   20.9727 C   0  0  0  0  0  0
  -28.8675  -20.1127   22.2179 C   0  0  0  0  0  0
  -28.5101  -21.4292   22.2295 C   0  0  0  0  0  0
  -27.8691  -20.5121   20.2301 C   0  0  0  0  0  0
  -28.6629  -21.7891   24.7242 C   0  0  0  0  0  0
  -26.6781  -21.6460   18.3212 C   0  0  0  0  0  0
  -26.0063  -19.3577   18.9748 C   0  0  0  0  0  0
  -28.1998  -19.7713   17.8058 C   0  0  0  0  0  0
  -31.3005  -18.9677   20.5730 C   0  0  0  0  0  0
  -30.5151  -17.2135   19.0265 C   0  0  0  0  0  0
  -29.8186  -24.7620   22.9176 C   0  0  0  0  0  0
  -28.9816  -25.1183   21.6738 C   0  0  0  0  0  0
  -30.0188  -23.2464   23.1112 C   0  0  0  0  0  0
  -28.8230  -18.1399   20.6928 C   0  0  0  0  0  0
  -30.7682  -16.7076   21.5204 C   0  0  0  0  0  0
  -29.1461  -26.5747   21.2254 C   0  0  0  0  0  0
  -28.7146  -22.4443   23.3340 C   0  0  1  0  0  0
  -27.2187  -20.3061   18.8658 C   0  0  0  0  0  0
  -30.3329  -17.7655   20.4600 C   0  0  0  0  0  0
  -28.5336  -19.5444   20.9977 N   0  0  0  0  0  0
  -30.1830  -15.3727   21.3244 N   0  0  0  0  0  0
  -31.4554  -12.3509   19.1171 H   0  0  0  0  0  0
  -30.2828  -11.2670   19.8032 H   0  0  0  0  0  0
  -29.7234  -11.7941   17.4123 H   0  0  0  0  0  0
  -29.6695  -13.4998   17.7823 H   0  0  0  0  0  0
  -27.8151  -11.3199   18.8005 H   0  0  0  0  0  0
  -27.3631  -12.6606   17.7831 H   0  0  0  0  0  0
  -27.7123  -14.2600   19.5848 H   0  0  0  0  0  0
  -28.6595  -11.9490   21.3443 H   0  0  0  0  0  0
  -28.4642  -13.5905   21.8708 H   0  0  0  0  0  0
  -25.2757   -9.5692   22.4742 H   0  0  0  0  0  0
  -23.9996   -7.4643   22.7473 H   0  0  0  0  0  0
  -21.0830   -8.8760   19.8951 H   0  0  0  0  0  0
  -22.3676  -10.9663   19.6149 H   0  0  0  0  0  0
  -21.2005   -7.6152   23.9709 H   0  0  0  0  0  0
  -21.1478   -6.0522   25.9076 H   0  0  0  0  0  0
  -22.0603   -2.7601   23.2848 H   0  0  0  0  0  0
  -22.4125  -11.9898   22.4793 H   0  0  0  0  0  0
  -21.1120  -13.1251   22.2588 H   0  0  0  0  0  0
  -24.6642  -15.8446   20.5082 H   0  0  0  0  0  0
  -26.2879  -15.6234   20.0918 H   0  0  0  0  0  0
  -26.7080  -32.5534   23.1184 H   0  0  0  0  0  0
  -25.0108  -33.9789   25.0538 H   0  0  0  0  0  0
  -22.6802  -31.3032   21.4165 H   0  0  0  0  0  0
  -23.3734  -35.9676   23.3290 H   0  0  0  0  0  0
  -24.3584  -36.8942   22.2045 H   0  0  0  0  0  0
  -23.7259  -37.6541   23.6654 H   0  0  0  0  0  0
  -26.0237  -31.6183   20.5991 H   0  0  0  0  0  0
  -26.8045  -30.9005   21.9801 H   0  0  0  0  0  0
  -28.0894  -29.1737   21.1604 H   0  0  0  0  0  0
  -26.1137  -25.9955   19.0064 H   0  0  0  0  0  0
  -23.9953  -27.2855   19.0342 H   0  0  0  0  0  0
  -23.7167  -30.5973   19.4085 H   0  0  0  0  0  0
  -22.7314  -29.2414   19.8629 H   0  0  0  0  0  0
  -25.1291  -36.1981   25.0821 H   0  0  0  0  0  0
  -20.9894  -28.3181   24.1437 H   0  0  0  0  0  0
  -20.5605  -26.2217   23.3578 H   0  0  0  0  0  0
  -21.6624  -26.7382   22.1218 H   0  0  0  0  0  0
  -19.6906  -25.6264   21.1171 H   0  0  0  0  0  0
  -19.6688  -27.3166   20.6719 H   0  0  0  0  0  0
  -17.4175  -26.6559   21.3971 H   0  0  0  0  0  0
  -18.0329  -26.0034   22.8969 H   0  0  0  0  0  0
  -19.7929  -30.7149   24.2289 H   0  0  0  0  0  0
  -17.5024  -31.6245   24.5112 H   0  0  0  0  0  0
  -15.5334  -30.2947   23.7656 H   0  0  0  0  0  0
  -15.8621  -28.0789   22.7049 H   0  0  0  0  0  0
  -24.5976  -30.6945   25.7900 H   0  0  0  0  0  0
  -24.8929  -32.2832   26.4920 H   0  0  0  0  0  0
  -25.8194  -30.8937   27.0263 H   0  0  0  0  0  0
  -26.2783  -29.6801   24.1123 H   0  0  0  0  0  0
  -27.4077  -29.7226   25.4472 H   0  0  0  0  0  0
  -27.8631  -30.4320   23.9154 H   0  0  0  0  0  0
  -27.2620  -33.3608   26.2087 H   0  0  0  0  0  0
  -28.3883  -32.6877   25.0358 H   0  0  0  0  0  0
  -28.0669  -31.8420   26.5420 H   0  0  0  0  0  0
  -28.2590  -38.0126   24.7533 H   0  0  0  0  0  0
  -28.1102  -36.2657   24.6251 H   0  0  0  0  0  0
  -27.2296  -37.1453   25.8842 H   0  0  0  0  0  0
  -20.9264  -29.8795   21.7045 H   0  0  0  0  0  0
  -26.0173  -38.2862   24.1449 H   0  0  0  0  0  0
  -27.4869  -22.6143   20.6563 H   0  0  0  0  0  0
  -29.3616  -19.5190   22.9744 H   0  0  0  0  0  0
  -27.7412  -21.2195   24.8535 H   0  0  0  0  0  0
  -28.7014  -22.5391   25.5134 H   0  0  0  0  0  0
  -29.5003  -21.1064   24.8752 H   0  0  0  0  0  0
  -25.9336  -22.0808   18.9892 H   0  0  0  0  0  0
  -26.1948  -21.5257   17.3510 H   0  0  0  0  0  0
  -27.4798  -22.3745   18.1902 H   0  0  0  0  0  0
  -25.3151  -19.6916   19.7485 H   0  0  0  0  0  0
  -26.2803  -18.3344   19.2166 H   0  0  0  0  0  0
  -25.4497  -19.3135   18.0385 H   0  0  0  0  0  0
  -29.1562  -20.2950   17.8433 H   0  0  0  0  0  0
  -27.8023  -19.8905   16.7970 H   0  0  0  0  0  0
  -28.3820  -18.7076   17.9182 H   0  0  0  0  0  0
  -31.0145  -19.7792   19.9035 H   0  0  0  0  0  0
  -32.3203  -18.6848   20.3102 H   0  0  0  0  0  0
  -31.3441  -19.3691   21.5834 H   0  0  0  0  0  0
  -30.3885  -17.9876   18.2740 H   0  0  0  0  0  0
  -29.8086  -16.4162   18.7961 H   0  0  0  0  0  0
  -31.5197  -16.8187   18.8766 H   0  0  0  0  0  0
  -29.3699  -25.1997   23.8100 H   0  0  0  0  0  0
  -30.8061  -25.2190   22.8253 H   0  0  0  0  0  0
  -27.9260  -24.9207   21.8644 H   0  0  0  0  0  0
  -29.2644  -24.4711   20.8437 H   0  0  0  0  0  0
  -30.6926  -23.0920   23.9557 H   0  0  0  0  0  0
  -30.5601  -22.8520   22.2482 H   0  0  0  0  0  0
  -28.4271  -17.5674   21.5313 H   0  0  0  0  0  0
  -28.2196  -17.8040   19.8597 H   0  0  0  0  0  0
  -30.5000  -17.0559   22.5196 H   0  0  0  0  0  0
  -31.8570  -16.6282   21.5449 H   0  0  0  0  0  0
  -30.1939  -26.7866   21.0132 H   0  0  0  0  0  0
  -28.8469  -27.2419   22.0339 H   0  0  0  0  0  0
  -27.8644  -23.1231   23.2835 H   0  0  0  0  0  0
  -29.2771  -15.1852   21.7271 H   0  0  0  0  0  0
  1 25  1  0  0  0
  1 30  2  0  0  0
  1 91  1  0  0  0
  2  3  1  0  0  0
  2 25  1  0  0  0
  2 92  1  0  0  0
  2 93  1  0  0  0
  3  4  1  0  0  0
  3 94  1  0  0  0
  3 95  1  0  0  0
  4  5  1  0  0  0
  4 96  1  0  0  0
  4 97  1  0  0  0
  5  6  1  0  0  0
  5 26  1  0  0  0
  5 98  1  0  0  0
  6 25  1  0  0  0
  6 99  1  0  0  0
  6100  1  0  0  0
  7  8  2  0  0  0
  7 26  1  0  0  0
  7 29  1  0  0  0
  8  9  1  0  0  0
  8 22  1  0  0  0
  9 10  1  0  0  0
  9 27  2  0  0  0
 10 11  2  0  0  0
 10 15  1  0  0  0
 11 12  1  0  0  0
 11101  1  0  0  0
 12 13  2  0  0  0
 12102  1  0  0  0
 13 14  1  0  0  0
 13 31  1  0  0  0
 14 15  2  0  0  0
 14103  1  0  0  0
 15104  1  0  0  0
 16 17  2  0  0  0
 16 21  1  0  0  0
 16 31  1  0  0  0
 17 18  1  0  0  0
 17105  1  0  0  0
 18 19  2  0  0  0
 18106  1  0  0  0
 19 20  1  0  0  0
 19 24  1  0  0  0
 20 21  2  0  0  0
 20107  1  0  0  0
 21 23  1  0  0  0
 22 28  1  0  0  0
 22 32  2  0  0  0
 26 27  1  0  0  0
 28108  1  0  0  0
 28109  1  0  0  0
 29110  1  0  0  0
 29111  1  0  0  0
 33 34  1  0  0  0
 33 66  1  0  0  0
 33 70  2  0  0  0
 34 36  1  0  0  0
 34 59  1  0  0  0
 34112  1  0  0  0
 35 44  2  0  0  0
 35 45  1  0  0  0
 35 68  1  0  0  0
 36 56  1  0  0  0
 36113  1  0  0  0
 37 39  1  0  0  0
 37 47  1  0  0  0
 37 66  1  0  0  0
 37114  1  0  0  0
 38 43  2  0  0  0
 38 46  1  0  0  0
 38 47  1  0  0  0
 39 64  1  0  0  0
 39 67  2  0  0  0
 40 52  1  0  0  0
 40 53  2  0  0  0
 40 58  1  0  0  0
 41115  1  0  0  0
 41116  1  0  0  0
 41117  1  0  0  0
 41 48  1  0  0  0
 42 43  1  0  0  0
 42 66  1  0  0  0
 42118  1  0  0  0
 42119  1  0  0  0
 43 44  1  0  0  0
 44120  1  0  0  0
 45 46  2  0  0  0
 45121  1  0  0  0
 46122  1  0  0  0
 47123  1  0  0  0
 47124  1  0  0  0
 48 56  1  0  0  0
 48 65  1  0  0  0
 48125  1  0  0  0
 49 50  1  0  0  0
 49 53  1  0  0  0
 49 64  1  0  0  0
 49126  1  0  0  0
 50 51  1  0  0  0
 50127  1  0  0  0
 50128  1  0  0  0
 51 52  1  0  0  0
 51129  1  0  0  0
 51130  1  0  0  0
 52131  1  0  0  0
 52132  1  0  0  0
 53 54  1  0  0  0
 54 55  2  0  0  0
 54133  1  0  0  0
 55 57  1  0  0  0
 55134  1  0  0  0
 56 69  2  0  0  0
 57 58  2  0  0  0
 57135  1  0  0  0
 58136  1  0  0  0
 59 60  1  0  0  0
 59 61  1  0  0  0
 59 62  1  0  0  0
 60137  1  0  0  0
 60138  1  0  0  0
 60139  1  0  0  0
 61140  1  0  0  0
 61141  1  0  0  0
 61142  1  0  0  0
 62143  1  0  0  0
 62144  1  0  0  0
 62145  1  0  0  0
 63 65  1  0  0  0
 63146  1  0  0  0
 63147  1  0  0  0
 63148  1  0  0  0
 64149  1  0  0  0
 65150  1  0  0  0
 68 86  1  0  0  0
 71 73  1  0  0  0
 71 74  2  0  0  0
 71151  1  0  0  0
 72 73  2  0  0  0
 72 90  1  0  0  0
 72152  1  0  0  0
 73 87  1  0  0  0
 74 88  1  0  0  0
 74 90  1  0  0  0
 75153  1  0  0  0
 75154  1  0  0  0
 75155  1  0  0  0
 75 87  1  0  0  0
 76156  1  0  0  0
 76157  1  0  0  0
 76158  1  0  0  0
 76 88  1  0  0  0
 77 88  1  0  0  0
 77159  1  0  0  0
 77160  1  0  0  0
 77161  1  0  0  0
 78 88  1  0  0  0
 78162  1  0  0  0
 78163  1  0  0  0
 78164  1  0  0  0
 79165  1  0  0  0
 79166  1  0  0  0
 79167  1  0  0  0
 79 89  1  0  0  0
 80 89  1  0  0  0
 80168  1  0  0  0
 80169  1  0  0  0
 80170  1  0  0  0
 81 82  1  0  0  0
 81 83  1  0  0  0
 81171  1  0  0  0
 81172  1  0  0  0
 82 86  1  0  0  0
 82173  1  0  0  0
 82174  1  0  0  0
 83 87  1  0  0  0
 83175  1  0  0  0
 83176  1  0  0  0
 84 89  1  0  0  0
 84 90  1  0  0  0
 84177  1  0  0  0
 84178  1  0  0  0
 85 89  1  0  0  0
 85 91  1  0  0  0
 85179  1  0  0  0
 85180  1  0  0  0
 86181  1  0  0  0
 86182  1  0  0  0
 87183  1  0  0  0
 91184  1  0  0  0
M  ISO  4   1 100  68 101  86 101  91 100
M  END
> <chiral flag>
0

> <version>
0

> <s_m_source_file>
/data/baiqing/PycharmProjects/Reinvent-master-3.2/result/LINK_invent/BTK/process_docking_weight1_custom_sum_contain_oxygen_bond_distance_aromatic_linkinvent_7_9_3/rearranged_h_0086.sdf

> <i_m_source_file_index>
52

> <r_mmod_Potential_Energy-OPLS-2005>
-63.5353126525879

> <r_mmod_Stretch_Energy-OPLS-2005>
38.1119804382324

> <r_mmod_Bend_Energy-OPLS-2005>
123.367454528809

> <r_mmod_Torsional_Energy-OPLS-2005>
263.852691650391

> <r_mmod_Improper_Torsional_Energy-OPLS-2005>
2.40496706962585

> <r_mmod_Van_der_Waal_Energy-OPLS-2005>
139.291839599609

> <r_mmod_Electrostatic_Energy-OPLS-2005>
-451.432159423828

> <r_mmod_Solvation_Energy-OPLS-2005>
-187.537460327148

> <b_mmod_Minimization_Converged-OPLS-2005>
0

> <r_mmod_RMS_Derivative-OPLS-2005>
2.82984304428101

$$$$
53
                    3D
 Structure written by MMmdl.
176184  0  0  1  0            999 V2000
  -30.5536  -14.9206   20.4839 C   0  0  0  0  0  0
  -30.4380  -12.5788   19.4971 C   0  0  0  0  0  0
  -29.5249  -12.5768   18.2487 C   0  0  0  0  0  0
  -28.0475  -12.3867   18.6483 C   0  0  0  0  0  0
  -27.6416  -13.2585   19.8647 C   0  0  2  0  0  0
  -28.6850  -13.1829   20.9960 C   0  0  0  0  0  0
  -25.2513  -13.8267   20.5748 C   0  0  0  0  0  0
  -24.1797  -13.0449   20.9161 C   0  0  0  0  0  0
  -24.6406  -11.6937   20.8634 C   0  0  0  0  0  0
  -23.9062  -10.4294   21.0294 C   0  0  0  0  0  0
  -24.3620   -9.4229   21.9108 C   0  0  0  0  0  0
  -23.6302   -8.2257   22.0727 C   0  0  0  0  0  0
  -22.4282   -8.0267   21.3523 C   0  0  0  0  0  0
  -21.9887   -9.0215   20.4607 C   0  0  0  0  0  0
  -22.7208  -10.2108   20.2969 C   0  0  0  0  0  0
  -21.6850   -6.0718   22.5266 C   0  0  0  0  0  0
  -21.4022   -6.5639   23.8197 C   0  0  0  0  0  0
  -21.3677   -5.6799   24.9173 C   0  0  0  0  0  0
  -21.6058   -4.3057   24.7206 C   0  0  0  0  0  0
  -21.8828   -3.8136   23.4338 C   0  0  0  0  0  0
  -21.9192   -4.6944   22.3390 C   0  0  0  0  0  0
  -22.7844  -13.5218   21.1848 C   0  0  0  0  0  0
  -22.1658   -4.2136   21.0957 F   0  0  0  0  0  0
  -21.5611   -3.4535   25.7712 F   0  0  0  0  0  0
  -29.9562  -13.6534   20.4274 N   0  0  0  0  0  0
  -26.2940  -12.9512   20.3307 N   0  0  0  0  0  0
  -25.9350  -11.6617   20.5650 N   0  0  0  0  0  0
  -22.0548  -12.8150   22.0419 N   0  0  0  0  0  0
  -25.4228  -15.2012   20.4403 N   0  0  0  0  0  0
  -31.7240  -14.9299   20.0746 O   0  0  0  0  0  0
  -21.6665   -6.8848   21.4222 O   0  0  0  0  0  0
  -22.3492  -14.5519   20.6734 O   0  0  0  0  0  0
  -24.6449  -31.8448   23.1861 C   0  0  0  0  0  0
  -25.9222  -32.4684   23.8286 C   0  0  1  0  0  0
  -27.2138  -27.1395   20.1487 C   0  0  0  0  0  0
  -25.5997  -33.8499   24.2198 N   0  0  0  0  0  0
  -23.4467  -30.4649   21.5282 C   0  0  2  0  0  0
  -24.8953  -28.8932   20.1050 C   0  0  0  0  0  0
  -22.7579  -29.4572   22.4825 C   0  0  0  0  0  0
  -18.0302  -28.1376   22.8487 C   0  0  0  0  0  0
  -24.1478  -36.7266   23.2632 C   0  0  0  0  0  0
  -26.0036  -30.7174   21.3864 C   0  0  0  0  0  0
  -26.0716  -29.3313   20.7250 C   0  0  0  0  0  0
  -27.2316  -28.4696   20.7296 C   0  0  0  0  0  0
  -26.0124  -26.8039   19.4843 C   0  0  0  0  0  0
  -24.8781  -27.6450   19.4694 C   0  0  0  0  0  0
  -23.6723  -29.7956   20.1478 C   0  0  0  0  0  0
  -25.4105  -36.3032   24.0315 C   0  0  1  0  0  0
  -20.5917  -28.3731   23.1196 C   0  0  2  0  0  0
  -20.6790  -26.9426   22.5383 C   0  0  0  0  0  0
  -19.5763  -26.6365   21.5202 C   0  0  0  0  0  0
  -18.1946  -26.7911   22.1613 C   0  0  0  0  0  0
  -19.1561  -28.8873   23.2830 C   0  0  0  0  0  0
  -18.9489  -30.1466   23.8848 C   0  0  0  0  0  0
  -17.6490  -30.6583   24.0563 C   0  0  0  0  0  0
  -25.9089  -34.9406   23.5059 C   0  0  0  0  0  0
  -16.5381  -29.9082   23.6315 C   0  0  0  0  0  0
  -16.7281  -28.6483   23.0361 C   0  0  0  0  0  0
  -26.4537  -31.6550   25.0734 C   0  0  0  0  0  0
  -25.3738  -31.3746   26.1448 C   0  0  0  0  0  0
  -27.0411  -30.2934   24.6347 C   0  0  0  0  0  0
  -27.6045  -32.4354   25.7523 C   0  0  0  0  0  0
  -27.5566  -37.1785   24.8459 C   0  0  0  0  0  0
  -21.4270  -29.3083   22.3591 N   0  0  0  0  0  0
  -26.4268  -37.3755   23.9421 N   0  0  0  0  0  0
  -24.7186  -31.0314   22.0889 N   0  0  0  0  0  0
  -23.4232  -28.8123   23.2976 O   0  0  0  0  0  0
  -28.2584  -26.1483   20.2407 O   0  0  0  0  0  0
  -26.5701  -34.8911   22.4650 O   0  0  0  0  0  0
  -23.5551  -32.1354   23.7043 O   0  0  0  0  0  0
  -28.7593  -16.9156   18.7509 C   0  0  0  0  0  0
  -27.7142  -17.7138   18.2215 C   0  0  0  0  0  0
  -29.1947  -17.4187   19.9417 C   0  0  0  0  0  0
  -27.5621  -18.7460   19.1173 C   0  0  0  0  0  0
  -26.3990  -19.6817   19.2579 C   0  0  0  0  0  0
  -30.3492  -23.5092   20.1095 C   0  0  0  0  0  0
  -27.4007  -16.0929   16.2828 C   0  0  0  0  0  0
  -27.0565  -18.5395   15.9422 C   0  0  0  0  0  0
  -25.4061  -17.1822   17.2532 C   0  0  0  0  0  0
  -28.9666  -16.2501   22.1485 C   0  0  0  0  0  0
  -31.1498  -17.2171   21.5361 C   0  0  0  0  0  0
  -28.4674  -21.7112   20.0867 C   0  0  0  0  0  0
  -29.0419  -20.2058   20.6612 C   0  0  0  0  0  0
  -27.9892  -24.6331   20.0046 C   0  0  0  0  0  0
  -28.8858  -23.2885   20.5018 C   0  0  2  0  0  0
  -26.9022  -17.3903   16.9542 C   0  0  0  0  0  0
  -29.9471  -16.4298   20.9720 C   0  0  0  0  0  0
  -28.6919  -18.8292   19.9523 N   0  0  0  0  0  0
  -31.4759  -12.7160   19.1885 H   0  0  0  0  0  0
  -30.4118  -11.5985   19.9761 H   0  0  0  0  0  0
  -29.8290  -11.7862   17.5628 H   0  0  0  0  0  0
  -29.6475  -13.5157   17.7054 H   0  0  0  0  0  0
  -27.9038  -11.3343   18.8869 H   0  0  0  0  0  0
  -27.3953  -12.5987   17.7991 H   0  0  0  0  0  0
  -27.6361  -14.2920   19.5192 H   0  0  0  0  0  0
  -28.7731  -12.1595   21.3647 H   0  0  0  0  0  0
  -28.3833  -13.7577   21.8674 H   0  0  0  0  0  0
  -25.2770   -9.5745   22.4675 H   0  0  0  0  0  0
  -24.0008   -7.4691   22.7509 H   0  0  0  0  0  0
  -21.0775   -8.8714   19.8973 H   0  0  0  0  0  0
  -22.3614  -10.9620   19.6067 H   0  0  0  0  0  0
  -21.2035   -7.6159   23.9676 H   0  0  0  0  0  0
  -21.1500   -6.0547   25.9073 H   0  0  0  0  0  0
  -22.0591   -2.7583   23.2844 H   0  0  0  0  0  0
  -22.4193  -11.9782   22.4718 H   0  0  0  0  0  0
  -21.1178  -13.1136   22.2647 H   0  0  0  0  0  0
  -24.6618  -15.8585   20.5660 H   0  0  0  0  0  0
  -26.2745  -15.6526   20.1260 H   0  0  0  0  0  0
  -26.7314  -32.5264   23.1036 H   0  0  0  0  0  0
  -25.0167  -33.9606   25.0365 H   0  0  0  0  0  0
  -22.7498  -31.2904   21.3711 H   0  0  0  0  0  0
  -23.3761  -35.9581   23.3258 H   0  0  0  0  0  0
  -24.3547  -36.8940   22.2052 H   0  0  0  0  0  0
  -23.7231  -37.6440   23.6710 H   0  0  0  0  0  0
  -26.1617  -31.4703   20.6135 H   0  0  0  0  0  0
  -26.8728  -30.7624   22.0319 H   0  0  0  0  0  0
  -28.1268  -28.7961   21.2388 H   0  0  0  0  0  0
  -25.9090  -25.8528   18.9882 H   0  0  0  0  0  0
  -23.9812  -27.3026   18.9729 H   0  0  0  0  0  0
  -23.8091  -30.5694   19.3910 H   0  0  0  0  0  0
  -22.7872  -29.2360   19.8351 H   0  0  0  0  0  0
  -25.1273  -36.1851   25.0809 H   0  0  0  0  0  0
  -21.0001  -28.3321   24.1318 H   0  0  0  0  0  0
  -20.5631  -26.2381   23.3631 H   0  0  0  0  0  0
  -21.6662  -26.7398   22.1210 H   0  0  0  0  0  0
  -19.6929  -25.6269   21.1247 H   0  0  0  0  0  0
  -19.6658  -27.3153   20.6719 H   0  0  0  0  0  0
  -17.4210  -26.6663   21.4012 H   0  0  0  0  0  0
  -18.0344  -26.0026   22.8979 H   0  0  0  0  0  0
  -19.7972  -30.7301   24.2173 H   0  0  0  0  0  0
  -17.5037  -31.6221   24.5244 H   0  0  0  0  0  0
  -15.5372  -30.2996   23.7619 H   0  0  0  0  0  0
  -15.8681  -28.0777   22.7115 H   0  0  0  0  0  0
  -24.5916  -30.7082   25.7803 H   0  0  0  0  0  0
  -24.8945  -32.2921   26.4857 H   0  0  0  0  0  0
  -25.8041  -30.8951   27.0247 H   0  0  0  0  0  0
  -26.3027  -29.6654   24.1354 H   0  0  0  0  0  0
  -27.3997  -29.7234   25.4931 H   0  0  0  0  0  0
  -27.8939  -30.4142   23.9670 H   0  0  0  0  0  0
  -27.2606  -33.3675   26.2016 H   0  0  0  0  0  0
  -28.3889  -32.6905   25.0389 H   0  0  0  0  0  0
  -28.0704  -31.8581   26.5514 H   0  0  0  0  0  0
  -28.2567  -38.0104   24.7539 H   0  0  0  0  0  0
  -28.1082  -36.2642   24.6218 H   0  0  0  0  0  0
  -27.2299  -37.1344   25.8865 H   0  0  0  0  0  0
  -20.9499  -29.8852   21.6812 H   0  0  0  0  0  0
  -26.0123  -38.2809   24.1458 H   0  0  0  0  0  0
  -29.0700  -15.9598   18.3567 H   0  0  0  0  0  0
  -25.4561  -19.1820   19.0756 H   0  0  0  0  0  0
  -26.4637  -20.5322   18.5825 H   0  0  0  0  0  0
  -26.2853  -20.0124   20.2886 H   0  0  0  0  0  0
  -30.9937  -22.7485   20.5495 H   0  0  0  0  0  0
  -30.6939  -24.4828   20.4543 H   0  0  0  0  0  0
  -30.4877  -23.4708   19.0288 H   0  0  0  0  0  0
  -28.4417  -16.1656   15.9690 H   0  0  0  0  0  0
  -26.8187  -15.8681   15.3881 H   0  0  0  0  0  0
  -27.3085  -15.2350   16.9491 H   0  0  0  0  0  0
  -28.0989  -18.6784   15.6513 H   0  0  0  0  0  0
  -26.7098  -19.4888   16.3500 H   0  0  0  0  0  0
  -26.4837  -18.3495   15.0335 H   0  0  0  0  0  0
  -25.2602  -16.5393   18.1178 H   0  0  0  0  0  0
  -24.8893  -16.7204   16.4113 H   0  0  0  0  0  0
  -24.8794  -18.1134   17.4234 H   0  0  0  0  0  0
  -28.7335  -17.2086   22.6104 H   0  0  0  0  0  0
  -29.3615  -15.6091   22.9369 H   0  0  0  0  0  0
  -28.0121  -15.8541   21.8046 H   0  0  0  0  0  0
  -30.8376  -18.1518   22.0042 H   0  0  0  0  0  0
  -31.8553  -17.4764   20.7472 H   0  0  0  0  0  0
  -31.6916  -16.6401   22.2856 H   0  0  0  0  0  0
  -27.4083  -21.7418   20.3124 H   0  0  0  0  0  0
  -28.5288  -21.6569   18.9989 H   0  0  0  0  0  0
  -28.7668  -20.1093   21.7124 H   0  0  0  0  0  0
  -30.1307  -20.2628   20.6633 H   0  0  0  0  0  0
  -26.9952  -24.4522   20.4106 H   0  0  0  0  0  0
  -27.8662  -24.5378   18.9239 H   0  0  0  0  0  0
  -28.8563  -23.3118   21.5923 H   0  0  0  0  0  0
  1 25  1  0  0  0
  1 30  2  0  0  0
  1 87  1  0  0  0
  2  3  1  0  0  0
  2 25  1  0  0  0
  2 89  1  0  0  0
  2 90  1  0  0  0
  3  4  1  0  0  0
  3 91  1  0  0  0
  3 92  1  0  0  0
  4  5  1  0  0  0
  4 93  1  0  0  0
  4 94  1  0  0  0
  5  6  1  0  0  0
  5 26  1  0  0  0
  5 95  1  0  0  0
  6 25  1  0  0  0
  6 96  1  0  0  0
  6 97  1  0  0  0
  7  8  2  0  0  0
  7 26  1  0  0  0
  7 29  1  0  0  0
  8  9  1  0  0  0
  8 22  1  0  0  0
  9 10  1  0  0  0
  9 27  2  0  0  0
 10 11  2  0  0  0
 10 15  1  0  0  0
 11 12  1  0  0  0
 11 98  1  0  0  0
 12 13  2  0  0  0
 12 99  1  0  0  0
 13 14  1  0  0  0
 13 31  1  0  0  0
 14 15  2  0  0  0
 14100  1  0  0  0
 15101  1  0  0  0
 16 17  2  0  0  0
 16 21  1  0  0  0
 16 31  1  0  0  0
 17 18  1  0  0  0
 17102  1  0  0  0
 18 19  2  0  0  0
 18103  1  0  0  0
 19 20  1  0  0  0
 19 24  1  0  0  0
 20 21  2  0  0  0
 20104  1  0  0  0
 21 23  1  0  0  0
 22 28  1  0  0  0
 22 32  2  0  0  0
 26 27  1  0  0  0
 28105  1  0  0  0
 28106  1  0  0  0
 29107  1  0  0  0
 29108  1  0  0  0
 33 34  1  0  0  0
 33 66  1  0  0  0
 33 70  2  0  0  0
 34 36  1  0  0  0
 34 59  1  0  0  0
 34109  1  0  0  0
 35 44  2  0  0  0
 35 45  1  0  0  0
 35 68  1  0  0  0
 36 56  1  0  0  0
 36110  1  0  0  0
 37 39  1  0  0  0
 37 47  1  0  0  0
 37 66  1  0  0  0
 37111  1  0  0  0
 38 43  2  0  0  0
 38 46  1  0  0  0
 38 47  1  0  0  0
 39 64  1  0  0  0
 39 67  2  0  0  0
 40 52  1  0  0  0
 40 53  2  0  0  0
 40 58  1  0  0  0
 41112  1  0  0  0
 41113  1  0  0  0
 41114  1  0  0  0
 41 48  1  0  0  0
 42 43  1  0  0  0
 42 66  1  0  0  0
 42115  1  0  0  0
 42116  1  0  0  0
 43 44  1  0  0  0
 44117  1  0  0  0
 45 46  2  0  0  0
 45118  1  0  0  0
 46119  1  0  0  0
 47120  1  0  0  0
 47121  1  0  0  0
 48 56  1  0  0  0
 48 65  1  0  0  0
 48122  1  0  0  0
 49 50  1  0  0  0
 49 53  1  0  0  0
 49 64  1  0  0  0
 49123  1  0  0  0
 50 51  1  0  0  0
 50124  1  0  0  0
 50125  1  0  0  0
 51 52  1  0  0  0
 51126  1  0  0  0
 51127  1  0  0  0
 52128  1  0  0  0
 52129  1  0  0  0
 53 54  1  0  0  0
 54 55  2  0  0  0
 54130  1  0  0  0
 55 57  1  0  0  0
 55131  1  0  0  0
 56 69  2  0  0  0
 57 58  2  0  0  0
 57132  1  0  0  0
 58133  1  0  0  0
 59 60  1  0  0  0
 59 61  1  0  0  0
 59 62  1  0  0  0
 60134  1  0  0  0
 60135  1  0  0  0
 60136  1  0  0  0
 61137  1  0  0  0
 61138  1  0  0  0
 61139  1  0  0  0
 62140  1  0  0  0
 62141  1  0  0  0
 62142  1  0  0  0
 63 65  1  0  0  0
 63143  1  0  0  0
 63144  1  0  0  0
 63145  1  0  0  0
 64146  1  0  0  0
 65147  1  0  0  0
 68 84  1  0  0  0
 71 72  1  0  0  0
 71 73  2  0  0  0
 71148  1  0  0  0
 72 74  2  0  0  0
 72 86  1  0  0  0
 73 87  1  0  0  0
 73 88  1  0  0  0
 74 75  1  0  0  0
 74 88  1  0  0  0
 75149  1  0  0  0
 75150  1  0  0  0
 75151  1  0  0  0
 76152  1  0  0  0
 76153  1  0  0  0
 76154  1  0  0  0
 76 85  1  0  0  0
 77155  1  0  0  0
 77156  1  0  0  0
 77157  1  0  0  0
 77 86  1  0  0  0
 78 86  1  0  0  0
 78158  1  0  0  0
 78159  1  0  0  0
 78160  1  0  0  0
 79 86  1  0  0  0
 79161  1  0  0  0
 79162  1  0  0  0
 79163  1  0  0  0
 80164  1  0  0  0
 80165  1  0  0  0
 80166  1  0  0  0
 80 87  1  0  0  0
 81 87  1  0  0  0
 81167  1  0  0  0
 81168  1  0  0  0
 81169  1  0  0  0
 82 83  1  0  0  0
 82 85  1  0  0  0
 82170  1  0  0  0
 82171  1  0  0  0
 83 88  1  0  0  0
 83172  1  0  0  0
 83173  1  0  0  0
 84 85  1  0  0  0
 84174  1  0  0  0
 84175  1  0  0  0
 85176  1  0  0  0
M  ISO  4   1 100  68 101  84 101  87 100
M  END
> <chiral flag>
0

> <version>
0

> <s_m_source_file>
/data/baiqing/PycharmProjects/Reinvent-master-3.2/result/LINK_invent/BTK/process_docking_weight1_custom_sum_contain_oxygen_bond_distance_aromatic_linkinvent_7_9_3/rearranged_h_0086.sdf

> <i_m_source_file_index>
53

> <r_mmod_Potential_Energy-OPLS-2005>
681.678100585938

> <r_mmod_Stretch_Energy-OPLS-2005>
304.661346435547

> <r_mmod_Bend_Energy-OPLS-2005>
329.516723632812

> <r_mmod_Torsional_Energy-OPLS-2005>
280.314117431641

> <r_mmod_Improper_Torsional_Energy-OPLS-2005>
2.7486367225647

> <r_mmod_Van_der_Waal_Energy-OPLS-2005>
117.677383422852

> <r_mmod_Electrostatic_Energy-OPLS-2005>
-354.567169189453

> <r_mmod_Solvation_Energy-OPLS-2005>
-169.721603393555

> <b_mmod_Minimization_Converged-OPLS-2005>
0

> <r_mmod_RMS_Derivative-OPLS-2005>
4.57046842575073

$$$$
54
                    3D
 Structure written by MMmdl.
167175  0  0  1  0            999 V2000
  -30.5349  -15.0027   20.4292 C   0  0  0  0  0  0
  -30.4506  -12.6282   19.5070 C   0  0  0  0  0  0
  -29.5308  -12.5402   18.2656 C   0  0  0  0  0  0
  -28.0644  -12.3216   18.6830 C   0  0  0  0  0  0
  -27.6329  -13.2562   19.8423 C   0  0  2  0  0  0
  -28.6777  -13.2959   20.9801 C   0  0  0  0  0  0
  -25.2459  -13.8211   20.5726 C   0  0  0  0  0  0
  -24.1785  -13.0424   20.9264 C   0  0  0  0  0  0
  -24.6411  -11.6924   20.8748 C   0  0  0  0  0  0
  -23.9109  -10.4284   21.0392 C   0  0  0  0  0  0
  -24.3645   -9.4190   21.9170 C   0  0  0  0  0  0
  -23.6306   -8.2235   22.0744 C   0  0  0  0  0  0
  -22.4284   -8.0281   21.3535 C   0  0  0  0  0  0
  -21.9934   -9.0258   20.4632 C   0  0  0  0  0  0
  -22.7278  -10.2137   20.3045 C   0  0  0  0  0  0
  -21.6861   -6.0723   22.5266 C   0  0  0  0  0  0
  -21.4003   -6.5617   23.8195 C   0  0  0  0  0  0
  -21.3673   -5.6769   24.9151 C   0  0  0  0  0  0
  -21.6063   -4.3035   24.7206 C   0  0  0  0  0  0
  -21.8834   -3.8132   23.4325 C   0  0  0  0  0  0
  -21.9196   -4.6951   22.3377 C   0  0  0  0  0  0
  -22.7803  -13.5207   21.1885 C   0  0  0  0  0  0
  -22.1673   -4.2147   21.0954 F   0  0  0  0  0  0
  -21.5645   -3.4514   25.7716 F   0  0  0  0  0  0
  -29.9526  -13.7292   20.3880 N   0  0  0  0  0  0
  -26.2907  -12.9473   20.3270 N   0  0  0  0  0  0
  -25.9352  -11.6597   20.5758 N   0  0  0  0  0  0
  -22.0425  -12.8203   22.0425 N   0  0  0  0  0  0
  -25.4042  -15.1909   20.4090 N   0  0  0  0  0  0
  -31.7271  -15.0742   20.1135 O   0  0  0  0  0  0
  -21.6640   -6.8876   21.4232 O   0  0  0  0  0  0
  -22.3483  -14.5494   20.6708 O   0  0  0  0  0  0
  -24.6480  -31.8386   23.1832 C   0  0  0  0  0  0
  -25.9221  -32.4667   23.8246 C   0  0  1  0  0  0
  -27.2268  -27.0921   20.1837 C   0  0  0  0  0  0
  -25.5949  -33.8473   24.2155 N   0  0  0  0  0  0
  -23.4540  -30.4531   21.5299 C   0  0  2  0  0  0
  -24.9040  -28.8571   20.1262 C   0  0  0  0  0  0
  -22.7582  -29.4525   22.4864 C   0  0  0  0  0  0
  -18.0310  -28.1392   22.8480 C   0  0  0  0  0  0
  -24.1482  -36.7251   23.2644 C   0  0  0  0  0  0
  -26.0094  -30.7000   21.3834 C   0  0  0  0  0  0
  -26.0810  -29.2999   20.7436 C   0  0  0  0  0  0
  -27.2459  -28.4376   20.7444 C   0  0  0  0  0  0
  -26.0232  -26.7518   19.5352 C   0  0  0  0  0  0
  -24.8895  -27.5982   19.5025 C   0  0  0  0  0  0
  -23.6837  -29.7665   20.1564 C   0  0  0  0  0  0
  -25.4107  -36.3017   24.0313 C   0  0  1  0  0  0
  -20.5934  -28.3733   23.1223 C   0  0  2  0  0  0
  -20.6785  -26.9424   22.5409 C   0  0  0  0  0  0
  -19.5754  -26.6372   21.5214 C   0  0  0  0  0  0
  -18.1941  -26.7927   22.1626 C   0  0  0  0  0  0
  -19.1571  -28.8873   23.2846 C   0  0  0  0  0  0
  -18.9486  -30.1474   23.8860 C   0  0  0  0  0  0
  -17.6481  -30.6588   24.0556 C   0  0  0  0  0  0
  -25.9068  -34.9395   23.5045 C   0  0  0  0  0  0
  -16.5374  -29.9082   23.6334 C   0  0  0  0  0  0
  -16.7294  -28.6505   23.0347 C   0  0  0  0  0  0
  -26.4528  -31.6551   25.0702 C   0  0  0  0  0  0
  -25.3702  -31.3762   26.1397 C   0  0  0  0  0  0
  -27.0381  -30.2935   24.6290 C   0  0  0  0  0  0
  -27.6039  -32.4338   25.7494 C   0  0  0  0  0  0
  -27.5557  -37.1778   24.8462 C   0  0  0  0  0  0
  -21.4270  -29.3065   22.3606 N   0  0  0  0  0  0
  -26.4262  -37.3736   23.9420 N   0  0  0  0  0  0
  -24.7244  -31.0203   22.0885 N   0  0  0  0  0  0
  -23.4191  -28.8079   23.3053 O   0  0  0  0  0  0
  -28.3120  -26.1388   20.1047 O   0  0  0  0  0  0
  -26.5662  -34.8909   22.4631 O   0  0  0  0  0  0
  -23.5591  -32.1281   23.7034 O   0  0  0  0  0  0
  -28.8789  -21.8854   20.6620 C   0  0  0  0  0  0
  -28.2648  -20.5315   20.4527 C   0  0  0  0  0  0
  -26.9106  -20.8251   20.0971 C   0  0  0  0  0  0
  -28.2532  -23.1904   20.2183 C   0  0  0  0  0  0
  -26.5847  -21.9136   19.2570 C   0  0  0  0  0  0
  -25.0815  -21.5819   21.7711 C   0  0  0  0  0  0
  -27.3799  -18.0037   20.4893 C   0  0  0  0  0  0
  -25.4593  -20.5903   17.4248 C   0  0  0  0  0  0
  -25.0944  -23.0735   17.4978 C   0  0  0  0  0  0
  -25.7732  -20.4074   21.0460 C   0  0  0  0  0  0
  -28.4236  -24.7392   20.8157 C   0  0  0  0  0  0
  -29.8578  -17.7752   20.3795 C   0  0  0  0  0  0
  -28.6263  -18.8851   20.8349 C   0  0  1  0  0  0
  -25.3516  -21.8188   18.3469 C   0  0  0  0  0  0
  -27.2288  -23.0967   19.3474 N   0  0  0  0  0  0
  -29.7437  -16.1800   20.6302 N   0  0  0  0  0  0
  -31.4803  -12.7927   19.1916 H   0  0  0  0  0  0
  -30.4598  -11.6786   20.0485 H   0  0  0  0  0  0
  -29.8564  -11.7333   17.6098 H   0  0  0  0  0  0
  -29.6162  -13.4578   17.6809 H   0  0  0  0  0  0
  -27.9665  -11.2826   18.9980 H   0  0  0  0  0  0
  -27.4023  -12.4435   17.8243 H   0  0  0  0  0  0
  -27.5923  -14.2569   19.4112 H   0  0  0  0  0  0
  -28.7812  -12.3190   21.4545 H   0  0  0  0  0  0
  -28.3726  -13.9920   21.7629 H   0  0  0  0  0  0
  -25.2795   -9.5670   22.4738 H   0  0  0  0  0  0
  -24.0009   -7.4637   22.7465 H   0  0  0  0  0  0
  -21.0873   -8.8780   19.8945 H   0  0  0  0  0  0
  -22.3731  -10.9670   19.6150 H   0  0  0  0  0  0
  -21.1984   -7.6124   23.9702 H   0  0  0  0  0  0
  -21.1495   -6.0485   25.9070 H   0  0  0  0  0  0
  -22.0618   -2.7590   23.2807 H   0  0  0  0  0  0
  -22.4029  -11.9918   22.4899 H   0  0  0  0  0  0
  -21.1024  -13.1230   22.2546 H   0  0  0  0  0  0
  -24.6300  -15.8368   20.5168 H   0  0  0  0  0  0
  -26.2239  -15.6250   20.0096 H   0  0  0  0  0  0
  -26.7282  -32.5265   23.0975 H   0  0  0  0  0  0
  -25.0078  -33.9573   25.0297 H   0  0  0  0  0  0
  -22.7596  -31.2793   21.3648 H   0  0  0  0  0  0
  -23.3743  -35.9586   23.3287 H   0  0  0  0  0  0
  -24.3572  -36.8901   22.2061 H   0  0  0  0  0  0
  -23.7229  -37.6438   23.6699 H   0  0  0  0  0  0
  -26.1566  -31.4400   20.5960 H   0  0  0  0  0  0
  -26.8835  -30.7673   22.0190 H   0  0  0  0  0  0
  -28.1528  -28.7870   21.2171 H   0  0  0  0  0  0
  -25.9629  -25.7903   19.0472 H   0  0  0  0  0  0
  -23.9968  -27.2553   18.9972 H   0  0  0  0  0  0
  -23.8267  -30.5312   19.3917 H   0  0  0  0  0  0
  -22.7986  -29.2091   19.8487 H   0  0  0  0  0  0
  -25.1300  -36.1833   25.0802 H   0  0  0  0  0  0
  -21.0022  -28.3327   24.1343 H   0  0  0  0  0  0
  -20.5645  -26.2356   23.3647 H   0  0  0  0  0  0
  -21.6648  -26.7394   22.1219 H   0  0  0  0  0  0
  -19.6910  -25.6276   21.1259 H   0  0  0  0  0  0
  -19.6678  -27.3169   20.6727 H   0  0  0  0  0  0
  -17.4207  -26.6686   21.4033 H   0  0  0  0  0  0
  -18.0331  -26.0077   22.9022 H   0  0  0  0  0  0
  -19.7964  -30.7309   24.2200 H   0  0  0  0  0  0
  -17.5030  -31.6255   24.5174 H   0  0  0  0  0  0
  -15.5369  -30.2959   23.7669 H   0  0  0  0  0  0
  -15.8705  -28.0803   22.7061 H   0  0  0  0  0  0
  -24.5902  -30.7071   25.7742 H   0  0  0  0  0  0
  -24.8872  -32.2952   26.4728 H   0  0  0  0  0  0
  -25.7992  -30.9019   27.0229 H   0  0  0  0  0  0
  -26.2996  -29.6665   24.1272 H   0  0  0  0  0  0
  -27.3947  -29.7228   25.4875 H   0  0  0  0  0  0
  -27.8931  -30.4155   23.9633 H   0  0  0  0  0  0
  -27.2606  -33.3666   26.1981 H   0  0  0  0  0  0
  -28.3899  -32.6843   25.0358 H   0  0  0  0  0  0
  -28.0649  -31.8518   26.5483 H   0  0  0  0  0  0
  -28.2566  -38.0081   24.7506 H   0  0  0  0  0  0
  -28.1057  -36.2608   24.6290 H   0  0  0  0  0  0
  -27.2286  -37.1430   25.8868 H   0  0  0  0  0  0
  -20.9504  -29.8783   21.6787 H   0  0  0  0  0  0
  -26.0120  -38.2800   24.1433 H   0  0  0  0  0  0
  -29.7745  -21.9414   21.2658 H   0  0  0  0  0  0
  -24.2822  -21.2175   22.4167 H   0  0  0  0  0  0
  -24.6441  -22.3182   21.0986 H   0  0  0  0  0  0
  -25.7891  -22.1112   22.4113 H   0  0  0  0  0  0
  -26.9482  -18.2800   19.5287 H   0  0  0  0  0  0
  -26.6097  -18.0127   21.2513 H   0  0  0  0  0  0
  -27.5512  -16.9401   20.4051 H   0  0  0  0  0  0
  -25.5012  -19.6628   17.9943 H   0  0  0  0  0  0
  -26.3603  -20.6398   16.8151 H   0  0  0  0  0  0
  -24.6036  -20.5158   16.7541 H   0  0  0  0  0  0
  -24.9126  -23.9429   18.1286 H   0  0  0  0  0  0
  -24.2182  -22.9408   16.8629 H   0  0  0  0  0  0
  -25.9454  -23.2905   16.8514 H   0  0  0  0  0  0
  -26.1774  -19.8548   21.8891 H   0  0  0  0  0  0
  -25.0466  -19.7798   20.5272 H   0  0  0  0  0  0
  -29.4153  -24.7443   21.2666 H   0  0  0  0  0  0
  -27.7371  -24.7907   21.6614 H   0  0  0  0  0  0
  -29.9860  -17.8801   19.3012 H   0  0  0  0  0  0
  -30.8064  -18.1110   20.8002 H   0  0  0  0  0  0
  -28.6986  -18.9053   21.9221 H   0  0  0  0  0  0
  -24.4729  -21.6743   18.9759 H   0  0  0  0  0  0
  -28.8090  -15.9204   20.9104 H   0  0  0  0  0  0
  1 25  1  0  0  0
  1 30  2  0  0  0
  1 86  1  0  0  0
  2  3  1  0  0  0
  2 25  1  0  0  0
  2 87  1  0  0  0
  2 88  1  0  0  0
  3  4  1  0  0  0
  3 89  1  0  0  0
  3 90  1  0  0  0
  4  5  1  0  0  0
  4 91  1  0  0  0
  4 92  1  0  0  0
  5  6  1  0  0  0
  5 26  1  0  0  0
  5 93  1  0  0  0
  6 25  1  0  0  0
  6 94  1  0  0  0
  6 95  1  0  0  0
  7  8  2  0  0  0
  7 26  1  0  0  0
  7 29  1  0  0  0
  8  9  1  0  0  0
  8 22  1  0  0  0
  9 10  1  0  0  0
  9 27  2  0  0  0
 10 11  2  0  0  0
 10 15  1  0  0  0
 11 12  1  0  0  0
 11 96  1  0  0  0
 12 13  2  0  0  0
 12 97  1  0  0  0
 13 14  1  0  0  0
 13 31  1  0  0  0
 14 15  2  0  0  0
 14 98  1  0  0  0
 15 99  1  0  0  0
 16 17  2  0  0  0
 16 21  1  0  0  0
 16 31  1  0  0  0
 17 18  1  0  0  0
 17100  1  0  0  0
 18 19  2  0  0  0
 18101  1  0  0  0
 19 20  1  0  0  0
 19 24  1  0  0  0
 20 21  2  0  0  0
 20102  1  0  0  0
 21 23  1  0  0  0
 22 28  1  0  0  0
 22 32  2  0  0  0
 26 27  1  0  0  0
 28103  1  0  0  0
 28104  1  0  0  0
 29105  1  0  0  0
 29106  1  0  0  0
 33 34  1  0  0  0
 33 66  1  0  0  0
 33 70  2  0  0  0
 34 36  1  0  0  0
 34 59  1  0  0  0
 34107  1  0  0  0
 35 44  2  0  0  0
 35 45  1  0  0  0
 35 68  1  0  0  0
 36 56  1  0  0  0
 36108  1  0  0  0
 37 39  1  0  0  0
 37 47  1  0  0  0
 37 66  1  0  0  0
 37109  1  0  0  0
 38 43  2  0  0  0
 38 46  1  0  0  0
 38 47  1  0  0  0
 39 64  1  0  0  0
 39 67  2  0  0  0
 40 52  1  0  0  0
 40 53  2  0  0  0
 40 58  1  0  0  0
 41110  1  0  0  0
 41111  1  0  0  0
 41112  1  0  0  0
 41 48  1  0  0  0
 42 43  1  0  0  0
 42 66  1  0  0  0
 42113  1  0  0  0
 42114  1  0  0  0
 43 44  1  0  0  0
 44115  1  0  0  0
 45 46  2  0  0  0
 45116  1  0  0  0
 46117  1  0  0  0
 47118  1  0  0  0
 47119  1  0  0  0
 48 56  1  0  0  0
 48 65  1  0  0  0
 48120  1  0  0  0
 49 50  1  0  0  0
 49 53  1  0  0  0
 49 64  1  0  0  0
 49121  1  0  0  0
 50 51  1  0  0  0
 50122  1  0  0  0
 50123  1  0  0  0
 51 52  1  0  0  0
 51124  1  0  0  0
 51125  1  0  0  0
 52126  1  0  0  0
 52127  1  0  0  0
 53 54  1  0  0  0
 54 55  2  0  0  0
 54128  1  0  0  0
 55 57  1  0  0  0
 55129  1  0  0  0
 56 69  2  0  0  0
 57 58  2  0  0  0
 57130  1  0  0  0
 58131  1  0  0  0
 59 60  1  0  0  0
 59 61  1  0  0  0
 59 62  1  0  0  0
 60132  1  0  0  0
 60133  1  0  0  0
 60134  1  0  0  0
 61135  1  0  0  0
 61136  1  0  0  0
 61137  1  0  0  0
 62138  1  0  0  0
 62139  1  0  0  0
 62140  1  0  0  0
 63 65  1  0  0  0
 63141  1  0  0  0
 63142  1  0  0  0
 63143  1  0  0  0
 64144  1  0  0  0
 65145  1  0  0  0
 68 81  1  0  0  0
 71 72  2  0  0  0
 71 74  1  0  0  0
 71146  1  0  0  0
 72 73  1  0  0  0
 72 83  1  0  0  0
 73 75  2  0  0  0
 73 80  1  0  0  0
 74 81  1  0  0  0
 74 85  2  0  0  0
 75 84  1  0  0  0
 75 85  1  0  0  0
 76 80  1  0  0  0
 76147  1  0  0  0
 76148  1  0  0  0
 76149  1  0  0  0
 77150  1  0  0  0
 77151  1  0  0  0
 77152  1  0  0  0
 77 83  1  0  0  0
 78153  1  0  0  0
 78154  1  0  0  0
 78155  1  0  0  0
 78 84  1  0  0  0
 79 84  1  0  0  0
 79156  1  0  0  0
 79157  1  0  0  0
 79158  1  0  0  0
 80159  1  0  0  0
 80160  1  0  0  0
 81161  1  0  0  0
 81162  1  0  0  0
 82 83  1  0  0  0
 82 86  1  0  0  0
 82163  1  0  0  0
 82164  1  0  0  0
 83165  1  0  0  0
 84166  1  0  0  0
 86167  1  0  0  0
M  ISO  4   1 100  68 101  81 101  86 100
M  END
> <chiral flag>
0

> <version>
0

> <s_m_source_file>
/data/baiqing/PycharmProjects/Reinvent-master-3.2/result/LINK_invent/BTK/process_docking_weight1_custom_sum_contain_oxygen_bond_distance_aromatic_linkinvent_7_9_3/rearranged_h_0086.sdf

> <i_m_source_file_index>
54

> <r_mmod_Potential_Energy-OPLS-2005>
776.195434570312

> <r_mmod_Stretch_Energy-OPLS-2005>
353.158996582031

> <r_mmod_Bend_Energy-OPLS-2005>
377.627288818359

> <r_mmod_Torsional_Energy-OPLS-2005>
407.580902099609

> <r_mmod_Improper_Torsional_Energy-OPLS-2005>
15.6896381378174

> <r_mmod_Van_der_Waal_Energy-OPLS-2005>
158.629730224609

> <r_mmod_Electrostatic_Energy-OPLS-2005>
-537.232849121094

> <r_mmod_Solvation_Energy-OPLS-2005>
-219.755950927734

> <b_mmod_Minimization_Converged-OPLS-2005>
0

> <r_mmod_RMS_Derivative-OPLS-2005>
3.19846796989441

$$$$
55
                    3D
 Structure written by MMmdl.
164172  0  0  1  0            999 V2000
  -30.5944  -14.7148   20.4612 C   0  0  0  0  0  0
  -30.4345  -12.4300   19.4637 C   0  0  0  0  0  0
  -29.5113  -12.4943   18.2268 C   0  0  0  0  0  0
  -28.0347  -12.3279   18.6412 C   0  0  0  0  0  0
  -27.6429  -13.2229   19.8486 C   0  0  2  0  0  0
  -28.6862  -13.1311   20.9824 C   0  0  0  0  0  0
  -25.2511  -13.8159   20.5665 C   0  0  0  0  0  0
  -24.1808  -13.0427   20.9193 C   0  0  0  0  0  0
  -24.6387  -11.6905   20.8745 C   0  0  0  0  0  0
  -23.9064  -10.4286   21.0407 C   0  0  0  0  0  0
  -24.3610   -9.4215   21.9191 C   0  0  0  0  0  0
  -23.6289   -8.2250   22.0773 C   0  0  0  0  0  0
  -22.4278   -8.0279   21.3548 C   0  0  0  0  0  0
  -21.9906   -9.0257   20.4658 C   0  0  0  0  0  0
  -22.7235  -10.2130   20.3061 C   0  0  0  0  0  0
  -21.6856   -6.0732   22.5287 C   0  0  0  0  0  0
  -21.4019   -6.5643   23.8218 C   0  0  0  0  0  0
  -21.3652   -5.6796   24.9187 C   0  0  0  0  0  0
  -21.6036   -4.3057   24.7234 C   0  0  0  0  0  0
  -21.8818   -3.8143   23.4361 C   0  0  0  0  0  0
  -21.9192   -4.6957   22.3414 C   0  0  0  0  0  0
  -22.7826  -13.5228   21.1856 C   0  0  0  0  0  0
  -22.1660   -4.2142   21.0988 F   0  0  0  0  0  0
  -21.5622   -3.4544   25.7746 F   0  0  0  0  0  0
  -29.9890  -13.4824   20.4034 N   0  0  0  0  0  0
  -26.2944  -12.9360   20.3245 N   0  0  0  0  0  0
  -25.9307  -11.6512   20.5725 N   0  0  0  0  0  0
  -22.0458  -12.8235   22.0401 N   0  0  0  0  0  0
  -25.4148  -15.1892   20.4087 N   0  0  0  0  0  0
  -31.7842  -14.8393   20.1617 O   0  0  0  0  0  0
  -21.6643   -6.8876   21.4251 O   0  0  0  0  0  0
  -22.3537  -14.5553   20.6723 O   0  0  0  0  0  0
  -24.6246  -31.8548   23.1986 C   0  0  0  0  0  0
  -25.9088  -32.4741   23.8332 C   0  0  1  0  0  0
  -27.2276  -27.2744   20.1213 C   0  0  0  0  0  0
  -25.5882  -33.8547   24.2261 N   0  0  0  0  0  0
  -23.4235  -30.4746   21.5395 C   0  0  2  0  0  0
  -24.8735  -28.9150   20.1073 C   0  0  0  0  0  0
  -22.7480  -29.4602   22.4914 C   0  0  0  0  0  0
  -18.0283  -28.1375   22.8472 C   0  0  0  0  0  0
  -24.1477  -36.7295   23.2644 C   0  0  0  0  0  0
  -25.9653  -30.7642   21.3821 C   0  0  0  0  0  0
  -26.0380  -29.3880   20.7253 C   0  0  0  0  0  0
  -27.2107  -28.5738   20.7271 C   0  0  0  0  0  0
  -26.0446  -26.8584   19.4755 C   0  0  0  0  0  0
  -24.8811  -27.6583   19.4730 C   0  0  0  0  0  0
  -23.6412  -29.7991   20.1584 C   0  0  0  0  0  0
  -25.4104  -36.3073   24.0323 C   0  0  1  0  0  0
  -20.5884  -28.3694   23.1260 C   0  0  2  0  0  0
  -20.6781  -26.9422   22.5401 C   0  0  0  0  0  0
  -19.5762  -26.6376   21.5193 C   0  0  0  0  0  0
  -18.1937  -26.7921   22.1598 C   0  0  0  0  0  0
  -19.1538  -28.8848   23.2861 C   0  0  0  0  0  0
  -18.9472  -30.1442   23.8898 C   0  0  0  0  0  0
  -17.6479  -30.6598   24.0537 C   0  0  0  0  0  0
  -25.9029  -34.9437   23.5102 C   0  0  0  0  0  0
  -16.5362  -29.9089   23.6330 C   0  0  0  0  0  0
  -16.7274  -28.6489   23.0366 C   0  0  0  0  0  0
  -26.4493  -31.6571   25.0712 C   0  0  0  0  0  0
  -25.3710  -31.3680   26.1414 C   0  0  0  0  0  0
  -27.0381  -30.2999   24.6204 C   0  0  0  0  0  0
  -27.6058  -32.4338   25.7464 C   0  0  0  0  0  0
  -27.5594  -37.1794   24.8461 C   0  0  0  0  0  0
  -21.4192  -29.3038   22.3645 N   0  0  0  0  0  0
  -26.4301  -37.3759   23.9405 N   0  0  0  0  0  0
  -24.6901  -31.0490   22.0974 N   0  0  0  0  0  0
  -23.4185  -28.8155   23.3027 O   0  0  0  0  0  0
  -28.3467  -26.4276   20.2343 O   0  0  0  0  0  0
  -26.5631  -34.8912   22.4690 O   0  0  0  0  0  0
  -23.5397  -32.1399   23.7271 O   0  0  0  0  0  0
  -29.3116  -22.6053   21.7160 C   0  0  0  0  0  0
  -28.5945  -21.0841   19.9947 C   0  0  0  0  0  0
  -28.6468  -22.4486   20.4901 C   0  0  0  0  0  0
  -29.8130  -21.4802   22.3996 C   0  0  0  0  0  0
  -29.1582  -19.9638   20.7299 C   0  0  0  0  0  0
  -31.7224  -21.0171   24.0208 C   0  0  0  0  0  0
  -29.3036  -21.1174   24.8381 C   0  0  0  0  0  0
  -28.2629  -18.1900   19.0604 C   0  0  0  0  0  0
  -27.8498  -23.6927   19.8995 C   0  0  0  0  0  0
  -30.1227  -17.3159   20.6293 C   0  0  0  0  0  0
  -28.5301  -25.1169   19.5378 C   0  0  0  0  0  0
  -30.3315  -21.6392   23.8232 C   0  0  0  0  0  0
  -28.9285  -18.4020   20.4307 C   0  0  1  0  0  0
  -29.7305  -20.2115   21.9276 N   0  0  0  0  0  0
  -29.7836  -15.8215   20.6500 N   0  0  0  0  0  0
  -31.4764  -12.5547   19.1658 H   0  0  0  0  0  0
  -30.3714  -11.4474   19.9353 H   0  0  0  0  0  0
  -29.7863  -11.7164   17.5126 H   0  0  0  0  0  0
  -29.6486  -13.4431   17.7068 H   0  0  0  0  0  0
  -27.8927  -11.2787   18.9029 H   0  0  0  0  0  0
  -27.3776  -12.5169   17.7925 H   0  0  0  0  0  0
  -27.6441  -14.2484   19.4786 H   0  0  0  0  0  0
  -28.7105  -12.1247   21.4058 H   0  0  0  0  0  0
  -28.4285  -13.7984   21.8055 H   0  0  0  0  0  0
  -25.2753   -9.5694   22.4776 H   0  0  0  0  0  0
  -23.9989   -7.4650   22.7508 H   0  0  0  0  0  0
  -21.0832   -8.8779   19.8978 H   0  0  0  0  0  0
  -22.3690  -10.9672   19.6176 H   0  0  0  0  0  0
  -21.2026   -7.6156   23.9724 H   0  0  0  0  0  0
  -21.1463   -6.0528   25.9081 H   0  0  0  0  0  0
  -22.0596   -2.7609   23.2871 H   0  0  0  0  0  0
  -22.4059  -11.9893   22.4820 H   0  0  0  0  0  0
  -21.1076  -13.1276   22.2581 H   0  0  0  0  0  0
  -24.6365  -15.8286   20.5197 H   0  0  0  0  0  0
  -26.2490  -15.6418   20.0600 H   0  0  0  0  0  0
  -26.7143  -32.5393   23.1057 H   0  0  0  0  0  0
  -24.9938  -33.9661   25.0344 H   0  0  0  0  0  0
  -22.7193  -31.2963   21.3917 H   0  0  0  0  0  0
  -23.3736  -35.9635   23.3306 H   0  0  0  0  0  0
  -24.3537  -36.8935   22.2060 H   0  0  0  0  0  0
  -23.7258  -37.6497   23.6681 H   0  0  0  0  0  0
  -26.0999  -31.5226   20.6108 H   0  0  0  0  0  0
  -26.8432  -30.8161   22.0146 H   0  0  0  0  0  0
  -28.1008  -28.9196   21.2328 H   0  0  0  0  0  0
  -25.9981  -25.8901   18.9989 H   0  0  0  0  0  0
  -23.9872  -27.2935   18.9870 H   0  0  0  0  0  0
  -23.7657  -30.5710   19.3986 H   0  0  0  0  0  0
  -22.7585  -29.2267   19.8602 H   0  0  0  0  0  0
  -25.1294  -36.1927   25.0822 H   0  0  0  0  0  0
  -20.9978  -28.3303   24.1368 H   0  0  0  0  0  0
  -20.5684  -26.2318   23.3608 H   0  0  0  0  0  0
  -21.6654  -26.7446   22.1207 H   0  0  0  0  0  0
  -19.6927  -25.6276   21.1245 H   0  0  0  0  0  0
  -19.6709  -27.3154   20.6708 H   0  0  0  0  0  0
  -17.4223  -26.6663   21.3995 H   0  0  0  0  0  0
  -18.0346  -26.0045   22.8981 H   0  0  0  0  0  0
  -19.7948  -30.7223   24.2319 H   0  0  0  0  0  0
  -17.5039  -31.6287   24.5122 H   0  0  0  0  0  0
  -15.5354  -30.2985   23.7677 H   0  0  0  0  0  0
  -15.8667  -28.0796   22.7121 H   0  0  0  0  0  0
  -24.5894  -30.7029   25.7708 H   0  0  0  0  0  0
  -24.8844  -32.2808   26.4854 H   0  0  0  0  0  0
  -25.8002  -30.8830   27.0185 H   0  0  0  0  0  0
  -26.2983  -29.6654   24.1284 H   0  0  0  0  0  0
  -27.4151  -29.7333   25.4729 H   0  0  0  0  0  0
  -27.8813  -30.4289   23.9414 H   0  0  0  0  0  0
  -27.2712  -33.3672   26.2000 H   0  0  0  0  0  0
  -28.3875  -32.6846   25.0284 H   0  0  0  0  0  0
  -28.0720  -31.8485   26.5386 H   0  0  0  0  0  0
  -28.2601  -38.0110   24.7537 H   0  0  0  0  0  0
  -28.1137  -36.2637   24.6290 H   0  0  0  0  0  0
  -27.2292  -37.1439   25.8862 H   0  0  0  0  0  0
  -20.9399  -29.8737   21.6805 H   0  0  0  0  0  0
  -26.0183  -38.2843   24.1398 H   0  0  0  0  0  0
  -29.3525  -23.5838   22.1776 H   0  0  0  0  0  0
  -28.0505  -20.8899   19.0815 H   0  0  0  0  0  0
  -32.4532  -21.4736   23.3533 H   0  0  0  0  0  0
  -31.7077  -19.9448   23.8214 H   0  0  0  0  0  0
  -32.0732  -21.1582   25.0432 H   0  0  0  0  0  0
  -28.3488  -21.6298   24.7181 H   0  0  0  0  0  0
  -29.6389  -21.2792   25.8624 H   0  0  0  0  0  0
  -29.1241  -20.0498   24.7062 H   0  0  0  0  0  0
  -27.3177  -18.7305   18.9941 H   0  0  0  0  0  0
  -28.0416  -17.1390   18.8846 H   0  0  0  0  0  0
  -28.9066  -18.5385   18.2524 H   0  0  0  0  0  0
  -26.9981  -23.8685   20.5553 H   0  0  0  0  0  0
  -27.4015  -23.3223   18.9766 H   0  0  0  0  0  0
  -30.6111  -17.5246   21.5820 H   0  0  0  0  0  0
  -30.8868  -17.4880   19.8690 H   0  0  0  0  0  0
  -28.3079  -25.3149   18.4897 H   0  0  0  0  0  0
  -29.6072  -24.9475   19.5426 H   0  0  0  0  0  0
  -30.4418  -22.7080   24.0157 H   0  0  0  0  0  0
  -28.1757  -18.1215   21.1678 H   0  0  0  0  0  0
  -28.8177  -15.6023   20.8347 H   0  0  0  0  0  0
  1 25  1  0  0  0
  1 30  2  0  0  0
  1 85  1  0  0  0
  2  3  1  0  0  0
  2 25  1  0  0  0
  2 86  1  0  0  0
  2 87  1  0  0  0
  3  4  1  0  0  0
  3 88  1  0  0  0
  3 89  1  0  0  0
  4  5  1  0  0  0
  4 90  1  0  0  0
  4 91  1  0  0  0
  5  6  1  0  0  0
  5 26  1  0  0  0
  5 92  1  0  0  0
  6 25  1  0  0  0
  6 93  1  0  0  0
  6 94  1  0  0  0
  7  8  2  0  0  0
  7 26  1  0  0  0
  7 29  1  0  0  0
  8  9  1  0  0  0
  8 22  1  0  0  0
  9 10  1  0  0  0
  9 27  2  0  0  0
 10 11  2  0  0  0
 10 15  1  0  0  0
 11 12  1  0  0  0
 11 95  1  0  0  0
 12 13  2  0  0  0
 12 96  1  0  0  0
 13 14  1  0  0  0
 13 31  1  0  0  0
 14 15  2  0  0  0
 14 97  1  0  0  0
 15 98  1  0  0  0
 16 17  2  0  0  0
 16 21  1  0  0  0
 16 31  1  0  0  0
 17 18  1  0  0  0
 17 99  1  0  0  0
 18 19  2  0  0  0
 18100  1  0  0  0
 19 20  1  0  0  0
 19 24  1  0  0  0
 20 21  2  0  0  0
 20101  1  0  0  0
 21 23  1  0  0  0
 22 28  1  0  0  0
 22 32  2  0  0  0
 26 27  1  0  0  0
 28102  1  0  0  0
 28103  1  0  0  0
 29104  1  0  0  0
 29105  1  0  0  0
 33 34  1  0  0  0
 33 66  1  0  0  0
 33 70  2  0  0  0
 34 36  1  0  0  0
 34 59  1  0  0  0
 34106  1  0  0  0
 35 44  2  0  0  0
 35 45  1  0  0  0
 35 68  1  0  0  0
 36 56  1  0  0  0
 36107  1  0  0  0
 37 39  1  0  0  0
 37 47  1  0  0  0
 37 66  1  0  0  0
 37108  1  0  0  0
 38 43  2  0  0  0
 38 46  1  0  0  0
 38 47  1  0  0  0
 39 64  1  0  0  0
 39 67  2  0  0  0
 40 52  1  0  0  0
 40 53  2  0  0  0
 40 58  1  0  0  0
 41109  1  0  0  0
 41110  1  0  0  0
 41111  1  0  0  0
 41 48  1  0  0  0
 42 43  1  0  0  0
 42 66  1  0  0  0
 42112  1  0  0  0
 42113  1  0  0  0
 43 44  1  0  0  0
 44114  1  0  0  0
 45 46  2  0  0  0
 45115  1  0  0  0
 46116  1  0  0  0
 47117  1  0  0  0
 47118  1  0  0  0
 48 56  1  0  0  0
 48 65  1  0  0  0
 48119  1  0  0  0
 49 50  1  0  0  0
 49 53  1  0  0  0
 49 64  1  0  0  0
 49120  1  0  0  0
 50 51  1  0  0  0
 50121  1  0  0  0
 50122  1  0  0  0
 51 52  1  0  0  0
 51123  1  0  0  0
 51124  1  0  0  0
 52125  1  0  0  0
 52126  1  0  0  0
 53 54  1  0  0  0
 54 55  2  0  0  0
 54127  1  0  0  0
 55 57  1  0  0  0
 55128  1  0  0  0
 56 69  2  0  0  0
 57 58  2  0  0  0
 57129  1  0  0  0
 58130  1  0  0  0
 59 60  1  0  0  0
 59 61  1  0  0  0
 59 62  1  0  0  0
 60131  1  0  0  0
 60132  1  0  0  0
 60133  1  0  0  0
 61134  1  0  0  0
 61135  1  0  0  0
 61136  1  0  0  0
 62137  1  0  0  0
 62138  1  0  0  0
 62139  1  0  0  0
 63 65  1  0  0  0
 63140  1  0  0  0
 63141  1  0  0  0
 63142  1  0  0  0
 64143  1  0  0  0
 65144  1  0  0  0
 68 81  1  0  0  0
 71 73  2  0  0  0
 71 74  1  0  0  0
 71145  1  0  0  0
 72 73  1  0  0  0
 72 75  2  0  0  0
 72146  1  0  0  0
 73 79  1  0  0  0
 74 82  1  0  0  0
 74 84  2  0  0  0
 75 83  1  0  0  0
 75 84  1  0  0  0
 76147  1  0  0  0
 76148  1  0  0  0
 76149  1  0  0  0
 76 82  1  0  0  0
 77 82  1  0  0  0
 77150  1  0  0  0
 77151  1  0  0  0
 77152  1  0  0  0
 78153  1  0  0  0
 78154  1  0  0  0
 78155  1  0  0  0
 78 83  1  0  0  0
 79 81  1  0  0  0
 79156  1  0  0  0
 79157  1  0  0  0
 80 83  1  0  0  0
 80 85  1  0  0  0
 80158  1  0  0  0
 80159  1  0  0  0
 81160  1  0  0  0
 81161  1  0  0  0
 82162  1  0  0  0
 83163  1  0  0  0
 85164  1  0  0  0
M  ISO  4   1 100  68 101  81 101  85 100
M  END
> <chiral flag>
0

> <version>
0

> <s_m_source_file>
/data/baiqing/PycharmProjects/Reinvent-master-3.2/result/LINK_invent/BTK/process_docking_weight1_custom_sum_contain_oxygen_bond_distance_aromatic_linkinvent_7_9_3/rearranged_h_0086.sdf

> <i_m_source_file_index>
55

> <r_mmod_Potential_Energy-OPLS-2005>
-21.3996143341064

> <r_mmod_Stretch_Energy-OPLS-2005>
118.172782897949

> <r_mmod_Bend_Energy-OPLS-2005>
191.181579589844

> <r_mmod_Torsional_Energy-OPLS-2005>
205.660781860352

> <r_mmod_Improper_Torsional_Energy-OPLS-2005>
8.04833889007568

> <r_mmod_Van_der_Waal_Energy-OPLS-2005>
131.702102661133

> <r_mmod_Electrostatic_Energy-OPLS-2005>
-535.615295410156

> <r_mmod_Solvation_Energy-OPLS-2005>
-216.407989501953

> <b_mmod_Minimization_Converged-OPLS-2005>
0

> <r_mmod_RMS_Derivative-OPLS-2005>
3.12426686286926

$$$$
56
                    3D
 Structure written by MMmdl.
172180  0  0  1  0            999 V2000
  -30.5934  -14.7654   20.4562 C   0  0  0  0  0  0
  -30.4340  -12.4713   19.4662 C   0  0  0  0  0  0
  -29.5073  -12.5083   18.2310 C   0  0  0  0  0  0
  -28.0343  -12.3293   18.6487 C   0  0  0  0  0  0
  -27.6383  -13.2319   19.8477 C   0  0  2  0  0  0
  -28.6845  -13.1697   20.9802 C   0  0  0  0  0  0
  -25.2484  -13.8185   20.5676 C   0  0  0  0  0  0
  -24.1788  -13.0431   20.9218 C   0  0  0  0  0  0
  -24.6386  -11.6913   20.8765 C   0  0  0  0  0  0
  -23.9065  -10.4286   21.0417 C   0  0  0  0  0  0
  -24.3615   -9.4200   21.9192 C   0  0  0  0  0  0
  -23.6288   -8.2239   22.0759 C   0  0  0  0  0  0
  -22.4275   -8.0277   21.3544 C   0  0  0  0  0  0
  -21.9908   -9.0252   20.4650 C   0  0  0  0  0  0
  -22.7239  -10.2132   20.3061 C   0  0  0  0  0  0
  -21.6850   -6.0728   22.5276 C   0  0  0  0  0  0
  -21.4012   -6.5634   23.8209 C   0  0  0  0  0  0
  -21.3662   -5.6791   24.9174 C   0  0  0  0  0  0
  -21.6043   -4.3052   24.7227 C   0  0  0  0  0  0
  -21.8819   -3.8141   23.4350 C   0  0  0  0  0  0
  -21.9191   -4.6956   22.3402 C   0  0  0  0  0  0
  -22.7810  -13.5215   21.1875 C   0  0  0  0  0  0
  -22.1659   -4.2139   21.0981 F   0  0  0  0  0  0
  -21.5633   -3.4539   25.7743 F   0  0  0  0  0  0
  -29.9786  -13.5342   20.3916 N   0  0  0  0  0  0
  -26.2914  -12.9398   20.3270 N   0  0  0  0  0  0
  -25.9315  -11.6542   20.5759 N   0  0  0  0  0  0
  -22.0454  -12.8207   22.0434 N   0  0  0  0  0  0
  -25.4138  -15.1900   20.4030 N   0  0  0  0  0  0
  -31.7901  -14.8651   20.1728 O   0  0  0  0  0  0
  -21.6638   -6.8873   21.4239 O   0  0  0  0  0  0
  -22.3494  -14.5520   20.6719 O   0  0  0  0  0  0
  -24.6301  -31.8553   23.1953 C   0  0  0  0  0  0
  -25.9117  -32.4756   23.8319 C   0  0  1  0  0  0
  -27.2168  -27.2545   20.1404 C   0  0  0  0  0  0
  -25.5915  -33.8558   24.2234 N   0  0  0  0  0  0
  -23.4276  -30.4748   21.5401 C   0  0  2  0  0  0
  -24.8751  -28.9127   20.1159 C   0  0  0  0  0  0
  -22.7501  -29.4589   22.4921 C   0  0  0  0  0  0
  -18.0290  -28.1366   22.8479 C   0  0  0  0  0  0
  -24.1490  -36.7280   23.2646 C   0  0  0  0  0  0
  -25.9732  -30.7664   21.3748 C   0  0  0  0  0  0
  -26.0477  -29.3852   20.7217 C   0  0  0  0  0  0
  -27.2260  -28.5703   20.7165 C   0  0  0  0  0  0
  -26.0227  -26.8401   19.5194 C   0  0  0  0  0  0
  -24.8677  -27.6479   19.5037 C   0  0  0  0  0  0
  -23.6467  -29.8032   20.1585 C   0  0  0  0  0  0
  -25.4113  -36.3066   24.0328 C   0  0  1  0  0  0
  -20.5891  -28.3677   23.1265 C   0  0  2  0  0  0
  -20.6771  -26.9397   22.5400 C   0  0  0  0  0  0
  -19.5749  -26.6360   21.5200 C   0  0  0  0  0  0
  -18.1932  -26.7906   22.1617 C   0  0  0  0  0  0
  -19.1548  -28.8839   23.2865 C   0  0  0  0  0  0
  -18.9476  -30.1442   23.8878 C   0  0  0  0  0  0
  -17.6478  -30.6580   24.0546 C   0  0  0  0  0  0
  -25.9059  -34.9444   23.5086 C   0  0  0  0  0  0
  -16.5366  -29.9074   23.6324 C   0  0  0  0  0  0
  -16.7279  -28.6486   23.0352 C   0  0  0  0  0  0
  -26.4474  -31.6593   25.0718 C   0  0  0  0  0  0
  -25.3682  -31.3764   26.1435 C   0  0  0  0  0  0
  -27.0326  -30.3015   24.6202 C   0  0  0  0  0  0
  -27.6017  -32.4351   25.7491 C   0  0  0  0  0  0
  -27.5580  -37.1787   24.8461 C   0  0  0  0  0  0
  -21.4208  -29.3031   22.3671 N   0  0  0  0  0  0
  -26.4283  -37.3768   23.9419 N   0  0  0  0  0  0
  -24.6962  -31.0505   22.0934 N   0  0  0  0  0  0
  -23.4201  -28.8143   23.3030 O   0  0  0  0  0  0
  -28.3076  -26.3599   20.1234 O   0  0  0  0  0  0
  -26.5650  -34.8923   22.4671 O   0  0  0  0  0  0
  -23.5442  -32.1374   23.7242 O   0  0  0  0  0  0
  -30.0610  -23.3711   18.9062 C   0  0  0  0  0  0
  -29.2639  -22.7443   19.8279 C   0  0  0  0  0  0
  -30.9404  -21.3597   19.1964 C   0  0  0  0  0  0
  -27.3492  -22.7093   21.5102 C   0  0  0  0  0  0
  -33.2365  -20.7279   19.9777 C   0  0  0  0  0  0
  -32.4494  -20.0216   17.6677 C   0  0  0  0  0  0
  -29.0454  -18.5517   18.7726 C   0  0  0  0  0  0
  -27.8282  -18.2474   20.8954 C   0  0  0  0  0  0
  -29.5268  -20.1412   20.8404 C   0  0  0  0  0  0
  -30.2111  -17.3783   20.7607 C   0  0  0  0  0  0
  -28.2291  -25.0898   20.9221 C   0  0  0  0  0  0
  -28.0462  -23.5357   20.4189 C   0  0  1  0  0  0
  -32.0299  -20.3226   19.1185 C   0  0  0  0  0  0
  -29.2094  -18.6010   20.3044 C   0  0  0  0  0  0
  -29.8085  -21.3958   19.9496 N   0  0  0  0  0  0
  -31.0536  -22.5207   18.5559 N   0  3  0  0  0  0
  -29.8079  -15.8988   20.6426 N   0  0  0  0  0  0
  -31.4726  -12.6078   19.1593 H   0  0  0  0  0  0
  -30.3911  -11.4963   19.9540 H   0  0  0  0  0  0
  -29.7913  -11.7298   17.5215 H   0  0  0  0  0  0
  -29.6276  -13.4587   17.7082 H   0  0  0  0  0  0
  -27.8963  -11.2811   18.9173 H   0  0  0  0  0  0
  -27.3738  -12.5144   17.8010 H   0  0  0  0  0  0
  -27.6306  -14.2527   19.4651 H   0  0  0  0  0  0
  -28.7288  -12.1700   21.4151 H   0  0  0  0  0  0
  -28.4189  -13.8465   21.7942 H   0  0  0  0  0  0
  -25.2759   -9.5675   22.4769 H   0  0  0  0  0  0
  -23.9993   -7.4628   22.7482 H   0  0  0  0  0  0
  -21.0838   -8.8771   19.8958 H   0  0  0  0  0  0
  -22.3693  -10.9672   19.6173 H   0  0  0  0  0  0
  -21.2003   -7.6142   23.9707 H   0  0  0  0  0  0
  -21.1486   -6.0524   25.9077 H   0  0  0  0  0  0
  -22.0596   -2.7603   23.2854 H   0  0  0  0  0  0
  -22.4069  -11.9869   22.4820 H   0  0  0  0  0  0
  -21.1075  -13.1236   22.2648 H   0  0  0  0  0  0
  -24.6378  -15.8360   20.5001 H   0  0  0  0  0  0
  -26.2398  -15.6223   20.0125 H   0  0  0  0  0  0
  -26.7190  -32.5404   23.1069 H   0  0  0  0  0  0
  -24.9992  -33.9685   25.0333 H   0  0  0  0  0  0
  -22.7232  -31.2961   21.3913 H   0  0  0  0  0  0
  -23.3753  -35.9613   23.3297 H   0  0  0  0  0  0
  -24.3575  -36.8915   22.2063 H   0  0  0  0  0  0
  -23.7244  -37.6476   23.6683 H   0  0  0  0  0  0
  -26.1080  -31.5244   20.6023 H   0  0  0  0  0  0
  -26.8512  -30.8188   22.0071 H   0  0  0  0  0  0
  -28.1311  -28.9315   21.1862 H   0  0  0  0  0  0
  -25.9804  -25.8660   19.0530 H   0  0  0  0  0  0
  -23.9682  -27.2787   19.0290 H   0  0  0  0  0  0
  -23.7722  -30.5777   19.4006 H   0  0  0  0  0  0
  -22.7637  -29.2368   19.8561 H   0  0  0  0  0  0
  -25.1292  -36.1902   25.0816 H   0  0  0  0  0  0
  -20.9976  -28.3259   24.1387 H   0  0  0  0  0  0
  -20.5651  -26.2301   23.3609 H   0  0  0  0  0  0
  -21.6647  -26.7401   22.1218 H   0  0  0  0  0  0
  -19.6917  -25.6263   21.1247 H   0  0  0  0  0  0
  -19.6693  -27.3160   20.6722 H   0  0  0  0  0  0
  -17.4197  -26.6644   21.4024 H   0  0  0  0  0  0
  -18.0342  -26.0048   22.9015 H   0  0  0  0  0  0
  -19.7967  -30.7244   24.2253 H   0  0  0  0  0  0
  -17.5047  -31.6268   24.5142 H   0  0  0  0  0  0
  -15.5369  -30.2973   23.7662 H   0  0  0  0  0  0
  -15.8676  -28.0802   22.7074 H   0  0  0  0  0  0
  -24.5835  -30.7133   25.7771 H   0  0  0  0  0  0
  -24.8883  -32.2940   26.4848 H   0  0  0  0  0  0
  -25.7965  -30.8945   27.0230 H   0  0  0  0  0  0
  -26.2913  -29.6768   24.1199 H   0  0  0  0  0  0
  -27.3988  -29.7270   25.4721 H   0  0  0  0  0  0
  -27.8797  -30.4302   23.9460 H   0  0  0  0  0  0
  -27.2610  -33.3660   26.2036 H   0  0  0  0  0  0
  -28.3831  -32.6903   25.0321 H   0  0  0  0  0  0
  -28.0680  -31.8503   26.5424 H   0  0  0  0  0  0
  -28.2571  -38.0115   24.7531 H   0  0  0  0  0  0
  -28.1100  -36.2635   24.6246 H   0  0  0  0  0  0
  -27.2302  -37.1390   25.8868 H   0  0  0  0  0  0
  -20.9396  -29.8768   21.6886 H   0  0  0  0  0  0
  -26.0154  -38.2835   24.1439 H   0  0  0  0  0  0
  -30.0025  -24.3725   18.5019 H   0  0  0  0  0  0
  -27.0140  -21.7492   21.1171 H   0  0  0  0  0  0
  -26.4574  -23.2128   21.8829 H   0  0  0  0  0  0
  -28.0063  -22.5331   22.3625 H   0  0  0  0  0  0
  -32.9432  -20.8930   21.0154 H   0  0  0  0  0  0
  -33.6996  -21.6457   19.6145 H   0  0  0  0  0  0
  -33.9980  -19.9481   19.9744 H   0  0  0  0  0  0
  -31.5954  -19.7299   17.0561 H   0  0  0  0  0  0
  -33.1678  -19.2025   17.6308 H   0  0  0  0  0  0
  -32.9136  -20.8839   17.1890 H   0  0  0  0  0  0
  -28.4106  -19.3605   18.4086 H   0  0  0  0  0  0
  -28.5864  -17.6146   18.4548 H   0  0  0  0  0  0
  -29.9951  -18.6124   18.2490 H   0  0  0  0  0  0
  -27.0779  -18.9939   20.6296 H   0  0  0  0  0  0
  -27.8636  -18.1955   21.9840 H   0  0  0  0  0  0
  -27.4603  -17.2880   20.5360 H   0  0  0  0  0  0
  -30.3950  -20.0681   21.4963 H   0  0  0  0  0  0
  -28.7489  -20.4391   21.5370 H   0  0  0  0  0  0
  -30.4488  -17.5281   21.8145 H   0  0  0  0  0  0
  -31.1670  -17.4772   20.2495 H   0  0  0  0  0  0
  -29.1039  -25.1054   21.5719 H   0  0  0  0  0  0
  -27.4045  -25.2727   21.6140 H   0  0  0  0  0  0
  -27.3217  -23.5924   19.6060 H   0  0  0  0  0  0
  -31.6364  -19.4111   19.5399 H   0  0  0  0  0  0
  -31.8111  -22.7567   17.9266 H   0  0  0  0  0  0
  -28.8286  -15.7093   20.7873 H   0  0  0  0  0  0
  1 25  1  0  0  0
  1 30  2  0  0  0
  1 87  1  0  0  0
  2  3  1  0  0  0
  2 25  1  0  0  0
  2 88  1  0  0  0
  2 89  1  0  0  0
  3  4  1  0  0  0
  3 90  1  0  0  0
  3 91  1  0  0  0
  4  5  1  0  0  0
  4 92  1  0  0  0
  4 93  1  0  0  0
  5  6  1  0  0  0
  5 26  1  0  0  0
  5 94  1  0  0  0
  6 25  1  0  0  0
  6 95  1  0  0  0
  6 96  1  0  0  0
  7  8  2  0  0  0
  7 26  1  0  0  0
  7 29  1  0  0  0
  8  9  1  0  0  0
  8 22  1  0  0  0
  9 10  1  0  0  0
  9 27  2  0  0  0
 10 11  2  0  0  0
 10 15  1  0  0  0
 11 12  1  0  0  0
 11 97  1  0  0  0
 12 13  2  0  0  0
 12 98  1  0  0  0
 13 14  1  0  0  0
 13 31  1  0  0  0
 14 15  2  0  0  0
 14 99  1  0  0  0
 15100  1  0  0  0
 16 17  2  0  0  0
 16 21  1  0  0  0
 16 31  1  0  0  0
 17 18  1  0  0  0
 17101  1  0  0  0
 18 19  2  0  0  0
 18102  1  0  0  0
 19 20  1  0  0  0
 19 24  1  0  0  0
 20 21  2  0  0  0
 20103  1  0  0  0
 21 23  1  0  0  0
 22 28  1  0  0  0
 22 32  2  0  0  0
 26 27  1  0  0  0
 28104  1  0  0  0
 28105  1  0  0  0
 29106  1  0  0  0
 29107  1  0  0  0
 33 34  1  0  0  0
 33 66  1  0  0  0
 33 70  2  0  0  0
 34 36  1  0  0  0
 34 59  1  0  0  0
 34108  1  0  0  0
 35 44  2  0  0  0
 35 45  1  0  0  0
 35 68  1  0  0  0
 36 56  1  0  0  0
 36109  1  0  0  0
 37 39  1  0  0  0
 37 47  1  0  0  0
 37 66  1  0  0  0
 37110  1  0  0  0
 38 43  2  0  0  0
 38 46  1  0  0  0
 38 47  1  0  0  0
 39 64  1  0  0  0
 39 67  2  0  0  0
 40 52  1  0  0  0
 40 53  2  0  0  0
 40 58  1  0  0  0
 41111  1  0  0  0
 41112  1  0  0  0
 41113  1  0  0  0
 41 48  1  0  0  0
 42 43  1  0  0  0
 42 66  1  0  0  0
 42114  1  0  0  0
 42115  1  0  0  0
 43 44  1  0  0  0
 44116  1  0  0  0
 45 46  2  0  0  0
 45117  1  0  0  0
 46118  1  0  0  0
 47119  1  0  0  0
 47120  1  0  0  0
 48 56  1  0  0  0
 48 65  1  0  0  0
 48121  1  0  0  0
 49 50  1  0  0  0
 49 53  1  0  0  0
 49 64  1  0  0  0
 49122  1  0  0  0
 50 51  1  0  0  0
 50123  1  0  0  0
 50124  1  0  0  0
 51 52  1  0  0  0
 51125  1  0  0  0
 51126  1  0  0  0
 52127  1  0  0  0
 52128  1  0  0  0
 53 54  1  0  0  0
 54 55  2  0  0  0
 54129  1  0  0  0
 55 57  1  0  0  0
 55130  1  0  0  0
 56 69  2  0  0  0
 57 58  2  0  0  0
 57131  1  0  0  0
 58132  1  0  0  0
 59 60  1  0  0  0
 59 61  1  0  0  0
 59 62  1  0  0  0
 60133  1  0  0  0
 60134  1  0  0  0
 60135  1  0  0  0
 61136  1  0  0  0
 61137  1  0  0  0
 61138  1  0  0  0
 62139  1  0  0  0
 62140  1  0  0  0
 62141  1  0  0  0
 63 65  1  0  0  0
 63142  1  0  0  0
 63143  1  0  0  0
 63144  1  0  0  0
 64145  1  0  0  0
 65146  1  0  0  0
 68 81  1  0  0  0
 71 72  2  0  0  0
 71 86  1  0  0  0
 71147  1  0  0  0
 72 82  1  0  0  0
 72 85  1  0  0  0
 73 83  1  0  0  0
 73 85  1  0  0  0
 73 86  2  0  0  0
 74148  1  0  0  0
 74149  1  0  0  0
 74150  1  0  0  0
 74 82  1  0  0  0
 75151  1  0  0  0
 75152  1  0  0  0
 75153  1  0  0  0
 75 83  1  0  0  0
 76 83  1  0  0  0
 76154  1  0  0  0
 76155  1  0  0  0
 76156  1  0  0  0
 77157  1  0  0  0
 77158  1  0  0  0
 77159  1  0  0  0
 77 84  1  0  0  0
 78 84  1  0  0  0
 78160  1  0  0  0
 78161  1  0  0  0
 78162  1  0  0  0
 79 84  1  0  0  0
 79 85  1  0  0  0
 79163  1  0  0  0
 79164  1  0  0  0
 80 84  1  0  0  0
 80 87  1  0  0  0
 80165  1  0  0  0
 80166  1  0  0  0
 81 82  1  0  0  0
 81167  1  0  0  0
 81168  1  0  0  0
 82169  1  0  0  0
 83170  1  0  0  0
 86171  1  0  0  0
 87172  1  0  0  0
M  CHG  1  86   1
M  ISO  4   1 100  68 101  81 101  87 100
M  END
> <chiral flag>
0

> <version>
0

> <s_m_source_file>
/data/baiqing/PycharmProjects/Reinvent-master-3.2/result/LINK_invent/BTK/process_docking_weight1_custom_sum_contain_oxygen_bond_distance_aromatic_linkinvent_7_9_3/rearranged_h_0086.sdf

> <i_m_source_file_index>
56

> <r_mmod_Potential_Energy-OPLS-2005>
221.243255615234

> <r_mmod_Stretch_Energy-OPLS-2005>
161.855529785156

> <r_mmod_Bend_Energy-OPLS-2005>
247.116744995117

> <r_mmod_Torsional_Energy-OPLS-2005>
280.545837402344

> <r_mmod_Improper_Torsional_Energy-OPLS-2005>
6.17005491256714

> <r_mmod_Van_der_Waal_Energy-OPLS-2005>
109.842735290527

> <r_mmod_Electrostatic_Energy-OPLS-2005>
-278.576080322266

> <r_mmod_Solvation_Energy-OPLS-2005>
-397.322052001953

> <b_mmod_Minimization_Converged-OPLS-2005>
0

> <r_mmod_RMS_Derivative-OPLS-2005>
1.28020942211151

$$$$
57
                    3D
 Structure written by MMmdl.
166174  0  0  1  0            999 V2000
  -30.5864  -14.7629   20.4658 C   0  0  0  0  0  0
  -30.4380  -12.4709   19.4663 C   0  0  0  0  0  0
  -29.5118  -12.5115   18.2306 C   0  0  0  0  0  0
  -28.0376  -12.3306   18.6453 C   0  0  0  0  0  0
  -27.6401  -13.2290   19.8469 C   0  0  2  0  0  0
  -28.6845  -13.1583   20.9808 C   0  0  0  0  0  0
  -25.2514  -13.8193   20.5688 C   0  0  0  0  0  0
  -24.1804  -13.0442   20.9209 C   0  0  0  0  0  0
  -24.6392  -11.6918   20.8745 C   0  0  0  0  0  0
  -23.9068  -10.4298   21.0406 C   0  0  0  0  0  0
  -24.3619   -9.4210   21.9179 C   0  0  0  0  0  0
  -23.6293   -8.2245   22.0750 C   0  0  0  0  0  0
  -22.4274   -8.0284   21.3542 C   0  0  0  0  0  0
  -21.9907   -9.0257   20.4642 C   0  0  0  0  0  0
  -22.7239  -10.2137   20.3052 C   0  0  0  0  0  0
  -21.6855   -6.0734   22.5277 C   0  0  0  0  0  0
  -21.4014   -6.5635   23.8210 C   0  0  0  0  0  0
  -21.3660   -5.6784   24.9170 C   0  0  0  0  0  0
  -21.6046   -4.3049   24.7220 C   0  0  0  0  0  0
  -21.8823   -3.8145   23.4342 C   0  0  0  0  0  0
  -21.9196   -4.6962   22.3400 C   0  0  0  0  0  0
  -22.7825  -13.5228   21.1862 C   0  0  0  0  0  0
  -22.1664   -4.2148   21.0977 F   0  0  0  0  0  0
  -21.5630   -3.4533   25.7734 F   0  0  0  0  0  0
  -29.9802  -13.5274   20.3975 N   0  0  0  0  0  0
  -26.2927  -12.9389   20.3250 N   0  0  0  0  0  0
  -25.9316  -11.6535   20.5727 N   0  0  0  0  0  0
  -22.0462  -12.8230   22.0418 N   0  0  0  0  0  0
  -25.4217  -15.1918   20.4104 N   0  0  0  0  0  0
  -31.7796  -14.8768   20.1728 O   0  0  0  0  0  0
  -21.6642   -6.8878   21.4239 O   0  0  0  0  0  0
  -22.3512  -14.5525   20.6692 O   0  0  0  0  0  0
  -24.6323  -31.8536   23.1950 C   0  0  0  0  0  0
  -25.9140  -32.4746   23.8311 C   0  0  1  0  0  0
  -27.2241  -27.2497   20.1479 C   0  0  0  0  0  0
  -25.5933  -33.8549   24.2239 N   0  0  0  0  0  0
  -23.4307  -30.4726   21.5386 C   0  0  2  0  0  0
  -24.8793  -28.9056   20.1217 C   0  0  0  0  0  0
  -22.7505  -29.4591   22.4909 C   0  0  0  0  0  0
  -18.0293  -28.1391   22.8483 C   0  0  0  0  0  0
  -24.1491  -36.7282   23.2641 C   0  0  0  0  0  0
  -25.9759  -30.7627   21.3758 C   0  0  0  0  0  0
  -26.0504  -29.3791   20.7284 C   0  0  0  0  0  0
  -27.2294  -28.5650   20.7249 C   0  0  0  0  0  0
  -26.0315  -26.8336   19.5268 C   0  0  0  0  0  0
  -24.8742  -27.6402   19.5105 C   0  0  0  0  0  0
  -23.6520  -29.7973   20.1587 C   0  0  0  0  0  0
  -25.4118  -36.3062   24.0322 C   0  0  1  0  0  0
  -20.5898  -28.3704   23.1267 C   0  0  2  0  0  0
  -20.6783  -26.9419   22.5410 C   0  0  0  0  0  0
  -19.5757  -26.6384   21.5216 C   0  0  0  0  0  0
  -18.1938  -26.7932   22.1626 C   0  0  0  0  0  0
  -19.1547  -28.8862   23.2871 C   0  0  0  0  0  0
  -18.9466  -30.1464   23.8888 C   0  0  0  0  0  0
  -17.6466  -30.6590   24.0563 C   0  0  0  0  0  0
  -25.9061  -34.9435   23.5084 C   0  0  0  0  0  0
  -16.5357  -29.9087   23.6329 C   0  0  0  0  0  0
  -16.7279  -28.6507   23.0349 C   0  0  0  0  0  0
  -26.4500  -31.6578   25.0711 C   0  0  0  0  0  0
  -25.3720  -31.3735   26.1431 C   0  0  0  0  0  0
  -27.0351  -30.2993   24.6207 C   0  0  0  0  0  0
  -27.6044  -32.4326   25.7491 C   0  0  0  0  0  0
  -27.5576  -37.1796   24.8462 C   0  0  0  0  0  0
  -21.4210  -29.3046   22.3651 N   0  0  0  0  0  0
  -26.4290  -37.3763   23.9403 N   0  0  0  0  0  0
  -24.6986  -31.0489   22.0928 N   0  0  0  0  0  0
  -23.4199  -28.8144   23.3024 O   0  0  0  0  0  0
  -28.3342  -26.3819   20.0787 O   0  0  0  0  0  0
  -26.5633  -34.8914   22.4654 O   0  0  0  0  0  0
  -23.5467  -32.1356   23.7240 O   0  0  0  0  0  0
  -30.1891  -21.0934   18.6739 C   0  0  0  0  0  0
  -29.6159  -23.2413   18.6279 C   0  0  0  0  0  0
  -30.3208  -22.2998   17.9327 C   0  0  0  0  0  0
  -29.3994  -21.2769   19.7766 C   0  0  0  0  0  0
  -32.3294  -21.6115   16.5842 C   0  0  0  0  0  0
  -31.4689  -23.9542   16.4068 C   0  0  0  0  0  0
  -30.1257  -22.0574   15.4673 C   0  0  0  0  0  0
  -29.1075  -20.0937   20.7726 C   0  0  0  0  0  0
  -29.0977  -18.5257   20.2733 C   0  0  0  0  0  0
  -28.0847  -23.5738   20.5544 C   0  0  0  0  0  0
  -30.1342  -17.3778   20.7937 C   0  0  0  0  0  0
  -28.4195  -25.1379   20.9169 C   0  0  0  0  0  0
  -31.0590  -22.4827   16.6137 C   0  0  0  0  0  0
  -29.0227  -22.6901   19.7519 N   0  0  0  0  0  0
  -29.7855  -15.8825   20.6705 N   0  0  0  0  0  0
  -31.4759  -12.6140   19.1611 H   0  0  0  0  0  0
  -30.3989  -11.4931   19.9490 H   0  0  0  0  0  0
  -29.7976  -11.7366   17.5182 H   0  0  0  0  0  0
  -29.6337  -13.4637   17.7114 H   0  0  0  0  0  0
  -27.8981  -11.2816   18.9083 H   0  0  0  0  0  0
  -27.3798  -12.5200   17.7959 H   0  0  0  0  0  0
  -27.6346  -14.2514   19.4684 H   0  0  0  0  0  0
  -28.7279  -12.1554   21.4079 H   0  0  0  0  0  0
  -28.4148  -13.8280   21.7989 H   0  0  0  0  0  0
  -25.2768   -9.5687   22.4751 H   0  0  0  0  0  0
  -24.0005   -7.4637   22.7464 H   0  0  0  0  0  0
  -21.0840   -8.8779   19.8944 H   0  0  0  0  0  0
  -22.3699  -10.9676   19.6161 H   0  0  0  0  0  0
  -21.2003   -7.6142   23.9714 H   0  0  0  0  0  0
  -21.1478   -6.0512   25.9072 H   0  0  0  0  0  0
  -22.0601   -2.7607   23.2842 H   0  0  0  0  0  0
  -22.4074  -11.9911   22.4847 H   0  0  0  0  0  0
  -21.1068  -13.1249   22.2582 H   0  0  0  0  0  0
  -24.6528  -15.8442   20.5183 H   0  0  0  0  0  0
  -26.2618  -15.6287   20.0549 H   0  0  0  0  0  0
  -26.7209  -32.5393   23.1054 H   0  0  0  0  0  0
  -25.0078  -33.9675   25.0383 H   0  0  0  0  0  0
  -22.7284  -31.2948   21.3862 H   0  0  0  0  0  0
  -23.3751  -35.9616   23.3300 H   0  0  0  0  0  0
  -24.3582  -36.8910   22.2056 H   0  0  0  0  0  0
  -23.7249  -37.6482   23.6671 H   0  0  0  0  0  0
  -26.1136  -31.5173   20.6002 H   0  0  0  0  0  0
  -26.8541  -30.8180   22.0076 H   0  0  0  0  0  0
  -28.1357  -28.9317   21.1864 H   0  0  0  0  0  0
  -25.9967  -25.8638   19.0511 H   0  0  0  0  0  0
  -23.9780  -27.2709   19.0309 H   0  0  0  0  0  0
  -23.7817  -30.5683   19.3985 H   0  0  0  0  0  0
  -22.7704  -29.2310   19.8532 H   0  0  0  0  0  0
  -25.1303  -36.1903   25.0815 H   0  0  0  0  0  0
  -20.9990  -28.3287   24.1388 H   0  0  0  0  0  0
  -20.5687  -26.2313   23.3618 H   0  0  0  0  0  0
  -21.6651  -26.7444   22.1201 H   0  0  0  0  0  0
  -19.6920  -25.6291   21.1251 H   0  0  0  0  0  0
  -19.6696  -27.3189   20.6743 H   0  0  0  0  0  0
  -17.4206  -26.6677   21.4028 H   0  0  0  0  0  0
  -18.0337  -26.0078   22.9026 H   0  0  0  0  0  0
  -19.7943  -30.7284   24.2253 H   0  0  0  0  0  0
  -17.5018  -31.6266   24.5171 H   0  0  0  0  0  0
  -15.5356  -30.2987   23.7656 H   0  0  0  0  0  0
  -15.8682  -28.0825   22.7062 H   0  0  0  0  0  0
  -24.5899  -30.7079   25.7760 H   0  0  0  0  0  0
  -24.8912  -32.2908   26.4836 H   0  0  0  0  0  0
  -25.8039  -30.8926   27.0219 H   0  0  0  0  0  0
  -26.2939  -29.6735   24.1223 H   0  0  0  0  0  0
  -27.4017  -29.7260   25.4734 H   0  0  0  0  0  0
  -27.8822  -30.4259   23.9462 H   0  0  0  0  0  0
  -27.2641  -33.3630   26.2048 H   0  0  0  0  0  0
  -28.3868  -32.6883   25.0332 H   0  0  0  0  0  0
  -28.0700  -31.8470   26.5426 H   0  0  0  0  0  0
  -28.2590  -38.0097   24.7505 H   0  0  0  0  0  0
  -28.1076  -36.2625   24.6293 H   0  0  0  0  0  0
  -27.2294  -37.1451   25.8867 H   0  0  0  0  0  0
  -20.9403  -29.8758   21.6841 H   0  0  0  0  0  0
  -26.0165  -38.2835   24.1405 H   0  0  0  0  0  0
  -30.6305  -20.1435   18.4055 H   0  0  0  0  0  0
  -29.4494  -24.2851   18.3956 H   0  0  0  0  0  0
  -32.9966  -21.8546   17.4119 H   0  0  0  0  0  0
  -32.8886  -21.7554   15.6591 H   0  0  0  0  0  0
  -32.0952  -20.5487   16.6498 H   0  0  0  0  0  0
  -32.1086  -24.3085   17.2159 H   0  0  0  0  0  0
  -30.6020  -24.6139   16.3565 H   0  0  0  0  0  0
  -32.0193  -24.0846   15.4745 H   0  0  0  0  0  0
  -29.8198  -21.0153   15.5690 H   0  0  0  0  0  0
  -30.6094  -22.1638   14.4959 H   0  0  0  0  0  0
  -29.2186  -22.6630   15.4492 H   0  0  0  0  0  0
  -28.1422  -20.2928   21.2386 H   0  0  0  0  0  0
  -29.8165  -20.1678   21.5978 H   0  0  0  0  0  0
  -29.0799  -18.5060   19.1839 H   0  0  0  0  0  0
  -28.1089  -18.1566   20.5466 H   0  0  0  0  0  0
  -27.1106  -23.5390   20.0664 H   0  0  0  0  0  0
  -27.9407  -23.0559   21.5029 H   0  0  0  0  0  0
  -30.3118  -17.5521   21.8556 H   0  0  0  0  0  0
  -31.1007  -17.5455   20.3164 H   0  0  0  0  0  0
  -29.4393  -25.1387   21.3022 H   0  0  0  0  0  0
  -27.8147  -25.3616   21.7966 H   0  0  0  0  0  0
  -28.8144  -15.6603   20.8300 H   0  0  0  0  0  0
  1 25  1  0  0  0
  1 30  2  0  0  0
  1 85  1  0  0  0
  2  3  1  0  0  0
  2 25  1  0  0  0
  2 86  1  0  0  0
  2 87  1  0  0  0
  3  4  1  0  0  0
  3 88  1  0  0  0
  3 89  1  0  0  0
  4  5  1  0  0  0
  4 90  1  0  0  0
  4 91  1  0  0  0
  5  6  1  0  0  0
  5 26  1  0  0  0
  5 92  1  0  0  0
  6 25  1  0  0  0
  6 93  1  0  0  0
  6 94  1  0  0  0
  7  8  2  0  0  0
  7 26  1  0  0  0
  7 29  1  0  0  0
  8  9  1  0  0  0
  8 22  1  0  0  0
  9 10  1  0  0  0
  9 27  2  0  0  0
 10 11  2  0  0  0
 10 15  1  0  0  0
 11 12  1  0  0  0
 11 95  1  0  0  0
 12 13  2  0  0  0
 12 96  1  0  0  0
 13 14  1  0  0  0
 13 31  1  0  0  0
 14 15  2  0  0  0
 14 97  1  0  0  0
 15 98  1  0  0  0
 16 17  2  0  0  0
 16 21  1  0  0  0
 16 31  1  0  0  0
 17 18  1  0  0  0
 17 99  1  0  0  0
 18 19  2  0  0  0
 18100  1  0  0  0
 19 20  1  0  0  0
 19 24  1  0  0  0
 20 21  2  0  0  0
 20101  1  0  0  0
 21 23  1  0  0  0
 22 28  1  0  0  0
 22 32  2  0  0  0
 26 27  1  0  0  0
 28102  1  0  0  0
 28103  1  0  0  0
 29104  1  0  0  0
 29105  1  0  0  0
 33 34  1  0  0  0
 33 66  1  0  0  0
 33 70  2  0  0  0
 34 36  1  0  0  0
 34 59  1  0  0  0
 34106  1  0  0  0
 35 44  2  0  0  0
 35 45  1  0  0  0
 35 68  1  0  0  0
 36 56  1  0  0  0
 36107  1  0  0  0
 37 39  1  0  0  0
 37 47  1  0  0  0
 37 66  1  0  0  0
 37108  1  0  0  0
 38 43  2  0  0  0
 38 46  1  0  0  0
 38 47  1  0  0  0
 39 64  1  0  0  0
 39 67  2  0  0  0
 40 52  1  0  0  0
 40 53  2  0  0  0
 40 58  1  0  0  0
 41109  1  0  0  0
 41110  1  0  0  0
 41111  1  0  0  0
 41 48  1  0  0  0
 42 43  1  0  0  0
 42 66  1  0  0  0
 42112  1  0  0  0
 42113  1  0  0  0
 43 44  1  0  0  0
 44114  1  0  0  0
 45 46  2  0  0  0
 45115  1  0  0  0
 46116  1  0  0  0
 47117  1  0  0  0
 47118  1  0  0  0
 48 56  1  0  0  0
 48 65  1  0  0  0
 48119  1  0  0  0
 49 50  1  0  0  0
 49 53  1  0  0  0
 49 64  1  0  0  0
 49120  1  0  0  0
 50 51  1  0  0  0
 50121  1  0  0  0
 50122  1  0  0  0
 51 52  1  0  0  0
 51123  1  0  0  0
 51124  1  0  0  0
 52125  1  0  0  0
 52126  1  0  0  0
 53 54  1  0  0  0
 54 55  2  0  0  0
 54127  1  0  0  0
 55 57  1  0  0  0
 55128  1  0  0  0
 56 69  2  0  0  0
 57 58  2  0  0  0
 57129  1  0  0  0
 58130  1  0  0  0
 59 60  1  0  0  0
 59 61  1  0  0  0
 59 62  1  0  0  0
 60131  1  0  0  0
 60132  1  0  0  0
 60133  1  0  0  0
 61134  1  0  0  0
 61135  1  0  0  0
 61136  1  0  0  0
 62137  1  0  0  0
 62138  1  0  0  0
 62139  1  0  0  0
 63 65  1  0  0  0
 63140  1  0  0  0
 63141  1  0  0  0
 63142  1  0  0  0
 64143  1  0  0  0
 65144  1  0  0  0
 68 82  1  0  0  0
 71 73  1  0  0  0
 71 74  2  0  0  0
 71145  1  0  0  0
 72 73  2  0  0  0
 72 84  1  0  0  0
 72146  1  0  0  0
 73 83  1  0  0  0
 74 78  1  0  0  0
 74 84  1  0  0  0
 75147  1  0  0  0
 75148  1  0  0  0
 75149  1  0  0  0
 75 83  1  0  0  0
 76 83  1  0  0  0
 76150  1  0  0  0
 76151  1  0  0  0
 76152  1  0  0  0
 77 83  1  0  0  0
 77153  1  0  0  0
 77154  1  0  0  0
 77155  1  0  0  0
 78 79  1  0  0  0
 78156  1  0  0  0
 78157  1  0  0  0
 79 81  1  0  0  0
 79158  1  0  0  0
 79159  1  0  0  0
 80 82  1  0  0  0
 80 84  1  0  0  0
 80160  1  0  0  0
 80161  1  0  0  0
 81 85  1  0  0  0
 81162  1  0  0  0
 81163  1  0  0  0
 82164  1  0  0  0
 82165  1  0  0  0
 85166  1  0  0  0
M  ISO  4   1 100  68 101  82 101  85 100
M  END
> <chiral flag>
0

> <version>
0

> <s_m_source_file>
/data/baiqing/PycharmProjects/Reinvent-master-3.2/result/LINK_invent/BTK/process_docking_weight1_custom_sum_contain_oxygen_bond_distance_aromatic_linkinvent_7_9_3/rearranged_h_0086.sdf

> <i_m_source_file_index>
57

> <r_mmod_Potential_Energy-OPLS-2005>
215.494613647461

> <r_mmod_Stretch_Energy-OPLS-2005>
142.397094726562

> <r_mmod_Bend_Energy-OPLS-2005>
236.964538574219

> <r_mmod_Torsional_Energy-OPLS-2005>
249.968460083008

> <r_mmod_Improper_Torsional_Energy-OPLS-2005>
5.15098571777344

> <r_mmod_Van_der_Waal_Energy-OPLS-2005>
109.083152770996

> <r_mmod_Electrostatic_Energy-OPLS-2005>
-409.118591308594

> <r_mmod_Solvation_Energy-OPLS-2005>
-207.823364257812

> <b_mmod_Minimization_Converged-OPLS-2005>
0

> <r_mmod_RMS_Derivative-OPLS-2005>
0.910168647766113

$$$$
58
                    3D
 Structure written by MMmdl.
188196  0  0  1  0            999 V2000
  -30.7252  -14.4706   20.3769 C   0  0  0  0  0  0
  -30.4114  -12.2804   19.3960 C   0  0  0  0  0  0
  -29.4871  -12.4601   18.1773 C   0  0  0  0  0  0
  -28.0071  -12.3380   18.6023 C   0  0  0  0  0  0
  -27.6466  -13.2097   19.8366 C   0  0  2  0  0  0
  -28.7043  -13.0797   20.9516 C   0  0  0  0  0  0
  -25.2463  -13.8045   20.5523 C   0  0  0  0  0  0
  -24.1775  -13.0383   20.9121 C   0  0  0  0  0  0
  -24.6351  -11.6874   20.8691 C   0  0  0  0  0  0
  -23.8992  -10.4319   21.0372 C   0  0  0  0  0  0
  -24.3584   -9.4263   21.9179 C   0  0  0  0  0  0
  -23.6286   -8.2301   22.0776 C   0  0  0  0  0  0
  -22.4257   -8.0320   21.3554 C   0  0  0  0  0  0
  -21.9846   -9.0265   20.4646 C   0  0  0  0  0  0
  -22.7151  -10.2147   20.3039 C   0  0  0  0  0  0
  -21.6879   -6.0742   22.5259 C   0  0  0  0  0  0
  -21.4061   -6.5674   23.8179 C   0  0  0  0  0  0
  -21.3621   -5.6822   24.9133 C   0  0  0  0  0  0
  -21.6028   -4.3084   24.7184 C   0  0  0  0  0  0
  -21.8851   -3.8168   23.4327 C   0  0  0  0  0  0
  -21.9219   -4.6997   22.3362 C   0  0  0  0  0  0
  -22.7775  -13.5160   21.1839 C   0  0  0  0  0  0
  -22.1698   -4.2180   21.0953 F   0  0  0  0  0  0
  -21.5552   -3.4572   25.7697 F   0  0  0  0  0  0
  -30.0264  -13.3183   20.3508 N   0  0  0  0  0  0
  -26.2936  -12.9289   20.3217 N   0  0  0  0  0  0
  -25.9288  -11.6447   20.5700 N   0  0  0  0  0  0
  -22.0428  -12.8154   22.0376 N   0  0  0  0  0  0
  -25.4044  -15.1744   20.3763 N   0  0  0  0  0  0
  -31.9467  -14.5154   20.4517 O   0  0  0  0  0  0
  -21.6672   -6.8909   21.4219 O   0  0  0  0  0  0
  -22.3447  -14.5487   20.6715 O   0  0  0  0  0  0
  -24.6214  -31.8700   23.2064 C   0  0  0  0  0  0
  -25.9072  -32.4849   23.8427 C   0  0  1  0  0  0
  -27.2354  -27.4071   20.0141 C   0  0  0  0  0  0
  -25.5874  -33.8655   24.2380 N   0  0  0  0  0  0
  -23.4075  -30.4935   21.5600 C   0  0  2  0  0  0
  -24.8383  -28.9460   20.1210 C   0  0  0  0  0  0
  -22.7387  -29.4755   22.5108 C   0  0  0  0  0  0
  -18.0296  -28.1363   22.8495 C   0  0  0  0  0  0
  -24.1447  -36.7323   23.2657 C   0  0  0  0  0  0
  -25.9397  -30.8098   21.3567 C   0  0  0  0  0  0
  -26.0119  -29.4416   20.7022 C   0  0  0  0  0  0
  -27.2071  -28.6775   20.6527 C   0  0  0  0  0  0
  -26.0210  -26.9180   19.4766 C   0  0  0  0  0  0
  -24.8375  -27.6729   19.5331 C   0  0  0  0  0  0
  -23.5988  -29.8152   20.1811 C   0  0  0  0  0  0
  -25.4075  -36.3155   24.0377 C   0  0  1  0  0  0
  -20.5869  -28.3682   23.1288 C   0  0  2  0  0  0
  -20.6769  -26.9428   22.5390 C   0  0  0  0  0  0
  -19.5757  -26.6384   21.5187 C   0  0  0  0  0  0
  -18.1937  -26.7910   22.1617 C   0  0  0  0  0  0
  -19.1527  -28.8838   23.2889 C   0  0  0  0  0  0
  -18.9465  -30.1434   23.8914 C   0  0  0  0  0  0
  -17.6466  -30.6563   24.0567 C   0  0  0  0  0  0
  -25.9019  -34.9512   23.5185 C   0  0  0  0  0  0
  -16.5366  -29.9066   23.6331 C   0  0  0  0  0  0
  -16.7282  -28.6483   23.0358 C   0  0  0  0  0  0
  -26.4419  -31.6627   25.0777 C   0  0  0  0  0  0
  -25.3687  -31.3708   26.1537 C   0  0  0  0  0  0
  -27.0233  -30.3091   24.6103 C   0  0  0  0  0  0
  -27.6004  -32.4342   25.7502 C   0  0  0  0  0  0
  -27.5582  -37.1822   24.8491 C   0  0  0  0  0  0
  -21.4121  -29.3077   22.3721 N   0  0  0  0  0  0
  -26.4280  -37.3831   23.9426 N   0  0  0  0  0  0
  -24.6792  -31.0711   22.0993 N   0  0  0  0  0  0
  -23.4128  -28.8349   23.3220 O   0  0  0  0  0  0
  -28.4304  -26.7018   19.9300 O   0  0  0  0  0  0
  -26.5603  -34.8956   22.4764 O   0  0  0  0  0  0
  -23.5393  -32.1505   23.7432 O   0  0  0  0  0  0
  -28.8521  -22.3938   18.1690 C   0  0  0  0  0  0
  -26.9666  -22.0905   19.6472 C   0  0  0  0  0  0
  -28.0546  -22.9006   19.2320 C   0  0  0  0  0  0
  -28.5090  -21.1535   17.5899 C   0  0  0  0  0  0
  -26.7380  -20.8448   19.0373 C   0  0  0  0  0  0
  -31.2255  -17.9056   15.9166 C   0  0  0  0  0  0
  -29.8800  -23.8882   20.6113 C   0  0  0  0  0  0
  -27.5206  -24.4172   21.2325 C   0  0  0  0  0  0
  -25.7831  -19.8259   21.1723 C   0  0  0  0  0  0
  -26.3048  -18.3726   19.2413 C   0  0  0  0  0  0
  -24.3612  -19.9605   19.1131 C   0  0  0  0  0  0
  -32.6221  -18.2005   18.9538 C   0  0  0  0  0  0
  -32.2310  -16.0150   17.8623 C   0  0  0  0  0  0
  -29.4604  -20.3243   16.7480 C   0  0  0  0  0  0
  -30.3446  -19.4685   17.6906 C   0  0  0  0  0  0
  -30.6309  -16.8984   19.7425 C   0  0  0  0  0  0
  -28.5139  -25.4566   19.1704 C   0  0  0  0  0  0
  -30.6357  -17.9799   17.3424 C   0  0  2  0  0  0
  -28.4723  -24.1601   20.0395 C   0  0  0  0  0  0
  -25.7957  -19.7806   19.6294 C   0  0  0  0  0  0
  -31.4982  -17.2495   18.4565 C   0  0  0  0  0  0
  -27.4322  -20.4544   17.9595 N   0  0  0  0  0  0
  -30.0578  -15.5456   19.9162 N   0  0  0  0  0  0
  -31.4595  -12.3588   19.0934 H   0  0  0  0  0  0
  -30.2797  -11.2928   19.8379 H   0  0  0  0  0  0
  -29.7225  -11.7146   17.4164 H   0  0  0  0  0  0
  -29.6620  -13.4306   17.7081 H   0  0  0  0  0  0
  -27.8203  -11.2871   18.8209 H   0  0  0  0  0  0
  -27.3637  -12.5917   17.7595 H   0  0  0  0  0  0
  -27.6623  -14.2439   19.4955 H   0  0  0  0  0  0
  -28.6637  -12.0879   21.4022 H   0  0  0  0  0  0
  -28.5046  -13.7939   21.7492 H   0  0  0  0  0  0
  -25.2796   -9.5812   22.4634 H   0  0  0  0  0  0
  -24.0049   -7.4744   22.7526 H   0  0  0  0  0  0
  -21.0751   -8.8727   19.8983 H   0  0  0  0  0  0
  -22.3598  -10.9638   19.6083 H   0  0  0  0  0  0
  -21.2149   -7.6205   23.9660 H   0  0  0  0  0  0
  -21.1351   -6.0573   25.9005 H   0  0  0  0  0  0
  -22.0658   -2.7649   23.2799 H   0  0  0  0  0  0
  -22.4069  -11.9828   22.4820 H   0  0  0  0  0  0
  -21.1065  -13.1216   22.2639 H   0  0  0  0  0  0
  -24.6176  -15.8135   20.4225 H   0  0  0  0  0  0
  -26.2434  -15.6166   20.0325 H   0  0  0  0  0  0
  -26.7177  -32.5488   23.1219 H   0  0  0  0  0  0
  -24.9938  -33.9816   25.0459 H   0  0  0  0  0  0
  -22.7047  -31.3162   21.4267 H   0  0  0  0  0  0
  -23.3730  -35.9642   23.3353 H   0  0  0  0  0  0
  -24.3558  -36.8877   22.2074 H   0  0  0  0  0  0
  -23.7158  -37.6531   23.6614 H   0  0  0  0  0  0
  -26.0409  -31.5646   20.5770 H   0  0  0  0  0  0
  -26.8298  -30.8755   21.9680 H   0  0  0  0  0  0
  -28.1166  -29.0657   21.0909 H   0  0  0  0  0  0
  -25.9392  -25.9481   19.0145 H   0  0  0  0  0  0
  -23.9253  -27.2561   19.1314 H   0  0  0  0  0  0
  -23.6862  -30.5841   19.4124 H   0  0  0  0  0  0
  -22.7072  -29.2371   19.9180 H   0  0  0  0  0  0
  -25.1237  -36.2092   25.0877 H   0  0  0  0  0  0
  -20.9981  -28.3247   24.1397 H   0  0  0  0  0  0
  -20.5590  -26.2336   23.3584 H   0  0  0  0  0  0
  -21.6653  -26.7398   22.1244 H   0  0  0  0  0  0
  -19.6911  -25.6287   21.1234 H   0  0  0  0  0  0
  -19.6680  -27.3170   20.6696 H   0  0  0  0  0  0
  -17.4199  -26.6673   21.4026 H   0  0  0  0  0  0
  -18.0363  -26.0039   22.9006 H   0  0  0  0  0  0
  -19.7939  -30.7231   24.2300 H   0  0  0  0  0  0
  -17.5021  -31.6239   24.5171 H   0  0  0  0  0  0
  -15.5367  -30.2957   23.7630 H   0  0  0  0  0  0
  -15.8678  -28.0773   22.7086 H   0  0  0  0  0  0
  -24.5881  -30.7013   25.7901 H   0  0  0  0  0  0
  -24.8818  -32.2826   26.5021 H   0  0  0  0  0  0
  -25.8051  -30.8900   27.0309 H   0  0  0  0  0  0
  -26.2775  -29.6917   24.1079 H   0  0  0  0  0  0
  -27.3960  -29.7266   25.4540 H   0  0  0  0  0  0
  -27.8617  -30.4465   23.9268 H   0  0  0  0  0  0
  -27.2659  -33.3672   26.2065 H   0  0  0  0  0  0
  -28.3763  -32.6881   25.0264 H   0  0  0  0  0  0
  -28.0715  -31.8490   26.5413 H   0  0  0  0  0  0
  -28.2647  -38.0075   24.7523 H   0  0  0  0  0  0
  -28.1021  -36.2626   24.6318 H   0  0  0  0  0  0
  -27.2316  -37.1485   25.8897 H   0  0  0  0  0  0
  -20.9294  -29.8827   21.6933 H   0  0  0  0  0  0
  -26.0216  -38.2935   24.1376 H   0  0  0  0  0  0
  -29.7604  -22.8958   17.8623 H   0  0  0  0  0  0
  -26.3356  -22.3557   20.4763 H   0  0  0  0  0  0
  -30.5813  -18.4110   15.2018 H   0  0  0  0  0  0
  -31.3195  -16.8864   15.5393 H   0  0  0  0  0  0
  -32.2076  -18.3773   15.8688 H   0  0  0  0  0  0
  -29.8922  -22.9922   21.2329 H   0  0  0  0  0  0
  -30.2162  -24.7152   21.2287 H   0  0  0  0  0  0
  -30.6236  -23.7516   19.8228 H   0  0  0  0  0  0
  -26.5114  -24.6264   20.8815 H   0  0  0  0  0  0
  -27.8476  -25.2677   21.8267 H   0  0  0  0  0  0
  -27.4822  -23.5759   21.9213 H   0  0  0  0  0  0
  -26.7970  -19.7846   21.5726 H   0  0  0  0  0  0
  -25.2234  -18.9857   21.5914 H   0  0  0  0  0  0
  -25.3063  -20.7365   21.5322 H   0  0  0  0  0  0
  -27.3425  -18.2171   19.5460 H   0  0  0  0  0  0
  -26.2684  -18.2318   18.1614 H   0  0  0  0  0  0
  -25.6905  -17.5952   19.6790 H   0  0  0  0  0  0
  -23.9482  -20.9224   19.4129 H   0  0  0  0  0  0
  -23.7029  -19.1941   19.5227 H   0  0  0  0  0  0
  -24.3083  -19.8926   18.0267 H   0  0  0  0  0  0
  -33.3120  -17.6744   19.6116 H   0  0  0  0  0  0
  -32.2345  -19.0379   19.5367 H   0  0  0  0  0  0
  -33.2154  -18.6182   18.1382 H   0  0  0  0  0  0
  -32.8892  -16.2814   17.0331 H   0  0  0  0  0  0
  -31.5348  -15.2505   17.5134 H   0  0  0  0  0  0
  -32.9104  -15.5677   18.5851 H   0  0  0  0  0  0
  -30.0804  -20.9727   16.1319 H   0  0  0  0  0  0
  -28.8713  -19.7217   16.0541 H   0  0  0  0  0  0
  -29.8816  -19.4618   18.6765 H   0  0  0  0  0  0
  -31.2582  -20.0438   17.8088 H   0  0  0  0  0  0
  -29.8030  -17.5998   19.8369 H   0  0  0  0  0  0
  -31.2144  -17.0893   20.6426 H   0  0  0  0  0  0
  -27.7893  -25.3766   18.3659 H   0  0  0  0  0  0
  -29.4554  -25.4731   18.6180 H   0  0  0  0  0  0
  -29.6760  -17.4662   17.3081 H   0  0  0  0  0  0
  -29.0764  -15.4268   19.7195 H   0  0  0  0  0  0
  1 25  1  0  0  0
  1 30  2  0  0  0
  1 93  1  0  0  0
  2  3  1  0  0  0
  2 25  1  0  0  0
  2 94  1  0  0  0
  2 95  1  0  0  0
  3  4  1  0  0  0
  3 96  1  0  0  0
  3 97  1  0  0  0
  4  5  1  0  0  0
  4 98  1  0  0  0
  4 99  1  0  0  0
  5  6  1  0  0  0
  5 26  1  0  0  0
  5100  1  0  0  0
  6 25  1  0  0  0
  6101  1  0  0  0
  6102  1  0  0  0
  7  8  2  0  0  0
  7 26  1  0  0  0
  7 29  1  0  0  0
  8  9  1  0  0  0
  8 22  1  0  0  0
  9 10  1  0  0  0
  9 27  2  0  0  0
 10 11  2  0  0  0
 10 15  1  0  0  0
 11 12  1  0  0  0
 11103  1  0  0  0
 12 13  2  0  0  0
 12104  1  0  0  0
 13 14  1  0  0  0
 13 31  1  0  0  0
 14 15  2  0  0  0
 14105  1  0  0  0
 15106  1  0  0  0
 16 17  2  0  0  0
 16 21  1  0  0  0
 16 31  1  0  0  0
 17 18  1  0  0  0
 17107  1  0  0  0
 18 19  2  0  0  0
 18108  1  0  0  0
 19 20  1  0  0  0
 19 24  1  0  0  0
 20 21  2  0  0  0
 20109  1  0  0  0
 21 23  1  0  0  0
 22 28  1  0  0  0
 22 32  2  0  0  0
 26 27  1  0  0  0
 28110  1  0  0  0
 28111  1  0  0  0
 29112  1  0  0  0
 29113  1  0  0  0
 33 34  1  0  0  0
 33 66  1  0  0  0
 33 70  2  0  0  0
 34 36  1  0  0  0
 34 59  1  0  0  0
 34114  1  0  0  0
 35 44  2  0  0  0
 35 45  1  0  0  0
 35 68  1  0  0  0
 36 56  1  0  0  0
 36115  1  0  0  0
 37 39  1  0  0  0
 37 47  1  0  0  0
 37 66  1  0  0  0
 37116  1  0  0  0
 38 43  2  0  0  0
 38 46  1  0  0  0
 38 47  1  0  0  0
 39 64  1  0  0  0
 39 67  2  0  0  0
 40 52  1  0  0  0
 40 53  2  0  0  0
 40 58  1  0  0  0
 41117  1  0  0  0
 41118  1  0  0  0
 41119  1  0  0  0
 41 48  1  0  0  0
 42 43  1  0  0  0
 42 66  1  0  0  0
 42120  1  0  0  0
 42121  1  0  0  0
 43 44  1  0  0  0
 44122  1  0  0  0
 45 46  2  0  0  0
 45123  1  0  0  0
 46124  1  0  0  0
 47125  1  0  0  0
 47126  1  0  0  0
 48 56  1  0  0  0
 48 65  1  0  0  0
 48127  1  0  0  0
 49 50  1  0  0  0
 49 53  1  0  0  0
 49 64  1  0  0  0
 49128  1  0  0  0
 50 51  1  0  0  0
 50129  1  0  0  0
 50130  1  0  0  0
 51 52  1  0  0  0
 51131  1  0  0  0
 51132  1  0  0  0
 52133  1  0  0  0
 52134  1  0  0  0
 53 54  1  0  0  0
 54 55  2  0  0  0
 54135  1  0  0  0
 55 57  1  0  0  0
 55136  1  0  0  0
 56 69  2  0  0  0
 57 58  2  0  0  0
 57137  1  0  0  0
 58138  1  0  0  0
 59 60  1  0  0  0
 59 61  1  0  0  0
 59 62  1  0  0  0
 60139  1  0  0  0
 60140  1  0  0  0
 60141  1  0  0  0
 61142  1  0  0  0
 61143  1  0  0  0
 61144  1  0  0  0
 62145  1  0  0  0
 62146  1  0  0  0
 62147  1  0  0  0
 63 65  1  0  0  0
 63148  1  0  0  0
 63149  1  0  0  0
 63150  1  0  0  0
 64151  1  0  0  0
 65152  1  0  0  0
 68 87  1  0  0  0
 71 73  2  0  0  0
 71 74  1  0  0  0
 71153  1  0  0  0
 72 73  1  0  0  0
 72 75  2  0  0  0
 72154  1  0  0  0
 73 89  1  0  0  0
 74 84  1  0  0  0
 74 92  2  0  0  0
 75 90  1  0  0  0
 75 92  1  0  0  0
 76155  1  0  0  0
 76156  1  0  0  0
 76157  1  0  0  0
 76 88  1  0  0  0
 77158  1  0  0  0
 77159  1  0  0  0
 77160  1  0  0  0
 77 89  1  0  0  0
 78 89  1  0  0  0
 78161  1  0  0  0
 78162  1  0  0  0
 78163  1  0  0  0
 79164  1  0  0  0
 79165  1  0  0  0
 79166  1  0  0  0
 79 90  1  0  0  0
 80 90  1  0  0  0
 80167  1  0  0  0
 80168  1  0  0  0
 80169  1  0  0  0
 81 90  1  0  0  0
 81170  1  0  0  0
 81171  1  0  0  0
 81172  1  0  0  0
 82173  1  0  0  0
 82174  1  0  0  0
 82175  1  0  0  0
 82 91  1  0  0  0
 83 91  1  0  0  0
 83176  1  0  0  0
 83177  1  0  0  0
 83178  1  0  0  0
 84 85  1  0  0  0
 84179  1  0  0  0
 84180  1  0  0  0
 85 88  1  0  0  0
 85181  1  0  0  0
 85182  1  0  0  0
 86 91  1  0  0  0
 86 93  1  0  0  0
 86183  1  0  0  0
 86184  1  0  0  0
 87 89  1  0  0  0
 87185  1  0  0  0
 87186  1  0  0  0
 88 91  1  0  0  0
 88187  1  0  0  0
 93188  1  0  0  0
M  ISO  4   1 100  68 101  87 101  93 100
M  END
> <chiral flag>
0

> <version>
0

> <s_m_source_file>
/data/baiqing/PycharmProjects/Reinvent-master-3.2/result/LINK_invent/BTK/process_docking_weight1_custom_sum_contain_oxygen_bond_distance_aromatic_linkinvent_7_9_3/rearranged_h_0086.sdf

> <i_m_source_file_index>
58

> <r_mmod_Potential_Energy-OPLS-2005>
-98.38916015625

> <r_mmod_Stretch_Energy-OPLS-2005>
55.0236587524414

> <r_mmod_Bend_Energy-OPLS-2005>
149.910278320312

> <r_mmod_Torsional_Energy-OPLS-2005>
288.945922851562

> <r_mmod_Improper_Torsional_Energy-OPLS-2005>
14.1690864562988

> <r_mmod_Van_der_Waal_Energy-OPLS-2005>
193.750198364258

> <r_mmod_Electrostatic_Energy-OPLS-2005>
-666.767395019531

> <r_mmod_Solvation_Energy-OPLS-2005>
-182.273345947266

> <b_mmod_Minimization_Converged-OPLS-2005>
0

> <r_mmod_RMS_Derivative-OPLS-2005>
7.38265895843506

$$$$
59
                    3D
 Structure written by MMmdl.
185193  0  0  1  0            999 V2000
  -30.1923  -14.0846   18.7961 C   0  0  0  0  0  0
  -31.1813  -12.7342   20.0918 C   0  0  0  0  0  0
  -30.3676  -11.6057   19.6327 C   0  0  0  0  0  0
  -29.1119  -12.0364   20.4547 C   0  0  0  0  0  0
  -27.8768  -13.3070   20.1858 C   0  0  2  0  0  0
  -29.0548  -14.1055   20.8532 C   0  0  0  0  0  0
  -25.1147  -14.0474   20.4779 C   0  0  0  0  0  0
  -24.0557  -13.2607   20.9349 C   0  0  0  0  0  0
  -24.4299  -11.9321   20.7816 C   0  0  0  0  0  0
  -23.7805  -10.5692   21.0033 C   0  0  0  0  0  0
  -24.1541   -9.5997   21.9965 C   0  0  0  0  0  0
  -23.5248   -8.3423   22.1177 C   0  0  0  0  0  0
  -22.4007   -8.0528   21.3211 C   0  0  0  0  0  0
  -21.9947   -9.0036   20.3652 C   0  0  0  0  0  0
  -22.6819  -10.2229   20.1969 C   0  0  0  0  0  0
  -21.6909   -6.0825   22.5155 C   0  0  0  0  0  0
  -21.4034   -6.5707   23.8102 C   0  0  0  0  0  0
  -21.3689   -5.6855   24.9065 C   0  0  0  0  0  0
  -21.6067   -4.3106   24.7127 C   0  0  0  0  0  0
  -21.8870   -3.8213   23.4245 C   0  0  0  0  0  0
  -21.9248   -4.7032   22.3309 C   0  0  0  0  0  0
  -22.6719  -13.6716   21.2499 C   0  0  0  0  0  0
  -22.1702   -4.2184   21.0896 F   0  0  0  0  0  0
  -21.5642   -3.4593   25.7647 F   0  0  0  0  0  0
  -30.3129  -13.9240   20.0714 N   0  0  0  0  0  0
  -26.2292  -13.2327   20.2972 N   0  0  0  0  0  0
  -25.4430  -12.1525   19.9771 N   0  0  0  0  0  0
  -21.9878  -12.9053   22.0925 N   0  0  0  0  0  0
  -25.1723  -15.3830   20.1686 N   0  0  0  0  0  0
  -31.1277  -14.8467   18.5132 O   0  0  0  0  0  0
  -21.6664   -6.8920   21.4054 O   0  0  0  0  0  0
  -22.1941  -14.6747   20.7337 O   0  0  0  0  0  0
  -24.6620  -31.8279   23.1778 C   0  0  0  0  0  0
  -25.9328  -32.4590   23.8218 C   0  0  1  0  0  0
  -27.0232  -26.8210   20.3496 C   0  0  0  0  0  0
  -25.6009  -33.8408   24.2122 N   0  0  0  0  0  0
  -23.4709  -30.4523   21.5247 C   0  0  2  0  0  0
  -24.9023  -28.8429   20.1060 C   0  0  0  0  0  0
  -22.7654  -29.4481   22.4750 C   0  0  0  0  0  0
  -18.0335  -28.1395   22.8469 C   0  0  0  0  0  0
  -24.1510  -36.7188   23.2652 C   0  0  0  0  0  0
  -26.0400  -30.6137   21.4207 C   0  0  0  0  0  0
  -26.0773  -29.1948   20.7820 C   0  0  0  0  0  0
  -27.1513  -28.2002   20.8781 C   0  0  0  0  0  0
  -25.8905  -26.6688   19.5301 C   0  0  0  0  0  0
  -24.8480  -27.6142   19.4350 C   0  0  0  0  0  0
  -23.7090  -29.7926   20.1385 C   0  0  0  0  0  0
  -25.4148  -36.2961   24.0309 C   0  0  1  0  0  0
  -20.5962  -28.3743   23.1177 C   0  0  2  0  0  0
  -20.6801  -26.9420   22.5401 C   0  0  0  0  0  0
  -19.5767  -26.6369   21.5214 C   0  0  0  0  0  0
  -18.1958  -26.7924   22.1633 C   0  0  0  0  0  0
  -19.1598  -28.8892   23.2812 C   0  0  0  0  0  0
  -18.9494  -30.1487   23.8840 C   0  0  0  0  0  0
  -17.6485  -30.6583   24.0555 C   0  0  0  0  0  0
  -25.9107  -34.9337   23.5029 C   0  0  0  0  0  0
  -16.5382  -29.9066   23.6343 C   0  0  0  0  0  0
  -16.7314  -28.6492   23.0353 C   0  0  0  0  0  0
  -26.4561  -31.6540   25.0762 C   0  0  0  0  0  0
  -25.3682  -31.3781   26.1421 C   0  0  0  0  0  0
  -27.0466  -30.2909   24.6515 C   0  0  0  0  0  0
  -27.6075  -32.4339   25.7542 C   0  0  0  0  0  0
  -27.5574  -37.1766   24.8469 C   0  0  0  0  0  0
  -21.4329  -29.3042   22.3519 N   0  0  0  0  0  0
  -26.4285  -37.3702   23.9406 N   0  0  0  0  0  0
  -24.7461  -30.9946   22.0931 N   0  0  0  0  0  0
  -23.4238  -28.8041   23.2959 O   0  0  0  0  0  0
  -27.8141  -25.5792   20.5831 O   0  0  0  0  0  0
  -26.5702  -34.8858   22.4619 O   0  0  0  0  0  0
  -23.5700  -32.1266   23.6868 O   0  0  0  0  0  0
  -27.1861  -15.9162   21.9865 C   0  0  0  0  0  0
  -26.4474  -17.3744   23.6721 C   0  0  0  0  0  0
  -27.0153  -17.3960   22.3826 C   0  0  0  0  0  0
  -26.9095  -14.5595   22.7311 C   0  0  0  0  0  0
  -26.1340  -16.1596   24.3755 C   0  0  0  0  0  0
  -27.6905   -9.9784   22.4231 C   0  0  0  0  0  0
  -25.0436  -17.6265   26.1906 C   0  0  0  0  0  0
  -26.4813  -15.6900   26.8266 C   0  0  0  0  0  0
  -24.2090  -15.3256   25.7850 C   0  0  0  0  0  0
  -28.2906   -9.3312   19.4518 C   0  0  0  0  0  0
  -26.2262   -9.9296   18.7413 C   0  0  0  0  0  0
  -27.4614  -18.9386   21.6042 C   0  0  0  0  0  0
  -27.1327  -12.7064   22.6254 C   0  0  0  0  0  0
  -26.9965  -20.7168   21.7024 C   0  0  0  0  0  0
  -27.7039  -22.3056   21.0830 C   0  0  0  0  0  0
  -28.0944  -11.8628   18.1242 C   0  0  0  0  0  0
  -27.1683  -24.0646   20.9457 C   0  0  0  0  0  0
  -27.1105  -11.0905   21.4930 C   0  0  1  0  0  0
  -25.4799  -16.2031   25.7745 C   0  0  0  0  0  0
  -27.4190  -10.6631   19.4990 C   0  0  0  0  0  0
  -26.3879  -14.8782   23.9409 N   0  0  0  0  0  0
  -29.2519  -13.2063   17.9742 N   0  0  0  0  0  0
  -32.1166  -12.8108   19.5231 H   0  0  0  0  0  0
  -31.5201  -12.5816   21.1194 H   0  0  0  0  0  0
  -30.8609  -10.7335   20.0745 H   0  0  0  0  0  0
  -30.3960  -11.3121   18.5839 H   0  0  0  0  0  0
  -29.4296  -12.1015   21.5068 H   0  0  0  0  0  0
  -29.1397  -11.0685   20.8680 H   0  0  0  0  0  0
  -27.7711  -14.0111   19.3733 H   0  0  0  0  0  0
  -29.2442  -14.0270   21.9241 H   0  0  0  0  0  0
  -29.0816  -15.1713   20.6810 H   0  0  0  0  0  0
  -24.8857   -9.8037   22.7604 H   0  0  0  0  0  0
  -23.8578   -7.6486   22.8772 H   0  0  0  0  0  0
  -21.1470   -8.7882   19.7289 H   0  0  0  0  0  0
  -22.3411  -10.9172   19.4403 H   0  0  0  0  0  0
  -21.2009   -7.6213   23.9609 H   0  0  0  0  0  0
  -21.1499   -6.0569   25.8976 H   0  0  0  0  0  0
  -22.0650   -2.7666   23.2697 H   0  0  0  0  0  0
  -22.3985  -12.0799   22.5024 H   0  0  0  0  0  0
  -21.0359  -13.1476   22.3289 H   0  0  0  0  0  0
  -24.3947  -16.0112   20.3271 H   0  0  0  0  0  0
  -26.0213  -15.8557   19.8941 H   0  0  0  0  0  0
  -26.7398  -32.5085   23.0927 H   0  0  0  0  0  0
  -25.0110  -33.9492   25.0242 H   0  0  0  0  0  0
  -22.7837  -31.2870   21.3698 H   0  0  0  0  0  0
  -23.3781  -35.9505   23.3280 H   0  0  0  0  0  0
  -24.3594  -36.8860   22.2069 H   0  0  0  0  0  0
  -23.7246  -37.6370   23.6714 H   0  0  0  0  0  0
  -26.2309  -31.3446   20.6335 H   0  0  0  0  0  0
  -26.9011  -30.6672   22.0755 H   0  0  0  0  0  0
  -28.0189  -28.4428   21.4760 H   0  0  0  0  0  0
  -25.7393  -25.7271   19.0222 H   0  0  0  0  0  0
  -23.9652  -27.3581   18.8662 H   0  0  0  0  0  0
  -23.8832  -30.5740   19.3960 H   0  0  0  0  0  0
  -22.8099  -29.2700   19.8061 H   0  0  0  0  0  0
  -25.1346  -36.1773   25.0798 H   0  0  0  0  0  0
  -21.0050  -28.3340   24.1293 H   0  0  0  0  0  0
  -20.5673  -26.2355   23.3636 H   0  0  0  0  0  0
  -21.6658  -26.7375   22.1212 H   0  0  0  0  0  0
  -19.6913  -25.6266   21.1263 H   0  0  0  0  0  0
  -19.6699  -27.3152   20.6713 H   0  0  0  0  0  0
  -17.4225  -26.6670   21.4041 H   0  0  0  0  0  0
  -18.0357  -26.0083   22.9041 H   0  0  0  0  0  0
  -19.7974  -30.7332   24.2163 H   0  0  0  0  0  0
  -17.5032  -31.6244   24.5174 H   0  0  0  0  0  0
  -15.5375  -30.2939   23.7685 H   0  0  0  0  0  0
  -15.8721  -28.0785   22.7075 H   0  0  0  0  0  0
  -24.5890  -30.7100   25.7737 H   0  0  0  0  0  0
  -24.8824  -32.2958   26.4736 H   0  0  0  0  0  0
  -25.7906  -30.9038   27.0285 H   0  0  0  0  0  0
  -26.3144  -29.6591   24.1482 H   0  0  0  0  0  0
  -27.3944  -29.7285   25.5189 H   0  0  0  0  0  0
  -27.9103  -30.4106   23.9976 H   0  0  0  0  0  0
  -27.2687  -33.3699   26.1990 H   0  0  0  0  0  0
  -28.3932  -32.6806   25.0391 H   0  0  0  0  0  0
  -28.0685  -31.8553   26.5559 H   0  0  0  0  0  0
  -28.2584  -38.0076   24.7517 H   0  0  0  0  0  0
  -28.1088  -36.2602   24.6297 H   0  0  0  0  0  0
  -27.2284  -37.1394   25.8874 H   0  0  0  0  0  0
  -20.9565  -29.8757   21.6685 H   0  0  0  0  0  0
  -26.0135  -38.2770   24.1394 H   0  0  0  0  0  0
  -27.4137  -15.9125   20.9447 H   0  0  0  0  0  0
  -26.2593  -18.3355   24.1209 H   0  0  0  0  0  0
  -27.1954   -9.9880   23.3962 H   0  0  0  0  0  0
  -28.7521  -10.0928   22.6425 H   0  0  0  0  0  0
  -27.5438   -8.9776   22.0179 H   0  0  0  0  0  0
  -25.8930  -18.3058   26.2810 H   0  0  0  0  0  0
  -24.5434  -17.6230   27.1595 H   0  0  0  0  0  0
  -24.3442  -18.0526   25.4693 H   0  0  0  0  0  0
  -27.3864  -16.2983   26.8316 H   0  0  0  0  0  0
  -26.7783  -14.6593   26.6290 H   0  0  0  0  0  0
  -26.0595  -15.7208   27.8308 H   0  0  0  0  0  0
  -24.4376  -14.2784   25.5860 H   0  0  0  0  0  0
  -23.4991  -15.6521   25.0246 H   0  0  0  0  0  0
  -23.7002  -15.3631   26.7484 H   0  0  0  0  0  0
  -28.6055   -9.0871   18.4345 H   0  0  0  0  0  0
  -27.7355   -8.4651   19.8210 H   0  0  0  0  0  0
  -29.2077   -9.2879   20.0271 H   0  0  0  0  0  0
  -26.5469   -9.3063   17.9036 H   0  0  0  0  0  0
  -25.5283  -10.5909   18.2314 H   0  0  0  0  0  0
  -25.6507   -9.2892   19.4077 H   0  0  0  0  0  0
  -27.3897  -18.7012   20.5422 H   0  0  0  0  0  0
  -28.5370  -18.9614   21.7774 H   0  0  0  0  0  0
  -26.3930  -12.4055   23.3680 H   0  0  0  0  0  0
  -28.0577  -12.5942   23.1867 H   0  0  0  0  0  0
  -26.8890  -20.8935   22.7726 H   0  0  0  0  0  0
  -25.9713  -20.7275   21.3358 H   0  0  0  0  0  0
  -28.0037  -22.0696   20.0621 H   0  0  0  0  0  0
  -28.6554  -22.3712   21.6108 H   0  0  0  0  0  0
  -27.1905  -12.3273   17.7301 H   0  0  0  0  0  0
  -28.3805  -11.2005   17.3088 H   0  0  0  0  0  0
  -26.6979  -24.2577   21.9105 H   0  0  0  0  0  0
  -26.3174  -23.9982   20.2701 H   0  0  0  0  0  0
  -26.1759  -10.6817   21.6401 H   0  0  0  0  0  0
  -29.3653  -13.4498   16.9997 H   0  0  0  0  0  0
  1 25  1  0  0  0
  1 30  2  0  0  0
  1 92  1  0  0  0
  2  3  1  0  0  0
  2 25  1  0  0  0
  2 93  1  0  0  0
  2 94  1  0  0  0
  3  4  1  0  0  0
  3 95  1  0  0  0
  3 96  1  0  0  0
  4  5  1  0  0  0
  4 97  1  0  0  0
  4 98  1  0  0  0
  5  6  1  0  0  0
  5 26  1  0  0  0
  5 99  1  0  0  0
  6 25  1  0  0  0
  6100  1  0  0  0
  6101  1  0  0  0
  7  8  2  0  0  0
  7 26  1  0  0  0
  7 29  1  0  0  0
  8  9  1  0  0  0
  8 22  1  0  0  0
  9 10  1  0  0  0
  9 27  2  0  0  0
 10 11  2  0  0  0
 10 15  1  0  0  0
 11 12  1  0  0  0
 11102  1  0  0  0
 12 13  2  0  0  0
 12103  1  0  0  0
 13 14  1  0  0  0
 13 31  1  0  0  0
 14 15  2  0  0  0
 14104  1  0  0  0
 15105  1  0  0  0
 16 17  2  0  0  0
 16 21  1  0  0  0
 16 31  1  0  0  0
 17 18  1  0  0  0
 17106  1  0  0  0
 18 19  2  0  0  0
 18107  1  0  0  0
 19 20  1  0  0  0
 19 24  1  0  0  0
 20 21  2  0  0  0
 20108  1  0  0  0
 21 23  1  0  0  0
 22 28  1  0  0  0
 22 32  2  0  0  0
 26 27  1  0  0  0
 28109  1  0  0  0
 28110  1  0  0  0
 29111  1  0  0  0
 29112  1  0  0  0
 33 34  1  0  0  0
 33 66  1  0  0  0
 33 70  2  0  0  0
 34 36  1  0  0  0
 34 59  1  0  0  0
 34113  1  0  0  0
 35 44  2  0  0  0
 35 45  1  0  0  0
 35 68  1  0  0  0
 36 56  1  0  0  0
 36114  1  0  0  0
 37 39  1  0  0  0
 37 47  1  0  0  0
 37 66  1  0  0  0
 37115  1  0  0  0
 38 43  2  0  0  0
 38 46  1  0  0  0
 38 47  1  0  0  0
 39 64  1  0  0  0
 39 67  2  0  0  0
 40 52  1  0  0  0
 40 53  2  0  0  0
 40 58  1  0  0  0
 41116  1  0  0  0
 41117  1  0  0  0
 41118  1  0  0  0
 41 48  1  0  0  0
 42 43  1  0  0  0
 42 66  1  0  0  0
 42119  1  0  0  0
 42120  1  0  0  0
 43 44  1  0  0  0
 44121  1  0  0  0
 45 46  2  0  0  0
 45122  1  0  0  0
 46123  1  0  0  0
 47124  1  0  0  0
 47125  1  0  0  0
 48 56  1  0  0  0
 48 65  1  0  0  0
 48126  1  0  0  0
 49 50  1  0  0  0
 49 53  1  0  0  0
 49 64  1  0  0  0
 49127  1  0  0  0
 50 51  1  0  0  0
 50128  1  0  0  0
 50129  1  0  0  0
 51 52  1  0  0  0
 51130  1  0  0  0
 51131  1  0  0  0
 52132  1  0  0  0
 52133  1  0  0  0
 53 54  1  0  0  0
 54 55  2  0  0  0
 54134  1  0  0  0
 55 57  1  0  0  0
 55135  1  0  0  0
 56 69  2  0  0  0
 57 58  2  0  0  0
 57136  1  0  0  0
 58137  1  0  0  0
 59 60  1  0  0  0
 59 61  1  0  0  0
 59 62  1  0  0  0
 60138  1  0  0  0
 60139  1  0  0  0
 60140  1  0  0  0
 61141  1  0  0  0
 61142  1  0  0  0
 61143  1  0  0  0
 62144  1  0  0  0
 62145  1  0  0  0
 62146  1  0  0  0
 63 65  1  0  0  0
 63147  1  0  0  0
 63148  1  0  0  0
 63149  1  0  0  0
 64150  1  0  0  0
 65151  1  0  0  0
 68 87  1  0  0  0
 71 73  2  0  0  0
 71 74  1  0  0  0
 71152  1  0  0  0
 72 73  1  0  0  0
 72 75  2  0  0  0
 72153  1  0  0  0
 73 82  1  0  0  0
 74 83  1  0  0  0
 74 91  2  0  0  0
 75 89  1  0  0  0
 75 91  1  0  0  0
 76154  1  0  0  0
 76155  1  0  0  0
 76156  1  0  0  0
 76 88  1  0  0  0
 77157  1  0  0  0
 77158  1  0  0  0
 77159  1  0  0  0
 77 89  1  0  0  0
 78 89  1  0  0  0
 78160  1  0  0  0
 78161  1  0  0  0
 78162  1  0  0  0
 79 89  1  0  0  0
 79163  1  0  0  0
 79164  1  0  0  0
 79165  1  0  0  0
 80166  1  0  0  0
 80167  1  0  0  0
 80168  1  0  0  0
 80 90  1  0  0  0
 81 90  1  0  0  0
 81169  1  0  0  0
 81170  1  0  0  0
 81171  1  0  0  0
 82 84  1  0  0  0
 82172  1  0  0  0
 82173  1  0  0  0
 83 88  1  0  0  0
 83174  1  0  0  0
 83175  1  0  0  0
 84 85  1  0  0  0
 84176  1  0  0  0
 84177  1  0  0  0
 85 87  1  0  0  0
 85178  1  0  0  0
 85179  1  0  0  0
 86 90  1  0  0  0
 86 92  1  0  0  0
 86180  1  0  0  0
 86181  1  0  0  0
 87182  1  0  0  0
 87183  1  0  0  0
 88 90  1  0  0  0
 88184  1  0  0  0
 92185  1  0  0  0
M  ISO  4   1 100  68 101  87 101  92 100
M  END
> <chiral flag>
0

> <version>
0

> <s_m_source_file>
/data/baiqing/PycharmProjects/Reinvent-master-3.2/result/LINK_invent/BTK/process_docking_weight1_custom_sum_contain_oxygen_bond_distance_aromatic_linkinvent_7_9_3/rearranged_h_0086.sdf

> <i_m_source_file_index>
59

> <r_mmod_Potential_Energy-OPLS-2005>
6971.79541015625

> <r_mmod_Stretch_Energy-OPLS-2005>
2046.5185546875

> <r_mmod_Bend_Energy-OPLS-2005>
1591.40222167969

> <r_mmod_Torsional_Energy-OPLS-2005>
459.431823730469

> <r_mmod_Improper_Torsional_Energy-OPLS-2005>
17.3212795257568

> <r_mmod_Van_der_Waal_Energy-OPLS-2005>
1244.86145019531

> <r_mmod_Electrostatic_Energy-OPLS-2005>
-576.660522460938

> <r_mmod_Solvation_Energy-OPLS-2005>
-207.683883666992

> <b_mmod_Minimization_Converged-OPLS-2005>
0

> <r_mmod_RMS_Derivative-OPLS-2005>
3.839839220047

$$$$
60
                    3D
 Structure written by MMmdl.
163171  0  0  1  0            999 V2000
  -30.6557  -14.6942   20.5447 C   0  0  0  0  0  0
  -30.4459  -12.4327   19.4994 C   0  0  0  0  0  0
  -29.5221  -12.5372   18.2621 C   0  0  0  0  0  0
  -28.0481  -12.3528   18.6719 C   0  0  0  0  0  0
  -27.6609  -13.2353   19.8911 C   0  0  2  0  0  0
  -28.7100  -13.1054   21.0264 C   0  0  0  0  0  0
  -25.2560  -13.8174   20.5849 C   0  0  0  0  0  0
  -24.1828  -13.0396   20.9226 C   0  0  0  0  0  0
  -24.6448  -11.6901   20.8728 C   0  0  0  0  0  0
  -23.9086  -10.4274   21.0378 C   0  0  0  0  0  0
  -24.3585   -9.4198   21.9194 C   0  0  0  0  0  0
  -23.6274   -8.2235   22.0757 C   0  0  0  0  0  0
  -22.4262   -8.0282   21.3558 C   0  0  0  0  0  0
  -21.9906   -9.0236   20.4638 C   0  0  0  0  0  0
  -22.7229  -10.2117   20.3045 C   0  0  0  0  0  0
  -21.6849   -6.0702   22.5297 C   0  0  0  0  0  0
  -21.4017   -6.5612   23.8215 C   0  0  0  0  0  0
  -21.3665   -5.6774   24.9166 C   0  0  0  0  0  0
  -21.6071   -4.3047   24.7240 C   0  0  0  0  0  0
  -21.8815   -3.8125   23.4367 C   0  0  0  0  0  0
  -21.9201   -4.6930   22.3411 C   0  0  0  0  0  0
  -22.7825  -13.5162   21.1882 C   0  0  0  0  0  0
  -22.1662   -4.2119   21.0978 F   0  0  0  0  0  0
  -21.5635   -3.4537   25.7750 F   0  0  0  0  0  0
  -30.0217  -13.4726   20.4697 N   0  0  0  0  0  0
  -26.3050  -12.9426   20.3516 N   0  0  0  0  0  0
  -25.9402  -11.6547   20.5827 N   0  0  0  0  0  0
  -22.0455  -12.8141   22.0404 N   0  0  0  0  0  0
  -25.4221  -15.1895   20.4307 N   0  0  0  0  0  0
  -31.7928  -14.8292   20.0750 O   0  0  0  0  0  0
  -21.6657   -6.8854   21.4266 O   0  0  0  0  0  0
  -22.3502  -14.5457   20.6733 O   0  0  0  0  0  0
  -24.6293  -31.8596   23.2066 C   0  0  0  0  0  0
  -25.9107  -32.4783   23.8397 C   0  0  1  0  0  0
  -27.2126  -27.2480   20.1554 C   0  0  0  0  0  0
  -25.5937  -33.8578   24.2302 N   0  0  0  0  0  0
  -23.4300  -30.4775   21.5476 C   0  0  2  0  0  0
  -24.8798  -28.9372   20.1059 C   0  0  0  0  0  0
  -22.7503  -29.4602   22.4949 C   0  0  0  0  0  0
  -18.0291  -28.1444   22.8616 C   0  0  0  0  0  0
  -24.1484  -36.7294   23.2638 C   0  0  0  0  0  0
  -25.9731  -30.7609   21.3949 C   0  0  0  0  0  0
  -26.0461  -29.3850   20.7365 C   0  0  0  0  0  0
  -27.2145  -28.5560   20.7549 C   0  0  0  0  0  0
  -26.0349  -26.8957   19.4505 C   0  0  0  0  0  0
  -24.8849  -27.7079   19.4382 C   0  0  0  0  0  0
  -23.6485  -29.8202   20.1611 C   0  0  0  0  0  0
  -25.4116  -36.3087   24.0327 C   0  0  1  0  0  0
  -20.5883  -28.3858   23.1421 C   0  0  2  0  0  0
  -20.6746  -26.9473   22.5836 C   0  0  0  0  0  0
  -19.5850  -26.6411   21.5534 C   0  0  0  0  0  0
  -18.2044  -26.7874   22.1980 C   0  0  0  0  0  0
  -19.1534  -28.9010   23.2903 C   0  0  0  0  0  0
  -18.9401  -30.1696   23.8749 C   0  0  0  0  0  0
  -17.6389  -30.6744   24.0376 C   0  0  0  0  0  0
  -25.9054  -34.9449   23.5101 C   0  0  0  0  0  0
  -16.5304  -29.9098   23.6319 C   0  0  0  0  0  0
  -16.7280  -28.6472   23.0443 C   0  0  0  0  0  0
  -26.4489  -31.6620   25.0791 C   0  0  0  0  0  0
  -25.3773  -31.3680   26.1546 C   0  0  0  0  0  0
  -27.0325  -30.3044   24.6250 C   0  0  0  0  0  0
  -27.5997  -32.4405   25.7570 C   0  0  0  0  0  0
  -27.5574  -37.1779   24.8464 C   0  0  0  0  0  0
  -21.4243  -29.3017   22.3611 N   0  0  0  0  0  0
  -26.4283  -37.3786   23.9393 N   0  0  0  0  0  0
  -24.6951  -31.0512   22.1060 N   0  0  0  0  0  0
  -23.4165  -28.8260   23.3149 O   0  0  0  0  0  0
  -28.2612  -26.2959   20.2950 O   0  0  0  0  0  0
  -26.5611  -34.8886   22.4661 O   0  0  0  0  0  0
  -23.5445  -32.1433   23.7329 O   0  0  0  0  0  0
  -28.9253  -23.2094   22.1383 C   0  0  0  0  0  0
  -28.6446  -23.5718   20.7812 C   0  0  0  0  0  0
  -29.2091  -21.8562   22.2131 C   0  0  0  0  0  0
  -28.9696  -22.4114   20.0739 C   0  0  0  0  0  0
  -28.7581  -24.1518   23.3072 C   0  0  0  0  0  0
  -29.3154  -20.9965   23.4332 C   0  0  0  0  0  0
  -28.9106  -22.1544   18.5998 C   0  0  0  0  0  0
  -31.4496  -18.8194   21.7637 C   0  0  0  0  0  0
  -27.8202  -24.8531   20.2902 C   0  0  0  0  0  0
  -29.4281  -19.8580   20.4442 C   0  0  0  0  0  0
  -29.9919  -17.2105   20.3678 C   0  0  0  0  0  0
  -30.0131  -18.5722   21.2481 C   0  0  1  0  0  0
  -29.2721  -21.3147   20.9288 N   0  0  0  0  0  0
  -29.9424  -15.8002   20.9570 N   0  0  0  0  0  0
  -31.4948  -12.5347   19.2112 H   0  0  0  0  0  0
  -30.3662  -11.4435   19.9554 H   0  0  0  0  0  0
  -29.8087  -11.7947   17.5173 H   0  0  0  0  0  0
  -29.6591  -13.5111   17.7894 H   0  0  0  0  0  0
  -27.9017  -11.2998   18.9195 H   0  0  0  0  0  0
  -27.3852  -12.5661   17.8327 H   0  0  0  0  0  0
  -27.6728  -14.2703   19.5492 H   0  0  0  0  0  0
  -28.7442  -12.0735   21.3859 H   0  0  0  0  0  0
  -28.4620  -13.7143   21.8971 H   0  0  0  0  0  0
  -25.2711   -9.5675   22.4775 H   0  0  0  0  0  0
  -23.9984   -7.4621   22.7461 H   0  0  0  0  0  0
  -21.0849   -8.8738   19.8913 H   0  0  0  0  0  0
  -22.3701  -10.9644   19.6130 H   0  0  0  0  0  0
  -21.2005   -7.6119   23.9712 H   0  0  0  0  0  0
  -21.1486   -6.0496   25.9066 H   0  0  0  0  0  0
  -22.0592   -2.7610   23.2877 H   0  0  0  0  0  0
  -22.4054  -11.9796   22.4792 H   0  0  0  0  0  0
  -21.1065  -13.1149   22.2575 H   0  0  0  0  0  0
  -24.6497  -15.8333   20.5601 H   0  0  0  0  0  0
  -26.2759  -15.6506   20.1472 H   0  0  0  0  0  0
  -26.7136  -32.5392   23.1111 H   0  0  0  0  0  0
  -25.0130  -33.9716   25.0472 H   0  0  0  0  0  0
  -22.7298  -31.3044   21.4134 H   0  0  0  0  0  0
  -23.3758  -35.9624   23.3343 H   0  0  0  0  0  0
  -24.3580  -36.8868   22.2047 H   0  0  0  0  0  0
  -23.7214  -37.6465   23.6685 H   0  0  0  0  0  0
  -26.1094  -31.5159   20.6218 H   0  0  0  0  0  0
  -26.8524  -30.8187   22.0255 H   0  0  0  0  0  0
  -28.0930  -28.8900   21.2859 H   0  0  0  0  0  0
  -25.9493  -25.9630   18.9179 H   0  0  0  0  0  0
  -23.9986  -27.3853   18.9081 H   0  0  0  0  0  0
  -23.7684  -30.6033   19.4122 H   0  0  0  0  0  0
  -22.7714  -29.2504   19.8510 H   0  0  0  0  0  0
  -25.1289  -36.1951   25.0824 H   0  0  0  0  0  0
  -20.9959  -28.3689   24.1567 H   0  0  0  0  0  0
  -20.5344  -26.2592   23.4189 H   0  0  0  0  0  0
  -21.6650  -26.7216   22.1875 H   0  0  0  0  0  0
  -19.7129  -25.6339   21.1551 H   0  0  0  0  0  0
  -19.6763  -27.3287   20.7099 H   0  0  0  0  0  0
  -17.4183  -26.6306   21.4575 H   0  0  0  0  0  0
  -18.0770  -26.0201   22.9645 H   0  0  0  0  0  0
  -19.7859  -30.7654   24.1928 H   0  0  0  0  0  0
  -17.4852  -31.6523   24.4735 H   0  0  0  0  0  0
  -15.5278  -30.2916   23.7573 H   0  0  0  0  0  0
  -15.8720  -28.0656   22.7313 H   0  0  0  0  0  0
  -24.5948  -30.7063   25.7840 H   0  0  0  0  0  0
  -24.9024  -32.2822   26.5098 H   0  0  0  0  0  0
  -25.8153  -30.8737   27.0235 H   0  0  0  0  0  0
  -26.2887  -29.6832   24.1271 H   0  0  0  0  0  0
  -27.3983  -29.7239   25.4709 H   0  0  0  0  0  0
  -27.8795  -30.4274   23.9524 H   0  0  0  0  0  0
  -27.2544  -33.3678   26.2142 H   0  0  0  0  0  0
  -28.3820  -32.7011   25.0457 H   0  0  0  0  0  0
  -28.0741  -31.8626   26.5496 H   0  0  0  0  0  0
  -28.2564  -38.0083   24.7515 H   0  0  0  0  0  0
  -28.1079  -36.2598   24.6339 H   0  0  0  0  0  0
  -27.2299  -37.1502   25.8861 H   0  0  0  0  0  0
  -20.9538  -29.8433   21.6499 H   0  0  0  0  0  0
  -26.0180  -38.2841   24.1448 H   0  0  0  0  0  0
  -27.7181  -24.1728   23.6264 H   0  0  0  0  0  0
  -29.0468  -25.1653   23.0168 H   0  0  0  0  0  0
  -29.3837  -23.8552   24.1485 H   0  0  0  0  0  0
  -28.6533  -20.1351   23.3533 H   0  0  0  0  0  0
  -30.3223  -20.6395   23.6148 H   0  0  0  0  0  0
  -29.0586  -21.5435   24.3397 H   0  0  0  0  0  0
  -28.1883  -21.3676   18.3717 H   0  0  0  0  0  0
  -29.8920  -21.8502   18.2340 H   0  0  0  0  0  0
  -28.6249  -23.0389   18.0360 H   0  0  0  0  0  0
  -31.5460  -19.7305   22.3375 H   0  0  0  0  0  0
  -32.1581  -18.9593   20.9498 H   0  0  0  0  0  0
  -31.7987  -18.0014   22.4072 H   0  0  0  0  0  0
  -26.9563  -24.8222   20.9617 H   0  0  0  0  0  0
  -27.4335  -24.5789   19.3110 H   0  0  0  0  0  0
  -28.4294  -19.5565   20.1325 H   0  0  0  0  0  0
  -30.0084  -19.9131   19.5255 H   0  0  0  0  0  0
  -30.7950  -17.2623   19.6333 H   0  0  0  0  0  0
  -29.0812  -17.2641   19.7721 H   0  0  0  0  0  0
  -29.3634  -18.4007   22.1038 H   0  0  0  0  0  0
  -29.0699  -15.5689   21.4100 H   0  0  0  0  0  0
  1 25  1  0  0  0
  1 30  2  0  0  0
  1 84  1  0  0  0
  2  3  1  0  0  0
  2 25  1  0  0  0
  2 85  1  0  0  0
  2 86  1  0  0  0
  3  4  1  0  0  0
  3 87  1  0  0  0
  3 88  1  0  0  0
  4  5  1  0  0  0
  4 89  1  0  0  0
  4 90  1  0  0  0
  5  6  1  0  0  0
  5 26  1  0  0  0
  5 91  1  0  0  0
  6 25  1  0  0  0
  6 92  1  0  0  0
  6 93  1  0  0  0
  7  8  2  0  0  0
  7 26  1  0  0  0
  7 29  1  0  0  0
  8  9  1  0  0  0
  8 22  1  0  0  0
  9 10  1  0  0  0
  9 27  2  0  0  0
 10 11  2  0  0  0
 10 15  1  0  0  0
 11 12  1  0  0  0
 11 94  1  0  0  0
 12 13  2  0  0  0
 12 95  1  0  0  0
 13 14  1  0  0  0
 13 31  1  0  0  0
 14 15  2  0  0  0
 14 96  1  0  0  0
 15 97  1  0  0  0
 16 17  2  0  0  0
 16 21  1  0  0  0
 16 31  1  0  0  0
 17 18  1  0  0  0
 17 98  1  0  0  0
 18 19  2  0  0  0
 18 99  1  0  0  0
 19 20  1  0  0  0
 19 24  1  0  0  0
 20 21  2  0  0  0
 20100  1  0  0  0
 21 23  1  0  0  0
 22 28  1  0  0  0
 22 32  2  0  0  0
 26 27  1  0  0  0
 28101  1  0  0  0
 28102  1  0  0  0
 29103  1  0  0  0
 29104  1  0  0  0
 33 34  1  0  0  0
 33 66  1  0  0  0
 33 70  2  0  0  0
 34 36  1  0  0  0
 34 59  1  0  0  0
 34105  1  0  0  0
 35 44  2  0  0  0
 35 45  1  0  0  0
 35 68  1  0  0  0
 36 56  1  0  0  0
 36106  1  0  0  0
 37 39  1  0  0  0
 37 47  1  0  0  0
 37 66  1  0  0  0
 37107  1  0  0  0
 38 43  2  0  0  0
 38 46  1  0  0  0
 38 47  1  0  0  0
 39 64  1  0  0  0
 39 67  2  0  0  0
 40 52  1  0  0  0
 40 53  2  0  0  0
 40 58  1  0  0  0
 41108  1  0  0  0
 41109  1  0  0  0
 41110  1  0  0  0
 41 48  1  0  0  0
 42 43  1  0  0  0
 42 66  1  0  0  0
 42111  1  0  0  0
 42112  1  0  0  0
 43 44  1  0  0  0
 44113  1  0  0  0
 45 46  2  0  0  0
 45114  1  0  0  0
 46115  1  0  0  0
 47116  1  0  0  0
 47117  1  0  0  0
 48 56  1  0  0  0
 48 65  1  0  0  0
 48118  1  0  0  0
 49 50  1  0  0  0
 49 53  1  0  0  0
 49 64  1  0  0  0
 49119  1  0  0  0
 50 51  1  0  0  0
 50120  1  0  0  0
 50121  1  0  0  0
 51 52  1  0  0  0
 51122  1  0  0  0
 51123  1  0  0  0
 52124  1  0  0  0
 52125  1  0  0  0
 53 54  1  0  0  0
 54 55  2  0  0  0
 54126  1  0  0  0
 55 57  1  0  0  0
 55127  1  0  0  0
 56 69  2  0  0  0
 57 58  2  0  0  0
 57128  1  0  0  0
 58129  1  0  0  0
 59 60  1  0  0  0
 59 61  1  0  0  0
 59 62  1  0  0  0
 60130  1  0  0  0
 60131  1  0  0  0
 60132  1  0  0  0
 61133  1  0  0  0
 61134  1  0  0  0
 61135  1  0  0  0
 62136  1  0  0  0
 62137  1  0  0  0
 62138  1  0  0  0
 63 65  1  0  0  0
 63139  1  0  0  0
 63140  1  0  0  0
 63141  1  0  0  0
 64142  1  0  0  0
 65143  1  0  0  0
 68 79  1  0  0  0
 71 72  1  0  0  0
 71 73  2  0  0  0
 71 75  1  0  0  0
 72 74  2  0  0  0
 72 79  1  0  0  0
 73 76  1  0  0  0
 73 83  1  0  0  0
 74 77  1  0  0  0
 74 83  1  0  0  0
 75144  1  0  0  0
 75145  1  0  0  0
 75146  1  0  0  0
 76147  1  0  0  0
 76148  1  0  0  0
 76149  1  0  0  0
 77150  1  0  0  0
 77151  1  0  0  0
 77152  1  0  0  0
 78153  1  0  0  0
 78154  1  0  0  0
 78155  1  0  0  0
 78 82  1  0  0  0
 79156  1  0  0  0
 79157  1  0  0  0
 80 82  1  0  0  0
 80 83  1  0  0  0
 80158  1  0  0  0
 80159  1  0  0  0
 81 82  1  0  0  0
 81 84  1  0  0  0
 81160  1  0  0  0
 81161  1  0  0  0
 82162  1  0  0  0
 84163  1  0  0  0
M  ISO  4   1 100  68 101  79 101  84 100
M  END
> <chiral flag>
0

> <version>
0

> <s_m_source_file>
/data/baiqing/PycharmProjects/Reinvent-master-3.2/result/LINK_invent/BTK/process_docking_weight1_custom_sum_contain_oxygen_bond_distance_aromatic_linkinvent_7_9_3/rearranged_h_0086.sdf

> <i_m_source_file_index>
60

> <r_mmod_Potential_Energy-OPLS-2005>
215.481094360352

> <r_mmod_Stretch_Energy-OPLS-2005>
124.197883605957

> <r_mmod_Bend_Energy-OPLS-2005>
211.630905151367

> <r_mmod_Torsional_Energy-OPLS-2005>
259.707702636719

> <r_mmod_Improper_Torsional_Energy-OPLS-2005>
11.0446949005127

> <r_mmod_Van_der_Waal_Energy-OPLS-2005>
128.117584228516

> <r_mmod_Electrostatic_Energy-OPLS-2005>
-384.829315185547

> <r_mmod_Solvation_Energy-OPLS-2005>
-220.454010009766

> <b_mmod_Minimization_Converged-OPLS-2005>
0

> <r_mmod_RMS_Derivative-OPLS-2005>
9.04461669921875

$$$$
61
                    3D
 Structure written by MMmdl.
164172  0  0  1  0            999 V2000
  -30.5483  -14.8836   20.4642 C   0  0  0  0  0  0
  -30.4499  -12.5404   19.5106 C   0  0  0  0  0  0
  -29.5285  -12.5025   18.2654 C   0  0  0  0  0  0
  -28.0660  -12.2846   18.6857 C   0  0  0  0  0  0
  -27.6467  -13.2183   19.8512 C   0  0  2  0  0  0
  -28.6862  -13.1975   20.9977 C   0  0  0  0  0  0
  -25.2570  -13.8143   20.5672 C   0  0  0  0  0  0
  -24.1813  -13.0451   20.9161 C   0  0  0  0  0  0
  -24.6343  -11.6891   20.8697 C   0  0  0  0  0  0
  -23.8989  -10.4298   21.0385 C   0  0  0  0  0  0
  -24.3531   -9.4240   21.9189 C   0  0  0  0  0  0
  -23.6243   -8.2265   22.0760 C   0  0  0  0  0  0
  -22.4259   -8.0248   21.3526 C   0  0  0  0  0  0
  -21.9859   -9.0188   20.4614 C   0  0  0  0  0  0
  -22.7145  -10.2105   20.3040 C   0  0  0  0  0  0
  -21.6855   -6.0700   22.5242 C   0  0  0  0  0  0
  -21.4007   -6.5609   23.8169 C   0  0  0  0  0  0
  -21.3670   -5.6755   24.9127 C   0  0  0  0  0  0
  -21.6071   -4.3018   24.7186 C   0  0  0  0  0  0
  -21.8835   -3.8111   23.4304 C   0  0  0  0  0  0
  -21.9208   -4.6934   22.3366 C   0  0  0  0  0  0
  -22.7861  -13.5281   21.1797 C   0  0  0  0  0  0
  -22.1680   -4.2105   21.0956 F   0  0  0  0  0  0
  -21.5647   -3.4529   25.7719 F   0  0  0  0  0  0
  -29.9794  -13.6134   20.4296 N   0  0  0  0  0  0
  -26.2970  -12.9286   20.3248 N   0  0  0  0  0  0
  -25.9296  -11.6460   20.5724 N   0  0  0  0  0  0
  -22.0455  -12.8304   22.0340 N   0  0  0  0  0  0
  -25.4394  -15.1824   20.4046 N   0  0  0  0  0  0
  -31.7013  -15.0246   20.0441 O   0  0  0  0  0  0
  -21.6659   -6.8816   21.4195 O   0  0  0  0  0  0
  -22.3602  -14.5605   20.6630 O   0  0  0  0  0  0
  -24.6494  -31.8430   23.1805 C   0  0  0  0  0  0
  -25.9261  -32.4681   23.8273 C   0  0  1  0  0  0
  -27.2601  -27.1564   20.1588 C   0  0  0  0  0  0
  -25.6025  -33.8475   24.2196 N   0  0  0  0  0  0
  -23.4576  -30.4570   21.5168 C   0  0  2  0  0  0
  -24.9232  -28.8901   20.1115 C   0  0  0  0  0  0
  -22.7630  -29.4533   22.4757 C   0  0  0  0  0  0
  -18.0341  -28.1464   22.8441 C   0  0  0  0  0  0
  -24.1391  -36.7126   23.2668 C   0  0  0  0  0  0
  -26.0182  -30.7184   21.3902 C   0  0  0  0  0  0
  -26.0950  -29.3361   20.7273 C   0  0  0  0  0  0
  -27.2641  -28.4865   20.7416 C   0  0  0  0  0  0
  -26.0468  -26.8092   19.5110 C   0  0  0  0  0  0
  -24.9032  -27.6347   19.4974 C   0  0  0  0  0  0
  -23.6938  -29.7768   20.1437 C   0  0  0  0  0  0
  -25.4051  -36.2964   24.0316 C   0  0  1  0  0  0
  -20.5968  -28.3732   23.1209 C   0  0  2  0  0  0
  -20.6813  -26.9424   22.5401 C   0  0  0  0  0  0
  -19.5770  -26.6383   21.5241 C   0  0  0  0  0  0
  -18.1930  -26.8010   22.1608 C   0  0  0  0  0  0
  -19.1623  -28.8936   23.2815 C   0  0  0  0  0  0
  -18.9552  -30.1539   23.8794 C   0  0  0  0  0  0
  -17.6553  -30.6635   24.0579 C   0  0  0  0  0  0
  -25.9087  -34.9389   23.5024 C   0  0  0  0  0  0
  -16.5417  -29.9107   23.6426 C   0  0  0  0  0  0
  -16.7339  -28.6569   23.0382 C   0  0  0  0  0  0
  -26.4553  -31.6610   25.0754 C   0  0  0  0  0  0
  -25.3640  -31.3819   26.1387 C   0  0  0  0  0  0
  -27.0552  -30.3016   24.6474 C   0  0  0  0  0  0
  -27.6069  -32.4407   25.7558 C   0  0  0  0  0  0
  -27.5464  -37.1706   24.8537 C   0  0  0  0  0  0
  -21.4332  -29.3014   22.3528 N   0  0  0  0  0  0
  -26.4160  -37.3746   23.9494 N   0  0  0  0  0  0
  -24.7250  -31.0303   22.0837 N   0  0  0  0  0  0
  -23.4279  -28.8110   23.2961 O   0  0  0  0  0  0
  -28.3203  -26.1679   20.2384 O   0  0  0  0  0  0
  -26.5639  -34.8908   22.4603 O   0  0  0  0  0  0
  -23.5577  -32.1332   23.6968 O   0  0  0  0  0  0
  -30.0873  -22.9257   20.0945 C   0  0  0  0  0  0
  -30.5982  -21.5635   20.1670 C   0  0  0  0  0  0
  -28.7019  -23.2415   20.2578 C   0  0  0  0  0  0
  -29.7805  -20.4100   20.4145 C   0  0  0  0  0  0
  -27.9562  -22.0115   20.4691 C   0  0  0  0  0  0
  -31.3521  -18.8213   21.8103 C   0  0  0  0  0  0
  -25.5069  -20.3993   22.2616 C   0  0  0  0  0  0
  -26.7607  -22.4485   23.1048 C   0  0  0  0  0  0
  -27.9262  -24.6904   20.0368 C   0  0  0  0  0  0
  -26.4321  -22.0206   20.5487 C   0  0  0  0  0  0
  -29.4388  -17.4951   20.4811 C   0  0  0  0  0  0
  -30.3804  -18.8728   20.5980 C   0  0  1  0  0  0
  -25.8643  -21.8704   21.9821 C   0  0  0  0  0  0
  -28.4616  -20.7142   20.5800 N   0  0  0  0  0  0
  -29.7345  -15.9727   20.8236 N   0  0  0  0  0  0
  -31.4876  -12.6878   19.2087 H   0  0  0  0  0  0
  -30.4276  -11.5756   20.0248 H   0  0  0  0  0  0
  -29.8455  -11.6967   17.6021 H   0  0  0  0  0  0
  -29.6174  -13.4246   17.6920 H   0  0  0  0  0  0
  -27.9733  -11.2442   19.0080 H   0  0  0  0  0  0
  -27.3991  -12.3961   17.8323 H   0  0  0  0  0  0
  -27.6324  -14.2245   19.4358 H   0  0  0  0  0  0
  -28.7622  -12.2028   21.4393 H   0  0  0  0  0  0
  -28.3764  -13.8555   21.8073 H   0  0  0  0  0  0
  -25.2664   -9.5787   22.4756 H   0  0  0  0  0  0
  -23.9967   -7.4708   22.7506 H   0  0  0  0  0  0
  -21.0810   -8.8657   19.8923 H   0  0  0  0  0  0
  -22.3558  -10.9612   19.6151 H   0  0  0  0  0  0
  -21.1985   -7.6123   23.9640 H   0  0  0  0  0  0
  -21.1490   -6.0505   25.9024 H   0  0  0  0  0  0
  -22.0622   -2.7578   23.2812 H   0  0  0  0  0  0
  -22.4106  -12.0034   22.4830 H   0  0  0  0  0  0
  -21.1054  -13.1327   22.2410 H   0  0  0  0  0  0
  -24.6785  -15.8428   20.5054 H   0  0  0  0  0  0
  -26.2868  -15.5997   20.0455 H   0  0  0  0  0  0
  -26.7334  -32.5214   23.0991 H   0  0  0  0  0  0
  -25.0332  -33.9648   25.0435 H   0  0  0  0  0  0
  -22.7631  -31.2794   21.3401 H   0  0  0  0  0  0
  -23.3714  -35.9412   23.3396 H   0  0  0  0  0  0
  -24.3465  -36.8698   22.2079 H   0  0  0  0  0  0
  -23.7083  -37.6289   23.6693 H   0  0  0  0  0  0
  -26.2164  -31.4760   20.6291 H   0  0  0  0  0  0
  -26.8734  -30.7439   22.0534 H   0  0  0  0  0  0
  -28.1507  -28.8235   21.2639 H   0  0  0  0  0  0
  -25.9105  -25.8524   19.0262 H   0  0  0  0  0  0
  -24.0030  -27.2771   19.0177 H   0  0  0  0  0  0
  -23.8181  -30.5294   19.3662 H   0  0  0  0  0  0
  -22.8221  -29.1914   19.8470 H   0  0  0  0  0  0
  -25.1242  -36.1724   25.0797 H   0  0  0  0  0  0
  -21.0100  -28.3310   24.1315 H   0  0  0  0  0  0
  -20.5816  -26.2297   23.3604 H   0  0  0  0  0  0
  -21.6644  -26.7423   22.1121 H   0  0  0  0  0  0
  -19.6878  -25.6298   21.1248 H   0  0  0  0  0  0
  -19.6758  -27.3235   20.6818 H   0  0  0  0  0  0
  -17.4247  -26.6878   21.3949 H   0  0  0  0  0  0
  -18.0156  -26.0213   22.9035 H   0  0  0  0  0  0
  -19.8062  -30.7398   24.2035 H   0  0  0  0  0  0
  -17.5157  -31.6315   24.5174 H   0  0  0  0  0  0
  -15.5454  -30.3003   23.7843 H   0  0  0  0  0  0
  -15.8732  -28.0900   22.7111 H   0  0  0  0  0  0
  -24.5956  -30.7022   25.7689 H   0  0  0  0  0  0
  -24.8678  -32.2984   26.4579 H   0  0  0  0  0  0
  -25.7883  -30.9189   27.0319 H   0  0  0  0  0  0
  -26.3220  -29.6517   24.1694 H   0  0  0  0  0  0
  -27.4426  -29.7575   25.5129 H   0  0  0  0  0  0
  -27.8974  -30.4314   23.9675 H   0  0  0  0  0  0
  -27.2756  -33.3860   26.1852 H   0  0  0  0  0  0
  -28.4046  -32.6705   25.0467 H   0  0  0  0  0  0
  -28.0531  -31.8678   26.5718 H   0  0  0  0  0  0
  -28.2593  -37.9906   24.7587 H   0  0  0  0  0  0
  -28.0824  -36.2470   24.6340 H   0  0  0  0  0  0
  -27.2229  -37.1364   25.8961 H   0  0  0  0  0  0
  -20.9564  -29.8573   21.6555 H   0  0  0  0  0  0
  -25.9963  -38.2761   24.1647 H   0  0  0  0  0  0
  -30.7827  -23.7231   19.8676 H   0  0  0  0  0  0
  -31.6576  -21.4062   20.0270 H   0  0  0  0  0  0
  -32.2030  -19.4953   21.6613 H   0  0  0  0  0  0
  -31.7962  -17.8327   21.9579 H   0  0  0  0  0  0
  -30.8685  -19.1190   22.7447 H   0  0  0  0  0  0
  -24.9860  -20.2960   23.2135 H   0  0  0  0  0  0
  -26.3941  -19.7612   22.2823 H   0  0  0  0  0  0
  -24.8473  -20.0065   21.4822 H   0  0  0  0  0  0
  -26.2142  -22.5507   24.0465 H   0  0  0  0  0  0
  -27.1394  -23.4426   22.8627 H   0  0  0  0  0  0
  -27.6196  -21.7968   23.2940 H   0  0  0  0  0  0
  -27.0486  -24.6114   20.6792 H   0  0  0  0  0  0
  -27.6119  -24.6295   18.9969 H   0  0  0  0  0  0
  -26.0605  -21.2286   19.9006 H   0  0  0  0  0  0
  -26.0096  -22.9065   20.0764 H   0  0  0  0  0  0
  -28.9351  -17.5035   19.5066 H   0  0  0  0  0  0
  -28.6157  -17.7054   21.1756 H   0  0  0  0  0  0
  -31.0502  -18.7804   19.7378 H   0  0  0  0  0  0
  -24.9245  -22.4290   21.9938 H   0  0  0  0  0  0
  -28.9078  -15.5738   21.2519 H   0  0  0  0  0  0
  1 25  1  0  0  0
  1 30  2  0  0  0
  1 85  1  0  0  0
  2  3  1  0  0  0
  2 25  1  0  0  0
  2 86  1  0  0  0
  2 87  1  0  0  0
  3  4  1  0  0  0
  3 88  1  0  0  0
  3 89  1  0  0  0
  4  5  1  0  0  0
  4 90  1  0  0  0
  4 91  1  0  0  0
  5  6  1  0  0  0
  5 26  1  0  0  0
  5 92  1  0  0  0
  6 25  1  0  0  0
  6 93  1  0  0  0
  6 94  1  0  0  0
  7  8  2  0  0  0
  7 26  1  0  0  0
  7 29  1  0  0  0
  8  9  1  0  0  0
  8 22  1  0  0  0
  9 10  1  0  0  0
  9 27  2  0  0  0
 10 11  2  0  0  0
 10 15  1  0  0  0
 11 12  1  0  0  0
 11 95  1  0  0  0
 12 13  2  0  0  0
 12 96  1  0  0  0
 13 14  1  0  0  0
 13 31  1  0  0  0
 14 15  2  0  0  0
 14 97  1  0  0  0
 15 98  1  0  0  0
 16 17  2  0  0  0
 16 21  1  0  0  0
 16 31  1  0  0  0
 17 18  1  0  0  0
 17 99  1  0  0  0
 18 19  2  0  0  0
 18100  1  0  0  0
 19 20  1  0  0  0
 19 24  1  0  0  0
 20 21  2  0  0  0
 20101  1  0  0  0
 21 23  1  0  0  0
 22 28  1  0  0  0
 22 32  2  0  0  0
 26 27  1  0  0  0
 28102  1  0  0  0
 28103  1  0  0  0
 29104  1  0  0  0
 29105  1  0  0  0
 33 34  1  0  0  0
 33 66  1  0  0  0
 33 70  2  0  0  0
 34 36  1  0  0  0
 34 59  1  0  0  0
 34106  1  0  0  0
 35 44  2  0  0  0
 35 45  1  0  0  0
 35 68  1  0  0  0
 36 56  1  0  0  0
 36107  1  0  0  0
 37 39  1  0  0  0
 37 47  1  0  0  0
 37 66  1  0  0  0
 37108  1  0  0  0
 38 43  2  0  0  0
 38 46  1  0  0  0
 38 47  1  0  0  0
 39 64  1  0  0  0
 39 67  2  0  0  0
 40 52  1  0  0  0
 40 53  2  0  0  0
 40 58  1  0  0  0
 41109  1  0  0  0
 41110  1  0  0  0
 41111  1  0  0  0
 41 48  1  0  0  0
 42 43  1  0  0  0
 42 66  1  0  0  0
 42112  1  0  0  0
 42113  1  0  0  0
 43 44  1  0  0  0
 44114  1  0  0  0
 45 46  2  0  0  0
 45115  1  0  0  0
 46116  1  0  0  0
 47117  1  0  0  0
 47118  1  0  0  0
 48 56  1  0  0  0
 48 65  1  0  0  0
 48119  1  0  0  0
 49 50  1  0  0  0
 49 53  1  0  0  0
 49 64  1  0  0  0
 49120  1  0  0  0
 50 51  1  0  0  0
 50121  1  0  0  0
 50122  1  0  0  0
 51 52  1  0  0  0
 51123  1  0  0  0
 51124  1  0  0  0
 52125  1  0  0  0
 52126  1  0  0  0
 53 54  1  0  0  0
 54 55  2  0  0  0
 54127  1  0  0  0
 55 57  1  0  0  0
 55128  1  0  0  0
 56 69  2  0  0  0
 57 58  2  0  0  0
 57129  1  0  0  0
 58130  1  0  0  0
 59 60  1  0  0  0
 59 61  1  0  0  0
 59 62  1  0  0  0
 60131  1  0  0  0
 60132  1  0  0  0
 60133  1  0  0  0
 61134  1  0  0  0
 61135  1  0  0  0
 61136  1  0  0  0
 62137  1  0  0  0
 62138  1  0  0  0
 62139  1  0  0  0
 63 65  1  0  0  0
 63140  1  0  0  0
 63141  1  0  0  0
 63142  1  0  0  0
 64143  1  0  0  0
 65144  1  0  0  0
 68 79  1  0  0  0
 71 72  2  0  0  0
 71 73  1  0  0  0
 71145  1  0  0  0
 72 74  1  0  0  0
 72146  1  0  0  0
 73 75  2  0  0  0
 73 79  1  0  0  0
 74 82  1  0  0  0
 74 84  2  0  0  0
 75 80  1  0  0  0
 75 84  1  0  0  0
 76147  1  0  0  0
 76148  1  0  0  0
 76149  1  0  0  0
 76 82  1  0  0  0
 77150  1  0  0  0
 77151  1  0  0  0
 77152  1  0  0  0
 77 83  1  0  0  0
 78 83  1  0  0  0
 78153  1  0  0  0
 78154  1  0  0  0
 78155  1  0  0  0
 79156  1  0  0  0
 79157  1  0  0  0
 80 83  1  0  0  0
 80158  1  0  0  0
 80159  1  0  0  0
 81 82  1  0  0  0
 81 85  1  0  0  0
 81160  1  0  0  0
 81161  1  0  0  0
 82162  1  0  0  0
 83163  1  0  0  0
 85164  1  0  0  0
M  ISO  4   1 100  68 101  79 101  85 100
M  END
> <chiral flag>
0

> <version>
0

> <s_m_source_file>
/data/baiqing/PycharmProjects/Reinvent-master-3.2/result/LINK_invent/BTK/process_docking_weight1_custom_sum_contain_oxygen_bond_distance_aromatic_linkinvent_7_9_3/rearranged_h_0086.sdf

> <i_m_source_file_index>
61

> <r_mmod_Potential_Energy-OPLS-2005>
408.046203613281

> <r_mmod_Stretch_Energy-OPLS-2005>
235.116653442383

> <r_mmod_Bend_Energy-OPLS-2005>
322.797088623047

> <r_mmod_Torsional_Energy-OPLS-2005>
223.98664855957

> <r_mmod_Improper_Torsional_Energy-OPLS-2005>
6.26446437835693

> <r_mmod_Van_der_Waal_Energy-OPLS-2005>
138.186492919922

> <r_mmod_Electrostatic_Energy-OPLS-2005>
-469.966613769531

> <r_mmod_Solvation_Energy-OPLS-2005>
-215.702346801758

> <b_mmod_Minimization_Converged-OPLS-2005>
0

> <r_mmod_RMS_Derivative-OPLS-2005>
8.4541482925415

$$$$
62
                    3D
 Structure written by MMmdl.
157165  0  0  1  0            999 V2000
  -30.6973  -14.5018   20.5575 C   0  0  0  0  0  0
  -30.4235  -12.3234   19.4264 C   0  0  0  0  0  0
  -29.4952  -12.5037   18.2076 C   0  0  0  0  0  0
  -28.0167  -12.3639   18.6209 C   0  0  0  0  0  0
  -27.6596  -13.2113   19.8715 C   0  0  2  0  0  0
  -28.7034  -13.0134   20.9939 C   0  0  0  0  0  0
  -25.2570  -13.8166   20.5680 C   0  0  0  0  0  0
  -24.1829  -13.0432   20.9174 C   0  0  0  0  0  0
  -24.6397  -11.6908   20.8733 C   0  0  0  0  0  0
  -23.9064  -10.4292   21.0404 C   0  0  0  0  0  0
  -24.3616   -9.4203   21.9175 C   0  0  0  0  0  0
  -23.6291   -8.2238   22.0751 C   0  0  0  0  0  0
  -22.4274   -8.0279   21.3544 C   0  0  0  0  0  0
  -21.9909   -9.0251   20.4647 C   0  0  0  0  0  0
  -22.7238  -10.2131   20.3052 C   0  0  0  0  0  0
  -21.6853   -6.0732   22.5278 C   0  0  0  0  0  0
  -21.4014   -6.5635   23.8211 C   0  0  0  0  0  0
  -21.3661   -5.6787   24.9173 C   0  0  0  0  0  0
  -21.6047   -4.3051   24.7222 C   0  0  0  0  0  0
  -21.8818   -3.8144   23.4342 C   0  0  0  0  0  0
  -21.9192   -4.6961   22.3401 C   0  0  0  0  0  0
  -22.7852  -13.5222   21.1846 C   0  0  0  0  0  0
  -22.1659   -4.2148   21.0980 F   0  0  0  0  0  0
  -21.5637   -3.4535   25.7733 F   0  0  0  0  0  0
  -30.0300  -13.3203   20.4356 N   0  0  0  0  0  0
  -26.3014  -12.9346   20.3359 N   0  0  0  0  0  0
  -25.9326  -11.6502   20.5768 N   0  0  0  0  0  0
  -22.0502  -12.8213   22.0413 N   0  0  0  0  0  0
  -25.4271  -15.1885   20.4094 N   0  0  0  0  0  0
  -31.8315  -14.6719   20.1042 O   0  0  0  0  0  0
  -21.6635   -6.8878   21.4243 O   0  0  0  0  0  0
  -22.3532  -14.5536   20.6713 O   0  0  0  0  0  0
  -24.6164  -31.8673   23.2084 C   0  0  0  0  0  0
  -25.9051  -32.4821   23.8388 C   0  0  1  0  0  0
  -27.2323  -27.4110   20.1102 C   0  0  0  0  0  0
  -25.5911  -33.8619   24.2327 N   0  0  0  0  0  0
  -23.4071  -30.4905   21.5483 C   0  0  2  0  0  0
  -24.8562  -28.9564   20.1116 C   0  0  0  0  0  0
  -22.7427  -29.4657   22.4964 C   0  0  0  0  0  0
  -18.0283  -28.1376   22.8487 C   0  0  0  0  0  0
  -24.1496  -36.7310   23.2635 C   0  0  0  0  0  0
  -25.9386  -30.8264   21.3664 C   0  0  0  0  0  0
  -26.0180  -29.4599   20.7118 C   0  0  0  0  0  0
  -27.2114  -28.6962   20.7054 C   0  0  0  0  0  0
  -26.0573  -26.9359   19.4878 C   0  0  0  0  0  0
  -24.8723  -27.6951   19.4932 C   0  0  0  0  0  0
  -23.6182  -29.8242   20.1624 C   0  0  0  0  0  0
  -25.4117  -36.3108   24.0335 C   0  0  1  0  0  0
  -20.5875  -28.3668   23.1306 C   0  0  2  0  0  0
  -20.6779  -26.9404   22.5410 C   0  0  0  0  0  0
  -19.5760  -26.6384   21.5209 C   0  0  0  0  0  0
  -18.1937  -26.7923   22.1616 C   0  0  0  0  0  0
  -19.1531  -28.8839   23.2894 C   0  0  0  0  0  0
  -18.9454  -30.1442   23.8908 C   0  0  0  0  0  0
  -17.6457  -30.6581   24.0562 C   0  0  0  0  0  0
  -25.9041  -34.9474   23.5125 C   0  0  0  0  0  0
  -16.5350  -29.9084   23.6320 C   0  0  0  0  0  0
  -16.7272  -28.6503   23.0340 C   0  0  0  0  0  0
  -26.4475  -31.6594   25.0713 C   0  0  0  0  0  0
  -25.3737  -31.3698   26.1456 C   0  0  0  0  0  0
  -27.0306  -30.3039   24.6089 C   0  0  0  0  0  0
  -27.6061  -32.4306   25.7471 C   0  0  0  0  0  0
  -27.5590  -37.1810   24.8465 C   0  0  0  0  0  0
  -21.4152  -29.3035   22.3703 N   0  0  0  0  0  0
  -26.4306  -37.3792   23.9404 N   0  0  0  0  0  0
  -24.6722  -31.0757   22.0993 N   0  0  0  0  0  0
  -23.4188  -28.8197   23.3014 O   0  0  0  0  0  0
  -28.3665  -26.6183   20.1358 O   0  0  0  0  0  0
  -26.5596  -34.8926   22.4682 O   0  0  0  0  0  0
  -23.5351  -32.1430   23.7465 O   0  0  0  0  0  0
  -29.3438  -20.5061   20.2245 C   0  0  0  0  0  0
  -29.8839  -21.7952   19.9537 C   0  0  0  0  0  0
  -30.1963  -19.3713   20.1619 C   0  0  0  0  0  0
  -31.2732  -21.8305   19.6649 C   0  0  0  0  0  0
  -32.0121  -23.1025   19.2982 C   0  0  0  0  0  0
  -28.9562  -23.0301   19.8576 C   0  0  0  0  0  0
  -29.6654  -17.9247   20.2195 C   0  0  0  0  0  0
  -29.3354  -24.3176   20.6555 C   0  0  0  0  0  0
  -30.4319  -16.9492   21.1645 C   0  0  0  0  0  0
  -28.1785  -25.3507   20.8093 C   0  0  0  0  0  0
  -31.5139  -19.5058   19.8763 N   0  0  0  0  0  0
  -32.0430  -20.7126   19.6580 N   0  0  0  0  0  0
  -29.9904  -15.5351   21.0652 N   0  0  0  0  0  0
  -31.4680  -12.4214   19.1238 H   0  0  0  0  0  0
  -30.3272  -11.3173   19.8370 H   0  0  0  0  0  0
  -29.7378  -11.7698   17.4379 H   0  0  0  0  0  0
  -29.6606  -13.4841   17.7580 H   0  0  0  0  0  0
  -27.8291  -11.3094   18.8243 H   0  0  0  0  0  0
  -27.3667  -12.6302   17.7871 H   0  0  0  0  0  0
  -27.6975  -14.2565   19.5635 H   0  0  0  0  0  0
  -28.6858  -11.9832   21.3517 H   0  0  0  0  0  0
  -28.4656  -13.6280   21.8633 H   0  0  0  0  0  0
  -25.2767   -9.5673   22.4739 H   0  0  0  0  0  0
  -24.0003   -7.4630   22.7467 H   0  0  0  0  0  0
  -21.0843   -8.8776   19.8949 H   0  0  0  0  0  0
  -22.3705  -10.9669   19.6160 H   0  0  0  0  0  0
  -21.2006   -7.6141   23.9715 H   0  0  0  0  0  0
  -21.1489   -6.0516   25.9076 H   0  0  0  0  0  0
  -22.0601   -2.7607   23.2840 H   0  0  0  0  0  0
  -22.4121  -11.9871   22.4786 H   0  0  0  0  0  0
  -21.1126  -13.1245   22.2646 H   0  0  0  0  0  0
  -24.6580  -15.8413   20.5165 H   0  0  0  0  0  0
  -26.2782  -15.6296   20.0848 H   0  0  0  0  0  0
  -26.7120  -32.5533   23.1150 H   0  0  0  0  0  0
  -25.0094  -33.9784   25.0495 H   0  0  0  0  0  0
  -22.6964  -31.3075   21.4080 H   0  0  0  0  0  0
  -23.3760  -35.9641   23.3307 H   0  0  0  0  0  0
  -24.3593  -36.8911   22.2048 H   0  0  0  0  0  0
  -23.7249  -37.6518   23.6640 H   0  0  0  0  0  0
  -26.0560  -31.5935   20.5997 H   0  0  0  0  0  0
  -26.8241  -30.8786   21.9882 H   0  0  0  0  0  0
  -28.1060  -29.0759   21.1788 H   0  0  0  0  0  0
  -26.0514  -25.9717   18.9988 H   0  0  0  0  0  0
  -23.9822  -27.3057   19.0187 H   0  0  0  0  0  0
  -23.7280  -30.6005   19.4045 H   0  0  0  0  0  0
  -22.7422  -29.2449   19.8644 H   0  0  0  0  0  0
  -25.1296  -36.1975   25.0829 H   0  0  0  0  0  0
  -20.9974  -28.3245   24.1426 H   0  0  0  0  0  0
  -20.5702  -26.2278   23.3597 H   0  0  0  0  0  0
  -21.6650  -26.7462   22.1197 H   0  0  0  0  0  0
  -19.6932  -25.6299   21.1236 H   0  0  0  0  0  0
  -19.6704  -27.3196   20.6742 H   0  0  0  0  0  0
  -17.4211  -26.6666   21.4015 H   0  0  0  0  0  0
  -18.0340  -26.0059   22.9010 H   0  0  0  0  0  0
  -19.7931  -30.7249   24.2292 H   0  0  0  0  0  0
  -17.5015  -31.6264   24.5156 H   0  0  0  0  0  0
  -15.5355  -30.2990   23.7633 H   0  0  0  0  0  0
  -15.8672  -28.0826   22.7044 H   0  0  0  0  0  0
  -24.5907  -30.7054   25.7778 H   0  0  0  0  0  0
  -24.8928  -32.2852   26.4915 H   0  0  0  0  0  0
  -25.8080  -30.8848   27.0206 H   0  0  0  0  0  0
  -26.2845  -29.6798   24.1152 H   0  0  0  0  0  0
  -27.4092  -29.7273   25.4537 H   0  0  0  0  0  0
  -27.8676  -30.4361   23.9228 H   0  0  0  0  0  0
  -27.2695  -33.3596   26.2083 H   0  0  0  0  0  0
  -28.3849  -32.6880   25.0279 H   0  0  0  0  0  0
  -28.0754  -31.8405   26.5351 H   0  0  0  0  0  0
  -28.2610  -38.0107   24.7519 H   0  0  0  0  0  0
  -28.1086  -36.2640   24.6287 H   0  0  0  0  0  0
  -27.2305  -37.1453   25.8867 H   0  0  0  0  0  0
  -20.9311  -29.8750   21.6915 H   0  0  0  0  0  0
  -26.0197  -38.2873   24.1398 H   0  0  0  0  0  0
  -28.2866  -20.3787   20.4080 H   0  0  0  0  0  0
  -31.4378  -23.6982   18.5895 H   0  0  0  0  0  0
  -32.9735  -22.8812   18.8330 H   0  0  0  0  0  0
  -32.2084  -23.6961   20.1903 H   0  0  0  0  0  0
  -27.9682  -22.7074   20.1862 H   0  0  0  0  0  0
  -28.8402  -23.2854   18.8037 H   0  0  0  0  0  0
  -29.6871  -17.5347   19.2019 H   0  0  0  0  0  0
  -28.6137  -17.9521   20.5058 H   0  0  0  0  0  0
  -30.2013  -24.8192   20.2293 H   0  0  0  0  0  0
  -29.6357  -24.0076   21.6574 H   0  0  0  0  0  0
  -30.3130  -17.2795   22.1969 H   0  0  0  0  0  0
  -31.5006  -17.0182   20.9571 H   0  0  0  0  0  0
  -28.0668  -25.5778   21.8710 H   0  0  0  0  0  0
  -27.2413  -24.8723   20.5260 H   0  0  0  0  0  0
  -29.0584  -15.3209   21.3878 H   0  0  0  0  0  0
  1 25  1  0  0  0
  1 30  2  0  0  0
  1 83  1  0  0  0
  2  3  1  0  0  0
  2 25  1  0  0  0
  2 84  1  0  0  0
  2 85  1  0  0  0
  3  4  1  0  0  0
  3 86  1  0  0  0
  3 87  1  0  0  0
  4  5  1  0  0  0
  4 88  1  0  0  0
  4 89  1  0  0  0
  5  6  1  0  0  0
  5 26  1  0  0  0
  5 90  1  0  0  0
  6 25  1  0  0  0
  6 91  1  0  0  0
  6 92  1  0  0  0
  7  8  2  0  0  0
  7 26  1  0  0  0
  7 29  1  0  0  0
  8  9  1  0  0  0
  8 22  1  0  0  0
  9 10  1  0  0  0
  9 27  2  0  0  0
 10 11  2  0  0  0
 10 15  1  0  0  0
 11 12  1  0  0  0
 11 93  1  0  0  0
 12 13  2  0  0  0
 12 94  1  0  0  0
 13 14  1  0  0  0
 13 31  1  0  0  0
 14 15  2  0  0  0
 14 95  1  0  0  0
 15 96  1  0  0  0
 16 17  2  0  0  0
 16 21  1  0  0  0
 16 31  1  0  0  0
 17 18  1  0  0  0
 17 97  1  0  0  0
 18 19  2  0  0  0
 18 98  1  0  0  0
 19 20  1  0  0  0
 19 24  1  0  0  0
 20 21  2  0  0  0
 20 99  1  0  0  0
 21 23  1  0  0  0
 22 28  1  0  0  0
 22 32  2  0  0  0
 26 27  1  0  0  0
 28100  1  0  0  0
 28101  1  0  0  0
 29102  1  0  0  0
 29103  1  0  0  0
 33 34  1  0  0  0
 33 66  1  0  0  0
 33 70  2  0  0  0
 34 36  1  0  0  0
 34 59  1  0  0  0
 34104  1  0  0  0
 35 44  2  0  0  0
 35 45  1  0  0  0
 35 68  1  0  0  0
 36 56  1  0  0  0
 36105  1  0  0  0
 37 39  1  0  0  0
 37 47  1  0  0  0
 37 66  1  0  0  0
 37106  1  0  0  0
 38 43  2  0  0  0
 38 46  1  0  0  0
 38 47  1  0  0  0
 39 64  1  0  0  0
 39 67  2  0  0  0
 40 52  1  0  0  0
 40 53  2  0  0  0
 40 58  1  0  0  0
 41107  1  0  0  0
 41108  1  0  0  0
 41109  1  0  0  0
 41 48  1  0  0  0
 42 43  1  0  0  0
 42 66  1  0  0  0
 42110  1  0  0  0
 42111  1  0  0  0
 43 44  1  0  0  0
 44112  1  0  0  0
 45 46  2  0  0  0
 45113  1  0  0  0
 46114  1  0  0  0
 47115  1  0  0  0
 47116  1  0  0  0
 48 56  1  0  0  0
 48 65  1  0  0  0
 48117  1  0  0  0
 49 50  1  0  0  0
 49 53  1  0  0  0
 49 64  1  0  0  0
 49118  1  0  0  0
 50 51  1  0  0  0
 50119  1  0  0  0
 50120  1  0  0  0
 51 52  1  0  0  0
 51121  1  0  0  0
 51122  1  0  0  0
 52123  1  0  0  0
 52124  1  0  0  0
 53 54  1  0  0  0
 54 55  2  0  0  0
 54125  1  0  0  0
 55 57  1  0  0  0
 55126  1  0  0  0
 56 69  2  0  0  0
 57 58  2  0  0  0
 57127  1  0  0  0
 58128  1  0  0  0
 59 60  1  0  0  0
 59 61  1  0  0  0
 59 62  1  0  0  0
 60129  1  0  0  0
 60130  1  0  0  0
 60131  1  0  0  0
 61132  1  0  0  0
 61133  1  0  0  0
 61134  1  0  0  0
 62135  1  0  0  0
 62136  1  0  0  0
 62137  1  0  0  0
 63 65  1  0  0  0
 63138  1  0  0  0
 63139  1  0  0  0
 63140  1  0  0  0
 64141  1  0  0  0
 65142  1  0  0  0
 68 80  1  0  0  0
 71 72  2  0  0  0
 71 73  1  0  0  0
 71143  1  0  0  0
 72 74  1  0  0  0
 72 76  1  0  0  0
 73 77  1  0  0  0
 73 81  2  0  0  0
 74 75  1  0  0  0
 74 82  2  0  0  0
 75144  1  0  0  0
 75145  1  0  0  0
 75146  1  0  0  0
 76 78  1  0  0  0
 76147  1  0  0  0
 76148  1  0  0  0
 77 79  1  0  0  0
 77149  1  0  0  0
 77150  1  0  0  0
 78 80  1  0  0  0
 78151  1  0  0  0
 78152  1  0  0  0
 79 83  1  0  0  0
 79153  1  0  0  0
 79154  1  0  0  0
 80155  1  0  0  0
 80156  1  0  0  0
 81 82  1  0  0  0
 83157  1  0  0  0
M  ISO  4   1 100  68 101  80 101  83 100
M  END
> <chiral flag>
0

> <version>
0

> <s_m_source_file>
/data/baiqing/PycharmProjects/Reinvent-master-3.2/result/LINK_invent/BTK/process_docking_weight1_custom_sum_contain_oxygen_bond_distance_aromatic_linkinvent_7_9_3/rearranged_h_0086.sdf

> <i_m_source_file_index>
62

> <r_mmod_Potential_Energy-OPLS-2005>
-56.582347869873

> <r_mmod_Stretch_Energy-OPLS-2005>
45.6369209289551

> <r_mmod_Bend_Energy-OPLS-2005>
103.080543518066

> <r_mmod_Torsional_Energy-OPLS-2005>
222.056457519531

> <r_mmod_Improper_Torsional_Energy-OPLS-2005>
4.41980838775635

> <r_mmod_Van_der_Waal_Energy-OPLS-2005>
155.580703735352

> <r_mmod_Electrostatic_Energy-OPLS-2005>
-360.845642089844

> <r_mmod_Solvation_Energy-OPLS-2005>
-244.22380065918

> <b_mmod_Minimization_Converged-OPLS-2005>
0

> <r_mmod_RMS_Derivative-OPLS-2005>
1.00092422962189

$$$$
63
                    3D
 Structure written by MMmdl.
196204  0  0  1  0            999 V2000
  -30.6453  -14.6240   20.6022 C   0  0  0  0  0  0
  -30.4597  -12.4194   19.4397 C   0  0  0  0  0  0
  -29.5281  -12.5270   18.2115 C   0  0  0  0  0  0
  -28.0447  -12.3536   18.6133 C   0  0  0  0  0  0
  -27.6547  -13.2126   19.8471 C   0  0  2  0  0  0
  -28.7002  -13.0453   20.9692 C   0  0  0  0  0  0
  -25.2599  -13.8151   20.5664 C   0  0  0  0  0  0
  -24.1862  -13.0437   20.9151 C   0  0  0  0  0  0
  -24.6387  -11.6891   20.8679 C   0  0  0  0  0  0
  -23.9002  -10.4292   21.0403 C   0  0  0  0  0  0
  -24.3561   -9.4217   21.9180 C   0  0  0  0  0  0
  -23.6274   -8.2214   22.0765 C   0  0  0  0  0  0
  -22.4246   -8.0248   21.3537 C   0  0  0  0  0  0
  -21.9864   -9.0205   20.4640 C   0  0  0  0  0  0
  -22.7171  -10.2127   20.3039 C   0  0  0  0  0  0
  -21.6873   -6.0693   22.5253 C   0  0  0  0  0  0
  -21.4031   -6.5601   23.8186 C   0  0  0  0  0  0
  -21.3656   -5.6748   24.9158 C   0  0  0  0  0  0
  -21.6067   -4.2999   24.7216 C   0  0  0  0  0  0
  -21.8830   -3.8096   23.4314 C   0  0  0  0  0  0
  -21.9201   -4.6913   22.3381 C   0  0  0  0  0  0
  -22.7873  -13.5254   21.1786 C   0  0  0  0  0  0
  -22.1673   -4.2101   21.0957 F   0  0  0  0  0  0
  -21.5638   -3.4489   25.7716 F   0  0  0  0  0  0
  -30.0052  -13.4284   20.4174 N   0  0  0  0  0  0
  -26.2999  -12.9295   20.3191 N   0  0  0  0  0  0
  -25.9304  -11.6452   20.5626 N   0  0  0  0  0  0
  -22.0443  -12.8319   22.0348 N   0  0  0  0  0  0
  -25.4324  -15.1909   20.4187 N   0  0  0  0  0  0
  -31.8234  -14.7549   20.2776 O   0  0  0  0  0  0
  -21.6618   -6.8851   21.4217 O   0  0  0  0  0  0
  -22.3555  -14.5535   20.6591 O   0  0  0  0  0  0
  -24.6260  -31.8589   23.2057 C   0  0  0  0  0  0
  -25.9134  -32.4828   23.8396 C   0  0  1  0  0  0
  -27.2592  -27.3604   20.1301 C   0  0  0  0  0  0
  -25.5975  -33.8606   24.2308 N   0  0  0  0  0  0
  -23.4191  -30.4779   21.5423 C   0  0  2  0  0  0
  -24.8771  -28.9269   20.1256 C   0  0  0  0  0  0
  -22.7471  -29.4598   22.4955 C   0  0  0  0  0  0
  -18.0253  -28.1347   22.8487 C   0  0  0  0  0  0
  -24.1444  -36.7271   23.2646 C   0  0  0  0  0  0
  -25.9564  -30.8040   21.3744 C   0  0  0  0  0  0
  -26.0393  -29.4256   20.7298 C   0  0  0  0  0  0
  -27.2357  -28.6520   20.7316 C   0  0  0  0  0  0
  -26.0763  -26.8986   19.5170 C   0  0  0  0  0  0
  -24.8930  -27.6594   19.5159 C   0  0  0  0  0  0
  -23.6410  -29.8012   20.1614 C   0  0  0  0  0  0
  -25.4081  -36.3134   24.0357 C   0  0  1  0  0  0
  -20.5858  -28.3635   23.1319 C   0  0  2  0  0  0
  -20.6742  -26.9357   22.5402 C   0  0  0  0  0  0
  -19.5732  -26.6334   21.5204 C   0  0  0  0  0  0
  -18.1899  -26.7899   22.1604 C   0  0  0  0  0  0
  -19.1515  -28.8796   23.2878 C   0  0  0  0  0  0
  -18.9456  -30.1408   23.8888 C   0  0  0  0  0  0
  -17.6448  -30.6565   24.0510 C   0  0  0  0  0  0
  -25.9033  -34.9506   23.5110 C   0  0  0  0  0  0
  -16.5337  -29.9042   23.6330 C   0  0  0  0  0  0
  -16.7243  -28.6458   23.0379 C   0  0  0  0  0  0
  -26.4523  -31.6662   25.0751 C   0  0  0  0  0  0
  -25.3740  -31.3830   26.1461 C   0  0  0  0  0  0
  -27.0371  -30.3096   24.6228 C   0  0  0  0  0  0
  -27.6059  -32.4409   25.7545 C   0  0  0  0  0  0
  -27.5543  -37.1795   24.8477 C   0  0  0  0  0  0
  -21.4188  -29.3022   22.3755 N   0  0  0  0  0  0
  -26.4259  -37.3826   23.9446 N   0  0  0  0  0  0
  -24.6844  -31.0623   22.1006 N   0  0  0  0  0  0
  -23.4220  -28.8152   23.3038 O   0  0  0  0  0  0
  -28.4005  -26.5569   20.0455 O   0  0  0  0  0  0
  -26.5484  -34.8996   22.4634 O   0  0  0  0  0  0
  -23.5451  -32.1360   23.7424 O   0  0  0  0  0  0
  -30.4017  -20.8371   21.2063 C   0  0  0  0  0  0
  -30.2821  -19.5179   20.7669 C   0  0  0  0  0  0
  -29.3142  -20.9180   19.2963 C   0  0  0  0  0  0
  -34.4659  -18.4561   19.4089 C   0  0  0  0  0  0
  -32.7188  -19.2383   15.4729 C   0  0  0  0  0  0
  -30.3944  -18.9013   14.4992 C   0  0  0  0  0  0
  -29.0144  -18.5869   23.5337 C   0  0  0  0  0  0
  -28.3606  -16.2022   23.5502 C   0  0  0  0  0  0
  -27.2900  -23.6832   20.0344 C   0  0  0  0  0  0
  -28.2793  -23.4024   22.3073 C   0  0  0  0  0  0
  -28.7369  -21.3064   17.9685 C   0  0  0  0  0  0
  -33.1760  -18.9405   20.0911 C   0  0  0  0  0  0
  -29.1930  -20.3532   16.8420 C   0  0  0  0  0  0
  -32.1245  -17.8238   20.2738 C   0  0  0  0  0  0
  -30.7220  -20.3294   16.5963 C   0  0  0  0  0  0
  -29.7873  -23.2242   20.3135 C   0  0  0  0  0  0
  -28.6487  -25.5871   21.1122 C   0  0  0  0  0  0
  -30.9583  -18.1962   21.2155 C   0  0  2  0  0  0
  -31.2158  -19.1124   15.7826 C   0  0  0  0  0  0
  -28.8568  -17.3398   22.6328 C   0  0  0  0  0  0
  -30.1452  -16.9409   21.8209 C   0  0  1  0  0  0
  -28.5196  -23.9957   20.8980 C   0  0  0  0  0  0
  -29.7879  -21.6924   20.2957 N   0  0  0  0  0  0
  -29.5375  -19.6338   19.6259 N   0  3  0  0  0  0
  -29.8714  -15.6839   21.0177 N   0  0  0  0  0  0
  -31.4987  -12.5772   19.1437 H   0  0  0  0  0  0
  -30.4190  -11.4181   19.8698 H   0  0  0  0  0  0
  -29.8125  -11.7874   17.4614 H   0  0  0  0  0  0
  -29.6673  -13.5068   17.7528 H   0  0  0  0  0  0
  -27.8950  -11.2997   18.8394 H   0  0  0  0  0  0
  -27.3930  -12.5756   17.7651 H   0  0  0  0  0  0
  -27.6795  -14.2499   19.5125 H   0  0  0  0  0  0
  -28.7285  -12.0114   21.3146 H   0  0  0  0  0  0
  -28.4371  -13.6228   21.8453 H   0  0  0  0  0  0
  -25.2731   -9.5736   22.4685 H   0  0  0  0  0  0
  -23.9996   -7.4647   22.7518 H   0  0  0  0  0  0
  -21.0774   -8.8720   19.8957 H   0  0  0  0  0  0
  -22.3640  -10.9621   19.6094 H   0  0  0  0  0  0
  -21.2001   -7.6120   23.9711 H   0  0  0  0  0  0
  -21.1495   -6.0465   25.9084 H   0  0  0  0  0  0
  -22.0614   -2.7552   23.2823 H   0  0  0  0  0  0
  -22.3975  -11.9981   22.4826 H   0  0  0  0  0  0
  -21.1056  -13.1442   22.2389 H   0  0  0  0  0  0
  -24.6650  -15.8469   20.5323 H   0  0  0  0  0  0
  -26.2744  -15.6290   20.0707 H   0  0  0  0  0  0
  -26.7208  -32.5489   23.1165 H   0  0  0  0  0  0
  -25.0432  -33.9779   25.0671 H   0  0  0  0  0  0
  -22.7135  -31.2962   21.3937 H   0  0  0  0  0  0
  -23.3772  -35.9526   23.3309 H   0  0  0  0  0  0
  -24.3561  -36.8824   22.2048 H   0  0  0  0  0  0
  -23.7090  -37.6458   23.6608 H   0  0  0  0  0  0
  -26.0723  -31.5665   20.6044 H   0  0  0  0  0  0
  -26.8446  -30.8708   21.9908 H   0  0  0  0  0  0
  -28.1293  -29.0345   21.2042 H   0  0  0  0  0  0
  -26.0612  -25.9344   19.0290 H   0  0  0  0  0  0
  -24.0062  -27.2624   19.0418 H   0  0  0  0  0  0
  -23.7621  -30.5705   19.3978 H   0  0  0  0  0  0
  -22.7686  -29.2226   19.8591 H   0  0  0  0  0  0
  -25.1267  -36.1986   25.0838 H   0  0  0  0  0  0
  -20.9889  -28.3104   24.1472 H   0  0  0  0  0  0
  -20.5599  -26.2229   23.3571 H   0  0  0  0  0  0
  -21.6618  -26.7358   22.1237 H   0  0  0  0  0  0
  -19.6866  -25.6232   21.1244 H   0  0  0  0  0  0
  -19.6687  -27.3126   20.6717 H   0  0  0  0  0  0
  -17.4171  -26.6649   21.3958 H   0  0  0  0  0  0
  -18.0272  -26.0014   22.8987 H   0  0  0  0  0  0
  -19.7922  -30.7192   24.2253 H   0  0  0  0  0  0
  -17.5028  -31.6258   24.5086 H   0  0  0  0  0  0
  -15.5332  -30.2946   23.7700 H   0  0  0  0  0  0
  -15.8637  -28.0755   22.7143 H   0  0  0  0  0  0
  -24.5914  -30.7171   25.7811 H   0  0  0  0  0  0
  -24.8941  -32.3006   26.4847 H   0  0  0  0  0  0
  -25.8061  -30.9043   27.0246 H   0  0  0  0  0  0
  -26.2940  -29.6855   24.1224 H   0  0  0  0  0  0
  -27.4049  -29.7395   25.4769 H   0  0  0  0  0  0
  -27.8852  -30.4437   23.9509 H   0  0  0  0  0  0
  -27.2639  -33.3724   26.2096 H   0  0  0  0  0  0
  -28.3923  -32.6900   25.0403 H   0  0  0  0  0  0
  -28.0675  -31.8523   26.5488 H   0  0  0  0  0  0
  -28.2600  -38.0056   24.7569 H   0  0  0  0  0  0
  -28.0997  -36.2602   24.6272 H   0  0  0  0  0  0
  -27.2285  -37.1408   25.8886 H   0  0  0  0  0  0
  -20.9330  -29.8883   21.7103 H   0  0  0  0  0  0
  -26.0149  -38.2902   24.1497 H   0  0  0  0  0  0
  -30.9307  -21.2292   22.0631 H   0  0  0  0  0  0
  -35.2097  -19.2553   19.3808 H   0  0  0  0  0  0
  -34.2773  -18.1358   18.3833 H   0  0  0  0  0  0
  -34.9164  -17.6169   19.9445 H   0  0  0  0  0  0
  -33.0792  -18.3696   14.9188 H   0  0  0  0  0  0
  -33.3105  -19.3012   16.3887 H   0  0  0  0  0  0
  -32.9356  -20.1268   14.8756 H   0  0  0  0  0  0
  -30.8448  -18.1435   13.8598 H   0  0  0  0  0  0
  -30.3018  -19.8216   13.9203 H   0  0  0  0  0  0
  -29.3843  -18.5560   14.7300 H   0  0  0  0  0  0
  -28.2030  -18.6675   24.2571 H   0  0  0  0  0  0
  -28.9799  -19.5199   22.9791 H   0  0  0  0  0  0
  -29.9449  -18.5537   24.1001 H   0  0  0  0  0  0
  -27.4288  -16.4703   24.0501 H   0  0  0  0  0  0
  -29.0832  -15.9772   24.3353 H   0  0  0  0  0  0
  -28.1523  -15.2843   23.0121 H   0  0  0  0  0  0
  -27.1246  -22.6106   19.9568 H   0  0  0  0  0  0
  -27.4157  -24.0772   19.0256 H   0  0  0  0  0  0
  -26.3835  -24.1129   20.4588 H   0  0  0  0  0  0
  -27.9965  -22.3517   22.2717 H   0  0  0  0  0  0
  -27.4866  -23.9287   22.8417 H   0  0  0  0  0  0
  -29.1844  -23.4696   22.9102 H   0  0  0  0  0  0
  -29.0309  -22.3309   17.7487 H   0  0  0  0  0  0
  -27.6507  -21.2798   18.0685 H   0  0  0  0  0  0
  -32.7555  -19.7629   19.5140 H   0  0  0  0  0  0
  -33.4421  -19.3582   21.0656 H   0  0  0  0  0  0
  -28.6857  -20.6303   15.9206 H   0  0  0  0  0  0
  -28.8538  -19.3431   17.0706 H   0  0  0  0  0  0
  -32.6436  -16.9732   20.7088 H   0  0  0  0  0  0
  -31.7357  -17.5126   19.3032 H   0  0  0  0  0  0
  -31.2609  -20.3301   17.5428 H   0  0  0  0  0  0
  -31.0202  -21.2525   16.0977 H   0  0  0  0  0  0
  -30.6593  -23.5137   20.9030 H   0  0  0  0  0  0
  -30.0127  -23.5785   19.3060 H   0  0  0  0  0  0
  -29.6490  -25.7899   21.4974 H   0  0  0  0  0  0
  -27.9912  -25.8859   21.9324 H   0  0  0  0  0  0
  -31.4851  -18.5302   22.1090 H   0  0  0  0  0  0
  -31.0959  -18.2148   16.3979 H   0  0  0  0  0  0
  -28.0551  -17.5485   21.9200 H   0  0  0  0  0  0
  -30.8388  -16.5514   22.5710 H   0  0  0  0  0  0
  -29.3106  -18.8591   19.0176 H   0  0  0  0  0  0
  -28.8915  -15.4464   20.9966 H   0  0  0  0  0  0
  1 25  1  0  0  0
  1 30  2  0  0  0
  1 95  1  0  0  0
  2  3  1  0  0  0
  2 25  1  0  0  0
  2 96  1  0  0  0
  2 97  1  0  0  0
  3  4  1  0  0  0
  3 98  1  0  0  0
  3 99  1  0  0  0
  4  5  1  0  0  0
  4100  1  0  0  0
  4101  1  0  0  0
  5  6  1  0  0  0
  5 26  1  0  0  0
  5102  1  0  0  0
  6 25  1  0  0  0
  6103  1  0  0  0
  6104  1  0  0  0
  7  8  2  0  0  0
  7 26  1  0  0  0
  7 29  1  0  0  0
  8  9  1  0  0  0
  8 22  1  0  0  0
  9 10  1  0  0  0
  9 27  2  0  0  0
 10 11  2  0  0  0
 10 15  1  0  0  0
 11 12  1  0  0  0
 11105  1  0  0  0
 12 13  2  0  0  0
 12106  1  0  0  0
 13 14  1  0  0  0
 13 31  1  0  0  0
 14 15  2  0  0  0
 14107  1  0  0  0
 15108  1  0  0  0
 16 17  2  0  0  0
 16 21  1  0  0  0
 16 31  1  0  0  0
 17 18  1  0  0  0
 17109  1  0  0  0
 18 19  2  0  0  0
 18110  1  0  0  0
 19 20  1  0  0  0
 19 24  1  0  0  0
 20 21  2  0  0  0
 20111  1  0  0  0
 21 23  1  0  0  0
 22 28  1  0  0  0
 22 32  2  0  0  0
 26 27  1  0  0  0
 28112  1  0  0  0
 28113  1  0  0  0
 29114  1  0  0  0
 29115  1  0  0  0
 33 34  1  0  0  0
 33 66  1  0  0  0
 33 70  2  0  0  0
 34 36  1  0  0  0
 34 59  1  0  0  0
 34116  1  0  0  0
 35 44  2  0  0  0
 35 45  1  0  0  0
 35 68  1  0  0  0
 36 56  1  0  0  0
 36117  1  0  0  0
 37 39  1  0  0  0
 37 47  1  0  0  0
 37 66  1  0  0  0
 37118  1  0  0  0
 38 43  2  0  0  0
 38 46  1  0  0  0
 38 47  1  0  0  0
 39 64  1  0  0  0
 39 67  2  0  0  0
 40 52  1  0  0  0
 40 53  2  0  0  0
 40 58  1  0  0  0
 41119  1  0  0  0
 41120  1  0  0  0
 41121  1  0  0  0
 41 48  1  0  0  0
 42 43  1  0  0  0
 42 66  1  0  0  0
 42122  1  0  0  0
 42123  1  0  0  0
 43 44  1  0  0  0
 44124  1  0  0  0
 45 46  2  0  0  0
 45125  1  0  0  0
 46126  1  0  0  0
 47127  1  0  0  0
 47128  1  0  0  0
 48 56  1  0  0  0
 48 65  1  0  0  0
 48129  1  0  0  0
 49 50  1  0  0  0
 49 53  1  0  0  0
 49 64  1  0  0  0
 49130  1  0  0  0
 50 51  1  0  0  0
 50131  1  0  0  0
 50132  1  0  0  0
 51 52  1  0  0  0
 51133  1  0  0  0
 51134  1  0  0  0
 52135  1  0  0  0
 52136  1  0  0  0
 53 54  1  0  0  0
 54 55  2  0  0  0
 54137  1  0  0  0
 55 57  1  0  0  0
 55138  1  0  0  0
 56 69  2  0  0  0
 57 58  2  0  0  0
 57139  1  0  0  0
 58140  1  0  0  0
 59 60  1  0  0  0
 59 61  1  0  0  0
 59 62  1  0  0  0
 60141  1  0  0  0
 60142  1  0  0  0
 60143  1  0  0  0
 61144  1  0  0  0
 61145  1  0  0  0
 61146  1  0  0  0
 62147  1  0  0  0
 62148  1  0  0  0
 62149  1  0  0  0
 63 65  1  0  0  0
 63150  1  0  0  0
 63151  1  0  0  0
 63152  1  0  0  0
 64153  1  0  0  0
 65154  1  0  0  0
 68 87  1  0  0  0
 71 72  2  0  0  0
 71 93  1  0  0  0
 71155  1  0  0  0
 72 88  1  0  0  0
 72 94  1  0  0  0
 73 81  1  0  0  0
 73 93  1  0  0  0
 73 94  2  0  0  0
 74 82  1  0  0  0
 74156  1  0  0  0
 74157  1  0  0  0
 74158  1  0  0  0
 75159  1  0  0  0
 75160  1  0  0  0
 75161  1  0  0  0
 75 89  1  0  0  0
 76 89  1  0  0  0
 76162  1  0  0  0
 76163  1  0  0  0
 76164  1  0  0  0
 77165  1  0  0  0
 77166  1  0  0  0
 77167  1  0  0  0
 77 90  1  0  0  0
 78 90  1  0  0  0
 78168  1  0  0  0
 78169  1  0  0  0
 78170  1  0  0  0
 79171  1  0  0  0
 79172  1  0  0  0
 79173  1  0  0  0
 79 92  1  0  0  0
 80 92  1  0  0  0
 80174  1  0  0  0
 80175  1  0  0  0
 80176  1  0  0  0
 81 83  1  0  0  0
 81177  1  0  0  0
 81178  1  0  0  0
 82 84  1  0  0  0
 82179  1  0  0  0
 82180  1  0  0  0
 83 85  1  0  0  0
 83181  1  0  0  0
 83182  1  0  0  0
 84183  1  0  0  0
 84184  1  0  0  0
 84 88  1  0  0  0
 85 89  1  0  0  0
 85185  1  0  0  0
 85186  1  0  0  0
 86 92  1  0  0  0
 86 93  1  0  0  0
 86187  1  0  0  0
 86188  1  0  0  0
 87 92  1  0  0  0
 87189  1  0  0  0
 87190  1  0  0  0
 88 91  1  0  0  0
 88191  1  0  0  0
 89192  1  0  0  0
 90 91  1  0  0  0
 90193  1  0  0  0
 91 95  1  0  0  0
 91194  1  0  0  0
 94195  1  0  0  0
 95196  1  0  0  0
M  CHG  1  94   1
M  ISO  4   1 100  68 101  87 101  95 100
M  END
> <chiral flag>
0

> <version>
0

> <s_m_source_file>
/data/baiqing/PycharmProjects/Reinvent-master-3.2/result/LINK_invent/BTK/process_docking_weight1_custom_sum_contain_oxygen_bond_distance_aromatic_linkinvent_7_9_3/rearranged_h_0086.sdf

> <i_m_source_file_index>
63

> <r_mmod_Potential_Energy-OPLS-2005>
156.29997253418

> <r_mmod_Stretch_Energy-OPLS-2005>
91.2013702392578

> <r_mmod_Bend_Energy-OPLS-2005>
205.961685180664

> <r_mmod_Torsional_Energy-OPLS-2005>
314.442718505859

> <r_mmod_Improper_Torsional_Energy-OPLS-2005>
5.83253908157349

> <r_mmod_Van_der_Waal_Energy-OPLS-2005>
106.861030578613

> <r_mmod_Electrostatic_Energy-OPLS-2005>
-232.001892089844

> <r_mmod_Solvation_Energy-OPLS-2005>
-376.677459716797

> <b_mmod_Minimization_Converged-OPLS-2005>
0

> <r_mmod_RMS_Derivative-OPLS-2005>
6.59649419784546

$$$$
64
                    3D
 Structure written by MMmdl.
169177  0  0  1  0            999 V2000
  -30.6881  -14.4935   20.5651 C   0  0  0  0  0  0
  -30.4343  -12.3199   19.4220 C   0  0  0  0  0  0
  -29.5006  -12.5085   18.2067 C   0  0  0  0  0  0
  -28.0214  -12.3686   18.6186 C   0  0  0  0  0  0
  -27.6664  -13.2052   19.8774 C   0  0  2  0  0  0
  -28.7101  -12.9842   20.9977 C   0  0  0  0  0  0
  -25.2623  -13.8161   20.5689 C   0  0  0  0  0  0
  -24.1863  -13.0447   20.9166 C   0  0  0  0  0  0
  -24.6406  -11.6908   20.8714 C   0  0  0  0  0  0
  -23.9069  -10.4294   21.0392 C   0  0  0  0  0  0
  -24.3618   -9.4212   21.9177 C   0  0  0  0  0  0
  -23.6288   -8.2249   22.0758 C   0  0  0  0  0  0
  -22.4273   -8.0282   21.3545 C   0  0  0  0  0  0
  -21.9911   -9.0251   20.4644 C   0  0  0  0  0  0
  -22.7242  -10.2130   20.3041 C   0  0  0  0  0  0
  -21.6855   -6.0734   22.5274 C   0  0  0  0  0  0
  -21.4014   -6.5641   23.8203 C   0  0  0  0  0  0
  -21.3657   -5.6795   24.9166 C   0  0  0  0  0  0
  -21.6043   -4.3052   24.7221 C   0  0  0  0  0  0
  -21.8821   -3.8146   23.4337 C   0  0  0  0  0  0
  -21.9199   -4.6964   22.3396 C   0  0  0  0  0  0
  -22.7887  -13.5245   21.1822 C   0  0  0  0  0  0
  -22.1667   -4.2150   21.0970 F   0  0  0  0  0  0
  -21.5630   -3.4535   25.7734 F   0  0  0  0  0  0
  -30.0415  -13.2996   20.4479 N   0  0  0  0  0  0
  -26.3058  -12.9316   20.3368 N   0  0  0  0  0  0
  -25.9333  -11.6483   20.5755 N   0  0  0  0  0  0
  -22.0513  -12.8228   22.0362 N   0  0  0  0  0  0
  -25.4380  -15.1878   20.4128 N   0  0  0  0  0  0
  -31.8075  -14.7008   20.0883 O   0  0  0  0  0  0
  -21.6640   -6.8879   21.4232 O   0  0  0  0  0  0
  -22.3580  -14.5563   20.6685 O   0  0  0  0  0  0
  -24.6263  -31.8677   23.2108 C   0  0  0  0  0  0
  -25.9149  -32.4814   23.8393 C   0  0  1  0  0  0
  -27.2106  -27.3682   20.0793 C   0  0  0  0  0  0
  -25.6000  -33.8609   24.2347 N   0  0  0  0  0  0
  -23.4119  -30.4995   21.5563 C   0  0  2  0  0  0
  -24.8501  -28.9767   20.1091 C   0  0  0  0  0  0
  -22.7459  -29.4680   22.4979 C   0  0  0  0  0  0
  -18.0274  -28.1390   22.8471 C   0  0  0  0  0  0
  -24.1474  -36.7281   23.2637 C   0  0  0  0  0  0
  -25.9541  -30.8116   21.3734 C   0  0  0  0  0  0
  -26.0219  -29.4445   20.7175 C   0  0  0  0  0  0
  -27.2024  -28.6466   20.7087 C   0  0  0  0  0  0
  -26.0136  -26.9739   19.4216 C   0  0  0  0  0  0
  -24.8451  -27.7418   19.4590 C   0  0  0  0  0  0
  -23.6183  -29.8505   20.1664 C   0  0  0  0  0  0
  -25.4095  -36.3098   24.0344 C   0  0  1  0  0  0
  -20.5878  -28.3669   23.1296 C   0  0  2  0  0  0
  -20.6772  -26.9404   22.5401 C   0  0  0  0  0  0
  -19.5738  -26.6379   21.5218 C   0  0  0  0  0  0
  -18.1919  -26.7930   22.1624 C   0  0  0  0  0  0
  -19.1532  -28.8844   23.2868 C   0  0  0  0  0  0
  -18.9458  -30.1451   23.8873 C   0  0  0  0  0  0
  -17.6460  -30.6590   24.0560 C   0  0  0  0  0  0
  -25.9031  -34.9471   23.5121 C   0  0  0  0  0  0
  -16.5349  -29.9081   23.6345 C   0  0  0  0  0  0
  -16.7264  -28.6510   23.0348 C   0  0  0  0  0  0
  -26.4526  -31.6587   25.0730 C   0  0  0  0  0  0
  -25.3773  -31.3672   26.1464 C   0  0  0  0  0  0
  -27.0386  -30.3046   24.6093 C   0  0  0  0  0  0
  -27.6108  -32.4294   25.7509 C   0  0  0  0  0  0
  -27.5556  -37.1801   24.8485 C   0  0  0  0  0  0
  -21.4181  -29.3058   22.3732 N   0  0  0  0  0  0
  -26.4267  -37.3802   23.9422 N   0  0  0  0  0  0
  -24.6843  -31.0757   22.1035 N   0  0  0  0  0  0
  -23.4218  -28.8173   23.2995 O   0  0  0  0  0  0
  -28.3249  -26.5137   20.1348 O   0  0  0  0  0  0
  -26.5560  -34.8943   22.4658 O   0  0  0  0  0  0
  -23.5442  -32.1439   23.7491 O   0  0  0  0  0  0
  -30.4584  -22.7798   21.2744 C   0  0  0  0  0  0
  -28.5740  -22.6823   19.3493 C   0  0  0  0  0  0
  -30.0758  -21.5351   20.6841 C   0  0  0  0  0  0
  -28.9265  -23.9260   19.9544 C   0  0  0  0  0  0
  -31.5148  -22.8540   22.3612 C   0  0  0  0  0  0
  -27.4740  -22.5550   18.3069 C   0  0  0  0  0  0
  -29.3246  -20.0932   23.2830 C   0  0  0  0  0  0
  -31.3767  -17.6636   22.9736 C   0  0  0  0  0  0
  -28.9443  -17.1262   23.1512 C   0  0  0  0  0  0
  -30.6182  -20.1477   21.0998 C   0  0  0  0  0  0
  -28.0755  -25.1692   19.6121 C   0  0  0  0  0  0
  -30.1186  -16.9536   20.9139 C   0  0  0  0  0  0
  -29.6386  -19.3033   21.9853 C   0  0  1  0  0  0
  -30.0233  -17.7801   22.2439 C   0  0  0  0  0  0
  -29.1476  -21.5077   19.7037 N   0  0  0  0  0  0
  -29.8868  -23.9698   20.9153 N   0  0  0  0  0  0
  -29.9419  -15.4915   21.0745 N   0  0  0  0  0  0
  -31.4766  -12.4333   19.1181 H   0  0  0  0  0  0
  -30.3484  -11.3072   19.8187 H   0  0  0  0  0  0
  -29.7418  -11.7784   17.4332 H   0  0  0  0  0  0
  -29.6656  -13.4908   17.7606 H   0  0  0  0  0  0
  -27.8305  -11.3121   18.8106 H   0  0  0  0  0  0
  -27.3724  -12.6477   17.7874 H   0  0  0  0  0  0
  -27.7113  -14.2535   19.5825 H   0  0  0  0  0  0
  -28.6891  -11.9462   21.3319 H   0  0  0  0  0  0
  -28.4678  -13.5778   21.8802 H   0  0  0  0  0  0
  -25.2770   -9.5696   22.4743 H   0  0  0  0  0  0
  -24.0003   -7.4652   22.7483 H   0  0  0  0  0  0
  -21.0844   -8.8762   19.8946 H   0  0  0  0  0  0
  -22.3702  -10.9662   19.6135 H   0  0  0  0  0  0
  -21.1997   -7.6149   23.9707 H   0  0  0  0  0  0
  -21.1478   -6.0522   25.9073 H   0  0  0  0  0  0
  -22.0603   -2.7605   23.2833 H   0  0  0  0  0  0
  -22.4119  -11.9872   22.4728 H   0  0  0  0  0  0
  -21.1120  -13.1239   22.2541 H   0  0  0  0  0  0
  -24.6784  -15.8485   20.5349 H   0  0  0  0  0  0
  -26.2964  -15.6246   20.1018 H   0  0  0  0  0  0
  -26.7203  -32.5489   23.1134 H   0  0  0  0  0  0
  -25.0324  -33.9752   25.0609 H   0  0  0  0  0  0
  -22.7024  -31.3188   21.4211 H   0  0  0  0  0  0
  -23.3752  -35.9601   23.3330 H   0  0  0  0  0  0
  -24.3571  -36.8878   22.2047 H   0  0  0  0  0  0
  -23.7198  -37.6470   23.6637 H   0  0  0  0  0  0
  -26.0756  -31.5707   20.5979 H   0  0  0  0  0  0
  -26.8451  -30.8628   21.9875 H   0  0  0  0  0  0
  -28.0962  -28.9968   21.2056 H   0  0  0  0  0  0
  -25.9132  -26.0582   18.8599 H   0  0  0  0  0  0
  -23.9539  -27.3817   18.9661 H   0  0  0  0  0  0
  -23.7249  -30.6318   19.4132 H   0  0  0  0  0  0
  -22.7376  -29.2784   19.8653 H   0  0  0  0  0  0
  -25.1260  -36.1957   25.0833 H   0  0  0  0  0  0
  -20.9933  -28.3227   24.1429 H   0  0  0  0  0  0
  -20.5723  -26.2267   23.3581 H   0  0  0  0  0  0
  -21.6627  -26.7470   22.1151 H   0  0  0  0  0  0
  -19.6909  -25.6296   21.1236 H   0  0  0  0  0  0
  -19.6701  -27.3203   20.6767 H   0  0  0  0  0  0
  -17.4193  -26.6687   21.4014 H   0  0  0  0  0  0
  -18.0294  -26.0081   22.9021 H   0  0  0  0  0  0
  -19.7941  -30.7276   24.2217 H   0  0  0  0  0  0
  -17.5028  -31.6273   24.5153 H   0  0  0  0  0  0
  -15.5354  -30.2985   23.7689 H   0  0  0  0  0  0
  -15.8658  -28.0835   22.7072 H   0  0  0  0  0  0
  -24.6045  -30.6888   25.7831 H   0  0  0  0  0  0
  -24.8835  -32.2796   26.4810 H   0  0  0  0  0  0
  -25.8136  -30.8965   27.0288 H   0  0  0  0  0  0
  -26.2959  -29.6793   24.1121 H   0  0  0  0  0  0
  -27.4168  -29.7266   25.4535 H   0  0  0  0  0  0
  -27.8770  -30.4402   23.9261 H   0  0  0  0  0  0
  -27.2791  -33.3700   26.1900 H   0  0  0  0  0  0
  -28.4016  -32.6654   25.0385 H   0  0  0  0  0  0
  -28.0612  -31.8490   26.5559 H   0  0  0  0  0  0
  -28.2591  -38.0083   24.7544 H   0  0  0  0  0  0
  -28.1035  -36.2620   24.6310 H   0  0  0  0  0  0
  -27.2279  -37.1458   25.8891 H   0  0  0  0  0  0
  -20.9347  -29.8820   21.6983 H   0  0  0  0  0  0
  -26.0154  -38.2876   24.1437 H   0  0  0  0  0  0
  -31.2018  -22.2930   23.2416 H   0  0  0  0  0  0
  -31.6962  -23.8836   22.6720 H   0  0  0  0  0  0
  -32.4592  -22.4402   22.0091 H   0  0  0  0  0  0
  -26.5140  -22.8785   18.7124 H   0  0  0  0  0  0
  -27.3543  -21.5208   17.9786 H   0  0  0  0  0  0
  -27.6993  -23.1558   17.4254 H   0  0  0  0  0  0
  -29.0113  -21.1139   23.0666 H   0  0  0  0  0  0
  -30.1949  -20.1555   23.9359 H   0  0  0  0  0  0
  -28.5007  -19.6688   23.8534 H   0  0  0  0  0  0
  -31.6454  -16.6194   23.1387 H   0  0  0  0  0  0
  -31.3563  -18.1429   23.9522 H   0  0  0  0  0  0
  -32.1882  -18.1133   22.4005 H   0  0  0  0  0  0
  -29.1528  -16.0796   23.3711 H   0  0  0  0  0  0
  -27.9547  -17.1763   22.6953 H   0  0  0  0  0  0
  -28.8841  -17.5937   24.1331 H   0  0  0  0  0  0
  -31.5763  -20.2611   21.6051 H   0  0  0  0  0  0
  -30.8386  -19.5991   20.1833 H   0  0  0  0  0  0
  -27.1154  -24.8215   19.9931 H   0  0  0  0  0  0
  -28.0178  -25.2425   18.5257 H   0  0  0  0  0  0
  -31.0553  -17.1724   20.3991 H   0  0  0  0  0  0
  -29.3307  -17.2782   20.2331 H   0  0  0  0  0  0
  -28.6999  -19.2732   21.4303 H   0  0  0  0  0  0
  -29.0539  -15.2028   21.4565 H   0  0  0  0  0  0
  1 25  1  0  0  0
  1 30  2  0  0  0
  1 87  1  0  0  0
  2  3  1  0  0  0
  2 25  1  0  0  0
  2 88  1  0  0  0
  2 89  1  0  0  0
  3  4  1  0  0  0
  3 90  1  0  0  0
  3 91  1  0  0  0
  4  5  1  0  0  0
  4 92  1  0  0  0
  4 93  1  0  0  0
  5  6  1  0  0  0
  5 26  1  0  0  0
  5 94  1  0  0  0
  6 25  1  0  0  0
  6 95  1  0  0  0
  6 96  1  0  0  0
  7  8  2  0  0  0
  7 26  1  0  0  0
  7 29  1  0  0  0
  8  9  1  0  0  0
  8 22  1  0  0  0
  9 10  1  0  0  0
  9 27  2  0  0  0
 10 11  2  0  0  0
 10 15  1  0  0  0
 11 12  1  0  0  0
 11 97  1  0  0  0
 12 13  2  0  0  0
 12 98  1  0  0  0
 13 14  1  0  0  0
 13 31  1  0  0  0
 14 15  2  0  0  0
 14 99  1  0  0  0
 15100  1  0  0  0
 16 17  2  0  0  0
 16 21  1  0  0  0
 16 31  1  0  0  0
 17 18  1  0  0  0
 17101  1  0  0  0
 18 19  2  0  0  0
 18102  1  0  0  0
 19 20  1  0  0  0
 19 24  1  0  0  0
 20 21  2  0  0  0
 20103  1  0  0  0
 21 23  1  0  0  0
 22 28  1  0  0  0
 22 32  2  0  0  0
 26 27  1  0  0  0
 28104  1  0  0  0
 28105  1  0  0  0
 29106  1  0  0  0
 29107  1  0  0  0
 33 34  1  0  0  0
 33 66  1  0  0  0
 33 70  2  0  0  0
 34 36  1  0  0  0
 34 59  1  0  0  0
 34108  1  0  0  0
 35 44  2  0  0  0
 35 45  1  0  0  0
 35 68  1  0  0  0
 36 56  1  0  0  0
 36109  1  0  0  0
 37 39  1  0  0  0
 37 47  1  0  0  0
 37 66  1  0  0  0
 37110  1  0  0  0
 38 43  2  0  0  0
 38 46  1  0  0  0
 38 47  1  0  0  0
 39 64  1  0  0  0
 39 67  2  0  0  0
 40 52  1  0  0  0
 40 53  2  0  0  0
 40 58  1  0  0  0
 41111  1  0  0  0
 41112  1  0  0  0
 41113  1  0  0  0
 41 48  1  0  0  0
 42 43  1  0  0  0
 42 66  1  0  0  0
 42114  1  0  0  0
 42115  1  0  0  0
 43 44  1  0  0  0
 44116  1  0  0  0
 45 46  2  0  0  0
 45117  1  0  0  0
 46118  1  0  0  0
 47119  1  0  0  0
 47120  1  0  0  0
 48 56  1  0  0  0
 48 65  1  0  0  0
 48121  1  0  0  0
 49 50  1  0  0  0
 49 53  1  0  0  0
 49 64  1  0  0  0
 49122  1  0  0  0
 50 51  1  0  0  0
 50123  1  0  0  0
 50124  1  0  0  0
 51 52  1  0  0  0
 51125  1  0  0  0
 51126  1  0  0  0
 52127  1  0  0  0
 52128  1  0  0  0
 53 54  1  0  0  0
 54 55  2  0  0  0
 54129  1  0  0  0
 55 57  1  0  0  0
 55130  1  0  0  0
 56 69  2  0  0  0
 57 58  2  0  0  0
 57131  1  0  0  0
 58132  1  0  0  0
 59 60  1  0  0  0
 59 61  1  0  0  0
 59 62  1  0  0  0
 60133  1  0  0  0
 60134  1  0  0  0
 60135  1  0  0  0
 61136  1  0  0  0
 61137  1  0  0  0
 61138  1  0  0  0
 62139  1  0  0  0
 62140  1  0  0  0
 62141  1  0  0  0
 63 65  1  0  0  0
 63142  1  0  0  0
 63143  1  0  0  0
 63144  1  0  0  0
 64145  1  0  0  0
 65146  1  0  0  0
 68 81  1  0  0  0
 71 73  2  0  0  0
 71 75  1  0  0  0
 71 86  1  0  0  0
 72 74  1  0  0  0
 72 76  1  0  0  0
 72 85  2  0  0  0
 73 80  1  0  0  0
 73 85  1  0  0  0
 74 81  1  0  0  0
 74 86  2  0  0  0
 75147  1  0  0  0
 75148  1  0  0  0
 75149  1  0  0  0
 76150  1  0  0  0
 76151  1  0  0  0
 76152  1  0  0  0
 77153  1  0  0  0
 77154  1  0  0  0
 77155  1  0  0  0
 77 83  1  0  0  0
 78156  1  0  0  0
 78157  1  0  0  0
 78158  1  0  0  0
 78 84  1  0  0  0
 79 84  1  0  0  0
 79159  1  0  0  0
 79160  1  0  0  0
 79161  1  0  0  0
 80 83  1  0  0  0
 80162  1  0  0  0
 80163  1  0  0  0
 81164  1  0  0  0
 81165  1  0  0  0
 82 84  1  0  0  0
 82 87  1  0  0  0
 82166  1  0  0  0
 82167  1  0  0  0
 83 84  1  0  0  0
 83168  1  0  0  0
 87169  1  0  0  0
M  ISO  4   1 100  68 101  81 101  87 100
M  END
> <chiral flag>
0

> <version>
0

> <s_m_source_file>
/data/baiqing/PycharmProjects/Reinvent-master-3.2/result/LINK_invent/BTK/process_docking_weight1_custom_sum_contain_oxygen_bond_distance_aromatic_linkinvent_7_9_3/rearranged_h_0086.sdf

> <i_m_source_file_index>
64

> <r_mmod_Potential_Energy-OPLS-2005>
32.0403289794922

> <r_mmod_Stretch_Energy-OPLS-2005>
60.8194389343262

> <r_mmod_Bend_Energy-OPLS-2005>
137.152435302734

> <r_mmod_Torsional_Energy-OPLS-2005>
218.131195068359

> <r_mmod_Improper_Torsional_Energy-OPLS-2005>
5.18551778793335

> <r_mmod_Van_der_Waal_Energy-OPLS-2005>
178.950408935547

> <r_mmod_Electrostatic_Energy-OPLS-2005>
-374.293334960938

> <r_mmod_Solvation_Energy-OPLS-2005>
-219.294860839844

> <b_mmod_Minimization_Converged-OPLS-2005>
0

> <r_mmod_RMS_Derivative-OPLS-2005>
2.56078386306763

$$$$
65
                    3D
 Structure written by MMmdl.
184192  0  0  1  0            999 V2000
  -30.8068  -14.2663   20.7518 C   0  0  0  0  0  0
  -30.4200  -12.2516   19.3879 C   0  0  0  0  0  0
  -29.4983  -12.5558   18.1951 C   0  0  0  0  0  0
  -28.0202  -12.4096   18.6008 C   0  0  0  0  0  0
  -27.6842  -13.1970   19.8918 C   0  0  2  0  0  0
  -28.7158  -12.9054   21.0045 C   0  0  0  0  0  0
  -25.2704  -13.8163   20.5678 C   0  0  0  0  0  0
  -24.1928  -13.0469   20.9171 C   0  0  0  0  0  0
  -24.6430  -11.6923   20.8709 C   0  0  0  0  0  0
  -23.9053  -10.4338   21.0358 C   0  0  0  0  0  0
  -24.3594   -9.4266   21.9152 C   0  0  0  0  0  0
  -23.6297   -8.2298   22.0739 C   0  0  0  0  0  0
  -22.4282   -8.0299   21.3543 C   0  0  0  0  0  0
  -21.9899   -9.0251   20.4630 C   0  0  0  0  0  0
  -22.7211  -10.2153   20.3026 C   0  0  0  0  0  0
  -21.6874   -6.0745   22.5274 C   0  0  0  0  0  0
  -21.4024   -6.5644   23.8213 C   0  0  0  0  0  0
  -21.3667   -5.6790   24.9169 C   0  0  0  0  0  0
  -21.6053   -4.3053   24.7209 C   0  0  0  0  0  0
  -21.8815   -3.8149   23.4329 C   0  0  0  0  0  0
  -21.9200   -4.6975   22.3392 C   0  0  0  0  0  0
  -22.7939  -13.5268   21.1836 C   0  0  0  0  0  0
  -22.1671   -4.2172   21.0965 F   0  0  0  0  0  0
  -21.5635   -3.4525   25.7713 F   0  0  0  0  0  0
  -30.0769  -13.1588   20.4851 N   0  0  0  0  0  0
  -26.3151  -12.9311   20.3395 N   0  0  0  0  0  0
  -25.9375  -11.6481   20.5722 N   0  0  0  0  0  0
  -22.0529  -12.8286   22.0337 N   0  0  0  0  0  0
  -25.4473  -15.1869   20.4090 N   0  0  0  0  0  0
  -31.7070  -14.7048   20.0270 O   0  0  0  0  0  0
  -21.6663   -6.8883   21.4235 O   0  0  0  0  0  0
  -22.3669  -14.5596   20.6674 O   0  0  0  0  0  0
  -24.6163  -31.8746   23.2182 C   0  0  0  0  0  0
  -25.9100  -32.4830   23.8439 C   0  0  1  0  0  0
  -27.1948  -27.4511   20.0691 C   0  0  0  0  0  0
  -25.6006  -33.8632   24.2404 N   0  0  0  0  0  0
  -23.3985  -30.5092   21.5590 C   0  0  2  0  0  0
  -24.8374  -28.9997   20.1066 C   0  0  0  0  0  0
  -22.7423  -29.4722   22.5000 C   0  0  0  0  0  0
  -18.0329  -28.1315   22.8510 C   0  0  0  0  0  0
  -24.1489  -36.7304   23.2626 C   0  0  0  0  0  0
  -25.9327  -30.8342   21.3849 C   0  0  0  0  0  0
  -25.9998  -29.4749   20.7289 C   0  0  0  0  0  0
  -27.1830  -28.6971   20.7371 C   0  0  0  0  0  0
  -26.0600  -27.0754   19.3365 C   0  0  0  0  0  0
  -24.8612  -27.7913   19.4045 C   0  0  0  0  0  0
  -23.6056  -29.8660   20.1662 C   0  0  0  0  0  0
  -25.4106  -36.3111   24.0357 C   0  0  1  0  0  0
  -20.5903  -28.3723   23.1376 C   0  0  2  0  0  0
  -20.6885  -26.9445   22.5522 C   0  0  0  0  0  0
  -19.5896  -26.6363   21.5298 C   0  0  0  0  0  0
  -18.2073  -26.7811   22.1730 C   0  0  0  0  0  0
  -19.1541  -28.8854   23.2905 C   0  0  0  0  0  0
  -18.9409  -30.1493   23.8827 C   0  0  0  0  0  0
  -17.6386  -30.6564   24.0474 C   0  0  0  0  0  0
  -25.9047  -34.9477   23.5158 C   0  0  0  0  0  0
  -16.5315  -29.8997   23.6266 C   0  0  0  0  0  0
  -16.7307  -28.6402   23.0324 C   0  0  0  0  0  0
  -26.4520  -31.6564   25.0732 C   0  0  0  0  0  0
  -25.3809  -31.3670   26.1495 C   0  0  0  0  0  0
  -27.0337  -30.3001   24.6077 C   0  0  0  0  0  0
  -27.6093  -32.4270   25.7509 C   0  0  0  0  0  0
  -27.5588  -37.1818   24.8471 C   0  0  0  0  0  0
  -21.4143  -29.3097   22.3775 N   0  0  0  0  0  0
  -26.4285  -37.3800   23.9431 N   0  0  0  0  0  0
  -24.6667  -31.0859   22.1105 N   0  0  0  0  0  0
  -23.4208  -28.8216   23.2981 O   0  0  0  0  0  0
  -28.2663  -26.5909   20.1159 O   0  0  0  0  0  0
  -26.5517  -34.8904   22.4659 O   0  0  0  0  0  0
  -23.5367  -32.1518   23.7572 O   0  0  0  0  0  0
  -27.7780  -23.1542   22.8362 C   0  0  0  0  0  0
  -27.5957  -22.9683   21.4376 C   0  0  0  0  0  0
  -27.4752  -21.9966   23.4922 C   0  0  0  0  0  0
  -27.2781  -21.6363   21.2691 C   0  0  0  0  0  0
  -26.9721  -20.8541   20.0174 C   0  0  0  0  0  0
  -25.9138  -21.7726   25.4552 C   0  0  0  0  0  0
  -28.2186  -22.7442   25.7940 C   0  0  0  0  0  0
  -26.1872  -24.0713   19.7890 C   0  0  0  0  0  0
  -28.6644  -23.7080   19.2770 C   0  0  0  0  0  0
  -29.8778  -19.2220   22.1564 C   0  0  0  0  0  0
  -28.8960  -18.0337   24.1665 C   0  0  0  0  0  0
  -27.4184  -18.4902   22.1599 C   0  0  0  0  0  0
  -29.1932  -16.7893   22.0094 C   0  0  0  0  0  0
  -26.6539  -19.6846   22.7826 C   0  0  0  0  0  0
  -30.5931  -16.2028   22.2800 C   0  0  0  0  0  0
  -28.0405  -25.4512   20.9846 C   0  0  0  0  0  0
  -27.3740  -21.7572   24.9758 C   0  0  0  0  0  0
  -27.6275  -24.0589   20.3625 C   0  0  0  0  0  0
  -28.8619  -18.1614   22.6332 C   0  0  0  0  0  0
  -27.1634  -21.0408   22.5264 N   0  0  0  0  0  0
  -30.5315  -14.7948   21.9426 N   0  0  0  0  0  0
  -31.4695  -12.3414   19.1020 H   0  0  0  0  0  0
  -30.2811  -11.2200   19.7171 H   0  0  0  0  0  0
  -29.7351  -11.8988   17.3575 H   0  0  0  0  0  0
  -29.6872  -13.5717   17.8442 H   0  0  0  0  0  0
  -27.8119  -11.3492   18.7390 H   0  0  0  0  0  0
  -27.3773  -12.7405   17.7846 H   0  0  0  0  0  0
  -27.7563  -14.2572   19.6478 H   0  0  0  0  0  0
  -28.6474  -11.8658   21.3281 H   0  0  0  0  0  0
  -28.4606  -13.4948   21.8849 H   0  0  0  0  0  0
  -25.2731   -9.5801   22.4728 H   0  0  0  0  0  0
  -24.0029   -7.4707   22.7481 H   0  0  0  0  0  0
  -21.0830   -8.8731   19.8947 H   0  0  0  0  0  0
  -22.3617  -10.9662   19.6141 H   0  0  0  0  0  0
  -21.2007   -7.6147   23.9718 H   0  0  0  0  0  0
  -21.1510   -6.0515   25.9074 H   0  0  0  0  0  0
  -22.0585   -2.7605   23.2807 H   0  0  0  0  0  0
  -22.4064  -11.9909   22.4745 H   0  0  0  0  0  0
  -21.1135  -13.1351   22.2467 H   0  0  0  0  0  0
  -24.6849  -15.8437   20.5347 H   0  0  0  0  0  0
  -26.3019  -15.6236   20.0884 H   0  0  0  0  0  0
  -26.7165  -32.5555   23.1195 H   0  0  0  0  0  0
  -25.0305  -33.9777   25.0662 H   0  0  0  0  0  0
  -22.6909  -31.3306   21.4306 H   0  0  0  0  0  0
  -23.3745  -35.9645   23.3269 H   0  0  0  0  0  0
  -24.3610  -36.8883   22.2039 H   0  0  0  0  0  0
  -23.7222  -37.6516   23.6607 H   0  0  0  0  0  0
  -26.0550  -31.6002   20.6168 H   0  0  0  0  0  0
  -26.8198  -30.8739   22.0049 H   0  0  0  0  0  0
  -28.0629  -29.0446   21.2606 H   0  0  0  0  0  0
  -26.0964  -26.2501   18.6576 H   0  0  0  0  0  0
  -23.9958  -27.4486   18.8559 H   0  0  0  0  0  0
  -23.7184  -30.6498   19.4158 H   0  0  0  0  0  0
  -22.7264  -29.2921   19.8619 H   0  0  0  0  0  0
  -25.1270  -36.1982   25.0847 H   0  0  0  0  0  0
  -20.9979  -28.3366   24.1512 H   0  0  0  0  0  0
  -20.5763  -26.2357   23.3743 H   0  0  0  0  0  0
  -21.6789  -26.7475   22.1406 H   0  0  0  0  0  0
  -19.7138  -25.6299   21.1313 H   0  0  0  0  0  0
  -19.6802  -27.3251   20.6893 H   0  0  0  0  0  0
  -17.4348  -26.6393   21.4151 H   0  0  0  0  0  0
  -18.0566  -26.0009   22.9204 H   0  0  0  0  0  0
  -19.7842  -30.7413   24.2144 H   0  0  0  0  0  0
  -17.4857  -31.6270   24.4987 H   0  0  0  0  0  0
  -15.5291  -30.2829   23.7550 H   0  0  0  0  0  0
  -15.8746  -28.0654   22.7043 H   0  0  0  0  0  0
  -24.6036  -30.6918   25.7891 H   0  0  0  0  0  0
  -24.8940  -32.2806   26.4906 H   0  0  0  0  0  0
  -25.8210  -30.8922   27.0272 H   0  0  0  0  0  0
  -26.2870  -29.6755   24.1137 H   0  0  0  0  0  0
  -27.4130  -29.7215   25.4512 H   0  0  0  0  0  0
  -27.8707  -30.4295   23.9209 H   0  0  0  0  0  0
  -27.2718  -33.3582   26.2071 H   0  0  0  0  0  0
  -28.3930  -32.6783   25.0356 H   0  0  0  0  0  0
  -28.0724  -31.8387   26.5431 H   0  0  0  0  0  0
  -28.2613  -38.0112   24.7548 H   0  0  0  0  0  0
  -28.1067  -36.2641   24.6270 H   0  0  0  0  0  0
  -27.2304  -37.1470   25.8870 H   0  0  0  0  0  0
  -20.9256  -29.8958   21.7156 H   0  0  0  0  0  0
  -26.0155  -38.2875   24.1424 H   0  0  0  0  0  0
  -28.0230  -24.0839   23.3328 H   0  0  0  0  0  0
  -26.7886  -21.4764   19.1464 H   0  0  0  0  0  0
  -26.0753  -20.2467   20.1366 H   0  0  0  0  0  0
  -27.8046  -20.2048   19.7539 H   0  0  0  0  0  0
  -25.3147  -21.0147   24.9508 H   0  0  0  0  0  0
  -25.4478  -22.7386   25.2588 H   0  0  0  0  0  0
  -25.8560  -21.5753   26.5263 H   0  0  0  0  0  0
  -29.2645  -22.7147   25.4874 H   0  0  0  0  0  0
  -28.1845  -22.4981   26.8544 H   0  0  0  0  0  0
  -27.8725  -23.7703   25.6837 H   0  0  0  0  0  0
  -25.6635  -23.1236   19.8586 H   0  0  0  0  0  0
  -26.1699  -24.2880   18.7243 H   0  0  0  0  0  0
  -25.5423  -24.7546   20.3414 H   0  0  0  0  0  0
  -28.4600  -22.7647   18.7794 H   0  0  0  0  0  0
  -29.6660  -23.6340   19.7041 H   0  0  0  0  0  0
  -28.6886  -24.4730   18.5024 H   0  0  0  0  0  0
  -29.6789  -20.2021   22.5861 H   0  0  0  0  0  0
  -29.8666  -19.3381   21.0743 H   0  0  0  0  0  0
  -30.8974  -18.9651   22.4407 H   0  0  0  0  0  0
  -28.6672  -18.9741   24.6473 H   0  0  0  0  0  0
  -29.8772  -17.7474   24.5417 H   0  0  0  0  0  0
  -28.1693  -17.3040   24.5238 H   0  0  0  0  0  0
  -27.4076  -18.5467   21.0767 H   0  0  0  0  0  0
  -26.7884  -17.6219   22.3630 H   0  0  0  0  0  0
  -28.4438  -16.0782   22.3609 H   0  0  0  0  0  0
  -29.0516  -16.8378   20.9292 H   0  0  0  0  0  0
  -26.5651  -19.5143   23.8492 H   0  0  0  0  0  0
  -25.6240  -19.6567   22.4190 H   0  0  0  0  0  0
  -30.8709  -16.2652   23.3308 H   0  0  0  0  0  0
  -31.3646  -16.7274   21.7128 H   0  0  0  0  0  0
  -28.9837  -25.3149   21.5163 H   0  0  0  0  0  0
  -27.3257  -25.7200   21.7665 H   0  0  0  0  0  0
  -27.7808  -20.7797   25.2064 H   0  0  0  0  0  0
  -29.9305  -14.2382   22.5331 H   0  0  0  0  0  0
  1 25  1  0  0  0
  1 30  2  0  0  0
  1 91  1  0  0  0
  2  3  1  0  0  0
  2 25  1  0  0  0
  2 92  1  0  0  0
  2 93  1  0  0  0
  3  4  1  0  0  0
  3 94  1  0  0  0
  3 95  1  0  0  0
  4  5  1  0  0  0
  4 96  1  0  0  0
  4 97  1  0  0  0
  5  6  1  0  0  0
  5 26  1  0  0  0
  5 98  1  0  0  0
  6 25  1  0  0  0
  6 99  1  0  0  0
  6100  1  0  0  0
  7  8  2  0  0  0
  7 26  1  0  0  0
  7 29  1  0  0  0
  8  9  1  0  0  0
  8 22  1  0  0  0
  9 10  1  0  0  0
  9 27  2  0  0  0
 10 11  2  0  0  0
 10 15  1  0  0  0
 11 12  1  0  0  0
 11101  1  0  0  0
 12 13  2  0  0  0
 12102  1  0  0  0
 13 14  1  0  0  0
 13 31  1  0  0  0
 14 15  2  0  0  0
 14103  1  0  0  0
 15104  1  0  0  0
 16 17  2  0  0  0
 16 21  1  0  0  0
 16 31  1  0  0  0
 17 18  1  0  0  0
 17105  1  0  0  0
 18 19  2  0  0  0
 18106  1  0  0  0
 19 20  1  0  0  0
 19 24  1  0  0  0
 20 21  2  0  0  0
 20107  1  0  0  0
 21 23  1  0  0  0
 22 28  1  0  0  0
 22 32  2  0  0  0
 26 27  1  0  0  0
 28108  1  0  0  0
 28109  1  0  0  0
 29110  1  0  0  0
 29111  1  0  0  0
 33 34  1  0  0  0
 33 66  1  0  0  0
 33 70  2  0  0  0
 34 36  1  0  0  0
 34 59  1  0  0  0
 34112  1  0  0  0
 35 44  2  0  0  0
 35 45  1  0  0  0
 35 68  1  0  0  0
 36 56  1  0  0  0
 36113  1  0  0  0
 37 39  1  0  0  0
 37 47  1  0  0  0
 37 66  1  0  0  0
 37114  1  0  0  0
 38 43  2  0  0  0
 38 46  1  0  0  0
 38 47  1  0  0  0
 39 64  1  0  0  0
 39 67  2  0  0  0
 40 52  1  0  0  0
 40 53  2  0  0  0
 40 58  1  0  0  0
 41115  1  0  0  0
 41116  1  0  0  0
 41117  1  0  0  0
 41 48  1  0  0  0
 42 43  1  0  0  0
 42 66  1  0  0  0
 42118  1  0  0  0
 42119  1  0  0  0
 43 44  1  0  0  0
 44120  1  0  0  0
 45 46  2  0  0  0
 45121  1  0  0  0
 46122  1  0  0  0
 47123  1  0  0  0
 47124  1  0  0  0
 48 56  1  0  0  0
 48 65  1  0  0  0
 48125  1  0  0  0
 49 50  1  0  0  0
 49 53  1  0  0  0
 49 64  1  0  0  0
 49126  1  0  0  0
 50 51  1  0  0  0
 50127  1  0  0  0
 50128  1  0  0  0
 51 52  1  0  0  0
 51129  1  0  0  0
 51130  1  0  0  0
 52131  1  0  0  0
 52132  1  0  0  0
 53 54  1  0  0  0
 54 55  2  0  0  0
 54133  1  0  0  0
 55 57  1  0  0  0
 55134  1  0  0  0
 56 69  2  0  0  0
 57 58  2  0  0  0
 57135  1  0  0  0
 58136  1  0  0  0
 59 60  1  0  0  0
 59 61  1  0  0  0
 59 62  1  0  0  0
 60137  1  0  0  0
 60138  1  0  0  0
 60139  1  0  0  0
 61140  1  0  0  0
 61141  1  0  0  0
 61142  1  0  0  0
 62143  1  0  0  0
 62144  1  0  0  0
 62145  1  0  0  0
 63 65  1  0  0  0
 63146  1  0  0  0
 63147  1  0  0  0
 63148  1  0  0  0
 64149  1  0  0  0
 65150  1  0  0  0
 68 86  1  0  0  0
 71 72  1  0  0  0
 71 73  2  0  0  0
 71151  1  0  0  0
 72 74  2  0  0  0
 72 88  1  0  0  0
 73 87  1  0  0  0
 73 90  1  0  0  0
 74 75  1  0  0  0
 74 90  1  0  0  0
 75152  1  0  0  0
 75153  1  0  0  0
 75154  1  0  0  0
 76155  1  0  0  0
 76156  1  0  0  0
 76157  1  0  0  0
 76 87  1  0  0  0
 77 87  1  0  0  0
 77158  1  0  0  0
 77159  1  0  0  0
 77160  1  0  0  0
 78161  1  0  0  0
 78162  1  0  0  0
 78163  1  0  0  0
 78 88  1  0  0  0
 79 88  1  0  0  0
 79164  1  0  0  0
 79165  1  0  0  0
 79166  1  0  0  0
 80167  1  0  0  0
 80168  1  0  0  0
 80169  1  0  0  0
 80 89  1  0  0  0
 81 89  1  0  0  0
 81170  1  0  0  0
 81171  1  0  0  0
 81172  1  0  0  0
 82 84  1  0  0  0
 82 89  1  0  0  0
 82173  1  0  0  0
 82174  1  0  0  0
 83 85  1  0  0  0
 83 89  1  0  0  0
 83175  1  0  0  0
 83176  1  0  0  0
 84 90  1  0  0  0
 84177  1  0  0  0
 84178  1  0  0  0
 85 91  1  0  0  0
 85179  1  0  0  0
 85180  1  0  0  0
 86 88  1  0  0  0
 86181  1  0  0  0
 86182  1  0  0  0
 87183  1  0  0  0
 91184  1  0  0  0
M  ISO  4   1 100  68 101  86 101  91 100
M  END
> <chiral flag>
0

> <version>
0

> <s_m_source_file>
/data/baiqing/PycharmProjects/Reinvent-master-3.2/result/LINK_invent/BTK/process_docking_weight1_custom_sum_contain_oxygen_bond_distance_aromatic_linkinvent_7_9_3/rearranged_h_0086.sdf

> <i_m_source_file_index>
65

> <r_mmod_Potential_Energy-OPLS-2005>
31.2961158752441

> <r_mmod_Stretch_Energy-OPLS-2005>
40.1387176513672

> <r_mmod_Bend_Energy-OPLS-2005>
133.323501586914

> <r_mmod_Torsional_Energy-OPLS-2005>
286.202270507812

> <r_mmod_Improper_Torsional_Energy-OPLS-2005>
5.20369482040405

> <r_mmod_Van_der_Waal_Energy-OPLS-2005>
158.291931152344

> <r_mmod_Electrostatic_Energy-OPLS-2005>
-423.981353759766

> <r_mmod_Solvation_Energy-OPLS-2005>
-190.896194458008

> <b_mmod_Minimization_Converged-OPLS-2005>
0

> <r_mmod_RMS_Derivative-OPLS-2005>
4.50741624832153

$$$$
66
                    3D
 Structure written by MMmdl.
171179  0  0  1  0            999 V2000
  -30.7226  -14.7049   20.3209 C   0  0  0  0  0  0
  -30.4109  -12.4170   19.4454 C   0  0  0  0  0  0
  -29.4812  -12.4157   18.2168 C   0  0  0  0  0  0
  -28.0165  -12.2256   18.6559 C   0  0  0  0  0  0
  -27.6077  -13.1646   19.8160 C   0  0  2  0  0  0
  -28.6840  -13.2705   20.9254 C   0  0  0  0  0  0
  -25.2495  -13.7976   20.5791 C   0  0  0  0  0  0
  -24.1742  -13.0326   20.9296 C   0  0  0  0  0  0
  -24.6262  -11.6778   20.8866 C   0  0  0  0  0  0
  -23.8951  -10.4207   21.0494 C   0  0  0  0  0  0
  -24.3537   -9.4126   21.9248 C   0  0  0  0  0  0
  -23.6232   -8.2160   22.0776 C   0  0  0  0  0  0
  -22.4218   -8.0218   21.3552 C   0  0  0  0  0  0
  -21.9852   -9.0188   20.4655 C   0  0  0  0  0  0
  -22.7159  -10.2073   20.3094 C   0  0  0  0  0  0
  -21.6813   -6.0702   22.5278 C   0  0  0  0  0  0
  -21.3978   -6.5616   23.8211 C   0  0  0  0  0  0
  -21.3657   -5.6778   24.9181 C   0  0  0  0  0  0
  -21.6053   -4.3043   24.7238 C   0  0  0  0  0  0
  -21.8820   -3.8127   23.4358 C   0  0  0  0  0  0
  -21.9181   -4.6939   22.3411 C   0  0  0  0  0  0
  -22.7787  -13.5179   21.1920 C   0  0  0  0  0  0
  -22.1655   -4.2127   21.0988 F   0  0  0  0  0  0
  -21.5648   -3.4533   25.7752 F   0  0  0  0  0  0
  -29.9906  -13.5392   20.3072 N   0  0  0  0  0  0
  -26.2800  -12.9007   20.3349 N   0  0  0  0  0  0
  -25.9163  -11.6246   20.5916 N   0  0  0  0  0  0
  -22.0401  -12.8189   22.0449 N   0  0  0  0  0  0
  -25.4256  -15.1702   20.4187 N   0  0  0  0  0  0
  -31.9465  -14.6057   20.3787 O   0  0  0  0  0  0
  -21.6583   -6.8826   21.4233 O   0  0  0  0  0  0
  -22.3528  -14.5516   20.6763 O   0  0  0  0  0  0
  -24.6230  -31.8632   23.2050 C   0  0  0  0  0  0
  -25.9091  -32.4800   23.8368 C   0  0  1  0  0  0
  -27.2164  -27.3389   20.1081 C   0  0  0  0  0  0
  -25.5920  -33.8596   24.2300 N   0  0  0  0  0  0
  -23.4146  -30.4886   21.5493 C   0  0  2  0  0  0
  -24.8602  -28.9512   20.1095 C   0  0  0  0  0  0
  -22.7465  -29.4630   22.4948 C   0  0  0  0  0  0
  -18.0291  -28.1351   22.8486 C   0  0  0  0  0  0
  -24.1501  -36.7284   23.2631 C   0  0  0  0  0  0
  -25.9548  -30.7986   21.3732 C   0  0  0  0  0  0
  -26.0298  -29.4302   20.7128 C   0  0  0  0  0  0
  -27.2134  -28.6360   20.7024 C   0  0  0  0  0  0
  -26.0252  -26.9163   19.4695 C   0  0  0  0  0  0
  -24.8588  -27.7001   19.4783 C   0  0  0  0  0  0
  -23.6261  -29.8265   20.1635 C   0  0  0  0  0  0
  -25.4122  -36.3086   24.0333 C   0  0  1  0  0  0
  -20.5889  -28.3658   23.1281 C   0  0  2  0  0  0
  -20.6781  -26.9382   22.5396 C   0  0  0  0  0  0
  -19.5755  -26.6365   21.5195 C   0  0  0  0  0  0
  -18.1939  -26.7897   22.1619 C   0  0  0  0  0  0
  -19.1540  -28.8823   23.2883 C   0  0  0  0  0  0
  -18.9462  -30.1428   23.8896 C   0  0  0  0  0  0
  -17.6463  -30.6565   24.0544 C   0  0  0  0  0  0
  -25.9057  -34.9459   23.5118 C   0  0  0  0  0  0
  -16.5356  -29.9053   23.6323 C   0  0  0  0  0  0
  -16.7278  -28.6465   23.0352 C   0  0  0  0  0  0
  -26.4482  -31.6597   25.0724 C   0  0  0  0  0  0
  -25.3707  -31.3677   26.1434 C   0  0  0  0  0  0
  -27.0334  -30.3046   24.6127 C   0  0  0  0  0  0
  -27.6052  -32.4330   25.7486 C   0  0  0  0  0  0
  -27.5597  -37.1788   24.8459 C   0  0  0  0  0  0
  -21.4181  -29.3029   22.3686 N   0  0  0  0  0  0
  -26.4299  -37.3785   23.9414 N   0  0  0  0  0  0
  -24.6832  -31.0659   22.0993 N   0  0  0  0  0  0
  -23.4203  -28.8162   23.3009 O   0  0  0  0  0  0
  -28.3248  -26.4843   20.1748 O   0  0  0  0  0  0
  -26.5630  -34.8927   22.4689 O   0  0  0  0  0  0
  -23.5408  -32.1408   23.7406 O   0  0  0  0  0  0
  -29.5853  -21.3937   20.4220 C   0  0  0  0  0  0
  -27.1281  -20.5959   21.2448 C   0  0  0  0  0  0
  -28.6722  -22.4530   20.7711 C   0  0  0  0  0  0
  -27.4025  -21.9801   21.2337 C   0  0  0  0  0  0
  -29.2307  -20.0091   20.5083 C   0  0  0  0  0  0
  -26.2702  -22.8589   21.7429 C   0  0  0  0  0  0
  -31.3540  -17.4591   21.7436 C   0  0  0  0  0  0
  -30.3668  -24.1844   19.8722 C   0  0  0  0  0  0
  -29.4490  -24.4183   22.1713 C   0  0  0  0  0  0
  -31.2075  -16.4474   18.5771 C   0  0  0  0  0  0
  -28.8446  -16.0894   19.1018 C   0  0  0  0  0  0
  -30.1229  -18.8538   19.9671 C   0  0  0  0  0  0
  -28.0390  -25.0338   20.1459 C   0  0  0  0  0  0
  -30.2016  -17.4338   20.7226 C   0  0  1  0  0  0
  -29.0979  -23.9947   20.7315 C   0  0  0  0  0  0
  -30.2290  -16.1440   19.7540 C   0  0  0  0  0  0
  -27.9958  -19.6387   20.8804 N   0  0  0  0  0  0
  -31.4477  -12.5069   19.1172 H   0  0  0  0  0  0
  -30.3426  -11.4735   19.9886 H   0  0  0  0  0  0
  -29.7650  -11.6111   17.5370 H   0  0  0  0  0  0
  -29.5947  -13.3397   17.6497 H   0  0  0  0  0  0
  -27.9009  -11.1868   18.9678 H   0  0  0  0  0  0
  -27.3447  -12.3595   17.8069 H   0  0  0  0  0  0
  -27.4700  -14.0989   19.3146 H   0  0  0  0  0  0
  -28.7312  -12.3501   21.5088 H   0  0  0  0  0  0
  -28.4297  -14.0715   21.6213 H   0  0  0  0  0  0
  -25.2678   -9.5606   22.4828 H   0  0  0  0  0  0
  -23.9946   -7.4543   22.7478 H   0  0  0  0  0  0
  -21.0796   -8.8697   19.8945 H   0  0  0  0  0  0
  -22.3636  -10.9626   19.6205 H   0  0  0  0  0  0
  -21.1936   -7.6121   23.9699 H   0  0  0  0  0  0
  -21.1492   -6.0514   25.9083 H   0  0  0  0  0  0
  -22.0603   -2.7590   23.2859 H   0  0  0  0  0  0
  -22.3991  -11.9820   22.4805 H   0  0  0  0  0  0
  -21.1042  -13.1263   22.2697 H   0  0  0  0  0  0
  -24.6669  -15.8311   20.5448 H   0  0  0  0  0  0
  -26.2877  -15.6084   20.1229 H   0  0  0  0  0  0
  -26.7147  -32.5481   23.1107 H   0  0  0  0  0  0
  -25.0063  -33.9749   25.0444 H   0  0  0  0  0  0
  -22.7060  -31.3089   21.4129 H   0  0  0  0  0  0
  -23.3794  -35.9584   23.3262 H   0  0  0  0  0  0
  -24.3577  -36.8938   22.2048 H   0  0  0  0  0  0
  -23.7233  -37.6468   23.6677 H   0  0  0  0  0  0
  -26.0866  -31.5621   20.6054 H   0  0  0  0  0  0
  -26.8330  -30.8438   22.0039 H   0  0  0  0  0  0
  -28.1113  -28.9959   21.1843 H   0  0  0  0  0  0
  -25.9656  -25.9628   18.9656 H   0  0  0  0  0  0
  -23.9613  -27.3344   18.9970 H   0  0  0  0  0  0
  -23.7345  -30.6026   19.4047 H   0  0  0  0  0  0
  -22.7470  -29.2500   19.8700 H   0  0  0  0  0  0
  -25.1297  -36.1932   25.0826 H   0  0  0  0  0  0
  -20.9994  -28.3229   24.1394 H   0  0  0  0  0  0
  -20.5688  -26.2255   23.3581 H   0  0  0  0  0  0
  -21.6651  -26.7413   22.1190 H   0  0  0  0  0  0
  -19.6913  -25.6281   21.1211 H   0  0  0  0  0  0
  -19.6691  -27.3179   20.6727 H   0  0  0  0  0  0
  -17.4207  -26.6649   21.4024 H   0  0  0  0  0  0
  -18.0338  -26.0019   22.8994 H   0  0  0  0  0  0
  -19.7933  -30.7235   24.2284 H   0  0  0  0  0  0
  -17.5011  -31.6248   24.5136 H   0  0  0  0  0  0
  -15.5351  -30.2944   23.7650 H   0  0  0  0  0  0
  -15.8679  -28.0777   22.7075 H   0  0  0  0  0  0
  -24.5911  -30.7020   25.7711 H   0  0  0  0  0  0
  -24.8855  -32.2811   26.4880 H   0  0  0  0  0  0
  -25.8004  -30.8816   27.0200 H   0  0  0  0  0  0
  -26.2890  -29.6795   24.1183 H   0  0  0  0  0  0
  -27.4110  -29.7291   25.4588 H   0  0  0  0  0  0
  -27.8721  -30.4376   23.9289 H   0  0  0  0  0  0
  -27.2696  -33.3659   26.2024 H   0  0  0  0  0  0
  -28.3863  -32.6843   25.0301 H   0  0  0  0  0  0
  -28.0713  -31.8477   26.5419 H   0  0  0  0  0  0
  -28.2564  -38.0140   24.7592 H   0  0  0  0  0  0
  -28.1152  -36.2669   24.6192 H   0  0  0  0  0  0
  -27.2301  -37.1315   25.8856 H   0  0  0  0  0  0
  -20.9353  -29.8748   21.6893 H   0  0  0  0  0  0
  -26.0180  -38.2852   24.1459 H   0  0  0  0  0  0
  -30.5753  -21.6193   20.0550 H   0  0  0  0  0  0
  -26.1623  -20.2323   21.5663 H   0  0  0  0  0  0
  -25.5371  -22.2645   22.2899 H   0  0  0  0  0  0
  -25.7358  -23.3158   20.9110 H   0  0  0  0  0  0
  -26.6089  -23.6261   22.4342 H   0  0  0  0  0  0
  -31.2909  -18.3475   22.3730 H   0  0  0  0  0  0
  -32.3292  -17.4675   21.2565 H   0  0  0  0  0  0
  -31.3192  -16.5965   22.4103 H   0  0  0  0  0  0
  -31.2297  -23.6640   20.2872 H   0  0  0  0  0  0
  -30.6460  -25.2365   19.8093 H   0  0  0  0  0  0
  -30.2139  -23.8295   18.8519 H   0  0  0  0  0  0
  -30.2413  -23.7912   22.5802 H   0  0  0  0  0  0
  -28.5990  -24.3359   22.8440 H   0  0  0  0  0  0
  -29.7902  -25.4532   22.2159 H   0  0  0  0  0  0
  -30.8282  -17.1933   17.8802 H   0  0  0  0  0  0
  -31.3959  -15.5603   17.9691 H   0  0  0  0  0  0
  -32.1740  -16.8026   18.9358 H   0  0  0  0  0  0
  -28.5871  -16.9949   18.5587 H   0  0  0  0  0  0
  -28.0753  -15.9801   19.8630 H   0  0  0  0  0  0
  -28.7980  -15.3048   18.3511 H   0  0  0  0  0  0
  -31.1310  -19.2398   19.8172 H   0  0  0  0  0  0
  -29.7452  -18.7277   18.9559 H   0  0  0  0  0  0
  -27.1251  -24.9322   20.7128 H   0  0  0  0  0  0
  -27.8082  -24.7450   19.1191 H   0  0  0  0  0  0
  -29.2884  -17.3406   21.3107 H   0  0  0  0  0  0
  1 25  1  0  0  0
  1 30  2  0  0  0
  1 86  1  0  0  0
  2  3  1  0  0  0
  2 25  1  0  0  0
  2 88  1  0  0  0
  2 89  1  0  0  0
  3  4  1  0  0  0
  3 90  1  0  0  0
  3 91  1  0  0  0
  4  5  1  0  0  0
  4 92  1  0  0  0
  4 93  1  0  0  0
  5  6  1  0  0  0
  5 26  1  0  0  0
  5 94  1  0  0  0
  6 25  1  0  0  0
  6 95  1  0  0  0
  6 96  1  0  0  0
  7  8  2  0  0  0
  7 26  1  0  0  0
  7 29  1  0  0  0
  8  9  1  0  0  0
  8 22  1  0  0  0
  9 10  1  0  0  0
  9 27  2  0  0  0
 10 11  2  0  0  0
 10 15  1  0  0  0
 11 12  1  0  0  0
 11 97  1  0  0  0
 12 13  2  0  0  0
 12 98  1  0  0  0
 13 14  1  0  0  0
 13 31  1  0  0  0
 14 15  2  0  0  0
 14 99  1  0  0  0
 15100  1  0  0  0
 16 17  2  0  0  0
 16 21  1  0  0  0
 16 31  1  0  0  0
 17 18  1  0  0  0
 17101  1  0  0  0
 18 19  2  0  0  0
 18102  1  0  0  0
 19 20  1  0  0  0
 19 24  1  0  0  0
 20 21  2  0  0  0
 20103  1  0  0  0
 21 23  1  0  0  0
 22 28  1  0  0  0
 22 32  2  0  0  0
 26 27  1  0  0  0
 28104  1  0  0  0
 28105  1  0  0  0
 29106  1  0  0  0
 29107  1  0  0  0
 33 34  1  0  0  0
 33 66  1  0  0  0
 33 70  2  0  0  0
 34 36  1  0  0  0
 34 59  1  0  0  0
 34108  1  0  0  0
 35 44  2  0  0  0
 35 45  1  0  0  0
 35 68  1  0  0  0
 36 56  1  0  0  0
 36109  1  0  0  0
 37 39  1  0  0  0
 37 47  1  0  0  0
 37 66  1  0  0  0
 37110  1  0  0  0
 38 43  2  0  0  0
 38 46  1  0  0  0
 38 47  1  0  0  0
 39 64  1  0  0  0
 39 67  2  0  0  0
 40 52  1  0  0  0
 40 53  2  0  0  0
 40 58  1  0  0  0
 41111  1  0  0  0
 41112  1  0  0  0
 41113  1  0  0  0
 41 48  1  0  0  0
 42 43  1  0  0  0
 42 66  1  0  0  0
 42114  1  0  0  0
 42115  1  0  0  0
 43 44  1  0  0  0
 44116  1  0  0  0
 45 46  2  0  0  0
 45117  1  0  0  0
 46118  1  0  0  0
 47119  1  0  0  0
 47120  1  0  0  0
 48 56  1  0  0  0
 48 65  1  0  0  0
 48121  1  0  0  0
 49 50  1  0  0  0
 49 53  1  0  0  0
 49 64  1  0  0  0
 49122  1  0  0  0
 50 51  1  0  0  0
 50123  1  0  0  0
 50124  1  0  0  0
 51 52  1  0  0  0
 51125  1  0  0  0
 51126  1  0  0  0
 52127  1  0  0  0
 52128  1  0  0  0
 53 54  1  0  0  0
 54 55  2  0  0  0
 54129  1  0  0  0
 55 57  1  0  0  0
 55130  1  0  0  0
 56 69  2  0  0  0
 57 58  2  0  0  0
 57131  1  0  0  0
 58132  1  0  0  0
 59 60  1  0  0  0
 59 61  1  0  0  0
 59 62  1  0  0  0
 60133  1  0  0  0
 60134  1  0  0  0
 60135  1  0  0  0
 61136  1  0  0  0
 61137  1  0  0  0
 61138  1  0  0  0
 62139  1  0  0  0
 62140  1  0  0  0
 62141  1  0  0  0
 63 65  1  0  0  0
 63142  1  0  0  0
 63143  1  0  0  0
 63144  1  0  0  0
 64145  1  0  0  0
 65146  1  0  0  0
 68 83  1  0  0  0
 71 73  2  0  0  0
 71 75  1  0  0  0
 71147  1  0  0  0
 72 74  2  0  0  0
 72 87  1  0  0  0
 72148  1  0  0  0
 73 74  1  0  0  0
 73 85  1  0  0  0
 74 76  1  0  0  0
 75 82  1  0  0  0
 75 87  2  0  0  0
 76149  1  0  0  0
 76150  1  0  0  0
 76151  1  0  0  0
 77152  1  0  0  0
 77153  1  0  0  0
 77154  1  0  0  0
 77 84  1  0  0  0
 78155  1  0  0  0
 78156  1  0  0  0
 78157  1  0  0  0
 78 85  1  0  0  0
 79 85  1  0  0  0
 79158  1  0  0  0
 79159  1  0  0  0
 79160  1  0  0  0
 80161  1  0  0  0
 80162  1  0  0  0
 80163  1  0  0  0
 80 86  1  0  0  0
 81 86  1  0  0  0
 81164  1  0  0  0
 81165  1  0  0  0
 81166  1  0  0  0
 82 84  1  0  0  0
 82167  1  0  0  0
 82168  1  0  0  0
 83 85  1  0  0  0
 83169  1  0  0  0
 83170  1  0  0  0
 84 86  1  0  0  0
 84171  1  0  0  0
M  ISO  4   1 100  68 101  83 101  86 100
M  END
> <chiral flag>
0

> <version>
0

> <s_m_source_file>
/data/baiqing/PycharmProjects/Reinvent-master-3.2/result/LINK_invent/BTK/process_docking_weight1_custom_sum_contain_oxygen_bond_distance_aromatic_linkinvent_7_9_3/rearranged_h_0086.sdf

> <i_m_source_file_index>
66

> <r_mmod_Potential_Energy-OPLS-2005>
168.880462646484

> <r_mmod_Stretch_Energy-OPLS-2005>
100.037971496582

> <r_mmod_Bend_Energy-OPLS-2005>
178.362762451172

> <r_mmod_Torsional_Energy-OPLS-2005>
241.049423217773

> <r_mmod_Improper_Torsional_Energy-OPLS-2005>
15.2763566970825

> <r_mmod_Van_der_Waal_Energy-OPLS-2005>
185.730422973633

> <r_mmod_Electrostatic_Energy-OPLS-2005>
-462.076477050781

> <r_mmod_Solvation_Energy-OPLS-2005>
-183.791122436523

> <b_mmod_Minimization_Converged-OPLS-2005>
0

> <r_mmod_RMS_Derivative-OPLS-2005>
2.00725889205933

$$$$
67
                    3D
 Structure written by MMmdl.
162170  0  0  1  0            999 V2000
  -30.7045  -14.5016   20.5516 C   0  0  0  0  0  0
  -30.4212  -12.3193   19.4353 C   0  0  0  0  0  0
  -29.4981  -12.5015   18.2128 C   0  0  0  0  0  0
  -28.0194  -12.3572   18.6229 C   0  0  0  0  0  0
  -27.6573  -13.2091   19.8690 C   0  0  2  0  0  0
  -28.6992  -13.0242   20.9947 C   0  0  0  0  0  0
  -25.2576  -13.8164   20.5685 C   0  0  0  0  0  0
  -24.1828  -13.0440   20.9168 C   0  0  0  0  0  0
  -24.6387  -11.6906   20.8725 C   0  0  0  0  0  0
  -23.9054  -10.4297   21.0398 C   0  0  0  0  0  0
  -24.3614   -9.4215   21.9171 C   0  0  0  0  0  0
  -23.6296   -8.2246   22.0746 C   0  0  0  0  0  0
  -22.4277   -8.0277   21.3539 C   0  0  0  0  0  0
  -21.9907   -9.0250   20.4642 C   0  0  0  0  0  0
  -22.7230  -10.2136   20.3047 C   0  0  0  0  0  0
  -21.6854   -6.0732   22.5278 C   0  0  0  0  0  0
  -21.4018   -6.5635   23.8211 C   0  0  0  0  0  0
  -21.3660   -5.6788   24.9171 C   0  0  0  0  0  0
  -21.6044   -4.3052   24.7222 C   0  0  0  0  0  0
  -21.8819   -3.8142   23.4344 C   0  0  0  0  0  0
  -21.9194   -4.6959   22.3401 C   0  0  0  0  0  0
  -22.7854  -13.5242   21.1832 C   0  0  0  0  0  0
  -22.1660   -4.2145   21.0979 F   0  0  0  0  0  0
  -21.5631   -3.4535   25.7735 F   0  0  0  0  0  0
  -30.0268  -13.3243   20.4361 N   0  0  0  0  0  0
  -26.3003  -12.9334   20.3344 N   0  0  0  0  0  0
  -25.9315  -11.6493   20.5756 N   0  0  0  0  0  0
  -22.0493  -12.8248   22.0403 N   0  0  0  0  0  0
  -25.4318  -15.1881   20.4129 N   0  0  0  0  0  0
  -31.8550  -14.6415   20.1232 O   0  0  0  0  0  0
  -21.6642   -6.8876   21.4239 O   0  0  0  0  0  0
  -22.3539  -14.5544   20.6672 O   0  0  0  0  0  0
  -24.6186  -31.8678   23.2116 C   0  0  0  0  0  0
  -25.9068  -32.4824   23.8405 C   0  0  1  0  0  0
  -27.2213  -27.3982   20.0888 C   0  0  0  0  0  0
  -25.5919  -33.8624   24.2330 N   0  0  0  0  0  0
  -23.4065  -30.4963   21.5542 C   0  0  2  0  0  0
  -24.8492  -28.9701   20.1116 C   0  0  0  0  0  0
  -22.7430  -29.4664   22.4982 C   0  0  0  0  0  0
  -18.0275  -28.1375   22.8493 C   0  0  0  0  0  0
  -24.1489  -36.7314   23.2635 C   0  0  0  0  0  0
  -25.9427  -30.8216   21.3730 C   0  0  0  0  0  0
  -26.0161  -29.4568   20.7139 C   0  0  0  0  0  0
  -27.2038  -28.6790   20.7021 C   0  0  0  0  0  0
  -26.0287  -26.9561   19.4595 C   0  0  0  0  0  0
  -24.8526  -27.7197   19.4814 C   0  0  0  0  0  0
  -23.6150  -29.8403   20.1657 C   0  0  0  0  0  0
  -25.4109  -36.3113   24.0335 C   0  0  1  0  0  0
  -20.5870  -28.3668   23.1306 C   0  0  2  0  0  0
  -20.6766  -26.9403   22.5412 C   0  0  0  0  0  0
  -19.5743  -26.6381   21.5210 C   0  0  0  0  0  0
  -18.1922  -26.7920   22.1624 C   0  0  0  0  0  0
  -19.1527  -28.8837   23.2897 C   0  0  0  0  0  0
  -18.9454  -30.1442   23.8909 C   0  0  0  0  0  0
  -17.6456  -30.6582   24.0561 C   0  0  0  0  0  0
  -25.9041  -34.9479   23.5126 C   0  0  0  0  0  0
  -16.5346  -29.9084   23.6327 C   0  0  0  0  0  0
  -16.7264  -28.6500   23.0351 C   0  0  0  0  0  0
  -26.4479  -31.6607   25.0741 C   0  0  0  0  0  0
  -25.3737  -31.3734   26.1487 C   0  0  0  0  0  0
  -27.0296  -30.3038   24.6135 C   0  0  0  0  0  0
  -27.6057  -32.4324   25.7499 C   0  0  0  0  0  0
  -27.5583  -37.1809   24.8462 C   0  0  0  0  0  0
  -21.4155  -29.3039   22.3716 N   0  0  0  0  0  0
  -26.4292  -37.3799   23.9412 N   0  0  0  0  0  0
  -24.6745  -31.0756   22.1036 N   0  0  0  0  0  0
  -23.4194  -28.8187   23.3012 O   0  0  0  0  0  0
  -28.3634  -26.5986   20.1305 O   0  0  0  0  0  0
  -26.5597  -34.8928   22.4684 O   0  0  0  0  0  0
  -23.5369  -32.1446   23.7489 O   0  0  0  0  0  0
  -29.3347  -20.6405   17.4260 C   0  0  0  0  0  0
  -29.1745  -19.3614   16.8461 C   0  0  0  0  0  0
  -29.5124  -20.4198   18.7684 C   0  0  0  0  0  0
  -28.9202  -19.0027   15.4132 C   0  0  0  0  0  0
  -29.8013  -16.0492   22.2113 C   0  0  0  0  0  0
  -29.7042  -21.4912   19.8299 C   0  0  0  0  0  0
  -28.8111  -22.7546   19.5913 C   0  0  0  0  0  0
  -29.2419  -24.1452   20.1563 C   0  0  0  0  0  0
  -29.7030  -18.1557   20.1238 C   0  0  0  0  0  0
  -29.7628  -16.6221   19.7604 C   0  0  0  0  0  0
  -28.1690  -25.2054   19.7784 C   0  0  0  0  0  0
  -29.2806  -18.4113   17.7477 N   0  0  0  0  0  0
  -29.5158  -19.0228   18.9381 N   0  0  0  0  0  0
  -29.9516  -15.6016   20.8264 N   0  0  0  0  0  0
  -31.4672  -12.4104   19.1368 H   0  0  0  0  0  0
  -30.3178  -11.3161   19.8508 H   0  0  0  0  0  0
  -29.7466  -11.7708   17.4419 H   0  0  0  0  0  0
  -29.6607  -13.4846   17.7671 H   0  0  0  0  0  0
  -27.8369  -11.3023   18.8303 H   0  0  0  0  0  0
  -27.3700  -12.6176   17.7861 H   0  0  0  0  0  0
  -27.6900  -14.2513   19.5526 H   0  0  0  0  0  0
  -28.6804  -12.0004   21.3704 H   0  0  0  0  0  0
  -28.4573  -13.6598   21.8463 H   0  0  0  0  0  0
  -25.2760   -9.5696   22.4741 H   0  0  0  0  0  0
  -24.0007   -7.4640   22.7468 H   0  0  0  0  0  0
  -21.0834   -8.8772   19.8956 H   0  0  0  0  0  0
  -22.3683  -10.9672   19.6155 H   0  0  0  0  0  0
  -21.2016   -7.6145   23.9716 H   0  0  0  0  0  0
  -21.1480   -6.0516   25.9077 H   0  0  0  0  0  0
  -22.0600   -2.7604   23.2842 H   0  0  0  0  0  0
  -22.4110  -11.9929   22.4828 H   0  0  0  0  0  0
  -21.1101  -13.1268   22.2579 H   0  0  0  0  0  0
  -24.6727  -15.8505   20.5319 H   0  0  0  0  0  0
  -26.2994  -15.6260   20.1300 H   0  0  0  0  0  0
  -26.7137  -32.5522   23.1163 H   0  0  0  0  0  0
  -25.0080  -33.9787   25.0482 H   0  0  0  0  0  0
  -22.6964  -31.3150   21.4198 H   0  0  0  0  0  0
  -23.3751  -35.9646   23.3299 H   0  0  0  0  0  0
  -24.3586  -36.8926   22.2049 H   0  0  0  0  0  0
  -23.7238  -37.6519   23.6645 H   0  0  0  0  0  0
  -26.0629  -31.5889   20.6068 H   0  0  0  0  0  0
  -26.8284  -30.8689   21.9949 H   0  0  0  0  0  0
  -28.0994  -29.0481   21.1828 H   0  0  0  0  0  0
  -25.9621  -26.0121   18.9404 H   0  0  0  0  0  0
  -23.9588  -27.3427   19.0038 H   0  0  0  0  0  0
  -23.7270  -30.6202   19.4120 H   0  0  0  0  0  0
  -22.7367  -29.2661   19.8652 H   0  0  0  0  0  0
  -25.1284  -36.1977   25.0827 H   0  0  0  0  0  0
  -20.9960  -28.3229   24.1428 H   0  0  0  0  0  0
  -20.5664  -26.2276   23.3601 H   0  0  0  0  0  0
  -21.6636  -26.7439   22.1207 H   0  0  0  0  0  0
  -19.6905  -25.6293   21.1235 H   0  0  0  0  0  0
  -19.6682  -27.3195   20.6743 H   0  0  0  0  0  0
  -17.4192  -26.6665   21.4027 H   0  0  0  0  0  0
  -18.0328  -26.0058   22.9019 H   0  0  0  0  0  0
  -19.7930  -30.7250   24.2286 H   0  0  0  0  0  0
  -17.5014  -31.6265   24.5156 H   0  0  0  0  0  0
  -15.5348  -30.2990   23.7642 H   0  0  0  0  0  0
  -15.8663  -28.0820   22.7063 H   0  0  0  0  0  0
  -24.5893  -30.7100   25.7825 H   0  0  0  0  0  0
  -24.8953  -32.2903   26.4941 H   0  0  0  0  0  0
  -25.8081  -30.8892   27.0241 H   0  0  0  0  0  0
  -26.2842  -29.6817   24.1165 H   0  0  0  0  0  0
  -27.4022  -29.7261   25.4604 H   0  0  0  0  0  0
  -27.8707  -30.4339   23.9319 H   0  0  0  0  0  0
  -27.2677  -33.3611   26.2106 H   0  0  0  0  0  0
  -28.3850  -32.6902   25.0315 H   0  0  0  0  0  0
  -28.0743  -31.8430   26.5390 H   0  0  0  0  0  0
  -28.2601  -38.0106   24.7517 H   0  0  0  0  0  0
  -28.1078  -36.2639   24.6275 H   0  0  0  0  0  0
  -27.2305  -37.1448   25.8866 H   0  0  0  0  0  0
  -20.9309  -29.8792   21.6970 H   0  0  0  0  0  0
  -26.0182  -38.2876   24.1418 H   0  0  0  0  0  0
  -29.3077  -21.5909   16.9123 H   0  0  0  0  0  0
  -28.8098  -19.8937   14.7957 H   0  0  0  0  0  0
  -28.0077  -18.4154   15.3096 H   0  0  0  0  0  0
  -29.7422  -18.4166   15.0029 H   0  0  0  0  0  0
  -30.5559  -16.7949   22.4604 H   0  0  0  0  0  0
  -29.9104  -15.2269   22.9207 H   0  0  0  0  0  0
  -28.8153  -16.4875   22.3686 H   0  0  0  0  0  0
  -30.7529  -21.7898   19.8268 H   0  0  0  0  0  0
  -29.5111  -21.0832   20.8222 H   0  0  0  0  0  0
  -27.7994  -22.5177   19.9227 H   0  0  0  0  0  0
  -28.7175  -22.9193   18.5202 H   0  0  0  0  0  0
  -30.2099  -24.4324   19.7447 H   0  0  0  0  0  0
  -29.3569  -24.0973   21.2395 H   0  0  0  0  0  0
  -30.6244  -18.4622   20.6200 H   0  0  0  0  0  0
  -28.8833  -18.3554   20.8147 H   0  0  0  0  0  0
  -30.5398  -16.4956   19.0033 H   0  0  0  0  0  0
  -28.8310  -16.3486   19.2648 H   0  0  0  0  0  0
  -27.2521  -24.8474   20.2495 H   0  0  0  0  0  0
  -28.0189  -25.1626   18.6982 H   0  0  0  0  0  0
  1 25  1  0  0  0
  1 30  2  0  0  0
  1 84  1  0  0  0
  2  3  1  0  0  0
  2 25  1  0  0  0
  2 85  1  0  0  0
  2 86  1  0  0  0
  3  4  1  0  0  0
  3 87  1  0  0  0
  3 88  1  0  0  0
  4  5  1  0  0  0
  4 89  1  0  0  0
  4 90  1  0  0  0
  5  6  1  0  0  0
  5 26  1  0  0  0
  5 91  1  0  0  0
  6 25  1  0  0  0
  6 92  1  0  0  0
  6 93  1  0  0  0
  7  8  2  0  0  0
  7 26  1  0  0  0
  7 29  1  0  0  0
  8  9  1  0  0  0
  8 22  1  0  0  0
  9 10  1  0  0  0
  9 27  2  0  0  0
 10 11  2  0  0  0
 10 15  1  0  0  0
 11 12  1  0  0  0
 11 94  1  0  0  0
 12 13  2  0  0  0
 12 95  1  0  0  0
 13 14  1  0  0  0
 13 31  1  0  0  0
 14 15  2  0  0  0
 14 96  1  0  0  0
 15 97  1  0  0  0
 16 17  2  0  0  0
 16 21  1  0  0  0
 16 31  1  0  0  0
 17 18  1  0  0  0
 17 98  1  0  0  0
 18 19  2  0  0  0
 18 99  1  0  0  0
 19 20  1  0  0  0
 19 24  1  0  0  0
 20 21  2  0  0  0
 20100  1  0  0  0
 21 23  1  0  0  0
 22 28  1  0  0  0
 22 32  2  0  0  0
 26 27  1  0  0  0
 28101  1  0  0  0
 28102  1  0  0  0
 29103  1  0  0  0
 29104  1  0  0  0
 33 34  1  0  0  0
 33 66  1  0  0  0
 33 70  2  0  0  0
 34 36  1  0  0  0
 34 59  1  0  0  0
 34105  1  0  0  0
 35 44  2  0  0  0
 35 45  1  0  0  0
 35 68  1  0  0  0
 36 56  1  0  0  0
 36106  1  0  0  0
 37 39  1  0  0  0
 37 47  1  0  0  0
 37 66  1  0  0  0
 37107  1  0  0  0
 38 43  2  0  0  0
 38 46  1  0  0  0
 38 47  1  0  0  0
 39 64  1  0  0  0
 39 67  2  0  0  0
 40 52  1  0  0  0
 40 53  2  0  0  0
 40 58  1  0  0  0
 41108  1  0  0  0
 41109  1  0  0  0
 41110  1  0  0  0
 41 48  1  0  0  0
 42 43  1  0  0  0
 42 66  1  0  0  0
 42111  1  0  0  0
 42112  1  0  0  0
 43 44  1  0  0  0
 44113  1  0  0  0
 45 46  2  0  0  0
 45114  1  0  0  0
 46115  1  0  0  0
 47116  1  0  0  0
 47117  1  0  0  0
 48 56  1  0  0  0
 48 65  1  0  0  0
 48118  1  0  0  0
 49 50  1  0  0  0
 49 53  1  0  0  0
 49 64  1  0  0  0
 49119  1  0  0  0
 50 51  1  0  0  0
 50120  1  0  0  0
 50121  1  0  0  0
 51 52  1  0  0  0
 51122  1  0  0  0
 51123  1  0  0  0
 52124  1  0  0  0
 52125  1  0  0  0
 53 54  1  0  0  0
 54 55  2  0  0  0
 54126  1  0  0  0
 55 57  1  0  0  0
 55127  1  0  0  0
 56 69  2  0  0  0
 57 58  2  0  0  0
 57128  1  0  0  0
 58129  1  0  0  0
 59 60  1  0  0  0
 59 61  1  0  0  0
 59 62  1  0  0  0
 60130  1  0  0  0
 60131  1  0  0  0
 60132  1  0  0  0
 61133  1  0  0  0
 61134  1  0  0  0
 61135  1  0  0  0
 62136  1  0  0  0
 62137  1  0  0  0
 62138  1  0  0  0
 63 65  1  0  0  0
 63139  1  0  0  0
 63140  1  0  0  0
 63141  1  0  0  0
 64142  1  0  0  0
 65143  1  0  0  0
 68 81  1  0  0  0
 71 72  1  0  0  0
 71 73  2  0  0  0
 71144  1  0  0  0
 72 74  1  0  0  0
 72 82  2  0  0  0
 73 76  1  0  0  0
 73 83  1  0  0  0
 74145  1  0  0  0
 74146  1  0  0  0
 74147  1  0  0  0
 75 84  1  0  0  0
 75148  1  0  0  0
 75149  1  0  0  0
 75150  1  0  0  0
 76 77  1  0  0  0
 76151  1  0  0  0
 76152  1  0  0  0
 77 78  1  0  0  0
 77153  1  0  0  0
 77154  1  0  0  0
 78 81  1  0  0  0
 78155  1  0  0  0
 78156  1  0  0  0
 79 80  1  0  0  0
 79 83  1  0  0  0
 79157  1  0  0  0
 79158  1  0  0  0
 80 84  1  0  0  0
 80159  1  0  0  0
 80160  1  0  0  0
 81161  1  0  0  0
 81162  1  0  0  0
 82 83  1  0  0  0
M  ISO  4   1 100  68 101  81 101  84 100
M  END
> <chiral flag>
0

> <version>
0

> <s_m_source_file>
/data/baiqing/PycharmProjects/Reinvent-master-3.2/result/LINK_invent/BTK/process_docking_weight1_custom_sum_contain_oxygen_bond_distance_aromatic_linkinvent_7_9_3/rearranged_h_0086.sdf

> <i_m_source_file_index>
67

> <r_mmod_Potential_Energy-OPLS-2005>
108.227005004883

> <r_mmod_Stretch_Energy-OPLS-2005>
48.9226493835449

> <r_mmod_Bend_Energy-OPLS-2005>
122.453842163086

> <r_mmod_Torsional_Energy-OPLS-2005>
298.035003662109

> <r_mmod_Improper_Torsional_Energy-OPLS-2005>
10.3695802688599

> <r_mmod_Van_der_Waal_Energy-OPLS-2005>
145.051864624023

> <r_mmod_Electrostatic_Energy-OPLS-2005>
-333.295257568359

> <r_mmod_Solvation_Energy-OPLS-2005>
-204.113876342773

> <b_mmod_Minimization_Converged-OPLS-2005>
0

> <r_mmod_RMS_Derivative-OPLS-2005>
0.900301337242126

$$$$
68
                    3D
 Structure written by MMmdl.
160168  0  0  1  0            999 V2000
  -30.7067  -14.6369   20.4159 C   0  0  0  0  0  0
  -30.4003  -12.3813   19.4606 C   0  0  0  0  0  0
  -29.4872  -12.4790   18.2241 C   0  0  0  0  0  0
  -28.0120  -12.3438   18.6422 C   0  0  0  0  0  0
  -27.6394  -13.2376   19.8573 C   0  0  2  0  0  0
  -28.6922  -13.1705   20.9855 C   0  0  0  0  0  0
  -25.2476  -13.8154   20.5753 C   0  0  0  0  0  0
  -24.1789  -13.0389   20.9249 C   0  0  0  0  0  0
  -24.6419  -11.6889   20.8810 C   0  0  0  0  0  0
  -23.9099  -10.4260   21.0419 C   0  0  0  0  0  0
  -24.3637   -9.4173   21.9191 C   0  0  0  0  0  0
  -23.6301   -8.2211   22.0733 C   0  0  0  0  0  0
  -22.4278   -8.0286   21.3529 C   0  0  0  0  0  0
  -21.9927   -9.0260   20.4630 C   0  0  0  0  0  0
  -22.7266  -10.2132   20.3060 C   0  0  0  0  0  0
  -21.6843   -6.0758   22.5280 C   0  0  0  0  0  0
  -21.4012   -6.5652   23.8220 C   0  0  0  0  0  0
  -21.3659   -5.6798   24.9174 C   0  0  0  0  0  0
  -21.6033   -4.3059   24.7207 C   0  0  0  0  0  0
  -21.8816   -3.8158   23.4323 C   0  0  0  0  0  0
  -21.9202   -4.6987   22.3394 C   0  0  0  0  0  0
  -22.7812  -13.5177   21.1873 C   0  0  0  0  0  0
  -22.1687   -4.2187   21.0963 F   0  0  0  0  0  0
  -21.5615   -3.4536   25.7708 F   0  0  0  0  0  0
  -29.9975  -13.4646   20.3849 N   0  0  0  0  0  0
  -26.2947  -12.9409   20.3393 N   0  0  0  0  0  0
  -25.9368  -11.6545   20.5871 N   0  0  0  0  0  0
  -22.0466  -12.8163   22.0443 N   0  0  0  0  0  0
  -25.4018  -15.1846   20.4115 N   0  0  0  0  0  0
  -31.9040  -14.6013   20.1443 O   0  0  0  0  0  0
  -21.6619   -6.8903   21.4243 O   0  0  0  0  0  0
  -22.3475  -14.5454   20.6695 O   0  0  0  0  0  0
  -24.6235  -31.8627   23.2067 C   0  0  0  0  0  0
  -25.9090  -32.4799   23.8376 C   0  0  1  0  0  0
  -27.2057  -27.3488   20.1260 C   0  0  0  0  0  0
  -25.5921  -33.8600   24.2298 N   0  0  0  0  0  0
  -23.4150  -30.4858   21.5484 C   0  0  2  0  0  0
  -24.8584  -28.9462   20.1092 C   0  0  0  0  0  0
  -22.7477  -29.4613   22.4968 C   0  0  0  0  0  0
  -18.0298  -28.1395   22.8502 C   0  0  0  0  0  0
  -24.1481  -36.7298   23.2641 C   0  0  0  0  0  0
  -25.9532  -30.8026   21.3740 C   0  0  0  0  0  0
  -26.0241  -29.4320   20.7185 C   0  0  0  0  0  0
  -27.2076  -28.6435   20.7173 C   0  0  0  0  0  0
  -26.0305  -26.9075   19.4860 C   0  0  0  0  0  0
  -24.8612  -27.6906   19.4816 C   0  0  0  0  0  0
  -23.6257  -29.8243   20.1606 C   0  0  0  0  0  0
  -25.4116  -36.3101   24.0317 C   0  0  1  0  0  0
  -20.5909  -28.3677   23.1346 C   0  0  2  0  0  0
  -20.6798  -26.9400   22.5465 C   0  0  0  0  0  0
  -19.5784  -26.6376   21.5247 C   0  0  0  0  0  0
  -18.1942  -26.7951   22.1618 C   0  0  0  0  0  0
  -19.1562  -28.8847   23.2915 C   0  0  0  0  0  0
  -18.9509  -30.1461   23.8917 C   0  0  0  0  0  0
  -17.6508  -30.6606   24.0588 C   0  0  0  0  0  0
  -25.9049  -34.9461   23.5108 C   0  0  0  0  0  0
  -16.5386  -29.9113   23.6359 C   0  0  0  0  0  0
  -16.7299  -28.6539   23.0359 C   0  0  0  0  0  0
  -26.4496  -31.6592   25.0726 C   0  0  0  0  0  0
  -25.3741  -31.3710   26.1455 C   0  0  0  0  0  0
  -27.0325  -30.3016   24.6160 C   0  0  0  0  0  0
  -27.6079  -32.4322   25.7480 C   0  0  0  0  0  0
  -27.5578  -37.1795   24.8465 C   0  0  0  0  0  0
  -21.4191  -29.3028   22.3730 N   0  0  0  0  0  0
  -26.4292  -37.3795   23.9402 N   0  0  0  0  0  0
  -24.6824  -31.0669   22.0993 N   0  0  0  0  0  0
  -23.4233  -28.8135   23.3016 O   0  0  0  0  0  0
  -28.2939  -26.4868   20.1756 O   0  0  0  0  0  0
  -26.5642  -34.8935   22.4695 O   0  0  0  0  0  0
  -23.5411  -32.1399   23.7429 O   0  0  0  0  0  0
  -27.7424  -20.0624   20.2671 C   0  0  0  0  0  0
  -28.2758  -18.7481   20.0932 C   0  0  0  0  0  0
  -28.5954  -21.1321   20.6407 C   0  0  0  0  0  0
  -29.6675  -18.5281   20.3334 C   0  0  0  0  0  0
  -27.3363  -17.6674   19.6040 C   0  0  0  0  0  0
  -31.9979  -17.4587   20.3192 C   0  0  0  0  0  0
  -30.4707  -17.1406   18.3909 C   0  0  0  0  0  0
  -28.0596  -22.5535   21.0185 C   0  0  0  0  0  0
  -28.4459  -23.8421   20.1786 C   0  0  0  0  0  0
  -28.0437  -25.2113   20.8642 C   0  0  0  0  0  0
  -30.4975  -17.2140   19.9382 C   0  0  0  0  0  0
  -29.9061  -20.8689   20.8637 N   0  0  0  0  0  0
  -30.4043  -19.6253   20.7062 N   0  0  0  0  0  0
  -30.0373  -15.8446   20.4619 N   0  0  0  0  0  0
  -31.4443  -12.4426   19.1485 H   0  0  0  0  0  0
  -30.2918  -11.4071   19.9402 H   0  0  0  0  0  0
  -29.7383  -11.6966   17.5064 H   0  0  0  0  0  0
  -29.6474  -13.4307   17.7143 H   0  0  0  0  0  0
  -27.8422  -11.2958   18.8909 H   0  0  0  0  0  0
  -27.3562  -12.5632   17.7989 H   0  0  0  0  0  0
  -27.6328  -14.2617   19.4874 H   0  0  0  0  0  0
  -28.7021  -12.1837   21.4513 H   0  0  0  0  0  0
  -28.4615  -13.8835   21.7788 H   0  0  0  0  0  0
  -25.2771   -9.5636   22.4801 H   0  0  0  0  0  0
  -23.9996   -7.4568   22.7426 H   0  0  0  0  0  0
  -21.0863   -8.8800   19.8931 H   0  0  0  0  0  0
  -22.3718  -10.9702   19.6205 H   0  0  0  0  0  0
  -21.2006   -7.6160   23.9751 H   0  0  0  0  0  0
  -21.1495   -6.0507   25.9090 H   0  0  0  0  0  0
  -22.0595   -2.7628   23.2786 H   0  0  0  0  0  0
  -22.4136  -11.9860   22.4867 H   0  0  0  0  0  0
  -21.1072  -13.1143   22.2653 H   0  0  0  0  0  0
  -24.6182  -15.8195   20.5179 H   0  0  0  0  0  0
  -26.2345  -15.6309   20.0562 H   0  0  0  0  0  0
  -26.7165  -32.5464   23.1132 H   0  0  0  0  0  0
  -25.0004  -33.9753   25.0396 H   0  0  0  0  0  0
  -22.7065  -31.3064   21.4123 H   0  0  0  0  0  0
  -23.3743  -35.9627   23.3313 H   0  0  0  0  0  0
  -24.3573  -36.8918   22.2058 H   0  0  0  0  0  0
  -23.7216  -37.6492   23.6663 H   0  0  0  0  0  0
  -26.0856  -31.5640   20.6038 H   0  0  0  0  0  0
  -26.8352  -30.8543   22.0010 H   0  0  0  0  0  0
  -28.1022  -28.9991   21.2101 H   0  0  0  0  0  0
  -26.0087  -25.9390   19.0078 H   0  0  0  0  0  0
  -23.9682  -27.3152   18.9995 H   0  0  0  0  0  0
  -23.7480  -30.6039   19.4081 H   0  0  0  0  0  0
  -22.7440  -29.2560   19.8573 H   0  0  0  0  0  0
  -25.1297  -36.1958   25.0803 H   0  0  0  0  0  0
  -21.0040  -28.3256   24.1453 H   0  0  0  0  0  0
  -20.5711  -26.2269   23.3657 H   0  0  0  0  0  0
  -21.6680  -26.7419   22.1274 H   0  0  0  0  0  0
  -19.6945  -25.6274   21.1310 H   0  0  0  0  0  0
  -19.6774  -27.3191   20.6792 H   0  0  0  0  0  0
  -17.4246  -26.6761   21.3971 H   0  0  0  0  0  0
  -18.0286  -26.0075   22.8981 H   0  0  0  0  0  0
  -19.7980  -30.7294   24.2287 H   0  0  0  0  0  0
  -17.5071  -31.6274   24.5228 H   0  0  0  0  0  0
  -15.5397  -30.3033   23.7686 H   0  0  0  0  0  0
  -15.8694  -28.0872   22.7057 H   0  0  0  0  0  0
  -24.5954  -30.7017   25.7781 H   0  0  0  0  0  0
  -24.8881  -32.2858   26.4847 H   0  0  0  0  0  0
  -25.8075  -30.8915   27.0238 H   0  0  0  0  0  0
  -26.2880  -29.6775   24.1196 H   0  0  0  0  0  0
  -27.4045  -29.7269   25.4648 H   0  0  0  0  0  0
  -27.8742  -30.4315   23.9360 H   0  0  0  0  0  0
  -27.2715  -33.3634   26.2055 H   0  0  0  0  0  0
  -28.3870  -32.6856   25.0280 H   0  0  0  0  0  0
  -28.0761  -31.8433   26.5376 H   0  0  0  0  0  0
  -28.2611  -38.0088   24.7541 H   0  0  0  0  0  0
  -28.1073  -36.2616   24.6272 H   0  0  0  0  0  0
  -27.2301  -37.1428   25.8877 H   0  0  0  0  0  0
  -20.9344  -29.8772   21.6987 H   0  0  0  0  0  0
  -26.0167  -38.2862   24.1431 H   0  0  0  0  0  0
  -26.6858  -20.2432   20.1201 H   0  0  0  0  0  0
  -26.3851  -17.7368   20.1311 H   0  0  0  0  0  0
  -27.7287  -16.6692   19.7639 H   0  0  0  0  0  0
  -27.1445  -17.7873   18.5379 H   0  0  0  0  0  0
  -32.3777  -18.4132   19.9513 H   0  0  0  0  0  0
  -32.6856  -16.7574   19.8575 H   0  0  0  0  0  0
  -32.1541  -17.4359   21.3977 H   0  0  0  0  0  0
  -30.8655  -18.0561   17.9481 H   0  0  0  0  0  0
  -29.4638  -17.0063   17.9973 H   0  0  0  0  0  0
  -31.0724  -16.3171   18.0082 H   0  0  0  0  0  0
  -28.3745  -22.7227   22.0487 H   0  0  0  0  0  0
  -26.9713  -22.4957   21.0689 H   0  0  0  0  0  0
  -27.9839  -23.7806   19.1941 H   0  0  0  0  0  0
  -29.5228  -23.8472   20.0130 H   0  0  0  0  0  0
  -28.6045  -25.2748   21.7967 H   0  0  0  0  0  0
  -27.0020  -25.1391   21.1871 H   0  0  0  0  0  0
  -29.0588  -15.7851   20.6987 H   0  0  0  0  0  0
  1 25  1  0  0  0
  1 30  2  0  0  0
  1 84  1  0  0  0
  2  3  1  0  0  0
  2 25  1  0  0  0
  2 85  1  0  0  0
  2 86  1  0  0  0
  3  4  1  0  0  0
  3 87  1  0  0  0
  3 88  1  0  0  0
  4  5  1  0  0  0
  4 89  1  0  0  0
  4 90  1  0  0  0
  5  6  1  0  0  0
  5 26  1  0  0  0
  5 91  1  0  0  0
  6 25  1  0  0  0
  6 92  1  0  0  0
  6 93  1  0  0  0
  7  8  2  0  0  0
  7 26  1  0  0  0
  7 29  1  0  0  0
  8  9  1  0  0  0
  8 22  1  0  0  0
  9 10  1  0  0  0
  9 27  2  0  0  0
 10 11  2  0  0  0
 10 15  1  0  0  0
 11 12  1  0  0  0
 11 94  1  0  0  0
 12 13  2  0  0  0
 12 95  1  0  0  0
 13 14  1  0  0  0
 13 31  1  0  0  0
 14 15  2  0  0  0
 14 96  1  0  0  0
 15 97  1  0  0  0
 16 17  2  0  0  0
 16 21  1  0  0  0
 16 31  1  0  0  0
 17 18  1  0  0  0
 17 98  1  0  0  0
 18 19  2  0  0  0
 18 99  1  0  0  0
 19 20  1  0  0  0
 19 24  1  0  0  0
 20 21  2  0  0  0
 20100  1  0  0  0
 21 23  1  0  0  0
 22 28  1  0  0  0
 22 32  2  0  0  0
 26 27  1  0  0  0
 28101  1  0  0  0
 28102  1  0  0  0
 29103  1  0  0  0
 29104  1  0  0  0
 33 34  1  0  0  0
 33 66  1  0  0  0
 33 70  2  0  0  0
 34 36  1  0  0  0
 34 59  1  0  0  0
 34105  1  0  0  0
 35 44  2  0  0  0
 35 45  1  0  0  0
 35 68  1  0  0  0
 36 56  1  0  0  0
 36106  1  0  0  0
 37 39  1  0  0  0
 37 47  1  0  0  0
 37 66  1  0  0  0
 37107  1  0  0  0
 38 43  2  0  0  0
 38 46  1  0  0  0
 38 47  1  0  0  0
 39 64  1  0  0  0
 39 67  2  0  0  0
 40 52  1  0  0  0
 40 53  2  0  0  0
 40 58  1  0  0  0
 41108  1  0  0  0
 41109  1  0  0  0
 41110  1  0  0  0
 41 48  1  0  0  0
 42 43  1  0  0  0
 42 66  1  0  0  0
 42111  1  0  0  0
 42112  1  0  0  0
 43 44  1  0  0  0
 44113  1  0  0  0
 45 46  2  0  0  0
 45114  1  0  0  0
 46115  1  0  0  0
 47116  1  0  0  0
 47117  1  0  0  0
 48 56  1  0  0  0
 48 65  1  0  0  0
 48118  1  0  0  0
 49 50  1  0  0  0
 49 53  1  0  0  0
 49 64  1  0  0  0
 49119  1  0  0  0
 50 51  1  0  0  0
 50120  1  0  0  0
 50121  1  0  0  0
 51 52  1  0  0  0
 51122  1  0  0  0
 51123  1  0  0  0
 52124  1  0  0  0
 52125  1  0  0  0
 53 54  1  0  0  0
 54 55  2  0  0  0
 54126  1  0  0  0
 55 57  1  0  0  0
 55127  1  0  0  0
 56 69  2  0  0  0
 57 58  2  0  0  0
 57128  1  0  0  0
 58129  1  0  0  0
 59 60  1  0  0  0
 59 61  1  0  0  0
 59 62  1  0  0  0
 60130  1  0  0  0
 60131  1  0  0  0
 60132  1  0  0  0
 61133  1  0  0  0
 61134  1  0  0  0
 61135  1  0  0  0
 62136  1  0  0  0
 62137  1  0  0  0
 62138  1  0  0  0
 63 65  1  0  0  0
 63139  1  0  0  0
 63140  1  0  0  0
 63141  1  0  0  0
 64142  1  0  0  0
 65143  1  0  0  0
 68 80  1  0  0  0
 71 72  2  0  0  0
 71 73  1  0  0  0
 71144  1  0  0  0
 72 74  1  0  0  0
 72 75  1  0  0  0
 73 78  1  0  0  0
 73 82  2  0  0  0
 74 81  1  0  0  0
 74 83  2  0  0  0
 75145  1  0  0  0
 75146  1  0  0  0
 75147  1  0  0  0
 76148  1  0  0  0
 76149  1  0  0  0
 76150  1  0  0  0
 76 81  1  0  0  0
 77 81  1  0  0  0
 77151  1  0  0  0
 77152  1  0  0  0
 77153  1  0  0  0
 78 79  1  0  0  0
 78154  1  0  0  0
 78155  1  0  0  0
 79 80  1  0  0  0
 79156  1  0  0  0
 79157  1  0  0  0
 80158  1  0  0  0
 80159  1  0  0  0
 81 84  1  0  0  0
 82 83  1  0  0  0
 84160  1  0  0  0
M  ISO  4   1 100  68 101  80 101  84 100
M  END
> <chiral flag>
0

> <version>
0

> <s_m_source_file>
/data/baiqing/PycharmProjects/Reinvent-master-3.2/result/LINK_invent/BTK/process_docking_weight1_custom_sum_contain_oxygen_bond_distance_aromatic_linkinvent_7_9_3/rearranged_h_0086.sdf

> <i_m_source_file_index>
68

> <r_mmod_Potential_Energy-OPLS-2005>
95.2044830322266

> <r_mmod_Stretch_Energy-OPLS-2005>
87.264289855957

> <r_mmod_Bend_Energy-OPLS-2005>
154.625946044922

> <r_mmod_Torsional_Energy-OPLS-2005>
225.71745300293

> <r_mmod_Improper_Torsional_Energy-OPLS-2005>
9.67831325531006

> <r_mmod_Van_der_Waal_Energy-OPLS-2005>
161.988800048828

> <r_mmod_Electrostatic_Energy-OPLS-2005>
-370.843017578125

> <r_mmod_Solvation_Energy-OPLS-2005>
-228.322082519531

> <b_mmod_Minimization_Converged-OPLS-2005>
0

> <r_mmod_RMS_Derivative-OPLS-2005>
3.20477819442749

$$$$
69
                    3D
 Structure written by MMmdl.
175183  0  0  1  0            999 V2000
  -30.6691  -14.5119   20.5131 C   0  0  0  0  0  0
  -30.4217  -12.3152   19.4334 C   0  0  0  0  0  0
  -29.4939  -12.5017   18.2137 C   0  0  0  0  0  0
  -28.0137  -12.3646   18.6250 C   0  0  0  0  0  0
  -27.6580  -13.2065   19.8800 C   0  0  2  0  0  0
  -28.7054  -13.0055   21.0015 C   0  0  0  0  0  0
  -25.2566  -13.8169   20.5715 C   0  0  0  0  0  0
  -24.1833  -13.0444   20.9219 C   0  0  0  0  0  0
  -24.6384  -11.6909   20.8765 C   0  0  0  0  0  0
  -23.9051  -10.4300   21.0411 C   0  0  0  0  0  0
  -24.3612   -9.4212   21.9177 C   0  0  0  0  0  0
  -23.6288   -8.2249   22.0754 C   0  0  0  0  0  0
  -22.4270   -8.0286   21.3552 C   0  0  0  0  0  0
  -21.9898   -9.0250   20.4655 C   0  0  0  0  0  0
  -22.7225  -10.2132   20.3056 C   0  0  0  0  0  0
  -21.6834   -6.0736   22.5279 C   0  0  0  0  0  0
  -21.3997   -6.5642   23.8210 C   0  0  0  0  0  0
  -21.3682   -5.6801   24.9174 C   0  0  0  0  0  0
  -21.6062   -4.3066   24.7238 C   0  0  0  0  0  0
  -21.8817   -3.8155   23.4353 C   0  0  0  0  0  0
  -21.9187   -4.6965   22.3399 C   0  0  0  0  0  0
  -22.7858  -13.5214   21.1895 C   0  0  0  0  0  0
  -22.1659   -4.2151   21.0975 F   0  0  0  0  0  0
  -21.5638   -3.4547   25.7752 F   0  0  0  0  0  0
  -30.0340  -13.3100   20.4440 N   0  0  0  0  0  0
  -26.2998  -12.9332   20.3412 N   0  0  0  0  0  0
  -25.9314  -11.6490   20.5809 N   0  0  0  0  0  0
  -22.0503  -12.8209   22.0461 N   0  0  0  0  0  0
  -25.4300  -15.1901   20.4127 N   0  0  0  0  0  0
  -31.8109  -14.6960   20.0832 O   0  0  0  0  0  0
  -21.6647   -6.8877   21.4241 O   0  0  0  0  0  0
  -22.3528  -14.5508   20.6735 O   0  0  0  0  0  0
  -24.6182  -31.8654   23.2056 C   0  0  0  0  0  0
  -25.9062  -32.4829   23.8358 C   0  0  1  0  0  0
  -27.2370  -27.4073   20.1117 C   0  0  0  0  0  0
  -25.5935  -33.8630   24.2322 N   0  0  0  0  0  0
  -23.4059  -30.4852   21.5504 C   0  0  2  0  0  0
  -24.8532  -28.9395   20.1177 C   0  0  0  0  0  0
  -22.7425  -29.4648   22.5011 C   0  0  0  0  0  0
  -18.0286  -28.1340   22.8516 C   0  0  0  0  0  0
  -24.1489  -36.7327   23.2617 C   0  0  0  0  0  0
  -25.9315  -30.8232   21.3551 C   0  0  0  0  0  0
  -26.0116  -29.4500   20.7164 C   0  0  0  0  0  0
  -27.2069  -28.6943   20.7079 C   0  0  0  0  0  0
  -26.0670  -26.9165   19.5015 C   0  0  0  0  0  0
  -24.8777  -27.6743   19.5033 C   0  0  0  0  0  0
  -23.6144  -29.8082   20.1681 C   0  0  0  0  0  0
  -25.4114  -36.3140   24.0324 C   0  0  1  0  0  0
  -20.5878  -28.3648   23.1327 C   0  0  2  0  0  0
  -20.6797  -26.9388   22.5430 C   0  0  0  0  0  0
  -19.5767  -26.6351   21.5239 C   0  0  0  0  0  0
  -18.1935  -26.7908   22.1627 C   0  0  0  0  0  0
  -19.1530  -28.8820   23.2919 C   0  0  0  0  0  0
  -18.9452  -30.1428   23.8907 C   0  0  0  0  0  0
  -17.6442  -30.6573   24.0548 C   0  0  0  0  0  0
  -25.9029  -34.9501   23.5120 C   0  0  0  0  0  0
  -16.5336  -29.9046   23.6325 C   0  0  0  0  0  0
  -16.7273  -28.6461   23.0370 C   0  0  0  0  0  0
  -26.4461  -31.6611   25.0697 C   0  0  0  0  0  0
  -25.3711  -31.3727   26.1442 C   0  0  0  0  0  0
  -27.0236  -30.3047   24.6030 C   0  0  0  0  0  0
  -27.6072  -32.4276   25.7462 C   0  0  0  0  0  0
  -27.5588  -37.1814   24.8465 C   0  0  0  0  0  0
  -21.4160  -29.3017   22.3745 N   0  0  0  0  0  0
  -26.4299  -37.3826   23.9413 N   0  0  0  0  0  0
  -24.6715  -31.0728   22.0972 N   0  0  0  0  0  0
  -23.4183  -28.8225   23.3084 O   0  0  0  0  0  0
  -28.4064  -26.6719   20.0420 O   0  0  0  0  0  0
  -26.5572  -34.8954   22.4664 O   0  0  0  0  0  0
  -23.5373  -32.1421   23.7440 O   0  0  0  0  0  0
  -29.6924  -20.5974   21.2038 C   0  0  0  0  0  0
  -28.7636  -21.6413   21.4627 C   0  0  0  0  0  0
  -27.4752  -21.2557   21.9291 C   0  0  0  0  0  0
  -29.3233  -19.2438   21.4195 C   0  0  0  0  0  0
  -27.1726  -19.8761   22.0443 C   0  0  0  0  0  0
  -26.4481  -22.2952   22.3737 C   0  0  0  0  0  0
  -30.5824  -17.5357   22.8130 C   0  0  0  0  0  0
  -24.3126  -17.7268   23.2110 C   0  0  0  0  0  0
  -26.0528  -18.6831   24.7756 C   0  0  0  0  0  0
  -28.0795  -25.9801   22.4138 C   0  0  0  0  0  0
  -29.2250  -23.1203   21.4293 C   0  0  0  0  0  0
  -28.4324  -24.1791   20.5790 C   0  0  0  0  0  0
  -29.9770  -16.9463   20.3471 C   0  0  0  0  0  0
  -30.3248  -18.0660   21.3894 C   0  0  1  0  0  0
  -25.7330  -18.3038   23.3197 C   0  0  0  0  0  0
  -28.6925  -25.6546   21.0356 C   0  0  1  0  0  0
  -28.0746  -18.9108   21.8022 N   0  0  0  0  0  0
  -25.8923  -19.4555   22.4315 N   0  0  0  0  0  0
  -29.8721  -15.5502   20.8435 N   0  0  0  0  0  0
  -31.4650  -12.4153   19.1325 H   0  0  0  0  0  0
  -30.3257  -11.3079   19.8398 H   0  0  0  0  0  0
  -29.7319  -11.7662   17.4438 H   0  0  0  0  0  0
  -29.6628  -13.4827   17.7680 H   0  0  0  0  0  0
  -27.8175  -11.3085   18.8188 H   0  0  0  0  0  0
  -27.3637  -12.6471   17.7961 H   0  0  0  0  0  0
  -27.6898  -14.2519   19.5731 H   0  0  0  0  0  0
  -28.6882  -11.9790   21.3700 H   0  0  0  0  0  0
  -28.4769  -13.6265   21.8693 H   0  0  0  0  0  0
  -25.2753   -9.5670   22.4771 H   0  0  0  0  0  0
  -24.0008   -7.4603   22.7419 H   0  0  0  0  0  0
  -21.0857   -8.8726   19.8931 H   0  0  0  0  0  0
  -22.3665  -10.9661   19.6172 H   0  0  0  0  0  0
  -21.1983   -7.6149   23.9711 H   0  0  0  0  0  0
  -21.1508   -6.0530   25.9067 H   0  0  0  0  0  0
  -22.0589   -2.7621   23.2833 H   0  0  0  0  0  0
  -22.4116  -11.9861   22.4841 H   0  0  0  0  0  0
  -21.1111  -13.1207   22.2668 H   0  0  0  0  0  0
  -24.6645  -15.8454   20.5208 H   0  0  0  0  0  0
  -26.2909  -15.6359   20.1232 H   0  0  0  0  0  0
  -26.7134  -32.5526   23.1122 H   0  0  0  0  0  0
  -25.0173  -33.9807   25.0540 H   0  0  0  0  0  0
  -22.6965  -31.3043   21.4072 H   0  0  0  0  0  0
  -23.3773  -35.9631   23.3279 H   0  0  0  0  0  0
  -24.3590  -36.8940   22.2026 H   0  0  0  0  0  0
  -23.7203  -37.6519   23.6623 H   0  0  0  0  0  0
  -26.0293  -31.5771   20.5738 H   0  0  0  0  0  0
  -26.8240  -30.8967   21.9636 H   0  0  0  0  0  0
  -28.1068  -29.0909   21.1556 H   0  0  0  0  0  0
  -26.0796  -25.9483   19.0188 H   0  0  0  0  0  0
  -23.9892  -27.2799   19.0303 H   0  0  0  0  0  0
  -23.7249  -30.5767   19.4032 H   0  0  0  0  0  0
  -22.7367  -29.2278   19.8773 H   0  0  0  0  0  0
  -25.1293  -36.1999   25.0813 H   0  0  0  0  0  0
  -20.9962  -28.3197   24.1440 H   0  0  0  0  0  0
  -20.5741  -26.2257   23.3604 H   0  0  0  0  0  0
  -21.6663  -26.7456   22.1185 H   0  0  0  0  0  0
  -19.6935  -25.6264   21.1254 H   0  0  0  0  0  0
  -19.6704  -27.3168   20.6764 H   0  0  0  0  0  0
  -17.4236  -26.6695   21.3988 H   0  0  0  0  0  0
  -18.0288  -26.0011   22.8974 H   0  0  0  0  0  0
  -19.7912  -30.7271   24.2256 H   0  0  0  0  0  0
  -17.4984  -31.6262   24.5116 H   0  0  0  0  0  0
  -15.5337  -30.2940   23.7648 H   0  0  0  0  0  0
  -15.8668  -28.0763   22.7085 H   0  0  0  0  0  0
  -24.5954  -30.6984   25.7816 H   0  0  0  0  0  0
  -24.8808  -32.2862   26.4800 H   0  0  0  0  0  0
  -25.8045  -30.9003   27.0265 H   0  0  0  0  0  0
  -26.2751  -29.6900   24.1003 H   0  0  0  0  0  0
  -27.3940  -29.7195   25.4464 H   0  0  0  0  0  0
  -27.8641  -30.4398   23.9220 H   0  0  0  0  0  0
  -27.2755  -33.3605   26.2041 H   0  0  0  0  0  0
  -28.3876  -32.6754   25.0260 H   0  0  0  0  0  0
  -28.0728  -31.8360   26.5359 H   0  0  0  0  0  0
  -28.2618  -38.0106   24.7541 H   0  0  0  0  0  0
  -28.1065  -36.2640   24.6251 H   0  0  0  0  0  0
  -27.2312  -37.1434   25.8870 H   0  0  0  0  0  0
  -20.9340  -29.8684   21.6916 H   0  0  0  0  0  0
  -26.0198  -38.2913   24.1416 H   0  0  0  0  0  0
  -30.7091  -20.8314   20.9141 H   0  0  0  0  0  0
  -25.7596  -22.5246   21.5608 H   0  0  0  0  0  0
  -26.9139  -23.2211   22.7048 H   0  0  0  0  0  0
  -25.8683  -21.9483   23.2290 H   0  0  0  0  0  0
  -30.9302  -18.3354   23.4669 H   0  0  0  0  0  0
  -31.3427  -16.7550   22.8193 H   0  0  0  0  0  0
  -29.6748  -17.1224   23.2516 H   0  0  0  0  0  0
  -24.2095  -16.8316   23.8260 H   0  0  0  0  0  0
  -24.0725  -17.4414   22.1862 H   0  0  0  0  0  0
  -23.5601  -18.4426   23.5465 H   0  0  0  0  0  0
  -25.9827  -17.8166   25.4345 H   0  0  0  0  0  0
  -25.3612  -19.4396   25.1502 H   0  0  0  0  0  0
  -27.0626  -19.0816   24.8761 H   0  0  0  0  0  0
  -28.4632  -25.3253   23.1962 H   0  0  0  0  0  0
  -26.9943  -25.8755   22.4015 H   0  0  0  0  0  0
  -28.3122  -27.0002   22.7183 H   0  0  0  0  0  0
  -30.2676  -23.1587   21.1146 H   0  0  0  0  0  0
  -29.2531  -23.4252   22.4733 H   0  0  0  0  0  0
  -27.3603  -23.9999   20.6059 H   0  0  0  0  0  0
  -28.7184  -24.0628   19.5327 H   0  0  0  0  0  0
  -30.6843  -16.9982   19.5152 H   0  0  0  0  0  0
  -29.0143  -17.1771   19.8878 H   0  0  0  0  0  0
  -31.2728  -18.4941   21.0591 H   0  0  0  0  0  0
  -26.4209  -17.5152   23.0133 H   0  0  0  0  0  0
  -29.7728  -25.7382   21.1580 H   0  0  0  0  0  0
  -25.2105  -20.1954   22.5304 H   0  0  0  0  0  0
  -28.9658  -15.2923   21.2051 H   0  0  0  0  0  0
  1 25  1  0  0  0
  1 30  2  0  0  0
  1 89  1  0  0  0
  2  3  1  0  0  0
  2 25  1  0  0  0
  2 90  1  0  0  0
  2 91  1  0  0  0
  3  4  1  0  0  0
  3 92  1  0  0  0
  3 93  1  0  0  0
  4  5  1  0  0  0
  4 94  1  0  0  0
  4 95  1  0  0  0
  5  6  1  0  0  0
  5 26  1  0  0  0
  5 96  1  0  0  0
  6 25  1  0  0  0
  6 97  1  0  0  0
  6 98  1  0  0  0
  7  8  2  0  0  0
  7 26  1  0  0  0
  7 29  1  0  0  0
  8  9  1  0  0  0
  8 22  1  0  0  0
  9 10  1  0  0  0
  9 27  2  0  0  0
 10 11  2  0  0  0
 10 15  1  0  0  0
 11 12  1  0  0  0
 11 99  1  0  0  0
 12 13  2  0  0  0
 12100  1  0  0  0
 13 14  1  0  0  0
 13 31  1  0  0  0
 14 15  2  0  0  0
 14101  1  0  0  0
 15102  1  0  0  0
 16 17  2  0  0  0
 16 21  1  0  0  0
 16 31  1  0  0  0
 17 18  1  0  0  0
 17103  1  0  0  0
 18 19  2  0  0  0
 18104  1  0  0  0
 19 20  1  0  0  0
 19 24  1  0  0  0
 20 21  2  0  0  0
 20105  1  0  0  0
 21 23  1  0  0  0
 22 28  1  0  0  0
 22 32  2  0  0  0
 26 27  1  0  0  0
 28106  1  0  0  0
 28107  1  0  0  0
 29108  1  0  0  0
 29109  1  0  0  0
 33 34  1  0  0  0
 33 66  1  0  0  0
 33 70  2  0  0  0
 34 36  1  0  0  0
 34 59  1  0  0  0
 34110  1  0  0  0
 35 44  2  0  0  0
 35 45  1  0  0  0
 35 68  1  0  0  0
 36 56  1  0  0  0
 36111  1  0  0  0
 37 39  1  0  0  0
 37 47  1  0  0  0
 37 66  1  0  0  0
 37112  1  0  0  0
 38 43  2  0  0  0
 38 46  1  0  0  0
 38 47  1  0  0  0
 39 64  1  0  0  0
 39 67  2  0  0  0
 40 52  1  0  0  0
 40 53  2  0  0  0
 40 58  1  0  0  0
 41113  1  0  0  0
 41114  1  0  0  0
 41115  1  0  0  0
 41 48  1  0  0  0
 42 43  1  0  0  0
 42 66  1  0  0  0
 42116  1  0  0  0
 42117  1  0  0  0
 43 44  1  0  0  0
 44118  1  0  0  0
 45 46  2  0  0  0
 45119  1  0  0  0
 46120  1  0  0  0
 47121  1  0  0  0
 47122  1  0  0  0
 48 56  1  0  0  0
 48 65  1  0  0  0
 48123  1  0  0  0
 49 50  1  0  0  0
 49 53  1  0  0  0
 49 64  1  0  0  0
 49124  1  0  0  0
 50 51  1  0  0  0
 50125  1  0  0  0
 50126  1  0  0  0
 51 52  1  0  0  0
 51127  1  0  0  0
 51128  1  0  0  0
 52129  1  0  0  0
 52130  1  0  0  0
 53 54  1  0  0  0
 54 55  2  0  0  0
 54131  1  0  0  0
 55 57  1  0  0  0
 55132  1  0  0  0
 56 69  2  0  0  0
 57 58  2  0  0  0
 57133  1  0  0  0
 58134  1  0  0  0
 59 60  1  0  0  0
 59 61  1  0  0  0
 59 62  1  0  0  0
 60135  1  0  0  0
 60136  1  0  0  0
 60137  1  0  0  0
 61138  1  0  0  0
 61139  1  0  0  0
 61140  1  0  0  0
 62141  1  0  0  0
 62142  1  0  0  0
 62143  1  0  0  0
 63 65  1  0  0  0
 63144  1  0  0  0
 63145  1  0  0  0
 63146  1  0  0  0
 64147  1  0  0  0
 65148  1  0  0  0
 68 86  1  0  0  0
 71 72  2  0  0  0
 71 74  1  0  0  0
 71149  1  0  0  0
 72 73  1  0  0  0
 72 81  1  0  0  0
 73 75  2  0  0  0
 73 76  1  0  0  0
 74 84  1  0  0  0
 74 87  2  0  0  0
 75 87  1  0  0  0
 75 88  1  0  0  0
 76150  1  0  0  0
 76151  1  0  0  0
 76152  1  0  0  0
 77153  1  0  0  0
 77154  1  0  0  0
 77155  1  0  0  0
 77 84  1  0  0  0
 78156  1  0  0  0
 78157  1  0  0  0
 78158  1  0  0  0
 78 85  1  0  0  0
 79 85  1  0  0  0
 79159  1  0  0  0
 79160  1  0  0  0
 79161  1  0  0  0
 80162  1  0  0  0
 80163  1  0  0  0
 80164  1  0  0  0
 80 86  1  0  0  0
 81 82  1  0  0  0
 81165  1  0  0  0
 81166  1  0  0  0
 82 86  1  0  0  0
 82167  1  0  0  0
 82168  1  0  0  0
 83 84  1  0  0  0
 83 89  1  0  0  0
 83169  1  0  0  0
 83170  1  0  0  0
 84171  1  0  0  0
 85 88  1  0  0  0
 85172  1  0  0  0
 86173  1  0  0  0
 88174  1  0  0  0
 89175  1  0  0  0
M  ISO  4   1 100  68 101  86 101  89 100
M  END
> <chiral flag>
0

> <version>
0

> <s_m_source_file>
/data/baiqing/PycharmProjects/Reinvent-master-3.2/result/LINK_invent/BTK/process_docking_weight1_custom_sum_contain_oxygen_bond_distance_aromatic_linkinvent_7_9_3/rearranged_h_0086.sdf

> <i_m_source_file_index>
69

> <r_mmod_Potential_Energy-OPLS-2005>
-269.058197021484

> <r_mmod_Stretch_Energy-OPLS-2005>
48.9976005554199

> <r_mmod_Bend_Energy-OPLS-2005>
127.741882324219

> <r_mmod_Torsional_Energy-OPLS-2005>
249.835083007812

> <r_mmod_Improper_Torsional_Energy-OPLS-2005>
11.1949243545532

> <r_mmod_Van_der_Waal_Energy-OPLS-2005>
148.608825683594

> <r_mmod_Electrostatic_Energy-OPLS-2005>
-660.603637695312

> <r_mmod_Solvation_Energy-OPLS-2005>
-211.504760742188

> <b_mmod_Minimization_Converged-OPLS-2005>
0

> <r_mmod_RMS_Derivative-OPLS-2005>
3.63557577133179

$$$$
70
                    3D
 Structure written by MMmdl.
170178  0  0  1  0            999 V2000
  -30.6502  -14.6261   20.5479 C   0  0  0  0  0  0
  -30.4333  -12.3897   19.4791 C   0  0  0  0  0  0
  -29.5231  -12.5200   18.2375 C   0  0  0  0  0  0
  -28.0302  -12.4031   18.6155 C   0  0  0  0  0  0
  -27.6517  -13.2400   19.8667 C   0  0  2  0  0  0
  -28.6886  -13.0887   21.0017 C   0  0  0  0  0  0
  -25.2497  -13.8242   20.5655 C   0  0  0  0  0  0
  -24.1785  -13.0469   20.9137 C   0  0  0  0  0  0
  -24.6381  -11.6957   20.8685 C   0  0  0  0  0  0
  -23.9067  -10.4305   21.0345 C   0  0  0  0  0  0
  -24.3625   -9.4242   21.9122 C   0  0  0  0  0  0
  -23.6299   -8.2277   22.0726 C   0  0  0  0  0  0
  -22.4274   -8.0295   21.3528 C   0  0  0  0  0  0
  -21.9886   -9.0249   20.4629 C   0  0  0  0  0  0
  -22.7226  -10.2127   20.3016 C   0  0  0  0  0  0
  -21.6861   -6.0738   22.5248 C   0  0  0  0  0  0
  -21.4041   -6.5625   23.8187 C   0  0  0  0  0  0
  -21.3667   -5.6784   24.9134 C   0  0  0  0  0  0
  -21.6036   -4.3041   24.7184 C   0  0  0  0  0  0
  -21.8831   -3.8147   23.4307 C   0  0  0  0  0  0
  -21.9194   -4.6957   22.3367 C   0  0  0  0  0  0
  -22.7788  -13.5226   21.1802 C   0  0  0  0  0  0
  -22.1641   -4.2161   21.0944 F   0  0  0  0  0  0
  -21.5626   -3.4517   25.7684 F   0  0  0  0  0  0
  -30.0097  -13.4208   20.4506 N   0  0  0  0  0  0
  -26.2966  -12.9468   20.3288 N   0  0  0  0  0  0
  -25.9325  -11.6588   20.5668 N   0  0  0  0  0  0
  -22.0439  -12.8230   22.0377 N   0  0  0  0  0  0
  -25.4241  -15.1960   20.4112 N   0  0  0  0  0  0
  -31.8074  -14.7686   20.1446 O   0  0  0  0  0  0
  -21.6678   -6.8871   21.4211 O   0  0  0  0  0  0
  -22.3432  -14.5512   20.6634 O   0  0  0  0  0  0
  -24.6259  -31.8630   23.2017 C   0  0  0  0  0  0
  -25.9113  -32.4782   23.8365 C   0  0  1  0  0  0
  -27.2175  -27.3358   20.1206 C   0  0  0  0  0  0
  -25.5922  -33.8586   24.2290 N   0  0  0  0  0  0
  -23.4164  -30.4882   21.5448 C   0  0  2  0  0  0
  -24.8604  -28.9482   20.1073 C   0  0  0  0  0  0
  -22.7483  -29.4627   22.4918 C   0  0  0  0  0  0
  -18.0292  -28.1378   22.8493 C   0  0  0  0  0  0
  -24.1487  -36.7324   23.2622 C   0  0  0  0  0  0
  -25.9538  -30.8055   21.3597 C   0  0  0  0  0  0
  -26.0271  -29.4293   20.7121 C   0  0  0  0  0  0
  -27.2105  -28.6378   20.7060 C   0  0  0  0  0  0
  -26.0302  -26.9058   19.4866 C   0  0  0  0  0  0
  -24.8645  -27.6934   19.4794 C   0  0  0  0  0  0
  -23.6305  -29.8296   20.1558 C   0  0  0  0  0  0
  -25.4090  -36.3080   24.0324 C   0  0  1  0  0  0
  -20.5892  -28.3695   23.1289 C   0  0  2  0  0  0
  -20.6776  -26.9423   22.5410 C   0  0  0  0  0  0
  -19.5742  -26.6389   21.5219 C   0  0  0  0  0  0
  -18.1924  -26.7922   22.1635 C   0  0  0  0  0  0
  -19.1540  -28.8848   23.2893 C   0  0  0  0  0  0
  -18.9462  -30.1438   23.8921 C   0  0  0  0  0  0
  -17.6458  -30.6584   24.0568 C   0  0  0  0  0  0
  -25.9039  -34.9460   23.5102 C   0  0  0  0  0  0
  -16.5358  -29.9093   23.6291 C   0  0  0  0  0  0
  -16.7278  -28.6507   23.0332 C   0  0  0  0  0  0
  -26.4517  -31.6534   25.0689 C   0  0  0  0  0  0
  -25.3777  -31.3681   26.1434 C   0  0  0  0  0  0
  -27.0289  -30.2950   24.6025 C   0  0  0  0  0  0
  -27.6070  -32.4247   25.7486 C   0  0  0  0  0  0
  -27.5574  -37.1802   24.8448 C   0  0  0  0  0  0
  -21.4197  -29.3058   22.3700 N   0  0  0  0  0  0
  -26.4263  -37.3773   23.9422 N   0  0  0  0  0  0
  -24.6851  -31.0677   22.0935 N   0  0  0  0  0  0
  -23.4238  -28.8136   23.2961 O   0  0  0  0  0  0
  -28.3432  -26.5054   20.1654 O   0  0  0  0  0  0
  -26.5622  -34.8933   22.4679 O   0  0  0  0  0  0
  -23.5432  -32.1413   23.7357 O   0  0  0  0  0  0
  -29.0291  -21.7541   19.5024 C   0  0  0  0  0  0
  -29.0361  -20.3449   19.6719 C   0  0  0  0  0  0
  -29.3391  -22.6145   20.5825 C   0  0  0  0  0  0
  -29.3427  -19.7740   20.9241 C   0  0  0  0  0  0
  -29.6648  -21.9665   21.8120 C   0  0  0  0  0  0
  -31.1788  -23.3912   25.9569 C   0  0  0  0  0  0
  -31.7682  -21.0866   25.0705 C   0  0  0  0  0  0
  -31.9425  -24.4605   23.1289 C   0  0  0  0  0  0
  -29.4336  -24.1671   20.3545 C   0  0  0  0  0  0
  -29.1331  -18.2304   21.1694 C   0  0  0  0  0  0
  -29.9733  -22.7762   23.0808 C   0  0  0  0  0  0
  -30.2705  -17.1752   20.8131 C   0  0  0  0  0  0
  -28.1296  -25.0525   20.3337 C   0  0  0  0  0  0
  -31.8912  -22.5988   24.8438 C   0  0  0  0  0  0
  -31.4838  -23.0083   23.4012 C   0  0  2  0  0  0
  -29.6660  -20.5996   21.9638 N   0  0  0  0  0  0
  -29.9033  -15.7125   20.9246 N   0  0  0  0  0  0
  -31.4826  -12.4921   19.1961 H   0  0  0  0  0  0
  -30.3440  -11.4000   19.9252 H   0  0  0  0  0  0
  -29.7876  -11.7696   17.4919 H   0  0  0  0  0  0
  -29.7061  -13.4874   17.7626 H   0  0  0  0  0  0
  -27.8045  -11.3489   18.7808 H   0  0  0  0  0  0
  -27.4155  -12.7177   17.7693 H   0  0  0  0  0  0
  -27.6768  -14.2847   19.5509 H   0  0  0  0  0  0
  -28.6806  -12.0729   21.3944 H   0  0  0  0  0  0
  -28.4433  -13.7351   21.8432 H   0  0  0  0  0  0
  -25.2769   -9.5747   22.4684 H   0  0  0  0  0  0
  -24.0019   -7.4686   22.7447 H   0  0  0  0  0  0
  -21.0813   -8.8769   19.8934 H   0  0  0  0  0  0
  -22.3671  -10.9644   19.6136 H   0  0  0  0  0  0
  -21.2076   -7.6150   23.9690 H   0  0  0  0  0  0
  -21.1467   -6.0503   25.9035 H   0  0  0  0  0  0
  -22.0618   -2.7618   23.2787 H   0  0  0  0  0  0
  -22.4049  -11.9921   22.4856 H   0  0  0  0  0  0
  -21.1045  -13.1244   22.2528 H   0  0  0  0  0  0
  -24.6808  -15.8699   20.5469 H   0  0  0  0  0  0
  -26.2842  -15.6252   20.0947 H   0  0  0  0  0  0
  -26.7173  -32.5491   23.1126 H   0  0  0  0  0  0
  -25.0055  -33.9737   25.0422 H   0  0  0  0  0  0
  -22.7093  -31.3086   21.4073 H   0  0  0  0  0  0
  -23.3727  -35.9671   23.3230 H   0  0  0  0  0  0
  -24.3607  -36.9009   22.2049 H   0  0  0  0  0  0
  -23.7266  -37.6521   23.6690 H   0  0  0  0  0  0
  -26.0607  -31.5558   20.5749 H   0  0  0  0  0  0
  -26.8476  -30.8753   21.9678 H   0  0  0  0  0  0
  -28.1080  -29.0115   21.1784 H   0  0  0  0  0  0
  -25.9779  -25.9558   18.9770 H   0  0  0  0  0  0
  -23.9749  -27.3302   18.9850 H   0  0  0  0  0  0
  -23.7651  -30.6145   19.4101 H   0  0  0  0  0  0
  -22.7492  -29.2676   19.8400 H   0  0  0  0  0  0
  -25.1248  -36.1917   25.0806 H   0  0  0  0  0  0
  -20.9996  -28.3263   24.1406 H   0  0  0  0  0  0
  -20.5679  -26.2313   23.3615 H   0  0  0  0  0  0
  -21.6649  -26.7456   22.1209 H   0  0  0  0  0  0
  -19.6909  -25.6307   21.1228 H   0  0  0  0  0  0
  -19.6644  -27.3213   20.6758 H   0  0  0  0  0  0
  -17.4197  -26.6689   21.4028 H   0  0  0  0  0  0
  -18.0309  -26.0061   22.9030 H   0  0  0  0  0  0
  -19.7931  -30.7242   24.2328 H   0  0  0  0  0  0
  -17.5008  -31.6255   24.5183 H   0  0  0  0  0  0
  -15.5354  -30.3014   23.7550 H   0  0  0  0  0  0
  -15.8691  -28.0821   22.7027 H   0  0  0  0  0  0
  -24.5955  -30.7001   25.7809 H   0  0  0  0  0  0
  -24.8980  -32.2859   26.4846 H   0  0  0  0  0  0
  -25.8149  -30.8906   27.0209 H   0  0  0  0  0  0
  -26.2783  -29.6752   24.1089 H   0  0  0  0  0  0
  -27.4059  -29.7128   25.4442 H   0  0  0  0  0  0
  -27.8641  -30.4228   23.9129 H   0  0  0  0  0  0
  -27.2659  -33.3543   26.2055 H   0  0  0  0  0  0
  -28.3918  -32.6798   25.0353 H   0  0  0  0  0  0
  -28.0679  -31.8365   26.5430 H   0  0  0  0  0  0
  -28.2532  -38.0152   24.7531 H   0  0  0  0  0  0
  -28.1129  -36.2690   24.6186 H   0  0  0  0  0  0
  -27.2338  -37.1351   25.8861 H   0  0  0  0  0  0
  -20.9355  -29.8883   21.7012 H   0  0  0  0  0  0
  -26.0132  -38.2832   24.1458 H   0  0  0  0  0  0
  -28.7852  -22.1631   18.5331 H   0  0  0  0  0  0
  -28.7807  -19.7031   18.8401 H   0  0  0  0  0  0
  -31.5688  -23.1084   26.9357 H   0  0  0  0  0  0
  -30.1048  -23.2083   25.9679 H   0  0  0  0  0  0
  -31.3303  -24.4661   25.8575 H   0  0  0  0  0  0
  -32.1637  -20.8013   26.0455 H   0  0  0  0  0  0
  -32.3265  -20.5365   24.3119 H   0  0  0  0  0  0
  -30.7307  -20.7570   25.0279 H   0  0  0  0  0  0
  -32.0504  -24.6587   22.0640 H   0  0  0  0  0  0
  -32.9196  -24.6619   23.5708 H   0  0  0  0  0  0
  -31.2501  -25.1949   23.5428 H   0  0  0  0  0  0
  -29.9301  -24.2956   19.3924 H   0  0  0  0  0  0
  -30.1141  -24.5984   21.0825 H   0  0  0  0  0  0
  -28.2465  -17.9558   20.5950 H   0  0  0  0  0  0
  -28.8276  -18.0974   22.2092 H   0  0  0  0  0  0
  -29.4917  -22.2529   23.9047 H   0  0  0  0  0  0
  -29.4430  -23.7271   23.0495 H   0  0  0  0  0  0
  -31.1496  -17.3603   21.4303 H   0  0  0  0  0  0
  -30.5825  -17.3613   19.7841 H   0  0  0  0  0  0
  -27.5783  -24.8963   21.2623 H   0  0  0  0  0  0
  -27.5043  -24.6536   19.5399 H   0  0  0  0  0  0
  -32.9533  -22.8229   24.9496 H   0  0  0  0  0  0
  -32.0627  -22.3717   22.7306 H   0  0  0  0  0  0
  -28.9532  -15.5102   21.1967 H   0  0  0  0  0  0
  1 25  1  0  0  0
  1 30  2  0  0  0
  1 87  1  0  0  0
  2  3  1  0  0  0
  2 25  1  0  0  0
  2 88  1  0  0  0
  2 89  1  0  0  0
  3  4  1  0  0  0
  3 90  1  0  0  0
  3 91  1  0  0  0
  4  5  1  0  0  0
  4 92  1  0  0  0
  4 93  1  0  0  0
  5  6  1  0  0  0
  5 26  1  0  0  0
  5 94  1  0  0  0
  6 25  1  0  0  0
  6 95  1  0  0  0
  6 96  1  0  0  0
  7  8  2  0  0  0
  7 26  1  0  0  0
  7 29  1  0  0  0
  8  9  1  0  0  0
  8 22  1  0  0  0
  9 10  1  0  0  0
  9 27  2  0  0  0
 10 11  2  0  0  0
 10 15  1  0  0  0
 11 12  1  0  0  0
 11 97  1  0  0  0
 12 13  2  0  0  0
 12 98  1  0  0  0
 13 14  1  0  0  0
 13 31  1  0  0  0
 14 15  2  0  0  0
 14 99  1  0  0  0
 15100  1  0  0  0
 16 17  2  0  0  0
 16 21  1  0  0  0
 16 31  1  0  0  0
 17 18  1  0  0  0
 17101  1  0  0  0
 18 19  2  0  0  0
 18102  1  0  0  0
 19 20  1  0  0  0
 19 24  1  0  0  0
 20 21  2  0  0  0
 20103  1  0  0  0
 21 23  1  0  0  0
 22 28  1  0  0  0
 22 32  2  0  0  0
 26 27  1  0  0  0
 28104  1  0  0  0
 28105  1  0  0  0
 29106  1  0  0  0
 29107  1  0  0  0
 33 34  1  0  0  0
 33 66  1  0  0  0
 33 70  2  0  0  0
 34 36  1  0  0  0
 34 59  1  0  0  0
 34108  1  0  0  0
 35 44  2  0  0  0
 35 45  1  0  0  0
 35 68  1  0  0  0
 36 56  1  0  0  0
 36109  1  0  0  0
 37 39  1  0  0  0
 37 47  1  0  0  0
 37 66  1  0  0  0
 37110  1  0  0  0
 38 43  2  0  0  0
 38 46  1  0  0  0
 38 47  1  0  0  0
 39 64  1  0  0  0
 39 67  2  0  0  0
 40 52  1  0  0  0
 40 53  2  0  0  0
 40 58  1  0  0  0
 41111  1  0  0  0
 41112  1  0  0  0
 41113  1  0  0  0
 41 48  1  0  0  0
 42 43  1  0  0  0
 42 66  1  0  0  0
 42114  1  0  0  0
 42115  1  0  0  0
 43 44  1  0  0  0
 44116  1  0  0  0
 45 46  2  0  0  0
 45117  1  0  0  0
 46118  1  0  0  0
 47119  1  0  0  0
 47120  1  0  0  0
 48 56  1  0  0  0
 48 65  1  0  0  0
 48121  1  0  0  0
 49 50  1  0  0  0
 49 53  1  0  0  0
 49 64  1  0  0  0
 49122  1  0  0  0
 50 51  1  0  0  0
 50123  1  0  0  0
 50124  1  0  0  0
 51 52  1  0  0  0
 51125  1  0  0  0
 51126  1  0  0  0
 52127  1  0  0  0
 52128  1  0  0  0
 53 54  1  0  0  0
 54 55  2  0  0  0
 54129  1  0  0  0
 55 57  1  0  0  0
 55130  1  0  0  0
 56 69  2  0  0  0
 57 58  2  0  0  0
 57131  1  0  0  0
 58132  1  0  0  0
 59 60  1  0  0  0
 59 61  1  0  0  0
 59 62  1  0  0  0
 60133  1  0  0  0
 60134  1  0  0  0
 60135  1  0  0  0
 61136  1  0  0  0
 61137  1  0  0  0
 61138  1  0  0  0
 62139  1  0  0  0
 62140  1  0  0  0
 62141  1  0  0  0
 63 65  1  0  0  0
 63142  1  0  0  0
 63143  1  0  0  0
 63144  1  0  0  0
 64145  1  0  0  0
 65146  1  0  0  0
 68 83  1  0  0  0
 71 72  2  0  0  0
 71 73  1  0  0  0
 71147  1  0  0  0
 72 74  1  0  0  0
 72148  1  0  0  0
 73 75  2  0  0  0
 73 79  1  0  0  0
 74 80  1  0  0  0
 74 86  2  0  0  0
 75 81  1  0  0  0
 75 86  1  0  0  0
 76149  1  0  0  0
 76150  1  0  0  0
 76151  1  0  0  0
 76 84  1  0  0  0
 77 84  1  0  0  0
 77152  1  0  0  0
 77153  1  0  0  0
 77154  1  0  0  0
 78155  1  0  0  0
 78156  1  0  0  0
 78157  1  0  0  0
 78 85  1  0  0  0
 79 83  1  0  0  0
 79158  1  0  0  0
 79159  1  0  0  0
 80 82  1  0  0  0
 80160  1  0  0  0
 80161  1  0  0  0
 81 85  1  0  0  0
 81162  1  0  0  0
 81163  1  0  0  0
 82 87  1  0  0  0
 82164  1  0  0  0
 82165  1  0  0  0
 83166  1  0  0  0
 83167  1  0  0  0
 84 85  1  0  0  0
 84168  1  0  0  0
 85169  1  0  0  0
 87170  1  0  0  0
M  ISO  4   1 100  68 101  83 101  87 100
M  END
> <chiral flag>
0

> <version>
0

> <s_m_source_file>
/data/baiqing/PycharmProjects/Reinvent-master-3.2/result/LINK_invent/BTK/process_docking_weight1_custom_sum_contain_oxygen_bond_distance_aromatic_linkinvent_7_9_3/rearranged_h_0086.sdf

> <i_m_source_file_index>
70

> <r_mmod_Potential_Energy-OPLS-2005>
-95.0096893310547

> <r_mmod_Stretch_Energy-OPLS-2005>
79.0483627319336

> <r_mmod_Bend_Energy-OPLS-2005>
135.680358886719

> <r_mmod_Torsional_Energy-OPLS-2005>
214.077377319336

> <r_mmod_Improper_Torsional_Energy-OPLS-2005>
5.25799322128296

> <r_mmod_Van_der_Waal_Energy-OPLS-2005>
142.095581054688

> <r_mmod_Electrostatic_Energy-OPLS-2005>
-495.217987060547

> <r_mmod_Solvation_Energy-OPLS-2005>
-218.813568115234

> <b_mmod_Minimization_Converged-OPLS-2005>
0

> <r_mmod_RMS_Derivative-OPLS-2005>
5.10205841064453

$$$$
71
                    3D
 Structure written by MMmdl.
167175  0  0  1  0            999 V2000
  -30.6219  -14.7143   20.4992 C   0  0  0  0  0  0
  -30.4351  -12.4448   19.4655 C   0  0  0  0  0  0
  -29.5068  -12.5393   18.2341 C   0  0  0  0  0  0
  -28.0222  -12.3835   18.6348 C   0  0  0  0  0  0
  -27.6417  -13.2494   19.8644 C   0  0  2  0  0  0
  -28.6946  -13.1327   20.9883 C   0  0  0  0  0  0
  -25.2473  -13.8222   20.5823 C   0  0  0  0  0  0
  -24.1768  -13.0428   20.9306 C   0  0  0  0  0  0
  -24.6362  -11.6907   20.8753 C   0  0  0  0  0  0
  -23.9014  -10.4267   21.0407 C   0  0  0  0  0  0
  -24.3556   -9.4216   21.9193 C   0  0  0  0  0  0
  -23.6265   -8.2235   22.0692 C   0  0  0  0  0  0
  -22.4276   -8.0236   21.3482 C   0  0  0  0  0  0
  -21.9910   -9.0207   20.4619 C   0  0  0  0  0  0
  -22.7199  -10.2095   20.3057 C   0  0  0  0  0  0
  -21.6837   -6.0742   22.5261 C   0  0  0  0  0  0
  -21.4032   -6.5633   23.8194 C   0  0  0  0  0  0
  -21.3683   -5.6771   24.9145 C   0  0  0  0  0  0
  -21.6063   -4.3026   24.7206 C   0  0  0  0  0  0
  -21.8819   -3.8139   23.4301 C   0  0  0  0  0  0
  -21.9182   -4.6973   22.3372 C   0  0  0  0  0  0
  -22.7773  -13.5187   21.1938 C   0  0  0  0  0  0
  -22.1654   -4.2163   21.0941 F   0  0  0  0  0  0
  -21.5598   -3.4529   25.7714 F   0  0  0  0  0  0
  -29.9976  -13.4898   20.4147 N   0  0  0  0  0  0
  -26.2941  -12.9481   20.3377 N   0  0  0  0  0  0
  -25.9322  -11.6606   20.5825 N   0  0  0  0  0  0
  -22.0386  -12.8179   22.0485 N   0  0  0  0  0  0
  -25.4141  -15.1964   20.4255 N   0  0  0  0  0  0
  -31.8117  -14.8325   20.1941 O   0  0  0  0  0  0
  -21.6578   -6.8906   21.4234 O   0  0  0  0  0  0
  -22.3478  -14.5513   20.6794 O   0  0  0  0  0  0
  -24.6377  -31.8555   23.1979 C   0  0  0  0  0  0
  -25.9156  -32.4786   23.8352 C   0  0  1  0  0  0
  -27.2083  -27.2342   20.1171 C   0  0  0  0  0  0
  -25.5947  -33.8558   24.2248 N   0  0  0  0  0  0
  -23.4323  -30.4841   21.5485 C   0  0  2  0  0  0
  -24.8662  -28.9145   20.1252 C   0  0  0  0  0  0
  -22.7523  -29.4602   22.4923 C   0  0  0  0  0  0
  -18.0310  -28.1424   22.8469 C   0  0  0  0  0  0
  -24.1457  -36.7271   23.2632 C   0  0  0  0  0  0
  -25.9825  -30.7561   21.3817 C   0  0  0  0  0  0
  -26.0486  -29.3729   20.7233 C   0  0  0  0  0  0
  -27.2185  -28.5442   20.7102 C   0  0  0  0  0  0
  -25.9950  -26.8481   19.4967 C   0  0  0  0  0  0
  -24.8411  -27.6484   19.5229 C   0  0  0  0  0  0
  -23.6535  -29.8209   20.1645 C   0  0  0  0  0  0
  -25.4084  -36.3080   24.0336 C   0  0  1  0  0  0
  -20.5905  -28.3716   23.1290 C   0  0  2  0  0  0
  -20.6800  -26.9452   22.5425 C   0  0  0  0  0  0
  -19.5771  -26.6391   21.5239 C   0  0  0  0  0  0
  -18.1932  -26.7956   22.1634 C   0  0  0  0  0  0
  -19.1554  -28.8897   23.2858 C   0  0  0  0  0  0
  -18.9474  -30.1494   23.8878 C   0  0  0  0  0  0
  -17.6478  -30.6628   24.0572 C   0  0  0  0  0  0
  -25.9050  -34.9469   23.5071 C   0  0  0  0  0  0
  -16.5354  -29.9141   23.6351 C   0  0  0  0  0  0
  -16.7274  -28.6548   23.0352 C   0  0  0  0  0  0
  -26.4472  -31.6638   25.0765 C   0  0  0  0  0  0
  -25.3659  -31.3863   26.1482 C   0  0  0  0  0  0
  -27.0332  -30.3063   24.6279 C   0  0  0  0  0  0
  -27.5998  -32.4404   25.7558 C   0  0  0  0  0  0
  -27.5583  -37.1774   24.8426 C   0  0  0  0  0  0
  -21.4221  -29.3067   22.3677 N   0  0  0  0  0  0
  -26.4229  -37.3824   23.9458 N   0  0  0  0  0  0
  -24.7040  -31.0502   22.0995 N   0  0  0  0  0  0
  -23.4188  -28.8171   23.3062 O   0  0  0  0  0  0
  -28.2907  -26.3125   20.1468 O   0  0  0  0  0  0
  -26.5613  -34.8957   22.4655 O   0  0  0  0  0  0
  -23.5505  -32.1376   23.7289 O   0  0  0  0  0  0
  -29.7045  -23.2444   18.0719 C   0  0  0  0  0  0
  -30.0896  -22.5512   16.9120 C   0  0  0  0  0  0
  -29.3966  -22.5837   19.2813 C   0  0  0  0  0  0
  -30.1300  -21.1457   16.9803 C   0  0  0  0  0  0
  -29.5611  -21.1165   19.2742 C   0  0  0  0  0  0
  -30.5076  -20.2511   15.8112 C   0  0  0  0  0  0
  -29.9520  -25.3377   14.0819 C   0  0  0  0  0  0
  -30.5216  -23.3429   15.6745 C   0  0  0  0  0  0
  -29.0115  -23.6117   20.4308 C   0  0  0  0  0  0
  -29.5997  -20.0355   20.4344 C   0  0  0  0  0  0
  -29.4868  -24.4008   15.2163 C   0  0  0  0  0  0
  -29.5912  -18.4362   20.0342 C   0  0  0  0  0  0
  -30.1900  -17.2847   20.9973 C   0  0  0  0  0  0
  -27.9736  -24.8295   20.0948 C   0  0  0  0  0  0
  -29.8821  -20.4896   18.1198 N   0  0  0  0  0  0
  -29.8362  -15.8250   20.7374 N   0  0  0  0  0  0
  -31.4772  -12.5787   19.1613 H   0  0  0  0  0  0
  -30.3749  -11.4567   19.9277 H   0  0  0  0  0  0
  -29.7711  -11.7897   17.4893 H   0  0  0  0  0  0
  -29.6488  -13.5143   17.7648 H   0  0  0  0  0  0
  -27.8426  -11.3329   18.8492 H   0  0  0  0  0  0
  -27.3723  -12.6340   17.7927 H   0  0  0  0  0  0
  -27.6504  -14.2859   19.5198 H   0  0  0  0  0  0
  -28.7193  -12.1165   21.3906 H   0  0  0  0  0  0
  -28.4417  -13.7843   21.8259 H   0  0  0  0  0  0
  -25.2653   -9.5710   22.4838 H   0  0  0  0  0  0
  -23.9974   -7.4620   22.7370 H   0  0  0  0  0  0
  -21.0844   -8.8685   19.8945 H   0  0  0  0  0  0
  -22.3578  -10.9615   19.6183 H   0  0  0  0  0  0
  -21.2056   -7.6135   23.9756 H   0  0  0  0  0  0
  -21.1539   -6.0449   25.9058 H   0  0  0  0  0  0
  -22.0613   -2.7620   23.2754 H   0  0  0  0  0  0
  -22.3848  -11.9792   22.4918 H   0  0  0  0  0  0
  -21.1034  -13.1305   22.2687 H   0  0  0  0  0  0
  -24.6352  -15.8406   20.5130 H   0  0  0  0  0  0
  -26.2596  -15.6432   20.0959 H   0  0  0  0  0  0
  -26.7212  -32.5399   23.1086 H   0  0  0  0  0  0
  -25.0174  -33.9688   25.0456 H   0  0  0  0  0  0
  -22.7271  -31.3068   21.4070 H   0  0  0  0  0  0
  -23.3787  -35.9526   23.3189 H   0  0  0  0  0  0
  -24.3596  -36.8998   22.2067 H   0  0  0  0  0  0
  -23.7096  -37.6396   23.6724 H   0  0  0  0  0  0
  -26.1213  -31.5094   20.6060 H   0  0  0  0  0  0
  -26.8611  -30.8073   22.0136 H   0  0  0  0  0  0
  -28.1216  -28.8900   21.1966 H   0  0  0  0  0  0
  -25.8960  -25.9017   18.9936 H   0  0  0  0  0  0
  -23.9222  -27.2697   19.0876 H   0  0  0  0  0  0
  -23.8205  -30.6033   19.4229 H   0  0  0  0  0  0
  -22.7603  -29.2900   19.8346 H   0  0  0  0  0  0
  -25.1255  -36.1894   25.0823 H   0  0  0  0  0  0
  -20.9954  -28.3288   24.1430 H   0  0  0  0  0  0
  -20.5719  -26.2347   23.3633 H   0  0  0  0  0  0
  -21.6677  -26.7497   22.1245 H   0  0  0  0  0  0
  -19.6932  -25.6282   21.1353 H   0  0  0  0  0  0
  -19.6739  -27.3131   20.6712 H   0  0  0  0  0  0
  -17.4222  -26.6693   21.4011 H   0  0  0  0  0  0
  -18.0312  -26.0136   22.9069 H   0  0  0  0  0  0
  -19.7952  -30.7323   24.2212 H   0  0  0  0  0  0
  -17.5053  -31.6300   24.5205 H   0  0  0  0  0  0
  -15.5374  -30.3049   23.7703 H   0  0  0  0  0  0
  -15.8675  -28.0900   22.7074 H   0  0  0  0  0  0
  -24.5779  -30.7259   25.7838 H   0  0  0  0  0  0
  -24.8923  -32.3085   26.4861 H   0  0  0  0  0  0
  -25.7951  -30.9072   27.0283 H   0  0  0  0  0  0
  -26.2956  -29.6861   24.1169 H   0  0  0  0  0  0
  -27.3867  -29.7295   25.4831 H   0  0  0  0  0  0
  -27.8895  -30.4394   23.9661 H   0  0  0  0  0  0
  -27.2572  -33.3736   26.2055 H   0  0  0  0  0  0
  -28.3868  -32.6898   25.0424 H   0  0  0  0  0  0
  -28.0582  -31.8568   26.5556 H   0  0  0  0  0  0
  -28.2465  -38.0207   24.7725 H   0  0  0  0  0  0
  -28.1228  -36.2777   24.5934 H   0  0  0  0  0  0
  -27.2385  -37.1022   25.8835 H   0  0  0  0  0  0
  -20.9394  -29.8803   21.6916 H   0  0  0  0  0  0
  -26.0094  -38.2852   24.1642 H   0  0  0  0  0  0
  -29.6738  -24.3240   18.0405 H   0  0  0  0  0  0
  -29.8917  -20.4656   14.9409 H   0  0  0  0  0  0
  -30.3723  -19.1930   16.0479 H   0  0  0  0  0  0
  -31.5514  -20.3970   15.5330 H   0  0  0  0  0  0
  -29.2434  -26.1577   13.9392 H   0  0  0  0  0  0
  -30.0214  -24.8065   13.1328 H   0  0  0  0  0  0
  -30.9159  -25.8094   14.2828 H   0  0  0  0  0  0
  -30.7770  -22.6705   14.8574 H   0  0  0  0  0  0
  -31.4547  -23.8441   15.9361 H   0  0  0  0  0  0
  -29.9394  -24.0500   20.7966 H   0  0  0  0  0  0
  -28.6260  -23.0450   21.2785 H   0  0  0  0  0  0
  -28.7628  -20.2368   21.1038 H   0  0  0  0  0  0
  -30.5152  -20.2470   20.9922 H   0  0  0  0  0  0
  -28.5603  -23.9009   14.9297 H   0  0  0  0  0  0
  -29.2318  -25.0408   16.0562 H   0  0  0  0  0  0
  -30.1929  -18.2874   19.1378 H   0  0  0  0  0  0
  -28.5794  -18.1775   19.7237 H   0  0  0  0  0  0
  -29.8862  -17.5011   22.0213 H   0  0  0  0  0  0
  -31.2774  -17.3670   21.0206 H   0  0  0  0  0  0
  -27.1609  -24.7129   20.8204 H   0  0  0  0  0  0
  -27.5237  -24.5721   19.1322 H   0  0  0  0  0  0
  -28.8557  -15.6151   20.8394 H   0  0  0  0  0  0
  1 25  1  0  0  0
  1 30  2  0  0  0
  1 86  1  0  0  0
  2  3  1  0  0  0
  2 25  1  0  0  0
  2 87  1  0  0  0
  2 88  1  0  0  0
  3  4  1  0  0  0
  3 89  1  0  0  0
  3 90  1  0  0  0
  4  5  1  0  0  0
  4 91  1  0  0  0
  4 92  1  0  0  0
  5  6  1  0  0  0
  5 26  1  0  0  0
  5 93  1  0  0  0
  6 25  1  0  0  0
  6 94  1  0  0  0
  6 95  1  0  0  0
  7  8  2  0  0  0
  7 26  1  0  0  0
  7 29  1  0  0  0
  8  9  1  0  0  0
  8 22  1  0  0  0
  9 10  1  0  0  0
  9 27  2  0  0  0
 10 11  2  0  0  0
 10 15  1  0  0  0
 11 12  1  0  0  0
 11 96  1  0  0  0
 12 13  2  0  0  0
 12 97  1  0  0  0
 13 14  1  0  0  0
 13 31  1  0  0  0
 14 15  2  0  0  0
 14 98  1  0  0  0
 15 99  1  0  0  0
 16 17  2  0  0  0
 16 21  1  0  0  0
 16 31  1  0  0  0
 17 18  1  0  0  0
 17100  1  0  0  0
 18 19  2  0  0  0
 18101  1  0  0  0
 19 20  1  0  0  0
 19 24  1  0  0  0
 20 21  2  0  0  0
 20102  1  0  0  0
 21 23  1  0  0  0
 22 28  1  0  0  0
 22 32  2  0  0  0
 26 27  1  0  0  0
 28103  1  0  0  0
 28104  1  0  0  0
 29105  1  0  0  0
 29106  1  0  0  0
 33 34  1  0  0  0
 33 66  1  0  0  0
 33 70  2  0  0  0
 34 36  1  0  0  0
 34 59  1  0  0  0
 34107  1  0  0  0
 35 44  2  0  0  0
 35 45  1  0  0  0
 35 68  1  0  0  0
 36 56  1  0  0  0
 36108  1  0  0  0
 37 39  1  0  0  0
 37 47  1  0  0  0
 37 66  1  0  0  0
 37109  1  0  0  0
 38 43  2  0  0  0
 38 46  1  0  0  0
 38 47  1  0  0  0
 39 64  1  0  0  0
 39 67  2  0  0  0
 40 52  1  0  0  0
 40 53  2  0  0  0
 40 58  1  0  0  0
 41110  1  0  0  0
 41111  1  0  0  0
 41112  1  0  0  0
 41 48  1  0  0  0
 42 43  1  0  0  0
 42 66  1  0  0  0
 42113  1  0  0  0
 42114  1  0  0  0
 43 44  1  0  0  0
 44115  1  0  0  0
 45 46  2  0  0  0
 45116  1  0  0  0
 46117  1  0  0  0
 47118  1  0  0  0
 47119  1  0  0  0
 48 56  1  0  0  0
 48 65  1  0  0  0
 48120  1  0  0  0
 49 50  1  0  0  0
 49 53  1  0  0  0
 49 64  1  0  0  0
 49121  1  0  0  0
 50 51  1  0  0  0
 50122  1  0  0  0
 50123  1  0  0  0
 51 52  1  0  0  0
 51124  1  0  0  0
 51125  1  0  0  0
 52126  1  0  0  0
 52127  1  0  0  0
 53 54  1  0  0  0
 54 55  2  0  0  0
 54128  1  0  0  0
 55 57  1  0  0  0
 55129  1  0  0  0
 56 69  2  0  0  0
 57 58  2  0  0  0
 57130  1  0  0  0
 58131  1  0  0  0
 59 60  1  0  0  0
 59 61  1  0  0  0
 59 62  1  0  0  0
 60132  1  0  0  0
 60133  1  0  0  0
 60134  1  0  0  0
 61135  1  0  0  0
 61136  1  0  0  0
 61137  1  0  0  0
 62138  1  0  0  0
 62139  1  0  0  0
 62140  1  0  0  0
 63 65  1  0  0  0
 63141  1  0  0  0
 63142  1  0  0  0
 63143  1  0  0  0
 64144  1  0  0  0
 65145  1  0  0  0
 68 84  1  0  0  0
 71 72  2  0  0  0
 71 73  1  0  0  0
 71146  1  0  0  0
 72 74  1  0  0  0
 72 78  1  0  0  0
 73 75  2  0  0  0
 73 79  1  0  0  0
 74 76  1  0  0  0
 74 85  2  0  0  0
 75 80  1  0  0  0
 75 85  1  0  0  0
 76147  1  0  0  0
 76148  1  0  0  0
 76149  1  0  0  0
 77 81  1  0  0  0
 77150  1  0  0  0
 77151  1  0  0  0
 77152  1  0  0  0
 78 81  1  0  0  0
 78153  1  0  0  0
 78154  1  0  0  0
 79 84  1  0  0  0
 79155  1  0  0  0
 79156  1  0  0  0
 80 82  1  0  0  0
 80157  1  0  0  0
 80158  1  0  0  0
 81159  1  0  0  0
 81160  1  0  0  0
 82 83  1  0  0  0
 82161  1  0  0  0
 82162  1  0  0  0
 83 86  1  0  0  0
 83163  1  0  0  0
 83164  1  0  0  0
 84165  1  0  0  0
 84166  1  0  0  0
 86167  1  0  0  0
M  ISO  4   1 100  68 101  84 101  86 100
M  END
> <chiral flag>
0

> <version>
0

> <s_m_source_file>
/data/baiqing/PycharmProjects/Reinvent-master-3.2/result/LINK_invent/BTK/process_docking_weight1_custom_sum_contain_oxygen_bond_distance_aromatic_linkinvent_7_9_3/rearranged_h_0086.sdf

> <i_m_source_file_index>
71

> <r_mmod_Potential_Energy-OPLS-2005>
52.1404037475586

> <r_mmod_Stretch_Energy-OPLS-2005>
139.460754394531

> <r_mmod_Bend_Energy-OPLS-2005>
212.49201965332

> <r_mmod_Torsional_Energy-OPLS-2005>
232.271041870117

> <r_mmod_Improper_Torsional_Energy-OPLS-2005>
5.11462116241455

> <r_mmod_Van_der_Waal_Energy-OPLS-2005>
151.251937866211

> <r_mmod_Electrostatic_Energy-OPLS-2005>
-552.954406738281

> <r_mmod_Solvation_Energy-OPLS-2005>
-222.6279296875

> <b_mmod_Minimization_Converged-OPLS-2005>
0

> <r_mmod_RMS_Derivative-OPLS-2005>
8.97064399719238

$$$$
72
                    3D
 Structure written by MMmdl.
154162  0  0  1  0            999 V2000
  -30.4991  -14.9876   20.4043 C   0  0  0  0  0  0
  -30.4449  -12.6051   19.5159 C   0  0  0  0  0  0
  -29.5295  -12.5296   18.2704 C   0  0  0  0  0  0
  -28.0618  -12.3114   18.6837 C   0  0  0  0  0  0
  -27.6319  -13.2478   19.8428 C   0  0  2  0  0  0
  -28.6705  -13.2745   20.9857 C   0  0  0  0  0  0
  -25.2477  -13.8217   20.5728 C   0  0  0  0  0  0
  -24.1799  -13.0444   20.9239 C   0  0  0  0  0  0
  -24.6413  -11.6923   20.8750 C   0  0  0  0  0  0
  -23.9097  -10.4289   21.0414 C   0  0  0  0  0  0
  -24.3643   -9.4203   21.9194 C   0  0  0  0  0  0
  -23.6315   -8.2242   22.0764 C   0  0  0  0  0  0
  -22.4291   -8.0284   21.3562 C   0  0  0  0  0  0
  -21.9934   -9.0255   20.4659 C   0  0  0  0  0  0
  -22.7269  -10.2128   20.3064 C   0  0  0  0  0  0
  -21.6859   -6.0740   22.5289 C   0  0  0  0  0  0
  -21.4013   -6.5648   23.8217 C   0  0  0  0  0  0
  -21.3657   -5.6803   24.9184 C   0  0  0  0  0  0
  -21.6048   -4.3063   24.7236 C   0  0  0  0  0  0
  -21.8818   -3.8153   23.4358 C   0  0  0  0  0  0
  -21.9195   -4.6968   22.3415 C   0  0  0  0  0  0
  -22.7813  -13.5212   21.1886 C   0  0  0  0  0  0
  -22.1665   -4.2150   21.0995 F   0  0  0  0  0  0
  -21.5616   -3.4545   25.7749 F   0  0  0  0  0  0
  -29.9479  -13.7020   20.3999 N   0  0  0  0  0  0
  -26.2897  -12.9448   20.3254 N   0  0  0  0  0  0
  -25.9346  -11.6574   20.5752 N   0  0  0  0  0  0
  -22.0477  -12.8174   22.0429 N   0  0  0  0  0  0
  -25.4149  -15.1953   20.4149 N   0  0  0  0  0  0
  -31.6770  -15.0890   20.0453 O   0  0  0  0  0  0
  -21.6651   -6.8886   21.4255 O   0  0  0  0  0  0
  -22.3489  -14.5516   20.6724 O   0  0  0  0  0  0
  -24.6440  -31.8419   23.1835 C   0  0  0  0  0  0
  -25.9202  -32.4692   23.8236 C   0  0  1  0  0  0
  -27.2192  -27.1204   20.1562 C   0  0  0  0  0  0
  -25.5932  -33.8494   24.2155 N   0  0  0  0  0  0
  -23.4480  -30.4585   21.5324 C   0  0  2  0  0  0
  -24.8993  -28.8817   20.1074 C   0  0  0  0  0  0
  -22.7579  -29.4532   22.4888 C   0  0  0  0  0  0
  -18.0297  -28.1401   22.8474 C   0  0  0  0  0  0
  -24.1486  -36.7270   23.2646 C   0  0  0  0  0  0
  -26.0028  -30.7151   21.3783 C   0  0  0  0  0  0
  -26.0766  -29.3215   20.7258 C   0  0  0  0  0  0
  -27.2360  -28.4569   20.7326 C   0  0  0  0  0  0
  -26.0172  -26.7874   19.4941 C   0  0  0  0  0  0
  -24.8840  -27.6298   19.4741 C   0  0  0  0  0  0
  -23.6740  -29.7829   20.1525 C   0  0  0  0  0  0
  -25.4114  -36.3030   24.0314 C   0  0  1  0  0  0
  -20.5910  -28.3713   23.1259 C   0  0  2  0  0  0
  -20.6785  -26.9430   22.5411 C   0  0  0  0  0  0
  -19.5759  -26.6397   21.5220 C   0  0  0  0  0  0
  -18.1940  -26.7937   22.1634 C   0  0  0  0  0  0
  -19.1557  -28.8886   23.2849 C   0  0  0  0  0  0
  -18.9480  -30.1489   23.8873 C   0  0  0  0  0  0
  -17.6476  -30.6597   24.0571 C   0  0  0  0  0  0
  -25.9077  -34.9410   23.5053 C   0  0  0  0  0  0
  -16.5367  -29.9093   23.6337 C   0  0  0  0  0  0
  -16.7284  -28.6513   23.0349 C   0  0  0  0  0  0
  -26.4505  -31.6559   25.0684 C   0  0  0  0  0  0
  -25.3657  -31.3768   26.1363 C   0  0  0  0  0  0
  -27.0360  -30.2954   24.6251 C   0  0  0  0  0  0
  -27.6054  -32.4311   25.7457 C   0  0  0  0  0  0
  -27.5568  -37.1780   24.8463 C   0  0  0  0  0  0
  -21.4275  -29.3027   22.3643 N   0  0  0  0  0  0
  -26.4271  -37.3744   23.9413 N   0  0  0  0  0  0
  -24.7194  -31.0254   22.0886 N   0  0  0  0  0  0
  -23.4222  -28.8093   23.3049 O   0  0  0  0  0  0
  -28.2691  -26.1290   20.2450 O   0  0  0  0  0  0
  -26.5692  -34.8904   22.4648 O   0  0  0  0  0  0
  -23.5561  -32.1327   23.7031 O   0  0  0  0  0  0
  -30.7969  -21.1640   21.8343 C   0  0  0  0  0  0
  -29.8868  -20.4908   20.9760 C   0  0  0  0  0  0
  -31.7522  -20.4731   22.5919 C   0  0  0  0  0  0
  -30.1025  -18.9693   20.9773 C   0  0  0  0  0  0
  -32.7348  -21.2062   23.4813 C   0  0  0  0  0  0
  -28.8804  -21.6089   20.2719 C   0  0  0  0  0  0
  -29.5636  -17.6614   20.1568 C   0  0  0  0  0  0
  -29.0243  -23.3075   20.5312 C   0  0  0  0  0  0
  -28.0264  -24.5938   20.0417 C   0  0  0  0  0  0
  -31.8536  -19.1368   22.5767 N   0  0  0  0  0  0
  -31.0501  -18.4296   21.7907 N   0  0  0  0  0  0
  -29.6680  -16.1266   20.6176 N   0  0  0  0  0  0
  -31.4799  -12.7636   19.2086 H   0  0  0  0  0  0
  -30.4441  -11.6542   20.0506 H   0  0  0  0  0  0
  -29.8553  -11.7227   17.6111 H   0  0  0  0  0  0
  -29.6150  -13.4521   17.6945 H   0  0  0  0  0  0
  -27.9636  -11.2718   18.9993 H   0  0  0  0  0  0
  -27.4010  -12.4336   17.8244 H   0  0  0  0  0  0
  -27.5974  -14.2489   19.4114 H   0  0  0  0  0  0
  -28.7642  -12.2945   21.4550 H   0  0  0  0  0  0
  -28.3611  -13.9644   21.7726 H   0  0  0  0  0  0
  -25.2788   -9.5661   22.4767 H   0  0  0  0  0  0
  -24.0017   -7.4631   22.7483 H   0  0  0  0  0  0
  -21.0871   -8.8786   19.8963 H   0  0  0  0  0  0
  -22.3754  -10.9667   19.6161 H   0  0  0  0  0  0
  -21.2009   -7.6153   23.9727 H   0  0  0  0  0  0
  -21.1476   -6.0533   25.9090 H   0  0  0  0  0  0
  -22.0597   -2.7611   23.2871 H   0  0  0  0  0  0
  -22.4115  -11.9837   22.4794 H   0  0  0  0  0  0
  -21.1094  -13.1169   22.2654 H   0  0  0  0  0  0
  -24.6450  -15.8444   20.5316 H   0  0  0  0  0  0
  -26.2496  -15.6340   20.0473 H   0  0  0  0  0  0
  -26.7282  -32.5307   23.0977 H   0  0  0  0  0  0
  -24.9958  -33.9603   25.0220 H   0  0  0  0  0  0
  -22.7496  -31.2831   21.3755 H   0  0  0  0  0  0
  -23.3743  -35.9610   23.3282 H   0  0  0  0  0  0
  -24.3573  -36.8940   22.2072 H   0  0  0  0  0  0
  -23.7255  -37.6458   23.6707 H   0  0  0  0  0  0
  -26.1408  -31.4636   20.5975 H   0  0  0  0  0  0
  -26.8790  -30.7802   22.0109 H   0  0  0  0  0  0
  -28.1305  -28.7868   21.2419 H   0  0  0  0  0  0
  -25.9182  -25.8293   19.0070 H   0  0  0  0  0  0
  -23.9875  -27.2877   18.9754 H   0  0  0  0  0  0
  -23.8036  -30.5553   19.3939 H   0  0  0  0  0  0
  -22.7892  -29.2209   19.8484 H   0  0  0  0  0  0
  -25.1299  -36.1845   25.0807 H   0  0  0  0  0  0
  -20.9981  -28.3287   24.1385 H   0  0  0  0  0  0
  -20.5703  -26.2328   23.3620 H   0  0  0  0  0  0
  -21.6649  -26.7457   22.1201 H   0  0  0  0  0  0
  -19.6927  -25.6308   21.1254 H   0  0  0  0  0  0
  -19.6689  -27.3206   20.6752 H   0  0  0  0  0  0
  -17.4214  -26.6697   21.4033 H   0  0  0  0  0  0
  -18.0328  -26.0081   22.9037 H   0  0  0  0  0  0
  -19.7963  -30.7315   24.2220 H   0  0  0  0  0  0
  -17.5029  -31.6263   24.5198 H   0  0  0  0  0  0
  -15.5369  -30.2995   23.7659 H   0  0  0  0  0  0
  -15.8684  -28.0833   22.7056 H   0  0  0  0  0  0
  -24.5875  -30.7079   25.7660 H   0  0  0  0  0  0
  -24.8795  -32.2962   26.4642 H   0  0  0  0  0  0
  -25.7899  -30.9036   27.0231 H   0  0  0  0  0  0
  -26.2972  -29.6688   24.1254 H   0  0  0  0  0  0
  -27.3981  -29.7236   25.4803 H   0  0  0  0  0  0
  -27.8859  -30.4191   23.9540 H   0  0  0  0  0  0
  -27.2690  -33.3667   26.1929 H   0  0  0  0  0  0
  -28.3901  -32.6786   25.0293 H   0  0  0  0  0  0
  -28.0676  -31.8502   26.5450 H   0  0  0  0  0  0
  -28.2568  -38.0089   24.7500 H   0  0  0  0  0  0
  -28.1074  -36.2620   24.6278 H   0  0  0  0  0  0
  -27.2297  -37.1415   25.8868 H   0  0  0  0  0  0
  -20.9504  -29.8734   21.6805 H   0  0  0  0  0  0
  -26.0139  -38.2809   24.1411 H   0  0  0  0  0  0
  -30.8034  -22.2347   21.9338 H   0  0  0  0  0  0
  -32.3895  -21.1899   24.5141 H   0  0  0  0  0  0
  -32.8468  -22.2469   23.1764 H   0  0  0  0  0  0
  -33.7172  -20.7349   23.4408 H   0  0  0  0  0  0
  -27.8722  -21.3237   20.5724 H   0  0  0  0  0  0
  -28.9195  -21.4359   19.1962 H   0  0  0  0  0  0
  -30.0048  -17.7232   19.1623 H   0  0  0  0  0  0
  -28.5010  -17.8485   20.0001 H   0  0  0  0  0  0
  -30.0173  -23.5727   20.1682 H   0  0  0  0  0  0
  -29.0726  -23.4438   21.6117 H   0  0  0  0  0  0
  -27.0524  -24.3882   20.4867 H   0  0  0  0  0  0
  -27.8710  -24.4749   18.9690 H   0  0  0  0  0  0
  -28.7864  -15.8285   21.0059 H   0  0  0  0  0  0
  1 25  1  0  0  0
  1 30  2  0  0  0
  1 82  1  0  0  0
  2  3  1  0  0  0
  2 25  1  0  0  0
  2 83  1  0  0  0
  2 84  1  0  0  0
  3  4  1  0  0  0
  3 85  1  0  0  0
  3 86  1  0  0  0
  4  5  1  0  0  0
  4 87  1  0  0  0
  4 88  1  0  0  0
  5  6  1  0  0  0
  5 26  1  0  0  0
  5 89  1  0  0  0
  6 25  1  0  0  0
  6 90  1  0  0  0
  6 91  1  0  0  0
  7  8  2  0  0  0
  7 26  1  0  0  0
  7 29  1  0  0  0
  8  9  1  0  0  0
  8 22  1  0  0  0
  9 10  1  0  0  0
  9 27  2  0  0  0
 10 11  2  0  0  0
 10 15  1  0  0  0
 11 12  1  0  0  0
 11 92  1  0  0  0
 12 13  2  0  0  0
 12 93  1  0  0  0
 13 14  1  0  0  0
 13 31  1  0  0  0
 14 15  2  0  0  0
 14 94  1  0  0  0
 15 95  1  0  0  0
 16 17  2  0  0  0
 16 21  1  0  0  0
 16 31  1  0  0  0
 17 18  1  0  0  0
 17 96  1  0  0  0
 18 19  2  0  0  0
 18 97  1  0  0  0
 19 20  1  0  0  0
 19 24  1  0  0  0
 20 21  2  0  0  0
 20 98  1  0  0  0
 21 23  1  0  0  0
 22 28  1  0  0  0
 22 32  2  0  0  0
 26 27  1  0  0  0
 28 99  1  0  0  0
 28100  1  0  0  0
 29101  1  0  0  0
 29102  1  0  0  0
 33 34  1  0  0  0
 33 66  1  0  0  0
 33 70  2  0  0  0
 34 36  1  0  0  0
 34 59  1  0  0  0
 34103  1  0  0  0
 35 44  2  0  0  0
 35 45  1  0  0  0
 35 68  1  0  0  0
 36 56  1  0  0  0
 36104  1  0  0  0
 37 39  1  0  0  0
 37 47  1  0  0  0
 37 66  1  0  0  0
 37105  1  0  0  0
 38 43  2  0  0  0
 38 46  1  0  0  0
 38 47  1  0  0  0
 39 64  1  0  0  0
 39 67  2  0  0  0
 40 52  1  0  0  0
 40 53  2  0  0  0
 40 58  1  0  0  0
 41106  1  0  0  0
 41107  1  0  0  0
 41108  1  0  0  0
 41 48  1  0  0  0
 42 43  1  0  0  0
 42 66  1  0  0  0
 42109  1  0  0  0
 42110  1  0  0  0
 43 44  1  0  0  0
 44111  1  0  0  0
 45 46  2  0  0  0
 45112  1  0  0  0
 46113  1  0  0  0
 47114  1  0  0  0
 47115  1  0  0  0
 48 56  1  0  0  0
 48 65  1  0  0  0
 48116  1  0  0  0
 49 50  1  0  0  0
 49 53  1  0  0  0
 49 64  1  0  0  0
 49117  1  0  0  0
 50 51  1  0  0  0
 50118  1  0  0  0
 50119  1  0  0  0
 51 52  1  0  0  0
 51120  1  0  0  0
 51121  1  0  0  0
 52122  1  0  0  0
 52123  1  0  0  0
 53 54  1  0  0  0
 54 55  2  0  0  0
 54124  1  0  0  0
 55 57  1  0  0  0
 55125  1  0  0  0
 56 69  2  0  0  0
 57 58  2  0  0  0
 57126  1  0  0  0
 58127  1  0  0  0
 59 60  1  0  0  0
 59 61  1  0  0  0
 59 62  1  0  0  0
 60128  1  0  0  0
 60129  1  0  0  0
 60130  1  0  0  0
 61131  1  0  0  0
 61132  1  0  0  0
 61133  1  0  0  0
 62134  1  0  0  0
 62135  1  0  0  0
 62136  1  0  0  0
 63 65  1  0  0  0
 63137  1  0  0  0
 63138  1  0  0  0
 63139  1  0  0  0
 64140  1  0  0  0
 65141  1  0  0  0
 68 79  1  0  0  0
 71 72  2  0  0  0
 71 73  1  0  0  0
 71142  1  0  0  0
 72 74  1  0  0  0
 72 76  1  0  0  0
 73 75  1  0  0  0
 73 80  2  0  0  0
 74 77  1  0  0  0
 74 81  2  0  0  0
 75143  1  0  0  0
 75144  1  0  0  0
 75145  1  0  0  0
 76 78  1  0  0  0
 76146  1  0  0  0
 76147  1  0  0  0
 77 82  1  0  0  0
 77148  1  0  0  0
 77149  1  0  0  0
 78 79  1  0  0  0
 78150  1  0  0  0
 78151  1  0  0  0
 79152  1  0  0  0
 79153  1  0  0  0
 80 81  1  0  0  0
 82154  1  0  0  0
M  ISO  4   1 100  68 101  79 101  82 100
M  END
> <chiral flag>
0

> <version>
0

> <s_m_source_file>
/data/baiqing/PycharmProjects/Reinvent-master-3.2/result/LINK_invent/BTK/process_docking_weight1_custom_sum_contain_oxygen_bond_distance_aromatic_linkinvent_7_9_3/rearranged_h_0086.sdf

> <i_m_source_file_index>
72

> <r_mmod_Potential_Energy-OPLS-2005>
560.924011230469

> <r_mmod_Stretch_Energy-OPLS-2005>
315.455017089844

> <r_mmod_Bend_Energy-OPLS-2005>
342.147003173828

> <r_mmod_Torsional_Energy-OPLS-2005>
204.849609375

> <r_mmod_Improper_Torsional_Energy-OPLS-2005>
5.41026258468628

> <r_mmod_Van_der_Waal_Energy-OPLS-2005>
137.277221679688

> <r_mmod_Electrostatic_Energy-OPLS-2005>
-403.770233154297

> <r_mmod_Solvation_Energy-OPLS-2005>
-256.623413085938

> <b_mmod_Minimization_Converged-OPLS-2005>
0

> <r_mmod_RMS_Derivative-OPLS-2005>
2.3908543586731

$$$$
73
                    3D
 Structure written by MMmdl.
160168  0  0  1  0            999 V2000
  -30.6150  -14.7205   20.4694 C   0  0  0  0  0  0
  -30.4334  -12.4417   19.4699 C   0  0  0  0  0  0
  -29.5113  -12.5098   18.2333 C   0  0  0  0  0  0
  -28.0352  -12.3382   18.6443 C   0  0  0  0  0  0
  -27.6438  -13.2306   19.8527 C   0  0  2  0  0  0
  -28.6882  -13.1507   20.9874 C   0  0  0  0  0  0
  -25.2519  -13.8202   20.5693 C   0  0  0  0  0  0
  -24.1809  -13.0446   20.9207 C   0  0  0  0  0  0
  -24.6402  -11.6924   20.8753 C   0  0  0  0  0  0
  -23.9078  -10.4300   21.0407 C   0  0  0  0  0  0
  -24.3629   -9.4211   21.9179 C   0  0  0  0  0  0
  -23.6307   -8.2243   22.0745 C   0  0  0  0  0  0
  -22.4288   -8.0284   21.3539 C   0  0  0  0  0  0
  -21.9926   -9.0260   20.4641 C   0  0  0  0  0  0
  -22.7254  -10.2139   20.3052 C   0  0  0  0  0  0
  -21.6858   -6.0740   22.5281 C   0  0  0  0  0  0
  -21.4018   -6.5639   23.8216 C   0  0  0  0  0  0
  -21.3657   -5.6788   24.9172 C   0  0  0  0  0  0
  -21.6046   -4.3053   24.7220 C   0  0  0  0  0  0
  -21.8820   -3.8148   23.4339 C   0  0  0  0  0  0
  -21.9194   -4.6967   22.3399 C   0  0  0  0  0  0
  -22.7828  -13.5225   21.1867 C   0  0  0  0  0  0
  -22.1663   -4.2154   21.0976 F   0  0  0  0  0  0
  -21.5622   -3.4533   25.7730 F   0  0  0  0  0  0
  -29.9919  -13.4964   20.4079 N   0  0  0  0  0  0
  -26.2947  -12.9405   20.3288 N   0  0  0  0  0  0
  -25.9333  -11.6548   20.5763 N   0  0  0  0  0  0
  -22.0473  -12.8216   22.0423 N   0  0  0  0  0  0
  -25.4214  -15.1926   20.4095 N   0  0  0  0  0  0
  -31.8016  -14.8317   20.1513 O   0  0  0  0  0  0
  -21.6645   -6.8887   21.4244 O   0  0  0  0  0  0
  -22.3510  -14.5526   20.6711 O   0  0  0  0  0  0
  -24.6301  -31.8568   23.1997 C   0  0  0  0  0  0
  -25.9129  -32.4768   23.8346 C   0  0  1  0  0  0
  -27.2200  -27.2781   20.1341 C   0  0  0  0  0  0
  -25.5930  -33.8568   24.2276 N   0  0  0  0  0  0
  -23.4264  -30.4784   21.5435 C   0  0  2  0  0  0
  -24.8751  -28.9278   20.1132 C   0  0  0  0  0  0
  -22.7504  -29.4597   22.4931 C   0  0  0  0  0  0
  -18.0292  -28.1380   22.8493 C   0  0  0  0  0  0
  -24.1486  -36.7288   23.2641 C   0  0  0  0  0  0
  -25.9705  -30.7754   21.3774 C   0  0  0  0  0  0
  -26.0459  -29.3979   20.7229 C   0  0  0  0  0  0
  -27.2247  -28.5861   20.7215 C   0  0  0  0  0  0
  -26.0323  -26.8768   19.4886 C   0  0  0  0  0  0
  -24.8725  -27.6743   19.4831 C   0  0  0  0  0  0
  -23.6450  -29.8127   20.1598 C   0  0  0  0  0  0
  -25.4112  -36.3080   24.0334 C   0  0  1  0  0  0
  -20.5897  -28.3685   23.1286 C   0  0  2  0  0  0
  -20.6778  -26.9406   22.5413 C   0  0  0  0  0  0
  -19.5749  -26.6379   21.5220 C   0  0  0  0  0  0
  -18.1933  -26.7923   22.1632 C   0  0  0  0  0  0
  -19.1546  -28.8851   23.2881 C   0  0  0  0  0  0
  -18.9459  -30.1455   23.8895 C   0  0  0  0  0  0
  -17.6457  -30.6579   24.0562 C   0  0  0  0  0  0
  -25.9053  -34.9447   23.5108 C   0  0  0  0  0  0
  -16.5350  -29.9074   23.6328 C   0  0  0  0  0  0
  -16.7279  -28.6490   23.0354 C   0  0  0  0  0  0
  -26.4503  -31.6579   25.0723 C   0  0  0  0  0  0
  -25.3721  -31.3721   26.1437 C   0  0  0  0  0  0
  -27.0349  -30.3000   24.6190 C   0  0  0  0  0  0
  -27.6065  -32.4311   25.7491 C   0  0  0  0  0  0
  -27.5579  -37.1804   24.8468 C   0  0  0  0  0  0
  -21.4211  -29.3036   22.3678 N   0  0  0  0  0  0
  -26.4292  -37.3774   23.9411 N   0  0  0  0  0  0
  -24.6946  -31.0545   22.0974 N   0  0  0  0  0  0
  -23.4210  -28.8142   23.3029 O   0  0  0  0  0  0
  -28.3066  -26.3800   20.1499 O   0  0  0  0  0  0
  -26.5617  -34.8919   22.4672 O   0  0  0  0  0  0
  -23.5452  -32.1386   23.7297 O   0  0  0  0  0  0
  -26.7943  -22.8375   19.0204 C   0  0  0  0  0  0
  -27.9516  -22.4221   19.7216 C   0  0  0  0  0  0
  -25.8981  -21.8937   18.5014 C   0  0  0  0  0  0
  -28.1457  -20.9555   19.7888 C   0  0  0  0  0  0
  -24.6402  -22.3155   17.7719 C   0  0  0  0  0  0
  -30.6350  -20.4130   19.5785 C   0  0  0  0  0  0
  -28.8220  -23.6400   20.2346 C   0  0  0  0  0  0
  -29.1071  -18.4257   20.2882 C   0  0  0  0  0  0
  -30.2198  -17.3212   20.6834 C   0  0  0  0  0  0
  -28.0702  -25.0096   20.7150 C   0  0  0  0  0  0
  -29.3452  -20.0544   20.3297 C   0  0  2  0  0  0
  -26.1094  -20.5727   18.6180 N   0  0  0  0  0  0
  -27.2105  -20.1396   19.2262 N   0  0  0  0  0  0
  -29.8334  -15.8409   20.6884 N   0  0  0  0  0  0
  -31.4748  -12.5679   19.1695 H   0  0  0  0  0  0
  -30.3754  -11.4615   19.9456 H   0  0  0  0  0  0
  -29.7927  -11.7433   17.5103 H   0  0  0  0  0  0
  -29.6425  -13.4689   17.7291 H   0  0  0  0  0  0
  -27.8846  -11.2892   18.8997 H   0  0  0  0  0  0
  -27.3810  -12.5412   17.7956 H   0  0  0  0  0  0
  -27.6424  -14.2554   19.4810 H   0  0  0  0  0  0
  -28.7178  -12.1510   21.4228 H   0  0  0  0  0  0
  -28.4269  -13.8290   21.8017 H   0  0  0  0  0  0
  -25.2769   -9.5689   22.4754 H   0  0  0  0  0  0
  -24.0016   -7.4636   22.7465 H   0  0  0  0  0  0
  -21.0852   -8.8784   19.8956 H   0  0  0  0  0  0
  -22.3711  -10.9677   19.6163 H   0  0  0  0  0  0
  -21.2016   -7.6147   23.9726 H   0  0  0  0  0  0
  -21.1477   -6.0510   25.9076 H   0  0  0  0  0  0
  -22.0604   -2.7613   23.2835 H   0  0  0  0  0  0
  -22.4093  -11.9882   22.4819 H   0  0  0  0  0  0
  -21.1091  -13.1244   22.2626 H   0  0  0  0  0  0
  -24.6516  -15.8455   20.5097 H   0  0  0  0  0  0
  -26.2629  -15.6307   20.0576 H   0  0  0  0  0  0
  -26.7196  -32.5434   23.1092 H   0  0  0  0  0  0
  -25.0096  -33.9708   25.0435 H   0  0  0  0  0  0
  -22.7216  -31.2999   21.3992 H   0  0  0  0  0  0
  -23.3751  -35.9617   23.3302 H   0  0  0  0  0  0
  -24.3581  -36.8903   22.2055 H   0  0  0  0  0  0
  -23.7231  -37.6489   23.6656 H   0  0  0  0  0  0
  -26.1030  -31.5344   20.6053 H   0  0  0  0  0  0
  -26.8504  -30.8290   22.0070 H   0  0  0  0  0  0
  -28.1219  -28.9419   21.2086 H   0  0  0  0  0  0
  -25.9901  -25.9243   18.9865 H   0  0  0  0  0  0
  -23.9803  -27.3126   18.9911 H   0  0  0  0  0  0
  -23.7700  -30.5896   19.4049 H   0  0  0  0  0  0
  -22.7640  -29.2454   19.8548 H   0  0  0  0  0  0
  -25.1290  -36.1940   25.0828 H   0  0  0  0  0  0
  -20.9984  -28.3249   24.1409 H   0  0  0  0  0  0
  -20.5688  -26.2289   23.3612 H   0  0  0  0  0  0
  -21.6645  -26.7437   22.1199 H   0  0  0  0  0  0
  -19.6906  -25.6290   21.1247 H   0  0  0  0  0  0
  -19.6682  -27.3196   20.6756 H   0  0  0  0  0  0
  -17.4205  -26.6682   21.4030 H   0  0  0  0  0  0
  -18.0321  -26.0064   22.9027 H   0  0  0  0  0  0
  -19.7934  -30.7277   24.2260 H   0  0  0  0  0  0
  -17.5005  -31.6262   24.5158 H   0  0  0  0  0  0
  -15.5347  -30.2967   23.7647 H   0  0  0  0  0  0
  -15.8684  -28.0802   22.7067 H   0  0  0  0  0  0
  -24.5911  -30.7057   25.7756 H   0  0  0  0  0  0
  -24.8893  -32.2884   26.4843 H   0  0  0  0  0  0
  -25.8034  -30.8910   27.0224 H   0  0  0  0  0  0
  -26.2931  -29.6745   24.1209 H   0  0  0  0  0  0
  -27.4035  -29.7264   25.4704 H   0  0  0  0  0  0
  -27.8805  -30.4282   23.9428 H   0  0  0  0  0  0
  -27.2691  -33.3623   26.2054 H   0  0  0  0  0  0
  -28.3882  -32.6847   25.0317 H   0  0  0  0  0  0
  -28.0723  -31.8438   26.5415 H   0  0  0  0  0  0
  -28.2601  -38.0097   24.7514 H   0  0  0  0  0  0
  -28.1072  -36.2631   24.6295 H   0  0  0  0  0  0
  -27.2301  -37.1455   25.8872 H   0  0  0  0  0  0
  -20.9394  -29.8759   21.6888 H   0  0  0  0  0  0
  -26.0176  -38.2854   24.1397 H   0  0  0  0  0  0
  -26.5846  -23.8808   18.8600 H   0  0  0  0  0  0
  -24.4420  -23.3789   17.9066 H   0  0  0  0  0  0
  -23.7779  -21.7625   18.1452 H   0  0  0  0  0  0
  -24.7396  -22.1189   16.7047 H   0  0  0  0  0  0
  -30.8477  -21.4798   19.6494 H   0  0  0  0  0  0
  -30.5584  -20.1605   18.5208 H   0  0  0  0  0  0
  -31.4936  -19.8839   19.9909 H   0  0  0  0  0  0
  -29.5259  -23.8925   19.4422 H   0  0  0  0  0  0
  -29.4373  -23.2732   21.0572 H   0  0  0  0  0  0
  -28.2261  -18.2204   20.8976 H   0  0  0  0  0  0
  -28.8176  -18.1673   19.2686 H   0  0  0  0  0  0
  -30.5974  -17.5549   21.6794 H   0  0  0  0  0  0
  -31.0730  -17.4384   20.0134 H   0  0  0  0  0  0
  -28.3698  -25.1348   21.7559 H   0  0  0  0  0  0
  -27.0031  -24.8178   20.8210 H   0  0  0  0  0  0
  -29.4833  -20.3366   21.3738 H   0  0  0  0  0  0
  -28.8650  -15.6419   20.8903 H   0  0  0  0  0  0
  1 25  1  0  0  0
  1 30  2  0  0  0
  1 84  1  0  0  0
  2  3  1  0  0  0
  2 25  1  0  0  0
  2 85  1  0  0  0
  2 86  1  0  0  0
  3  4  1  0  0  0
  3 87  1  0  0  0
  3 88  1  0  0  0
  4  5  1  0  0  0
  4 89  1  0  0  0
  4 90  1  0  0  0
  5  6  1  0  0  0
  5 26  1  0  0  0
  5 91  1  0  0  0
  6 25  1  0  0  0
  6 92  1  0  0  0
  6 93  1  0  0  0
  7  8  2  0  0  0
  7 26  1  0  0  0
  7 29  1  0  0  0
  8  9  1  0  0  0
  8 22  1  0  0  0
  9 10  1  0  0  0
  9 27  2  0  0  0
 10 11  2  0  0  0
 10 15  1  0  0  0
 11 12  1  0  0  0
 11 94  1  0  0  0
 12 13  2  0  0  0
 12 95  1  0  0  0
 13 14  1  0  0  0
 13 31  1  0  0  0
 14 15  2  0  0  0
 14 96  1  0  0  0
 15 97  1  0  0  0
 16 17  2  0  0  0
 16 21  1  0  0  0
 16 31  1  0  0  0
 17 18  1  0  0  0
 17 98  1  0  0  0
 18 19  2  0  0  0
 18 99  1  0  0  0
 19 20  1  0  0  0
 19 24  1  0  0  0
 20 21  2  0  0  0
 20100  1  0  0  0
 21 23  1  0  0  0
 22 28  1  0  0  0
 22 32  2  0  0  0
 26 27  1  0  0  0
 28101  1  0  0  0
 28102  1  0  0  0
 29103  1  0  0  0
 29104  1  0  0  0
 33 34  1  0  0  0
 33 66  1  0  0  0
 33 70  2  0  0  0
 34 36  1  0  0  0
 34 59  1  0  0  0
 34105  1  0  0  0
 35 44  2  0  0  0
 35 45  1  0  0  0
 35 68  1  0  0  0
 36 56  1  0  0  0
 36106  1  0  0  0
 37 39  1  0  0  0
 37 47  1  0  0  0
 37 66  1  0  0  0
 37107  1  0  0  0
 38 43  2  0  0  0
 38 46  1  0  0  0
 38 47  1  0  0  0
 39 64  1  0  0  0
 39 67  2  0  0  0
 40 52  1  0  0  0
 40 53  2  0  0  0
 40 58  1  0  0  0
 41108  1  0  0  0
 41109  1  0  0  0
 41110  1  0  0  0
 41 48  1  0  0  0
 42 43  1  0  0  0
 42 66  1  0  0  0
 42111  1  0  0  0
 42112  1  0  0  0
 43 44  1  0  0  0
 44113  1  0  0  0
 45 46  2  0  0  0
 45114  1  0  0  0
 46115  1  0  0  0
 47116  1  0  0  0
 47117  1  0  0  0
 48 56  1  0  0  0
 48 65  1  0  0  0
 48118  1  0  0  0
 49 50  1  0  0  0
 49 53  1  0  0  0
 49 64  1  0  0  0
 49119  1  0  0  0
 50 51  1  0  0  0
 50120  1  0  0  0
 50121  1  0  0  0
 51 52  1  0  0  0
 51122  1  0  0  0
 51123  1  0  0  0
 52124  1  0  0  0
 52125  1  0  0  0
 53 54  1  0  0  0
 54 55  2  0  0  0
 54126  1  0  0  0
 55 57  1  0  0  0
 55127  1  0  0  0
 56 69  2  0  0  0
 57 58  2  0  0  0
 57128  1  0  0  0
 58129  1  0  0  0
 59 60  1  0  0  0
 59 61  1  0  0  0
 59 62  1  0  0  0
 60130  1  0  0  0
 60131  1  0  0  0
 60132  1  0  0  0
 61133  1  0  0  0
 61134  1  0  0  0
 61135  1  0  0  0
 62136  1  0  0  0
 62137  1  0  0  0
 62138  1  0  0  0
 63 65  1  0  0  0
 63139  1  0  0  0
 63140  1  0  0  0
 63141  1  0  0  0
 64142  1  0  0  0
 65143  1  0  0  0
 68 80  1  0  0  0
 71 72  2  0  0  0
 71 73  1  0  0  0
 71144  1  0  0  0
 72 74  1  0  0  0
 72 77  1  0  0  0
 73 75  1  0  0  0
 73 82  2  0  0  0
 74 81  1  0  0  0
 74 83  2  0  0  0
 75145  1  0  0  0
 75146  1  0  0  0
 75147  1  0  0  0
 76148  1  0  0  0
 76149  1  0  0  0
 76150  1  0  0  0
 76 81  1  0  0  0
 77 80  1  0  0  0
 77151  1  0  0  0
 77152  1  0  0  0
 78 79  1  0  0  0
 78 81  1  0  0  0
 78153  1  0  0  0
 78154  1  0  0  0
 79 84  1  0  0  0
 79155  1  0  0  0
 79156  1  0  0  0
 80157  1  0  0  0
 80158  1  0  0  0
 81159  1  0  0  0
 82 83  1  0  0  0
 84160  1  0  0  0
M  ISO  4   1 100  68 101  80 101  84 100
M  END
> <chiral flag>
0

> <version>
0

> <s_m_source_file>
/data/baiqing/PycharmProjects/Reinvent-master-3.2/result/LINK_invent/BTK/process_docking_weight1_custom_sum_contain_oxygen_bond_distance_aromatic_linkinvent_7_9_3/rearranged_h_0086.sdf

> <i_m_source_file_index>
73

> <r_mmod_Potential_Energy-OPLS-2005>
200.432830810547

> <r_mmod_Stretch_Energy-OPLS-2005>
133.356994628906

> <r_mmod_Bend_Energy-OPLS-2005>
198.295455932617

> <r_mmod_Torsional_Energy-OPLS-2005>
241.569808959961

> <r_mmod_Improper_Torsional_Energy-OPLS-2005>
4.75261259078979

> <r_mmod_Van_der_Waal_Energy-OPLS-2005>
144.248458862305

> <r_mmod_Electrostatic_Energy-OPLS-2005>
-368.468719482422

> <r_mmod_Solvation_Energy-OPLS-2005>
-229.276580810547

> <b_mmod_Minimization_Converged-OPLS-2005>
0

> <r_mmod_RMS_Derivative-OPLS-2005>
1.02909696102142

$$$$
74
                    3D
 Structure written by MMmdl.
167175  0  0  1  0            999 V2000
  -30.6236  -14.7317   20.4339 C   0  0  0  0  0  0
  -30.4278  -12.4433   19.4587 C   0  0  0  0  0  0
  -29.5006  -12.4921   18.2252 C   0  0  0  0  0  0
  -28.0289  -12.3213   18.6476 C   0  0  0  0  0  0
  -27.6391  -13.2301   19.8435 C   0  0  2  0  0  0
  -28.6885  -13.1743   20.9744 C   0  0  0  0  0  0
  -25.2515  -13.8199   20.5698 C   0  0  0  0  0  0
  -24.1805  -13.0443   20.9219 C   0  0  0  0  0  0
  -24.6391  -11.6919   20.8773 C   0  0  0  0  0  0
  -23.9071  -10.4293   21.0420 C   0  0  0  0  0  0
  -24.3622   -9.4205   21.9195 C   0  0  0  0  0  0
  -23.6298   -8.2236   22.0754 C   0  0  0  0  0  0
  -22.4280   -8.0282   21.3538 C   0  0  0  0  0  0
  -21.9920   -9.0257   20.4645 C   0  0  0  0  0  0
  -22.7247  -10.2133   20.3063 C   0  0  0  0  0  0
  -21.6852   -6.0739   22.5278 C   0  0  0  0  0  0
  -21.4011   -6.5643   23.8212 C   0  0  0  0  0  0
  -21.3659   -5.6797   24.9180 C   0  0  0  0  0  0
  -21.6040   -4.3056   24.7230 C   0  0  0  0  0  0
  -21.8823   -3.8151   23.4351 C   0  0  0  0  0  0
  -21.9192   -4.6968   22.3406 C   0  0  0  0  0  0
  -22.7825  -13.5222   21.1886 C   0  0  0  0  0  0
  -22.1663   -4.2152   21.0984 F   0  0  0  0  0  0
  -21.5630   -3.4544   25.7744 F   0  0  0  0  0  0
  -29.9881  -13.5133   20.3810 N   0  0  0  0  0  0
  -26.2934  -12.9402   20.3281 N   0  0  0  0  0  0
  -25.9316  -11.6546   20.5765 N   0  0  0  0  0  0
  -22.0481  -12.8194   22.0437 N   0  0  0  0  0  0
  -25.4211  -15.1922   20.4098 N   0  0  0  0  0  0
  -31.8229  -14.8154   20.1619 O   0  0  0  0  0  0
  -21.6636   -6.8881   21.4234 O   0  0  0  0  0  0
  -22.3504  -14.5530   20.6742 O   0  0  0  0  0  0
  -24.6325  -31.8561   23.1996 C   0  0  0  0  0  0
  -25.9153  -32.4750   23.8339 C   0  0  1  0  0  0
  -27.2199  -27.2687   20.1064 C   0  0  0  0  0  0
  -25.5953  -33.8554   24.2261 N   0  0  0  0  0  0
  -23.4276  -30.4787   21.5441 C   0  0  2  0  0  0
  -24.8738  -28.9311   20.1091 C   0  0  0  0  0  0
  -22.7507  -29.4595   22.4918 C   0  0  0  0  0  0
  -18.0294  -28.1374   22.8454 C   0  0  0  0  0  0
  -24.1499  -36.7288   23.2632 C   0  0  0  0  0  0
  -25.9759  -30.7674   21.3820 C   0  0  0  0  0  0
  -26.0484  -29.3936   20.7163 C   0  0  0  0  0  0
  -27.2251  -28.5756   20.7021 C   0  0  0  0  0  0
  -26.0170  -26.8748   19.4769 C   0  0  0  0  0  0
  -24.8631  -27.6794   19.4796 C   0  0  0  0  0  0
  -23.6459  -29.8173   20.1592 C   0  0  0  0  0  0
  -25.4128  -36.3068   24.0316 C   0  0  1  0  0  0
  -20.5899  -28.3694   23.1256 C   0  0  2  0  0  0
  -20.6790  -26.9411   22.5396 C   0  0  0  0  0  0
  -19.5771  -26.6373   21.5195 C   0  0  0  0  0  0
  -18.1944  -26.7912   22.1596 C   0  0  0  0  0  0
  -19.1544  -28.8847   23.2845 C   0  0  0  0  0  0
  -18.9471  -30.1448   23.8874 C   0  0  0  0  0  0
  -17.6469  -30.6574   24.0553 C   0  0  0  0  0  0
  -25.9070  -34.9437   23.5086 C   0  0  0  0  0  0
  -16.5362  -29.9067   23.6331 C   0  0  0  0  0  0
  -16.7277  -28.6489   23.0334 C   0  0  0  0  0  0
  -26.4516  -31.6571   25.0729 C   0  0  0  0  0  0
  -25.3733  -31.3711   26.1445 C   0  0  0  0  0  0
  -27.0367  -30.2992   24.6219 C   0  0  0  0  0  0
  -27.6073  -32.4320   25.7493 C   0  0  0  0  0  0
  -27.5581  -37.1793   24.8457 C   0  0  0  0  0  0
  -21.4211  -29.3041   22.3656 N   0  0  0  0  0  0
  -26.4298  -37.3770   23.9396 N   0  0  0  0  0  0
  -24.6975  -31.0512   22.0982 N   0  0  0  0  0  0
  -23.4206  -28.8122   23.3011 O   0  0  0  0  0  0
  -28.3181  -26.3757   20.1493 O   0  0  0  0  0  0
  -26.5627  -34.8905   22.4651 O   0  0  0  0  0  0
  -23.5476  -32.1384   23.7295 O   0  0  0  0  0  0
  -28.2868  -21.8018   22.3015 C   0  0  0  0  0  0
  -28.0149  -21.0769   23.4649 C   0  0  0  0  0  0
  -28.8008  -21.1773   21.1390 C   0  0  0  0  0  0
  -28.2571  -19.7042   23.4643 C   0  0  0  0  0  0
  -29.0192  -19.7137   21.2310 C   0  0  0  0  0  0
  -29.2421  -18.3142   25.3418 C   0  0  0  0  0  0
  -26.9681  -17.7211   24.3574 C   0  0  0  0  0  0
  -29.7801  -19.1345   18.8113 C   0  0  0  0  0  0
  -28.9723  -22.1972   19.9406 C   0  0  0  0  0  0
  -29.2018  -23.7950   20.2266 C   0  0  0  0  0  0
  -30.3139  -17.3395   20.6287 C   0  0  0  0  0  0
  -28.0688  -24.9056   19.9444 C   0  0  0  0  0  0
  -27.9589  -18.8487   24.6891 C   0  0  0  0  0  0
  -29.3369  -18.5699   20.1682 C   0  0  1  0  0  0
  -28.7405  -19.0688   22.3858 N   0  0  0  0  0  0
  -29.8585  -15.8768   20.5757 N   0  0  0  0  0  0
  -31.4681  -12.5614   19.1521 H   0  0  0  0  0  0
  -30.3677  -11.4703   19.9489 H   0  0  0  0  0  0
  -29.7754  -11.7118   17.5143 H   0  0  0  0  0  0
  -29.6246  -13.4414   17.7021 H   0  0  0  0  0  0
  -27.8880  -11.2745   18.9205 H   0  0  0  0  0  0
  -27.3661  -12.5037   17.8003 H   0  0  0  0  0  0
  -27.6293  -14.2482   19.4531 H   0  0  0  0  0  0
  -28.7216  -12.1830   21.4292 H   0  0  0  0  0  0
  -28.4322  -13.8704   21.7741 H   0  0  0  0  0  0
  -25.2766   -9.5678   22.4773 H   0  0  0  0  0  0
  -24.0013   -7.4626   22.7467 H   0  0  0  0  0  0
  -21.0857   -8.8775   19.8947 H   0  0  0  0  0  0
  -22.3715  -10.9675   19.6175 H   0  0  0  0  0  0
  -21.1997   -7.6150   23.9716 H   0  0  0  0  0  0
  -21.1477   -6.0529   25.9081 H   0  0  0  0  0  0
  -22.0600   -2.7611   23.2853 H   0  0  0  0  0  0
  -22.4107  -11.9846   22.4801 H   0  0  0  0  0  0
  -21.1093  -13.1196   22.2661 H   0  0  0  0  0  0
  -24.6545  -15.8469   20.5224 H   0  0  0  0  0  0
  -26.2687  -15.6296   20.0739 H   0  0  0  0  0  0
  -26.7205  -32.5408   23.1070 H   0  0  0  0  0  0
  -25.0150  -33.9711   25.0432 H   0  0  0  0  0  0
  -22.7240  -31.3007   21.3984 H   0  0  0  0  0  0
  -23.3767  -35.9612   23.3298 H   0  0  0  0  0  0
  -24.3600  -36.8931   22.2047 H   0  0  0  0  0  0
  -23.7256  -37.6483   23.6676 H   0  0  0  0  0  0
  -26.1182  -31.5316   20.6172 H   0  0  0  0  0  0
  -26.8511  -30.8095   22.0182 H   0  0  0  0  0  0
  -28.1254  -28.9230   21.1875 H   0  0  0  0  0  0
  -25.9282  -25.9208   18.9803 H   0  0  0  0  0  0
  -23.9640  -27.3215   18.9961 H   0  0  0  0  0  0
  -23.7752  -30.5962   19.4075 H   0  0  0  0  0  0
  -22.7631  -29.2558   19.8481 H   0  0  0  0  0  0
  -25.1307  -36.1913   25.0806 H   0  0  0  0  0  0
  -20.9971  -28.3276   24.1384 H   0  0  0  0  0  0
  -20.5711  -26.2295   23.3598 H   0  0  0  0  0  0
  -21.6660  -26.7454   22.1182 H   0  0  0  0  0  0
  -19.6958  -25.6282   21.1237 H   0  0  0  0  0  0
  -19.6723  -27.3170   20.6714 H   0  0  0  0  0  0
  -17.4221  -26.6652   21.3994 H   0  0  0  0  0  0
  -18.0356  -26.0042   22.8984 H   0  0  0  0  0  0
  -19.7951  -30.7250   24.2251 H   0  0  0  0  0  0
  -17.5029  -31.6255   24.5147 H   0  0  0  0  0  0
  -15.5362  -30.2955   23.7675 H   0  0  0  0  0  0
  -15.8679  -28.0810   22.7051 H   0  0  0  0  0  0
  -24.5935  -30.7029   25.7767 H   0  0  0  0  0  0
  -24.8887  -32.2864   26.4849 H   0  0  0  0  0  0
  -25.8051  -30.8904   27.0235 H   0  0  0  0  0  0
  -26.2949  -29.6715   24.1267 H   0  0  0  0  0  0
  -27.4069  -29.7275   25.4741 H   0  0  0  0  0  0
  -27.8814  -30.4263   23.9450 H   0  0  0  0  0  0
  -27.2704  -33.3658   26.2018 H   0  0  0  0  0  0
  -28.3899  -32.6840   25.0314 H   0  0  0  0  0  0
  -28.0719  -31.8479   26.5443 H   0  0  0  0  0  0
  -28.2573  -38.0107   24.7530 H   0  0  0  0  0  0
  -28.1107  -36.2647   24.6269 H   0  0  0  0  0  0
  -27.2309  -37.1426   25.8860 H   0  0  0  0  0  0
  -20.9422  -29.8768   21.6852 H   0  0  0  0  0  0
  -26.0180  -38.2839   24.1409 H   0  0  0  0  0  0
  -28.0548  -22.8559   22.3154 H   0  0  0  0  0  0
  -27.6098  -21.5725   24.3369 H   0  0  0  0  0  0
  -29.9125  -19.1301   25.6125 H   0  0  0  0  0  0
  -29.7819  -17.6494   24.6662 H   0  0  0  0  0  0
  -29.0158  -17.7550   26.2500 H   0  0  0  0  0  0
  -26.0590  -18.1226   23.9095 H   0  0  0  0  0  0
  -26.6853  -17.1650   25.2517 H   0  0  0  0  0  0
  -27.4002  -17.0137   23.6497 H   0  0  0  0  0  0
  -29.0125  -19.7812   18.3868 H   0  0  0  0  0  0
  -29.9575  -18.3348   18.0913 H   0  0  0  0  0  0
  -30.7012  -19.7088   18.9062 H   0  0  0  0  0  0
  -28.1197  -22.0756   19.2714 H   0  0  0  0  0  0
  -29.8338  -21.8547   19.3696 H   0  0  0  0  0  0
  -30.0233  -24.0841   19.5704 H   0  0  0  0  0  0
  -29.6231  -23.9473   21.2192 H   0  0  0  0  0  0
  -30.6480  -17.5147   21.6510 H   0  0  0  0  0  0
  -31.2353  -17.4140   20.0488 H   0  0  0  0  0  0
  -27.1995  -24.6312   20.5443 H   0  0  0  0  0  0
  -27.7743  -24.7730   18.9029 H   0  0  0  0  0  0
  -27.4717  -19.4941   25.4221 H   0  0  0  0  0  0
  -28.3635  -18.1126   19.9833 H   0  0  0  0  0  0
  -28.8737  -15.7209   20.7268 H   0  0  0  0  0  0
  1 25  1  0  0  0
  1 30  2  0  0  0
  1 86  1  0  0  0
  2  3  1  0  0  0
  2 25  1  0  0  0
  2 87  1  0  0  0
  2 88  1  0  0  0
  3  4  1  0  0  0
  3 89  1  0  0  0
  3 90  1  0  0  0
  4  5  1  0  0  0
  4 91  1  0  0  0
  4 92  1  0  0  0
  5  6  1  0  0  0
  5 26  1  0  0  0
  5 93  1  0  0  0
  6 25  1  0  0  0
  6 94  1  0  0  0
  6 95  1  0  0  0
  7  8  2  0  0  0
  7 26  1  0  0  0
  7 29  1  0  0  0
  8  9  1  0  0  0
  8 22  1  0  0  0
  9 10  1  0  0  0
  9 27  2  0  0  0
 10 11  2  0  0  0
 10 15  1  0  0  0
 11 12  1  0  0  0
 11 96  1  0  0  0
 12 13  2  0  0  0
 12 97  1  0  0  0
 13 14  1  0  0  0
 13 31  1  0  0  0
 14 15  2  0  0  0
 14 98  1  0  0  0
 15 99  1  0  0  0
 16 17  2  0  0  0
 16 21  1  0  0  0
 16 31  1  0  0  0
 17 18  1  0  0  0
 17100  1  0  0  0
 18 19  2  0  0  0
 18101  1  0  0  0
 19 20  1  0  0  0
 19 24  1  0  0  0
 20 21  2  0  0  0
 20102  1  0  0  0
 21 23  1  0  0  0
 22 28  1  0  0  0
 22 32  2  0  0  0
 26 27  1  0  0  0
 28103  1  0  0  0
 28104  1  0  0  0
 29105  1  0  0  0
 29106  1  0  0  0
 33 34  1  0  0  0
 33 66  1  0  0  0
 33 70  2  0  0  0
 34 36  1  0  0  0
 34 59  1  0  0  0
 34107  1  0  0  0
 35 44  2  0  0  0
 35 45  1  0  0  0
 35 68  1  0  0  0
 36 56  1  0  0  0
 36108  1  0  0  0
 37 39  1  0  0  0
 37 47  1  0  0  0
 37 66  1  0  0  0
 37109  1  0  0  0
 38 43  2  0  0  0
 38 46  1  0  0  0
 38 47  1  0  0  0
 39 64  1  0  0  0
 39 67  2  0  0  0
 40 52  1  0  0  0
 40 53  2  0  0  0
 40 58  1  0  0  0
 41110  1  0  0  0
 41111  1  0  0  0
 41112  1  0  0  0
 41 48  1  0  0  0
 42 43  1  0  0  0
 42 66  1  0  0  0
 42113  1  0  0  0
 42114  1  0  0  0
 43 44  1  0  0  0
 44115  1  0  0  0
 45 46  2  0  0  0
 45116  1  0  0  0
 46117  1  0  0  0
 47118  1  0  0  0
 47119  1  0  0  0
 48 56  1  0  0  0
 48 65  1  0  0  0
 48120  1  0  0  0
 49 50  1  0  0  0
 49 53  1  0  0  0
 49 64  1  0  0  0
 49121  1  0  0  0
 50 51  1  0  0  0
 50122  1  0  0  0
 50123  1  0  0  0
 51 52  1  0  0  0
 51124  1  0  0  0
 51125  1  0  0  0
 52126  1  0  0  0
 52127  1  0  0  0
 53 54  1  0  0  0
 54 55  2  0  0  0
 54128  1  0  0  0
 55 57  1  0  0  0
 55129  1  0  0  0
 56 69  2  0  0  0
 57 58  2  0  0  0
 57130  1  0  0  0
 58131  1  0  0  0
 59 60  1  0  0  0
 59 61  1  0  0  0
 59 62  1  0  0  0
 60132  1  0  0  0
 60133  1  0  0  0
 60134  1  0  0  0
 61135  1  0  0  0
 61136  1  0  0  0
 61137  1  0  0  0
 62138  1  0  0  0
 62139  1  0  0  0
 62140  1  0  0  0
 63 65  1  0  0  0
 63141  1  0  0  0
 63142  1  0  0  0
 63143  1  0  0  0
 64144  1  0  0  0
 65145  1  0  0  0
 68 82  1  0  0  0
 71 72  2  0  0  0
 71 73  1  0  0  0
 71146  1  0  0  0
 72 74  1  0  0  0
 72147  1  0  0  0
 73 75  2  0  0  0
 73 79  1  0  0  0
 74 83  1  0  0  0
 74 85  2  0  0  0
 75 84  1  0  0  0
 75 85  1  0  0  0
 76148  1  0  0  0
 76149  1  0  0  0
 76150  1  0  0  0
 76 83  1  0  0  0
 77 83  1  0  0  0
 77151  1  0  0  0
 77152  1  0  0  0
 77153  1  0  0  0
 78154  1  0  0  0
 78155  1  0  0  0
 78156  1  0  0  0
 78 84  1  0  0  0
 79 80  1  0  0  0
 79157  1  0  0  0
 79158  1  0  0  0
 80 82  1  0  0  0
 80159  1  0  0  0
 80160  1  0  0  0
 81 84  1  0  0  0
 81 86  1  0  0  0
 81161  1  0  0  0
 81162  1  0  0  0
 82163  1  0  0  0
 82164  1  0  0  0
 83165  1  0  0  0
 84166  1  0  0  0
 86167  1  0  0  0
M  ISO  4   1 100  68 101  82 101  86 100
M  END
> <chiral flag>
0

> <version>
0

> <s_m_source_file>
/data/baiqing/PycharmProjects/Reinvent-master-3.2/result/LINK_invent/BTK/process_docking_weight1_custom_sum_contain_oxygen_bond_distance_aromatic_linkinvent_7_9_3/rearranged_h_0086.sdf

> <i_m_source_file_index>
74

> <r_mmod_Potential_Energy-OPLS-2005>
39.6607971191406

> <r_mmod_Stretch_Energy-OPLS-2005>
134.892562866211

> <r_mmod_Bend_Energy-OPLS-2005>
207.180892944336

> <r_mmod_Torsional_Energy-OPLS-2005>
224.684173583984

> <r_mmod_Improper_Torsional_Energy-OPLS-2005>
5.54101133346558

> <r_mmod_Van_der_Waal_Energy-OPLS-2005>
144.430587768555

> <r_mmod_Electrostatic_Energy-OPLS-2005>
-550.877319335938

> <r_mmod_Solvation_Energy-OPLS-2005>
-208.711441040039

> <b_mmod_Minimization_Converged-OPLS-2005>
0

> <r_mmod_RMS_Derivative-OPLS-2005>
1.98070907592773

$$$$
75
                    3D
 Structure written by MMmdl.
175183  0  0  1  0            999 V2000
  -30.6496  -14.7140   20.4317 C   0  0  0  0  0  0
  -30.4299  -12.4313   19.4634 C   0  0  0  0  0  0
  -29.5064  -12.4906   18.2269 C   0  0  0  0  0  0
  -28.0324  -12.3276   18.6452 C   0  0  0  0  0  0
  -27.6427  -13.2325   19.8456 C   0  0  2  0  0  0
  -28.6932  -13.1762   20.9772 C   0  0  0  0  0  0
  -25.2533  -13.8194   20.5687 C   0  0  0  0  0  0
  -24.1809  -13.0447   20.9192 C   0  0  0  0  0  0
  -24.6398  -11.6919   20.8740 C   0  0  0  0  0  0
  -23.9059  -10.4306   21.0415 C   0  0  0  0  0  0
  -24.3612   -9.4216   21.9187 C   0  0  0  0  0  0
  -23.6298   -8.2238   22.0750 C   0  0  0  0  0  0
  -22.4279   -8.0282   21.3547 C   0  0  0  0  0  0
  -21.9911   -9.0250   20.4645 C   0  0  0  0  0  0
  -22.7234  -10.2130   20.3064 C   0  0  0  0  0  0
  -21.6857   -6.0727   22.5274 C   0  0  0  0  0  0
  -21.4005   -6.5626   23.8201 C   0  0  0  0  0  0
  -21.3651   -5.6793   24.9173 C   0  0  0  0  0  0
  -21.6045   -4.3054   24.7228 C   0  0  0  0  0  0
  -21.8825   -3.8143   23.4354 C   0  0  0  0  0  0
  -21.9198   -4.6956   22.3410 C   0  0  0  0  0  0
  -22.7832  -13.5240   21.1875 C   0  0  0  0  0  0
  -22.1674   -4.2135   21.0994 F   0  0  0  0  0  0
  -21.5627   -3.4547   25.7744 F   0  0  0  0  0  0
  -29.9945  -13.5055   20.3823 N   0  0  0  0  0  0
  -26.2962  -12.9404   20.3295 N   0  0  0  0  0  0
  -25.9336  -11.6539   20.5758 N   0  0  0  0  0  0
  -22.0499  -12.8215   22.0425 N   0  0  0  0  0  0
  -25.4241  -15.1917   20.4091 N   0  0  0  0  0  0
  -31.8480  -14.7780   20.1515 O   0  0  0  0  0  0
  -21.6647   -6.8874   21.4237 O   0  0  0  0  0  0
  -22.3512  -14.5552   20.6738 O   0  0  0  0  0  0
  -24.6313  -31.8516   23.2009 C   0  0  0  0  0  0
  -25.9137  -32.4741   23.8347 C   0  0  1  0  0  0
  -27.2144  -27.2565   20.1083 C   0  0  0  0  0  0
  -25.5961  -33.8560   24.2254 N   0  0  0  0  0  0
  -23.4275  -30.4809   21.5385 C   0  0  2  0  0  0
  -24.8739  -28.9352   20.1015 C   0  0  0  0  0  0
  -22.7512  -29.4577   22.4841 C   0  0  0  0  0  0
  -18.0282  -28.1371   22.8418 C   0  0  0  0  0  0
  -24.1504  -36.7310   23.2648 C   0  0  0  0  0  0
  -25.9757  -30.7663   21.3815 C   0  0  0  0  0  0
  -26.0448  -29.3901   20.7182 C   0  0  0  0  0  0
  -27.2137  -28.5582   20.7194 C   0  0  0  0  0  0
  -26.0230  -26.8870   19.4445 C   0  0  0  0  0  0
  -24.8701  -27.6924   19.4546 C   0  0  0  0  0  0
  -23.6490  -29.8275   20.1506 C   0  0  0  0  0  0
  -25.4118  -36.3063   24.0327 C   0  0  1  0  0  0
  -20.5887  -28.3679   23.1232 C   0  0  2  0  0  0
  -20.6791  -26.9398   22.5377 C   0  0  0  0  0  0
  -19.5784  -26.6336   21.5184 C   0  0  0  0  0  0
  -18.1941  -26.7900   22.1578 C   0  0  0  0  0  0
  -19.1541  -28.8833   23.2830 C   0  0  0  0  0  0
  -18.9482  -30.1415   23.8866 C   0  0  0  0  0  0
  -17.6488  -30.6555   24.0537 C   0  0  0  0  0  0
  -25.9048  -34.9432   23.5072 C   0  0  0  0  0  0
  -16.5368  -29.9041   23.6332 C   0  0  0  0  0  0
  -16.7277  -28.6490   23.0294 C   0  0  0  0  0  0
  -26.4498  -31.6583   25.0737 C   0  0  0  0  0  0
  -25.3734  -31.3727   26.1473 C   0  0  0  0  0  0
  -27.0356  -30.3004   24.6229 C   0  0  0  0  0  0
  -27.6060  -32.4336   25.7503 C   0  0  0  0  0  0
  -27.5575  -37.1801   24.8454 C   0  0  0  0  0  0
  -21.4220  -29.3044   22.3649 N   0  0  0  0  0  0
  -26.4276  -37.3774   23.9416 N   0  0  0  0  0  0
  -24.6971  -31.0490   22.0974 N   0  0  0  0  0  0
  -23.4225  -28.8074   23.2914 O   0  0  0  0  0  0
  -28.3212  -26.3697   20.1887 O   0  0  0  0  0  0
  -26.5612  -34.8891   22.4628 O   0  0  0  0  0  0
  -23.5468  -32.1349   23.7284 O   0  0  0  0  0  0
  -27.3219  -21.2181   21.8667 C   0  0  0  0  0  0
  -28.3699  -20.9205   20.9527 C   0  0  0  0  0  0
  -26.8482  -20.2365   22.7596 C   0  0  0  0  0  0
  -28.7943  -19.4970   20.9747 C   0  0  0  0  0  0
  -30.3058  -19.3384   18.8596 C   0  0  0  0  0  0
  -23.7405  -19.4760   25.9441 C   0  0  0  0  0  0
  -22.3811  -18.3398   24.1813 C   0  0  0  0  0  0
  -22.5179  -20.8261   24.2101 C   0  0  0  0  0  0
  -28.7791  -22.1543   20.0276 C   0  0  0  0  0  0
  -25.6783  -20.4771   23.7079 C   0  0  0  0  0  0
  -28.7606  -23.6925   20.6110 C   0  0  0  0  0  0
  -24.5395  -19.4404   23.5132 C   0  0  0  0  0  0
  -30.4256  -17.3191   20.5059 C   0  0  0  0  0  0
  -28.2933  -24.9397   19.6964 C   0  0  0  0  0  0
  -29.5259  -18.5536   19.9295 C   0  0  1  0  0  0
  -23.3143  -19.5351   24.4638 C   0  0  0  0  0  0
  -27.4122  -19.0191   22.8328 N   0  0  0  0  0  0
  -28.3193  -18.6629   21.9341 N   0  0  0  0  0  0
  -29.9128  -15.8770   20.5688 N   0  0  0  0  0  0
  -31.4727  -12.5363   19.1572 H   0  0  0  0  0  0
  -30.3593  -11.4579   19.9523 H   0  0  0  0  0  0
  -29.7803  -11.7095   17.5157 H   0  0  0  0  0  0
  -29.6393  -13.4398   17.7047 H   0  0  0  0  0  0
  -27.8847  -11.2796   18.9114 H   0  0  0  0  0  0
  -27.3746  -12.5206   17.7973 H   0  0  0  0  0  0
  -27.6352  -14.2519   19.4582 H   0  0  0  0  0  0
  -28.7207  -12.1870   21.4384 H   0  0  0  0  0  0
  -28.4399  -13.8814   21.7715 H   0  0  0  0  0  0
  -25.2747   -9.5684   22.4759 H   0  0  0  0  0  0
  -24.0003   -7.4629   22.7464 H   0  0  0  0  0  0
  -21.0835   -8.8763   19.8956 H   0  0  0  0  0  0
  -22.3689  -10.9666   19.6168 H   0  0  0  0  0  0
  -21.1988   -7.6126   23.9697 H   0  0  0  0  0  0
  -21.1465   -6.0527   25.9074 H   0  0  0  0  0  0
  -22.0615   -2.7601   23.2869 H   0  0  0  0  0  0
  -22.4119  -11.9868   22.4786 H   0  0  0  0  0  0
  -21.1122  -13.1222   22.2668 H   0  0  0  0  0  0
  -24.6578  -15.8485   20.5149 H   0  0  0  0  0  0
  -26.2845  -15.6332   20.1123 H   0  0  0  0  0  0
  -26.7190  -32.5389   23.1081 H   0  0  0  0  0  0
  -25.0240  -33.9737   25.0490 H   0  0  0  0  0  0
  -22.7242  -31.3058   21.3942 H   0  0  0  0  0  0
  -23.3747  -35.9665   23.3274 H   0  0  0  0  0  0
  -24.3631  -36.8958   22.2076 H   0  0  0  0  0  0
  -23.7250  -37.6506   23.6688 H   0  0  0  0  0  0
  -26.1126  -31.5313   20.6143 H   0  0  0  0  0  0
  -26.8560  -30.8165   22.0103 H   0  0  0  0  0  0
  -28.1035  -28.8989   21.2289 H   0  0  0  0  0  0
  -25.9192  -25.9649   18.8988 H   0  0  0  0  0  0
  -23.9825  -27.3466   18.9432 H   0  0  0  0  0  0
  -23.7813  -30.6165   19.4056 H   0  0  0  0  0  0
  -22.7649  -29.2722   19.8338 H   0  0  0  0  0  0
  -25.1276  -36.1933   25.0818 H   0  0  0  0  0  0
  -20.9985  -28.3244   24.1358 H   0  0  0  0  0  0
  -20.5670  -26.2306   23.3589 H   0  0  0  0  0  0
  -21.6648  -26.7390   22.1183 H   0  0  0  0  0  0
  -19.6973  -25.6236   21.1253 H   0  0  0  0  0  0
  -19.6731  -27.3122   20.6701 H   0  0  0  0  0  0
  -17.4218  -26.6609   21.3977 H   0  0  0  0  0  0
  -18.0321  -26.0042   22.8985 H   0  0  0  0  0  0
  -19.7968  -30.7204   24.2244 H   0  0  0  0  0  0
  -17.5046  -31.6247   24.5114 H   0  0  0  0  0  0
  -15.5371  -30.2929   23.7683 H   0  0  0  0  0  0
  -15.8677  -28.0815   22.6997 H   0  0  0  0  0  0
  -24.5961  -30.6983   25.7809 H   0  0  0  0  0  0
  -24.8861  -32.2882   26.4830 H   0  0  0  0  0  0
  -25.8069  -30.8975   27.0277 H   0  0  0  0  0  0
  -26.2929  -29.6731   24.1259 H   0  0  0  0  0  0
  -27.4054  -29.7273   25.4745 H   0  0  0  0  0  0
  -27.8782  -30.4264   23.9430 H   0  0  0  0  0  0
  -27.2692  -33.3685   26.1982 H   0  0  0  0  0  0
  -28.3904  -32.6813   25.0339 H   0  0  0  0  0  0
  -28.0668  -31.8523   26.5486 H   0  0  0  0  0  0
  -28.2524  -38.0158   24.7509 H   0  0  0  0  0  0
  -28.1122  -36.2670   24.6232 H   0  0  0  0  0  0
  -27.2320  -37.1392   25.8867 H   0  0  0  0  0  0
  -20.9393  -29.8919   21.6996 H   0  0  0  0  0  0
  -26.0150  -38.2841   24.1430 H   0  0  0  0  0  0
  -26.8385  -22.1817   21.8731 H   0  0  0  0  0  0
  -29.6641  -20.0382   18.3271 H   0  0  0  0  0  0
  -30.7130  -18.6657   18.1032 H   0  0  0  0  0  0
  -31.1381  -19.8901   19.2953 H   0  0  0  0  0  0
  -22.8734  -19.4613   26.6057 H   0  0  0  0  0  0
  -24.3395  -20.3399   26.2323 H   0  0  0  0  0  0
  -24.3265  -18.5819   26.1607 H   0  0  0  0  0  0
  -21.4898  -18.3671   24.8101 H   0  0  0  0  0  0
  -22.8774  -17.3861   24.3665 H   0  0  0  0  0  0
  -22.0430  -18.3354   23.1438 H   0  0  0  0  0  0
  -21.6159  -20.8543   24.8228 H   0  0  0  0  0  0
  -22.1999  -20.9009   23.1691 H   0  0  0  0  0  0
  -23.0948  -21.7189   24.4473 H   0  0  0  0  0  0
  -28.1104  -22.1150   19.1672 H   0  0  0  0  0  0
  -29.7732  -21.9624   19.6244 H   0  0  0  0  0  0
  -25.2984  -21.4881   23.5534 H   0  0  0  0  0  0
  -26.0675  -20.4404   24.7244 H   0  0  0  0  0  0
  -29.7620  -23.9090   20.9844 H   0  0  0  0  0  0
  -28.1468  -23.7512   21.5037 H   0  0  0  0  0  0
  -24.9659  -18.4422   23.6261 H   0  0  0  0  0  0
  -24.1972  -19.4882   22.4779 H   0  0  0  0  0  0
  -30.8175  -17.5910   21.4878 H   0  0  0  0  0  0
  -31.3227  -17.2712   19.8865 H   0  0  0  0  0  0
  -27.3180  -24.6426   19.3294 H   0  0  0  0  0  0
  -28.9244  -24.9342   18.8077 H   0  0  0  0  0  0
  -28.7093  -18.0813   19.3789 H   0  0  0  0  0  0
  -28.9292  -15.7566   20.7537 H   0  0  0  0  0  0
  1 25  1  0  0  0
  1 30  2  0  0  0
  1 89  1  0  0  0
  2  3  1  0  0  0
  2 25  1  0  0  0
  2 90  1  0  0  0
  2 91  1  0  0  0
  3  4  1  0  0  0
  3 92  1  0  0  0
  3 93  1  0  0  0
  4  5  1  0  0  0
  4 94  1  0  0  0
  4 95  1  0  0  0
  5  6  1  0  0  0
  5 26  1  0  0  0
  5 96  1  0  0  0
  6 25  1  0  0  0
  6 97  1  0  0  0
  6 98  1  0  0  0
  7  8  2  0  0  0
  7 26  1  0  0  0
  7 29  1  0  0  0
  8  9  1  0  0  0
  8 22  1  0  0  0
  9 10  1  0  0  0
  9 27  2  0  0  0
 10 11  2  0  0  0
 10 15  1  0  0  0
 11 12  1  0  0  0
 11 99  1  0  0  0
 12 13  2  0  0  0
 12100  1  0  0  0
 13 14  1  0  0  0
 13 31  1  0  0  0
 14 15  2  0  0  0
 14101  1  0  0  0
 15102  1  0  0  0
 16 17  2  0  0  0
 16 21  1  0  0  0
 16 31  1  0  0  0
 17 18  1  0  0  0
 17103  1  0  0  0
 18 19  2  0  0  0
 18104  1  0  0  0
 19 20  1  0  0  0
 19 24  1  0  0  0
 20 21  2  0  0  0
 20105  1  0  0  0
 21 23  1  0  0  0
 22 28  1  0  0  0
 22 32  2  0  0  0
 26 27  1  0  0  0
 28106  1  0  0  0
 28107  1  0  0  0
 29108  1  0  0  0
 29109  1  0  0  0
 33 34  1  0  0  0
 33 66  1  0  0  0
 33 70  2  0  0  0
 34 36  1  0  0  0
 34 59  1  0  0  0
 34110  1  0  0  0
 35 44  2  0  0  0
 35 45  1  0  0  0
 35 68  1  0  0  0
 36 56  1  0  0  0
 36111  1  0  0  0
 37 39  1  0  0  0
 37 47  1  0  0  0
 37 66  1  0  0  0
 37112  1  0  0  0
 38 43  2  0  0  0
 38 46  1  0  0  0
 38 47  1  0  0  0
 39 64  1  0  0  0
 39 67  2  0  0  0
 40 52  1  0  0  0
 40 53  2  0  0  0
 40 58  1  0  0  0
 41113  1  0  0  0
 41114  1  0  0  0
 41115  1  0  0  0
 41 48  1  0  0  0
 42 43  1  0  0  0
 42 66  1  0  0  0
 42116  1  0  0  0
 42117  1  0  0  0
 43 44  1  0  0  0
 44118  1  0  0  0
 45 46  2  0  0  0
 45119  1  0  0  0
 46120  1  0  0  0
 47121  1  0  0  0
 47122  1  0  0  0
 48 56  1  0  0  0
 48 65  1  0  0  0
 48123  1  0  0  0
 49 50  1  0  0  0
 49 53  1  0  0  0
 49 64  1  0  0  0
 49124  1  0  0  0
 50 51  1  0  0  0
 50125  1  0  0  0
 50126  1  0  0  0
 51 52  1  0  0  0
 51127  1  0  0  0
 51128  1  0  0  0
 52129  1  0  0  0
 52130  1  0  0  0
 53 54  1  0  0  0
 54 55  2  0  0  0
 54131  1  0  0  0
 55 57  1  0  0  0
 55132  1  0  0  0
 56 69  2  0  0  0
 57 58  2  0  0  0
 57133  1  0  0  0
 58134  1  0  0  0
 59 60  1  0  0  0
 59 61  1  0  0  0
 59 62  1  0  0  0
 60135  1  0  0  0
 60136  1  0  0  0
 60137  1  0  0  0
 61138  1  0  0  0
 61139  1  0  0  0
 61140  1  0  0  0
 62141  1  0  0  0
 62142  1  0  0  0
 62143  1  0  0  0
 63 65  1  0  0  0
 63144  1  0  0  0
 63145  1  0  0  0
 63146  1  0  0  0
 64147  1  0  0  0
 65148  1  0  0  0
 68 84  1  0  0  0
 71 72  2  0  0  0
 71 73  1  0  0  0
 71149  1  0  0  0
 72 74  1  0  0  0
 72 79  1  0  0  0
 73 80  1  0  0  0
 73 87  2  0  0  0
 74 85  1  0  0  0
 74 88  2  0  0  0
 75150  1  0  0  0
 75151  1  0  0  0
 75152  1  0  0  0
 75 85  1  0  0  0
 76153  1  0  0  0
 76154  1  0  0  0
 76155  1  0  0  0
 76 86  1  0  0  0
 77 86  1  0  0  0
 77156  1  0  0  0
 77157  1  0  0  0
 77158  1  0  0  0
 78 86  1  0  0  0
 78159  1  0  0  0
 78160  1  0  0  0
 78161  1  0  0  0
 79 81  1  0  0  0
 79162  1  0  0  0
 79163  1  0  0  0
 80 82  1  0  0  0
 80164  1  0  0  0
 80165  1  0  0  0
 81 84  1  0  0  0
 81166  1  0  0  0
 81167  1  0  0  0
 82 86  1  0  0  0
 82168  1  0  0  0
 82169  1  0  0  0
 83 85  1  0  0  0
 83 89  1  0  0  0
 83170  1  0  0  0
 83171  1  0  0  0
 84172  1  0  0  0
 84173  1  0  0  0
 85174  1  0  0  0
 87 88  1  0  0  0
 89175  1  0  0  0
M  ISO  4   1 100  68 101  84 101  89 100
M  END
> <chiral flag>
0

> <version>
0

> <s_m_source_file>
/data/baiqing/PycharmProjects/Reinvent-master-3.2/result/LINK_invent/BTK/process_docking_weight1_custom_sum_contain_oxygen_bond_distance_aromatic_linkinvent_7_9_3/rearranged_h_0086.sdf

> <i_m_source_file_index>
75

> <r_mmod_Potential_Energy-OPLS-2005>
265.656341552734

> <r_mmod_Stretch_Energy-OPLS-2005>
144.389846801758

> <r_mmod_Bend_Energy-OPLS-2005>
232.398162841797

> <r_mmod_Torsional_Energy-OPLS-2005>
241.847290039062

> <r_mmod_Improper_Torsional_Energy-OPLS-2005>
6.22906255722046

> <r_mmod_Van_der_Waal_Energy-OPLS-2005>
148.817565917969

> <r_mmod_Electrostatic_Energy-OPLS-2005>
-376.577758789062

> <r_mmod_Solvation_Energy-OPLS-2005>
-213.663131713867

> <b_mmod_Minimization_Converged-OPLS-2005>
0

> <r_mmod_RMS_Derivative-OPLS-2005>
3.87809252738953

$$$$
76
                    3D
 Structure written by MMmdl.
167175  0  0  1  0            999 V2000
  -30.5374  -14.9717   20.4821 C   0  0  0  0  0  0
  -30.4436  -12.6110   19.5158 C   0  0  0  0  0  0
  -29.5297  -12.5546   18.2676 C   0  0  0  0  0  0
  -28.0613  -12.3304   18.6745 C   0  0  0  0  0  0
  -27.6353  -13.2480   19.8492 C   0  0  2  0  0  0
  -28.6715  -13.2461   20.9914 C   0  0  0  0  0  0
  -25.2445  -13.8173   20.5589 C   0  0  0  0  0  0
  -24.1771  -13.0418   20.9167 C   0  0  0  0  0  0
  -24.6398  -11.6908   20.8746 C   0  0  0  0  0  0
  -23.9077  -10.4284   21.0412 C   0  0  0  0  0  0
  -24.3625   -9.4199   21.9191 C   0  0  0  0  0  0
  -23.6293   -8.2235   22.0761 C   0  0  0  0  0  0
  -22.4274   -8.0276   21.3548 C   0  0  0  0  0  0
  -21.9913   -9.0252   20.4652 C   0  0  0  0  0  0
  -22.7247  -10.2125   20.3061 C   0  0  0  0  0  0
  -21.6849   -6.0730   22.5279 C   0  0  0  0  0  0
  -21.4014   -6.5635   23.8213 C   0  0  0  0  0  0
  -21.3664   -5.6788   24.9176 C   0  0  0  0  0  0
  -21.6045   -4.3050   24.7227 C   0  0  0  0  0  0
  -21.8820   -3.8143   23.4347 C   0  0  0  0  0  0
  -21.9192   -4.6959   22.3404 C   0  0  0  0  0  0
  -22.7802  -13.5211   21.1846 C   0  0  0  0  0  0
  -22.1662   -4.2143   21.0981 F   0  0  0  0  0  0
  -21.5629   -3.4537   25.7742 F   0  0  0  0  0  0
  -29.9510  -13.6975   20.4214 N   0  0  0  0  0  0
  -26.2911  -12.9425   20.3264 N   0  0  0  0  0  0
  -25.9344  -11.6557   20.5772 N   0  0  0  0  0  0
  -22.0451  -12.8217   22.0418 N   0  0  0  0  0  0
  -25.4054  -15.1864   20.3839 N   0  0  0  0  0  0
  -31.6778  -15.0665   20.0088 O   0  0  0  0  0  0
  -21.6635   -6.8874   21.4240 O   0  0  0  0  0  0
  -22.3492  -14.5526   20.6708 O   0  0  0  0  0  0
  -24.6456  -31.8415   23.1856 C   0  0  0  0  0  0
  -25.9215  -32.4680   23.8254 C   0  0  1  0  0  0
  -27.2183  -27.1060   20.1561 C   0  0  0  0  0  0
  -25.5955  -33.8488   24.2173 N   0  0  0  0  0  0
  -23.4510  -30.4590   21.5312 C   0  0  2  0  0  0
  -24.9024  -28.8817   20.1065 C   0  0  0  0  0  0
  -22.7583  -29.4527   22.4848 C   0  0  0  0  0  0
  -18.0310  -28.1400   22.8478 C   0  0  0  0  0  0
  -24.1494  -36.7250   23.2642 C   0  0  0  0  0  0
  -26.0080  -30.7043   21.3907 C   0  0  0  0  0  0
  -26.0783  -29.3124   20.7332 C   0  0  0  0  0  0
  -27.2329  -28.4392   20.7443 C   0  0  0  0  0  0
  -26.0229  -26.7933   19.4704 C   0  0  0  0  0  0
  -24.8897  -27.6373   19.4589 C   0  0  0  0  0  0
  -23.6797  -29.7865   20.1506 C   0  0  0  0  0  0
  -25.4125  -36.3024   24.0313 C   0  0  1  0  0  0
  -20.5924  -28.3727   23.1235 C   0  0  2  0  0  0
  -20.6793  -26.9428   22.5409 C   0  0  0  0  0  0
  -19.5764  -26.6382   21.5221 C   0  0  0  0  0  0
  -18.1947  -26.7936   22.1631 C   0  0  0  0  0  0
  -19.1567  -28.8882   23.2846 C   0  0  0  0  0  0
  -18.9481  -30.1479   23.8872 C   0  0  0  0  0  0
  -17.6476  -30.6594   24.0561 C   0  0  0  0  0  0
  -25.9077  -34.9401   23.5053 C   0  0  0  0  0  0
  -16.5368  -29.9086   23.6338 C   0  0  0  0  0  0
  -16.7293  -28.6507   23.0354 C   0  0  0  0  0  0
  -26.4527  -31.6557   25.0706 C   0  0  0  0  0  0
  -25.3699  -31.3762   26.1394 C   0  0  0  0  0  0
  -27.0393  -30.2945   24.6310 C   0  0  0  0  0  0
  -27.6054  -32.4325   25.7493 C   0  0  0  0  0  0
  -27.5576  -37.1782   24.8464 C   0  0  0  0  0  0
  -21.4274  -29.3045   22.3598 N   0  0  0  0  0  0
  -26.4287  -37.3740   23.9407 N   0  0  0  0  0  0
  -24.7213  -31.0238   22.0906 N   0  0  0  0  0  0
  -23.4214  -28.8082   23.3012 O   0  0  0  0  0  0
  -28.2638  -26.1055   20.2642 O   0  0  0  0  0  0
  -26.5668  -34.8904   22.4636 O   0  0  0  0  0  0
  -23.5567  -32.1310   23.7054 O   0  0  0  0  0  0
  -26.8952  -20.5490   20.9518 C   0  0  0  0  0  0
  -26.0792  -19.6638   21.6909 C   0  0  0  0  0  0
  -28.2684  -20.2421   20.6485 C   0  0  0  0  0  0
  -26.5663  -18.3867   21.9608 C   0  0  0  0  0  0
  -28.6288  -18.7599   20.8564 C   0  0  0  0  0  0
  -26.2105  -21.8130   20.4376 C   0  0  0  0  0  0
  -24.6818  -20.0623   22.1709 C   0  0  0  0  0  0
  -25.7852  -17.3638   22.7680 C   0  0  0  0  0  0
  -30.5656  -21.2828   20.0985 C   0  0  0  0  0  0
  -29.7233  -16.0758   22.4321 C   0  0  0  0  0  0
  -29.8372  -17.6812   20.4805 C   0  0  0  0  0  0
  -28.8338  -23.2146   20.6480 C   0  0  0  0  0  0
  -28.0925  -24.5771   19.9279 C   0  0  0  0  0  0
  -29.0600  -21.5883   20.0831 C   0  0  2  0  0  0
  -27.7378  -17.9693   21.4873 N   0  0  0  0  0  0
  -29.8441  -16.1343   20.9611 N   0  0  0  0  0  0
  -31.4780  -12.7694   19.2076 H   0  0  0  0  0  0
  -30.4447  -11.6517   20.0357 H   0  0  0  0  0  0
  -29.8575  -11.7624   17.5930 H   0  0  0  0  0  0
  -29.6167  -13.4879   17.7095 H   0  0  0  0  0  0
  -27.9573  -11.2857   18.9700 H   0  0  0  0  0  0
  -27.4016  -12.4721   17.8175 H   0  0  0  0  0  0
  -27.6082  -14.2594   19.4416 H   0  0  0  0  0  0
  -28.7658  -12.2519   21.4312 H   0  0  0  0  0  0
  -28.3370  -13.8954   21.7970 H   0  0  0  0  0  0
  -25.2767   -9.5677   22.4767 H   0  0  0  0  0  0
  -24.0000   -7.4630   22.7485 H   0  0  0  0  0  0
  -21.0839   -8.8779   19.8960 H   0  0  0  0  0  0
  -22.3712  -10.9668   19.6171 H   0  0  0  0  0  0
  -21.2006   -7.6143   23.9719 H   0  0  0  0  0  0
  -21.1486   -6.0515   25.9079 H   0  0  0  0  0  0
  -22.0594   -2.7603   23.2846 H   0  0  0  0  0  0
  -22.4061  -11.9883   22.4817 H   0  0  0  0  0  0
  -21.1077  -13.1264   22.2625 H   0  0  0  0  0  0
  -24.6311  -15.8327   20.4783 H   0  0  0  0  0  0
  -26.2756  -15.6429   20.1387 H   0  0  0  0  0  0
  -26.7277  -32.5280   23.0976 H   0  0  0  0  0  0
  -25.0070  -33.9597   25.0298 H   0  0  0  0  0  0
  -22.7546  -31.2853   21.3747 H   0  0  0  0  0  0
  -23.3763  -35.9576   23.3285 H   0  0  0  0  0  0
  -24.3579  -36.8902   22.2060 H   0  0  0  0  0  0
  -23.7245  -37.6438   23.6693 H   0  0  0  0  0  0
  -26.1669  -31.4565   20.6168 H   0  0  0  0  0  0
  -26.8766  -30.7560   22.0352 H   0  0  0  0  0  0
  -28.1230  -28.7602   21.2670 H   0  0  0  0  0  0
  -25.9245  -25.8527   18.9508 H   0  0  0  0  0  0
  -23.9956  -27.3077   18.9479 H   0  0  0  0  0  0
  -23.8178  -30.5602   19.3945 H   0  0  0  0  0  0
  -22.7942  -29.2294   19.8399 H   0  0  0  0  0  0
  -25.1316  -36.1845   25.0805 H   0  0  0  0  0  0
  -21.0017  -28.3321   24.1356 H   0  0  0  0  0  0
  -20.5694  -26.2342   23.3632 H   0  0  0  0  0  0
  -21.6657  -26.7433   22.1204 H   0  0  0  0  0  0
  -19.6923  -25.6286   21.1267 H   0  0  0  0  0  0
  -19.6696  -27.3180   20.6740 H   0  0  0  0  0  0
  -17.4216  -26.6685   21.4033 H   0  0  0  0  0  0
  -18.0338  -26.0087   22.9036 H   0  0  0  0  0  0
  -19.7955  -30.7305   24.2227 H   0  0  0  0  0  0
  -17.5027  -31.6270   24.5170 H   0  0  0  0  0  0
  -15.5365  -30.2977   23.7672 H   0  0  0  0  0  0
  -15.8698  -28.0818   22.7074 H   0  0  0  0  0  0
  -24.5884  -30.7105   25.7710 H   0  0  0  0  0  0
  -24.8882  -32.2952   26.4744 H   0  0  0  0  0  0
  -25.7968  -30.8981   27.0218 H   0  0  0  0  0  0
  -26.3014  -29.6661   24.1310 H   0  0  0  0  0  0
  -27.3982  -29.7254   25.4895 H   0  0  0  0  0  0
  -27.8935  -30.4166   23.9648 H   0  0  0  0  0  0
  -27.2647  -33.3653   26.2000 H   0  0  0  0  0  0
  -28.3904  -32.6838   25.0348 H   0  0  0  0  0  0
  -28.0677  -31.8494   26.5468 H   0  0  0  0  0  0
  -28.2581  -38.0091   24.7515 H   0  0  0  0  0  0
  -28.1087  -36.2619   24.6285 H   0  0  0  0  0  0
  -27.2295  -37.1420   25.8868 H   0  0  0  0  0  0
  -20.9492  -29.8753   21.6770 H   0  0  0  0  0  0
  -26.0151  -38.2807   24.1410 H   0  0  0  0  0  0
  -25.1674  -21.6275   20.1837 H   0  0  0  0  0  0
  -26.6392  -22.1713   19.5048 H   0  0  0  0  0  0
  -26.2280  -22.5991   21.1914 H   0  0  0  0  0  0
  -23.9399  -19.8277   21.4072 H   0  0  0  0  0  0
  -24.6152  -21.1257   22.4004 H   0  0  0  0  0  0
  -24.3940  -19.5462   23.0859 H   0  0  0  0  0  0
  -24.7851  -17.2260   22.3570 H   0  0  0  0  0  0
  -25.6900  -17.6878   23.8039 H   0  0  0  0  0  0
  -26.2789  -16.3918   22.7735 H   0  0  0  0  0  0
  -30.7944  -20.3712   19.5471 H   0  0  0  0  0  0
  -30.9338  -21.1599   21.1175 H   0  0  0  0  0  0
  -31.1403  -22.0838   19.6320 H   0  0  0  0  0  0
  -30.0295  -17.0146   22.8949 H   0  0  0  0  0  0
  -30.3290  -15.2954   22.9003 H   0  0  0  0  0  0
  -28.6918  -15.8903   22.7279 H   0  0  0  0  0  0
  -30.7762  -18.1236   20.8145 H   0  0  0  0  0  0
  -29.9047  -17.6662   19.3928 H   0  0  0  0  0  0
  -28.4704  -23.1497   21.6733 H   0  0  0  0  0  0
  -29.8479  -23.5852   20.7952 H   0  0  0  0  0  0
  -27.0277  -24.3798   20.0027 H   0  0  0  0  0  0
  -28.3102  -24.5100   18.8618 H   0  0  0  0  0  0
  -28.7997  -21.6218   19.0239 H   0  0  0  0  0  0
  1 25  1  0  0  0
  1 30  2  0  0  0
  1 86  1  0  0  0
  2  3  1  0  0  0
  2 25  1  0  0  0
  2 87  1  0  0  0
  2 88  1  0  0  0
  3  4  1  0  0  0
  3 89  1  0  0  0
  3 90  1  0  0  0
  4  5  1  0  0  0
  4 91  1  0  0  0
  4 92  1  0  0  0
  5  6  1  0  0  0
  5 26  1  0  0  0
  5 93  1  0  0  0
  6 25  1  0  0  0
  6 94  1  0  0  0
  6 95  1  0  0  0
  7  8  2  0  0  0
  7 26  1  0  0  0
  7 29  1  0  0  0
  8  9  1  0  0  0
  8 22  1  0  0  0
  9 10  1  0  0  0
  9 27  2  0  0  0
 10 11  2  0  0  0
 10 15  1  0  0  0
 11 12  1  0  0  0
 11 96  1  0  0  0
 12 13  2  0  0  0
 12 97  1  0  0  0
 13 14  1  0  0  0
 13 31  1  0  0  0
 14 15  2  0  0  0
 14 98  1  0  0  0
 15 99  1  0  0  0
 16 17  2  0  0  0
 16 21  1  0  0  0
 16 31  1  0  0  0
 17 18  1  0  0  0
 17100  1  0  0  0
 18 19  2  0  0  0
 18101  1  0  0  0
 19 20  1  0  0  0
 19 24  1  0  0  0
 20 21  2  0  0  0
 20102  1  0  0  0
 21 23  1  0  0  0
 22 28  1  0  0  0
 22 32  2  0  0  0
 26 27  1  0  0  0
 28103  1  0  0  0
 28104  1  0  0  0
 29105  1  0  0  0
 29106  1  0  0  0
 33 34  1  0  0  0
 33 66  1  0  0  0
 33 70  2  0  0  0
 34 36  1  0  0  0
 34 59  1  0  0  0
 34107  1  0  0  0
 35 44  2  0  0  0
 35 45  1  0  0  0
 35 68  1  0  0  0
 36 56  1  0  0  0
 36108  1  0  0  0
 37 39  1  0  0  0
 37 47  1  0  0  0
 37 66  1  0  0  0
 37109  1  0  0  0
 38 43  2  0  0  0
 38 46  1  0  0  0
 38 47  1  0  0  0
 39 64  1  0  0  0
 39 67  2  0  0  0
 40 52  1  0  0  0
 40 53  2  0  0  0
 40 58  1  0  0  0
 41110  1  0  0  0
 41111  1  0  0  0
 41112  1  0  0  0
 41 48  1  0  0  0
 42 43  1  0  0  0
 42 66  1  0  0  0
 42113  1  0  0  0
 42114  1  0  0  0
 43 44  1  0  0  0
 44115  1  0  0  0
 45 46  2  0  0  0
 45116  1  0  0  0
 46117  1  0  0  0
 47118  1  0  0  0
 47119  1  0  0  0
 48 56  1  0  0  0
 48 65  1  0  0  0
 48120  1  0  0  0
 49 50  1  0  0  0
 49 53  1  0  0  0
 49 64  1  0  0  0
 49121  1  0  0  0
 50 51  1  0  0  0
 50122  1  0  0  0
 50123  1  0  0  0
 51 52  1  0  0  0
 51124  1  0  0  0
 51125  1  0  0  0
 52126  1  0  0  0
 52127  1  0  0  0
 53 54  1  0  0  0
 54 55  2  0  0  0
 54128  1  0  0  0
 55 57  1  0  0  0
 55129  1  0  0  0
 56 69  2  0  0  0
 57 58  2  0  0  0
 57130  1  0  0  0
 58131  1  0  0  0
 59 60  1  0  0  0
 59 61  1  0  0  0
 59 62  1  0  0  0
 60132  1  0  0  0
 60133  1  0  0  0
 60134  1  0  0  0
 61135  1  0  0  0
 61136  1  0  0  0
 61137  1  0  0  0
 62138  1  0  0  0
 62139  1  0  0  0
 62140  1  0  0  0
 63 65  1  0  0  0
 63141  1  0  0  0
 63142  1  0  0  0
 63143  1  0  0  0
 64144  1  0  0  0
 65145  1  0  0  0
 68 83  1  0  0  0
 71 72  2  0  0  0
 71 73  1  0  0  0
 71 76  1  0  0  0
 72 74  1  0  0  0
 72 77  1  0  0  0
 73 75  2  0  0  0
 73 84  1  0  0  0
 74 78  1  0  0  0
 74 85  2  0  0  0
 75 81  1  0  0  0
 75 85  1  0  0  0
 76146  1  0  0  0
 76147  1  0  0  0
 76148  1  0  0  0
 77149  1  0  0  0
 77150  1  0  0  0
 77151  1  0  0  0
 78152  1  0  0  0
 78153  1  0  0  0
 78154  1  0  0  0
 79155  1  0  0  0
 79156  1  0  0  0
 79157  1  0  0  0
 79 84  1  0  0  0
 80 86  1  0  0  0
 80158  1  0  0  0
 80159  1  0  0  0
 80160  1  0  0  0
 81 86  1  0  0  0
 81161  1  0  0  0
 81162  1  0  0  0
 82 83  1  0  0  0
 82 84  1  0  0  0
 82163  1  0  0  0
 82164  1  0  0  0
 83165  1  0  0  0
 83166  1  0  0  0
 84167  1  0  0  0
M  ISO  4   1 100  68 101  83 101  86 100
M  END
> <chiral flag>
0

> <version>
0

> <s_m_source_file>
/data/baiqing/PycharmProjects/Reinvent-master-3.2/result/LINK_invent/BTK/process_docking_weight1_custom_sum_contain_oxygen_bond_distance_aromatic_linkinvent_7_9_3/rearranged_h_0086.sdf

> <i_m_source_file_index>
76

> <r_mmod_Potential_Energy-OPLS-2005>
658.478576660156

> <r_mmod_Stretch_Energy-OPLS-2005>
358.125701904297

> <r_mmod_Bend_Energy-OPLS-2005>
362.586059570312

> <r_mmod_Torsional_Energy-OPLS-2005>
286.745483398438

> <r_mmod_Improper_Torsional_Energy-OPLS-2005>
5.43845272064209

> <r_mmod_Van_der_Waal_Energy-OPLS-2005>
161.090560913086

> <r_mmod_Electrostatic_Energy-OPLS-2005>
-526.504089355469

> <r_mmod_Solvation_Energy-OPLS-2005>
-201.156509399414

> <b_mmod_Minimization_Converged-OPLS-2005>
0

> <r_mmod_RMS_Derivative-OPLS-2005>
0.864246129989624

$$$$
77
                    3D
 Structure written by MMmdl.
160168  0  0  1  0            999 V2000
  -30.5295  -15.0248   20.4030 C   0  0  0  0  0  0
  -30.4366  -12.6388   19.5058 C   0  0  0  0  0  0
  -29.5176  -12.5347   18.2652 C   0  0  0  0  0  0
  -28.0569  -12.3019   18.6920 C   0  0  0  0  0  0
  -27.6236  -13.2563   19.8339 C   0  0  2  0  0  0
  -28.6660  -13.3231   20.9708 C   0  0  0  0  0  0
  -25.2427  -13.8230   20.5711 C   0  0  0  0  0  0
  -24.1749  -13.0437   20.9229 C   0  0  0  0  0  0
  -24.6388  -11.6926   20.8772 C   0  0  0  0  0  0
  -23.9088  -10.4285   21.0427 C   0  0  0  0  0  0
  -24.3634   -9.4189   21.9195 C   0  0  0  0  0  0
  -23.6293   -8.2231   22.0770 C   0  0  0  0  0  0
  -22.4275   -8.0283   21.3555 C   0  0  0  0  0  0
  -21.9916   -9.0258   20.4657 C   0  0  0  0  0  0
  -22.7267  -10.2129   20.3067 C   0  0  0  0  0  0
  -21.6846   -6.0741   22.5274 C   0  0  0  0  0  0
  -21.4012   -6.5645   23.8213 C   0  0  0  0  0  0
  -21.3650   -5.6795   24.9170 C   0  0  0  0  0  0
  -21.6035   -4.3062   24.7216 C   0  0  0  0  0  0
  -21.8819   -3.8151   23.4344 C   0  0  0  0  0  0
  -21.9185   -4.6966   22.3397 C   0  0  0  0  0  0
  -22.7765  -13.5193   21.1875 C   0  0  0  0  0  0
  -22.1654   -4.2150   21.0978 F   0  0  0  0  0  0
  -21.5620   -3.4542   25.7733 F   0  0  0  0  0  0
  -29.9343  -13.7551   20.3684 N   0  0  0  0  0  0
  -26.2860  -12.9482   20.3266 N   0  0  0  0  0  0
  -25.9328  -11.6612   20.5772 N   0  0  0  0  0  0
  -22.0427  -12.8184   22.0444 N   0  0  0  0  0  0
  -25.4097  -15.1966   20.4116 N   0  0  0  0  0  0
  -31.7380  -15.0399   20.1294 O   0  0  0  0  0  0
  -21.6635   -6.8884   21.4244 O   0  0  0  0  0  0
  -22.3444  -14.5484   20.6703 O   0  0  0  0  0  0
  -24.6442  -31.8368   23.1825 C   0  0  0  0  0  0
  -25.9191  -32.4665   23.8242 C   0  0  1  0  0  0
  -27.2169  -27.0978   20.1663 C   0  0  0  0  0  0
  -25.5931  -33.8473   24.2166 N   0  0  0  0  0  0
  -23.4511  -30.4545   21.5246 C   0  0  2  0  0  0
  -24.9019  -28.8722   20.0982 C   0  0  0  0  0  0
  -22.7570  -29.4509   22.4809 C   0  0  0  0  0  0
  -18.0297  -28.1369   22.8487 C   0  0  0  0  0  0
  -24.1490  -36.7226   23.2666 C   0  0  0  0  0  0
  -26.0064  -30.7007   21.3849 C   0  0  0  0  0  0
  -26.0741  -29.3083   20.7274 C   0  0  0  0  0  0
  -27.2244  -28.4327   20.7486 C   0  0  0  0  0  0
  -26.0267  -26.7680   19.4853 C   0  0  0  0  0  0
  -24.8941  -27.6191   19.4612 C   0  0  0  0  0  0
  -23.6782  -29.7772   20.1426 C   0  0  0  0  0  0
  -25.4119  -36.3001   24.0334 C   0  0  1  0  0  0
  -20.5920  -28.3699   23.1222 C   0  0  2  0  0  0
  -20.6784  -26.9398   22.5401 C   0  0  0  0  0  0
  -19.5749  -26.6354   21.5216 C   0  0  0  0  0  0
  -18.1924  -26.7918   22.1613 C   0  0  0  0  0  0
  -19.1564  -28.8852   23.2851 C   0  0  0  0  0  0
  -18.9489  -30.1457   23.8861 C   0  0  0  0  0  0
  -17.6493  -30.6580   24.0559 C   0  0  0  0  0  0
  -25.9063  -34.9393   23.5055 C   0  0  0  0  0  0
  -16.5372  -29.9073   23.6336 C   0  0  0  0  0  0
  -16.7285  -28.6489   23.0366 C   0  0  0  0  0  0
  -26.4509  -31.6560   25.0704 C   0  0  0  0  0  0
  -25.3708  -31.3766   26.1425 C   0  0  0  0  0  0
  -27.0431  -30.2974   24.6314 C   0  0  0  0  0  0
  -27.6051  -32.4347   25.7463 C   0  0  0  0  0  0
  -27.5560  -37.1764   24.8466 C   0  0  0  0  0  0
  -21.4257  -29.3030   22.3587 N   0  0  0  0  0  0
  -26.4255  -37.3734   23.9439 N   0  0  0  0  0  0
  -24.7209  -31.0209   22.0861 N   0  0  0  0  0  0
  -23.4228  -28.8071   23.2967 O   0  0  0  0  0  0
  -28.2700  -26.1172   20.3284 O   0  0  0  0  0  0
  -26.5662  -34.8899   22.4633 O   0  0  0  0  0  0
  -23.5541  -32.1240   23.7026 O   0  0  0  0  0  0
  -29.1228  -18.9067   20.6633 C   0  0  0  0  0  0
  -29.4411  -20.3277   20.3389 C   0  0  0  0  0  0
  -30.0136  -17.7507   20.3431 C   0  0  0  0  0  0
  -31.4258  -19.4485   19.5184 C   0  0  0  0  0  0
  -34.2281  -19.7392   21.1441 C   0  0  0  0  0  0
  -34.8346  -21.3392   19.2753 C   0  0  0  0  0  0
  -28.8131  -21.7767   20.8821 C   0  0  0  0  0  0
  -32.8153  -19.7924   18.9881 C   0  0  0  0  0  0
  -28.0356  -23.0679   20.0865 C   0  0  0  0  0  0
  -28.4472  -24.6858   19.7095 C   0  0  0  0  0  0
  -33.6892  -20.5991   19.9878 C   0  0  0  0  0  0
  -30.6234  -20.4946   19.7281 N   0  0  0  0  0  0
  -31.1762  -18.1582   19.7818 N   0  0  0  0  0  0
  -29.7620  -16.2354   20.5759 N   0  0  0  0  0  0
  -31.4662  -12.8006   19.1831 H   0  0  0  0  0  0
  -30.4494  -11.7007   20.0631 H   0  0  0  0  0  0
  -29.8503  -11.7264   17.6122 H   0  0  0  0  0  0
  -29.5855  -13.4524   17.6802 H   0  0  0  0  0  0
  -27.9753  -11.2684   19.0316 H   0  0  0  0  0  0
  -27.3859  -12.3947   17.8359 H   0  0  0  0  0  0
  -27.5728  -14.2461   19.3789 H   0  0  0  0  0  0
  -28.7743  -12.3561   21.4631 H   0  0  0  0  0  0
  -28.3523  -14.0290   21.7412 H   0  0  0  0  0  0
  -25.2787   -9.5639   22.4768 H   0  0  0  0  0  0
  -23.9974   -7.4626   22.7500 H   0  0  0  0  0  0
  -21.0843   -8.8793   19.8981 H   0  0  0  0  0  0
  -22.3738  -10.9664   19.6168 H   0  0  0  0  0  0
  -21.2019   -7.6157   23.9708 H   0  0  0  0  0  0
  -21.1466   -6.0534   25.9069 H   0  0  0  0  0  0
  -22.0607   -2.7613   23.2842 H   0  0  0  0  0  0
  -22.4040  -11.9826   22.4800 H   0  0  0  0  0  0
  -21.1063  -13.1225   22.2694 H   0  0  0  0  0  0
  -24.6396  -15.8494   20.5111 H   0  0  0  0  0  0
  -26.2492  -15.6328   20.0535 H   0  0  0  0  0  0
  -26.7261  -32.5240   23.0972 H   0  0  0  0  0  0
  -25.0116  -33.9597   25.0343 H   0  0  0  0  0  0
  -22.7564  -31.2801   21.3641 H   0  0  0  0  0  0
  -23.3758  -35.9540   23.3275 H   0  0  0  0  0  0
  -24.3603  -36.8874   22.2086 H   0  0  0  0  0  0
  -23.7207  -37.6405   23.6714 H   0  0  0  0  0  0
  -26.1692  -31.4549   20.6131 H   0  0  0  0  0  0
  -26.8764  -30.7501   22.0290 H   0  0  0  0  0  0
  -28.1104  -28.7584   21.2751 H   0  0  0  0  0  0
  -25.9367  -25.7995   19.0155 H   0  0  0  0  0  0
  -23.9975  -27.2776   18.9602 H   0  0  0  0  0  0
  -23.8124  -30.5497   19.3837 H   0  0  0  0  0  0
  -22.7927  -29.2166   19.8353 H   0  0  0  0  0  0
  -25.1299  -36.1815   25.0816 H   0  0  0  0  0  0
  -21.0020  -28.3258   24.1339 H   0  0  0  0  0  0
  -20.5645  -26.2310   23.3627 H   0  0  0  0  0  0
  -21.6645  -26.7359   22.1207 H   0  0  0  0  0  0
  -19.6923  -25.6266   21.1235 H   0  0  0  0  0  0
  -19.6684  -27.3177   20.6762 H   0  0  0  0  0  0
  -17.4209  -26.6679   21.4001 H   0  0  0  0  0  0
  -18.0291  -26.0054   22.8992 H   0  0  0  0  0  0
  -19.7978  -30.7277   24.2181 H   0  0  0  0  0  0
  -17.5057  -31.6256   24.5169 H   0  0  0  0  0  0
  -15.5377  -30.2983   23.7695 H   0  0  0  0  0  0
  -15.8674  -28.0810   22.7096 H   0  0  0  0  0  0
  -24.5882  -30.7094   25.7775 H   0  0  0  0  0  0
  -24.8912  -32.2964   26.4792 H   0  0  0  0  0  0
  -25.8018  -30.8993   27.0236 H   0  0  0  0  0  0
  -26.3082  -29.6659   24.1309 H   0  0  0  0  0  0
  -27.4073  -29.7300   25.4889 H   0  0  0  0  0  0
  -27.8953  -30.4261   23.9637 H   0  0  0  0  0  0
  -27.2654  -33.3702   26.1925 H   0  0  0  0  0  0
  -28.3906  -32.6801   25.0301 H   0  0  0  0  0  0
  -28.0670  -31.8536   26.5457 H   0  0  0  0  0  0
  -28.2549  -38.0096   24.7535 H   0  0  0  0  0  0
  -28.1061  -36.2615   24.6219 H   0  0  0  0  0  0
  -27.2292  -37.1312   25.8873 H   0  0  0  0  0  0
  -20.9448  -29.8769   21.6804 H   0  0  0  0  0  0
  -26.0091  -38.2775   24.1480 H   0  0  0  0  0  0
  -28.2036  -18.7112   21.1999 H   0  0  0  0  0  0
  -34.8072  -20.3415   21.8461 H   0  0  0  0  0  0
  -34.8748  -18.9400   20.7802 H   0  0  0  0  0  0
  -33.4151  -19.2804   21.7074 H   0  0  0  0  0  0
  -35.4307  -21.9216   19.9797 H   0  0  0  0  0  0
  -34.4510  -22.0385   18.5318 H   0  0  0  0  0  0
  -35.5052  -20.6466   18.7663 H   0  0  0  0  0  0
  -29.5924  -22.2269   21.4965 H   0  0  0  0  0  0
  -28.0850  -21.4438   21.6208 H   0  0  0  0  0  0
  -32.6796  -20.3653   18.0697 H   0  0  0  0  0  0
  -33.3405  -18.8828   18.6904 H   0  0  0  0  0  0
  -27.0682  -23.1561   20.5829 H   0  0  0  0  0  0
  -27.7654  -22.6245   19.1278 H   0  0  0  0  0  0
  -28.0194  -24.8263   18.7170 H   0  0  0  0  0  0
  -29.5163  -24.6347   19.5019 H   0  0  0  0  0  0
  -33.0611  -21.3797   20.4218 H   0  0  0  0  0  0
  -28.8134  -16.0374   20.8484 H   0  0  0  0  0  0
  1 25  1  0  0  0
  1 30  2  0  0  0
  1 84  1  0  0  0
  2  3  1  0  0  0
  2 25  1  0  0  0
  2 85  1  0  0  0
  2 86  1  0  0  0
  3  4  1  0  0  0
  3 87  1  0  0  0
  3 88  1  0  0  0
  4  5  1  0  0  0
  4 89  1  0  0  0
  4 90  1  0  0  0
  5  6  1  0  0  0
  5 26  1  0  0  0
  5 91  1  0  0  0
  6 25  1  0  0  0
  6 92  1  0  0  0
  6 93  1  0  0  0
  7  8  2  0  0  0
  7 26  1  0  0  0
  7 29  1  0  0  0
  8  9  1  0  0  0
  8 22  1  0  0  0
  9 10  1  0  0  0
  9 27  2  0  0  0
 10 11  2  0  0  0
 10 15  1  0  0  0
 11 12  1  0  0  0
 11 94  1  0  0  0
 12 13  2  0  0  0
 12 95  1  0  0  0
 13 14  1  0  0  0
 13 31  1  0  0  0
 14 15  2  0  0  0
 14 96  1  0  0  0
 15 97  1  0  0  0
 16 17  2  0  0  0
 16 21  1  0  0  0
 16 31  1  0  0  0
 17 18  1  0  0  0
 17 98  1  0  0  0
 18 19  2  0  0  0
 18 99  1  0  0  0
 19 20  1  0  0  0
 19 24  1  0  0  0
 20 21  2  0  0  0
 20100  1  0  0  0
 21 23  1  0  0  0
 22 28  1  0  0  0
 22 32  2  0  0  0
 26 27  1  0  0  0
 28101  1  0  0  0
 28102  1  0  0  0
 29103  1  0  0  0
 29104  1  0  0  0
 33 34  1  0  0  0
 33 66  1  0  0  0
 33 70  2  0  0  0
 34 36  1  0  0  0
 34 59  1  0  0  0
 34105  1  0  0  0
 35 44  2  0  0  0
 35 45  1  0  0  0
 35 68  1  0  0  0
 36 56  1  0  0  0
 36106  1  0  0  0
 37 39  1  0  0  0
 37 47  1  0  0  0
 37 66  1  0  0  0
 37107  1  0  0  0
 38 43  2  0  0  0
 38 46  1  0  0  0
 38 47  1  0  0  0
 39 64  1  0  0  0
 39 67  2  0  0  0
 40 52  1  0  0  0
 40 53  2  0  0  0
 40 58  1  0  0  0
 41108  1  0  0  0
 41109  1  0  0  0
 41110  1  0  0  0
 41 48  1  0  0  0
 42 43  1  0  0  0
 42 66  1  0  0  0
 42111  1  0  0  0
 42112  1  0  0  0
 43 44  1  0  0  0
 44113  1  0  0  0
 45 46  2  0  0  0
 45114  1  0  0  0
 46115  1  0  0  0
 47116  1  0  0  0
 47117  1  0  0  0
 48 56  1  0  0  0
 48 65  1  0  0  0
 48118  1  0  0  0
 49 50  1  0  0  0
 49 53  1  0  0  0
 49 64  1  0  0  0
 49119  1  0  0  0
 50 51  1  0  0  0
 50120  1  0  0  0
 50121  1  0  0  0
 51 52  1  0  0  0
 51122  1  0  0  0
 51123  1  0  0  0
 52124  1  0  0  0
 52125  1  0  0  0
 53 54  1  0  0  0
 54 55  2  0  0  0
 54126  1  0  0  0
 55 57  1  0  0  0
 55127  1  0  0  0
 56 69  2  0  0  0
 57 58  2  0  0  0
 57128  1  0  0  0
 58129  1  0  0  0
 59 60  1  0  0  0
 59 61  1  0  0  0
 59 62  1  0  0  0
 60130  1  0  0  0
 60131  1  0  0  0
 60132  1  0  0  0
 61133  1  0  0  0
 61134  1  0  0  0
 61135  1  0  0  0
 62136  1  0  0  0
 62137  1  0  0  0
 62138  1  0  0  0
 63 65  1  0  0  0
 63139  1  0  0  0
 63140  1  0  0  0
 63141  1  0  0  0
 64142  1  0  0  0
 65143  1  0  0  0
 68 80  1  0  0  0
 71 72  2  0  0  0
 71 73  1  0  0  0
 71144  1  0  0  0
 72 77  1  0  0  0
 72 82  1  0  0  0
 73 83  2  0  0  0
 73 84  1  0  0  0
 74 78  1  0  0  0
 74 82  2  0  0  0
 74 83  1  0  0  0
 75145  1  0  0  0
 75146  1  0  0  0
 75147  1  0  0  0
 75 81  1  0  0  0
 76 81  1  0  0  0
 76148  1  0  0  0
 76149  1  0  0  0
 76150  1  0  0  0
 77 79  1  0  0  0
 77151  1  0  0  0
 77152  1  0  0  0
 78 81  1  0  0  0
 78153  1  0  0  0
 78154  1  0  0  0
 79 80  1  0  0  0
 79155  1  0  0  0
 79156  1  0  0  0
 80157  1  0  0  0
 80158  1  0  0  0
 81159  1  0  0  0
 84160  1  0  0  0
M  ISO  4   1 100  68 101  80 101  84 100
M  END
> <chiral flag>
0

> <version>
0

> <s_m_source_file>
/data/baiqing/PycharmProjects/Reinvent-master-3.2/result/LINK_invent/BTK/process_docking_weight1_custom_sum_contain_oxygen_bond_distance_aromatic_linkinvent_7_9_3/rearranged_h_0086.sdf

> <i_m_source_file_index>
77

> <r_mmod_Potential_Energy-OPLS-2005>
324.481109619141

> <r_mmod_Stretch_Energy-OPLS-2005>
302.571166992188

> <r_mmod_Bend_Energy-OPLS-2005>
378.954681396484

> <r_mmod_Torsional_Energy-OPLS-2005>
209.805541992188

> <r_mmod_Improper_Torsional_Energy-OPLS-2005>
5.5985541343689

> <r_mmod_Van_der_Waal_Energy-OPLS-2005>
132.661605834961

> <r_mmod_Electrostatic_Energy-OPLS-2005>
-698.946228027344

> <r_mmod_Solvation_Energy-OPLS-2005>
-245.938537597656

> <b_mmod_Minimization_Converged-OPLS-2005>
0

> <r_mmod_RMS_Derivative-OPLS-2005>
3.09967494010925

$$$$
78
                    3D
 Structure written by MMmdl.
157164  0  0  1  0            999 V2000
  -30.3526  -15.4515   20.3658 C   0  0  0  0  0  0
  -30.4496  -12.9352   19.5630 C   0  0  0  0  0  0
  -29.5602  -12.6416   18.3230 C   0  0  0  0  0  0
  -28.1159  -12.3203   18.7392 C   0  0  0  0  0  0
  -27.6113  -13.2976   19.8246 C   0  0  2  0  0  0
  -28.6312  -13.5357   20.9576 C   0  0  0  0  0  0
  -25.2392  -13.8295   20.5796 C   0  0  0  0  0  0
  -24.1741  -13.0457   20.9273 C   0  0  0  0  0  0
  -24.6417  -11.6957   20.8763 C   0  0  0  0  0  0
  -23.9109  -10.4308   21.0417 C   0  0  0  0  0  0
  -24.3649   -9.4211   21.9195 C   0  0  0  0  0  0
  -23.6321   -8.2243   22.0753 C   0  0  0  0  0  0
  -22.4301   -8.0296   21.3541 C   0  0  0  0  0  0
  -21.9966   -9.0260   20.4634 C   0  0  0  0  0  0
  -22.7289  -10.2146   20.3054 C   0  0  0  0  0  0
  -21.6847   -6.0749   22.5273 C   0  0  0  0  0  0
  -21.4011   -6.5645   23.8210 C   0  0  0  0  0  0
  -21.3667   -5.6801   24.9171 C   0  0  0  0  0  0
  -21.6047   -4.3063   24.7227 C   0  0  0  0  0  0
  -21.8817   -3.8149   23.4337 C   0  0  0  0  0  0
  -21.9199   -4.6970   22.3400 C   0  0  0  0  0  0
  -22.7756  -13.5190   21.1941 C   0  0  0  0  0  0
  -22.1675   -4.2156   21.0976 F   0  0  0  0  0  0
  -21.5652   -3.4541   25.7739 F   0  0  0  0  0  0
  -29.8572  -14.0922   20.3514 N   0  0  0  0  0  0
  -26.2835  -12.9591   20.3227 N   0  0  0  0  0  0
  -25.9366  -11.6671   20.5693 N   0  0  0  0  0  0
  -22.0411  -12.8114   22.0458 N   0  0  0  0  0  0
  -25.4098  -15.2024   20.4280 N   0  0  0  0  0  0
  -31.5756  -15.4386   20.1439 O   0  0  0  0  0  0
  -21.6651   -6.8895   21.4238 O   0  0  0  0  0  0
  -22.3421  -14.5493   20.6826 O   0  0  0  0  0  0
  -24.6761  -31.8099   23.1570 C   0  0  0  0  0  0
  -25.9386  -32.4503   23.8093 C   0  0  1  0  0  0
  -27.2344  -26.8008   20.2104 C   0  0  0  0  0  0
  -25.6005  -33.8324   24.1998 N   0  0  0  0  0  0
  -23.4972  -30.4133   21.5076 C   0  0  2  0  0  0
  -24.9587  -28.7730   20.1129 C   0  0  0  0  0  0
  -22.7727  -29.4361   22.4728 C   0  0  0  0  0  0
  -18.0336  -28.1418   22.8466 C   0  0  0  0  0  0
  -24.1498  -36.7164   23.2642 C   0  0  0  0  0  0
  -26.0715  -30.5756   21.4082 C   0  0  0  0  0  0
  -26.1422  -29.1512   20.7568 C   0  0  0  0  0  0
  -27.2686  -28.1892   20.7774 C   0  0  0  0  0  0
  -26.0202  -26.6068   19.5091 C   0  0  0  0  0  0
  -24.9321  -27.5249   19.4659 C   0  0  0  0  0  0
  -23.7489  -29.7143   20.1404 C   0  0  0  0  0  0
  -25.4145  -36.2903   24.0285 C   0  0  1  0  0  0
  -20.5972  -28.3768   23.1173 C   0  0  2  0  0  0
  -20.6806  -26.9440   22.5415 C   0  0  0  0  0  0
  -19.5776  -26.6379   21.5221 C   0  0  0  0  0  0
  -18.1958  -26.7954   22.1623 C   0  0  0  0  0  0
  -19.1604  -28.8916   23.2807 C   0  0  0  0  0  0
  -18.9508  -30.1507   23.8842 C   0  0  0  0  0  0
  -17.6489  -30.6601   24.0548 C   0  0  0  0  0  0
  -25.9120  -34.9294   23.4960 C   0  0  0  0  0  0
  -16.5385  -29.9087   23.6345 C   0  0  0  0  0  0
  -16.7320  -28.6509   23.0368 C   0  0  0  0  0  0
  -26.4604  -31.6486   25.0662 C   0  0  0  0  0  0
  -25.3708  -31.3763   26.1299 C   0  0  0  0  0  0
  -27.0525  -30.2833   24.6478 C   0  0  0  0  0  0
  -27.6064  -32.4337   25.7485 C   0  0  0  0  0  0
  -27.5577  -37.1732   24.8467 C   0  0  0  0  0  0
  -21.4382  -29.3026   22.3490 N   0  0  0  0  0  0
  -26.4272  -37.3667   23.9412 N   0  0  0  0  0  0
  -24.7691  -30.9649   22.0761 N   0  0  0  0  0  0
  -23.4220  -28.7957   23.3030 O   0  0  0  0  0  0
  -28.2183  -25.6371   20.3050 O   0  0  0  0  0  0
  -26.5745  -34.8854   22.4564 O   0  0  0  0  0  0
  -23.5806  -32.1131   23.6578 O   0  0  0  0  0  0
  -30.6898  -19.1384   21.6867 C   0  0  0  0  0  0
  -30.3741  -22.6409   19.8476 C   0  0  0  0  0  0
  -29.1246  -22.4646   22.0169 C   0  0  0  0  0  0
  -27.6029  -19.4043   18.4517 C   0  0  0  0  0  0
  -29.4727  -17.0446   20.4786 C   0  0  0  0  0  0
  -28.0397  -23.9405   20.1168 C   0  0  0  0  0  0
  -29.8062  -18.9017   20.4505 C   0  0  1  0  0  0
  -28.7949  -20.4938   20.2301 C   0  0  1  0  0  0
  -29.0077  -22.3592   20.4891 C   0  0  0  0  0  0
  -28.4270  -20.4898   18.8525 O   0  0  0  0  0  0
  -31.4634  -13.1626   19.2307 H   0  0  0  0  0  0
  -30.5472  -12.0502   20.1949 H   0  0  0  0  0  0
  -29.9762  -11.8275   17.7294 H   0  0  0  0  0  0
  -29.5609  -13.5237   17.6804 H   0  0  0  0  0  0
  -28.0965  -11.3020   19.1285 H   0  0  0  0  0  0
  -27.4560  -12.3357   17.8716 H   0  0  0  0  0  0
  -27.5092  -14.2512   19.3060 H   0  0  0  0  0  0
  -28.8265  -12.6204   21.5171 H   0  0  0  0  0  0
  -28.2318  -14.2508   21.6771 H   0  0  0  0  0  0
  -25.2797   -9.5681   22.4777 H   0  0  0  0  0  0
  -24.0032   -7.4620   22.7456 H   0  0  0  0  0  0
  -21.0930   -8.8772   19.8902 H   0  0  0  0  0  0
  -22.3763  -10.9691   19.6168 H   0  0  0  0  0  0
  -21.1972   -7.6152   23.9709 H   0  0  0  0  0  0
  -21.1518   -6.0536   25.9083 H   0  0  0  0  0  0
  -22.0590   -2.7616   23.2832 H   0  0  0  0  0  0
  -22.4086  -11.9785   22.4831 H   0  0  0  0  0  0
  -21.1016  -13.1078   22.2669 H   0  0  0  0  0  0
  -24.6548  -15.8716   20.5438 H   0  0  0  0  0  0
  -26.2726  -15.6296   20.1189 H   0  0  0  0  0  0
  -26.7450  -32.5014   23.0807 H   0  0  0  0  0  0
  -25.0084  -33.9375   25.0102 H   0  0  0  0  0  0
  -22.8157  -31.2470   21.3231 H   0  0  0  0  0  0
  -23.3778  -35.9479   23.3255 H   0  0  0  0  0  0
  -24.3567  -36.8877   22.2069 H   0  0  0  0  0  0
  -23.7251  -37.6318   23.6761 H   0  0  0  0  0  0
  -26.2661  -31.3102   20.6267 H   0  0  0  0  0  0
  -26.9240  -30.6391   22.0704 H   0  0  0  0  0  0
  -28.1571  -28.4827   21.3192 H   0  0  0  0  0  0
  -25.8800  -25.6539   19.0165 H   0  0  0  0  0  0
  -24.0369  -27.2255   18.9386 H   0  0  0  0  0  0
  -23.9140  -30.4767   19.3793 H   0  0  0  0  0  0
  -22.8574  -29.1750   19.8162 H   0  0  0  0  0  0
  -25.1352  -36.1658   25.0779 H   0  0  0  0  0  0
  -21.0060  -28.3381   24.1294 H   0  0  0  0  0  0
  -20.5675  -26.2382   23.3661 H   0  0  0  0  0  0
  -21.6665  -26.7386   22.1224 H   0  0  0  0  0  0
  -19.6924  -25.6275   21.1282 H   0  0  0  0  0  0
  -19.6714  -27.3161   20.6732 H   0  0  0  0  0  0
  -17.4232  -26.6722   21.4020 H   0  0  0  0  0  0
  -18.0326  -26.0115   22.9028 H   0  0  0  0  0  0
  -19.7975  -30.7351   24.2182 H   0  0  0  0  0  0
  -17.5035  -31.6274   24.5175 H   0  0  0  0  0  0
  -15.5383  -30.2961   23.7700 H   0  0  0  0  0  0
  -15.8725  -28.0798   22.7116 H   0  0  0  0  0  0
  -24.5926  -30.7075   25.7612 H   0  0  0  0  0  0
  -24.8858  -32.2961   26.4562 H   0  0  0  0  0  0
  -25.7931  -30.9042   27.0175 H   0  0  0  0  0  0
  -26.3213  -29.6471   24.1473 H   0  0  0  0  0  0
  -27.4001  -29.7245   25.5178 H   0  0  0  0  0  0
  -27.9181  -30.3982   23.9954 H   0  0  0  0  0  0
  -27.2599  -33.3700   26.1875 H   0  0  0  0  0  0
  -28.3969  -32.6802   25.0385 H   0  0  0  0  0  0
  -28.0621  -31.8583   26.5550 H   0  0  0  0  0  0
  -28.2540  -38.0074   24.7532 H   0  0  0  0  0  0
  -28.1123  -36.2599   24.6274 H   0  0  0  0  0  0
  -27.2290  -37.1340   25.8863 H   0  0  0  0  0  0
  -20.9676  -29.8699   21.6585 H   0  0  0  0  0  0
  -26.0099  -38.2709   24.1439 H   0  0  0  0  0  0
  -31.4090  -18.3289   21.8194 H   0  0  0  0  0  0
  -30.0908  -19.1974   22.5966 H   0  0  0  0  0  0
  -31.2631  -20.0631   21.6049 H   0  0  0  0  0  0
  -30.7643  -23.6105   20.1573 H   0  0  0  0  0  0
  -30.2881  -22.6497   18.7620 H   0  0  0  0  0  0
  -31.1167  -21.8869   20.1108 H   0  0  0  0  0  0
  -29.5299  -23.4312   22.3175 H   0  0  0  0  0  0
  -29.7584  -21.6900   22.4432 H   0  0  0  0  0  0
  -28.1400  -22.3618   22.4760 H   0  0  0  0  0  0
  -27.1973  -19.5964   17.4599 H   0  0  0  0  0  0
  -26.7591  -19.2589   19.1264 H   0  0  0  0  0  0
  -28.1668  -18.4785   18.3784 H   0  0  0  0  0  0
  -28.7149  -16.8988   19.7153 H   0  0  0  0  0  0
  -28.9194  -16.9059   21.4066 H   0  0  0  0  0  0
  -27.0646  -23.7654   20.5733 H   0  0  0  0  0  0
  -27.8330  -23.8601   19.0490 H   0  0  0  0  0  0
  -30.5079  -18.9730   19.6182 H   0  0  0  0  0  0
  -27.8950  -20.2918   20.8139 H   0  0  0  0  0  0
  1 25  1  0  0  0
  1 30  2  0  0  0
  1 75  1  0  0  0
  2  3  1  0  0  0
  2 25  1  0  0  0
  2 81  1  0  0  0
  2 82  1  0  0  0
  3  4  1  0  0  0
  3 83  1  0  0  0
  3 84  1  0  0  0
  4  5  1  0  0  0
  4 85  1  0  0  0
  4 86  1  0  0  0
  5  6  1  0  0  0
  5 26  1  0  0  0
  5 87  1  0  0  0
  6 25  1  0  0  0
  6 88  1  0  0  0
  6 89  1  0  0  0
  7  8  2  0  0  0
  7 26  1  0  0  0
  7 29  1  0  0  0
  8  9  1  0  0  0
  8 22  1  0  0  0
  9 10  1  0  0  0
  9 27  2  0  0  0
 10 11  2  0  0  0
 10 15  1  0  0  0
 11 12  1  0  0  0
 11 90  1  0  0  0
 12 13  2  0  0  0
 12 91  1  0  0  0
 13 14  1  0  0  0
 13 31  1  0  0  0
 14 15  2  0  0  0
 14 92  1  0  0  0
 15 93  1  0  0  0
 16 17  2  0  0  0
 16 21  1  0  0  0
 16 31  1  0  0  0
 17 18  1  0  0  0
 17 94  1  0  0  0
 18 19  2  0  0  0
 18 95  1  0  0  0
 19 20  1  0  0  0
 19 24  1  0  0  0
 20 21  2  0  0  0
 20 96  1  0  0  0
 21 23  1  0  0  0
 22 28  1  0  0  0
 22 32  2  0  0  0
 26 27  1  0  0  0
 28 97  1  0  0  0
 28 98  1  0  0  0
 29 99  1  0  0  0
 29100  1  0  0  0
 33 34  1  0  0  0
 33 66  1  0  0  0
 33 70  2  0  0  0
 34 36  1  0  0  0
 34 59  1  0  0  0
 34101  1  0  0  0
 35 44  2  0  0  0
 35 45  1  0  0  0
 35 68  1  0  0  0
 36 56  1  0  0  0
 36102  1  0  0  0
 37 39  1  0  0  0
 37 47  1  0  0  0
 37 66  1  0  0  0
 37103  1  0  0  0
 38 43  2  0  0  0
 38 46  1  0  0  0
 38 47  1  0  0  0
 39 64  1  0  0  0
 39 67  2  0  0  0
 40 52  1  0  0  0
 40 53  2  0  0  0
 40 58  1  0  0  0
 41104  1  0  0  0
 41105  1  0  0  0
 41106  1  0  0  0
 41 48  1  0  0  0
 42 43  1  0  0  0
 42 66  1  0  0  0
 42107  1  0  0  0
 42108  1  0  0  0
 43 44  1  0  0  0
 44109  1  0  0  0
 45 46  2  0  0  0
 45110  1  0  0  0
 46111  1  0  0  0
 47112  1  0  0  0
 47113  1  0  0  0
 48 56  1  0  0  0
 48 65  1  0  0  0
 48114  1  0  0  0
 49 50  1  0  0  0
 49 53  1  0  0  0
 49 64  1  0  0  0
 49115  1  0  0  0
 50 51  1  0  0  0
 50116  1  0  0  0
 50117  1  0  0  0
 51 52  1  0  0  0
 51118  1  0  0  0
 51119  1  0  0  0
 52120  1  0  0  0
 52121  1  0  0  0
 53 54  1  0  0  0
 54 55  2  0  0  0
 54122  1  0  0  0
 55 57  1  0  0  0
 55123  1  0  0  0
 56 69  2  0  0  0
 57 58  2  0  0  0
 57124  1  0  0  0
 58125  1  0  0  0
 59 60  1  0  0  0
 59 61  1  0  0  0
 59 62  1  0  0  0
 60126  1  0  0  0
 60127  1  0  0  0
 60128  1  0  0  0
 61129  1  0  0  0
 61130  1  0  0  0
 61131  1  0  0  0
 62132  1  0  0  0
 62133  1  0  0  0
 62134  1  0  0  0
 63 65  1  0  0  0
 63135  1  0  0  0
 63136  1  0  0  0
 63137  1  0  0  0
 64138  1  0  0  0
 65139  1  0  0  0
 68 76  1  0  0  0
 71140  1  0  0  0
 71141  1  0  0  0
 71142  1  0  0  0
 71 77  1  0  0  0
 72143  1  0  0  0
 72144  1  0  0  0
 72145  1  0  0  0
 72 79  1  0  0  0
 73 79  1  0  0  0
 73146  1  0  0  0
 73147  1  0  0  0
 73148  1  0  0  0
 74 80  1  0  0  0
 74149  1  0  0  0
 74150  1  0  0  0
 74151  1  0  0  0
 75 77  1  0  0  0
 75152  1  0  0  0
 75153  1  0  0  0
 76 79  1  0  0  0
 76154  1  0  0  0
 76155  1  0  0  0
 77 78  1  0  0  0
 77156  1  0  0  0
 78 79  1  0  0  0
 78 80  1  0  0  0
 78157  1  0  0  0
M  ISO  4   1 100  68 101  75 100  76 101
M  END
> <chiral flag>
0

> <version>
0

> <s_m_source_file>
/data/baiqing/PycharmProjects/Reinvent-master-3.2/result/LINK_invent/BTK/process_docking_weight1_custom_sum_contain_oxygen_bond_distance_aromatic_linkinvent_7_9_3/rearranged_h_0086.sdf

> <i_m_source_file_index>
78

> <r_mmod_Potential_Energy-OPLS-2005>
2038

> <r_mmod_Stretch_Energy-OPLS-2005>
998.697692871094

> <r_mmod_Bend_Energy-OPLS-2005>
574.674072265625

> <r_mmod_Torsional_Energy-OPLS-2005>
204.498687744141

> <r_mmod_Improper_Torsional_Energy-OPLS-2005>
2.90633821487427

> <r_mmod_Van_der_Waal_Energy-OPLS-2005>
104.363677978516

> <r_mmod_Electrostatic_Energy-OPLS-2005>
-321.889923095703

> <r_mmod_Solvation_Energy-OPLS-2005>
-195.47314453125

> <b_mmod_Minimization_Converged-OPLS-2005>
0

> <r_mmod_RMS_Derivative-OPLS-2005>
3.25390005111694

$$$$
79
                    3D
 Structure written by MMmdl.
168176  0  0  1  0            999 V2000
  -30.6211  -14.9489   20.4499 C   0  0  0  0  0  0
  -30.4087  -12.5818   19.5411 C   0  0  0  0  0  0
  -29.5166  -12.5422   18.2810 C   0  0  0  0  0  0
  -28.0501  -12.3355   18.6858 C   0  0  0  0  0  0
  -27.6273  -13.2684   19.8496 C   0  0  2  0  0  0
  -28.6605  -13.3233   20.9985 C   0  0  0  0  0  0
  -25.2411  -13.8262   20.5745 C   0  0  0  0  0  0
  -24.1746  -13.0458   20.9236 C   0  0  0  0  0  0
  -24.6397  -11.6953   20.8772 C   0  0  0  0  0  0
  -23.9089  -10.4308   21.0412 C   0  0  0  0  0  0
  -24.3631   -9.4219   21.9195 C   0  0  0  0  0  0
  -23.6301   -8.2250   22.0754 C   0  0  0  0  0  0
  -22.4282   -8.0291   21.3545 C   0  0  0  0  0  0
  -21.9925   -9.0265   20.4643 C   0  0  0  0  0  0
  -22.7257  -10.2144   20.3063 C   0  0  0  0  0  0
  -21.6856   -6.0738   22.5271 C   0  0  0  0  0  0
  -21.4015   -6.5640   23.8203 C   0  0  0  0  0  0
  -21.3670   -5.6798   24.9171 C   0  0  0  0  0  0
  -21.6044   -4.3058   24.7218 C   0  0  0  0  0  0
  -21.8826   -3.8150   23.4341 C   0  0  0  0  0  0
  -21.9197   -4.6967   22.3398 C   0  0  0  0  0  0
  -22.7757  -13.5193   21.1897 C   0  0  0  0  0  0
  -22.1667   -4.2150   21.0979 F   0  0  0  0  0  0
  -21.5630   -3.4547   25.7738 F   0  0  0  0  0  0
  -29.9524  -13.7141   20.4193 N   0  0  0  0  0  0
  -26.2873  -12.9551   20.3312 N   0  0  0  0  0  0
  -25.9345  -11.6656   20.5789 N   0  0  0  0  0  0
  -22.0430  -12.8163   22.0448 N   0  0  0  0  0  0
  -25.4033  -15.1987   20.4157 N   0  0  0  0  0  0
  -31.7563  -14.8823   19.9651 O   0  0  0  0  0  0
  -21.6652   -6.8887   21.4236 O   0  0  0  0  0  0
  -22.3422  -14.5498   20.6758 O   0  0  0  0  0  0
  -24.6419  -31.8458   23.1892 C   0  0  0  0  0  0
  -25.9204  -32.4708   23.8267 C   0  0  1  0  0  0
  -27.1971  -27.1237   20.1667 C   0  0  0  0  0  0
  -25.5960  -33.8512   24.2190 N   0  0  0  0  0  0
  -23.4455  -30.4661   21.5361 C   0  0  2  0  0  0
  -24.8940  -28.8972   20.1044 C   0  0  0  0  0  0
  -22.7567  -29.4555   22.4858 C   0  0  0  0  0  0
  -18.0310  -28.1419   22.8469 C   0  0  0  0  0  0
  -24.1493  -36.7238   23.2640 C   0  0  0  0  0  0
  -26.0012  -30.7132   21.3933 C   0  0  0  0  0  0
  -26.0690  -29.3249   20.7349 C   0  0  0  0  0  0
  -27.2211  -28.4519   20.7547 C   0  0  0  0  0  0
  -26.0169  -26.8236   19.4509 C   0  0  0  0  0  0
  -24.8812  -27.6604   19.4453 C   0  0  0  0  0  0
  -23.6719  -29.8000   20.1533 C   0  0  0  0  0  0
  -25.4133  -36.3039   24.0310 C   0  0  1  0  0  0
  -20.5922  -28.3742   23.1228 C   0  0  2  0  0  0
  -20.6803  -26.9443   22.5409 C   0  0  0  0  0  0
  -19.5779  -26.6388   21.5218 C   0  0  0  0  0  0
  -18.1956  -26.7952   22.1623 C   0  0  0  0  0  0
  -19.1567  -28.8899   23.2839 C   0  0  0  0  0  0
  -18.9491  -30.1496   23.8866 C   0  0  0  0  0  0
  -17.6491  -30.6616   24.0564 C   0  0  0  0  0  0
  -25.9076  -34.9414   23.5057 C   0  0  0  0  0  0
  -16.5379  -29.9109   23.6345 C   0  0  0  0  0  0
  -16.7299  -28.6532   23.0354 C   0  0  0  0  0  0
  -26.4525  -31.6583   25.0712 C   0  0  0  0  0  0
  -25.3670  -31.3765   26.1370 C   0  0  0  0  0  0
  -27.0401  -30.2986   24.6292 C   0  0  0  0  0  0
  -27.6054  -32.4340   25.7501 C   0  0  0  0  0  0
  -27.5584  -37.1780   24.8468 C   0  0  0  0  0  0
  -21.4263  -29.3047   22.3585 N   0  0  0  0  0  0
  -26.4297  -37.3756   23.9402 N   0  0  0  0  0  0
  -24.7159  -31.0300   22.0943 N   0  0  0  0  0  0
  -23.4209  -28.8096   23.3004 O   0  0  0  0  0  0
  -28.2134  -26.1037   20.3033 O   0  0  0  0  0  0
  -26.5668  -34.8910   22.4640 O   0  0  0  0  0  0
  -23.5539  -32.1336   23.7117 O   0  0  0  0  0  0
  -29.0149  -20.4575   20.7085 C   0  0  0  0  0  0
  -29.3140  -21.7035   18.6758 C   0  0  0  0  0  0
  -29.0310  -21.7894   20.0440 C   0  0  0  0  0  0
  -29.2737  -19.1620   20.0177 C   0  0  0  0  0  0
  -29.5609  -19.3533   18.6386 C   0  0  0  0  0  0
  -28.5272  -17.7958   16.9136 C   0  0  0  0  0  0
  -27.8381  -17.6167   21.4993 C   0  0  0  0  0  0
  -26.7110  -24.2782   21.1842 C   0  0  0  0  0  0
  -30.1220  -16.2575   22.5944 C   0  0  0  0  0  0
  -31.5322  -17.3403   20.9351 C   0  0  0  0  0  0
  -28.9769  -23.3241   20.6527 C   0  0  0  0  0  0
  -29.8021  -18.1983   17.6723 C   0  0  0  0  0  0
  -29.0541  -17.5947   20.5533 C   0  0  2  0  0  0
  -27.9077  -24.5620   20.2485 C   0  0  2  0  0  0
  -30.2409  -16.4845   21.0657 C   0  0  0  0  0  0
  -29.5747  -20.5569   18.0183 N   0  0  0  0  0  0
  -31.4533  -12.6577   19.2385 H   0  0  0  0  0  0
  -30.3465  -11.6363   20.0824 H   0  0  0  0  0  0
  -29.8348  -11.7411   17.6133 H   0  0  0  0  0  0
  -29.6207  -13.4751   17.7242 H   0  0  0  0  0  0
  -27.9408  -11.2932   18.9892 H   0  0  0  0  0  0
  -27.3941  -12.4809   17.8276 H   0  0  0  0  0  0
  -27.5877  -14.2692   19.4185 H   0  0  0  0  0  0
  -28.7343  -12.3613   21.5074 H   0  0  0  0  0  0
  -28.3386  -14.0435   21.7487 H   0  0  0  0  0  0
  -25.2772   -9.5697   22.4783 H   0  0  0  0  0  0
  -24.0012   -7.4645   22.7472 H   0  0  0  0  0  0
  -21.0866   -8.8784   19.8937 H   0  0  0  0  0  0
  -22.3709  -10.9691   19.6182 H   0  0  0  0  0  0
  -21.2000   -7.6145   23.9700 H   0  0  0  0  0  0
  -21.1486   -6.0533   25.9073 H   0  0  0  0  0  0
  -22.0592   -2.7611   23.2841 H   0  0  0  0  0  0
  -22.4075  -11.9823   22.4810 H   0  0  0  0  0  0
  -21.1041  -13.1148   22.2693 H   0  0  0  0  0  0
  -24.6363  -15.8488   20.5425 H   0  0  0  0  0  0
  -26.2531  -15.6455   20.1007 H   0  0  0  0  0  0
  -26.7256  -32.5306   23.0975 H   0  0  0  0  0  0
  -25.0059  -33.9628   25.0309 H   0  0  0  0  0  0
  -22.7484  -31.2928   21.3855 H   0  0  0  0  0  0
  -23.3780  -35.9544   23.3290 H   0  0  0  0  0  0
  -24.3560  -36.8886   22.2054 H   0  0  0  0  0  0
  -23.7213  -37.6413   23.6687 H   0  0  0  0  0  0
  -26.1595  -31.4652   20.6191 H   0  0  0  0  0  0
  -26.8714  -30.7629   22.0359 H   0  0  0  0  0  0
  -28.1073  -28.7612   21.2923 H   0  0  0  0  0  0
  -25.9279  -25.8807   18.9321 H   0  0  0  0  0  0
  -23.9863  -27.3323   18.9340 H   0  0  0  0  0  0
  -23.8074  -30.5779   19.4008 H   0  0  0  0  0  0
  -22.7848  -29.2457   19.8425 H   0  0  0  0  0  0
  -25.1321  -36.1875   25.0803 H   0  0  0  0  0  0
  -21.0012  -28.3350   24.1349 H   0  0  0  0  0  0
  -20.5723  -26.2349   23.3627 H   0  0  0  0  0  0
  -21.6667  -26.7461   22.1198 H   0  0  0  0  0  0
  -19.6936  -25.6283   21.1285 H   0  0  0  0  0  0
  -19.6730  -27.3162   20.6721 H   0  0  0  0  0  0
  -17.4223  -26.6692   21.4033 H   0  0  0  0  0  0
  -18.0348  -26.0117   22.9041 H   0  0  0  0  0  0
  -19.7970  -30.7319   24.2224 H   0  0  0  0  0  0
  -17.5050  -31.6293   24.5175 H   0  0  0  0  0  0
  -15.5382  -30.3004   23.7700 H   0  0  0  0  0  0
  -15.8695  -28.0857   22.7074 H   0  0  0  0  0  0
  -24.5866  -30.7125   25.7641 H   0  0  0  0  0  0
  -24.8827  -32.2939   26.4718 H   0  0  0  0  0  0
  -25.7888  -30.8960   27.0202 H   0  0  0  0  0  0
  -26.3031  -29.6698   24.1282 H   0  0  0  0  0  0
  -27.4008  -29.7306   25.4878 H   0  0  0  0  0  0
  -27.8940  -30.4248   23.9626 H   0  0  0  0  0  0
  -27.2670  -33.3660   26.2039 H   0  0  0  0  0  0
  -28.3882  -32.6868   25.0340 H   0  0  0  0  0  0
  -28.0699  -31.8483   26.5442 H   0  0  0  0  0  0
  -28.2594  -38.0094   24.7543 H   0  0  0  0  0  0
  -28.1096  -36.2615   24.6282 H   0  0  0  0  0  0
  -27.2283  -37.1408   25.8869 H   0  0  0  0  0  0
  -20.9483  -29.8732   21.6734 H   0  0  0  0  0  0
  -26.0168  -38.2819   24.1438 H   0  0  0  0  0  0
  -28.7931  -20.4279   21.7650 H   0  0  0  0  0  0
  -29.3878  -22.6044   18.0834 H   0  0  0  0  0  0
  -28.7228  -16.9648   16.2363 H   0  0  0  0  0  0
  -28.1460  -18.6254   16.3165 H   0  0  0  0  0  0
  -27.7350  -17.4904   17.5964 H   0  0  0  0  0  0
  -26.9988  -18.1458   21.0460 H   0  0  0  0  0  0
  -28.0655  -18.1252   22.4368 H   0  0  0  0  0  0
  -27.4887  -16.6123   21.7348 H   0  0  0  0  0  0
  -26.4707  -23.2145   21.1915 H   0  0  0  0  0  0
  -25.7901  -24.7847   20.9117 H   0  0  0  0  0  0
  -26.9491  -24.5620   22.2094 H   0  0  0  0  0  0
  -30.1292  -17.1999   23.1434 H   0  0  0  0  0  0
  -30.9576  -15.6677   22.9755 H   0  0  0  0  0  0
  -29.2165  -15.7248   22.8782 H   0  0  0  0  0  0
  -31.4319  -18.3021   21.4378 H   0  0  0  0  0  0
  -31.7790  -17.5536   19.8943 H   0  0  0  0  0  0
  -32.3999  -16.8556   21.3853 H   0  0  0  0  0  0
  -29.9647  -23.7229   20.4225 H   0  0  0  0  0  0
  -28.9921  -23.2271   21.7384 H   0  0  0  0  0  0
  -30.2276  -17.3360   18.1804 H   0  0  0  0  0  0
  -30.5646  -18.5004   16.9532 H   0  0  0  0  0  0
  -28.6309  -17.0810   19.6938 H   0  0  0  0  0  0
  -27.6070  -24.3676   19.2186 H   0  0  0  0  0  0
  1 25  1  0  0  0
  1 30  2  0  0  0
  1 85  1  0  0  0
  2  3  1  0  0  0
  2 25  1  0  0  0
  2 87  1  0  0  0
  2 88  1  0  0  0
  3  4  1  0  0  0
  3 89  1  0  0  0
  3 90  1  0  0  0
  4  5  1  0  0  0
  4 91  1  0  0  0
  4 92  1  0  0  0
  5  6  1  0  0  0
  5 26  1  0  0  0
  5 93  1  0  0  0
  6 25  1  0  0  0
  6 94  1  0  0  0
  6 95  1  0  0  0
  7  8  2  0  0  0
  7 26  1  0  0  0
  7 29  1  0  0  0
  8  9  1  0  0  0
  8 22  1  0  0  0
  9 10  1  0  0  0
  9 27  2  0  0  0
 10 11  2  0  0  0
 10 15  1  0  0  0
 11 12  1  0  0  0
 11 96  1  0  0  0
 12 13  2  0  0  0
 12 97  1  0  0  0
 13 14  1  0  0  0
 13 31  1  0  0  0
 14 15  2  0  0  0
 14 98  1  0  0  0
 15 99  1  0  0  0
 16 17  2  0  0  0
 16 21  1  0  0  0
 16 31  1  0  0  0
 17 18  1  0  0  0
 17100  1  0  0  0
 18 19  2  0  0  0
 18101  1  0  0  0
 19 20  1  0  0  0
 19 24  1  0  0  0
 20 21  2  0  0  0
 20102  1  0  0  0
 21 23  1  0  0  0
 22 28  1  0  0  0
 22 32  2  0  0  0
 26 27  1  0  0  0
 28103  1  0  0  0
 28104  1  0  0  0
 29105  1  0  0  0
 29106  1  0  0  0
 33 34  1  0  0  0
 33 66  1  0  0  0
 33 70  2  0  0  0
 34 36  1  0  0  0
 34 59  1  0  0  0
 34107  1  0  0  0
 35 44  2  0  0  0
 35 45  1  0  0  0
 35 68  1  0  0  0
 36 56  1  0  0  0
 36108  1  0  0  0
 37 39  1  0  0  0
 37 47  1  0  0  0
 37 66  1  0  0  0
 37109  1  0  0  0
 38 43  2  0  0  0
 38 46  1  0  0  0
 38 47  1  0  0  0
 39 64  1  0  0  0
 39 67  2  0  0  0
 40 52  1  0  0  0
 40 53  2  0  0  0
 40 58  1  0  0  0
 41110  1  0  0  0
 41111  1  0  0  0
 41112  1  0  0  0
 41 48  1  0  0  0
 42 43  1  0  0  0
 42 66  1  0  0  0
 42113  1  0  0  0
 42114  1  0  0  0
 43 44  1  0  0  0
 44115  1  0  0  0
 45 46  2  0  0  0
 45116  1  0  0  0
 46117  1  0  0  0
 47118  1  0  0  0
 47119  1  0  0  0
 48 56  1  0  0  0
 48 65  1  0  0  0
 48120  1  0  0  0
 49 50  1  0  0  0
 49 53  1  0  0  0
 49 64  1  0  0  0
 49121  1  0  0  0
 50 51  1  0  0  0
 50122  1  0  0  0
 50123  1  0  0  0
 51 52  1  0  0  0
 51124  1  0  0  0
 51125  1  0  0  0
 52126  1  0  0  0
 52127  1  0  0  0
 53 54  1  0  0  0
 54 55  2  0  0  0
 54128  1  0  0  0
 55 57  1  0  0  0
 55129  1  0  0  0
 56 69  2  0  0  0
 57 58  2  0  0  0
 57130  1  0  0  0
 58131  1  0  0  0
 59 60  1  0  0  0
 59 61  1  0  0  0
 59 62  1  0  0  0
 60132  1  0  0  0
 60133  1  0  0  0
 60134  1  0  0  0
 61135  1  0  0  0
 61136  1  0  0  0
 61137  1  0  0  0
 62138  1  0  0  0
 62139  1  0  0  0
 62140  1  0  0  0
 63 65  1  0  0  0
 63141  1  0  0  0
 63142  1  0  0  0
 63143  1  0  0  0
 64144  1  0  0  0
 65145  1  0  0  0
 68 84  1  0  0  0
 71 73  2  0  0  0
 71 74  1  0  0  0
 71146  1  0  0  0
 72 73  1  0  0  0
 72 86  2  0  0  0
 72147  1  0  0  0
 73 81  1  0  0  0
 74 75  2  0  0  0
 74 83  1  0  0  0
 75 82  1  0  0  0
 75 86  1  0  0  0
 76 82  1  0  0  0
 76148  1  0  0  0
 76149  1  0  0  0
 76150  1  0  0  0
 77151  1  0  0  0
 77152  1  0  0  0
 77153  1  0  0  0
 77 83  1  0  0  0
 78154  1  0  0  0
 78155  1  0  0  0
 78156  1  0  0  0
 78 84  1  0  0  0
 79157  1  0  0  0
 79158  1  0  0  0
 79159  1  0  0  0
 79 85  1  0  0  0
 80 85  1  0  0  0
 80160  1  0  0  0
 80161  1  0  0  0
 80162  1  0  0  0
 81 84  1  0  0  0
 81163  1  0  0  0
 81164  1  0  0  0
 82165  1  0  0  0
 82166  1  0  0  0
 83 85  1  0  0  0
 83167  1  0  0  0
 84168  1  0  0  0
M  ISO  4   1 100  68 101  84 101  85 100
M  END
> <chiral flag>
0

> <version>
0

> <s_m_source_file>
/data/baiqing/PycharmProjects/Reinvent-master-3.2/result/LINK_invent/BTK/process_docking_weight1_custom_sum_contain_oxygen_bond_distance_aromatic_linkinvent_7_9_3/rearranged_h_0086.sdf

> <i_m_source_file_index>
79

> <r_mmod_Potential_Energy-OPLS-2005>
511.492706298828

> <r_mmod_Stretch_Energy-OPLS-2005>
300.490814208984

> <r_mmod_Bend_Energy-OPLS-2005>
335.932312011719

> <r_mmod_Torsional_Energy-OPLS-2005>
199.311218261719

> <r_mmod_Improper_Torsional_Energy-OPLS-2005>
4.15945148468018

> <r_mmod_Van_der_Waal_Energy-OPLS-2005>
149.954284667969

> <r_mmod_Electrostatic_Energy-OPLS-2005>
-488.723205566406

> <r_mmod_Solvation_Energy-OPLS-2005>
-190.877059936523

> <b_mmod_Minimization_Converged-OPLS-2005>
0

> <r_mmod_RMS_Derivative-OPLS-2005>
2.12705254554749

$$$$
80
                    3D
 Structure written by MMmdl.
175183  0  0  1  0            999 V2000
  -30.6754  -14.4753   20.5789 C   0  0  0  0  0  0
  -30.4285  -12.3137   19.4126 C   0  0  0  0  0  0
  -29.4943  -12.5160   18.2004 C   0  0  0  0  0  0
  -28.0149  -12.3771   18.6129 C   0  0  0  0  0  0
  -27.6621  -13.2040   19.8776 C   0  0  2  0  0  0
  -28.7042  -12.9612   20.9924 C   0  0  0  0  0  0
  -25.2569  -13.8111   20.5710 C   0  0  0  0  0  0
  -24.1817  -13.0396   20.9181 C   0  0  0  0  0  0
  -24.6370  -11.6871   20.8713 C   0  0  0  0  0  0
  -23.9038  -10.4262   21.0385 C   0  0  0  0  0  0
  -24.3588   -9.4188   21.9170 C   0  0  0  0  0  0
  -23.6273   -8.2223   22.0745 C   0  0  0  0  0  0
  -22.4251   -8.0258   21.3544 C   0  0  0  0  0  0
  -21.9880   -9.0225   20.4644 C   0  0  0  0  0  0
  -22.7204  -10.2103   20.3043 C   0  0  0  0  0  0
  -21.6848   -6.0720   22.5275 C   0  0  0  0  0  0
  -21.4010   -6.5621   23.8204 C   0  0  0  0  0  0
  -21.3664   -5.6780   24.9169 C   0  0  0  0  0  0
  -21.6041   -4.3042   24.7218 C   0  0  0  0  0  0
  -21.8818   -3.8136   23.4345 C   0  0  0  0  0  0
  -21.9196   -4.6952   22.3401 C   0  0  0  0  0  0
  -22.7841  -13.5214   21.1844 C   0  0  0  0  0  0
  -22.1664   -4.2144   21.0979 F   0  0  0  0  0  0
  -21.5635   -3.4525   25.7733 F   0  0  0  0  0  0
  -30.0341  -13.2833   20.4454 N   0  0  0  0  0  0
  -26.3013  -12.9296   20.3363 N   0  0  0  0  0  0
  -25.9294  -11.6457   20.5713 N   0  0  0  0  0  0
  -22.0477  -12.8224   22.0406 N   0  0  0  0  0  0
  -25.4267  -15.1818   20.4187 N   0  0  0  0  0  0
  -31.7925  -14.7006   20.1028 O   0  0  0  0  0  0
  -21.6627   -6.8854   21.4232 O   0  0  0  0  0  0
  -22.3535  -14.5526   20.6700 O   0  0  0  0  0  0
  -24.6156  -31.8668   23.2074 C   0  0  0  0  0  0
  -25.9041  -32.4816   23.8385 C   0  0  1  0  0  0
  -27.2423  -27.4348   20.1033 C   0  0  0  0  0  0
  -25.5886  -33.8612   24.2317 N   0  0  0  0  0  0
  -23.4051  -30.4877   21.5480 C   0  0  2  0  0  0
  -24.8539  -28.9459   20.1197 C   0  0  0  0  0  0
  -22.7412  -29.4657   22.4989 C   0  0  0  0  0  0
  -18.0276  -28.1385   22.8490 C   0  0  0  0  0  0
  -24.1483  -36.7319   23.2636 C   0  0  0  0  0  0
  -25.9322  -30.8308   21.3604 C   0  0  0  0  0  0
  -26.0121  -29.4617   20.7164 C   0  0  0  0  0  0
  -27.2113  -28.7125   20.7063 C   0  0  0  0  0  0
  -26.0714  -26.9267   19.5074 C   0  0  0  0  0  0
  -24.8777  -27.6755   19.5141 C   0  0  0  0  0  0
  -23.6156  -29.8133   20.1652 C   0  0  0  0  0  0
  -25.4098  -36.3108   24.0340 C   0  0  1  0  0  0
  -20.5863  -28.3670   23.1321 C   0  0  2  0  0  0
  -20.6762  -26.9406   22.5422 C   0  0  0  0  0  0
  -19.5742  -26.6390   21.5215 C   0  0  0  0  0  0
  -18.1919  -26.7934   22.1624 C   0  0  0  0  0  0
  -19.1520  -28.8844   23.2906 C   0  0  0  0  0  0
  -18.9454  -30.1450   23.8917 C   0  0  0  0  0  0
  -17.6451  -30.6592   24.0574 C   0  0  0  0  0  0
  -25.9025  -34.9475   23.5131 C   0  0  0  0  0  0
  -16.5346  -29.9098   23.6324 C   0  0  0  0  0  0
  -16.7262  -28.6517   23.0339 C   0  0  0  0  0  0
  -26.4466  -31.6594   25.0715 C   0  0  0  0  0  0
  -25.3737  -31.3706   26.1473 C   0  0  0  0  0  0
  -27.0293  -30.3037   24.6083 C   0  0  0  0  0  0
  -27.6047  -32.4309   25.7477 C   0  0  0  0  0  0
  -27.5581  -37.1810   24.8459 C   0  0  0  0  0  0
  -21.4138  -29.3040   22.3731 N   0  0  0  0  0  0
  -26.4284  -37.3794   23.9416 N   0  0  0  0  0  0
  -24.6693  -31.0767   22.0976 N   0  0  0  0  0  0
  -23.4175  -28.8204   23.3049 O   0  0  0  0  0  0
  -28.4017  -26.6931   20.0643 O   0  0  0  0  0  0
  -26.5596  -34.8928   22.4695 O   0  0  0  0  0  0
  -23.5343  -32.1424   23.7462 O   0  0  0  0  0  0
  -28.8025  -21.0103   19.1613 C   0  0  0  0  0  0
  -29.9991  -21.2730   19.8735 C   0  0  0  0  0  0
  -28.6047  -19.6601   19.0395 C   0  0  0  0  0  0
  -30.4760  -20.0396   20.2607 C   0  0  0  0  0  0
  -31.6908  -19.7183   21.0803 C   0  0  0  0  0  0
  -31.9859  -22.7185   19.3650 C   0  0  0  0  0  0
  -26.5121  -20.0312   17.6772 C   0  0  0  0  0  0
  -26.5946  -18.1302   19.2311 C   0  0  0  0  0  0
  -27.9737  -18.1571   17.0747 C   0  0  0  0  0  0
  -28.5304  -24.2250   20.4985 C   0  0  0  0  0  0
  -29.7806  -23.8767   19.6546 C   0  0  0  0  0  0
  -29.9635  -17.5731   19.7480 C   0  0  0  0  0  0
  -30.2068  -16.9039   21.1302 C   0  0  0  0  0  0
  -28.5062  -25.6696   21.0651 C   0  0  0  0  0  0
  -30.6346  -22.6483   20.1045 C   0  0  1  0  0  0
  -27.4685  -18.9779   18.2847 C   0  0  0  0  0  0
  -29.6665  -19.0296   19.7172 N   0  0  0  0  0  0
  -29.9323  -15.4552   21.1237 N   0  0  0  0  0  0
  -31.4722  -12.4262   19.1128 H   0  0  0  0  0  0
  -30.3396  -11.2982   19.8012 H   0  0  0  0  0  0
  -29.7275  -11.7948   17.4164 H   0  0  0  0  0  0
  -29.6610  -13.5043   17.7680 H   0  0  0  0  0  0
  -27.8204  -11.3196   18.7967 H   0  0  0  0  0  0
  -27.3685  -12.6669   17.7838 H   0  0  0  0  0  0
  -27.7105  -14.2556   19.5919 H   0  0  0  0  0  0
  -28.6831  -11.9154   21.3052 H   0  0  0  0  0  0
  -28.4630  -13.5337   21.8892 H   0  0  0  0  0  0
  -25.2727   -9.5675   22.4753 H   0  0  0  0  0  0
  -23.9993   -7.4609   22.7455 H   0  0  0  0  0  0
  -21.0814   -8.8717   19.8952 H   0  0  0  0  0  0
  -22.3645  -10.9629   19.6154 H   0  0  0  0  0  0
  -21.1990   -7.6129   23.9705 H   0  0  0  0  0  0
  -21.1499   -6.0511   25.9073 H   0  0  0  0  0  0
  -22.0603   -2.7601   23.2841 H   0  0  0  0  0  0
  -22.4080  -11.9879   22.4797 H   0  0  0  0  0  0
  -21.1096  -13.1260   22.2599 H   0  0  0  0  0  0
  -24.6573  -15.8332   20.5276 H   0  0  0  0  0  0
  -26.2721  -15.6216   20.0835 H   0  0  0  0  0  0
  -26.7112  -32.5534   23.1150 H   0  0  0  0  0  0
  -25.0040  -33.9768   25.0466 H   0  0  0  0  0  0
  -22.6951  -31.3046   21.4038 H   0  0  0  0  0  0
  -23.3741  -35.9656   23.3294 H   0  0  0  0  0  0
  -24.3584  -36.8941   22.2053 H   0  0  0  0  0  0
  -23.7239  -37.6523   23.6657 H   0  0  0  0  0  0
  -26.0392  -31.5898   20.5841 H   0  0  0  0  0  0
  -26.8220  -30.8926   21.9757 H   0  0  0  0  0  0
  -28.1084  -29.1079   21.1619 H   0  0  0  0  0  0
  -26.0879  -25.9536   19.0364 H   0  0  0  0  0  0
  -23.9885  -27.2700   19.0516 H   0  0  0  0  0  0
  -23.7260  -30.5835   19.4007 H   0  0  0  0  0  0
  -22.7396  -29.2320   19.8719 H   0  0  0  0  0  0
  -25.1265  -36.1977   25.0831 H   0  0  0  0  0  0
  -20.9953  -28.3237   24.1441 H   0  0  0  0  0  0
  -20.5663  -26.2276   23.3606 H   0  0  0  0  0  0
  -21.6640  -26.7454   22.1224 H   0  0  0  0  0  0
  -19.6905  -25.6304   21.1240 H   0  0  0  0  0  0
  -19.6679  -27.3204   20.6749 H   0  0  0  0  0  0
  -17.4189  -26.6687   21.4024 H   0  0  0  0  0  0
  -18.0311  -26.0074   22.9017 H   0  0  0  0  0  0
  -19.7929  -30.7264   24.2288 H   0  0  0  0  0  0
  -17.5014  -31.6270   24.5180 H   0  0  0  0  0  0
  -15.5346  -30.3008   23.7641 H   0  0  0  0  0  0
  -15.8664  -28.0853   22.7030 H   0  0  0  0  0  0
  -24.5882  -30.7079   25.7820 H   0  0  0  0  0  0
  -24.8960  -32.2866   26.4958 H   0  0  0  0  0  0
  -25.8095  -30.8846   27.0211 H   0  0  0  0  0  0
  -26.2833  -29.6802   24.1136 H   0  0  0  0  0  0
  -27.4069  -29.7268   25.4535 H   0  0  0  0  0  0
  -27.8665  -30.4359   23.9224 H   0  0  0  0  0  0
  -27.2671  -33.3601   26.2081 H   0  0  0  0  0  0
  -28.3844  -32.6875   25.0294 H   0  0  0  0  0  0
  -28.0724  -31.8412   26.5372 H   0  0  0  0  0  0
  -28.2588  -38.0117   24.7521 H   0  0  0  0  0  0
  -28.1083  -36.2651   24.6248 H   0  0  0  0  0  0
  -27.2315  -37.1434   25.8865 H   0  0  0  0  0  0
  -20.9292  -29.8763   21.6958 H   0  0  0  0  0  0
  -26.0173  -38.2873   24.1413 H   0  0  0  0  0  0
  -28.1629  -21.7666   18.7300 H   0  0  0  0  0  0
  -32.2465  -20.6128   21.3539 H   0  0  0  0  0  0
  -32.3710  -19.0580   20.5420 H   0  0  0  0  0  0
  -31.4118  -19.2462   22.0216 H   0  0  0  0  0  0
  -32.6725  -21.9281   19.6620 H   0  0  0  0  0  0
  -32.4935  -23.6638   19.5551 H   0  0  0  0  0  0
  -31.8448  -22.6287   18.2872 H   0  0  0  0  0  0
  -26.0651  -20.6639   18.4448 H   0  0  0  0  0  0
  -25.6903  -19.5643   17.1335 H   0  0  0  0  0  0
  -27.0276  -20.6831   16.9705 H   0  0  0  0  0  0
  -26.1398  -18.7549   20.0005 H   0  0  0  0  0  0
  -27.1406  -17.3525   19.7548 H   0  0  0  0  0  0
  -25.7825  -17.6432   18.6901 H   0  0  0  0  0  0
  -28.5327  -18.7917   16.3861 H   0  0  0  0  0  0
  -27.1406  -17.7338   16.5124 H   0  0  0  0  0  0
  -28.6210  -17.3225   17.3229 H   0  0  0  0  0  0
  -28.4668  -23.5302   21.3364 H   0  0  0  0  0  0
  -27.6308  -24.0494   19.9088 H   0  0  0  0  0  0
  -30.4280  -24.7548   19.6650 H   0  0  0  0  0  0
  -29.4930  -23.7680   18.6079 H   0  0  0  0  0  0
  -29.1528  -17.0299   19.2839 H   0  0  0  0  0  0
  -30.8249  -17.3989   19.1016 H   0  0  0  0  0  0
  -29.5576  -17.3592   21.8792 H   0  0  0  0  0  0
  -31.2333  -17.0607   21.4615 H   0  0  0  0  0  0
  -29.4224  -25.8479   21.6296 H   0  0  0  0  0  0
  -27.6967  -25.7509   21.7933 H   0  0  0  0  0  0
  -30.8285  -22.7402   21.1746 H   0  0  0  0  0  0
  -29.0352  -15.1679   21.4884 H   0  0  0  0  0  0
  1 25  1  0  0  0
  1 30  2  0  0  0
  1 88  1  0  0  0
  2  3  1  0  0  0
  2 25  1  0  0  0
  2 89  1  0  0  0
  2 90  1  0  0  0
  3  4  1  0  0  0
  3 91  1  0  0  0
  3 92  1  0  0  0
  4  5  1  0  0  0
  4 93  1  0  0  0
  4 94  1  0  0  0
  5  6  1  0  0  0
  5 26  1  0  0  0
  5 95  1  0  0  0
  6 25  1  0  0  0
  6 96  1  0  0  0
  6 97  1  0  0  0
  7  8  2  0  0  0
  7 26  1  0  0  0
  7 29  1  0  0  0
  8  9  1  0  0  0
  8 22  1  0  0  0
  9 10  1  0  0  0
  9 27  2  0  0  0
 10 11  2  0  0  0
 10 15  1  0  0  0
 11 12  1  0  0  0
 11 98  1  0  0  0
 12 13  2  0  0  0
 12 99  1  0  0  0
 13 14  1  0  0  0
 13 31  1  0  0  0
 14 15  2  0  0  0
 14100  1  0  0  0
 15101  1  0  0  0
 16 17  2  0  0  0
 16 21  1  0  0  0
 16 31  1  0  0  0
 17 18  1  0  0  0
 17102  1  0  0  0
 18 19  2  0  0  0
 18103  1  0  0  0
 19 20  1  0  0  0
 19 24  1  0  0  0
 20 21  2  0  0  0
 20104  1  0  0  0
 21 23  1  0  0  0
 22 28  1  0  0  0
 22 32  2  0  0  0
 26 27  1  0  0  0
 28105  1  0  0  0
 28106  1  0  0  0
 29107  1  0  0  0
 29108  1  0  0  0
 33 34  1  0  0  0
 33 66  1  0  0  0
 33 70  2  0  0  0
 34 36  1  0  0  0
 34 59  1  0  0  0
 34109  1  0  0  0
 35 44  2  0  0  0
 35 45  1  0  0  0
 35 68  1  0  0  0
 36 56  1  0  0  0
 36110  1  0  0  0
 37 39  1  0  0  0
 37 47  1  0  0  0
 37 66  1  0  0  0
 37111  1  0  0  0
 38 43  2  0  0  0
 38 46  1  0  0  0
 38 47  1  0  0  0
 39 64  1  0  0  0
 39 67  2  0  0  0
 40 52  1  0  0  0
 40 53  2  0  0  0
 40 58  1  0  0  0
 41112  1  0  0  0
 41113  1  0  0  0
 41114  1  0  0  0
 41 48  1  0  0  0
 42 43  1  0  0  0
 42 66  1  0  0  0
 42115  1  0  0  0
 42116  1  0  0  0
 43 44  1  0  0  0
 44117  1  0  0  0
 45 46  2  0  0  0
 45118  1  0  0  0
 46119  1  0  0  0
 47120  1  0  0  0
 47121  1  0  0  0
 48 56  1  0  0  0
 48 65  1  0  0  0
 48122  1  0  0  0
 49 50  1  0  0  0
 49 53  1  0  0  0
 49 64  1  0  0  0
 49123  1  0  0  0
 50 51  1  0  0  0
 50124  1  0  0  0
 50125  1  0  0  0
 51 52  1  0  0  0
 51126  1  0  0  0
 51127  1  0  0  0
 52128  1  0  0  0
 52129  1  0  0  0
 53 54  1  0  0  0
 54 55  2  0  0  0
 54130  1  0  0  0
 55 57  1  0  0  0
 55131  1  0  0  0
 56 69  2  0  0  0
 57 58  2  0  0  0
 57132  1  0  0  0
 58133  1  0  0  0
 59 60  1  0  0  0
 59 61  1  0  0  0
 59 62  1  0  0  0
 60134  1  0  0  0
 60135  1  0  0  0
 60136  1  0  0  0
 61137  1  0  0  0
 61138  1  0  0  0
 61139  1  0  0  0
 62140  1  0  0  0
 62141  1  0  0  0
 62142  1  0  0  0
 63 65  1  0  0  0
 63143  1  0  0  0
 63144  1  0  0  0
 63145  1  0  0  0
 64146  1  0  0  0
 65147  1  0  0  0
 68 84  1  0  0  0
 71 72  1  0  0  0
 71 73  2  0  0  0
 71148  1  0  0  0
 72 74  2  0  0  0
 72 85  1  0  0  0
 73 86  1  0  0  0
 73 87  1  0  0  0
 74 75  1  0  0  0
 74 87  1  0  0  0
 75149  1  0  0  0
 75150  1  0  0  0
 75151  1  0  0  0
 76152  1  0  0  0
 76153  1  0  0  0
 76154  1  0  0  0
 76 85  1  0  0  0
 77155  1  0  0  0
 77156  1  0  0  0
 77157  1  0  0  0
 77 86  1  0  0  0
 78 86  1  0  0  0
 78158  1  0  0  0
 78159  1  0  0  0
 78160  1  0  0  0
 79 86  1  0  0  0
 79161  1  0  0  0
 79162  1  0  0  0
 79163  1  0  0  0
 80 81  1  0  0  0
 80 84  1  0  0  0
 80164  1  0  0  0
 80165  1  0  0  0
 81 85  1  0  0  0
 81166  1  0  0  0
 81167  1  0  0  0
 82 83  1  0  0  0
 82 87  1  0  0  0
 82168  1  0  0  0
 82169  1  0  0  0
 83 88  1  0  0  0
 83170  1  0  0  0
 83171  1  0  0  0
 84172  1  0  0  0
 84173  1  0  0  0
 85174  1  0  0  0
 88175  1  0  0  0
M  ISO  4   1 100  68 101  84 101  88 100
M  END
> <chiral flag>
0

> <version>
0

> <s_m_source_file>
/data/baiqing/PycharmProjects/Reinvent-master-3.2/result/LINK_invent/BTK/process_docking_weight1_custom_sum_contain_oxygen_bond_distance_aromatic_linkinvent_7_9_3/rearranged_h_0086.sdf

> <i_m_source_file_index>
80

> <r_mmod_Potential_Energy-OPLS-2005>
-94.7255706787109

> <r_mmod_Stretch_Energy-OPLS-2005>
43.7264175415039

> <r_mmod_Bend_Energy-OPLS-2005>
121.640617370605

> <r_mmod_Torsional_Energy-OPLS-2005>
260.021423339844

> <r_mmod_Improper_Torsional_Energy-OPLS-2005>
4.46196031570435

> <r_mmod_Van_der_Waal_Energy-OPLS-2005>
129.927658081055

> <r_mmod_Electrostatic_Energy-OPLS-2005>
-471.597076416016

> <r_mmod_Solvation_Energy-OPLS-2005>
-194.722991943359

> <b_mmod_Minimization_Converged-OPLS-2005>
0

> <r_mmod_RMS_Derivative-OPLS-2005>
1.59342360496521

$$$$
81
                    3D
 Structure written by MMmdl.
169177  0  0  1  0            999 V2000
  -30.6897  -14.4946   20.5606 C   0  0  0  0  0  0
  -30.4237  -12.3331   19.4008 C   0  0  0  0  0  0
  -29.4911  -12.5376   18.1931 C   0  0  0  0  0  0
  -28.0100  -12.3895   18.6015 C   0  0  0  0  0  0
  -27.6573  -13.2156   19.8670 C   0  0  2  0  0  0
  -28.7014  -12.9961   20.9830 C   0  0  0  0  0  0
  -25.2578  -13.8242   20.5648 C   0  0  0  0  0  0
  -24.1834  -13.0511   20.9191 C   0  0  0  0  0  0
  -24.6403  -11.6977   20.8738 C   0  0  0  0  0  0
  -23.9082  -10.4359   21.0389 C   0  0  0  0  0  0
  -24.3656   -9.4263   21.9139 C   0  0  0  0  0  0
  -23.6374   -8.2274   22.0684 C   0  0  0  0  0  0
  -22.4342   -8.0317   21.3495 C   0  0  0  0  0  0
  -21.9968   -9.0274   20.4578 C   0  0  0  0  0  0
  -22.7274  -10.2170   20.3026 C   0  0  0  0  0  0
  -21.6882   -6.0777   22.5294 C   0  0  0  0  0  0
  -21.3997   -6.5667   23.8224 C   0  0  0  0  0  0
  -21.3672   -5.6806   24.9176 C   0  0  0  0  0  0
  -21.6068   -4.3068   24.7204 C   0  0  0  0  0  0
  -21.8831   -3.8164   23.4310 C   0  0  0  0  0  0
  -21.9195   -4.7008   22.3389 C   0  0  0  0  0  0
  -22.7864  -13.5273   21.1883 C   0  0  0  0  0  0
  -22.1657   -4.2204   21.0961 F   0  0  0  0  0  0
  -21.5652   -3.4531   25.7692 F   0  0  0  0  0  0
  -30.0289  -13.3118   20.4288 N   0  0  0  0  0  0
  -26.3014  -12.9404   20.3321 N   0  0  0  0  0  0
  -25.9315  -11.6570   20.5733 N   0  0  0  0  0  0
  -22.0506  -12.8213   22.0427 N   0  0  0  0  0  0
  -25.4441  -15.1954   20.3996 N   0  0  0  0  0  0
  -31.8480  -14.6561   20.1561 O   0  0  0  0  0  0
  -21.6659   -6.8927   21.4253 O   0  0  0  0  0  0
  -22.3538  -14.5580   20.6783 O   0  0  0  0  0  0
  -24.6091  -31.8671   23.2138 C   0  0  0  0  0  0
  -25.8978  -32.4829   23.8464 C   0  0  1  0  0  0
  -27.2676  -27.4621   20.1407 C   0  0  0  0  0  0
  -25.5874  -33.8640   24.2424 N   0  0  0  0  0  0
  -23.4044  -30.4887   21.5406 C   0  0  2  0  0  0
  -24.8656  -28.9420   20.1245 C   0  0  0  0  0  0
  -22.7420  -29.4691   22.4946 C   0  0  0  0  0  0
  -18.0287  -28.1422   22.8471 C   0  0  0  0  0  0
  -24.1464  -36.7336   23.2667 C   0  0  0  0  0  0
  -25.9275  -30.8439   21.3651 C   0  0  0  0  0  0
  -26.0137  -29.4755   20.7250 C   0  0  0  0  0  0
  -27.2180  -28.7432   20.7260 C   0  0  0  0  0  0
  -26.1138  -26.9350   19.5251 C   0  0  0  0  0  0
  -24.9089  -27.6695   19.5206 C   0  0  0  0  0  0
  -23.6204  -29.8023   20.1618 C   0  0  0  0  0  0
  -25.4077  -36.3151   24.0393 C   0  0  1  0  0  0
  -20.5877  -28.3715   23.1305 C   0  0  2  0  0  0
  -20.6767  -26.9432   22.5468 C   0  0  0  0  0  0
  -19.5781  -26.6408   21.5224 C   0  0  0  0  0  0
  -18.1931  -26.8000   22.1554 C   0  0  0  0  0  0
  -19.1534  -28.8876   23.2901 C   0  0  0  0  0  0
  -18.9457  -30.1467   23.8932 C   0  0  0  0  0  0
  -17.6461  -30.6603   24.0584 C   0  0  0  0  0  0
  -25.9000  -34.9489   23.5202 C   0  0  0  0  0  0
  -16.5338  -29.9112   23.6331 C   0  0  0  0  0  0
  -16.7283  -28.6538   23.0330 C   0  0  0  0  0  0
  -26.4491  -31.6602   25.0767 C   0  0  0  0  0  0
  -25.3861  -31.3616   26.1602 C   0  0  0  0  0  0
  -27.0338  -30.3061   24.6108 C   0  0  0  0  0  0
  -27.6132  -32.4348   25.7416 C   0  0  0  0  0  0
  -27.5601  -37.1802   24.8461 C   0  0  0  0  0  0
  -21.4151  -29.3058   22.3671 N   0  0  0  0  0  0
  -26.4281  -37.3821   23.9454 N   0  0  0  0  0  0
  -24.6633  -31.0854   22.0963 N   0  0  0  0  0  0
  -23.4196  -28.8252   23.3004 O   0  0  0  0  0  0
  -28.4558  -26.7747   20.1257 O   0  0  0  0  0  0
  -26.5562  -34.8934   22.4763 O   0  0  0  0  0  0
  -23.5312  -32.1355   23.7583 O   0  0  0  0  0  0
  -29.6316  -21.1982   21.2944 C   0  0  0  0  0  0
  -30.1639  -22.4945   21.5460 C   0  0  0  0  0  0
  -29.6934  -20.2136   22.3028 C   0  0  0  0  0  0
  -30.7247  -22.6620   22.8518 C   0  0  0  0  0  0
  -31.4719  -23.8929   23.3344 C   0  0  0  0  0  0
  -31.6873  -23.3801   19.8044 C   0  0  0  0  0  0
  -29.3129  -23.1771   19.1993 C   0  0  0  0  0  0
  -29.5887  -16.4425   19.6434 C   0  0  0  0  0  0
  -29.1865  -18.7939   22.0701 C   0  0  0  0  0  0
  -30.2898  -17.7043   22.2003 C   0  0  0  0  0  0
  -29.9862  -25.0378   20.7285 C   0  0  0  0  0  0
  -29.7841  -16.2304   22.1102 C   0  0  0  0  0  0
  -28.5249  -25.5550   20.8829 C   0  0  0  0  0  0
  -30.2598  -23.5259   20.3798 C   0  0  0  0  0  0
  -30.1894  -20.4791   23.5289 N   0  0  0  0  0  0
  -30.6964  -21.6817   23.7917 N   0  0  0  0  0  0
  -29.9001  -15.5801   20.7874 N   0  0  0  0  0  0
  -31.4640  -12.4530   19.0924 H   0  0  0  0  0  0
  -30.3341  -11.3147   19.7851 H   0  0  0  0  0  0
  -29.7371  -11.8228   17.4056 H   0  0  0  0  0  0
  -29.6517  -13.5276   17.7656 H   0  0  0  0  0  0
  -27.8164  -11.3322   18.7825 H   0  0  0  0  0  0
  -27.3600  -12.6770   17.7716 H   0  0  0  0  0  0
  -27.6945  -14.2664   19.5744 H   0  0  0  0  0  0
  -28.6868  -11.9582   21.3257 H   0  0  0  0  0  0
  -28.4744  -13.6098   21.8572 H   0  0  0  0  0  0
  -25.2797   -9.5799   22.4680 H   0  0  0  0  0  0
  -24.0132   -7.4693   22.7389 H   0  0  0  0  0  0
  -21.0895   -8.8825   19.8885 H   0  0  0  0  0  0
  -22.3737  -10.9719   19.6155 H   0  0  0  0  0  0
  -21.1953   -7.6165   23.9775 H   0  0  0  0  0  0
  -21.1490   -6.0469   25.9091 H   0  0  0  0  0  0
  -22.0588   -2.7629   23.2768 H   0  0  0  0  0  0
  -22.4105  -11.9833   22.4756 H   0  0  0  0  0  0
  -21.1119  -13.1186   22.2672 H   0  0  0  0  0  0
  -24.7062  -15.8790   20.5140 H   0  0  0  0  0  0
  -26.3223  -15.6016   20.1035 H   0  0  0  0  0  0
  -26.7066  -32.5576   23.1268 H   0  0  0  0  0  0
  -25.0088  -33.9800   25.0611 H   0  0  0  0  0  0
  -22.6903  -31.3027   21.3878 H   0  0  0  0  0  0
  -23.3755  -35.9636   23.3297 H   0  0  0  0  0  0
  -24.3579  -36.8961   22.2089 H   0  0  0  0  0  0
  -23.7148  -37.6513   23.6667 H   0  0  0  0  0  0
  -26.0522  -31.6060   20.5940 H   0  0  0  0  0  0
  -26.8117  -30.8989   21.9912 H   0  0  0  0  0  0
  -28.1048  -29.1559   21.1870 H   0  0  0  0  0  0
  -26.1622  -25.9704   19.0422 H   0  0  0  0  0  0
  -24.0331  -27.2501   19.0480 H   0  0  0  0  0  0
  -23.7329  -30.5630   19.3895 H   0  0  0  0  0  0
  -22.7535  -29.2115   19.8675 H   0  0  0  0  0  0
  -25.1232  -36.2058   25.0886 H   0  0  0  0  0  0
  -21.0013  -28.3338   24.1407 H   0  0  0  0  0  0
  -20.5594  -26.2362   23.3687 H   0  0  0  0  0  0
  -21.6641  -26.7422   22.1305 H   0  0  0  0  0  0
  -19.6935  -25.6322   21.1250 H   0  0  0  0  0  0
  -19.6782  -27.3213   20.6762 H   0  0  0  0  0  0
  -17.4263  -26.6874   21.3877 H   0  0  0  0  0  0
  -18.0209  -26.0093   22.8874 H   0  0  0  0  0  0
  -19.7927  -30.7274   24.2337 H   0  0  0  0  0  0
  -17.5004  -31.6264   24.5221 H   0  0  0  0  0  0
  -15.5344  -30.3008   23.7655 H   0  0  0  0  0  0
  -15.8688  -28.0871   22.7007 H   0  0  0  0  0  0
  -24.6121  -30.6817   25.8034 H   0  0  0  0  0  0
  -24.8940  -32.2687   26.5113 H   0  0  0  0  0  0
  -25.8358  -30.8855   27.0329 H   0  0  0  0  0  0
  -26.2803  -29.6728   24.1417 H   0  0  0  0  0  0
  -27.4402  -29.7405   25.4509 H   0  0  0  0  0  0
  -27.8520  -30.4418   23.9035 H   0  0  0  0  0  0
  -27.2778  -33.3592   26.2135 H   0  0  0  0  0  0
  -28.3764  -32.7024   25.0092 H   0  0  0  0  0  0
  -28.1031  -31.8434   26.5165 H   0  0  0  0  0  0
  -28.2644  -38.0082   24.7497 H   0  0  0  0  0  0
  -28.1057  -36.2623   24.6225 H   0  0  0  0  0  0
  -27.2373  -37.1400   25.8881 H   0  0  0  0  0  0
  -20.9352  -29.8745   21.6829 H   0  0  0  0  0  0
  -26.0207  -38.2911   24.1472 H   0  0  0  0  0  0
  -29.2218  -20.9186   20.3386 H   0  0  0  0  0  0
  -32.1501  -24.2872   22.5821 H   0  0  0  0  0  0
  -32.0926  -23.6603   24.2036 H   0  0  0  0  0  0
  -30.7665  -24.6600   23.6537 H   0  0  0  0  0  0
  -31.8233  -22.3867   19.3716 H   0  0  0  0  0  0
  -32.4681  -23.4946   20.5534 H   0  0  0  0  0  0
  -31.8934  -24.0970   19.0091 H   0  0  0  0  0  0
  -29.6055  -22.2636   18.6809 H   0  0  0  0  0  0
  -29.3175  -23.9623   18.4408 H   0  0  0  0  0  0
  -28.2820  -23.0383   19.5199 H   0  0  0  0  0  0
  -28.6651  -16.9939   19.8165 H   0  0  0  0  0  0
  -29.4394  -15.8610   18.7328 H   0  0  0  0  0  0
  -30.3996  -17.1444   19.4444 H   0  0  0  0  0  0
  -28.7200  -18.7474   21.0904 H   0  0  0  0  0  0
  -28.3857  -18.6042   22.7852 H   0  0  0  0  0  0
  -30.7450  -17.8311   23.1846 H   0  0  0  0  0  0
  -31.1036  -17.8947   21.5009 H   0  0  0  0  0  0
  -30.5897  -25.4240   21.5442 H   0  0  0  0  0  0
  -30.3907  -25.5995   19.8860 H   0  0  0  0  0  0
  -28.7405  -16.1842   22.4270 H   0  0  0  0  0  0
  -30.3282  -15.6364   22.8461 H   0  0  0  0  0  0
  -28.3028  -25.7372   21.9420 H   0  0  0  0  0  0
  -27.7725  -24.8479   20.5326 H   0  0  0  0  0  0
  1 25  1  0  0  0
  1 30  2  0  0  0
  1 87  1  0  0  0
  2  3  1  0  0  0
  2 25  1  0  0  0
  2 88  1  0  0  0
  2 89  1  0  0  0
  3  4  1  0  0  0
  3 90  1  0  0  0
  3 91  1  0  0  0
  4  5  1  0  0  0
  4 92  1  0  0  0
  4 93  1  0  0  0
  5  6  1  0  0  0
  5 26  1  0  0  0
  5 94  1  0  0  0
  6 25  1  0  0  0
  6 95  1  0  0  0
  6 96  1  0  0  0
  7  8  2  0  0  0
  7 26  1  0  0  0
  7 29  1  0  0  0
  8  9  1  0  0  0
  8 22  1  0  0  0
  9 10  1  0  0  0
  9 27  2  0  0  0
 10 11  2  0  0  0
 10 15  1  0  0  0
 11 12  1  0  0  0
 11 97  1  0  0  0
 12 13  2  0  0  0
 12 98  1  0  0  0
 13 14  1  0  0  0
 13 31  1  0  0  0
 14 15  2  0  0  0
 14 99  1  0  0  0
 15100  1  0  0  0
 16 17  2  0  0  0
 16 21  1  0  0  0
 16 31  1  0  0  0
 17 18  1  0  0  0
 17101  1  0  0  0
 18 19  2  0  0  0
 18102  1  0  0  0
 19 20  1  0  0  0
 19 24  1  0  0  0
 20 21  2  0  0  0
 20103  1  0  0  0
 21 23  1  0  0  0
 22 28  1  0  0  0
 22 32  2  0  0  0
 26 27  1  0  0  0
 28104  1  0  0  0
 28105  1  0  0  0
 29106  1  0  0  0
 29107  1  0  0  0
 33 34  1  0  0  0
 33 66  1  0  0  0
 33 70  2  0  0  0
 34 36  1  0  0  0
 34 59  1  0  0  0
 34108  1  0  0  0
 35 44  2  0  0  0
 35 45  1  0  0  0
 35 68  1  0  0  0
 36 56  1  0  0  0
 36109  1  0  0  0
 37 39  1  0  0  0
 37 47  1  0  0  0
 37 66  1  0  0  0
 37110  1  0  0  0
 38 43  2  0  0  0
 38 46  1  0  0  0
 38 47  1  0  0  0
 39 64  1  0  0  0
 39 67  2  0  0  0
 40 52  1  0  0  0
 40 53  2  0  0  0
 40 58  1  0  0  0
 41111  1  0  0  0
 41112  1  0  0  0
 41113  1  0  0  0
 41 48  1  0  0  0
 42 43  1  0  0  0
 42 66  1  0  0  0
 42114  1  0  0  0
 42115  1  0  0  0
 43 44  1  0  0  0
 44116  1  0  0  0
 45 46  2  0  0  0
 45117  1  0  0  0
 46118  1  0  0  0
 47119  1  0  0  0
 47120  1  0  0  0
 48 56  1  0  0  0
 48 65  1  0  0  0
 48121  1  0  0  0
 49 50  1  0  0  0
 49 53  1  0  0  0
 49 64  1  0  0  0
 49122  1  0  0  0
 50 51  1  0  0  0
 50123  1  0  0  0
 50124  1  0  0  0
 51 52  1  0  0  0
 51125  1  0  0  0
 51126  1  0  0  0
 52127  1  0  0  0
 52128  1  0  0  0
 53 54  1  0  0  0
 54 55  2  0  0  0
 54129  1  0  0  0
 55 57  1  0  0  0
 55130  1  0  0  0
 56 69  2  0  0  0
 57 58  2  0  0  0
 57131  1  0  0  0
 58132  1  0  0  0
 59 60  1  0  0  0
 59 61  1  0  0  0
 59 62  1  0  0  0
 60133  1  0  0  0
 60134  1  0  0  0
 60135  1  0  0  0
 61136  1  0  0  0
 61137  1  0  0  0
 61138  1  0  0  0
 62139  1  0  0  0
 62140  1  0  0  0
 62141  1  0  0  0
 63 65  1  0  0  0
 63142  1  0  0  0
 63143  1  0  0  0
 63144  1  0  0  0
 64145  1  0  0  0
 65146  1  0  0  0
 68 83  1  0  0  0
 71 72  2  0  0  0
 71 73  1  0  0  0
 71147  1  0  0  0
 72 74  1  0  0  0
 72 84  1  0  0  0
 73 79  1  0  0  0
 73 85  2  0  0  0
 74 75  1  0  0  0
 74 86  2  0  0  0
 75148  1  0  0  0
 75149  1  0  0  0
 75150  1  0  0  0
 76151  1  0  0  0
 76152  1  0  0  0
 76153  1  0  0  0
 76 84  1  0  0  0
 77 84  1  0  0  0
 77154  1  0  0  0
 77155  1  0  0  0
 77156  1  0  0  0
 78 87  1  0  0  0
 78157  1  0  0  0
 78158  1  0  0  0
 78159  1  0  0  0
 79 80  1  0  0  0
 79160  1  0  0  0
 79161  1  0  0  0
 80 82  1  0  0  0
 80162  1  0  0  0
 80163  1  0  0  0
 81 83  1  0  0  0
 81 84  1  0  0  0
 81164  1  0  0  0
 81165  1  0  0  0
 82 87  1  0  0  0
 82166  1  0  0  0
 82167  1  0  0  0
 83168  1  0  0  0
 83169  1  0  0  0
 85 86  1  0  0  0
M  ISO  4   1 100  68 101  83 101  87 100
M  END
> <chiral flag>
0

> <version>
0

> <s_m_source_file>
/data/baiqing/PycharmProjects/Reinvent-master-3.2/result/LINK_invent/BTK/process_docking_weight1_custom_sum_contain_oxygen_bond_distance_aromatic_linkinvent_7_9_3/rearranged_h_0086.sdf

> <i_m_source_file_index>
81

> <r_mmod_Potential_Energy-OPLS-2005>
201.854461669922

> <r_mmod_Stretch_Energy-OPLS-2005>
48.4680404663086

> <r_mmod_Bend_Energy-OPLS-2005>
131.832565307617

> <r_mmod_Torsional_Energy-OPLS-2005>
342.773773193359

> <r_mmod_Improper_Torsional_Energy-OPLS-2005>
12.8637437820435

> <r_mmod_Van_der_Waal_Energy-OPLS-2005>
165.65803527832

> <r_mmod_Electrostatic_Energy-OPLS-2005>
-299.786834716797

> <r_mmod_Solvation_Energy-OPLS-2005>
-215.146835327148

> <b_mmod_Minimization_Converged-OPLS-2005>
0

> <r_mmod_RMS_Derivative-OPLS-2005>
6.0045747756958

$$$$
82
                    3D
 Structure written by MMmdl.
154162  0  0  1  0            999 V2000
  -30.5487  -14.9810   20.4089 C   0  0  0  0  0  0
  -30.4389  -12.6085   19.5144 C   0  0  0  0  0  0
  -29.5343  -12.5383   18.2634 C   0  0  0  0  0  0
  -28.0666  -12.3139   18.6785 C   0  0  0  0  0  0
  -27.6283  -13.2544   19.8349 C   0  0  2  0  0  0
  -28.6671  -13.3140   20.9747 C   0  0  0  0  0  0
  -25.2460  -13.8224   20.5731 C   0  0  0  0  0  0
  -24.1791  -13.0446   20.9259 C   0  0  0  0  0  0
  -24.6398  -11.6939   20.8773 C   0  0  0  0  0  0
  -23.9085  -10.4305   21.0416 C   0  0  0  0  0  0
  -24.3639   -9.4219   21.9184 C   0  0  0  0  0  0
  -23.6312   -8.2249   22.0762 C   0  0  0  0  0  0
  -22.4286   -8.0302   21.3555 C   0  0  0  0  0  0
  -21.9920   -9.0280   20.4668 C   0  0  0  0  0  0
  -22.7254  -10.2153   20.3059 C   0  0  0  0  0  0
  -21.6847   -6.0758   22.5293 C   0  0  0  0  0  0
  -21.4023   -6.5655   23.8233 C   0  0  0  0  0  0
  -21.3654   -5.6802   24.9189 C   0  0  0  0  0  0
  -21.6025   -4.3056   24.7225 C   0  0  0  0  0  0
  -21.8813   -3.8168   23.4346 C   0  0  0  0  0  0
  -21.9191   -4.6984   22.3414 C   0  0  0  0  0  0
  -22.7801  -13.5244   21.1867 C   0  0  0  0  0  0
  -22.1653   -4.2180   21.0980 F   0  0  0  0  0  0
  -21.5617   -3.4528   25.7740 F   0  0  0  0  0  0
  -29.9381  -13.7250   20.3700 N   0  0  0  0  0  0
  -26.2883  -12.9467   20.3234 N   0  0  0  0  0  0
  -25.9331  -11.6582   20.5717 N   0  0  0  0  0  0
  -22.0410  -12.8271   22.0402 N   0  0  0  0  0  0
  -25.4085  -15.1956   20.4175 N   0  0  0  0  0  0
  -31.7613  -15.0021   20.1784 O   0  0  0  0  0  0
  -21.6649   -6.8896   21.4261 O   0  0  0  0  0  0
  -22.3514  -14.5531   20.6679 O   0  0  0  0  0  0
  -24.6434  -31.8428   23.1877 C   0  0  0  0  0  0
  -25.9201  -32.4700   23.8262 C   0  0  1  0  0  0
  -27.2048  -27.1055   20.1645 C   0  0  0  0  0  0
  -25.5949  -33.8505   24.2190 N   0  0  0  0  0  0
  -23.4476  -30.4630   21.5339 C   0  0  2  0  0  0
  -24.8956  -28.8828   20.1125 C   0  0  0  0  0  0
  -22.7551  -29.4545   22.4840 C   0  0  0  0  0  0
  -18.0301  -28.1390   22.8468 C   0  0  0  0  0  0
  -24.1491  -36.7241   23.2638 C   0  0  0  0  0  0
  -26.0052  -30.7072   21.3896 C   0  0  0  0  0  0
  -26.0749  -29.3145   20.7321 C   0  0  0  0  0  0
  -27.2307  -28.4436   20.7391 C   0  0  0  0  0  0
  -26.0024  -26.7824   19.4998 C   0  0  0  0  0  0
  -24.8748  -27.6309   19.4790 C   0  0  0  0  0  0
  -23.6752  -29.7903   20.1543 C   0  0  0  0  0  0
  -25.4127  -36.3026   24.0308 C   0  0  1  0  0  0
  -20.5912  -28.3724   23.1218 C   0  0  2  0  0  0
  -20.6793  -26.9427   22.5403 C   0  0  0  0  0  0
  -19.5779  -26.6381   21.5199 C   0  0  0  0  0  0
  -18.1956  -26.7931   22.1609 C   0  0  0  0  0  0
  -19.1558  -28.8875   23.2840 C   0  0  0  0  0  0
  -18.9470  -30.1468   23.8878 C   0  0  0  0  0  0
  -17.6476  -30.6595   24.0555 C   0  0  0  0  0  0
  -25.9079  -34.9404   23.5058 C   0  0  0  0  0  0
  -16.5366  -29.9099   23.6335 C   0  0  0  0  0  0
  -16.7279  -28.6502   23.0368 C   0  0  0  0  0  0
  -26.4523  -31.6569   25.0703 C   0  0  0  0  0  0
  -25.3714  -31.3746   26.1402 C   0  0  0  0  0  0
  -27.0399  -30.2976   24.6277 C   0  0  0  0  0  0
  -27.6055  -32.4333   25.7495 C   0  0  0  0  0  0
  -27.5575  -37.1772   24.8456 C   0  0  0  0  0  0
  -21.4245  -29.3050   22.3587 N   0  0  0  0  0  0
  -26.4281  -37.3746   23.9407 N   0  0  0  0  0  0
  -24.7190  -31.0259   22.0927 N   0  0  0  0  0  0
  -23.4188  -28.8091   23.2991 O   0  0  0  0  0  0
  -28.2430  -26.1012   20.2528 O   0  0  0  0  0  0
  -26.5666  -34.8892   22.4641 O   0  0  0  0  0  0
  -23.5550  -32.1308   23.7092 O   0  0  0  0  0  0
  -29.6362  -20.4949   20.4411 C   0  0  0  0  0  0
  -27.3584  -21.1651   20.4234 C   0  0  0  0  0  0
  -28.6892  -21.6416   20.4222 C   0  0  0  0  0  0
  -29.2329  -19.0633   20.4402 C   0  0  0  0  0  0
  -30.2625  -23.5337   19.5840 C   0  0  0  0  0  0
  -30.9173  -17.8966   18.9394 C   0  0  0  0  0  0
  -27.9515  -24.5587   20.1512 C   0  0  0  0  0  0
  -29.0244  -23.2765   20.4533 C   0  0  1  0  0  0
  -30.2165  -17.7342   20.3041 C   0  0  2  0  0  0
  -27.0093  -19.8403   20.4296 N   0  0  0  0  0  0
  -27.8988  -18.8246   20.4210 N   0  0  0  0  0  0
  -29.8047  -16.2014   20.4843 N   0  0  0  0  0  0
  -31.4809  -12.7553   19.2214 H   0  0  0  0  0  0
  -30.4213  -11.6646   20.0620 H   0  0  0  0  0  0
  -29.8686  -11.7399   17.5998 H   0  0  0  0  0  0
  -29.6239  -13.4685   17.6979 H   0  0  0  0  0  0
  -27.9776  -11.2765   19.0016 H   0  0  0  0  0  0
  -27.4053  -12.4257   17.8189 H   0  0  0  0  0  0
  -27.5853  -14.2522   19.3959 H   0  0  0  0  0  0
  -28.7638  -12.3515   21.4785 H   0  0  0  0  0  0
  -28.3612  -14.0322   21.7376 H   0  0  0  0  0  0
  -25.2773   -9.5702   22.4768 H   0  0  0  0  0  0
  -24.0022   -7.4637   22.7476 H   0  0  0  0  0  0
  -21.0832   -8.8815   19.8976 H   0  0  0  0  0  0
  -22.3705  -10.9710   19.6186 H   0  0  0  0  0  0
  -21.2022   -7.6159   23.9747 H   0  0  0  0  0  0
  -21.1475   -6.0527   25.9094 H   0  0  0  0  0  0
  -22.0585   -2.7627   23.2839 H   0  0  0  0  0  0
  -22.3990  -11.9985   22.4913 H   0  0  0  0  0  0
  -21.1025  -13.1358   22.2528 H   0  0  0  0  0  0
  -24.6353  -15.8394   20.5331 H   0  0  0  0  0  0
  -26.2513  -15.6496   20.0880 H   0  0  0  0  0  0
  -26.7256  -32.5289   23.0972 H   0  0  0  0  0  0
  -25.0072  -33.9654   25.0318 H   0  0  0  0  0  0
  -22.7501  -31.2901   21.3795 H   0  0  0  0  0  0
  -23.3767  -35.9555   23.3277 H   0  0  0  0  0  0
  -24.3569  -36.8906   22.2056 H   0  0  0  0  0  0
  -23.7241  -37.6422   23.6697 H   0  0  0  0  0  0
  -26.1622  -31.4549   20.6121 H   0  0  0  0  0  0
  -26.8777  -30.7626   22.0299 H   0  0  0  0  0  0
  -28.1264  -28.7643   21.2504 H   0  0  0  0  0  0
  -25.8962  -25.8245   19.0133 H   0  0  0  0  0  0
  -23.9727  -27.2960   18.9859 H   0  0  0  0  0  0
  -23.8178  -30.5650   19.4007 H   0  0  0  0  0  0
  -22.7877  -29.2378   19.8401 H   0  0  0  0  0  0
  -25.1320  -36.1848   25.0800 H   0  0  0  0  0  0
  -21.0006  -28.3333   24.1337 H   0  0  0  0  0  0
  -20.5683  -26.2335   23.3621 H   0  0  0  0  0  0
  -21.6664  -26.7456   22.1203 H   0  0  0  0  0  0
  -19.6959  -25.6282   21.1263 H   0  0  0  0  0  0
  -19.6734  -27.3160   20.6698 H   0  0  0  0  0  0
  -17.4226  -26.6648   21.4016 H   0  0  0  0  0  0
  -18.0375  -26.0079   22.9014 H   0  0  0  0  0  0
  -19.7955  -30.7280   24.2236 H   0  0  0  0  0  0
  -17.5041  -31.6283   24.5158 H   0  0  0  0  0  0
  -15.5366  -30.3010   23.7674 H   0  0  0  0  0  0
  -15.8671  -28.0828   22.7121 H   0  0  0  0  0  0
  -24.5865  -30.7155   25.7681 H   0  0  0  0  0  0
  -24.8937  -32.2927   26.4819 H   0  0  0  0  0  0
  -25.7986  -30.8887   27.0185 H   0  0  0  0  0  0
  -26.3019  -29.6695   24.1283 H   0  0  0  0  0  0
  -27.4018  -29.7278   25.4841 H   0  0  0  0  0  0
  -27.8913  -30.4220   23.9594 H   0  0  0  0  0  0
  -27.2654  -33.3640   26.2040 H   0  0  0  0  0  0
  -28.3878  -32.6897   25.0344 H   0  0  0  0  0  0
  -28.0704  -31.8485   26.5438 H   0  0  0  0  0  0
  -28.2570  -38.0089   24.7523 H   0  0  0  0  0  0
  -28.1099  -36.2621   24.6267 H   0  0  0  0  0  0
  -27.2284  -37.1391   25.8854 H   0  0  0  0  0  0
  -20.9437  -29.8747   21.6768 H   0  0  0  0  0  0
  -26.0141  -38.2801   24.1451 H   0  0  0  0  0  0
  -30.6953  -20.7052   20.4431 H   0  0  0  0  0  0
  -26.5332  -21.8592   20.4392 H   0  0  0  0  0  0
  -31.0866  -22.8692   19.8436 H   0  0  0  0  0  0
  -30.6172  -24.5581   19.7078 H   0  0  0  0  0  0
  -30.0284  -23.3926   18.5293 H   0  0  0  0  0  0
  -31.4303  -18.8584   18.8801 H   0  0  0  0  0  0
  -30.1979  -17.8651   18.1198 H   0  0  0  0  0  0
  -31.6688  -17.1336   18.7512 H   0  0  0  0  0  0
  -27.0848  -24.3847   20.7885 H   0  0  0  0  0  0
  -27.5869  -24.3931   19.1376 H   0  0  0  0  0  0
  -29.3329  -23.4344   21.4887 H   0  0  0  0  0  0
  -30.9820  -17.8912   21.0664 H   0  0  0  0  0  0
  -28.8148  -16.0769   20.6354 H   0  0  0  0  0  0
  1 25  1  0  0  0
  1 30  2  0  0  0
  1 82  1  0  0  0
  2  3  1  0  0  0
  2 25  1  0  0  0
  2 83  1  0  0  0
  2 84  1  0  0  0
  3  4  1  0  0  0
  3 85  1  0  0  0
  3 86  1  0  0  0
  4  5  1  0  0  0
  4 87  1  0  0  0
  4 88  1  0  0  0
  5  6  1  0  0  0
  5 26  1  0  0  0
  5 89  1  0  0  0
  6 25  1  0  0  0
  6 90  1  0  0  0
  6 91  1  0  0  0
  7  8  2  0  0  0
  7 26  1  0  0  0
  7 29  1  0  0  0
  8  9  1  0  0  0
  8 22  1  0  0  0
  9 10  1  0  0  0
  9 27  2  0  0  0
 10 11  2  0  0  0
 10 15  1  0  0  0
 11 12  1  0  0  0
 11 92  1  0  0  0
 12 13  2  0  0  0
 12 93  1  0  0  0
 13 14  1  0  0  0
 13 31  1  0  0  0
 14 15  2  0  0  0
 14 94  1  0  0  0
 15 95  1  0  0  0
 16 17  2  0  0  0
 16 21  1  0  0  0
 16 31  1  0  0  0
 17 18  1  0  0  0
 17 96  1  0  0  0
 18 19  2  0  0  0
 18 97  1  0  0  0
 19 20  1  0  0  0
 19 24  1  0  0  0
 20 21  2  0  0  0
 20 98  1  0  0  0
 21 23  1  0  0  0
 22 28  1  0  0  0
 22 32  2  0  0  0
 26 27  1  0  0  0
 28 99  1  0  0  0
 28100  1  0  0  0
 29101  1  0  0  0
 29102  1  0  0  0
 33 34  1  0  0  0
 33 66  1  0  0  0
 33 70  2  0  0  0
 34 36  1  0  0  0
 34 59  1  0  0  0
 34103  1  0  0  0
 35 44  2  0  0  0
 35 45  1  0  0  0
 35 68  1  0  0  0
 36 56  1  0  0  0
 36104  1  0  0  0
 37 39  1  0  0  0
 37 47  1  0  0  0
 37 66  1  0  0  0
 37105  1  0  0  0
 38 43  2  0  0  0
 38 46  1  0  0  0
 38 47  1  0  0  0
 39 64  1  0  0  0
 39 67  2  0  0  0
 40 52  1  0  0  0
 40 53  2  0  0  0
 40 58  1  0  0  0
 41106  1  0  0  0
 41107  1  0  0  0
 41108  1  0  0  0
 41 48  1  0  0  0
 42 43  1  0  0  0
 42 66  1  0  0  0
 42109  1  0  0  0
 42110  1  0  0  0
 43 44  1  0  0  0
 44111  1  0  0  0
 45 46  2  0  0  0
 45112  1  0  0  0
 46113  1  0  0  0
 47114  1  0  0  0
 47115  1  0  0  0
 48 56  1  0  0  0
 48 65  1  0  0  0
 48116  1  0  0  0
 49 50  1  0  0  0
 49 53  1  0  0  0
 49 64  1  0  0  0
 49117  1  0  0  0
 50 51  1  0  0  0
 50118  1  0  0  0
 50119  1  0  0  0
 51 52  1  0  0  0
 51120  1  0  0  0
 51121  1  0  0  0
 52122  1  0  0  0
 52123  1  0  0  0
 53 54  1  0  0  0
 54 55  2  0  0  0
 54124  1  0  0  0
 55 57  1  0  0  0
 55125  1  0  0  0
 56 69  2  0  0  0
 57 58  2  0  0  0
 57126  1  0  0  0
 58127  1  0  0  0
 59 60  1  0  0  0
 59 61  1  0  0  0
 59 62  1  0  0  0
 60128  1  0  0  0
 60129  1  0  0  0
 60130  1  0  0  0
 61131  1  0  0  0
 61132  1  0  0  0
 61133  1  0  0  0
 62134  1  0  0  0
 62135  1  0  0  0
 62136  1  0  0  0
 63 65  1  0  0  0
 63137  1  0  0  0
 63138  1  0  0  0
 63139  1  0  0  0
 64140  1  0  0  0
 65141  1  0  0  0
 68 77  1  0  0  0
 71 73  2  0  0  0
 71 74  1  0  0  0
 71142  1  0  0  0
 72 73  1  0  0  0
 72 80  2  0  0  0
 72143  1  0  0  0
 73 78  1  0  0  0
 74 79  1  0  0  0
 74 81  2  0  0  0
 75144  1  0  0  0
 75145  1  0  0  0
 75146  1  0  0  0
 75 78  1  0  0  0
 76147  1  0  0  0
 76148  1  0  0  0
 76149  1  0  0  0
 76 79  1  0  0  0
 77 78  1  0  0  0
 77150  1  0  0  0
 77151  1  0  0  0
 78152  1  0  0  0
 79 82  1  0  0  0
 79153  1  0  0  0
 80 81  1  0  0  0
 82154  1  0  0  0
M  ISO  4   1 100  68 101  77 101  82 100
M  END
> <chiral flag>
0

> <version>
0

> <s_m_source_file>
/data/baiqing/PycharmProjects/Reinvent-master-3.2/result/LINK_invent/BTK/process_docking_weight1_custom_sum_contain_oxygen_bond_distance_aromatic_linkinvent_7_9_3/rearranged_h_0086.sdf

> <i_m_source_file_index>
82

> <r_mmod_Potential_Energy-OPLS-2005>
493.265533447266

> <r_mmod_Stretch_Energy-OPLS-2005>
281.298797607422

> <r_mmod_Bend_Energy-OPLS-2005>
256.898101806641

> <r_mmod_Torsional_Energy-OPLS-2005>
201.201736450195

> <r_mmod_Improper_Torsional_Energy-OPLS-2005>
5.04826211929321

> <r_mmod_Van_der_Waal_Energy-OPLS-2005>
129.078887939453

> <r_mmod_Electrostatic_Energy-OPLS-2005>
-379.063751220703

> <r_mmod_Solvation_Energy-OPLS-2005>
-221.261306762695

> <b_mmod_Minimization_Converged-OPLS-2005>
0

> <r_mmod_RMS_Derivative-OPLS-2005>
3.57454586029053

$$$$
83
                    3D
 Structure written by MMmdl.
170178  0  0  1  0            999 V2000
  -30.7777  -14.2975   20.7422 C   0  0  0  0  0  0
  -30.4244  -12.2743   19.3816 C   0  0  0  0  0  0
  -29.4859  -12.5478   18.1905 C   0  0  0  0  0  0
  -28.0102  -12.3955   18.6021 C   0  0  0  0  0  0
  -27.6743  -13.1971   19.8848 C   0  0  2  0  0  0
  -28.7060  -12.8949   20.9939 C   0  0  0  0  0  0
  -25.2637  -13.8146   20.5676 C   0  0  0  0  0  0
  -24.1873  -13.0430   20.9161 C   0  0  0  0  0  0
  -24.6417  -11.6890   20.8720 C   0  0  0  0  0  0
  -23.9079  -10.4286   21.0411 C   0  0  0  0  0  0
  -24.3619   -9.4194   21.9195 C   0  0  0  0  0  0
  -23.6291   -8.2227   22.0752 C   0  0  0  0  0  0
  -22.4264   -8.0283   21.3543 C   0  0  0  0  0  0
  -21.9906   -9.0272   20.4644 C   0  0  0  0  0  0
  -22.7254  -10.2141   20.3059 C   0  0  0  0  0  0
  -21.6846   -6.0722   22.5281 C   0  0  0  0  0  0
  -21.4024   -6.5634   23.8212 C   0  0  0  0  0  0
  -21.3670   -5.6788   24.9178 C   0  0  0  0  0  0
  -21.6043   -4.3048   24.7226 C   0  0  0  0  0  0
  -21.8823   -3.8138   23.4349 C   0  0  0  0  0  0
  -21.9194   -4.6952   22.3398 C   0  0  0  0  0  0
  -22.7893  -13.5229   21.1854 C   0  0  0  0  0  0
  -22.1655   -4.2143   21.0974 F   0  0  0  0  0  0
  -21.5637   -3.4528   25.7741 F   0  0  0  0  0  0
  -30.0672  -13.1745   20.4828 N   0  0  0  0  0  0
  -26.3084  -12.9311   20.3380 N   0  0  0  0  0  0
  -25.9325  -11.6458   20.5699 N   0  0  0  0  0  0
  -22.0503  -12.8240   22.0410 N   0  0  0  0  0  0
  -25.4373  -15.1856   20.4111 N   0  0  0  0  0  0
  -31.7117  -14.7108   20.0449 O   0  0  0  0  0  0
  -21.6628   -6.8877   21.4244 O   0  0  0  0  0  0
  -22.3564  -14.5525   20.6703 O   0  0  0  0  0  0
  -24.6082  -31.8746   23.2148 C   0  0  0  0  0  0
  -25.8996  -32.4867   23.8434 C   0  0  1  0  0  0
  -27.2356  -27.4827   20.0842 C   0  0  0  0  0  0
  -25.5883  -33.8664   24.2358 N   0  0  0  0  0  0
  -23.3937  -30.4941   21.5577 C   0  0  2  0  0  0
  -24.8422  -28.9659   20.1200 C   0  0  0  0  0  0
  -22.7405  -29.4655   22.5041 C   0  0  0  0  0  0
  -18.0287  -28.1353   22.8471 C   0  0  0  0  0  0
  -24.1481  -36.7315   23.2625 C   0  0  0  0  0  0
  -25.9182  -30.8494   21.3638 C   0  0  0  0  0  0
  -25.9983  -29.4867   20.7148 C   0  0  0  0  0  0
  -27.1984  -28.7476   20.7028 C   0  0  0  0  0  0
  -26.0722  -26.9737   19.4717 C   0  0  0  0  0  0
  -24.8695  -27.7050   19.4996 C   0  0  0  0  0  0
  -23.5995  -29.8254   20.1715 C   0  0  0  0  0  0
  -25.4113  -36.3138   24.0333 C   0  0  1  0  0  0
  -20.5863  -28.3672   23.1363 C   0  0  2  0  0  0
  -20.6813  -26.9412   22.5449 C   0  0  0  0  0  0
  -19.5829  -26.6419   21.5215 C   0  0  0  0  0  0
  -18.2001  -26.7915   22.1604 C   0  0  0  0  0  0
  -19.1511  -28.8843   23.2885 C   0  0  0  0  0  0
  -18.9394  -30.1456   23.8867 C   0  0  0  0  0  0
  -17.6392  -30.6576   24.0505 C   0  0  0  0  0  0
  -25.9045  -34.9508   23.5145 C   0  0  0  0  0  0
  -16.5305  -29.9034   23.6281 C   0  0  0  0  0  0
  -16.7268  -28.6438   23.0329 C   0  0  0  0  0  0
  -26.4464  -31.6617   25.0730 C   0  0  0  0  0  0
  -25.3732  -31.3712   26.1475 C   0  0  0  0  0  0
  -27.0290  -30.3070   24.6074 C   0  0  0  0  0  0
  -27.6068  -32.4319   25.7450 C   0  0  0  0  0  0
  -27.5586  -37.1816   24.8464 C   0  0  0  0  0  0
  -21.4141  -29.3053   22.3800 N   0  0  0  0  0  0
  -26.4305  -37.3818   23.9402 N   0  0  0  0  0  0
  -24.6578  -31.0852   22.1054 N   0  0  0  0  0  0
  -23.4190  -28.8188   23.3051 O   0  0  0  0  0  0
  -28.3986  -26.7580   20.0773 O   0  0  0  0  0  0
  -26.5593  -34.8936   22.4693 O   0  0  0  0  0  0
  -23.5285  -32.1540   23.7562 O   0  0  0  0  0  0
  -25.5555  -21.8706   20.3016 C   0  0  0  0  0  0
  -27.7519  -21.3153   21.1249 C   0  0  0  0  0  0
  -26.7276  -22.2660   20.9791 C   0  0  0  0  0  0
  -25.4567  -20.5537   19.8201 C   0  0  0  0  0  0
  -27.5874  -20.0307   20.5793 C   0  0  0  0  0  0
  -24.2082  -20.0836   19.1026 C   0  0  0  0  0  0
  -25.6319  -24.4480   21.7470 C   0  0  0  0  0  0
  -30.0774  -19.5531   20.3657 C   0  0  0  0  0  0
  -28.8965  -16.7695   22.0474 C   0  0  0  0  0  0
  -28.6216  -18.2805   22.0826 C   0  0  0  0  0  0
  -27.9405  -24.4136   20.5808 C   0  0  0  0  0  0
  -30.3765  -16.3464   22.0727 C   0  0  0  0  0  0
  -28.4532  -25.7693   21.1019 C   0  0  0  0  0  0
  -26.9500  -23.6781   21.5091 C   0  0  2  0  0  0
  -28.6862  -18.9767   20.7007 C   0  0  1  0  0  0
  -26.4526  -19.6518   19.9491 N   0  0  0  0  0  0
  -30.4063  -14.9073   21.8697 N   0  0  0  0  0  0
  -31.4667  -12.3946   19.0791 H   0  0  0  0  0  0
  -30.3334  -11.2389   19.7145 H   0  0  0  0  0  0
  -29.7138  -11.8653   17.3711 H   0  0  0  0  0  0
  -29.6631  -13.5569   17.8114 H   0  0  0  0  0  0
  -27.8136  -11.3343   18.7612 H   0  0  0  0  0  0
  -27.3554  -12.7075   17.7882 H   0  0  0  0  0  0
  -27.7476  -14.2573   19.6376 H   0  0  0  0  0  0
  -28.6466  -11.8442   21.2823 H   0  0  0  0  0  0
  -28.4412  -13.4518   21.8933 H   0  0  0  0  0  0
  -25.2749   -9.5647   22.4798 H   0  0  0  0  0  0
  -23.9988   -7.4595   22.7450 H   0  0  0  0  0  0
  -21.0848   -8.8808   19.8942 H   0  0  0  0  0  0
  -22.3732  -10.9692   19.6176 H   0  0  0  0  0  0
  -21.2022   -7.6143   23.9725 H   0  0  0  0  0  0
  -21.1491   -6.0511   25.9085 H   0  0  0  0  0  0
  -22.0596   -2.7599   23.2852 H   0  0  0  0  0  0
  -22.4063  -11.9894   22.4836 H   0  0  0  0  0  0
  -21.1120  -13.1299   22.2577 H   0  0  0  0  0  0
  -24.6813  -15.8492   20.5380 H   0  0  0  0  0  0
  -26.3003  -15.6263   20.1210 H   0  0  0  0  0  0
  -26.7060  -32.5596   23.1193 H   0  0  0  0  0  0
  -25.0109  -33.9876   25.0554 H   0  0  0  0  0  0
  -22.6776  -31.3078   21.4249 H   0  0  0  0  0  0
  -23.3745  -35.9639   23.3314 H   0  0  0  0  0  0
  -24.3573  -36.8909   22.2033 H   0  0  0  0  0  0
  -23.7233  -37.6525   23.6630 H   0  0  0  0  0  0
  -26.0235  -31.6165   20.5951 H   0  0  0  0  0  0
  -26.8058  -30.9087   21.9804 H   0  0  0  0  0  0
  -28.0918  -29.1402   21.1711 H   0  0  0  0  0  0
  -26.0869  -26.0162   18.9733 H   0  0  0  0  0  0
  -23.9819  -27.3000   19.0361 H   0  0  0  0  0  0
  -23.7005  -30.6006   19.4128 H   0  0  0  0  0  0
  -22.7251  -29.2448   19.8756 H   0  0  0  0  0  0
  -25.1274  -36.2031   25.0831 H   0  0  0  0  0  0
  -20.9933  -28.3245   24.1502 H   0  0  0  0  0  0
  -20.5672  -26.2272   23.3614 H   0  0  0  0  0  0
  -21.6706  -26.7473   22.1283 H   0  0  0  0  0  0
  -19.7043  -25.6349   21.1216 H   0  0  0  0  0  0
  -19.6850  -27.3309   20.6827 H   0  0  0  0  0  0
  -17.4281  -26.6634   21.4013 H   0  0  0  0  0  0
  -18.0476  -26.0040   22.8991 H   0  0  0  0  0  0
  -19.7843  -30.7296   24.2235 H   0  0  0  0  0  0
  -17.4915  -31.6258   24.5088 H   0  0  0  0  0  0
  -15.5300  -30.2928   23.7575 H   0  0  0  0  0  0
  -15.8682  -28.0718   22.7049 H   0  0  0  0  0  0
  -24.5911  -30.7067   25.7783 H   0  0  0  0  0  0
  -24.8913  -32.2867   26.4925 H   0  0  0  0  0  0
  -25.8094  -30.8877   27.0224 H   0  0  0  0  0  0
  -26.2852  -29.6810   24.1149 H   0  0  0  0  0  0
  -27.4092  -29.7330   25.4523 H   0  0  0  0  0  0
  -27.8649  -30.4365   23.9199 H   0  0  0  0  0  0
  -27.2735  -33.3608   26.2078 H   0  0  0  0  0  0
  -28.3835  -32.6904   25.0235 H   0  0  0  0  0  0
  -28.0772  -31.8410   26.5318 H   0  0  0  0  0  0
  -28.2625  -38.0095   24.7509 H   0  0  0  0  0  0
  -28.1074  -36.2639   24.6298 H   0  0  0  0  0  0
  -27.2299  -37.1455   25.8866 H   0  0  0  0  0  0
  -20.9354  -29.8791   21.7016 H   0  0  0  0  0  0
  -26.0203  -38.2896   24.1417 H   0  0  0  0  0  0
  -24.7356  -22.5567   20.1417 H   0  0  0  0  0  0
  -28.6636  -21.5806   21.6402 H   0  0  0  0  0  0
  -23.3799  -20.7778   19.2504 H   0  0  0  0  0  0
  -23.8882  -19.1080   19.4676 H   0  0  0  0  0  0
  -24.3884  -20.0036   18.0315 H   0  0  0  0  0  0
  -24.9699  -23.8800   22.4009 H   0  0  0  0  0  0
  -25.0946  -24.6486   20.8209 H   0  0  0  0  0  0
  -25.8052  -25.4083   22.2316 H   0  0  0  0  0  0
  -30.0562  -20.0632   19.4016 H   0  0  0  0  0  0
  -30.8409  -18.7813   20.2939 H   0  0  0  0  0  0
  -30.4135  -20.2725   21.1114 H   0  0  0  0  0  0
  -28.4009  -16.3381   21.1764 H   0  0  0  0  0  0
  -28.4032  -16.3144   22.9090 H   0  0  0  0  0  0
  -29.2403  -18.7901   22.8202 H   0  0  0  0  0  0
  -27.5999  -18.3826   22.4566 H   0  0  0  0  0  0
  -28.8182  -23.7833   20.4290 H   0  0  0  0  0  0
  -27.5027  -24.5056   19.5892 H   0  0  0  0  0  0
  -30.8276  -16.5871   23.0369 H   0  0  0  0  0  0
  -30.9584  -16.8596   21.3085 H   0  0  0  0  0  0
  -29.4952  -25.6681   21.4081 H   0  0  0  0  0  0
  -27.9156  -26.0961   21.9932 H   0  0  0  0  0  0
  -27.4313  -23.5665   22.4821 H   0  0  0  0  0  0
  -28.4756  -18.2322   19.9321 H   0  0  0  0  0  0
  -29.7792  -14.3693   22.4495 H   0  0  0  0  0  0
  1 25  1  0  0  0
  1 30  2  0  0  0
  1 87  1  0  0  0
  2  3  1  0  0  0
  2 25  1  0  0  0
  2 88  1  0  0  0
  2 89  1  0  0  0
  3  4  1  0  0  0
  3 90  1  0  0  0
  3 91  1  0  0  0
  4  5  1  0  0  0
  4 92  1  0  0  0
  4 93  1  0  0  0
  5  6  1  0  0  0
  5 26  1  0  0  0
  5 94  1  0  0  0
  6 25  1  0  0  0
  6 95  1  0  0  0
  6 96  1  0  0  0
  7  8  2  0  0  0
  7 26  1  0  0  0
  7 29  1  0  0  0
  8  9  1  0  0  0
  8 22  1  0  0  0
  9 10  1  0  0  0
  9 27  2  0  0  0
 10 11  2  0  0  0
 10 15  1  0  0  0
 11 12  1  0  0  0
 11 97  1  0  0  0
 12 13  2  0  0  0
 12 98  1  0  0  0
 13 14  1  0  0  0
 13 31  1  0  0  0
 14 15  2  0  0  0
 14 99  1  0  0  0
 15100  1  0  0  0
 16 17  2  0  0  0
 16 21  1  0  0  0
 16 31  1  0  0  0
 17 18  1  0  0  0
 17101  1  0  0  0
 18 19  2  0  0  0
 18102  1  0  0  0
 19 20  1  0  0  0
 19 24  1  0  0  0
 20 21  2  0  0  0
 20103  1  0  0  0
 21 23  1  0  0  0
 22 28  1  0  0  0
 22 32  2  0  0  0
 26 27  1  0  0  0
 28104  1  0  0  0
 28105  1  0  0  0
 29106  1  0  0  0
 29107  1  0  0  0
 33 34  1  0  0  0
 33 66  1  0  0  0
 33 70  2  0  0  0
 34 36  1  0  0  0
 34 59  1  0  0  0
 34108  1  0  0  0
 35 44  2  0  0  0
 35 45  1  0  0  0
 35 68  1  0  0  0
 36 56  1  0  0  0
 36109  1  0  0  0
 37 39  1  0  0  0
 37 47  1  0  0  0
 37 66  1  0  0  0
 37110  1  0  0  0
 38 43  2  0  0  0
 38 46  1  0  0  0
 38 47  1  0  0  0
 39 64  1  0  0  0
 39 67  2  0  0  0
 40 52  1  0  0  0
 40 53  2  0  0  0
 40 58  1  0  0  0
 41111  1  0  0  0
 41112  1  0  0  0
 41113  1  0  0  0
 41 48  1  0  0  0
 42 43  1  0  0  0
 42 66  1  0  0  0
 42114  1  0  0  0
 42115  1  0  0  0
 43 44  1  0  0  0
 44116  1  0  0  0
 45 46  2  0  0  0
 45117  1  0  0  0
 46118  1  0  0  0
 47119  1  0  0  0
 47120  1  0  0  0
 48 56  1  0  0  0
 48 65  1  0  0  0
 48121  1  0  0  0
 49 50  1  0  0  0
 49 53  1  0  0  0
 49 64  1  0  0  0
 49122  1  0  0  0
 50 51  1  0  0  0
 50123  1  0  0  0
 50124  1  0  0  0
 51 52  1  0  0  0
 51125  1  0  0  0
 51126  1  0  0  0
 52127  1  0  0  0
 52128  1  0  0  0
 53 54  1  0  0  0
 54 55  2  0  0  0
 54129  1  0  0  0
 55 57  1  0  0  0
 55130  1  0  0  0
 56 69  2  0  0  0
 57 58  2  0  0  0
 57131  1  0  0  0
 58132  1  0  0  0
 59 60  1  0  0  0
 59 61  1  0  0  0
 59 62  1  0  0  0
 60133  1  0  0  0
 60134  1  0  0  0
 60135  1  0  0  0
 61136  1  0  0  0
 61137  1  0  0  0
 61138  1  0  0  0
 62139  1  0  0  0
 62140  1  0  0  0
 62141  1  0  0  0
 63 65  1  0  0  0
 63142  1  0  0  0
 63143  1  0  0  0
 63144  1  0  0  0
 64145  1  0  0  0
 65146  1  0  0  0
 68 83  1  0  0  0
 71 73  2  0  0  0
 71 74  1  0  0  0
 71147  1  0  0  0
 72 73  1  0  0  0
 72 75  2  0  0  0
 72148  1  0  0  0
 73 84  1  0  0  0
 74 76  1  0  0  0
 74 86  2  0  0  0
 75 85  1  0  0  0
 75 86  1  0  0  0
 76149  1  0  0  0
 76150  1  0  0  0
 76151  1  0  0  0
 77152  1  0  0  0
 77153  1  0  0  0
 77154  1  0  0  0
 77 84  1  0  0  0
 78155  1  0  0  0
 78156  1  0  0  0
 78157  1  0  0  0
 78 85  1  0  0  0
 79 80  1  0  0  0
 79 82  1  0  0  0
 79158  1  0  0  0
 79159  1  0  0  0
 80 85  1  0  0  0
 80160  1  0  0  0
 80161  1  0  0  0
 81 83  1  0  0  0
 81 84  1  0  0  0
 81162  1  0  0  0
 81163  1  0  0  0
 82 87  1  0  0  0
 82164  1  0  0  0
 82165  1  0  0  0
 83166  1  0  0  0
 83167  1  0  0  0
 84168  1  0  0  0
 85169  1  0  0  0
 87170  1  0  0  0
M  ISO  4   1 100  68 101  83 101  87 100
M  END
> <chiral flag>
0

> <version>
0

> <s_m_source_file>
/data/baiqing/PycharmProjects/Reinvent-master-3.2/result/LINK_invent/BTK/process_docking_weight1_custom_sum_contain_oxygen_bond_distance_aromatic_linkinvent_7_9_3/rearranged_h_0086.sdf

> <i_m_source_file_index>
83

> <r_mmod_Potential_Energy-OPLS-2005>
-249.076324462891

> <r_mmod_Stretch_Energy-OPLS-2005>
31.5601406097412

> <r_mmod_Bend_Energy-OPLS-2005>
93.4886856079102

> <r_mmod_Torsional_Energy-OPLS-2005>
253.323135375977

> <r_mmod_Improper_Torsional_Energy-OPLS-2005>
3.4505410194397

> <r_mmod_Van_der_Waal_Energy-OPLS-2005>
151.528244018555

> <r_mmod_Electrostatic_Energy-OPLS-2005>
-584.438354492188

> <r_mmod_Solvation_Energy-OPLS-2005>
-206.813659667969

> <b_mmod_Minimization_Converged-OPLS-2005>
0

> <r_mmod_RMS_Derivative-OPLS-2005>
3.42598342895508

$$$$
84
                    3D
 Structure written by MMmdl.
158166  0  0  1  0            999 V2000
  -30.6332  -14.7080   20.4423 C   0  0  0  0  0  0
  -30.4226  -12.4305   19.4641 C   0  0  0  0  0  0
  -29.5025  -12.4945   18.2268 C   0  0  0  0  0  0
  -28.0275  -12.3298   18.6422 C   0  0  0  0  0  0
  -27.6370  -13.2334   19.8431 C   0  0  2  0  0  0
  -28.6821  -13.1710   20.9767 C   0  0  0  0  0  0
  -25.2494  -13.8205   20.5696 C   0  0  0  0  0  0
  -24.1793  -13.0444   20.9207 C   0  0  0  0  0  0
  -24.6387  -11.6923   20.8747 C   0  0  0  0  0  0
  -23.9066  -10.4299   21.0405 C   0  0  0  0  0  0
  -24.3620   -9.4213   21.9180 C   0  0  0  0  0  0
  -23.6297   -8.2245   22.0745 C   0  0  0  0  0  0
  -22.4276   -8.0283   21.3538 C   0  0  0  0  0  0
  -21.9915   -9.0257   20.4638 C   0  0  0  0  0  0
  -22.7241  -10.2137   20.3050 C   0  0  0  0  0  0
  -21.6854   -6.0740   22.5281 C   0  0  0  0  0  0
  -21.4016   -6.5644   23.8216 C   0  0  0  0  0  0
  -21.3655   -5.6794   24.9178 C   0  0  0  0  0  0
  -21.6043   -4.3057   24.7228 C   0  0  0  0  0  0
  -21.8815   -3.8149   23.4348 C   0  0  0  0  0  0
  -21.9191   -4.6967   22.3405 C   0  0  0  0  0  0
  -22.7815  -13.5223   21.1872 C   0  0  0  0  0  0
  -22.1660   -4.2154   21.0983 F   0  0  0  0  0  0
  -21.5628   -3.4540   25.7739 F   0  0  0  0  0  0
  -29.9828  -13.5004   20.3854 N   0  0  0  0  0  0
  -26.2913  -12.9418   20.3257 N   0  0  0  0  0  0
  -25.9313  -11.6557   20.5743 N   0  0  0  0  0  0
  -22.0463  -12.8211   22.0427 N   0  0  0  0  0  0
  -25.4153  -15.1936   20.4150 N   0  0  0  0  0  0
  -31.8439  -14.7543   20.2166 O   0  0  0  0  0  0
  -21.6641   -6.8879   21.4237 O   0  0  0  0  0  0
  -22.3494  -14.5526   20.6716 O   0  0  0  0  0  0
  -24.6274  -31.8576   23.1985 C   0  0  0  0  0  0
  -25.9110  -32.4765   23.8329 C   0  0  1  0  0  0
  -27.2218  -27.2952   20.1358 C   0  0  0  0  0  0
  -25.5918  -33.8567   24.2258 N   0  0  0  0  0  0
  -23.4227  -30.4778   21.5421 C   0  0  2  0  0  0
  -24.8700  -28.9204   20.1172 C   0  0  0  0  0  0
  -22.7482  -29.4610   22.4937 C   0  0  0  0  0  0
  -18.0289  -28.1393   22.8485 C   0  0  0  0  0  0
  -24.1491  -36.7291   23.2639 C   0  0  0  0  0  0
  -25.9638  -30.7821   21.3706 C   0  0  0  0  0  0
  -26.0391  -29.4038   20.7197 C   0  0  0  0  0  0
  -27.2223  -28.6046   20.7130 C   0  0  0  0  0  0
  -26.0327  -26.8574   19.5216 C   0  0  0  0  0  0
  -24.8689  -27.6535   19.5082 C   0  0  0  0  0  0
  -23.6394  -29.8051   20.1601 C   0  0  0  0  0  0
  -25.4117  -36.3080   24.0325 C   0  0  1  0  0  0
  -20.5888  -28.3692   23.1281 C   0  0  2  0  0  0
  -20.6781  -26.9418   22.5408 C   0  0  0  0  0  0
  -19.5752  -26.6382   21.5215 C   0  0  0  0  0  0
  -18.1931  -26.7935   22.1629 C   0  0  0  0  0  0
  -19.1541  -28.8860   23.2880 C   0  0  0  0  0  0
  -18.9465  -30.1462   23.8899 C   0  0  0  0  0  0
  -17.6466  -30.6589   24.0574 C   0  0  0  0  0  0
  -25.9056  -34.9447   23.5100 C   0  0  0  0  0  0
  -16.5356  -29.9093   23.6334 C   0  0  0  0  0  0
  -16.7276  -28.6516   23.0342 C   0  0  0  0  0  0
  -26.4492  -31.6577   25.0704 C   0  0  0  0  0  0
  -25.3722  -31.3705   26.1425 C   0  0  0  0  0  0
  -27.0335  -30.3001   24.6157 C   0  0  0  0  0  0
  -27.6053  -32.4310   25.7469 C   0  0  0  0  0  0
  -27.5580  -37.1799   24.8465 C   0  0  0  0  0  0
  -21.4196  -29.3040   22.3674 N   0  0  0  0  0  0
  -26.4296  -37.3775   23.9402 N   0  0  0  0  0  0
  -24.6902  -31.0567   22.0943 N   0  0  0  0  0  0
  -23.4195  -28.8160   23.3035 O   0  0  0  0  0  0
  -28.3381  -26.4474   20.1118 O   0  0  0  0  0  0
  -26.5634  -34.8923   22.4673 O   0  0  0  0  0  0
  -23.5433  -32.1386   23.7302 O   0  0  0  0  0  0
  -27.4079  -20.5291   20.0243 C   0  0  0  0  0  0
  -29.6344  -19.8671   20.6177 C   0  0  0  0  0  0
  -28.6818  -20.9401   20.4616 C   0  0  0  0  0  0
  -27.1420  -19.1619   19.7815 C   0  0  0  0  0  0
  -29.2958  -18.4868   20.3535 C   0  0  0  0  0  0
  -25.7651  -18.7308   19.3232 C   0  0  0  0  0  0
  -31.0902  -17.4630   18.9609 C   0  0  0  0  0  0
  -28.9407  -22.4505   20.8723 C   0  0  0  0  0  0
  -28.4087  -23.7139   20.0194 C   0  0  0  0  0  0
  -28.2676  -25.1228   20.7884 C   0  0  0  0  0  0
  -30.3527  -17.3107   20.3106 C   0  0  2  0  0  0
  -28.0507  -18.1679   19.9388 N   0  0  0  0  0  0
  -29.8857  -15.8695   20.5018 N   0  0  0  0  0  0
  -31.4651  -12.5421   19.1615 H   0  0  0  0  0  0
  -30.3541  -11.4559   19.9501 H   0  0  0  0  0  0
  -29.7776  -11.7193   17.5105 H   0  0  0  0  0  0
  -29.6373  -13.4479   17.7132 H   0  0  0  0  0  0
  -27.8774  -11.2818   18.9041 H   0  0  0  0  0  0
  -27.3714  -12.5268   17.7937 H   0  0  0  0  0  0
  -27.6286  -14.2542   19.4597 H   0  0  0  0  0  0
  -28.7077  -12.1794   21.4307 H   0  0  0  0  0  0
  -28.4269  -13.8701   21.7749 H   0  0  0  0  0  0
  -25.2757   -9.5699   22.4766 H   0  0  0  0  0  0
  -24.0009   -7.4634   22.7461 H   0  0  0  0  0  0
  -21.0846   -8.8773   19.8945 H   0  0  0  0  0  0
  -22.3688  -10.9680   19.6170 H   0  0  0  0  0  0
  -21.2010   -7.6152   23.9724 H   0  0  0  0  0  0
  -21.1479   -6.0524   25.9082 H   0  0  0  0  0  0
  -22.0596   -2.7611   23.2848 H   0  0  0  0  0  0
  -22.4088  -11.9890   22.4843 H   0  0  0  0  0  0
  -21.1065  -13.1220   22.2607 H   0  0  0  0  0  0
  -24.6439  -15.8387   20.5405 H   0  0  0  0  0  0
  -26.2667  -15.6506   20.1131 H   0  0  0  0  0  0
  -26.7174  -32.5437   23.1072 H   0  0  0  0  0  0
  -25.0041  -33.9705   25.0387 H   0  0  0  0  0  0
  -22.7175  -31.2985   21.3946 H   0  0  0  0  0  0
  -23.3759  -35.9620   23.3306 H   0  0  0  0  0  0
  -24.3578  -36.8913   22.2054 H   0  0  0  0  0  0
  -23.7243  -37.6490   23.6665 H   0  0  0  0  0  0
  -26.0954  -31.5410   20.5983 H   0  0  0  0  0  0
  -26.8439  -30.8359   22.0000 H   0  0  0  0  0  0
  -28.1251  -28.9743   21.1792 H   0  0  0  0  0  0
  -26.0041  -25.8828   19.0542 H   0  0  0  0  0  0
  -23.9716  -27.2772   19.0361 H   0  0  0  0  0  0
  -23.7627  -30.5782   19.4009 H   0  0  0  0  0  0
  -22.7589  -29.2359   19.8565 H   0  0  0  0  0  0
  -25.1302  -36.1928   25.0817 H   0  0  0  0  0  0
  -20.9981  -28.3262   24.1400 H   0  0  0  0  0  0
  -20.5684  -26.2305   23.3607 H   0  0  0  0  0  0
  -21.6651  -26.7454   22.1197 H   0  0  0  0  0  0
  -19.6909  -25.6289   21.1255 H   0  0  0  0  0  0
  -19.6681  -27.3180   20.6735 H   0  0  0  0  0  0
  -17.4198  -26.6686   21.4028 H   0  0  0  0  0  0
  -18.0334  -26.0080   22.9032 H   0  0  0  0  0  0
  -19.7938  -30.7280   24.2273 H   0  0  0  0  0  0
  -17.5017  -31.6261   24.5194 H   0  0  0  0  0  0
  -15.5358  -30.2990   23.7667 H   0  0  0  0  0  0
  -15.8676  -28.0841   22.7045 H   0  0  0  0  0  0
  -24.5907  -30.7048   25.7741 H   0  0  0  0  0  0
  -24.8902  -32.2867   26.4845 H   0  0  0  0  0  0
  -25.8044  -30.8879   27.0199 H   0  0  0  0  0  0
  -26.2905  -29.6745   24.1198 H   0  0  0  0  0  0
  -27.4052  -29.7259   25.4652 H   0  0  0  0  0  0
  -27.8765  -30.4288   23.9367 H   0  0  0  0  0  0
  -27.2669  -33.3614   26.2038 H   0  0  0  0  0  0
  -28.3861  -32.6858   25.0292 H   0  0  0  0  0  0
  -28.0725  -31.8440   26.5386 H   0  0  0  0  0  0
  -28.2600  -38.0095   24.7514 H   0  0  0  0  0  0
  -28.1077  -36.2625   24.6297 H   0  0  0  0  0  0
  -27.2297  -37.1454   25.8869 H   0  0  0  0  0  0
  -20.9386  -29.8741   21.6859 H   0  0  0  0  0  0
  -26.0180  -38.2851   24.1403 H   0  0  0  0  0  0
  -26.6177  -21.2574   19.9009 H   0  0  0  0  0  0
  -30.6415  -20.1010   20.9371 H   0  0  0  0  0  0
  -25.0840  -18.6784   20.1722 H   0  0  0  0  0  0
  -25.7921  -17.7510   18.8463 H   0  0  0  0  0  0
  -25.3595  -19.4414   18.6029 H   0  0  0  0  0  0
  -31.4663  -18.4796   18.8397 H   0  0  0  0  0  0
  -30.4189  -17.2668   18.1244 H   0  0  0  0  0  0
  -31.9526  -16.8078   18.8618 H   0  0  0  0  0  0
  -30.0143  -22.5734   21.0172 H   0  0  0  0  0  0
  -28.5165  -22.5424   21.8725 H   0  0  0  0  0  0
  -27.4294  -23.4768   19.6052 H   0  0  0  0  0  0
  -29.0644  -23.8398   19.1580 H   0  0  0  0  0  0
  -29.0846  -25.1582   21.5092 H   0  0  0  0  0  0
  -27.3695  -25.0847   21.4070 H   0  0  0  0  0  0
  -31.0653  -17.5099   21.1124 H   0  0  0  0  0  0
  -28.8877  -15.7719   20.6102 H   0  0  0  0  0  0
  1 25  1  0  0  0
  1 30  2  0  0  0
  1 83  1  0  0  0
  2  3  1  0  0  0
  2 25  1  0  0  0
  2 84  1  0  0  0
  2 85  1  0  0  0
  3  4  1  0  0  0
  3 86  1  0  0  0
  3 87  1  0  0  0
  4  5  1  0  0  0
  4 88  1  0  0  0
  4 89  1  0  0  0
  5  6  1  0  0  0
  5 26  1  0  0  0
  5 90  1  0  0  0
  6 25  1  0  0  0
  6 91  1  0  0  0
  6 92  1  0  0  0
  7  8  2  0  0  0
  7 26  1  0  0  0
  7 29  1  0  0  0
  8  9  1  0  0  0
  8 22  1  0  0  0
  9 10  1  0  0  0
  9 27  2  0  0  0
 10 11  2  0  0  0
 10 15  1  0  0  0
 11 12  1  0  0  0
 11 93  1  0  0  0
 12 13  2  0  0  0
 12 94  1  0  0  0
 13 14  1  0  0  0
 13 31  1  0  0  0
 14 15  2  0  0  0
 14 95  1  0  0  0
 15 96  1  0  0  0
 16 17  2  0  0  0
 16 21  1  0  0  0
 16 31  1  0  0  0
 17 18  1  0  0  0
 17 97  1  0  0  0
 18 19  2  0  0  0
 18 98  1  0  0  0
 19 20  1  0  0  0
 19 24  1  0  0  0
 20 21  2  0  0  0
 20 99  1  0  0  0
 21 23  1  0  0  0
 22 28  1  0  0  0
 22 32  2  0  0  0
 26 27  1  0  0  0
 28100  1  0  0  0
 28101  1  0  0  0
 29102  1  0  0  0
 29103  1  0  0  0
 33 34  1  0  0  0
 33 66  1  0  0  0
 33 70  2  0  0  0
 34 36  1  0  0  0
 34 59  1  0  0  0
 34104  1  0  0  0
 35 44  2  0  0  0
 35 45  1  0  0  0
 35 68  1  0  0  0
 36 56  1  0  0  0
 36105  1  0  0  0
 37 39  1  0  0  0
 37 47  1  0  0  0
 37 66  1  0  0  0
 37106  1  0  0  0
 38 43  2  0  0  0
 38 46  1  0  0  0
 38 47  1  0  0  0
 39 64  1  0  0  0
 39 67  2  0  0  0
 40 52  1  0  0  0
 40 53  2  0  0  0
 40 58  1  0  0  0
 41107  1  0  0  0
 41108  1  0  0  0
 41109  1  0  0  0
 41 48  1  0  0  0
 42 43  1  0  0  0
 42 66  1  0  0  0
 42110  1  0  0  0
 42111  1  0  0  0
 43 44  1  0  0  0
 44112  1  0  0  0
 45 46  2  0  0  0
 45113  1  0  0  0
 46114  1  0  0  0
 47115  1  0  0  0
 47116  1  0  0  0
 48 56  1  0  0  0
 48 65  1  0  0  0
 48117  1  0  0  0
 49 50  1  0  0  0
 49 53  1  0  0  0
 49 64  1  0  0  0
 49118  1  0  0  0
 50 51  1  0  0  0
 50119  1  0  0  0
 50120  1  0  0  0
 51 52  1  0  0  0
 51121  1  0  0  0
 51122  1  0  0  0
 52123  1  0  0  0
 52124  1  0  0  0
 53 54  1  0  0  0
 54 55  2  0  0  0
 54125  1  0  0  0
 55 57  1  0  0  0
 55126  1  0  0  0
 56 69  2  0  0  0
 57 58  2  0  0  0
 57127  1  0  0  0
 58128  1  0  0  0
 59 60  1  0  0  0
 59 61  1  0  0  0
 59 62  1  0  0  0
 60129  1  0  0  0
 60130  1  0  0  0
 60131  1  0  0  0
 61132  1  0  0  0
 61133  1  0  0  0
 61134  1  0  0  0
 62135  1  0  0  0
 62136  1  0  0  0
 62137  1  0  0  0
 63 65  1  0  0  0
 63138  1  0  0  0
 63139  1  0  0  0
 63140  1  0  0  0
 64141  1  0  0  0
 65142  1  0  0  0
 68 80  1  0  0  0
 71 73  2  0  0  0
 71 74  1  0  0  0
 71143  1  0  0  0
 72 73  1  0  0  0
 72 75  2  0  0  0
 72144  1  0  0  0
 73 78  1  0  0  0
 74 76  1  0  0  0
 74 82  2  0  0  0
 75 81  1  0  0  0
 75 82  1  0  0  0
 76145  1  0  0  0
 76146  1  0  0  0
 76147  1  0  0  0
 77148  1  0  0  0
 77149  1  0  0  0
 77150  1  0  0  0
 77 81  1  0  0  0
 78 79  1  0  0  0
 78151  1  0  0  0
 78152  1  0  0  0
 79 80  1  0  0  0
 79153  1  0  0  0
 79154  1  0  0  0
 80155  1  0  0  0
 80156  1  0  0  0
 81 83  1  0  0  0
 81157  1  0  0  0
 83158  1  0  0  0
M  ISO  4   1 100  68 101  80 101  83 100
M  END
> <chiral flag>
0

> <version>
0

> <s_m_source_file>
/data/baiqing/PycharmProjects/Reinvent-master-3.2/result/LINK_invent/BTK/process_docking_weight1_custom_sum_contain_oxygen_bond_distance_aromatic_linkinvent_7_9_3/rearranged_h_0086.sdf

> <i_m_source_file_index>
84

> <r_mmod_Potential_Energy-OPLS-2005>
-180.301956176758

> <r_mmod_Stretch_Energy-OPLS-2005>
99.1111755371094

> <r_mmod_Bend_Energy-OPLS-2005>
151.337203979492

> <r_mmod_Torsional_Energy-OPLS-2005>
224.891525268555

> <r_mmod_Improper_Torsional_Energy-OPLS-2005>
6.73686408996582

> <r_mmod_Van_der_Waal_Energy-OPLS-2005>
133.036392211914

> <r_mmod_Electrostatic_Energy-OPLS-2005>
-663.576538085938

> <r_mmod_Solvation_Energy-OPLS-2005>
-201.488265991211

> <b_mmod_Minimization_Converged-OPLS-2005>
0

> <r_mmod_RMS_Derivative-OPLS-2005>
0.801396727561951

$$$$
85
                    3D
 Structure written by MMmdl.
158166  0  0  1  0            999 V2000
  -31.5212  -14.7133   19.8753 C   0  0  0  0  0  0
  -30.5351  -12.4649   19.3153 C   0  0  0  0  0  0
  -29.7009  -12.7849   18.1094 C   0  0  0  0  0  0
  -28.8068  -14.0122   18.5451 C   0  0  0  0  0  0
  -28.2374  -14.1252   20.4554 C   0  0  2  0  0  0
  -29.6174  -13.7599   21.0442 C   0  0  0  0  0  0
  -24.7672  -14.2227   21.0159 C   0  0  0  0  0  0
  -23.7052  -13.3407   20.9526 C   0  0  0  0  0  0
  -24.2909  -12.1677   21.0726 C   0  0  0  0  0  0
  -23.8066  -10.6889   21.1140 C   0  0  0  0  0  0
  -24.2711   -9.6635   21.9718 C   0  0  0  0  0  0
  -23.6464   -8.4161   22.0880 C   0  0  0  0  0  0
  -22.4754   -8.1160   21.3470 C   0  0  0  0  0  0
  -22.0751   -9.0403   20.4175 C   0  0  0  0  0  0
  -22.6994  -10.3038   20.2848 C   0  0  0  0  0  0
  -21.7333   -6.1025   22.5050 C   0  0  0  0  0  0
  -21.4489   -6.5927   23.7934 C   0  0  0  0  0  0
  -21.4257   -5.7025   24.9063 C   0  0  0  0  0  0
  -21.5709   -4.3139   24.7009 C   0  0  0  0  0  0
  -21.8953   -3.8338   23.4269 C   0  0  0  0  0  0
  -21.9063   -4.7172   22.3243 C   0  0  0  0  0  0
  -22.1475  -13.5652   21.2929 C   0  0  0  0  0  0
  -22.1519   -4.2371   21.0882 F   0  0  0  0  0  0
  -21.5512   -3.4789   25.7534 F   0  0  0  0  0  0
  -30.5993  -13.7435   20.0235 N   0  0  0  0  0  0
  -26.2520  -13.5774   21.2294 N   0  0  0  0  0  0
  -25.5015  -12.4974   21.6126 N   0  0  0  0  0  0
  -21.7307  -12.6874   22.2215 N   0  0  0  0  0  0
  -24.1855  -15.5097   20.3898 N   0  0  0  0  0  0
  -32.5904  -14.5473   20.4370 O   0  0  0  0  0  0
  -21.7696   -6.9470   21.4365 O   0  0  0  0  0  0
  -21.5981  -14.5555   20.9079 O   0  0  0  0  0  0
  -24.7742  -31.6459   23.0676 C   0  0  0  0  0  0
  -25.9788  -32.3720   23.7540 C   0  0  1  0  0  0
  -26.7599  -25.3933   20.3458 C   0  0  0  0  0  0
  -25.6038  -33.7677   24.1343 N   0  0  0  0  0  0
  -23.6202  -30.2273   21.4628 C   0  0  2  0  0  0
  -24.9653  -28.2912   20.1347 C   0  0  0  0  0  0
  -22.8032  -29.3544   22.4445 C   0  0  0  0  0  0
  -18.0287  -28.1432   22.8421 C   0  0  0  0  0  0
  -24.1451  -36.6893   23.2671 C   0  0  0  0  0  0
  -26.1882  -29.8981   21.5239 C   0  0  0  0  0  0
  -26.1405  -28.3409   20.8938 C   0  0  0  0  0  0
  -26.9731  -26.9615   20.9433 C   0  0  0  0  0  0
  -25.6930  -25.8871   19.4589 C   0  0  0  0  0  0
  -24.8673  -27.1180   19.3882 C   0  0  0  0  0  0
  -23.9110  -29.4536   20.1214 C   0  0  0  0  0  0
  -25.4127  -36.2538   24.0194 C   0  0  1  0  0  0
  -20.5983  -28.3840   23.1033 C   0  0  2  0  0  0
  -20.6752  -26.9417   22.5500 C   0  0  0  0  0  0
  -19.5761  -26.6302   21.5262 C   0  0  0  0  0  0
  -18.1891  -26.7958   22.1610 C   0  0  0  0  0  0
  -19.1585  -28.8947   23.2673 C   0  0  0  0  0  0
  -18.9530  -30.1510   23.8742 C   0  0  0  0  0  0
  -17.6534  -30.6615   24.0512 C   0  0  0  0  0  0
  -25.9189  -34.8931   23.4664 C   0  0  0  0  0  0
  -16.5392  -29.9081   23.6361 C   0  0  0  0  0  0
  -16.7296  -28.6500   23.0379 C   0  0  0  0  0  0
  -26.4713  -31.6419   25.0700 C   0  0  0  0  0  0
  -25.3557  -31.4064   26.1216 C   0  0  0  0  0  0
  -27.0844  -30.2707   24.7329 C   0  0  0  0  0  0
  -27.5938  -32.4627   25.7595 C   0  0  0  0  0  0
  -27.5512  -37.1604   24.8470 C   0  0  0  0  0  0
  -21.4641  -29.2849   22.3266 N   0  0  0  0  0  0
  -26.4189  -37.3429   23.9386 N   0  0  0  0  0  0
  -24.9157  -30.6656   22.0634 N   0  0  0  0  0  0
  -23.4006  -28.7297   23.3173 O   0  0  0  0  0  0
  -27.2537  -23.5590   20.4209 O   0  0  0  0  0  0
  -26.6000  -34.8734   22.4392 O   0  0  0  0  0  0
  -23.6682  -32.0235   23.5011 O   0  0  0  0  0  0
  -27.0931  -17.5424   21.2091 C   0  0  0  0  0  0
  -26.8151  -15.9953   21.0276 C   0  0  0  0  0  0
  -26.9966  -18.7769   20.3182 C   0  0  0  0  0  0
  -26.6019  -15.2440   19.4244 C   0  0  0  0  0  0
  -26.9544  -17.7061   19.0956 C   0  0  0  0  0  0
  -27.4874  -15.2069   22.5975 C   0  0  0  0  0  0
  -26.8849  -12.8554   19.2440 C   0  0  0  0  0  0
  -26.8122  -21.2276   20.2705 C   0  0  0  0  0  0
  -27.8464  -17.7940   18.1186 C   0  0  0  0  0  0
  -29.4116  -17.6672   18.4616 C   0  0  0  0  0  0
  -30.7372  -16.7734   18.1728 C   0  0  0  0  0  0
  -26.7461  -16.2304   18.5911 N   0  0  0  0  0  0
  -31.3880  -15.9690   19.2973 N   0  0  0  0  0  0
  -31.4329  -12.0532   19.0029 H   0  0  0  0  0  0
  -30.0665  -11.7140   19.9155 H   0  0  0  0  0  0
  -29.0492  -12.0036   17.7277 H   0  0  0  0  0  0
  -30.3635  -12.9356   17.2439 H   0  0  0  0  0  0
  -28.0137  -14.0592   17.7127 H   0  0  0  0  0  0
  -29.2588  -14.7593   17.6008 H   0  0  0  0  0  0
  -28.9272  -15.5075   20.2335 H   0  0  0  0  0  0
  -28.9532  -13.0356   21.1931 H   0  0  0  0  0  0
  -29.9139  -14.5201   21.7126 H   0  0  0  0  0  0
  -25.1129   -9.8980   22.6203 H   0  0  0  0  0  0
  -23.9845   -7.7006   22.7846 H   0  0  0  0  0  0
  -21.2169   -8.8422   19.7408 H   0  0  0  0  0  0
  -22.3093  -11.0367   19.5534 H   0  0  0  0  0  0
  -21.3161   -7.6657   23.9880 H   0  0  0  0  0  0
  -21.1984   -6.0788   25.8999 H   0  0  0  0  0  0
  -22.0090   -2.8065   23.2708 H   0  0  0  0  0  0
  -22.1964  -11.9758   22.7730 H   0  0  0  0  0  0
  -20.6574  -12.6693   22.4018 H   0  0  0  0  0  0
  -24.4334  -16.3714   20.7511 H   0  0  0  0  0  0
  -25.0123  -15.6298   19.6801 H   0  0  0  0  0  0
  -26.8063  -32.4032   23.0432 H   0  0  0  0  0  0
  -25.0005  -33.8566   24.9434 H   0  0  0  0  0  0
  -23.0155  -31.0984   21.2035 H   0  0  0  0  0  0
  -23.3792  -35.9171   23.3170 H   0  0  0  0  0  0
  -24.3500  -36.8796   22.2151 H   0  0  0  0  0  0
  -23.7188  -37.5937   23.6957 H   0  0  0  0  0  0
  -26.5301  -30.5143   20.6914 H   0  0  0  0  0  0
  -27.0291  -29.9585   22.2046 H   0  0  0  0  0  0
  -27.7941  -27.0085   21.6358 H   0  0  0  0  0  0
  -25.3255  -25.1102   18.7930 H   0  0  0  0  0  0
  -24.0390  -27.0571   18.6917 H   0  0  0  0  0  0
  -24.2590  -30.1767   19.3702 H   0  0  0  0  0  0
  -22.9684  -29.0649   19.7086 H   0  0  0  0  0  0
  -25.1406  -36.1124   25.0704 H   0  0  0  0  0  0
  -20.9948  -28.3446   24.1202 H   0  0  0  0  0  0
  -20.5496  -26.2405   23.3775 H   0  0  0  0  0  0
  -21.6572  -26.7181   22.1334 H   0  0  0  0  0  0
  -19.6883  -25.6130   21.1359 H   0  0  0  0  0  0
  -19.6735  -27.3031   20.6693 H   0  0  0  0  0  0
  -17.4202  -26.6698   21.3967 H   0  0  0  0  0  0
  -18.0243  -26.0105   22.8999 H   0  0  0  0  0  0
  -19.8000  -30.7349   24.2076 H   0  0  0  0  0  0
  -17.5071  -31.6296   24.5140 H   0  0  0  0  0  0
  -15.5383  -30.2973   23.7773 H   0  0  0  0  0  0
  -15.8693  -28.0787   22.7240 H   0  0  0  0  0  0
  -24.5755  -30.7375   25.7579 H   0  0  0  0  0  0
  -24.8778  -32.3418   26.4131 H   0  0  0  0  0  0
  -25.7575  -30.9607   27.0321 H   0  0  0  0  0  0
  -26.3628  -29.5896   24.2818 H   0  0  0  0  0  0
  -27.4358  -29.7718   25.6359 H   0  0  0  0  0  0
  -27.9555  -30.3697   24.0852 H   0  0  0  0  0  0
  -27.2230  -33.4094   26.1509 H   0  0  0  0  0  0
  -28.4050  -32.6885   25.0687 H   0  0  0  0  0  0
  -28.0202  -31.9233   26.6058 H   0  0  0  0  0  0
  -28.2417  -38.0020   24.7506 H   0  0  0  0  0  0
  -28.1108  -36.2479   24.6261 H   0  0  0  0  0  0
  -27.2217  -37.1210   25.8894 H   0  0  0  0  0  0
  -21.0124  -29.8447   21.6228 H   0  0  0  0  0  0
  -25.9891  -38.2393   24.1529 H   0  0  0  0  0  0
  -27.3719  -17.6507   22.3107 H   0  0  0  0  0  0
  -27.1785  -15.6690   23.5527 H   0  0  0  0  0  0
  -28.5077  -14.6960   23.0626 H   0  0  0  0  0  0
  -27.2010  -14.1015   23.1551 H   0  0  0  0  0  0
  -27.0166  -11.9869   20.3194 H   0  0  0  0  0  0
  -27.8278  -12.1054   19.3866 H   0  0  0  0  0  0
  -26.2572  -12.0765   18.9234 H   0  0  0  0  0  0
  -25.9381  -21.2135   20.9099 H   0  0  0  0  0  0
  -26.3885  -21.2202   19.2634 H   0  0  0  0  0  0
  -27.5632  -18.8198   17.9939 H   0  0  0  0  0  0
  -27.5361  -17.2960   17.1794 H   0  0  0  0  0  0
  -29.0734  -16.6926   18.3050 H   0  0  0  0  0  0
  -29.5039  -17.9809   19.4780 H   0  0  0  0  0  0
  -30.7514  -16.2883   17.2130 H   0  0  0  0  0  0
  -31.4624  -17.5459   17.9151 H   0  0  0  0  0  0
  -32.2254  -16.4807   19.5868 H   0  0  0  0  0  0
  1 25  1  0  0  0
  1 30  2  0  0  0
  1 83  1  0  0  0
  2  3  1  0  0  0
  2 25  1  0  0  0
  2 84  1  0  0  0
  2 85  1  0  0  0
  3  4  1  0  0  0
  3 86  1  0  0  0
  3 87  1  0  0  0
  4  5  1  0  0  0
  4 88  1  0  0  0
  4 89  1  0  0  0
  5  6  1  0  0  0
  5 26  1  0  0  0
  5 90  1  0  0  0
  6 25  1  0  0  0
  6 91  1  0  0  0
  6 92  1  0  0  0
  7  8  2  0  0  0
  7 26  1  0  0  0
  7 29  1  0  0  0
  8  9  1  0  0  0
  8 22  1  0  0  0
  9 10  1  0  0  0
  9 27  2  0  0  0
 10 11  2  0  0  0
 10 15  1  0  0  0
 11 12  1  0  0  0
 11 93  1  0  0  0
 12 13  2  0  0  0
 12 94  1  0  0  0
 13 14  1  0  0  0
 13 31  1  0  0  0
 14 15  2  0  0  0
 14 95  1  0  0  0
 15 96  1  0  0  0
 16 17  2  0  0  0
 16 21  1  0  0  0
 16 31  1  0  0  0
 17 18  1  0  0  0
 17 97  1  0  0  0
 18 19  2  0  0  0
 18 98  1  0  0  0
 19 20  1  0  0  0
 19 24  1  0  0  0
 20 21  2  0  0  0
 20 99  1  0  0  0
 21 23  1  0  0  0
 22 28  1  0  0  0
 22 32  2  0  0  0
 26 27  1  0  0  0
 28100  1  0  0  0
 28101  1  0  0  0
 29102  1  0  0  0
 29103  1  0  0  0
 33 34  1  0  0  0
 33 66  1  0  0  0
 33 70  2  0  0  0
 34 36  1  0  0  0
 34 59  1  0  0  0
 34104  1  0  0  0
 35 44  2  0  0  0
 35 45  1  0  0  0
 35 68  1  0  0  0
 36 56  1  0  0  0
 36105  1  0  0  0
 37 39  1  0  0  0
 37 47  1  0  0  0
 37 66  1  0  0  0
 37106  1  0  0  0
 38 43  2  0  0  0
 38 46  1  0  0  0
 38 47  1  0  0  0
 39 64  1  0  0  0
 39 67  2  0  0  0
 40 52  1  0  0  0
 40 53  2  0  0  0
 40 58  1  0  0  0
 41107  1  0  0  0
 41108  1  0  0  0
 41109  1  0  0  0
 41 48  1  0  0  0
 42 43  1  0  0  0
 42 66  1  0  0  0
 42110  1  0  0  0
 42111  1  0  0  0
 43 44  1  0  0  0
 44112  1  0  0  0
 45 46  2  0  0  0
 45113  1  0  0  0
 46114  1  0  0  0
 47115  1  0  0  0
 47116  1  0  0  0
 48 56  1  0  0  0
 48 65  1  0  0  0
 48117  1  0  0  0
 49 50  1  0  0  0
 49 53  1  0  0  0
 49 64  1  0  0  0
 49118  1  0  0  0
 50 51  1  0  0  0
 50119  1  0  0  0
 50120  1  0  0  0
 51 52  1  0  0  0
 51121  1  0  0  0
 51122  1  0  0  0
 52123  1  0  0  0
 52124  1  0  0  0
 53 54  1  0  0  0
 54 55  2  0  0  0
 54125  1  0  0  0
 55 57  1  0  0  0
 55126  1  0  0  0
 56 69  2  0  0  0
 57 58  2  0  0  0
 57127  1  0  0  0
 58128  1  0  0  0
 59 60  1  0  0  0
 59 61  1  0  0  0
 59 62  1  0  0  0
 60129  1  0  0  0
 60130  1  0  0  0
 60131  1  0  0  0
 61132  1  0  0  0
 61133  1  0  0  0
 61134  1  0  0  0
 62135  1  0  0  0
 62136  1  0  0  0
 62137  1  0  0  0
 63 65  1  0  0  0
 63138  1  0  0  0
 63139  1  0  0  0
 63140  1  0  0  0
 64141  1  0  0  0
 65142  1  0  0  0
 68 78  1  0  0  0
 71 72  2  0  0  0
 71 73  1  0  0  0
 71143  1  0  0  0
 72 74  1  0  0  0
 72 76  1  0  0  0
 73 75  2  0  0  0
 73 78  1  0  0  0
 74 77  1  0  0  0
 74 82  2  0  0  0
 75 79  1  0  0  0
 75 82  1  0  0  0
 76144  1  0  0  0
 76145  1  0  0  0
 76146  1  0  0  0
 77147  1  0  0  0
 77148  1  0  0  0
 77149  1  0  0  0
 78150  1  0  0  0
 78151  1  0  0  0
 79 80  1  0  0  0
 79152  1  0  0  0
 79153  1  0  0  0
 80 81  1  0  0  0
 80154  1  0  0  0
 80155  1  0  0  0
 81 83  1  0  0  0
 81156  1  0  0  0
 81157  1  0  0  0
 83158  1  0  0  0
M  ISO  4   1 100  68 101  78 101  83 100
M  END
> <chiral flag>
0

> <version>
0

> <s_m_source_file>
/data/baiqing/PycharmProjects/Reinvent-master-3.2/result/LINK_invent/BTK/process_docking_weight1_custom_sum_contain_oxygen_bond_distance_aromatic_linkinvent_7_9_3/rearranged_h_0086.sdf

> <i_m_source_file_index>
85

> <r_mmod_Potential_Energy-OPLS-2005>
16064.0068359375

> <r_mmod_Stretch_Energy-OPLS-2005>
7228.45947265625

> <r_mmod_Bend_Energy-OPLS-2005>
2820.12646484375

> <r_mmod_Torsional_Energy-OPLS-2005>
567.392211914062

> <r_mmod_Improper_Torsional_Energy-OPLS-2005>
62.1759300231934

> <r_mmod_Van_der_Waal_Energy-OPLS-2005>
1916.4990234375

> <r_mmod_Electrostatic_Energy-OPLS-2005>
-527.502746582031

> <r_mmod_Solvation_Energy-OPLS-2005>
-229.582138061523

> <b_mmod_Minimization_Converged-OPLS-2005>
0

> <r_mmod_RMS_Derivative-OPLS-2005>
99.9990005493164

$$$$
86
                    3D
 Structure written by MMmdl.
163171  0  0  1  0            999 V2000
  -30.7557  -14.5257   20.5736 C   0  0  0  0  0  0
  -30.4171  -12.3445   19.4714 C   0  0  0  0  0  0
  -29.4987  -12.5178   18.2456 C   0  0  0  0  0  0
  -28.0224  -12.3671   18.6542 C   0  0  0  0  0  0
  -27.6545  -13.2285   19.8915 C   0  0  2  0  0  0
  -28.7009  -13.0744   21.0236 C   0  0  0  0  0  0
  -25.2481  -13.8202   20.5703 C   0  0  0  0  0  0
  -24.1747  -13.0435   20.9204 C   0  0  0  0  0  0
  -24.6342  -11.6922   20.8745 C   0  0  0  0  0  0
  -23.9020  -10.4270   21.0404 C   0  0  0  0  0  0
  -24.3568   -9.4193   21.9182 C   0  0  0  0  0  0
  -23.6254   -8.2223   22.0748 C   0  0  0  0  0  0
  -22.4244   -8.0233   21.3525 C   0  0  0  0  0  0
  -21.9863   -9.0223   20.4642 C   0  0  0  0  0  0
  -22.7189  -10.2119   20.3065 C   0  0  0  0  0  0
  -21.6854   -6.0699   22.5278 C   0  0  0  0  0  0
  -21.4020   -6.5613   23.8208 C   0  0  0  0  0  0
  -21.3676   -5.6779   24.9183 C   0  0  0  0  0  0
  -21.6054   -4.3038   24.7251 C   0  0  0  0  0  0
  -21.8811   -3.8113   23.4371 C   0  0  0  0  0  0
  -21.9194   -4.6924   22.3419 C   0  0  0  0  0  0
  -22.7765  -13.5217   21.1888 C   0  0  0  0  0  0
  -22.1653   -4.2102   21.1004 F   0  0  0  0  0  0
  -21.5637   -3.4529   25.7770 F   0  0  0  0  0  0
  -30.0329  -13.3683   20.4598 N   0  0  0  0  0  0
  -26.2955  -12.9405   20.3490 N   0  0  0  0  0  0
  -25.9289  -11.6542   20.5841 N   0  0  0  0  0  0
  -22.0430  -12.8190   22.0481 N   0  0  0  0  0  0
  -25.4178  -15.1902   20.4010 N   0  0  0  0  0  0
  -31.8825  -14.6283   20.0963 O   0  0  0  0  0  0
  -21.6630   -6.8817   21.4225 O   0  0  0  0  0  0
  -22.3423  -14.5521   20.6771 O   0  0  0  0  0  0
  -24.6136  -31.8668   23.2103 C   0  0  0  0  0  0
  -25.9033  -32.4826   23.8387 C   0  0  1  0  0  0
  -27.2327  -27.4171   20.1053 C   0  0  0  0  0  0
  -25.5894  -33.8619   24.2317 N   0  0  0  0  0  0
  -23.3998  -30.4938   21.5501 C   0  0  2  0  0  0
  -24.8460  -28.9602   20.1083 C   0  0  0  0  0  0
  -22.7397  -29.4664   22.4974 C   0  0  0  0  0  0
  -18.0272  -28.1386   22.8486 C   0  0  0  0  0  0
  -24.1484  -36.7324   23.2635 C   0  0  0  0  0  0
  -25.9284  -30.8304   21.3634 C   0  0  0  0  0  0
  -26.0029  -29.4610   20.7148 C   0  0  0  0  0  0
  -27.1932  -28.6965   20.7126 C   0  0  0  0  0  0
  -26.0553  -26.9396   19.4793 C   0  0  0  0  0  0
  -24.8689  -27.7000   19.4859 C   0  0  0  0  0  0
  -23.6078  -29.8292   20.1610 C   0  0  0  0  0  0
  -25.4104  -36.3115   24.0333 C   0  0  1  0  0  0
  -20.5863  -28.3672   23.1321 C   0  0  2  0  0  0
  -20.6767  -26.9407   22.5431 C   0  0  0  0  0  0
  -19.5755  -26.6387   21.5217 C   0  0  0  0  0  0
  -18.1920  -26.7928   22.1615 C   0  0  0  0  0  0
  -19.1520  -28.8842   23.2904 C   0  0  0  0  0  0
  -18.9455  -30.1447   23.8916 C   0  0  0  0  0  0
  -17.6464  -30.6588   24.0573 C   0  0  0  0  0  0
  -25.9033  -34.9474   23.5128 C   0  0  0  0  0  0
  -16.5352  -29.9101   23.6321 C   0  0  0  0  0  0
  -16.7265  -28.6527   23.0331 C   0  0  0  0  0  0
  -26.4462  -31.6600   25.0705 C   0  0  0  0  0  0
  -25.3745  -31.3709   26.1477 C   0  0  0  0  0  0
  -27.0274  -30.3043   24.6059 C   0  0  0  0  0  0
  -27.6038  -32.4303   25.7477 C   0  0  0  0  0  0
  -27.5588  -37.1803   24.8453 C   0  0  0  0  0  0
  -21.4124  -29.3033   22.3720 N   0  0  0  0  0  0
  -26.4284  -37.3803   23.9417 N   0  0  0  0  0  0
  -24.6654  -31.0784   22.1007 N   0  0  0  0  0  0
  -23.4175  -28.8202   23.3011 O   0  0  0  0  0  0
  -28.4147  -26.6941   20.1599 O   0  0  0  0  0  0
  -26.5606  -34.8927   22.4690 O   0  0  0  0  0  0
  -23.5340  -32.1419   23.7511 O   0  0  0  0  0  0
  -31.2382  -21.4338   20.9853 C   0  0  0  0  0  0
  -29.9580  -19.9386   19.1292 C   0  0  0  0  0  0
  -30.4454  -22.0528   19.9777 C   0  0  0  0  0  0
  -30.8145  -19.3201   20.0845 C   0  0  0  0  0  0
  -32.0001  -22.2387   22.0230 C   0  0  0  0  0  0
  -29.2086  -19.1414   18.0784 C   0  0  0  0  0  0
  -32.7105  -17.6759   19.8573 C   0  0  0  0  0  0
  -30.4559  -23.5759   19.7123 C   0  0  0  0  0  0
  -29.5385  -24.5180   20.5512 C   0  0  0  0  0  0
  -30.6538  -17.0040   21.2965 C   0  0  0  0  0  0
  -28.4479  -25.3053   19.7677 C   0  0  0  0  0  0
  -31.1785  -17.8050   20.0527 C   0  0  1  0  0  0
  -29.7762  -21.2875   19.0787 N   0  0  0  0  0  0
  -31.4122  -20.0840   21.0379 N   0  0  0  0  0  0
  -30.1456  -15.6070   21.1078 N   0  0  0  0  0  0
  -31.4641  -12.4171   19.1715 H   0  0  0  0  0  0
  -30.3040  -11.3495   19.9038 H   0  0  0  0  0  0
  -29.7545  -11.7832   17.4810 H   0  0  0  0  0  0
  -29.6603  -13.5033   17.8037 H   0  0  0  0  0  0
  -27.8459  -11.3122   18.8753 H   0  0  0  0  0  0
  -27.3693  -12.6168   17.8163 H   0  0  0  0  0  0
  -27.6788  -14.2696   19.5697 H   0  0  0  0  0  0
  -28.6773  -12.0567   21.4181 H   0  0  0  0  0  0
  -28.4579  -13.7188   21.8720 H   0  0  0  0  0  0
  -25.2702   -9.5693   22.4752 H   0  0  0  0  0  0
  -23.9995   -7.4605   22.7438 H   0  0  0  0  0  0
  -21.0817   -8.8714   19.8914 H   0  0  0  0  0  0
  -22.3622  -10.9643   19.6165 H   0  0  0  0  0  0
  -21.2011   -7.6120   23.9711 H   0  0  0  0  0  0
  -21.1502   -6.0511   25.9091 H   0  0  0  0  0  0
  -22.0581   -2.7572   23.2912 H   0  0  0  0  0  0
  -22.4085  -11.9862   22.4847 H   0  0  0  0  0  0
  -21.1053  -13.1203   22.2730 H   0  0  0  0  0  0
  -24.6528  -15.8531   20.4616 H   0  0  0  0  0  0
  -26.2790  -15.6140   20.0788 H   0  0  0  0  0  0
  -26.7104  -32.5531   23.1150 H   0  0  0  0  0  0
  -25.0029  -33.9780   25.0460 H   0  0  0  0  0  0
  -22.6887  -31.3109   21.4161 H   0  0  0  0  0  0
  -23.3747  -35.9653   23.3268 H   0  0  0  0  0  0
  -24.3593  -36.8971   22.2056 H   0  0  0  0  0  0
  -23.7222  -37.6513   23.6674 H   0  0  0  0  0  0
  -26.0342  -31.5949   20.5905 H   0  0  0  0  0  0
  -26.8190  -30.8898   21.9768 H   0  0  0  0  0  0
  -28.0803  -29.0754   21.2002 H   0  0  0  0  0  0
  -26.0250  -25.9840   18.9790 H   0  0  0  0  0  0
  -23.9813  -27.3140   19.0030 H   0  0  0  0  0  0
  -23.7129  -30.6087   19.4041 H   0  0  0  0  0  0
  -22.7289  -29.2541   19.8660 H   0  0  0  0  0  0
  -25.1273  -36.1973   25.0825 H   0  0  0  0  0  0
  -20.9957  -28.3242   24.1442 H   0  0  0  0  0  0
  -20.5668  -26.2269   23.3615 H   0  0  0  0  0  0
  -21.6638  -26.7446   22.1233 H   0  0  0  0  0  0
  -19.6917  -25.6298   21.1237 H   0  0  0  0  0  0
  -19.6708  -27.3199   20.6745 H   0  0  0  0  0  0
  -17.4198  -26.6681   21.4009 H   0  0  0  0  0  0
  -18.0327  -26.0072   22.9010 H   0  0  0  0  0  0
  -19.7938  -30.7253   24.2290 H   0  0  0  0  0  0
  -17.5026  -31.6269   24.5176 H   0  0  0  0  0  0
  -15.5356  -30.3017   23.7641 H   0  0  0  0  0  0
  -15.8661  -28.0864   22.7016 H   0  0  0  0  0  0
  -24.5918  -30.7046   25.7842 H   0  0  0  0  0  0
  -24.8944  -32.2873   26.4927 H   0  0  0  0  0  0
  -25.8126  -30.8897   27.0232 H   0  0  0  0  0  0
  -26.2800  -29.6827   24.1118 H   0  0  0  0  0  0
  -27.4062  -29.7255   25.4488 H   0  0  0  0  0  0
  -27.8630  -30.4364   23.9176 H   0  0  0  0  0  0
  -27.2659  -33.3585   26.2101 H   0  0  0  0  0  0
  -28.3850  -32.6886   25.0313 H   0  0  0  0  0  0
  -28.0713  -31.8392   26.5372 H   0  0  0  0  0  0
  -28.2577  -38.0127   24.7547 H   0  0  0  0  0  0
  -28.1106  -36.2662   24.6208 H   0  0  0  0  0  0
  -27.2321  -37.1377   25.8857 H   0  0  0  0  0  0
  -20.9271  -29.8766   21.6966 H   0  0  0  0  0  0
  -26.0171  -38.2867   24.1456 H   0  0  0  0  0  0
  -31.3573  -22.9760   22.5033 H   0  0  0  0  0  0
  -32.8384  -22.7544   21.5556 H   0  0  0  0  0  0
  -32.4054  -21.5958   22.8055 H   0  0  0  0  0  0
  -28.5713  -18.3935   18.5544 H   0  0  0  0  0  0
  -29.9044  -18.6268   17.4145 H   0  0  0  0  0  0
  -28.5782  -19.7949   17.4715 H   0  0  0  0  0  0
  -33.0333  -18.0740   18.8947 H   0  0  0  0  0  0
  -33.0768  -16.6566   19.9114 H   0  0  0  0  0  0
  -33.2507  -18.2330   20.6236 H   0  0  0  0  0  0
  -30.2679  -23.7425   18.6505 H   0  0  0  0  0  0
  -31.4859  -23.9058   19.8500 H   0  0  0  0  0  0
  -30.1931  -25.2645   21.0024 H   0  0  0  0  0  0
  -29.1000  -23.9983   21.4034 H   0  0  0  0  0  0
  -29.7934  -17.5547   21.6828 H   0  0  0  0  0  0
  -31.4026  -17.0443   22.0922 H   0  0  0  0  0  0
  -27.4976  -24.7961   19.9363 H   0  0  0  0  0  0
  -28.6382  -25.2839   18.6956 H   0  0  0  0  0  0
  -30.7253  -17.3639   19.1681 H   0  0  0  0  0  0
  -29.2146  -15.4448   21.4649 H   0  0  0  0  0  0
  1 25  1  0  0  0
  1 30  2  0  0  0
  1 85  1  0  0  0
  2  3  1  0  0  0
  2 25  1  0  0  0
  2 86  1  0  0  0
  2 87  1  0  0  0
  3  4  1  0  0  0
  3 88  1  0  0  0
  3 89  1  0  0  0
  4  5  1  0  0  0
  4 90  1  0  0  0
  4 91  1  0  0  0
  5  6  1  0  0  0
  5 26  1  0  0  0
  5 92  1  0  0  0
  6 25  1  0  0  0
  6 93  1  0  0  0
  6 94  1  0  0  0
  7  8  2  0  0  0
  7 26  1  0  0  0
  7 29  1  0  0  0
  8  9  1  0  0  0
  8 22  1  0  0  0
  9 10  1  0  0  0
  9 27  2  0  0  0
 10 11  2  0  0  0
 10 15  1  0  0  0
 11 12  1  0  0  0
 11 95  1  0  0  0
 12 13  2  0  0  0
 12 96  1  0  0  0
 13 14  1  0  0  0
 13 31  1  0  0  0
 14 15  2  0  0  0
 14 97  1  0  0  0
 15 98  1  0  0  0
 16 17  2  0  0  0
 16 21  1  0  0  0
 16 31  1  0  0  0
 17 18  1  0  0  0
 17 99  1  0  0  0
 18 19  2  0  0  0
 18100  1  0  0  0
 19 20  1  0  0  0
 19 24  1  0  0  0
 20 21  2  0  0  0
 20101  1  0  0  0
 21 23  1  0  0  0
 22 28  1  0  0  0
 22 32  2  0  0  0
 26 27  1  0  0  0
 28102  1  0  0  0
 28103  1  0  0  0
 29104  1  0  0  0
 29105  1  0  0  0
 33 34  1  0  0  0
 33 66  1  0  0  0
 33 70  2  0  0  0
 34 36  1  0  0  0
 34 59  1  0  0  0
 34106  1  0  0  0
 35 44  2  0  0  0
 35 45  1  0  0  0
 35 68  1  0  0  0
 36 56  1  0  0  0
 36107  1  0  0  0
 37 39  1  0  0  0
 37 47  1  0  0  0
 37 66  1  0  0  0
 37108  1  0  0  0
 38 43  2  0  0  0
 38 46  1  0  0  0
 38 47  1  0  0  0
 39 64  1  0  0  0
 39 67  2  0  0  0
 40 52  1  0  0  0
 40 53  2  0  0  0
 40 58  1  0  0  0
 41109  1  0  0  0
 41110  1  0  0  0
 41111  1  0  0  0
 41 48  1  0  0  0
 42 43  1  0  0  0
 42 66  1  0  0  0
 42112  1  0  0  0
 42113  1  0  0  0
 43 44  1  0  0  0
 44114  1  0  0  0
 45 46  2  0  0  0
 45115  1  0  0  0
 46116  1  0  0  0
 47117  1  0  0  0
 47118  1  0  0  0
 48 56  1  0  0  0
 48 65  1  0  0  0
 48119  1  0  0  0
 49 50  1  0  0  0
 49 53  1  0  0  0
 49 64  1  0  0  0
 49120  1  0  0  0
 50 51  1  0  0  0
 50121  1  0  0  0
 50122  1  0  0  0
 51 52  1  0  0  0
 51123  1  0  0  0
 51124  1  0  0  0
 52125  1  0  0  0
 52126  1  0  0  0
 53 54  1  0  0  0
 54 55  2  0  0  0
 54127  1  0  0  0
 55 57  1  0  0  0
 55128  1  0  0  0
 56 69  2  0  0  0
 57 58  2  0  0  0
 57129  1  0  0  0
 58130  1  0  0  0
 59 60  1  0  0  0
 59 61  1  0  0  0
 59 62  1  0  0  0
 60131  1  0  0  0
 60132  1  0  0  0
 60133  1  0  0  0
 61134  1  0  0  0
 61135  1  0  0  0
 61136  1  0  0  0
 62137  1  0  0  0
 62138  1  0  0  0
 62139  1  0  0  0
 63 65  1  0  0  0
 63140  1  0  0  0
 63141  1  0  0  0
 63142  1  0  0  0
 64143  1  0  0  0
 65144  1  0  0  0
 68 81  1  0  0  0
 71 73  2  0  0  0
 71 75  1  0  0  0
 71 84  1  0  0  0
 72 74  1  0  0  0
 72 76  1  0  0  0
 72 83  2  0  0  0
 73 78  1  0  0  0
 73 83  1  0  0  0
 74 82  1  0  0  0
 74 84  2  0  0  0
 75145  1  0  0  0
 75146  1  0  0  0
 75147  1  0  0  0
 76148  1  0  0  0
 76149  1  0  0  0
 76150  1  0  0  0
 77151  1  0  0  0
 77152  1  0  0  0
 77153  1  0  0  0
 77 82  1  0  0  0
 78 79  1  0  0  0
 78154  1  0  0  0
 78155  1  0  0  0
 79 81  1  0  0  0
 79156  1  0  0  0
 79157  1  0  0  0
 80 82  1  0  0  0
 80 85  1  0  0  0
 80158  1  0  0  0
 80159  1  0  0  0
 81160  1  0  0  0
 81161  1  0  0  0
 82162  1  0  0  0
 85163  1  0  0  0
M  ISO  4   1 100  68 101  81 101  85 100
M  END
> <chiral flag>
0

> <version>
0

> <s_m_source_file>
/data/baiqing/PycharmProjects/Reinvent-master-3.2/result/LINK_invent/BTK/process_docking_weight1_custom_sum_contain_oxygen_bond_distance_aromatic_linkinvent_7_9_3/rearranged_h_0086.sdf

> <i_m_source_file_index>
86

> <r_mmod_Potential_Energy-OPLS-2005>
-28.8231334686279

> <r_mmod_Stretch_Energy-OPLS-2005>
52.9896087646484

> <r_mmod_Bend_Energy-OPLS-2005>
130.859619140625

> <r_mmod_Torsional_Energy-OPLS-2005>
214.161178588867

> <r_mmod_Improper_Torsional_Energy-OPLS-2005>
3.89780712127686

> <r_mmod_Van_der_Waal_Energy-OPLS-2005>
158.999771118164

> <r_mmod_Electrostatic_Energy-OPLS-2005>
-393.193572998047

> <r_mmod_Solvation_Energy-OPLS-2005>
-218.263275146484

> <b_mmod_Minimization_Converged-OPLS-2005>
0

> <r_mmod_RMS_Derivative-OPLS-2005>
5.15368366241455

$$$$
87
                    3D
 Structure written by MMmdl.
166174  0  0  1  0            999 V2000
  -30.6183  -14.6034   20.5119 C   0  0  0  0  0  0
  -30.4451  -12.3780   19.4425 C   0  0  0  0  0  0
  -29.4961  -12.4952   18.2262 C   0  0  0  0  0  0
  -28.0180  -12.3487   18.6431 C   0  0  0  0  0  0
  -27.6552  -13.2024   19.8867 C   0  0  2  0  0  0
  -28.7062  -13.0300   21.0064 C   0  0  0  0  0  0
  -25.2546  -13.8139   20.5718 C   0  0  0  0  0  0
  -24.1784  -13.0407   20.9204 C   0  0  0  0  0  0
  -24.6343  -11.6887   20.8788 C   0  0  0  0  0  0
  -23.9019  -10.4275   21.0431 C   0  0  0  0  0  0
  -24.3577   -9.4174   21.9166 C   0  0  0  0  0  0
  -23.6248   -8.2215   22.0736 C   0  0  0  0  0  0
  -22.4234   -8.0259   21.3548 C   0  0  0  0  0  0
  -21.9877   -9.0226   20.4653 C   0  0  0  0  0  0
  -22.7212  -10.2103   20.3069 C   0  0  0  0  0  0
  -21.6827   -6.0708   22.5254 C   0  0  0  0  0  0
  -21.4004   -6.5615   23.8183 C   0  0  0  0  0  0
  -21.3663   -5.6776   24.9151 C   0  0  0  0  0  0
  -21.6058   -4.3037   24.7205 C   0  0  0  0  0  0
  -21.8815   -3.8122   23.4328 C   0  0  0  0  0  0
  -21.9183   -4.6936   22.3379 C   0  0  0  0  0  0
  -22.7808  -13.5217   21.1835 C   0  0  0  0  0  0
  -22.1645   -4.2114   21.0959 F   0  0  0  0  0  0
  -21.5645   -3.4529   25.7726 F   0  0  0  0  0  0
  -30.0205  -13.3764   20.4398 N   0  0  0  0  0  0
  -26.2983  -12.9290   20.3485 N   0  0  0  0  0  0
  -25.9288  -11.6460   20.5884 N   0  0  0  0  0  0
  -22.0452  -12.8224   22.0420 N   0  0  0  0  0  0
  -25.4276  -15.1833   20.4093 N   0  0  0  0  0  0
  -31.7734  -14.7956   20.1220 O   0  0  0  0  0  0
  -21.6618   -6.8846   21.4220 O   0  0  0  0  0  0
  -22.3506  -14.5499   20.6664 O   0  0  0  0  0  0
  -24.6193  -31.8611   23.2051 C   0  0  0  0  0  0
  -25.9070  -32.4778   23.8370 C   0  0  1  0  0  0
  -27.2337  -27.3876   20.1221 C   0  0  0  0  0  0
  -25.5904  -33.8581   24.2300 N   0  0  0  0  0  0
  -23.4114  -30.4869   21.5397 C   0  0  2  0  0  0
  -24.8620  -28.9412   20.1149 C   0  0  0  0  0  0
  -22.7430  -29.4650   22.4893 C   0  0  0  0  0  0
  -18.0291  -28.1383   22.8482 C   0  0  0  0  0  0
  -24.1479  -36.7311   23.2636 C   0  0  0  0  0  0
  -25.9433  -30.8150   21.3648 C   0  0  0  0  0  0
  -26.0224  -29.4436   20.7192 C   0  0  0  0  0  0
  -27.2135  -28.6740   20.7222 C   0  0  0  0  0  0
  -26.0621  -26.9118   19.5024 C   0  0  0  0  0  0
  -24.8784  -27.6749   19.5028 C   0  0  0  0  0  0
  -23.6259  -29.8132   20.1576 C   0  0  0  0  0  0
  -25.4093  -36.3087   24.0336 C   0  0  1  0  0  0
  -20.5876  -28.3692   23.1259 C   0  0  2  0  0  0
  -20.6765  -26.9411   22.5394 C   0  0  0  0  0  0
  -19.5748  -26.6384   21.5191 C   0  0  0  0  0  0
  -18.1932  -26.7928   22.1614 C   0  0  0  0  0  0
  -19.1539  -28.8853   23.2875 C   0  0  0  0  0  0
  -18.9468  -30.1447   23.8904 C   0  0  0  0  0  0
  -17.6468  -30.6578   24.0576 C   0  0  0  0  0  0
  -25.9025  -34.9454   23.5115 C   0  0  0  0  0  0
  -16.5357  -29.9082   23.6328 C   0  0  0  0  0  0
  -16.7279  -28.6502   23.0343 C   0  0  0  0  0  0
  -26.4499  -31.6584   25.0723 C   0  0  0  0  0  0
  -25.3784  -31.3710   26.1492 C   0  0  0  0  0  0
  -27.0323  -30.3010   24.6132 C   0  0  0  0  0  0
  -27.6047  -32.4322   25.7505 C   0  0  0  0  0  0
  -27.5568  -37.1809   24.8461 C   0  0  0  0  0  0
  -21.4145  -29.3062   22.3651 N   0  0  0  0  0  0
  -26.4277  -37.3775   23.9411 N   0  0  0  0  0  0
  -24.6759  -31.0707   22.0939 N   0  0  0  0  0  0
  -23.4180  -28.8185   23.2947 O   0  0  0  0  0  0
  -28.3640  -26.5893   20.1066 O   0  0  0  0  0  0
  -26.5581  -34.8921   22.4669 O   0  0  0  0  0  0
  -23.5370  -32.1364   23.7431 O   0  0  0  0  0  0
  -28.4425  -21.5667   20.2608 C   0  0  0  0  0  0
  -28.9680  -22.8131   20.7182 C   0  0  0  0  0  0
  -29.2735  -20.4084   20.1476 C   0  0  0  0  0  0
  -30.3290  -22.7365   21.1385 C   0  0  0  0  0  0
  -31.1006  -23.8705   21.7756 C   0  0  0  0  0  0
  -28.7138  -19.7781   17.8180 C   0  0  0  0  0  0
  -30.7483  -17.7136   18.4106 C   0  0  0  0  0  0
  -28.4514  -16.7808   18.6661 C   0  0  0  0  0  0
  -28.0180  -24.0668   20.6927 C   0  0  0  0  0  0
  -29.8915  -17.1232   20.7152 C   0  0  0  0  0  0
  -28.4172  -25.5409   21.1112 C   0  0  0  0  0  0
  -28.8196  -19.2159   19.2618 C   0  0  1  0  0  0
  -29.4885  -17.7420   19.3080 C   0  0  0  0  0  0
  -30.5740  -20.4708   20.5061 N   0  0  0  0  0  0
  -31.0650  -21.5965   21.0338 N   0  0  0  0  0  0
  -29.7855  -15.6271   20.8496 N   0  0  0  0  0  0
  -31.4737  -12.5375   19.1171 H   0  0  0  0  0  0
  -30.4244  -11.3763   19.8731 H   0  0  0  0  0  0
  -29.7474  -11.7384   17.4824 H   0  0  0  0  0  0
  -29.6353  -13.4604   17.7389 H   0  0  0  0  0  0
  -27.8351  -11.2929   18.8505 H   0  0  0  0  0  0
  -27.3634  -12.6078   17.8116 H   0  0  0  0  0  0
  -27.6783  -14.2423   19.5702 H   0  0  0  0  0  0
  -28.7143  -12.0002   21.3629 H   0  0  0  0  0  0
  -28.4606  -13.6387   21.8789 H   0  0  0  0  0  0
  -25.2715   -9.5605   22.4754 H   0  0  0  0  0  0
  -23.9935   -7.4598   22.7445 H   0  0  0  0  0  0
  -21.0810   -8.8759   19.8946 H   0  0  0  0  0  0
  -22.3673  -10.9645   19.6188 H   0  0  0  0  0  0
  -21.1990   -7.6127   23.9666 H   0  0  0  0  0  0
  -21.1505   -6.0516   25.9052 H   0  0  0  0  0  0
  -22.0601   -2.7593   23.2829 H   0  0  0  0  0  0
  -22.4119  -11.9940   22.4856 H   0  0  0  0  0  0
  -21.1077  -13.1243   22.2661 H   0  0  0  0  0  0
  -24.6653  -15.8448   20.5152 H   0  0  0  0  0  0
  -26.2744  -15.6058   20.0538 H   0  0  0  0  0  0
  -26.7142  -32.5497   23.1130 H   0  0  0  0  0  0
  -25.0121  -33.9720   25.0497 H   0  0  0  0  0  0
  -22.7038  -31.3054   21.3911 H   0  0  0  0  0  0
  -23.3722  -35.9665   23.3300 H   0  0  0  0  0  0
  -24.3578  -36.8922   22.2051 H   0  0  0  0  0  0
  -23.7263  -37.6530   23.6653 H   0  0  0  0  0  0
  -26.0588  -31.5755   20.5917 H   0  0  0  0  0  0
  -26.8284  -30.8717   21.9872 H   0  0  0  0  0  0
  -28.1072  -29.0527   21.1987 H   0  0  0  0  0  0
  -26.0654  -25.9437   19.0219 H   0  0  0  0  0  0
  -23.9881  -27.2811   19.0319 H   0  0  0  0  0  0
  -23.7399  -30.5805   19.3914 H   0  0  0  0  0  0
  -22.7515  -29.2313   19.8602 H   0  0  0  0  0  0
  -25.1268  -36.1935   25.0830 H   0  0  0  0  0  0
  -20.9996  -28.3289   24.1365 H   0  0  0  0  0  0
  -20.5631  -26.2311   23.3602 H   0  0  0  0  0  0
  -21.6640  -26.7417   22.1213 H   0  0  0  0  0  0
  -19.6902  -25.6293   21.1222 H   0  0  0  0  0  0
  -19.6685  -27.3192   20.6721 H   0  0  0  0  0  0
  -17.4187  -26.6665   21.4027 H   0  0  0  0  0  0
  -18.0362  -26.0064   22.9014 H   0  0  0  0  0  0
  -19.7945  -30.7261   24.2270 H   0  0  0  0  0  0
  -17.5027  -31.6260   24.5180 H   0  0  0  0  0  0
  -15.5358  -30.2991   23.7647 H   0  0  0  0  0  0
  -15.8679  -28.0831   22.7035 H   0  0  0  0  0  0
  -24.5948  -30.7037   25.7880 H   0  0  0  0  0  0
  -24.9005  -32.2877   26.4956 H   0  0  0  0  0  0
  -25.8184  -30.8904   27.0240 H   0  0  0  0  0  0
  -26.2868  -29.6764   24.1184 H   0  0  0  0  0  0
  -27.4056  -29.7254   25.4615 H   0  0  0  0  0  0
  -27.8733  -30.4287   23.9306 H   0  0  0  0  0  0
  -27.2625  -33.3601   26.2096 H   0  0  0  0  0  0
  -28.3877  -32.6902   25.0365 H   0  0  0  0  0  0
  -28.0696  -31.8444   26.5429 H   0  0  0  0  0  0
  -28.2579  -38.0106   24.7481 H   0  0  0  0  0  0
  -28.1057  -36.2632   24.6297 H   0  0  0  0  0  0
  -27.2289  -37.1486   25.8864 H   0  0  0  0  0  0
  -20.9289  -29.8817   21.6910 H   0  0  0  0  0  0
  -26.0150  -38.2844   24.1422 H   0  0  0  0  0  0
  -27.4230  -21.5245   19.9053 H   0  0  0  0  0  0
  -30.6017  -24.2010   22.6866 H   0  0  0  0  0  0
  -31.2267  -24.6967   21.0768 H   0  0  0  0  0  0
  -32.1017  -23.5543   22.0679 H   0  0  0  0  0  0
  -28.0135  -20.6122   17.7669 H   0  0  0  0  0  0
  -28.3758  -19.0604   17.0787 H   0  0  0  0  0  0
  -29.6787  -20.1565   17.4863 H   0  0  0  0  0  0
  -31.2542  -16.7488   18.4414 H   0  0  0  0  0  0
  -31.4740  -18.4631   18.7284 H   0  0  0  0  0  0
  -30.5176  -17.9016   17.3603 H   0  0  0  0  0  0
  -28.8792  -15.8027   18.4605 H   0  0  0  0  0  0
  -28.0610  -17.1159   17.7085 H   0  0  0  0  0  0
  -27.5949  -16.6461   19.3224 H   0  0  0  0  0  0
  -27.1856  -23.7908   21.3429 H   0  0  0  0  0  0
  -27.5691  -24.1139   19.7003 H   0  0  0  0  0  0
  -29.2160  -17.5355   21.4655 H   0  0  0  0  0  0
  -30.8872  -17.4535   21.0177 H   0  0  0  0  0  0
  -29.3894  -25.6206   21.5712 H   0  0  0  0  0  0
  -27.7581  -25.8324   21.9316 H   0  0  0  0  0  0
  -27.7978  -19.0567   19.6079 H   0  0  0  0  0  0
  -28.8937  -15.3101   21.1984 H   0  0  0  0  0  0
  1 25  1  0  0  0
  1 30  2  0  0  0
  1 86  1  0  0  0
  2  3  1  0  0  0
  2 25  1  0  0  0
  2 87  1  0  0  0
  2 88  1  0  0  0
  3  4  1  0  0  0
  3 89  1  0  0  0
  3 90  1  0  0  0
  4  5  1  0  0  0
  4 91  1  0  0  0
  4 92  1  0  0  0
  5  6  1  0  0  0
  5 26  1  0  0  0
  5 93  1  0  0  0
  6 25  1  0  0  0
  6 94  1  0  0  0
  6 95  1  0  0  0
  7  8  2  0  0  0
  7 26  1  0  0  0
  7 29  1  0  0  0
  8  9  1  0  0  0
  8 22  1  0  0  0
  9 10  1  0  0  0
  9 27  2  0  0  0
 10 11  2  0  0  0
 10 15  1  0  0  0
 11 12  1  0  0  0
 11 96  1  0  0  0
 12 13  2  0  0  0
 12 97  1  0  0  0
 13 14  1  0  0  0
 13 31  1  0  0  0
 14 15  2  0  0  0
 14 98  1  0  0  0
 15 99  1  0  0  0
 16 17  2  0  0  0
 16 21  1  0  0  0
 16 31  1  0  0  0
 17 18  1  0  0  0
 17100  1  0  0  0
 18 19  2  0  0  0
 18101  1  0  0  0
 19 20  1  0  0  0
 19 24  1  0  0  0
 20 21  2  0  0  0
 20102  1  0  0  0
 21 23  1  0  0  0
 22 28  1  0  0  0
 22 32  2  0  0  0
 26 27  1  0  0  0
 28103  1  0  0  0
 28104  1  0  0  0
 29105  1  0  0  0
 29106  1  0  0  0
 33 34  1  0  0  0
 33 66  1  0  0  0
 33 70  2  0  0  0
 34 36  1  0  0  0
 34 59  1  0  0  0
 34107  1  0  0  0
 35 44  2  0  0  0
 35 45  1  0  0  0
 35 68  1  0  0  0
 36 56  1  0  0  0
 36108  1  0  0  0
 37 39  1  0  0  0
 37 47  1  0  0  0
 37 66  1  0  0  0
 37109  1  0  0  0
 38 43  2  0  0  0
 38 46  1  0  0  0
 38 47  1  0  0  0
 39 64  1  0  0  0
 39 67  2  0  0  0
 40 52  1  0  0  0
 40 53  2  0  0  0
 40 58  1  0  0  0
 41110  1  0  0  0
 41111  1  0  0  0
 41112  1  0  0  0
 41 48  1  0  0  0
 42 43  1  0  0  0
 42 66  1  0  0  0
 42113  1  0  0  0
 42114  1  0  0  0
 43 44  1  0  0  0
 44115  1  0  0  0
 45 46  2  0  0  0
 45116  1  0  0  0
 46117  1  0  0  0
 47118  1  0  0  0
 47119  1  0  0  0
 48 56  1  0  0  0
 48 65  1  0  0  0
 48120  1  0  0  0
 49 50  1  0  0  0
 49 53  1  0  0  0
 49 64  1  0  0  0
 49121  1  0  0  0
 50 51  1  0  0  0
 50122  1  0  0  0
 50123  1  0  0  0
 51 52  1  0  0  0
 51124  1  0  0  0
 51125  1  0  0  0
 52126  1  0  0  0
 52127  1  0  0  0
 53 54  1  0  0  0
 54 55  2  0  0  0
 54128  1  0  0  0
 55 57  1  0  0  0
 55129  1  0  0  0
 56 69  2  0  0  0
 57 58  2  0  0  0
 57130  1  0  0  0
 58131  1  0  0  0
 59 60  1  0  0  0
 59 61  1  0  0  0
 59 62  1  0  0  0
 60132  1  0  0  0
 60133  1  0  0  0
 60134  1  0  0  0
 61135  1  0  0  0
 61136  1  0  0  0
 61137  1  0  0  0
 62138  1  0  0  0
 62139  1  0  0  0
 62140  1  0  0  0
 63 65  1  0  0  0
 63141  1  0  0  0
 63142  1  0  0  0
 63143  1  0  0  0
 64144  1  0  0  0
 65145  1  0  0  0
 68 81  1  0  0  0
 71 72  2  0  0  0
 71 73  1  0  0  0
 71146  1  0  0  0
 72 74  1  0  0  0
 72 79  1  0  0  0
 73 82  1  0  0  0
 73 84  2  0  0  0
 74 75  1  0  0  0
 74 85  2  0  0  0
 75147  1  0  0  0
 75148  1  0  0  0
 75149  1  0  0  0
 76150  1  0  0  0
 76151  1  0  0  0
 76152  1  0  0  0
 76 82  1  0  0  0
 77153  1  0  0  0
 77154  1  0  0  0
 77155  1  0  0  0
 77 83  1  0  0  0
 78 83  1  0  0  0
 78156  1  0  0  0
 78157  1  0  0  0
 78158  1  0  0  0
 79 81  1  0  0  0
 79159  1  0  0  0
 79160  1  0  0  0
 80 83  1  0  0  0
 80 86  1  0  0  0
 80161  1  0  0  0
 80162  1  0  0  0
 81163  1  0  0  0
 81164  1  0  0  0
 82 83  1  0  0  0
 82165  1  0  0  0
 84 85  1  0  0  0
 86166  1  0  0  0
M  ISO  4   1 100  68 101  81 101  86 100
M  END
> <chiral flag>
0

> <version>
0

> <s_m_source_file>
/data/baiqing/PycharmProjects/Reinvent-master-3.2/result/LINK_invent/BTK/process_docking_weight1_custom_sum_contain_oxygen_bond_distance_aromatic_linkinvent_7_9_3/rearranged_h_0086.sdf

> <i_m_source_file_index>
87

> <r_mmod_Potential_Energy-OPLS-2005>
96.1461791992188

> <r_mmod_Stretch_Energy-OPLS-2005>
72.8824005126953

> <r_mmod_Bend_Energy-OPLS-2005>
181.029739379883

> <r_mmod_Torsional_Energy-OPLS-2005>
270.422760009766

> <r_mmod_Improper_Torsional_Energy-OPLS-2005>
7.57455539703369

> <r_mmod_Van_der_Waal_Energy-OPLS-2005>
158.583602905273

> <r_mmod_Electrostatic_Energy-OPLS-2005>
-394.598846435547

> <r_mmod_Solvation_Energy-OPLS-2005>
-230.968811035156

> <b_mmod_Minimization_Converged-OPLS-2005>
0

> <r_mmod_RMS_Derivative-OPLS-2005>
3.41764616966248

$$$$
88
                    3D
 Structure written by MMmdl.
169177  0  0  1  0            999 V2000
  -30.7105  -14.4781   20.4772 C   0  0  0  0  0  0
  -30.4006  -12.2898   19.4221 C   0  0  0  0  0  0
  -29.4784  -12.4987   18.2034 C   0  0  0  0  0  0
  -28.0040  -12.3581   18.6276 C   0  0  0  0  0  0
  -27.6559  -13.2129   19.8741 C   0  0  2  0  0  0
  -28.7035  -13.0246   20.9934 C   0  0  0  0  0  0
  -25.2544  -13.8168   20.5688 C   0  0  0  0  0  0
  -24.1802  -13.0429   20.9208 C   0  0  0  0  0  0
  -24.6387  -11.6920   20.8815 C   0  0  0  0  0  0
  -23.9075  -10.4300   21.0466 C   0  0  0  0  0  0
  -24.3640   -9.4186   21.9197 C   0  0  0  0  0  0
  -23.6311   -8.2221   22.0754 C   0  0  0  0  0  0
  -22.4273   -8.0304   21.3562 C   0  0  0  0  0  0
  -21.9929   -9.0285   20.4659 C   0  0  0  0  0  0
  -22.7277  -10.2153   20.3077 C   0  0  0  0  0  0
  -21.6853   -6.0752   22.5269 C   0  0  0  0  0  0
  -21.4028   -6.5642   23.8211 C   0  0  0  0  0  0
  -21.3661   -5.6786   24.9153 C   0  0  0  0  0  0
  -21.6038   -4.3054   24.7204 C   0  0  0  0  0  0
  -21.8816   -3.8157   23.4323 C   0  0  0  0  0  0
  -21.9186   -4.6978   22.3389 C   0  0  0  0  0  0
  -22.7821  -13.5250   21.1836 C   0  0  0  0  0  0
  -22.1658   -4.2175   21.0975 F   0  0  0  0  0  0
  -21.5621   -3.4532   25.7717 F   0  0  0  0  0  0
  -30.0331  -13.3009   20.4194 N   0  0  0  0  0  0
  -26.2989  -12.9347   20.3397 N   0  0  0  0  0  0
  -25.9309  -11.6513   20.5830 N   0  0  0  0  0  0
  -22.0453  -12.8266   22.0420 N   0  0  0  0  0  0
  -25.4275  -15.1863   20.4060 N   0  0  0  0  0  0
  -31.8619  -14.6171   20.0611 O   0  0  0  0  0  0
  -21.6625   -6.8911   21.4244 O   0  0  0  0  0  0
  -22.3516  -14.5530   20.6677 O   0  0  0  0  0  0
  -24.6133  -31.8679   23.2115 C   0  0  0  0  0  0
  -25.9003  -32.4861   23.8415 C   0  0  1  0  0  0
  -27.2275  -27.4437   20.0808 C   0  0  0  0  0  0
  -25.5859  -33.8664   24.2353 N   0  0  0  0  0  0
  -23.3969  -30.4938   21.5567 C   0  0  2  0  0  0
  -24.8346  -28.9553   20.1152 C   0  0  0  0  0  0
  -22.7393  -29.4652   22.5046 C   0  0  0  0  0  0
  -18.0272  -28.1376   22.8490 C   0  0  0  0  0  0
  -24.1460  -36.7359   23.2634 C   0  0  0  0  0  0
  -25.9202  -30.8364   21.3513 C   0  0  0  0  0  0
  -25.9923  -29.4643   20.7146 C   0  0  0  0  0  0
  -27.1843  -28.7054   20.7121 C   0  0  0  0  0  0
  -26.0468  -26.9365   19.4893 C   0  0  0  0  0  0
  -24.8540  -27.6876   19.5074 C   0  0  0  0  0  0
  -23.5958  -29.8253   20.1702 C   0  0  0  0  0  0
  -25.4079  -36.3168   24.0351 C   0  0  1  0  0  0
  -20.5853  -28.3651   23.1346 C   0  0  2  0  0  0
  -20.6749  -26.9394   22.5425 C   0  0  0  0  0  0
  -19.5734  -26.6387   21.5212 C   0  0  0  0  0  0
  -18.1911  -26.7926   22.1630 C   0  0  0  0  0  0
  -19.1506  -28.8837   23.2917 C   0  0  0  0  0  0
  -18.9438  -30.1431   23.8918 C   0  0  0  0  0  0
  -17.6439  -30.6582   24.0577 C   0  0  0  0  0  0
  -25.9000  -34.9518   23.5152 C   0  0  0  0  0  0
  -16.5338  -29.9089   23.6319 C   0  0  0  0  0  0
  -16.7244  -28.6511   23.0334 C   0  0  0  0  0  0
  -26.4426  -31.6648   25.0745 C   0  0  0  0  0  0
  -25.3723  -31.3773   26.1538 C   0  0  0  0  0  0
  -27.0204  -30.3110   24.6024 C   0  0  0  0  0  0
  -27.6014  -32.4351   25.7513 C   0  0  0  0  0  0
  -27.5580  -37.1832   24.8457 C   0  0  0  0  0  0
  -21.4126  -29.3031   22.3771 N   0  0  0  0  0  0
  -26.4281  -37.3839   23.9422 N   0  0  0  0  0  0
  -24.6645  -31.0789   22.1020 N   0  0  0  0  0  0
  -23.4172  -28.8162   23.3059 O   0  0  0  0  0  0
  -28.4133  -26.7383   20.0888 O   0  0  0  0  0  0
  -26.5560  -34.8957   22.4718 O   0  0  0  0  0  0
  -23.5325  -32.1420   23.7534 O   0  0  0  0  0  0
  -28.9607  -20.1458   19.8142 C   0  0  0  0  0  0
  -29.2064  -21.4546   20.2880 C   0  0  0  0  0  0
  -30.0369  -19.2382   19.7121 C   0  0  0  0  0  0
  -30.5470  -21.7529   20.6730 C   0  0  0  0  0  0
  -32.3511  -22.9607   22.1117 C   0  0  0  0  0  0
  -30.6852  -17.4127   18.1265 C   0  0  0  0  0  0
  -28.4111  -17.3119   19.0987 C   0  0  0  0  0  0
  -27.9802  -22.3679   20.4112 C   0  0  0  0  0  0
  -30.9552  -23.0039   21.4572 C   0  0  0  0  0  0
  -28.1347  -23.9044   20.3878 C   0  0  0  0  0  0
  -28.7704  -24.4476   19.0974 C   0  0  0  0  0  0
  -30.3932  -16.9576   20.6697 C   0  0  0  0  0  0
  -28.7620  -25.9836   18.9226 C   0  0  0  0  0  0
  -29.8759  -17.7313   19.4058 C   0  0  0  0  0  0
  -31.3061  -19.6471   19.9676 N   0  0  0  0  0  0
  -31.5520  -20.8727   20.4319 N   0  0  0  0  0  0
  -29.9774  -15.5475   20.8074 N   0  0  0  0  0  0
  -31.4496  -12.3488   19.1292 H   0  0  0  0  0  0
  -30.2573  -11.2915   19.8403 H   0  0  0  0  0  0
  -29.7147  -11.7733   17.4254 H   0  0  0  0  0  0
  -29.6427  -13.4836   17.7629 H   0  0  0  0  0  0
  -27.8242  -11.3046   18.8448 H   0  0  0  0  0  0
  -27.3410  -12.6160   17.8006 H   0  0  0  0  0  0
  -27.6896  -14.2554   19.5629 H   0  0  0  0  0  0
  -28.6619  -12.0017   21.3720 H   0  0  0  0  0  0
  -28.4822  -13.6661   21.8493 H   0  0  0  0  0  0
  -25.2790   -9.5609   22.4766 H   0  0  0  0  0  0
  -24.0012   -7.4584   22.7440 H   0  0  0  0  0  0
  -21.0868   -8.8846   19.8953 H   0  0  0  0  0  0
  -22.3787  -10.9715   19.6197 H   0  0  0  0  0  0
  -21.2035   -7.6155   23.9734 H   0  0  0  0  0  0
  -21.1489   -6.0501   25.9065 H   0  0  0  0  0  0
  -22.0601   -2.7627   23.2796 H   0  0  0  0  0  0
  -22.4120  -12.0003   22.4896 H   0  0  0  0  0  0
  -21.1058  -13.1286   22.2600 H   0  0  0  0  0  0
  -24.6576  -15.8409   20.4808 H   0  0  0  0  0  0
  -26.2744  -15.6156   20.0591 H   0  0  0  0  0  0
  -26.7087  -32.5559   23.1188 H   0  0  0  0  0  0
  -25.0073  -33.9825   25.0543 H   0  0  0  0  0  0
  -22.6853  -31.3119   21.4289 H   0  0  0  0  0  0
  -23.3726  -35.9687   23.3298 H   0  0  0  0  0  0
  -24.3541  -36.8955   22.2043 H   0  0  0  0  0  0
  -23.7200  -37.6568   23.6627 H   0  0  0  0  0  0
  -25.9955  -31.5841   20.5612 H   0  0  0  0  0  0
  -26.8258  -30.9223   21.9396 H   0  0  0  0  0  0
  -28.0764  -29.0876   21.1863 H   0  0  0  0  0  0
  -26.0291  -25.9604   19.0283 H   0  0  0  0  0  0
  -23.9595  -27.2864   19.0506 H   0  0  0  0  0  0
  -23.6869  -30.6020   19.4104 H   0  0  0  0  0  0
  -22.7168  -29.2441   19.8858 H   0  0  0  0  0  0
  -25.1248  -36.2056   25.0847 H   0  0  0  0  0  0
  -20.9944  -28.3204   24.1472 H   0  0  0  0  0  0
  -20.5636  -26.2257   23.3604 H   0  0  0  0  0  0
  -21.6627  -26.7424   22.1237 H   0  0  0  0  0  0
  -19.6888  -25.6300   21.1230 H   0  0  0  0  0  0
  -19.6680  -27.3208   20.6754 H   0  0  0  0  0  0
  -17.4185  -26.6667   21.4033 H   0  0  0  0  0  0
  -18.0309  -26.0063   22.9025 H   0  0  0  0  0  0
  -19.7909  -30.7243   24.2303 H   0  0  0  0  0  0
  -17.4999  -31.6255   24.5184 H   0  0  0  0  0  0
  -15.5338  -30.3007   23.7618 H   0  0  0  0  0  0
  -15.8655  -28.0843   22.7028 H   0  0  0  0  0  0
  -24.5885  -30.7088   25.7951 H   0  0  0  0  0  0
  -24.8912  -32.2934   26.4993 H   0  0  0  0  0  0
  -25.8122  -30.8999   27.0302 H   0  0  0  0  0  0
  -26.2692  -29.6970   24.1045 H   0  0  0  0  0  0
  -27.3976  -29.7256   25.4414 H   0  0  0  0  0  0
  -27.8527  -30.4487   23.9121 H   0  0  0  0  0  0
  -27.2651  -33.3665   26.2093 H   0  0  0  0  0  0
  -28.3846  -32.6889   25.0356 H   0  0  0  0  0  0
  -28.0650  -31.8469   26.5441 H   0  0  0  0  0  0
  -28.2623  -38.0111   24.7512 H   0  0  0  0  0  0
  -28.1057  -36.2649   24.6272 H   0  0  0  0  0  0
  -27.2302  -37.1483   25.8861 H   0  0  0  0  0  0
  -20.9254  -29.8769   21.7024 H   0  0  0  0  0  0
  -26.0191  -38.2927   24.1424 H   0  0  0  0  0  0
  -27.9483  -19.8454   19.5893 H   0  0  0  0  0  0
  -32.4952  -23.8145   22.7727 H   0  0  0  0  0  0
  -33.1318  -23.0010   21.3515 H   0  0  0  0  0  0
  -32.4944  -22.0543   22.7031 H   0  0  0  0  0  0
  -30.2822  -17.9721   17.2797 H   0  0  0  0  0  0
  -30.6626  -16.3544   17.8696 H   0  0  0  0  0  0
  -31.7338  -17.7009   18.2115 H   0  0  0  0  0  0
  -27.9579  -17.9471   18.3354 H   0  0  0  0  0  0
  -27.7673  -17.3337   19.9811 H   0  0  0  0  0  0
  -28.3820  -16.2991   18.6909 H   0  0  0  0  0  0
  -27.4080  -22.0579   21.2859 H   0  0  0  0  0  0
  -27.3483  -22.1285   19.5548 H   0  0  0  0  0  0
  -30.2283  -23.1336   22.2568 H   0  0  0  0  0  0
  -30.9097  -23.8894   20.8283 H   0  0  0  0  0  0
  -28.6474  -24.2731   21.2714 H   0  0  0  0  0  0
  -27.1346  -24.3271   20.4678 H   0  0  0  0  0  0
  -28.2463  -24.0055   18.2509 H   0  0  0  0  0  0
  -29.7944  -24.0883   18.9985 H   0  0  0  0  0  0
  -31.4776  -17.0532   20.7450 H   0  0  0  0  0  0
  -30.0204  -17.4767   21.5547 H   0  0  0  0  0  0
  -28.1604  -26.2497   18.0533 H   0  0  0  0  0  0
  -29.7728  -26.2988   18.6616 H   0  0  0  0  0  0
  -29.0493  -15.3719   21.1610 H   0  0  0  0  0  0
  1 25  1  0  0  0
  1 30  2  0  0  0
  1 87  1  0  0  0
  2  3  1  0  0  0
  2 25  1  0  0  0
  2 88  1  0  0  0
  2 89  1  0  0  0
  3  4  1  0  0  0
  3 90  1  0  0  0
  3 91  1  0  0  0
  4  5  1  0  0  0
  4 92  1  0  0  0
  4 93  1  0  0  0
  5  6  1  0  0  0
  5 26  1  0  0  0
  5 94  1  0  0  0
  6 25  1  0  0  0
  6 95  1  0  0  0
  6 96  1  0  0  0
  7  8  2  0  0  0
  7 26  1  0  0  0
  7 29  1  0  0  0
  8  9  1  0  0  0
  8 22  1  0  0  0
  9 10  1  0  0  0
  9 27  2  0  0  0
 10 11  2  0  0  0
 10 15  1  0  0  0
 11 12  1  0  0  0
 11 97  1  0  0  0
 12 13  2  0  0  0
 12 98  1  0  0  0
 13 14  1  0  0  0
 13 31  1  0  0  0
 14 15  2  0  0  0
 14 99  1  0  0  0
 15100  1  0  0  0
 16 17  2  0  0  0
 16 21  1  0  0  0
 16 31  1  0  0  0
 17 18  1  0  0  0
 17101  1  0  0  0
 18 19  2  0  0  0
 18102  1  0  0  0
 19 20  1  0  0  0
 19 24  1  0  0  0
 20 21  2  0  0  0
 20103  1  0  0  0
 21 23  1  0  0  0
 22 28  1  0  0  0
 22 32  2  0  0  0
 26 27  1  0  0  0
 28104  1  0  0  0
 28105  1  0  0  0
 29106  1  0  0  0
 29107  1  0  0  0
 33 34  1  0  0  0
 33 66  1  0  0  0
 33 70  2  0  0  0
 34 36  1  0  0  0
 34 59  1  0  0  0
 34108  1  0  0  0
 35 44  2  0  0  0
 35 45  1  0  0  0
 35 68  1  0  0  0
 36 56  1  0  0  0
 36109  1  0  0  0
 37 39  1  0  0  0
 37 47  1  0  0  0
 37 66  1  0  0  0
 37110  1  0  0  0
 38 43  2  0  0  0
 38 46  1  0  0  0
 38 47  1  0  0  0
 39 64  1  0  0  0
 39 67  2  0  0  0
 40 52  1  0  0  0
 40 53  2  0  0  0
 40 58  1  0  0  0
 41111  1  0  0  0
 41112  1  0  0  0
 41113  1  0  0  0
 41 48  1  0  0  0
 42 43  1  0  0  0
 42 66  1  0  0  0
 42114  1  0  0  0
 42115  1  0  0  0
 43 44  1  0  0  0
 44116  1  0  0  0
 45 46  2  0  0  0
 45117  1  0  0  0
 46118  1  0  0  0
 47119  1  0  0  0
 47120  1  0  0  0
 48 56  1  0  0  0
 48 65  1  0  0  0
 48121  1  0  0  0
 49 50  1  0  0  0
 49 53  1  0  0  0
 49 64  1  0  0  0
 49122  1  0  0  0
 50 51  1  0  0  0
 50123  1  0  0  0
 50124  1  0  0  0
 51 52  1  0  0  0
 51125  1  0  0  0
 51126  1  0  0  0
 52127  1  0  0  0
 52128  1  0  0  0
 53 54  1  0  0  0
 54 55  2  0  0  0
 54129  1  0  0  0
 55 57  1  0  0  0
 55130  1  0  0  0
 56 69  2  0  0  0
 57 58  2  0  0  0
 57131  1  0  0  0
 58132  1  0  0  0
 59 60  1  0  0  0
 59 61  1  0  0  0
 59 62  1  0  0  0
 60133  1  0  0  0
 60134  1  0  0  0
 60135  1  0  0  0
 61136  1  0  0  0
 61137  1  0  0  0
 61138  1  0  0  0
 62139  1  0  0  0
 62140  1  0  0  0
 62141  1  0  0  0
 63 65  1  0  0  0
 63142  1  0  0  0
 63143  1  0  0  0
 63144  1  0  0  0
 64145  1  0  0  0
 65146  1  0  0  0
 68 83  1  0  0  0
 71 72  2  0  0  0
 71 73  1  0  0  0
 71147  1  0  0  0
 72 74  1  0  0  0
 72 78  1  0  0  0
 73 84  1  0  0  0
 73 85  2  0  0  0
 74 79  1  0  0  0
 74 86  2  0  0  0
 75 79  1  0  0  0
 75148  1  0  0  0
 75149  1  0  0  0
 75150  1  0  0  0
 76151  1  0  0  0
 76152  1  0  0  0
 76153  1  0  0  0
 76 84  1  0  0  0
 77 84  1  0  0  0
 77154  1  0  0  0
 77155  1  0  0  0
 77156  1  0  0  0
 78 80  1  0  0  0
 78157  1  0  0  0
 78158  1  0  0  0
 79159  1  0  0  0
 79160  1  0  0  0
 80 81  1  0  0  0
 80161  1  0  0  0
 80162  1  0  0  0
 81 83  1  0  0  0
 81163  1  0  0  0
 81164  1  0  0  0
 82 84  1  0  0  0
 82 87  1  0  0  0
 82165  1  0  0  0
 82166  1  0  0  0
 83167  1  0  0  0
 83168  1  0  0  0
 85 86  1  0  0  0
 87169  1  0  0  0
M  ISO  4   1 100  68 101  83 101  87 100
M  END
> <chiral flag>
0

> <version>
0

> <s_m_source_file>
/data/baiqing/PycharmProjects/Reinvent-master-3.2/result/LINK_invent/BTK/process_docking_weight1_custom_sum_contain_oxygen_bond_distance_aromatic_linkinvent_7_9_3/rearranged_h_0086.sdf

> <i_m_source_file_index>
88

> <r_mmod_Potential_Energy-OPLS-2005>
-8.03216171264648

> <r_mmod_Stretch_Energy-OPLS-2005>
41.3787040710449

> <r_mmod_Bend_Energy-OPLS-2005>
134.931640625

> <r_mmod_Torsional_Energy-OPLS-2005>
241.319885253906

> <r_mmod_Improper_Torsional_Energy-OPLS-2005>
5.76804065704346

> <r_mmod_Van_der_Waal_Energy-OPLS-2005>
162.926208496094

> <r_mmod_Electrostatic_Energy-OPLS-2005>
-384.407989501953

> <r_mmod_Solvation_Energy-OPLS-2005>
-226.073806762695

> <b_mmod_Minimization_Converged-OPLS-2005>
0

> <r_mmod_RMS_Derivative-OPLS-2005>
5.95379018783569

$$$$
89
                    3D
 Structure written by MMmdl.
172180  0  0  1  0            999 V2000
  -30.5416  -14.9804   20.4275 C   0  0  0  0  0  0
  -30.4437  -12.6130   19.5074 C   0  0  0  0  0  0
  -29.5261  -12.5448   18.2627 C   0  0  0  0  0  0
  -28.0592  -12.3275   18.6777 C   0  0  0  0  0  0
  -27.6331  -13.2556   19.8443 C   0  0  2  0  0  0
  -28.6753  -13.2987   20.9839 C   0  0  0  0  0  0
  -25.2477  -13.8239   20.5723 C   0  0  0  0  0  0
  -24.1795  -13.0457   20.9246 C   0  0  0  0  0  0
  -24.6427  -11.6945   20.8770 C   0  0  0  0  0  0
  -23.9113  -10.4311   21.0413 C   0  0  0  0  0  0
  -24.3651   -9.4221   21.9191 C   0  0  0  0  0  0
  -23.6317   -8.2258   22.0757 C   0  0  0  0  0  0
  -22.4296   -8.0295   21.3544 C   0  0  0  0  0  0
  -21.9940   -9.0283   20.4645 C   0  0  0  0  0  0
  -22.7289  -10.2161   20.3064 C   0  0  0  0  0  0
  -21.6864   -6.0755   22.5287 C   0  0  0  0  0  0
  -21.4012   -6.5655   23.8223 C   0  0  0  0  0  0
  -21.3662   -5.6799   24.9179 C   0  0  0  0  0  0
  -21.6040   -4.3068   24.7225 C   0  0  0  0  0  0
  -21.8822   -3.8165   23.4350 C   0  0  0  0  0  0
  -21.9192   -4.6975   22.3404 C   0  0  0  0  0  0
  -22.7818  -13.5207   21.1893 C   0  0  0  0  0  0
  -22.1666   -4.2166   21.0983 F   0  0  0  0  0  0
  -21.5629   -3.4546   25.7738 F   0  0  0  0  0  0
  -29.9506  -13.7148   20.3874 N   0  0  0  0  0  0
  -26.2908  -12.9486   20.3277 N   0  0  0  0  0  0
  -25.9365  -11.6618   20.5762 N   0  0  0  0  0  0
  -22.0451  -12.8182   22.0433 N   0  0  0  0  0  0
  -25.4121  -15.1971   20.4153 N   0  0  0  0  0  0
  -31.7396  -15.0430   20.1297 O   0  0  0  0  0  0
  -21.6649   -6.8904   21.4248 O   0  0  0  0  0  0
  -22.3504  -14.5519   20.6728 O   0  0  0  0  0  0
  -24.6495  -31.8445   23.1959 C   0  0  0  0  0  0
  -25.9285  -32.4683   23.8309 C   0  0  1  0  0  0
  -27.2008  -27.0855   20.1563 C   0  0  0  0  0  0
  -25.6046  -33.8496   24.2223 N   0  0  0  0  0  0
  -23.4493  -30.4702   21.5472 C   0  0  2  0  0  0
  -24.8938  -28.8973   20.1271 C   0  0  0  0  0  0
  -22.7560  -29.4573   22.4942 C   0  0  0  0  0  0
  -18.0274  -28.1411   22.8466 C   0  0  0  0  0  0
  -24.1499  -36.7243   23.2630 C   0  0  0  0  0  0
  -26.0126  -30.7014   21.4034 C   0  0  0  0  0  0
  -26.0788  -29.3087   20.7481 C   0  0  0  0  0  0
  -27.2296  -28.4196   20.7530 C   0  0  0  0  0  0
  -25.9991  -26.8333   19.4553 C   0  0  0  0  0  0
  -24.8667  -27.6678   19.4695 C   0  0  0  0  0  0
  -23.6773  -29.8076   20.1669 C   0  0  0  0  0  0
  -25.4132  -36.3016   24.0299 C   0  0  1  0  0  0
  -20.5889  -28.3753   23.1248 C   0  0  2  0  0  0
  -20.6769  -26.9463   22.5414 C   0  0  0  0  0  0
  -19.5761  -26.6415   21.5195 C   0  0  0  0  0  0
  -18.1936  -26.7956   22.1602 C   0  0  0  0  0  0
  -19.1531  -28.8904   23.2844 C   0  0  0  0  0  0
  -18.9451  -30.1506   23.8876 C   0  0  0  0  0  0
  -17.6444  -30.6620   24.0560 C   0  0  0  0  0  0
  -25.9105  -34.9390   23.5065 C   0  0  0  0  0  0
  -16.5336  -29.9111   23.6334 C   0  0  0  0  0  0
  -16.7251  -28.6526   23.0354 C   0  0  0  0  0  0
  -26.4596  -31.6527   25.0720 C   0  0  0  0  0  0
  -25.3764  -31.3690   26.1388 C   0  0  0  0  0  0
  -27.0443  -30.2904   24.6306 C   0  0  0  0  0  0
  -27.6131  -32.4281   25.7497 C   0  0  0  0  0  0
  -27.5565  -37.1785   24.8457 C   0  0  0  0  0  0
  -21.4260  -29.3090   22.3651 N   0  0  0  0  0  0
  -26.4284  -37.3724   23.9390 N   0  0  0  0  0  0
  -24.7240  -31.0262   22.1029 N   0  0  0  0  0  0
  -23.4170  -28.8086   23.3083 O   0  0  0  0  0  0
  -28.2395  -26.0566   20.2036 O   0  0  0  0  0  0
  -26.5648  -34.8880   22.4614 O   0  0  0  0  0  0
  -23.5626  -32.1389   23.7178 O   0  0  0  0  0  0
  -28.2514  -20.6266   22.1357 C   0  0  0  0  0  0
  -28.0280  -19.4799   22.8482 C   0  0  0  0  0  0
  -29.2565  -18.9121   21.0360 C   0  0  0  0  0  0
  -29.7127  -17.8749   18.7109 C   0  0  0  0  0  0
  -25.4589  -21.6426   26.6243 C   0  0  0  0  0  0
  -24.5050  -19.5115   25.6653 C   0  0  0  0  0  0
  -27.1340  -23.9402   19.1120 C   0  0  0  0  0  0
  -27.2373  -19.2326   24.0962 C   0  0  0  0  0  0
  -26.6157  -20.5241   24.6651 C   0  0  0  0  0  0
  -29.1588  -23.2625   20.5588 C   0  0  0  0  0  0
  -29.2593  -21.6000   20.0836 C   0  0  0  0  0  0
  -30.0060  -17.7100   20.2083 C   0  0  2  0  0  0
  -25.7889  -20.3064   25.9442 C   0  0  0  0  0  0
  -27.9982  -24.4787   20.2649 C   0  0  1  0  0  0
  -28.9971  -20.3360   21.0225 N   0  0  0  0  0  0
  -28.6785  -18.4878   22.1686 N   0  3  0  0  0  0
  -29.7640  -16.1709   20.5820 N   0  0  0  0  0  0
  -31.4756  -12.7770   19.1911 H   0  0  0  0  0  0
  -30.4463  -11.6634   20.0448 H   0  0  0  0  0  0
  -29.8511  -11.7455   17.5950 H   0  0  0  0  0  0
  -29.6132  -13.4735   17.6968 H   0  0  0  0  0  0
  -27.9534  -11.2843   18.9772 H   0  0  0  0  0  0
  -27.4001  -12.4689   17.8210 H   0  0  0  0  0  0
  -27.5926  -14.2567   19.4154 H   0  0  0  0  0  0
  -28.7689  -12.3303   21.4777 H   0  0  0  0  0  0
  -28.3692  -14.0084   21.7534 H   0  0  0  0  0  0
  -25.2800   -9.5690   22.4774 H   0  0  0  0  0  0
  -24.0032   -7.4642   22.7470 H   0  0  0  0  0  0
  -21.0882   -8.8817   19.8943 H   0  0  0  0  0  0
  -22.3759  -10.9705   19.6177 H   0  0  0  0  0  0
  -21.2007   -7.6160   23.9730 H   0  0  0  0  0  0
  -21.1474   -6.0528   25.9080 H   0  0  0  0  0  0
  -22.0591   -2.7624   23.2844 H   0  0  0  0  0  0
  -22.4085  -11.9857   22.4824 H   0  0  0  0  0  0
  -21.1060  -13.1194   22.2602 H   0  0  0  0  0  0
  -24.6320  -15.8387   20.5138 H   0  0  0  0  0  0
  -26.2371  -15.6379   20.0309 H   0  0  0  0  0  0
  -26.7315  -32.5242   23.1009 H   0  0  0  0  0  0
  -25.0135  -33.9593   25.0337 H   0  0  0  0  0  0
  -22.7563  -31.3019   21.3989 H   0  0  0  0  0  0
  -23.3743  -35.9590   23.3282 H   0  0  0  0  0  0
  -24.3576  -36.8873   22.2039 H   0  0  0  0  0  0
  -23.7270  -37.6446   23.6672 H   0  0  0  0  0  0
  -26.1755  -31.4549   20.6329 H   0  0  0  0  0  0
  -26.8805  -30.7509   22.0468 H   0  0  0  0  0  0
  -28.1238  -28.7319   21.2723 H   0  0  0  0  0  0
  -25.8713  -25.9740   18.8377 H   0  0  0  0  0  0
  -23.9725  -27.3556   18.9468 H   0  0  0  0  0  0
  -23.8288  -30.5884   19.4212 H   0  0  0  0  0  0
  -22.7858  -29.2656   19.8440 H   0  0  0  0  0  0
  -25.1321  -36.1833   25.0786 H   0  0  0  0  0  0
  -20.9954  -28.3345   24.1375 H   0  0  0  0  0  0
  -20.5655  -26.2373   23.3647 H   0  0  0  0  0  0
  -21.6644  -26.7490   22.1218 H   0  0  0  0  0  0
  -19.6931  -25.6310   21.1271 H   0  0  0  0  0  0
  -19.6679  -27.3203   20.6709 H   0  0  0  0  0  0
  -17.4197  -26.6699   21.4014 H   0  0  0  0  0  0
  -18.0348  -26.0102   22.9018 H   0  0  0  0  0  0
  -19.7911  -30.7339   24.2257 H   0  0  0  0  0  0
  -17.4973  -31.6285   24.5206 H   0  0  0  0  0  0
  -15.5333  -30.2997   23.7701 H   0  0  0  0  0  0
  -15.8639  -28.0840   22.7096 H   0  0  0  0  0  0
  -24.6046  -30.6920   25.7699 H   0  0  0  0  0  0
  -24.8839  -32.2838   26.4691 H   0  0  0  0  0  0
  -25.8074  -30.8970   27.0229 H   0  0  0  0  0  0
  -26.3065  -29.6642   24.1268 H   0  0  0  0  0  0
  -27.3983  -29.7186   25.4895 H   0  0  0  0  0  0
  -27.9017  -30.4077   23.9666 H   0  0  0  0  0  0
  -27.2753  -33.3646   26.1950 H   0  0  0  0  0  0
  -28.4012  -32.6731   25.0355 H   0  0  0  0  0  0
  -28.0720  -31.8458   26.5506 H   0  0  0  0  0  0
  -28.2586  -38.0074   24.7498 H   0  0  0  0  0  0
  -28.1066  -36.2614   24.6318 H   0  0  0  0  0  0
  -27.2275  -37.1446   25.8852 H   0  0  0  0  0  0
  -20.9536  -29.8756   21.6754 H   0  0  0  0  0  0
  -26.0150  -38.2788   24.1384 H   0  0  0  0  0  0
  -27.9068  -21.6301   22.3382 H   0  0  0  0  0  0
  -29.9847  -18.8682   18.3526 H   0  0  0  0  0  0
  -28.6500  -17.7310   18.5065 H   0  0  0  0  0  0
  -30.2697  -17.1479   18.1196 H   0  0  0  0  0  0
  -24.9095  -21.4811   27.5519 H   0  0  0  0  0  0
  -24.8506  -22.2792   25.9808 H   0  0  0  0  0  0
  -26.3679  -22.1915   26.8770 H   0  0  0  0  0  0
  -23.9250  -19.3806   26.5771 H   0  0  0  0  0  0
  -24.7157  -18.5127   25.2817 H   0  0  0  0  0  0
  -23.8688  -20.0152   24.9364 H   0  0  0  0  0  0
  -26.0718  -24.0740   19.3092 H   0  0  0  0  0  0
  -27.2017  -22.8638   19.0098 H   0  0  0  0  0  0
  -27.4086  -24.3839   18.1549 H   0  0  0  0  0  0
  -27.8767  -18.7618   24.8440 H   0  0  0  0  0  0
  -26.4529  -18.5151   23.8589 H   0  0  0  0  0  0
  -25.9888  -20.9945   23.9055 H   0  0  0  0  0  0
  -27.4199  -21.2322   24.8762 H   0  0  0  0  0  0
  -30.0448  -23.6932   20.0934 H   0  0  0  0  0  0
  -29.4081  -23.3130   21.6193 H   0  0  0  0  0  0
  -30.2922  -21.4596   19.7621 H   0  0  0  0  0  0
  -28.6909  -21.4175   19.1727 H   0  0  0  0  0  0
  -31.0688  -17.9021   20.3666 H   0  0  0  0  0  0
  -26.3967  -19.7338   26.6485 H   0  0  0  0  0  0
  -27.3583  -24.3961   21.1457 H   0  0  0  0  0  0
  -28.7290  -17.5247   22.4780 H   0  0  0  0  0  0
  -28.7971  -15.9574   20.7719 H   0  0  0  0  0  0
  1 25  1  0  0  0
  1 30  2  0  0  0
  1 87  1  0  0  0
  2  3  1  0  0  0
  2 25  1  0  0  0
  2 88  1  0  0  0
  2 89  1  0  0  0
  3  4  1  0  0  0
  3 90  1  0  0  0
  3 91  1  0  0  0
  4  5  1  0  0  0
  4 92  1  0  0  0
  4 93  1  0  0  0
  5  6  1  0  0  0
  5 26  1  0  0  0
  5 94  1  0  0  0
  6 25  1  0  0  0
  6 95  1  0  0  0
  6 96  1  0  0  0
  7  8  2  0  0  0
  7 26  1  0  0  0
  7 29  1  0  0  0
  8  9  1  0  0  0
  8 22  1  0  0  0
  9 10  1  0  0  0
  9 27  2  0  0  0
 10 11  2  0  0  0
 10 15  1  0  0  0
 11 12  1  0  0  0
 11 97  1  0  0  0
 12 13  2  0  0  0
 12 98  1  0  0  0
 13 14  1  0  0  0
 13 31  1  0  0  0
 14 15  2  0  0  0
 14 99  1  0  0  0
 15100  1  0  0  0
 16 17  2  0  0  0
 16 21  1  0  0  0
 16 31  1  0  0  0
 17 18  1  0  0  0
 17101  1  0  0  0
 18 19  2  0  0  0
 18102  1  0  0  0
 19 20  1  0  0  0
 19 24  1  0  0  0
 20 21  2  0  0  0
 20103  1  0  0  0
 21 23  1  0  0  0
 22 28  1  0  0  0
 22 32  2  0  0  0
 26 27  1  0  0  0
 28104  1  0  0  0
 28105  1  0  0  0
 29106  1  0  0  0
 29107  1  0  0  0
 33 34  1  0  0  0
 33 66  1  0  0  0
 33 70  2  0  0  0
 34 36  1  0  0  0
 34 59  1  0  0  0
 34108  1  0  0  0
 35 44  2  0  0  0
 35 45  1  0  0  0
 35 68  1  0  0  0
 36 56  1  0  0  0
 36109  1  0  0  0
 37 39  1  0  0  0
 37 47  1  0  0  0
 37 66  1  0  0  0
 37110  1  0  0  0
 38 43  2  0  0  0
 38 46  1  0  0  0
 38 47  1  0  0  0
 39 64  1  0  0  0
 39 67  2  0  0  0
 40 52  1  0  0  0
 40 53  2  0  0  0
 40 58  1  0  0  0
 41111  1  0  0  0
 41112  1  0  0  0
 41113  1  0  0  0
 41 48  1  0  0  0
 42 43  1  0  0  0
 42 66  1  0  0  0
 42114  1  0  0  0
 42115  1  0  0  0
 43 44  1  0  0  0
 44116  1  0  0  0
 45 46  2  0  0  0
 45117  1  0  0  0
 46118  1  0  0  0
 47119  1  0  0  0
 47120  1  0  0  0
 48 56  1  0  0  0
 48 65  1  0  0  0
 48121  1  0  0  0
 49 50  1  0  0  0
 49 53  1  0  0  0
 49 64  1  0  0  0
 49122  1  0  0  0
 50 51  1  0  0  0
 50123  1  0  0  0
 50124  1  0  0  0
 51 52  1  0  0  0
 51125  1  0  0  0
 51126  1  0  0  0
 52127  1  0  0  0
 52128  1  0  0  0
 53 54  1  0  0  0
 54 55  2  0  0  0
 54129  1  0  0  0
 55 57  1  0  0  0
 55130  1  0  0  0
 56 69  2  0  0  0
 57 58  2  0  0  0
 57131  1  0  0  0
 58132  1  0  0  0
 59 60  1  0  0  0
 59 61  1  0  0  0
 59 62  1  0  0  0
 60133  1  0  0  0
 60134  1  0  0  0
 60135  1  0  0  0
 61136  1  0  0  0
 61137  1  0  0  0
 61138  1  0  0  0
 62139  1  0  0  0
 62140  1  0  0  0
 62141  1  0  0  0
 63 65  1  0  0  0
 63142  1  0  0  0
 63143  1  0  0  0
 63144  1  0  0  0
 64145  1  0  0  0
 65146  1  0  0  0
 68 84  1  0  0  0
 71 72  2  0  0  0
 71 85  1  0  0  0
 71147  1  0  0  0
 72 78  1  0  0  0
 72 86  1  0  0  0
 73 82  1  0  0  0
 73 85  1  0  0  0
 73 86  2  0  0  0
 74148  1  0  0  0
 74149  1  0  0  0
 74150  1  0  0  0
 74 82  1  0  0  0
 75151  1  0  0  0
 75152  1  0  0  0
 75153  1  0  0  0
 75 83  1  0  0  0
 76 83  1  0  0  0
 76154  1  0  0  0
 76155  1  0  0  0
 76156  1  0  0  0
 77157  1  0  0  0
 77158  1  0  0  0
 77159  1  0  0  0
 77 84  1  0  0  0
 78 79  1  0  0  0
 78160  1  0  0  0
 78161  1  0  0  0
 79 83  1  0  0  0
 79162  1  0  0  0
 79163  1  0  0  0
 80 81  1  0  0  0
 80 84  1  0  0  0
 80164  1  0  0  0
 80165  1  0  0  0
 81 85  1  0  0  0
 81166  1  0  0  0
 81167  1  0  0  0
 82 87  1  0  0  0
 82168  1  0  0  0
 83169  1  0  0  0
 84170  1  0  0  0
 86171  1  0  0  0
 87172  1  0  0  0
M  CHG  1  86   1
M  ISO  4   1 100  68 101  84 101  87 100
M  END
> <chiral flag>
0

> <version>
0

> <s_m_source_file>
/data/baiqing/PycharmProjects/Reinvent-master-3.2/result/LINK_invent/BTK/process_docking_weight1_custom_sum_contain_oxygen_bond_distance_aromatic_linkinvent_7_9_3/rearranged_h_0086.sdf

> <i_m_source_file_index>
89

> <r_mmod_Potential_Energy-OPLS-2005>
621.383178710938

> <r_mmod_Stretch_Energy-OPLS-2005>
333.53564453125

> <r_mmod_Bend_Energy-OPLS-2005>
353.562194824219

> <r_mmod_Torsional_Energy-OPLS-2005>
252.1376953125

> <r_mmod_Improper_Torsional_Energy-OPLS-2005>
5.68442583084106

> <r_mmod_Van_der_Waal_Energy-OPLS-2005>
119.190719604492

> <r_mmod_Electrostatic_Energy-OPLS-2005>
-242.434280395508

> <r_mmod_Solvation_Energy-OPLS-2005>
-424.698669433594

> <b_mmod_Minimization_Converged-OPLS-2005>
0

> <r_mmod_RMS_Derivative-OPLS-2005>
3.68936610221863

$$$$
90
                    3D
 Structure written by MMmdl.
176184  0  0  1  0            999 V2000
  -30.6498  -14.5496   20.5541 C   0  0  0  0  0  0
  -30.4548  -12.3439   19.4170 C   0  0  0  0  0  0
  -29.5055  -12.4729   18.2040 C   0  0  0  0  0  0
  -28.0265  -12.3294   18.6233 C   0  0  0  0  0  0
  -27.6625  -13.1968   19.8595 C   0  0  2  0  0  0
  -28.7135  -12.9919   20.9743 C   0  0  0  0  0  0
  -25.2582  -13.8127   20.5625 C   0  0  0  0  0  0
  -24.1852  -13.0415   20.9186 C   0  0  0  0  0  0
  -24.6424  -11.6874   20.8765 C   0  0  0  0  0  0
  -23.9110  -10.4260   21.0435 C   0  0  0  0  0  0
  -24.3659   -9.4165   21.9205 C   0  0  0  0  0  0
  -23.6283   -8.2220   22.0767 C   0  0  0  0  0  0
  -22.4260   -8.0284   21.3555 C   0  0  0  0  0  0
  -21.9937   -9.0262   20.4653 C   0  0  0  0  0  0
  -22.7290  -10.2120   20.3066 C   0  0  0  0  0  0
  -21.6832   -6.0750   22.5293 C   0  0  0  0  0  0
  -21.3984   -6.5650   23.8233 C   0  0  0  0  0  0
  -21.3648   -5.6799   24.9187 C   0  0  0  0  0  0
  -21.6061   -4.3055   24.7230 C   0  0  0  0  0  0
  -21.8813   -3.8161   23.4348 C   0  0  0  0  0  0
  -21.9161   -4.6988   22.3409 C   0  0  0  0  0  0
  -22.7855  -13.5190   21.1799 C   0  0  0  0  0  0
  -22.1623   -4.2179   21.0994 F   0  0  0  0  0  0
  -21.5642   -3.4547   25.7738 F   0  0  0  0  0  0
  -30.0294  -13.3416   20.4110 N   0  0  0  0  0  0
  -26.3046  -12.9289   20.3306 N   0  0  0  0  0  0
  -25.9347  -11.6474   20.5802 N   0  0  0  0  0  0
  -22.0466  -12.8238   22.0396 N   0  0  0  0  0  0
  -25.4249  -15.1859   20.3923 N   0  0  0  0  0  0
  -31.8200  -14.7460   20.2154 O   0  0  0  0  0  0
  -21.6600   -6.8900   21.4252 O   0  0  0  0  0  0
  -22.3537  -14.5470   20.6576 O   0  0  0  0  0  0
  -24.6200  -31.8585   23.2164 C   0  0  0  0  0  0
  -25.9081  -32.4753   23.8420 C   0  0  1  0  0  0
  -27.2204  -27.3642   20.0790 C   0  0  0  0  0  0
  -25.5931  -33.8566   24.2325 N   0  0  0  0  0  0
  -23.4085  -30.4873   21.5605 C   0  0  2  0  0  0
  -24.8516  -28.9629   20.1053 C   0  0  0  0  0  0
  -22.7445  -29.4553   22.5015 C   0  0  0  0  0  0
  -18.0259  -28.1289   22.8501 C   0  0  0  0  0  0
  -24.1485  -36.7327   23.2660 C   0  0  0  0  0  0
  -25.9521  -30.8005   21.3866 C   0  0  0  0  0  0
  -26.0230  -29.4420   20.7063 C   0  0  0  0  0  0
  -27.2102  -28.6534   20.6845 C   0  0  0  0  0  0
  -26.0238  -26.9351   19.4525 C   0  0  0  0  0  0
  -24.8527  -27.7139   19.4701 C   0  0  0  0  0  0
  -23.6156  -29.8364   20.1676 C   0  0  0  0  0  0
  -25.4118  -36.3091   24.0319 C   0  0  1  0  0  0
  -20.5849  -28.3575   23.1313 C   0  0  2  0  0  0
  -20.6730  -26.9297   22.5421 C   0  0  0  0  0  0
  -19.5715  -26.6300   21.5207 C   0  0  0  0  0  0
  -18.1896  -26.7831   22.1609 C   0  0  0  0  0  0
  -19.1516  -28.8768   23.2873 C   0  0  0  0  0  0
  -18.9445  -30.1381   23.8856 C   0  0  0  0  0  0
  -17.6446  -30.6512   24.0546 C   0  0  0  0  0  0
  -25.9034  -34.9438   23.5126 C   0  0  0  0  0  0
  -16.5338  -29.9005   23.6338 C   0  0  0  0  0  0
  -16.7248  -28.6403   23.0394 C   0  0  0  0  0  0
  -26.4472  -31.6588   25.0812 C   0  0  0  0  0  0
  -25.3792  -31.3709   26.1616 C   0  0  0  0  0  0
  -27.0335  -30.3014   24.6281 C   0  0  0  0  0  0
  -27.5969  -32.4426   25.7550 C   0  0  0  0  0  0
  -27.5577  -37.1818   24.8446 C   0  0  0  0  0  0
  -21.4168  -29.2968   22.3781 N   0  0  0  0  0  0
  -26.4292  -37.3791   23.9392 N   0  0  0  0  0  0
  -24.6775  -31.0623   22.1105 N   0  0  0  0  0  0
  -23.4211  -28.8071   23.3031 O   0  0  0  0  0  0
  -28.3519  -26.5354   20.1167 O   0  0  0  0  0  0
  -26.5591  -34.8872   22.4671 O   0  0  0  0  0  0
  -23.5372  -32.1362   23.7551 O   0  0  0  0  0  0
  -29.8582  -20.2510   20.6414 C   0  0  0  0  0  0
  -29.6223  -21.3488   19.7564 C   0  0  0  0  0  0
  -30.1458  -21.2141   18.4335 C   0  0  0  0  0  0
  -30.5807  -19.0967   20.2146 C   0  0  0  0  0  0
  -30.9043  -20.0496   18.1137 C   0  0  0  0  0  0
  -31.6200  -19.8067   16.7891 C   0  0  0  0  0  0
  -31.7577  -18.5985   22.3601 C   0  0  0  0  0  0
  -27.5630  -19.7592   16.7641 C   0  0  0  0  0  0
  -27.3641  -21.0543   14.6184 C   0  0  0  0  0  0
  -28.7086  -22.5426   20.1988 C   0  0  0  0  0  0
  -29.8848  -22.2699   17.3593 C   0  0  0  0  0  0
  -29.2244  -24.0438   20.2669 C   0  0  0  0  0  0
  -28.5305  -22.1534   16.6131 C   0  0  0  0  0  0
  -30.0305  -16.8571   21.6344 C   0  0  0  0  0  0
  -28.1263  -25.1042   19.8761 C   0  0  0  0  0  0
  -31.0652  -17.9466   21.1473 C   0  0  1  0  0  0
  -28.2304  -20.8217   15.8709 C   0  0  0  0  0  0
  -31.0942  -19.0359   18.9756 N   0  0  0  0  0  0
  -29.8239  -15.5487   20.9443 N   0  0  0  0  0  0
  -31.4890  -12.4936   19.1005 H   0  0  0  0  0  0
  -30.4129  -11.3362   19.8388 H   0  0  0  0  0  0
  -29.7519  -11.7196   17.4545 H   0  0  0  0  0  0
  -29.6599  -13.4415   17.7291 H   0  0  0  0  0  0
  -27.8520  -11.2760   18.8480 H   0  0  0  0  0  0
  -27.3727  -12.5678   17.7850 H   0  0  0  0  0  0
  -27.6979  -14.2383   19.5391 H   0  0  0  0  0  0
  -28.7158  -11.9449   21.2902 H   0  0  0  0  0  0
  -28.4762  -13.5692   21.8678 H   0  0  0  0  0  0
  -25.2823   -9.5587   22.4769 H   0  0  0  0  0  0
  -23.9962   -7.4618   22.7508 H   0  0  0  0  0  0
  -21.0855   -8.8800   19.8975 H   0  0  0  0  0  0
  -22.3780  -10.9657   19.6164 H   0  0  0  0  0  0
  -21.1969   -7.6152   23.9745 H   0  0  0  0  0  0
  -21.1480   -6.0528   25.9097 H   0  0  0  0  0  0
  -22.0603   -2.7624   23.2845 H   0  0  0  0  0  0
  -22.4023  -11.9918   22.4861 H   0  0  0  0  0  0
  -21.1084  -13.1291   22.2543 H   0  0  0  0  0  0
  -24.6510  -15.8333   20.5067 H   0  0  0  0  0  0
  -26.2527  -15.6270   20.0132 H   0  0  0  0  0  0
  -26.7167  -32.5383   23.1176 H   0  0  0  0  0  0
  -25.0144  -33.9708   25.0503 H   0  0  0  0  0  0
  -22.7012  -31.3098   21.4350 H   0  0  0  0  0  0
  -23.3731  -35.9679   23.3305 H   0  0  0  0  0  0
  -24.3619  -36.8982   22.2093 H   0  0  0  0  0  0
  -23.7232  -37.6519   23.6695 H   0  0  0  0  0  0
  -26.1078  -31.5875   20.6465 H   0  0  0  0  0  0
  -26.8206  -30.8123   22.0344 H   0  0  0  0  0  0
  -28.1095  -29.0178   21.1612 H   0  0  0  0  0  0
  -25.9539  -25.9876   18.9402 H   0  0  0  0  0  0
  -23.9566  -27.3449   18.9886 H   0  0  0  0  0  0
  -23.7211  -30.6263   19.4217 H   0  0  0  0  0  0
  -22.7325  -29.2704   19.8632 H   0  0  0  0  0  0
  -25.1285  -36.1974   25.0817 H   0  0  0  0  0  0
  -20.9886  -28.3081   24.1451 H   0  0  0  0  0  0
  -20.5597  -26.2152   23.3597 H   0  0  0  0  0  0
  -21.6596  -26.7298   22.1233 H   0  0  0  0  0  0
  -19.6859  -25.6225   21.1202 H   0  0  0  0  0  0
  -19.6633  -27.3137   20.6761 H   0  0  0  0  0  0
  -17.4169  -26.6629   21.3998 H   0  0  0  0  0  0
  -18.0264  -25.9915   22.8940 H   0  0  0  0  0  0
  -19.7938  -30.7213   24.2152 H   0  0  0  0  0  0
  -17.5008  -31.6180   24.5162 H   0  0  0  0  0  0
  -15.5343  -30.2914   23.7621 H   0  0  0  0  0  0
  -15.8642  -28.0677   22.7182 H   0  0  0  0  0  0
  -24.5914  -30.7067   25.8054 H   0  0  0  0  0  0
  -24.9071  -32.2877   26.5160 H   0  0  0  0  0  0
  -25.8217  -30.8867   27.0338 H   0  0  0  0  0  0
  -26.2905  -29.6778   24.1311 H   0  0  0  0  0  0
  -27.4013  -29.7231   25.4765 H   0  0  0  0  0  0
  -27.8772  -30.4276   23.9498 H   0  0  0  0  0  0
  -27.2448  -33.3704   26.2069 H   0  0  0  0  0  0
  -28.3761  -32.7082   25.0400 H   0  0  0  0  0  0
  -28.0659  -31.8680   26.5546 H   0  0  0  0  0  0
  -28.2559  -38.0148   24.7558 H   0  0  0  0  0  0
  -28.1080  -36.2678   24.6186 H   0  0  0  0  0  0
  -27.2295  -37.1394   25.8842 H   0  0  0  0  0  0
  -20.9336  -29.8822   21.7123 H   0  0  0  0  0  0
  -26.0162  -38.2845   24.1463 H   0  0  0  0  0  0
  -29.4928  -20.2949   21.6580 H   0  0  0  0  0  0
  -31.2902  -20.4250   15.9618 H   0  0  0  0  0  0
  -31.4923  -18.7704   16.4686 H   0  0  0  0  0  0
  -32.6905  -19.9751   16.9157 H   0  0  0  0  0  0
  -32.5460  -19.2775   22.0327 H   0  0  0  0  0  0
  -32.2166  -17.8581   23.0158 H   0  0  0  0  0  0
  -31.0518  -19.1820   22.9557 H   0  0  0  0  0  0
  -27.4379  -18.8230   16.2175 H   0  0  0  0  0  0
  -26.5742  -20.0752   17.0967 H   0  0  0  0  0  0
  -28.1527  -19.5291   17.6520 H   0  0  0  0  0  0
  -27.1921  -20.1216   14.0783 H   0  0  0  0  0  0
  -27.8409  -21.7418   13.9168 H   0  0  0  0  0  0
  -26.3877  -21.4640   14.8748 H   0  0  0  0  0  0
  -28.3272  -22.3114   21.1958 H   0  0  0  0  0  0
  -27.8239  -22.4944   19.5661 H   0  0  0  0  0  0
  -30.7061  -22.2967   16.6479 H   0  0  0  0  0  0
  -29.9533  -23.2578   17.7963 H   0  0  0  0  0  0
  -30.1050  -24.1947   19.6509 H   0  0  0  0  0  0
  -29.5666  -24.2454   21.2816 H   0  0  0  0  0  0
  -28.5254  -22.9663   15.8863 H   0  0  0  0  0  0
  -27.7109  -22.3949   17.2872 H   0  0  0  0  0  0
  -29.0589  -17.3308   21.7763 H   0  0  0  0  0  0
  -30.3240  -16.5472   22.6395 H   0  0  0  0  0  0
  -27.2257  -24.8147   20.4202 H   0  0  0  0  0  0
  -27.9005  -24.9693   18.8152 H   0  0  0  0  0  0
  -31.8613  -17.4158   20.6218 H   0  0  0  0  0  0
  -29.1651  -20.4040   15.5076 H   0  0  0  0  0  0
  -28.8686  -15.2252   20.9906 H   0  0  0  0  0  0
  1 25  1  0  0  0
  1 30  2  0  0  0
  1 89  1  0  0  0
  2  3  1  0  0  0
  2 25  1  0  0  0
  2 90  1  0  0  0
  2 91  1  0  0  0
  3  4  1  0  0  0
  3 92  1  0  0  0
  3 93  1  0  0  0
  4  5  1  0  0  0
  4 94  1  0  0  0
  4 95  1  0  0  0
  5  6  1  0  0  0
  5 26  1  0  0  0
  5 96  1  0  0  0
  6 25  1  0  0  0
  6 97  1  0  0  0
  6 98  1  0  0  0
  7  8  2  0  0  0
  7 26  1  0  0  0
  7 29  1  0  0  0
  8  9  1  0  0  0
  8 22  1  0  0  0
  9 10  1  0  0  0
  9 27  2  0  0  0
 10 11  2  0  0  0
 10 15  1  0  0  0
 11 12  1  0  0  0
 11 99  1  0  0  0
 12 13  2  0  0  0
 12100  1  0  0  0
 13 14  1  0  0  0
 13 31  1  0  0  0
 14 15  2  0  0  0
 14101  1  0  0  0
 15102  1  0  0  0
 16 17  2  0  0  0
 16 21  1  0  0  0
 16 31  1  0  0  0
 17 18  1  0  0  0
 17103  1  0  0  0
 18 19  2  0  0  0
 18104  1  0  0  0
 19 20  1  0  0  0
 19 24  1  0  0  0
 20 21  2  0  0  0
 20105  1  0  0  0
 21 23  1  0  0  0
 22 28  1  0  0  0
 22 32  2  0  0  0
 26 27  1  0  0  0
 28106  1  0  0  0
 28107  1  0  0  0
 29108  1  0  0  0
 29109  1  0  0  0
 33 34  1  0  0  0
 33 66  1  0  0  0
 33 70  2  0  0  0
 34 36  1  0  0  0
 34 59  1  0  0  0
 34110  1  0  0  0
 35 44  2  0  0  0
 35 45  1  0  0  0
 35 68  1  0  0  0
 36 56  1  0  0  0
 36111  1  0  0  0
 37 39  1  0  0  0
 37 47  1  0  0  0
 37 66  1  0  0  0
 37112  1  0  0  0
 38 43  2  0  0  0
 38 46  1  0  0  0
 38 47  1  0  0  0
 39 64  1  0  0  0
 39 67  2  0  0  0
 40 52  1  0  0  0
 40 53  2  0  0  0
 40 58  1  0  0  0
 41113  1  0  0  0
 41114  1  0  0  0
 41115  1  0  0  0
 41 48  1  0  0  0
 42 43  1  0  0  0
 42 66  1  0  0  0
 42116  1  0  0  0
 42117  1  0  0  0
 43 44  1  0  0  0
 44118  1  0  0  0
 45 46  2  0  0  0
 45119  1  0  0  0
 46120  1  0  0  0
 47121  1  0  0  0
 47122  1  0  0  0
 48 56  1  0  0  0
 48 65  1  0  0  0
 48123  1  0  0  0
 49 50  1  0  0  0
 49 53  1  0  0  0
 49 64  1  0  0  0
 49124  1  0  0  0
 50 51  1  0  0  0
 50125  1  0  0  0
 50126  1  0  0  0
 51 52  1  0  0  0
 51127  1  0  0  0
 51128  1  0  0  0
 52129  1  0  0  0
 52130  1  0  0  0
 53 54  1  0  0  0
 54 55  2  0  0  0
 54131  1  0  0  0
 55 57  1  0  0  0
 55132  1  0  0  0
 56 69  2  0  0  0
 57 58  2  0  0  0
 57133  1  0  0  0
 58134  1  0  0  0
 59 60  1  0  0  0
 59 61  1  0  0  0
 59 62  1  0  0  0
 60135  1  0  0  0
 60136  1  0  0  0
 60137  1  0  0  0
 61138  1  0  0  0
 61139  1  0  0  0
 61140  1  0  0  0
 62141  1  0  0  0
 62142  1  0  0  0
 62143  1  0  0  0
 63 65  1  0  0  0
 63144  1  0  0  0
 63145  1  0  0  0
 63146  1  0  0  0
 64147  1  0  0  0
 65148  1  0  0  0
 68 85  1  0  0  0
 71 72  2  0  0  0
 71 74  1  0  0  0
 71149  1  0  0  0
 72 73  1  0  0  0
 72 80  1  0  0  0
 73 75  2  0  0  0
 73 81  1  0  0  0
 74 86  1  0  0  0
 74 88  2  0  0  0
 75 76  1  0  0  0
 75 88  1  0  0  0
 76150  1  0  0  0
 76151  1  0  0  0
 76152  1  0  0  0
 77153  1  0  0  0
 77154  1  0  0  0
 77155  1  0  0  0
 77 86  1  0  0  0
 78156  1  0  0  0
 78157  1  0  0  0
 78158  1  0  0  0
 78 87  1  0  0  0
 79 87  1  0  0  0
 79159  1  0  0  0
 79160  1  0  0  0
 79161  1  0  0  0
 80 82  1  0  0  0
 80162  1  0  0  0
 80163  1  0  0  0
 81 83  1  0  0  0
 81164  1  0  0  0
 81165  1  0  0  0
 82 85  1  0  0  0
 82166  1  0  0  0
 82167  1  0  0  0
 83 87  1  0  0  0
 83168  1  0  0  0
 83169  1  0  0  0
 84 86  1  0  0  0
 84 89  1  0  0  0
 84170  1  0  0  0
 84171  1  0  0  0
 85172  1  0  0  0
 85173  1  0  0  0
 86174  1  0  0  0
 87175  1  0  0  0
 89176  1  0  0  0
M  ISO  4   1 100  68 101  85 101  89 100
M  END
> <chiral flag>
0

> <version>
0

> <s_m_source_file>
/data/baiqing/PycharmProjects/Reinvent-master-3.2/result/LINK_invent/BTK/process_docking_weight1_custom_sum_contain_oxygen_bond_distance_aromatic_linkinvent_7_9_3/rearranged_h_0086.sdf

> <i_m_source_file_index>
90

> <r_mmod_Potential_Energy-OPLS-2005>
-92.4377059936523

> <r_mmod_Stretch_Energy-OPLS-2005>
69.5113830566406

> <r_mmod_Bend_Energy-OPLS-2005>
170.471466064453

> <r_mmod_Torsional_Energy-OPLS-2005>
238.790969848633

> <r_mmod_Improper_Torsional_Energy-OPLS-2005>
5.91940355300903

> <r_mmod_Van_der_Waal_Energy-OPLS-2005>
153.224426269531

> <r_mmod_Electrostatic_Energy-OPLS-2005>
-541.968872070312

> <r_mmod_Solvation_Energy-OPLS-2005>
-220.096420288086

> <b_mmod_Minimization_Converged-OPLS-2005>
0

> <r_mmod_RMS_Derivative-OPLS-2005>
4.93740653991699

$$$$
91
                    3D
 Structure written by MMmdl.
164172  0  0  1  0            999 V2000
  -28.3925  -16.6211   20.9195 C   0  0  0  0  0  0
  -29.8537  -14.1731   19.8027 C   0  0  0  0  0  0
  -29.4611  -13.1257   18.6358 C   0  0  0  0  0  0
  -28.1883  -12.3463   18.9599 C   0  0  0  0  0  0
  -27.3911  -13.2974   19.8455 C   0  0  2  0  0  0
  -28.0954  -13.8383   21.0959 C   0  0  0  0  0  0
  -25.1155  -13.8045   20.5476 C   0  0  0  0  0  0
  -24.0856  -13.0192   20.9346 C   0  0  0  0  0  0
  -24.5671  -11.6726   20.8827 C   0  0  0  0  0  0
  -23.8637  -10.4128   21.0527 C   0  0  0  0  0  0
  -24.3383   -9.4119   21.9260 C   0  0  0  0  0  0
  -23.6169   -8.2106   22.0771 C   0  0  0  0  0  0
  -22.4160   -8.0128   21.3546 C   0  0  0  0  0  0
  -21.9698   -9.0051   20.4652 C   0  0  0  0  0  0
  -22.6905  -10.1965   20.3101 C   0  0  0  0  0  0
  -21.6800   -6.0663   22.5315 C   0  0  0  0  0  0
  -21.3969   -6.5596   23.8242 C   0  0  0  0  0  0
  -21.3630   -5.6758   24.9209 C   0  0  0  0  0  0
  -21.6029   -4.3025   24.7257 C   0  0  0  0  0  0
  -21.8832   -3.8106   23.4388 C   0  0  0  0  0  0
  -21.9182   -4.6907   22.3439 C   0  0  0  0  0  0
  -22.7036  -13.5042   21.2104 C   0  0  0  0  0  0
  -22.1657   -4.2098   21.1013 F   0  0  0  0  0  0
  -21.5615   -3.4523   25.7775 F   0  0  0  0  0  0
  -28.6929  -15.0671   20.5832 N   0  0  0  0  0  0
  -26.1198  -12.9120   20.2645 N   0  0  0  0  0  0
  -25.8430  -11.6292   20.5442 N   0  0  0  0  0  0
  -21.9744  -12.8101   22.0723 N   0  0  0  0  0  0
  -25.2789  -15.1840   20.3814 N   0  0  0  0  0  0
  -29.6876  -16.7693   20.7512 O   0  0  0  0  0  0
  -21.6555   -6.8741   21.4253 O   0  0  0  0  0  0
  -22.2885  -14.5415   20.6941 O   0  0  0  0  0  0
  -24.6687  -31.9638   23.2292 C   0  0  0  0  0  0
  -25.9581  -32.5195   23.8716 C   0  0  1  0  0  0
  -26.0667  -27.2351   20.3091 C   0  0  0  0  0  0
  -25.6427  -33.8930   24.2659 N   0  0  0  0  0  0
  -23.4924  -30.6236   21.5850 C   0  0  2  0  0  0
  -24.8613  -29.4180   19.7644 C   0  0  0  0  0  0
  -23.2985  -29.4328   22.5628 C   0  0  0  0  0  0
  -18.8765  -26.7515   22.0285 C   0  0  0  0  0  0
  -24.1512  -36.7374   23.2589 C   0  0  0  0  0  0
  -26.0167  -30.8491   21.4373 C   0  0  0  0  0  0
  -25.9290  -29.5555   20.6497 C   0  0  0  0  0  0
  -26.7075  -28.4031   20.8457 C   0  0  0  0  0  0
  -25.8332  -27.3165   18.9723 C   0  0  0  0  0  0
  -24.9106  -28.3657   18.7980 C   0  0  0  0  0  0
  -23.6830  -30.3261   20.0493 C   0  0  0  0  0  0
  -25.4134  -36.3261   24.0333 C   0  0  1  0  0  0
  -22.0618  -27.6455   23.5398 C   0  0  2  0  0  0
  -22.8682  -26.0746   22.5306 C   0  0  0  0  0  0
  -21.4474  -24.9645   20.8911 C   0  0  0  0  0  0
  -19.4371  -25.4995   20.9599 C   0  0  0  0  0  0
  -20.4671  -27.9296   23.4994 C   0  0  0  0  0  0
  -19.6869  -29.2864   24.3964 C   0  0  0  0  0  0
  -18.0211  -29.6694   24.2495 C   0  0  0  0  0  0
  -25.9159  -34.9661   23.5179 C   0  0  0  0  0  0
  -16.8798  -28.8596   23.2857 C   0  0  0  0  0  0
  -17.1851  -27.4948   22.2331 C   0  0  0  0  0  0
  -26.4645  -31.6770   25.1035 C   0  0  0  0  0  0
  -25.3692  -31.3822   26.1542 C   0  0  0  0  0  0
  -27.0589  -30.3225   24.6574 C   0  0  0  0  0  0
  -27.6165  -32.4373   25.7960 C   0  0  0  0  0  0
  -27.5610  -37.1902   24.8461 C   0  0  0  0  0  0
  -22.1597  -29.0255   22.9724 N   0  0  0  0  0  0
  -26.4311  -37.3945   23.9423 N   0  0  0  0  0  0
  -24.7375  -31.2383   22.0864 N   0  0  0  0  0  0
  -24.2218  -28.8661   23.1172 O   0  0  0  0  0  0
  -24.7239  -26.9289   20.8126 O   0  0  0  0  0  0
  -26.5505  -34.9036   22.4616 O   0  0  0  0  0  0
  -23.5842  -32.2124   23.7793 O   0  0  0  0  0  0
  -20.2445  -28.5032   21.1631 C   0  0  0  0  0  0
  -19.0061  -28.9272   22.2027 C   0  0  0  0  0  0
  -21.1701  -27.1327   21.4150 C   0  0  0  0  0  0
  -18.5163  -27.2299   24.1304 C   0  0  0  0  0  0
  -20.7624  -25.4887   22.9776 C   0  0  0  0  0  0
  -17.6283  -27.1580   25.4060 C   0  0  0  0  0  0
  -22.3828  -23.1787   24.4587 C   0  0  0  0  0  0
  -22.7801  -20.3721   22.7601 C   0  0  0  0  0  0
  -23.3317  -21.5496   20.6386 C   0  0  0  0  0  0
  -22.9151  -27.2378   20.4310 C   0  0  0  0  0  0
  -25.7406  -19.7685   21.8178 C   0  0  0  0  0  0
  -22.2982  -23.4558   22.9499 C   0  0  1  0  0  0
  -23.7095  -21.4108   22.1145 C   0  0  0  0  0  0
  -19.5372  -25.8190   24.0942 N   0  0  0  0  0  0
  -26.9427  -17.8503   21.2856 N   0  0  0  0  0  0
  -30.5120  -14.8939   19.3134 H   0  0  0  0  0  0
  -30.5100  -13.6932   20.5307 H   0  0  0  0  0  0
  -30.2910  -12.4530   18.4172 H   0  0  0  0  0  0
  -29.2891  -13.6981   17.7241 H   0  0  0  0  0  0
  -28.4305  -11.4398   19.5188 H   0  0  0  0  0  0
  -27.6486  -12.0523   18.0584 H   0  0  0  0  0  0
  -27.1803  -14.1106   19.1447 H   0  0  0  0  0  0
  -28.7508  -13.1139   21.5830 H   0  0  0  0  0  0
  -27.4046  -14.1581   21.8781 H   0  0  0  0  0  0
  -25.2518   -9.5687   22.4828 H   0  0  0  0  0  0
  -23.9925   -7.4505   22.7464 H   0  0  0  0  0  0
  -21.0643   -8.8509   19.8961 H   0  0  0  0  0  0
  -22.3349  -10.9507   19.6221 H   0  0  0  0  0  0
  -21.1947   -7.6105   23.9740 H   0  0  0  0  0  0
  -21.1430   -6.0484   25.9113 H   0  0  0  0  0  0
  -22.0638   -2.7569   23.2905 H   0  0  0  0  0  0
  -22.3325  -11.9721   22.5044 H   0  0  0  0  0  0
  -21.0394  -13.1185   22.3001 H   0  0  0  0  0  0
  -24.4119  -15.7124   20.3427 H   0  0  0  0  0  0
  -25.9306  -15.4782   19.6639 H   0  0  0  0  0  0
  -26.7699  -32.5710   23.1489 H   0  0  0  0  0  0
  -25.0758  -34.0107   25.0925 H   0  0  0  0  0  0
  -22.6481  -31.3098   21.6799 H   0  0  0  0  0  0
  -23.3830  -35.9651   23.3248 H   0  0  0  0  0  0
  -24.3616  -36.8985   22.2004 H   0  0  0  0  0  0
  -23.7192  -37.6556   23.6583 H   0  0  0  0  0  0
  -26.3120  -31.6490   20.7566 H   0  0  0  0  0  0
  -26.8425  -30.7220   22.1255 H   0  0  0  0  0  0
  -27.4240  -28.3505   21.6550 H   0  0  0  0  0  0
  -25.6815  -26.4378   18.3607 H   0  0  0  0  0  0
  -24.1822  -28.3092   18.0030 H   0  0  0  0  0  0
  -23.9445  -31.2762   19.5788 H   0  0  0  0  0  0
  -22.7580  -30.0902   19.5264 H   0  0  0  0  0  0
  -25.1276  -36.2160   25.0826 H   0  0  0  0  0  0
  -22.3989  -27.6480   24.5792 H   0  0  0  0  0  0
  -23.0063  -25.6062   23.5054 H   0  0  0  0  0  0
  -23.9379  -25.9613   22.4679 H   0  0  0  0  0  0
  -21.4916  -23.8809   20.8401 H   0  0  0  0  0  0
  -21.7548  -25.1129   19.8609 H   0  0  0  0  0  0
  -19.1187  -25.7718   19.9527 H   0  0  0  0  0  0
  -18.8525  -24.6098   21.1981 H   0  0  0  0  0  0
  -20.3037  -29.8986   25.0412 H   0  0  0  0  0  0
  -17.6622  -30.5033   24.8322 H   0  0  0  0  0  0
  -15.8672  -29.2361   23.3177 H   0  0  0  0  0  0
  -16.3634  -27.0970   21.6511 H   0  0  0  0  0  0
  -24.5901  -30.7259   25.7640 H   0  0  0  0  0  0
  -24.8858  -32.2962   26.5010 H   0  0  0  0  0  0
  -25.7825  -30.8856   27.0331 H   0  0  0  0  0  0
  -26.3337  -29.6990   24.1416 H   0  0  0  0  0  0
  -27.4043  -29.7435   25.5152 H   0  0  0  0  0  0
  -27.9247  -30.4533   24.0077 H   0  0  0  0  0  0
  -27.2812  -33.3656   26.2607 H   0  0  0  0  0  0
  -28.4076  -32.6942   25.0892 H   0  0  0  0  0  0
  -28.0728  -31.8400   26.5873 H   0  0  0  0  0  0
  -28.2604  -38.0230   24.7607 H   0  0  0  0  0  0
  -28.1150  -36.2780   24.6193 H   0  0  0  0  0  0
  -27.2330  -37.1426   25.8860 H   0  0  0  0  0  0
  -21.2964  -29.4718   22.6930 H   0  0  0  0  0  0
  -26.0211  -38.3023   24.1470 H   0  0  0  0  0  0
  -20.5340  -29.2020   20.3898 H   0  0  0  0  0  0
  -18.5470  -29.8829   21.9636 H   0  0  0  0  0  0
  -16.6626  -27.6587   25.3751 H   0  0  0  0  0  0
  -18.1861  -27.5558   26.2559 H   0  0  0  0  0  0
  -17.4130  -26.1134   25.6307 H   0  0  0  0  0  0
  -22.5983  -24.0796   25.0348 H   0  0  0  0  0  0
  -23.1783  -22.4708   24.6824 H   0  0  0  0  0  0
  -21.4435  -22.7665   24.8290 H   0  0  0  0  0  0
  -22.8822  -19.3928   22.2952 H   0  0  0  0  0  0
  -21.7359  -20.6768   22.6751 H   0  0  0  0  0  0
  -22.9969  -20.2585   23.8216 H   0  0  0  0  0  0
  -23.5566  -20.6409   20.0817 H   0  0  0  0  0  0
  -23.8624  -22.3809   20.1744 H   0  0  0  0  0  0
  -22.2637  -21.7465   20.5363 H   0  0  0  0  0  0
  -22.7377  -28.2102   20.0805 H   0  0  0  0  0  0
  -22.8007  -26.7407   19.4696 H   0  0  0  0  0  0
  -26.1089  -19.8254   22.8444 H   0  0  0  0  0  0
  -26.3887  -20.4534   21.2674 H   0  0  0  0  0  0
  -23.2492  -23.8672   22.6507 H   0  0  0  0  0  0
  -26.1872  -17.1749   21.2094 H   0  0  0  0  0  0
  1 25  1  0  0  0
  1 30  2  0  0  0
  1 85  1  0  0  0
  2  3  1  0  0  0
  2 25  1  0  0  0
  2 86  1  0  0  0
  2 87  1  0  0  0
  3  4  1  0  0  0
  3 88  1  0  0  0
  3 89  1  0  0  0
  4  5  1  0  0  0
  4 90  1  0  0  0
  4 91  1  0  0  0
  5  6  1  0  0  0
  5 26  1  0  0  0
  5 92  1  0  0  0
  6 25  1  0  0  0
  6 93  1  0  0  0
  6 94  1  0  0  0
  7  8  2  0  0  0
  7 26  1  0  0  0
  7 29  1  0  0  0
  8  9  1  0  0  0
  8 22  1  0  0  0
  9 10  1  0  0  0
  9 27  2  0  0  0
 10 11  2  0  0  0
 10 15  1  0  0  0
 11 12  1  0  0  0
 11 95  1  0  0  0
 12 13  2  0  0  0
 12 96  1  0  0  0
 13 14  1  0  0  0
 13 31  1  0  0  0
 14 15  2  0  0  0
 14 97  1  0  0  0
 15 98  1  0  0  0
 16 17  2  0  0  0
 16 21  1  0  0  0
 16 31  1  0  0  0
 17 18  1  0  0  0
 17 99  1  0  0  0
 18 19  2  0  0  0
 18100  1  0  0  0
 19 20  1  0  0  0
 19 24  1  0  0  0
 20 21  2  0  0  0
 20101  1  0  0  0
 21 23  1  0  0  0
 22 28  1  0  0  0
 22 32  2  0  0  0
 26 27  1  0  0  0
 28102  1  0  0  0
 28103  1  0  0  0
 29104  1  0  0  0
 29105  1  0  0  0
 33 34  1  0  0  0
 33 66  1  0  0  0
 33 70  2  0  0  0
 34 36  1  0  0  0
 34 59  1  0  0  0
 34106  1  0  0  0
 35 44  2  0  0  0
 35 45  1  0  0  0
 35 68  1  0  0  0
 36 56  1  0  0  0
 36107  1  0  0  0
 37 39  1  0  0  0
 37 47  1  0  0  0
 37 66  1  0  0  0
 37108  1  0  0  0
 38 43  2  0  0  0
 38 46  1  0  0  0
 38 47  1  0  0  0
 39 64  1  0  0  0
 39 67  2  0  0  0
 40 52  1  0  0  0
 40 53  2  0  0  0
 40 58  1  0  0  0
 41109  1  0  0  0
 41110  1  0  0  0
 41111  1  0  0  0
 41 48  1  0  0  0
 42 43  1  0  0  0
 42 66  1  0  0  0
 42112  1  0  0  0
 42113  1  0  0  0
 43 44  1  0  0  0
 44114  1  0  0  0
 45 46  2  0  0  0
 45115  1  0  0  0
 46116  1  0  0  0
 47117  1  0  0  0
 47118  1  0  0  0
 48 56  1  0  0  0
 48 65  1  0  0  0
 48119  1  0  0  0
 49 50  1  0  0  0
 49 53  1  0  0  0
 49 64  1  0  0  0
 49120  1  0  0  0
 50 51  1  0  0  0
 50121  1  0  0  0
 50122  1  0  0  0
 51 52  1  0  0  0
 51123  1  0  0  0
 51124  1  0  0  0
 52125  1  0  0  0
 52126  1  0  0  0
 53 54  1  0  0  0
 54 55  2  0  0  0
 54127  1  0  0  0
 55 57  1  0  0  0
 55128  1  0  0  0
 56 69  2  0  0  0
 57 58  2  0  0  0
 57129  1  0  0  0
 58130  1  0  0  0
 59 60  1  0  0  0
 59 61  1  0  0  0
 59 62  1  0  0  0
 60131  1  0  0  0
 60132  1  0  0  0
 60133  1  0  0  0
 61134  1  0  0  0
 61135  1  0  0  0
 61136  1  0  0  0
 62137  1  0  0  0
 62138  1  0  0  0
 62139  1  0  0  0
 63 65  1  0  0  0
 63140  1  0  0  0
 63141  1  0  0  0
 63142  1  0  0  0
 64143  1  0  0  0
 65144  1  0  0  0
 68 80  1  0  0  0
 71 72  2  0  0  0
 71 73  1  0  0  0
 71145  1  0  0  0
 72 74  1  0  0  0
 72146  1  0  0  0
 73 75  2  0  0  0
 73 80  1  0  0  0
 74 76  1  0  0  0
 74 84  2  0  0  0
 75 82  1  0  0  0
 75 84  1  0  0  0
 76147  1  0  0  0
 76148  1  0  0  0
 76149  1  0  0  0
 77150  1  0  0  0
 77151  1  0  0  0
 77152  1  0  0  0
 77 82  1  0  0  0
 78153  1  0  0  0
 78154  1  0  0  0
 78155  1  0  0  0
 78 83  1  0  0  0
 79 83  1  0  0  0
 79156  1  0  0  0
 79157  1  0  0  0
 79158  1  0  0  0
 80159  1  0  0  0
 80160  1  0  0  0
 81 83  1  0  0  0
 81 85  1  0  0  0
 81161  1  0  0  0
 81162  1  0  0  0
 82 83  1  0  0  0
 82163  1  0  0  0
 85164  1  0  0  0
M  ISO  4   1 100  68 101  80 101  85 100
M  END
> <chiral flag>
0

> <version>
0

> <s_m_source_file>
/data/baiqing/PycharmProjects/Reinvent-master-3.2/result/LINK_invent/BTK/process_docking_weight1_custom_sum_contain_oxygen_bond_distance_aromatic_linkinvent_7_9_3/rearranged_h_0086.sdf

> <i_m_source_file_index>
91

> <r_mmod_Potential_Energy-OPLS-2005>
33067.96484375

> <r_mmod_Stretch_Energy-OPLS-2005>
17461.556640625

> <r_mmod_Bend_Energy-OPLS-2005>
1996.57885742188

> <r_mmod_Torsional_Energy-OPLS-2005>
527.581787109375

> <r_mmod_Improper_Torsional_Energy-OPLS-2005>
43.7442207336426

> <r_mmod_Van_der_Waal_Energy-OPLS-2005>
5304.21923828125

> <r_mmod_Electrostatic_Energy-OPLS-2005>
-483.650146484375

> <r_mmod_Solvation_Energy-OPLS-2005>
-214.866790771484

> <b_mmod_Minimization_Converged-OPLS-2005>
0

> <r_mmod_RMS_Derivative-OPLS-2005>
7.28835535049438

$$$$
92
                    3D
 Structure written by MMmdl.
175183  0  0  1  0            999 V2000
  -30.7278  -14.4955   20.4072 C   0  0  0  0  0  0
  -30.4149  -12.2857   19.4218 C   0  0  0  0  0  0
  -29.4918  -12.4459   18.1998 C   0  0  0  0  0  0
  -28.0183  -12.3188   18.6303 C   0  0  0  0  0  0
  -27.6597  -13.1992   19.8559 C   0  0  2  0  0  0
  -28.7159  -13.0848   20.9799 C   0  0  0  0  0  0
  -25.2635  -13.8079   20.5772 C   0  0  0  0  0  0
  -24.1898  -13.0346   20.9210 C   0  0  0  0  0  0
  -24.6441  -11.6849   20.8696 C   0  0  0  0  0  0
  -23.9136  -10.4236   21.0421 C   0  0  0  0  0  0
  -24.3686   -9.4105   21.9134 C   0  0  0  0  0  0
  -23.6284   -8.2184   22.0730 C   0  0  0  0  0  0
  -22.4275   -8.0261   21.3531 C   0  0  0  0  0  0
  -21.9972   -9.0222   20.4594 C   0  0  0  0  0  0
  -22.7260  -10.2135   20.3113 C   0  0  0  0  0  0
  -21.6861   -6.0737   22.5287 C   0  0  0  0  0  0
  -21.4004   -6.5684   23.8189 C   0  0  0  0  0  0
  -21.3698   -5.6862   24.9184 C   0  0  0  0  0  0
  -21.6094   -4.3125   24.7305 C   0  0  0  0  0  0
  -21.8812   -3.8172   23.4430 C   0  0  0  0  0  0
  -21.9196   -4.6949   22.3453 C   0  0  0  0  0  0
  -22.7951  -13.5074   21.1985 C   0  0  0  0  0  0
  -22.1565   -4.2098   21.1013 F   0  0  0  0  0  0
  -21.5716   -3.4665   25.7851 F   0  0  0  0  0  0
  -30.0368  -13.3292   20.3801 N   0  0  0  0  0  0
  -26.3072  -12.9301   20.3330 N   0  0  0  0  0  0
  -25.9371  -11.6500   20.5778 N   0  0  0  0  0  0
  -22.0795  -12.7909   22.0606 N   0  0  0  0  0  0
  -25.4231  -15.1825   20.4451 N   0  0  0  0  0  0
  -31.9391  -14.5623   20.1971 O   0  0  0  0  0  0
  -21.6661   -6.8850   21.4203 O   0  0  0  0  0  0
  -22.3473  -14.5346   20.6948 O   0  0  0  0  0  0
  -24.6145  -31.8687   23.2065 C   0  0  0  0  0  0
  -25.9054  -32.4815   23.8368 C   0  0  1  0  0  0
  -27.2347  -27.4404   20.0823 C   0  0  0  0  0  0
  -25.5900  -33.8596   24.2304 N   0  0  0  0  0  0
  -23.4013  -30.4916   21.5549 C   0  0  2  0  0  0
  -24.8461  -28.9563   20.1147 C   0  0  0  0  0  0
  -22.7387  -29.4668   22.5003 C   0  0  0  0  0  0
  -18.0278  -28.1384   22.8493 C   0  0  0  0  0  0
  -24.1479  -36.7318   23.2636 C   0  0  0  0  0  0
  -25.9323  -30.8386   21.3530 C   0  0  0  0  0  0
  -26.0095  -29.4744   20.6967 C   0  0  0  0  0  0
  -27.2129  -28.7294   20.6654 C   0  0  0  0  0  0
  -26.0621  -26.9402   19.4808 C   0  0  0  0  0  0
  -24.8723  -27.6970   19.4846 C   0  0  0  0  0  0
  -23.6003  -29.8178   20.1702 C   0  0  0  0  0  0
  -25.4111  -36.3107   24.0329 C   0  0  1  0  0  0
  -20.5869  -28.3644   23.1326 C   0  0  2  0  0  0
  -20.6768  -26.9388   22.5430 C   0  0  0  0  0  0
  -19.5736  -26.6373   21.5230 C   0  0  0  0  0  0
  -18.1910  -26.7926   22.1633 C   0  0  0  0  0  0
  -19.1538  -28.8841   23.2902 C   0  0  0  0  0  0
  -18.9433  -30.1438   23.8929 C   0  0  0  0  0  0
  -17.6427  -30.6589   24.0538 C   0  0  0  0  0  0
  -25.9036  -34.9469   23.5140 C   0  0  0  0  0  0
  -16.5324  -29.9065   23.6324 C   0  0  0  0  0  0
  -16.7261  -28.6482   23.0362 C   0  0  0  0  0  0
  -26.4479  -31.6583   25.0703 C   0  0  0  0  0  0
  -25.3736  -31.3656   26.1442 C   0  0  0  0  0  0
  -27.0300  -30.3042   24.6028 C   0  0  0  0  0  0
  -27.6048  -32.4301   25.7456 C   0  0  0  0  0  0
  -27.5587  -37.1818   24.8480 C   0  0  0  0  0  0
  -21.4144  -29.3005   22.3731 N   0  0  0  0  0  0
  -26.4302  -37.3810   23.9406 N   0  0  0  0  0  0
  -24.6712  -31.0772   22.0978 N   0  0  0  0  0  0
  -23.4187  -28.8195   23.3005 O   0  0  0  0  0  0
  -28.3882  -26.6858   20.0708 O   0  0  0  0  0  0
  -26.5592  -34.8954   22.4695 O   0  0  0  0  0  0
  -23.5337  -32.1362   23.7519 O   0  0  0  0  0  0
  -27.0192  -22.4520   22.3398 C   0  0  0  0  0  0
  -27.8298  -22.0812   21.2518 C   0  0  0  0  0  0
  -28.4725  -20.8187   21.3860 C   0  0  0  0  0  0
  -27.5120  -20.5251   23.4559 C   0  0  0  0  0  0
  -26.2547  -18.4355   24.1893 C   0  0  0  0  0  0
  -30.8185  -20.1031   20.7930 C   0  0  0  0  0  0
  -28.3352  -16.8767   18.3614 C   0  0  0  0  0  0
  -30.0589  -18.5350   17.8109 C   0  0  0  0  0  0
  -27.8743  -22.9819   20.0038 C   0  0  0  0  0  0
  -27.2390  -19.5472   24.5913 C   0  0  0  0  0  0
  -28.8187  -24.2144   20.0444 C   0  0  0  0  0  0
  -28.7397  -18.7003   20.0205 C   0  0  0  0  0  0
  -30.4867  -16.8559   19.7088 C   0  0  0  0  0  0
  -28.3193  -25.4619   20.8270 C   0  0  0  0  0  0
  -29.3430  -20.1087   20.3359 C   0  0  1  0  0  0
  -29.4284  -17.7583   18.9934 C   0  0  0  0  0  0
  -26.8490  -21.6764   23.4283 N   0  0  0  0  0  0
  -28.3214  -20.0940   22.5062 N   0  0  0  0  0  0
  -29.9704  -15.6033   20.2903 N   0  0  0  0  0  0
  -31.4667  -12.3412   19.1231 H   0  0  0  0  0  0
  -30.2728  -11.3049   19.8786 H   0  0  0  0  0  0
  -29.7246  -11.6645   17.4699 H   0  0  0  0  0  0
  -29.6669  -13.4006   17.6953 H   0  0  0  0  0  0
  -27.8284  -11.2642   18.8532 H   0  0  0  0  0  0
  -27.3746  -12.5645   17.7890 H   0  0  0  0  0  0
  -27.6762  -14.2226   19.4975 H   0  0  0  0  0  0
  -28.6897  -12.1114   21.4722 H   0  0  0  0  0  0
  -28.5075  -13.8218   21.7582 H   0  0  0  0  0  0
  -25.2856   -9.5585   22.4670 H   0  0  0  0  0  0
  -24.0017   -7.4549   22.7395 H   0  0  0  0  0  0
  -21.0991   -8.8563   19.8805 H   0  0  0  0  0  0
  -22.3696  -10.9713   19.6261 H   0  0  0  0  0  0
  -21.1821   -7.6167   23.9615 H   0  0  0  0  0  0
  -21.1596   -6.0680   25.9068 H   0  0  0  0  0  0
  -22.0501   -2.7622   23.3005 H   0  0  0  0  0  0
  -22.4829  -11.9746   22.4920 H   0  0  0  0  0  0
  -21.1399  -13.0596   22.3039 H   0  0  0  0  0  0
  -24.6526  -15.8149   20.6290 H   0  0  0  0  0  0
  -26.2935  -15.6582   20.2435 H   0  0  0  0  0  0
  -26.7112  -32.5547   23.1101 H   0  0  0  0  0  0
  -25.0061  -33.9754   25.0457 H   0  0  0  0  0  0
  -22.6916  -31.3076   21.4150 H   0  0  0  0  0  0
  -23.3743  -35.9663   23.3330 H   0  0  0  0  0  0
  -24.3549  -36.8903   22.2048 H   0  0  0  0  0  0
  -23.7246  -37.6539   23.6628 H   0  0  0  0  0  0
  -26.0402  -31.6068   20.5864 H   0  0  0  0  0  0
  -26.8178  -30.8920   21.9723 H   0  0  0  0  0  0
  -28.1166  -29.1352   21.0940 H   0  0  0  0  0  0
  -26.0737  -25.9754   18.9899 H   0  0  0  0  0  0
  -23.9807  -27.3089   19.0126 H   0  0  0  0  0  0
  -23.6806  -30.5826   19.3972 H   0  0  0  0  0  0
  -22.7336  -29.2147   19.8913 H   0  0  0  0  0  0
  -25.1290  -36.1968   25.0824 H   0  0  0  0  0  0
  -20.9944  -28.3203   24.1441 H   0  0  0  0  0  0
  -20.5692  -26.2236   23.3603 H   0  0  0  0  0  0
  -21.6622  -26.7427   22.1199 H   0  0  0  0  0  0
  -19.6870  -25.6286   21.1220 H   0  0  0  0  0  0
  -19.6678  -27.3210   20.6779 H   0  0  0  0  0  0
  -17.4178  -26.6685   21.4019 H   0  0  0  0  0  0
  -18.0297  -26.0068   22.9035 H   0  0  0  0  0  0
  -19.7932  -30.7252   24.2292 H   0  0  0  0  0  0
  -17.5000  -31.6278   24.5136 H   0  0  0  0  0  0
  -15.5342  -30.2970   23.7660 H   0  0  0  0  0  0
  -15.8659  -28.0804   22.7077 H   0  0  0  0  0  0
  -24.5912  -30.7011   25.7741 H   0  0  0  0  0  0
  -24.8939  -32.2813   26.4923 H   0  0  0  0  0  0
  -25.8096  -30.8777   27.0171 H   0  0  0  0  0  0
  -26.2814  -29.6785   24.1142 H   0  0  0  0  0  0
  -27.4162  -29.7286   25.4445 H   0  0  0  0  0  0
  -27.8617  -30.4384   23.9097 H   0  0  0  0  0  0
  -27.2653  -33.3587   26.2048 H   0  0  0  0  0  0
  -28.3837  -32.6856   25.0259 H   0  0  0  0  0  0
  -28.0720  -31.8410   26.5353 H   0  0  0  0  0  0
  -28.2633  -38.0085   24.7512 H   0  0  0  0  0  0
  -28.1043  -36.2621   24.6321 H   0  0  0  0  0  0
  -27.2294  -37.1505   25.8880 H   0  0  0  0  0  0
  -20.9324  -29.8732   21.6959 H   0  0  0  0  0  0
  -26.0187  -38.2900   24.1381 H   0  0  0  0  0  0
  -26.4633  -23.3783   22.3347 H   0  0  0  0  0  0
  -26.0345  -17.7785   25.0306 H   0  0  0  0  0  0
  -26.6673  -17.8071   23.3965 H   0  0  0  0  0  0
  -25.3131  -18.8597   23.8349 H   0  0  0  0  0  0
  -31.1866  -21.1258   20.8905 H   0  0  0  0  0  0
  -31.4902  -19.6051   20.0926 H   0  0  0  0  0  0
  -30.9483  -19.6070   21.7538 H   0  0  0  0  0  0
  -27.6491  -16.4873   19.1076 H   0  0  0  0  0  0
  -28.7675  -16.0351   17.8236 H   0  0  0  0  0  0
  -27.7266  -17.4365   17.6475 H   0  0  0  0  0  0
  -29.3232  -19.1677   17.3128 H   0  0  0  0  0  0
  -30.4506  -17.8514   17.0533 H   0  0  0  0  0  0
  -30.8859  -19.1773   18.1007 H   0  0  0  0  0  0
  -26.8626  -23.3201   19.7625 H   0  0  0  0  0  0
  -28.1485  -22.3735   19.1474 H   0  0  0  0  0  0
  -26.8457  -20.0775   25.4598 H   0  0  0  0  0  0
  -28.1836  -19.1016   24.9037 H   0  0  0  0  0  0
  -28.9772  -24.5262   19.0069 H   0  0  0  0  0  0
  -29.8032  -23.9016   20.3951 H   0  0  0  0  0  0
  -27.7064  -18.8726   19.7132 H   0  0  0  0  0  0
  -28.6399  -18.1267   20.9402 H   0  0  0  0  0  0
  -30.9975  -17.4036   20.4996 H   0  0  0  0  0  0
  -31.2428  -16.5932   18.9710 H   0  0  0  0  0  0
  -28.9663  -25.6215   21.6925 H   0  0  0  0  0  0
  -27.3248  -25.2826   21.2408 H   0  0  0  0  0  0
  -29.3041  -20.6649   19.4099 H   0  0  0  0  0  0
  -28.9714  -15.4923   20.3302 H   0  0  0  0  0  0
  1 25  1  0  0  0
  1 30  2  0  0  0
  1 89  1  0  0  0
  2  3  1  0  0  0
  2 25  1  0  0  0
  2 90  1  0  0  0
  2 91  1  0  0  0
  3  4  1  0  0  0
  3 92  1  0  0  0
  3 93  1  0  0  0
  4  5  1  0  0  0
  4 94  1  0  0  0
  4 95  1  0  0  0
  5  6  1  0  0  0
  5 26  1  0  0  0
  5 96  1  0  0  0
  6 25  1  0  0  0
  6 97  1  0  0  0
  6 98  1  0  0  0
  7  8  2  0  0  0
  7 26  1  0  0  0
  7 29  1  0  0  0
  8  9  1  0  0  0
  8 22  1  0  0  0
  9 10  1  0  0  0
  9 27  2  0  0  0
 10 11  2  0  0  0
 10 15  1  0  0  0
 11 12  1  0  0  0
 11 99  1  0  0  0
 12 13  2  0  0  0
 12100  1  0  0  0
 13 14  1  0  0  0
 13 31  1  0  0  0
 14 15  2  0  0  0
 14101  1  0  0  0
 15102  1  0  0  0
 16 17  2  0  0  0
 16 21  1  0  0  0
 16 31  1  0  0  0
 17 18  1  0  0  0
 17103  1  0  0  0
 18 19  2  0  0  0
 18104  1  0  0  0
 19 20  1  0  0  0
 19 24  1  0  0  0
 20 21  2  0  0  0
 20105  1  0  0  0
 21 23  1  0  0  0
 22 28  1  0  0  0
 22 32  2  0  0  0
 26 27  1  0  0  0
 28106  1  0  0  0
 28107  1  0  0  0
 29108  1  0  0  0
 29109  1  0  0  0
 33 34  1  0  0  0
 33 66  1  0  0  0
 33 70  2  0  0  0
 34 36  1  0  0  0
 34 59  1  0  0  0
 34110  1  0  0  0
 35 44  2  0  0  0
 35 45  1  0  0  0
 35 68  1  0  0  0
 36 56  1  0  0  0
 36111  1  0  0  0
 37 39  1  0  0  0
 37 47  1  0  0  0
 37 66  1  0  0  0
 37112  1  0  0  0
 38 43  2  0  0  0
 38 46  1  0  0  0
 38 47  1  0  0  0
 39 64  1  0  0  0
 39 67  2  0  0  0
 40 52  1  0  0  0
 40 53  2  0  0  0
 40 58  1  0  0  0
 41113  1  0  0  0
 41114  1  0  0  0
 41115  1  0  0  0
 41 48  1  0  0  0
 42 43  1  0  0  0
 42 66  1  0  0  0
 42116  1  0  0  0
 42117  1  0  0  0
 43 44  1  0  0  0
 44118  1  0  0  0
 45 46  2  0  0  0
 45119  1  0  0  0
 46120  1  0  0  0
 47121  1  0  0  0
 47122  1  0  0  0
 48 56  1  0  0  0
 48 65  1  0  0  0
 48123  1  0  0  0
 49 50  1  0  0  0
 49 53  1  0  0  0
 49 64  1  0  0  0
 49124  1  0  0  0
 50 51  1  0  0  0
 50125  1  0  0  0
 50126  1  0  0  0
 51 52  1  0  0  0
 51127  1  0  0  0
 51128  1  0  0  0
 52129  1  0  0  0
 52130  1  0  0  0
 53 54  1  0  0  0
 54 55  2  0  0  0
 54131  1  0  0  0
 55 57  1  0  0  0
 55132  1  0  0  0
 56 69  2  0  0  0
 57 58  2  0  0  0
 57133  1  0  0  0
 58134  1  0  0  0
 59 60  1  0  0  0
 59 61  1  0  0  0
 59 62  1  0  0  0
 60135  1  0  0  0
 60136  1  0  0  0
 60137  1  0  0  0
 61138  1  0  0  0
 61139  1  0  0  0
 61140  1  0  0  0
 62141  1  0  0  0
 62142  1  0  0  0
 62143  1  0  0  0
 63 65  1  0  0  0
 63144  1  0  0  0
 63145  1  0  0  0
 63146  1  0  0  0
 64147  1  0  0  0
 65148  1  0  0  0
 68 84  1  0  0  0
 71 72  2  0  0  0
 71 87  1  0  0  0
 71149  1  0  0  0
 72 73  1  0  0  0
 72 79  1  0  0  0
 73 85  1  0  0  0
 73 88  2  0  0  0
 74 80  1  0  0  0
 74 87  2  0  0  0
 74 88  1  0  0  0
 75 80  1  0  0  0
 75150  1  0  0  0
 75151  1  0  0  0
 75152  1  0  0  0
 76153  1  0  0  0
 76154  1  0  0  0
 76155  1  0  0  0
 76 85  1  0  0  0
 77156  1  0  0  0
 77157  1  0  0  0
 77158  1  0  0  0
 77 86  1  0  0  0
 78 86  1  0  0  0
 78159  1  0  0  0
 78160  1  0  0  0
 78161  1  0  0  0
 79 81  1  0  0  0
 79162  1  0  0  0
 79163  1  0  0  0
 80164  1  0  0  0
 80165  1  0  0  0
 81 84  1  0  0  0
 81166  1  0  0  0
 81167  1  0  0  0
 82 85  1  0  0  0
 82 86  1  0  0  0
 82168  1  0  0  0
 82169  1  0  0  0
 83 86  1  0  0  0
 83 89  1  0  0  0
 83170  1  0  0  0
 83171  1  0  0  0
 84172  1  0  0  0
 84173  1  0  0  0
 85174  1  0  0  0
 89175  1  0  0  0
M  ISO  4   1 100  68 101  84 101  89 100
M  END
> <chiral flag>
0

> <version>
0

> <s_m_source_file>
/data/baiqing/PycharmProjects/Reinvent-master-3.2/result/LINK_invent/BTK/process_docking_weight1_custom_sum_contain_oxygen_bond_distance_aromatic_linkinvent_7_9_3/rearranged_h_0086.sdf

> <i_m_source_file_index>
92

> <r_mmod_Potential_Energy-OPLS-2005>
-424.240051269531

> <r_mmod_Stretch_Energy-OPLS-2005>
41.2920570373535

> <r_mmod_Bend_Energy-OPLS-2005>
125.206695556641

> <r_mmod_Torsional_Energy-OPLS-2005>
263.698120117188

> <r_mmod_Improper_Torsional_Energy-OPLS-2005>
11.621997833252

> <r_mmod_Van_der_Waal_Energy-OPLS-2005>
160.217926025391

> <r_mmod_Electrostatic_Energy-OPLS-2005>
-840.384033203125

> <r_mmod_Solvation_Energy-OPLS-2005>
-214.230667114258

> <b_mmod_Minimization_Converged-OPLS-2005>
0

> <r_mmod_RMS_Derivative-OPLS-2005>
10.5276288986206

$$$$
94
                    3D
 Structure written by MMmdl.
167175  0  0  1  0            999 V2000
  -30.6969  -14.5275   20.5964 C   0  0  0  0  0  0
  -30.4279  -12.3554   19.4152 C   0  0  0  0  0  0
  -29.4898  -12.5289   18.2030 C   0  0  0  0  0  0
  -28.0133  -12.3691   18.6167 C   0  0  0  0  0  0
  -27.6591  -13.1918   19.8814 C   0  0  2  0  0  0
  -28.7117  -12.9910   20.9941 C   0  0  0  0  0  0
  -25.2576  -13.8094   20.5704 C   0  0  0  0  0  0
  -24.1815  -13.0384   20.9161 C   0  0  0  0  0  0
  -24.6369  -11.6852   20.8728 C   0  0  0  0  0  0
  -23.9018  -10.4255   21.0396 C   0  0  0  0  0  0
  -24.3579   -9.4183   21.9181 C   0  0  0  0  0  0
  -23.6247   -8.2235   22.0773 C   0  0  0  0  0  0
  -22.4230   -8.0265   21.3563 C   0  0  0  0  0  0
  -21.9854   -9.0232   20.4657 C   0  0  0  0  0  0
  -22.7185  -10.2104   20.3055 C   0  0  0  0  0  0
  -21.6854   -6.0701   22.5260 C   0  0  0  0  0  0
  -21.4021   -6.5619   23.8191 C   0  0  0  0  0  0
  -21.3659   -5.6780   24.9155 C   0  0  0  0  0  0
  -21.6055   -4.3044   24.7212 C   0  0  0  0  0  0
  -21.8835   -3.8121   23.4337 C   0  0  0  0  0  0
  -21.9204   -4.6929   22.3384 C   0  0  0  0  0  0
  -22.7838  -13.5208   21.1799 C   0  0  0  0  0  0
  -22.1676   -4.2116   21.0960 F   0  0  0  0  0  0
  -21.5617   -3.4529   25.7724 F   0  0  0  0  0  0
  -30.0291  -13.3410   20.4366 N   0  0  0  0  0  0
  -26.3017  -12.9239   20.3435 N   0  0  0  0  0  0
  -25.9302  -11.6421   20.5808 N   0  0  0  0  0  0
  -22.0493  -12.8207   22.0364 N   0  0  0  0  0  0
  -25.4251  -15.1817   20.4155 N   0  0  0  0  0  0
  -31.8032  -14.7027   20.0775 O   0  0  0  0  0  0
  -21.6633   -6.8839   21.4224 O   0  0  0  0  0  0
  -22.3530  -14.5517   20.6649 O   0  0  0  0  0  0
  -24.6199  -31.8653   23.2076 C   0  0  0  0  0  0
  -25.9082  -32.4802   23.8389 C   0  0  1  0  0  0
  -27.2397  -27.3955   20.0871 C   0  0  0  0  0  0
  -25.5915  -33.8602   24.2312 N   0  0  0  0  0  0
  -23.4091  -30.4885   21.5488 C   0  0  2  0  0  0
  -24.8548  -28.9512   20.1122 C   0  0  0  0  0  0
  -22.7424  -29.4649   22.4972 C   0  0  0  0  0  0
  -18.0279  -28.1387   22.8489 C   0  0  0  0  0  0
  -24.1488  -36.7314   23.2633 C   0  0  0  0  0  0
  -25.9417  -30.8176   21.3659 C   0  0  0  0  0  0
  -26.0166  -29.4481   20.7135 C   0  0  0  0  0  0
  -27.2056  -28.6752   20.7031 C   0  0  0  0  0  0
  -26.0540  -26.9360   19.4636 C   0  0  0  0  0  0
  -24.8703  -27.6956   19.4862 C   0  0  0  0  0  0
  -23.6186  -29.8208   20.1638 C   0  0  0  0  0  0
  -25.4106  -36.3094   24.0330 C   0  0  1  0  0  0
  -20.5869  -28.3682   23.1308 C   0  0  2  0  0  0
  -20.6770  -26.9418   22.5411 C   0  0  0  0  0  0
  -19.5744  -26.6389   21.5211 C   0  0  0  0  0  0
  -18.1923  -26.7935   22.1620 C   0  0  0  0  0  0
  -19.1527  -28.8850   23.2893 C   0  0  0  0  0  0
  -18.9448  -30.1452   23.8907 C   0  0  0  0  0  0
  -17.6450  -30.6590   24.0567 C   0  0  0  0  0  0
  -25.9040  -34.9458   23.5112 C   0  0  0  0  0  0
  -16.5345  -29.9090   23.6325 C   0  0  0  0  0  0
  -16.7267  -28.6512   23.0337 C   0  0  0  0  0  0
  -26.4480  -31.6580   25.0727 C   0  0  0  0  0  0
  -25.3728  -31.3703   26.1456 C   0  0  0  0  0  0
  -27.0313  -30.3022   24.6117 C   0  0  0  0  0  0
  -27.6042  -32.4288   25.7514 C   0  0  0  0  0  0
  -27.5574  -37.1811   24.8458 C   0  0  0  0  0  0
  -21.4151  -29.3050   22.3717 N   0  0  0  0  0  0
  -26.4284  -37.3783   23.9403 N   0  0  0  0  0  0
  -24.6758  -31.0726   22.0994 N   0  0  0  0  0  0
  -23.4182  -28.8192   23.3020 O   0  0  0  0  0  0
  -28.4155  -26.6507   20.1267 O   0  0  0  0  0  0
  -26.5600  -34.8919   22.4673 O   0  0  0  0  0  0
  -23.5379  -32.1413   23.7442 O   0  0  0  0  0  0
  -30.8561  -18.2847   21.1419 C   0  0  0  0  0  0
  -29.7389  -18.8484   19.3096 C   0  0  0  0  0  0
  -30.5857  -19.3665   20.2422 C   0  0  0  0  0  0
  -30.1985  -17.1375   20.7403 C   0  0  0  0  0  0
  -27.9929  -17.2976   17.5590 C   0  0  0  0  0  0
  -31.1617  -20.7831   20.2518 C   0  0  0  0  0  0
  -30.2975  -21.9244   20.8738 C   0  0  0  0  0  0
  -29.6170  -22.9264   19.8878 C   0  0  0  0  0  0
  -29.3892  -24.3606   20.4708 C   0  0  0  0  0  0
  -28.5992  -16.6536   18.8158 C   0  0  0  0  0  0
  -30.5691  -15.6932   22.8649 C   0  0  0  0  0  0
  -28.4552  -25.2849   19.6366 C   0  0  0  0  0  0
  -30.0739  -15.7335   21.3916 C   0  0  2  0  0  0
  -29.4925  -17.5098   19.5892 N   0  0  0  0  0  0
  -32.0087  -15.9784   23.0483 N   0  3  0  0  0  0
  -31.4675  -12.4678   19.1031 H   0  0  0  0  0  0
  -30.3486  -11.3443   19.8181 H   0  0  0  0  0  0
  -29.7375  -11.8109   17.4207 H   0  0  0  0  0  0
  -29.6456  -13.5150   17.7645 H   0  0  0  0  0  0
  -27.8307  -11.3097   18.8006 H   0  0  0  0  0  0
  -27.3608  -12.6560   17.7904 H   0  0  0  0  0  0
  -27.6905  -14.2308   19.5836 H   0  0  0  0  0  0
  -28.7194  -11.9480   21.3153 H   0  0  0  0  0  0
  -28.4567  -13.5541   21.8908 H   0  0  0  0  0  0
  -25.2736   -9.5658   22.4737 H   0  0  0  0  0  0
  -23.9962   -7.4624   22.7493 H   0  0  0  0  0  0
  -21.0808   -8.8740   19.8935 H   0  0  0  0  0  0
  -22.3664  -10.9638   19.6156 H   0  0  0  0  0  0
  -21.2030   -7.6133   23.9679 H   0  0  0  0  0  0
  -21.1460   -6.0511   25.9060 H   0  0  0  0  0  0
  -22.0616   -2.7577   23.2844 H   0  0  0  0  0  0
  -22.4116  -11.9855   22.4726 H   0  0  0  0  0  0
  -21.1126  -13.1244   22.2593 H   0  0  0  0  0  0
  -24.6548  -15.8295   20.5372 H   0  0  0  0  0  0
  -26.2778  -15.6347   20.1217 H   0  0  0  0  0  0
  -26.7156  -32.5512   23.1155 H   0  0  0  0  0  0
  -25.0083  -33.9754   25.0471 H   0  0  0  0  0  0
  -22.7005  -31.3072   21.4073 H   0  0  0  0  0  0
  -23.3732  -35.9660   23.3284 H   0  0  0  0  0  0
  -24.3586  -36.8947   22.2047 H   0  0  0  0  0  0
  -23.7250  -37.6521   23.6662 H   0  0  0  0  0  0
  -26.0528  -31.5787   20.5925 H   0  0  0  0  0  0
  -26.8315  -30.8769   21.9817 H   0  0  0  0  0  0
  -28.0998  -29.0537   21.1790 H   0  0  0  0  0  0
  -26.0058  -25.9940   18.9427 H   0  0  0  0  0  0
  -23.9797  -27.3105   19.0096 H   0  0  0  0  0  0
  -23.7296  -30.5958   19.4045 H   0  0  0  0  0  0
  -22.7424  -29.2409   19.8668 H   0  0  0  0  0  0
  -25.1279  -36.1952   25.0820 H   0  0  0  0  0  0
  -20.9957  -28.3252   24.1429 H   0  0  0  0  0  0
  -20.5687  -26.2289   23.3601 H   0  0  0  0  0  0
  -21.6644  -26.7465   22.1203 H   0  0  0  0  0  0
  -19.6917  -25.6298   21.1244 H   0  0  0  0  0  0
  -19.6694  -27.3199   20.6740 H   0  0  0  0  0  0
  -17.4201  -26.6675   21.4019 H   0  0  0  0  0  0
  -18.0332  -26.0079   22.9016 H   0  0  0  0  0  0
  -19.7919  -30.7266   24.2283 H   0  0  0  0  0  0
  -17.5003  -31.6267   24.5169 H   0  0  0  0  0  0
  -15.5350  -30.2994   23.7638 H   0  0  0  0  0  0
  -15.8669  -28.0841   22.7032 H   0  0  0  0  0  0
  -24.5927  -30.7017   25.7800 H   0  0  0  0  0  0
  -24.8886  -32.2859   26.4856 H   0  0  0  0  0  0
  -25.8071  -30.8920   27.0240 H   0  0  0  0  0  0
  -26.2880  -29.6793   24.1131 H   0  0  0  0  0  0
  -27.4028  -29.7247   25.4587 H   0  0  0  0  0  0
  -27.8727  -30.4328   23.9312 H   0  0  0  0  0  0
  -27.2663  -33.3584   26.2100 H   0  0  0  0  0  0
  -28.3875  -32.6839   25.0370 H   0  0  0  0  0  0
  -28.0675  -31.8393   26.5432 H   0  0  0  0  0  0
  -28.2578  -38.0122   24.7509 H   0  0  0  0  0  0
  -28.1084  -36.2647   24.6276 H   0  0  0  0  0  0
  -27.2293  -37.1455   25.8863 H   0  0  0  0  0  0
  -20.9316  -29.8798   21.6963 H   0  0  0  0  0  0
  -26.0165  -38.2859   24.1400 H   0  0  0  0  0  0
  -31.4829  -18.3717   22.0171 H   0  0  0  0  0  0
  -29.2927  -19.3388   18.4548 H   0  0  0  0  0  0
  -27.3658  -18.1533   17.8127 H   0  0  0  0  0  0
  -27.3629  -16.5832   17.0289 H   0  0  0  0  0  0
  -28.7644  -17.6262   16.8641 H   0  0  0  0  0  0
  -31.4578  -21.0459   19.2355 H   0  0  0  0  0  0
  -32.0987  -20.7227   20.8071 H   0  0  0  0  0  0
  -30.9818  -22.5162   21.4846 H   0  0  0  0  0  0
  -29.5758  -21.5175   21.5836 H   0  0  0  0  0  0
  -28.6667  -22.4999   19.5631 H   0  0  0  0  0  0
  -30.2201  -23.0193   18.9827 H   0  0  0  0  0  0
  -30.3583  -24.8468   20.5903 H   0  0  0  0  0  0
  -28.9725  -24.2749   21.4755 H   0  0  0  0  0  0
  -29.1459  -15.7567   18.5261 H   0  0  0  0  0  0
  -27.7882  -16.3627   19.4773 H   0  0  0  0  0  0
  -30.3608  -14.7145   23.2983 H   0  0  0  0  0  0
  -29.9921  -16.4053   23.4568 H   0  0  0  0  0  0
  -27.4856  -24.7949   19.6481 H   0  0  0  0  0  0
  -28.7883  -25.3098   18.5980 H   0  0  0  0  0  0
  -29.0033  -15.5598   21.4468 H   0  0  0  0  0  0
  -32.5815  -15.3007   22.5779 H   0  0  0  0  0  0
  -32.2381  -15.9594   24.0264 H   0  0  0  0  0  0
  -32.2368  -16.8894   22.6902 H   0  0  0  0  0  0
  1 25  1  0  0  0
  1 30  2  0  0  0
  1 83  1  0  0  0
  2  3  1  0  0  0
  2 25  1  0  0  0
  2 86  1  0  0  0
  2 87  1  0  0  0
  3  4  1  0  0  0
  3 88  1  0  0  0
  3 89  1  0  0  0
  4  5  1  0  0  0
  4 90  1  0  0  0
  4 91  1  0  0  0
  5  6  1  0  0  0
  5 26  1  0  0  0
  5 92  1  0  0  0
  6 25  1  0  0  0
  6 93  1  0  0  0
  6 94  1  0  0  0
  7  8  2  0  0  0
  7 26  1  0  0  0
  7 29  1  0  0  0
  8  9  1  0  0  0
  8 22  1  0  0  0
  9 10  1  0  0  0
  9 27  2  0  0  0
 10 11  2  0  0  0
 10 15  1  0  0  0
 11 12  1  0  0  0
 11 95  1  0  0  0
 12 13  2  0  0  0
 12 96  1  0  0  0
 13 14  1  0  0  0
 13 31  1  0  0  0
 14 15  2  0  0  0
 14 97  1  0  0  0
 15 98  1  0  0  0
 16 17  2  0  0  0
 16 21  1  0  0  0
 16 31  1  0  0  0
 17 18  1  0  0  0
 17 99  1  0  0  0
 18 19  2  0  0  0
 18100  1  0  0  0
 19 20  1  0  0  0
 19 24  1  0  0  0
 20 21  2  0  0  0
 20101  1  0  0  0
 21 23  1  0  0  0
 22 28  1  0  0  0
 22 32  2  0  0  0
 26 27  1  0  0  0
 28102  1  0  0  0
 28103  1  0  0  0
 29104  1  0  0  0
 29105  1  0  0  0
 33 34  1  0  0  0
 33 66  1  0  0  0
 33 70  2  0  0  0
 34 36  1  0  0  0
 34 59  1  0  0  0
 34106  1  0  0  0
 35 44  2  0  0  0
 35 45  1  0  0  0
 35 68  1  0  0  0
 36 56  1  0  0  0
 36107  1  0  0  0
 37 39  1  0  0  0
 37 47  1  0  0  0
 37 66  1  0  0  0
 37108  1  0  0  0
 38 43  2  0  0  0
 38 46  1  0  0  0
 38 47  1  0  0  0
 39 64  1  0  0  0
 39 67  2  0  0  0
 40 52  1  0  0  0
 40 53  2  0  0  0
 40 58  1  0  0  0
 41109  1  0  0  0
 41110  1  0  0  0
 41111  1  0  0  0
 41 48  1  0  0  0
 42 43  1  0  0  0
 42 66  1  0  0  0
 42112  1  0  0  0
 42113  1  0  0  0
 43 44  1  0  0  0
 44114  1  0  0  0
 45 46  2  0  0  0
 45115  1  0  0  0
 46116  1  0  0  0
 47117  1  0  0  0
 47118  1  0  0  0
 48 56  1  0  0  0
 48 65  1  0  0  0
 48119  1  0  0  0
 49 50  1  0  0  0
 49 53  1  0  0  0
 49 64  1  0  0  0
 49120  1  0  0  0
 50 51  1  0  0  0
 50121  1  0  0  0
 50122  1  0  0  0
 51 52  1  0  0  0
 51123  1  0  0  0
 51124  1  0  0  0
 52125  1  0  0  0
 52126  1  0  0  0
 53 54  1  0  0  0
 54 55  2  0  0  0
 54127  1  0  0  0
 55 57  1  0  0  0
 55128  1  0  0  0
 56 69  2  0  0  0
 57 58  2  0  0  0
 57129  1  0  0  0
 58130  1  0  0  0
 59 60  1  0  0  0
 59 61  1  0  0  0
 59 62  1  0  0  0
 60131  1  0  0  0
 60132  1  0  0  0
 60133  1  0  0  0
 61134  1  0  0  0
 61135  1  0  0  0
 61136  1  0  0  0
 62137  1  0  0  0
 62138  1  0  0  0
 62139  1  0  0  0
 63 65  1  0  0  0
 63140  1  0  0  0
 63141  1  0  0  0
 63142  1  0  0  0
 64143  1  0  0  0
 65144  1  0  0  0
 68 82  1  0  0  0
 71 73  1  0  0  0
 71 74  2  0  0  0
 71145  1  0  0  0
 72 73  2  0  0  0
 72 84  1  0  0  0
 72146  1  0  0  0
 73 76  1  0  0  0
 74 83  1  0  0  0
 74 84  1  0  0  0
 75 80  1  0  0  0
 75147  1  0  0  0
 75148  1  0  0  0
 75149  1  0  0  0
 76 77  1  0  0  0
 76150  1  0  0  0
 76151  1  0  0  0
 77 78  1  0  0  0
 77152  1  0  0  0
 77153  1  0  0  0
 78 79  1  0  0  0
 78154  1  0  0  0
 78155  1  0  0  0
 79 82  1  0  0  0
 79156  1  0  0  0
 79157  1  0  0  0
 80 84  1  0  0  0
 80158  1  0  0  0
 80159  1  0  0  0
 81 85  1  0  0  0
 81160  1  0  0  0
 81161  1  0  0  0
 81 83  1  0  0  0
 82162  1  0  0  0
 82163  1  0  0  0
 83164  1  0  0  0
 85165  1  0  0  0
 85166  1  0  0  0
 85167  1  0  0  0
M  CHG  1  85   1
M  ISO  4   1 100  68 101  82 101  83 100
M  END
> <chiral flag>
0

> <version>
0

> <s_m_source_file>
/data/baiqing/PycharmProjects/Reinvent-master-3.2/result/LINK_invent/BTK/process_docking_weight1_custom_sum_contain_oxygen_bond_distance_aromatic_linkinvent_7_9_3/rearranged_h_0086.sdf

> <i_m_source_file_index>
93

> <r_mmod_Potential_Energy-OPLS-2005>
-200.543197631836

> <r_mmod_Stretch_Energy-OPLS-2005>
52.4662322998047

> <r_mmod_Bend_Energy-OPLS-2005>
125.599800109863

> <r_mmod_Torsional_Energy-OPLS-2005>
198.847290039062

> <r_mmod_Improper_Torsional_Energy-OPLS-2005>
2.17540335655212

> <r_mmod_Van_der_Waal_Energy-OPLS-2005>
123.619087219238

> <r_mmod_Electrostatic_Energy-OPLS-2005>
-255.819549560547

> <r_mmod_Solvation_Energy-OPLS-2005>
-466.167083740234

> <b_mmod_Minimization_Converged-OPLS-2005>
0

> <r_mmod_RMS_Derivative-OPLS-2005>
2.31029319763184

$$$$
95
                    3D
 Structure written by MMmdl.
163171  0  0  1  0            999 V2000
  -30.6405  -14.6804   20.5016 C   0  0  0  0  0  0
  -30.4292  -12.4118   19.4865 C   0  0  0  0  0  0
  -29.5172  -12.5109   18.2437 C   0  0  0  0  0  0
  -28.0357  -12.3546   18.6380 C   0  0  0  0  0  0
  -27.6500  -13.2305   19.8606 C   0  0  2  0  0  0
  -28.6878  -13.1132   20.9959 C   0  0  0  0  0  0
  -25.2546  -13.8202   20.5668 C   0  0  0  0  0  0
  -24.1815  -13.0444   20.9154 C   0  0  0  0  0  0
  -24.6398  -11.6922   20.8709 C   0  0  0  0  0  0
  -23.9060  -10.4302   21.0371 C   0  0  0  0  0  0
  -24.3609   -9.4215   21.9151 C   0  0  0  0  0  0
  -23.6283   -8.2253   22.0743 C   0  0  0  0  0  0
  -22.4270   -8.0279   21.3538 C   0  0  0  0  0  0
  -21.9897   -9.0244   20.4634 C   0  0  0  0  0  0
  -22.7225  -10.2125   20.3026 C   0  0  0  0  0  0
  -21.6865   -6.0723   22.5270 C   0  0  0  0  0  0
  -21.4029   -6.5622   23.8203 C   0  0  0  0  0  0
  -21.3669   -5.6777   24.9169 C   0  0  0  0  0  0
  -21.6040   -4.3039   24.7216 C   0  0  0  0  0  0
  -21.8829   -3.8131   23.4338 C   0  0  0  0  0  0
  -21.9209   -4.6951   22.3396 C   0  0  0  0  0  0
  -22.7829  -13.5208   21.1812 C   0  0  0  0  0  0
  -22.1666   -4.2130   21.0970 F   0  0  0  0  0  0
  -21.5631   -3.4524   25.7727 F   0  0  0  0  0  0
  -30.0009  -13.4607   20.4458 N   0  0  0  0  0  0
  -26.2976  -12.9407   20.3292 N   0  0  0  0  0  0
  -25.9337  -11.6540   20.5727 N   0  0  0  0  0  0
  -22.0483  -12.8221   22.0393 N   0  0  0  0  0  0
  -25.4265  -15.1929   20.4127 N   0  0  0  0  0  0
  -31.8037  -14.7500   20.0929 O   0  0  0  0  0  0
  -21.6643   -6.8868   21.4235 O   0  0  0  0  0  0
  -22.3488  -14.5484   20.6630 O   0  0  0  0  0  0
  -24.6246  -31.8589   23.2026 C   0  0  0  0  0  0
  -25.9097  -32.4769   23.8355 C   0  0  1  0  0  0
  -27.2119  -27.2982   20.1458 C   0  0  0  0  0  0
  -25.5913  -33.8575   24.2283 N   0  0  0  0  0  0
  -23.4230  -30.4815   21.5445 C   0  0  2  0  0  0
  -24.8717  -28.9365   20.1152 C   0  0  0  0  0  0
  -22.7494  -29.4588   22.4912 C   0  0  0  0  0  0
  -18.0309  -28.1371   22.8484 C   0  0  0  0  0  0
  -24.1485  -36.7303   23.2633 C   0  0  0  0  0  0
  -25.9654  -30.7808   21.3859 C   0  0  0  0  0  0
  -26.0387  -29.4035   20.7383 C   0  0  0  0  0  0
  -27.2131  -28.5925   20.7545 C   0  0  0  0  0  0
  -26.0447  -26.9113   19.4616 C   0  0  0  0  0  0
  -24.8777  -27.6940   19.4652 C   0  0  0  0  0  0
  -23.6423  -29.8190   20.1587 C   0  0  0  0  0  0
  -25.4112  -36.3085   24.0324 C   0  0  1  0  0  0
  -20.5916  -28.3664   23.1281 C   0  0  2  0  0  0
  -20.6795  -26.9394   22.5391 C   0  0  0  0  0  0
  -19.5748  -26.6383   21.5194 C   0  0  0  0  0  0
  -18.1949  -26.7933   22.1611 C   0  0  0  0  0  0
  -19.1568  -28.8833   23.2892 C   0  0  0  0  0  0
  -18.9487  -30.1432   23.8895 C   0  0  0  0  0  0
  -17.6479  -30.6560   24.0587 C   0  0  0  0  0  0
  -25.9046  -34.9453   23.5099 C   0  0  0  0  0  0
  -16.5371  -29.9074   23.6318 C   0  0  0  0  0  0
  -16.7301  -28.6502   23.0333 C   0  0  0  0  0  0
  -26.4490  -31.6567   25.0711 C   0  0  0  0  0  0
  -25.3728  -31.3707   26.1427 C   0  0  0  0  0  0
  -27.0338  -30.2982   24.6194 C   0  0  0  0  0  0
  -27.6057  -32.4297   25.7476 C   0  0  0  0  0  0
  -27.5588  -37.1804   24.8460 C   0  0  0  0  0  0
  -21.4204  -29.3029   22.3686 N   0  0  0  0  0  0
  -26.4298  -37.3770   23.9403 N   0  0  0  0  0  0
  -24.6894  -31.0601   22.0989 N   0  0  0  0  0  0
  -23.4226  -28.8096   23.2966 O   0  0  0  0  0  0
  -28.3016  -26.4183   20.1028 O   0  0  0  0  0  0
  -26.5599  -34.8918   22.4663 O   0  0  0  0  0  0
  -23.5407  -32.1387   23.7327 O   0  0  0  0  0  0
  -28.9831  -16.4486   21.7491 C   0  0  0  0  0  0
  -28.7728  -17.8858   21.8382 C   0  0  0  0  0  0
  -29.9587  -16.0249   20.8665 C   0  0  0  0  0  0
  -29.5729  -18.6420   20.9970 C   0  0  0  0  0  0
  -27.7971  -18.4818   22.8108 C   0  0  0  0  0  0
  -27.5163  -23.4679   22.5257 C   0  0  0  0  0  0
  -26.6277  -23.7746   20.2339 C   0  0  0  0  0  0
  -27.6050  -20.7174   19.7571 C   0  0  0  0  0  0
  -29.7692  -20.2022   20.8681 C   0  0  0  0  0  0
  -28.9646  -22.6712   20.6134 C   0  0  0  0  0  0
  -28.4499  -25.3614   21.1351 C   0  0  0  0  0  0
  -27.9151  -23.8199   21.0713 C   0  0  0  0  0  0
  -28.5948  -21.1767   20.7665 N   0  3  1  0  0  0
  -30.6128  -17.5017   20.1102 S   0  0  0  0  0  0
  -31.4717  -12.5149   19.1840 H   0  0  0  0  0  0
  -30.3524  -11.4228   19.9419 H   0  0  0  0  0  0
  -29.7905  -11.7490   17.5117 H   0  0  0  0  0  0
  -29.6723  -13.4764   17.7605 H   0  0  0  0  0  0
  -27.8666  -11.3018   18.8648 H   0  0  0  0  0  0
  -27.3908  -12.5845   17.7883 H   0  0  0  0  0  0
  -27.6637  -14.2629   19.5129 H   0  0  0  0  0  0
  -28.7064  -12.0936   21.3837 H   0  0  0  0  0  0
  -28.4234  -13.7431   21.8392 H   0  0  0  0  0  0
  -25.2761   -9.5691   22.4710 H   0  0  0  0  0  0
  -23.9993   -7.4652   22.7462 H   0  0  0  0  0  0
  -21.0827   -8.8742   19.8941 H   0  0  0  0  0  0
  -22.3661  -10.9647   19.6118 H   0  0  0  0  0  0
  -21.2012   -7.6125   23.9694 H   0  0  0  0  0  0
  -21.1487   -6.0506   25.9067 H   0  0  0  0  0  0
  -22.0606   -2.7591   23.2837 H   0  0  0  0  0  0
  -22.4108  -11.9904   22.4808 H   0  0  0  0  0  0
  -21.1082  -13.1228   22.2565 H   0  0  0  0  0  0
  -24.6648  -15.8508   20.5378 H   0  0  0  0  0  0
  -26.2879  -15.6374   20.1234 H   0  0  0  0  0  0
  -26.7169  -32.5452   23.1111 H   0  0  0  0  0  0
  -25.0056  -33.9717   25.0424 H   0  0  0  0  0  0
  -22.7193  -31.3027   21.3983 H   0  0  0  0  0  0
  -23.3742  -35.9635   23.3281 H   0  0  0  0  0  0
  -24.3591  -36.8925   22.2052 H   0  0  0  0  0  0
  -23.7242  -37.6510   23.6660 H   0  0  0  0  0  0
  -26.0994  -31.5385   20.6131 H   0  0  0  0  0  0
  -26.8458  -30.8313   22.0168 H   0  0  0  0  0  0
  -28.1085  -28.9482   21.2469 H   0  0  0  0  0  0
  -26.0276  -25.9865   18.9106 H   0  0  0  0  0  0
  -23.9973  -27.3405   18.9460 H   0  0  0  0  0  0
  -23.7700  -30.5960   19.4029 H   0  0  0  0  0  0
  -22.7628  -29.2485   19.8512 H   0  0  0  0  0  0
  -25.1303  -36.1939   25.0817 H   0  0  0  0  0  0
  -21.0060  -28.3239   24.1374 H   0  0  0  0  0  0
  -20.5634  -26.2266   23.3572 H   0  0  0  0  0  0
  -21.6670  -26.7378   22.1225 H   0  0  0  0  0  0
  -19.6871  -25.6297   21.1211 H   0  0  0  0  0  0
  -19.6695  -27.3198   20.6748 H   0  0  0  0  0  0
  -17.4232  -26.6681   21.4009 H   0  0  0  0  0  0
  -18.0348  -26.0094   22.9022 H   0  0  0  0  0  0
  -19.7972  -30.7257   24.2231 H   0  0  0  0  0  0
  -17.5029  -31.6206   24.5238 H   0  0  0  0  0  0
  -15.5365  -30.2968   23.7638 H   0  0  0  0  0  0
  -15.8699  -28.0826   22.7024 H   0  0  0  0  0  0
  -24.5914  -30.7034   25.7764 H   0  0  0  0  0  0
  -24.8887  -32.2858   26.4846 H   0  0  0  0  0  0
  -25.8043  -30.8896   27.0206 H   0  0  0  0  0  0
  -26.2909  -29.6717   24.1224 H   0  0  0  0  0  0
  -27.4022  -29.7263   25.4728 H   0  0  0  0  0  0
  -27.8801  -30.4256   23.9431 H   0  0  0  0  0  0
  -27.2677  -33.3601   26.2052 H   0  0  0  0  0  0
  -28.3864  -32.6828   25.0292 H   0  0  0  0  0  0
  -28.0721  -31.8402   26.5376 H   0  0  0  0  0  0
  -28.2597  -38.0113   24.7523 H   0  0  0  0  0  0
  -28.1093  -36.2640   24.6275 H   0  0  0  0  0  0
  -27.2295  -37.1444   25.8858 H   0  0  0  0  0  0
  -20.9333  -29.8867   21.7030 H   0  0  0  0  0  0
  -26.0176  -38.2841   24.1409 H   0  0  0  0  0  0
  -28.4273  -15.7850   22.3934 H   0  0  0  0  0  0
  -27.4113  -17.7301   23.5022 H   0  0  0  0  0  0
  -26.9372  -18.9200   22.3031 H   0  0  0  0  0  0
  -28.2635  -19.2579   23.4211 H   0  0  0  0  0  0
  -27.0724  -22.4759   22.6130 H   0  0  0  0  0  0
  -26.7762  -24.1662   22.9214 H   0  0  0  0  0  0
  -28.3779  -23.5058   23.1936 H   0  0  0  0  0  0
  -26.0846  -22.8408   20.3337 H   0  0  0  0  0  0
  -26.8313  -23.9359   19.1752 H   0  0  0  0  0  0
  -25.9237  -24.5297   20.5775 H   0  0  0  0  0  0
  -27.7456  -19.6785   19.4629 H   0  0  0  0  0  0
  -27.6495  -21.3080   18.8431 H   0  0  0  0  0  0
  -26.5938  -20.7734   20.1564 H   0  0  0  0  0  0
  -30.3920  -20.3861   19.9903 H   0  0  0  0  0  0
  -30.3745  -20.5248   21.7173 H   0  0  0  0  0  0
  -29.8698  -22.8244   21.2030 H   0  0  0  0  0  0
  -29.2758  -22.8554   19.5850 H   0  0  0  0  0  0
  -29.5200  -25.3025   21.3320 H   0  0  0  0  0  0
  -28.0572  -25.8247   22.0417 H   0  0  0  0  0  0
  -28.1347  -21.1097   21.6608 H   0  0  0  0  0  0
  1 25  1  0  0  0
  1 30  2  0  0  0
  1 73  1  0  0  0
  2  3  1  0  0  0
  2 25  1  0  0  0
  2 85  1  0  0  0
  2 86  1  0  0  0
  3  4  1  0  0  0
  3 87  1  0  0  0
  3 88  1  0  0  0
  4  5  1  0  0  0
  4 89  1  0  0  0
  4 90  1  0  0  0
  5  6  1  0  0  0
  5 26  1  0  0  0
  5 91  1  0  0  0
  6 25  1  0  0  0
  6 92  1  0  0  0
  6 93  1  0  0  0
  7  8  2  0  0  0
  7 26  1  0  0  0
  7 29  1  0  0  0
  8  9  1  0  0  0
  8 22  1  0  0  0
  9 10  1  0  0  0
  9 27  2  0  0  0
 10 11  2  0  0  0
 10 15  1  0  0  0
 11 12  1  0  0  0
 11 94  1  0  0  0
 12 13  2  0  0  0
 12 95  1  0  0  0
 13 14  1  0  0  0
 13 31  1  0  0  0
 14 15  2  0  0  0
 14 96  1  0  0  0
 15 97  1  0  0  0
 16 17  2  0  0  0
 16 21  1  0  0  0
 16 31  1  0  0  0
 17 18  1  0  0  0
 17 98  1  0  0  0
 18 19  2  0  0  0
 18 99  1  0  0  0
 19 20  1  0  0  0
 19 24  1  0  0  0
 20 21  2  0  0  0
 20100  1  0  0  0
 21 23  1  0  0  0
 22 28  1  0  0  0
 22 32  2  0  0  0
 26 27  1  0  0  0
 28101  1  0  0  0
 28102  1  0  0  0
 29103  1  0  0  0
 29104  1  0  0  0
 33 34  1  0  0  0
 33 66  1  0  0  0
 33 70  2  0  0  0
 34 36  1  0  0  0
 34 59  1  0  0  0
 34105  1  0  0  0
 35 44  2  0  0  0
 35 45  1  0  0  0
 35 68  1  0  0  0
 36 56  1  0  0  0
 36106  1  0  0  0
 37 39  1  0  0  0
 37 47  1  0  0  0
 37 66  1  0  0  0
 37107  1  0  0  0
 38 43  2  0  0  0
 38 46  1  0  0  0
 38 47  1  0  0  0
 39 64  1  0  0  0
 39 67  2  0  0  0
 40 52  1  0  0  0
 40 53  2  0  0  0
 40 58  1  0  0  0
 41108  1  0  0  0
 41109  1  0  0  0
 41110  1  0  0  0
 41 48  1  0  0  0
 42 43  1  0  0  0
 42 66  1  0  0  0
 42111  1  0  0  0
 42112  1  0  0  0
 43 44  1  0  0  0
 44113  1  0  0  0
 45 46  2  0  0  0
 45114  1  0  0  0
 46115  1  0  0  0
 47116  1  0  0  0
 47117  1  0  0  0
 48 56  1  0  0  0
 48 65  1  0  0  0
 48118  1  0  0  0
 49 50  1  0  0  0
 49 53  1  0  0  0
 49 64  1  0  0  0
 49119  1  0  0  0
 50 51  1  0  0  0
 50120  1  0  0  0
 50121  1  0  0  0
 51 52  1  0  0  0
 51122  1  0  0  0
 51123  1  0  0  0
 52124  1  0  0  0
 52125  1  0  0  0
 53 54  1  0  0  0
 54 55  2  0  0  0
 54126  1  0  0  0
 55 57  1  0  0  0
 55127  1  0  0  0
 56 69  2  0  0  0
 57 58  2  0  0  0
 57128  1  0  0  0
 58129  1  0  0  0
 59 60  1  0  0  0
 59 61  1  0  0  0
 59 62  1  0  0  0
 60130  1  0  0  0
 60131  1  0  0  0
 60132  1  0  0  0
 61133  1  0  0  0
 61134  1  0  0  0
 61135  1  0  0  0
 62136  1  0  0  0
 62137  1  0  0  0
 62138  1  0  0  0
 63 65  1  0  0  0
 63139  1  0  0  0
 63140  1  0  0  0
 63141  1  0  0  0
 64142  1  0  0  0
 65143  1  0  0  0
 68 81  1  0  0  0
 71 72  1  0  0  0
 71 73  2  0  0  0
 71144  1  0  0  0
 72 74  2  0  0  0
 72 75  1  0  0  0
 73 84  1  0  0  0
 74 79  1  0  0  0
 74 84  1  0  0  0
 75145  1  0  0  0
 75146  1  0  0  0
 75147  1  0  0  0
 76148  1  0  0  0
 76149  1  0  0  0
 76150  1  0  0  0
 76 82  1  0  0  0
 77 82  1  0  0  0
 77151  1  0  0  0
 77152  1  0  0  0
 77153  1  0  0  0
 78154  1  0  0  0
 78155  1  0  0  0
 78156  1  0  0  0
 78 83  1  0  0  0
 79 83  1  0  0  0
 79157  1  0  0  0
 79158  1  0  0  0
 80 82  1  0  0  0
 80 83  1  0  0  0
 80159  1  0  0  0
 80160  1  0  0  0
 81 82  1  0  0  0
 81161  1  0  0  0
 81162  1  0  0  0
 83163  1  0  0  0
M  CHG  1  83   1
M  ISO  4   1 100  68 101  73 100  81 101
M  END
> <chiral flag>
0

> <version>
0

> <s_m_source_file>
/data/baiqing/PycharmProjects/Reinvent-master-3.2/result/LINK_invent/BTK/process_docking_weight1_custom_sum_contain_oxygen_bond_distance_aromatic_linkinvent_7_9_3/rearranged_h_0086.sdf

> <i_m_source_file_index>
94

> <r_mmod_Potential_Energy-OPLS-2005>
105.453178405762

> <r_mmod_Stretch_Energy-OPLS-2005>
107.577026367188

> <r_mmod_Bend_Energy-OPLS-2005>
192.120178222656

> <r_mmod_Torsional_Energy-OPLS-2005>
251.452896118164

> <r_mmod_Improper_Torsional_Energy-OPLS-2005>
4.52377796173096

> <r_mmod_Van_der_Waal_Energy-OPLS-2005>
118.709571838379

> <r_mmod_Electrostatic_Energy-OPLS-2005>
-202.87712097168

> <r_mmod_Solvation_Energy-OPLS-2005>
-424.744781494141

> <b_mmod_Minimization_Converged-OPLS-2005>
0

> <r_mmod_RMS_Derivative-OPLS-2005>
3.12234807014465

$$$$
96
                    3D
 Structure written by MMmdl.
158166  0  0  1  0            999 V2000
  -30.7688  -14.3175   20.6853 C   0  0  0  0  0  0
  -30.4125  -12.2615   19.3751 C   0  0  0  0  0  0
  -29.4777  -12.5243   18.1813 C   0  0  0  0  0  0
  -27.9982  -12.3910   18.5954 C   0  0  0  0  0  0
  -27.6661  -13.1979   19.8784 C   0  0  2  0  0  0
  -28.7040  -12.9052   20.9831 C   0  0  0  0  0  0
  -25.2579  -13.8177   20.5655 C   0  0  0  0  0  0
  -24.1820  -13.0449   20.9134 C   0  0  0  0  0  0
  -24.6366  -11.6917   20.8671 C   0  0  0  0  0  0
  -23.9039  -10.4304   21.0366 C   0  0  0  0  0  0
  -24.3621   -9.4212   21.9124 C   0  0  0  0  0  0
  -23.6290   -8.2250   22.0734 C   0  0  0  0  0  0
  -22.4240   -8.0303   21.3558 C   0  0  0  0  0  0
  -21.9854   -9.0281   20.4677 C   0  0  0  0  0  0
  -22.7190  -10.2151   20.3051 C   0  0  0  0  0  0
  -21.6862   -6.0719   22.5254 C   0  0  0  0  0  0
  -21.4025   -6.5631   23.8181 C   0  0  0  0  0  0
  -21.3671   -5.6795   24.9152 C   0  0  0  0  0  0
  -21.6050   -4.3057   24.7216 C   0  0  0  0  0  0
  -21.8811   -3.8140   23.4335 C   0  0  0  0  0  0
  -21.9200   -4.6951   22.3385 C   0  0  0  0  0  0
  -22.7854  -13.5259   21.1847 C   0  0  0  0  0  0
  -22.1652   -4.2116   21.0973 F   0  0  0  0  0  0
  -21.5637   -3.4561   25.7746 F   0  0  0  0  0  0
  -30.0511  -13.1924   20.4487 N   0  0  0  0  0  0
  -26.3022  -12.9330   20.3372 N   0  0  0  0  0  0
  -25.9281  -11.6486   20.5696 N   0  0  0  0  0  0
  -22.0528  -12.8248   22.0444 N   0  0  0  0  0  0
  -25.4299  -15.1895   20.4097 N   0  0  0  0  0  0
  -31.7744  -14.6479   20.0491 O   0  0  0  0  0  0
  -21.6631   -6.8873   21.4230 O   0  0  0  0  0  0
  -22.3504  -14.5536   20.6692 O   0  0  0  0  0  0
  -24.6129  -31.8694   23.2119 C   0  0  0  0  0  0
  -25.9025  -32.4820   23.8393 C   0  0  1  0  0  0
  -27.2125  -27.4599   20.0729 C   0  0  0  0  0  0
  -25.5894  -33.8618   24.2338 N   0  0  0  0  0  0
  -23.3949  -30.4970   21.5557 C   0  0  2  0  0  0
  -24.8360  -28.9698   20.1131 C   0  0  0  0  0  0
  -22.7387  -29.4673   22.5017 C   0  0  0  0  0  0
  -18.0245  -28.1377   22.8458 C   0  0  0  0  0  0
  -24.1487  -36.7324   23.2633 C   0  0  0  0  0  0
  -25.9226  -30.8437   21.3587 C   0  0  0  0  0  0
  -25.9977  -29.4810   20.7034 C   0  0  0  0  0  0
  -27.1949  -28.7300   20.6821 C   0  0  0  0  0  0
  -26.0374  -26.9612   19.4725 C   0  0  0  0  0  0
  -24.8478  -27.7084   19.4957 C   0  0  0  0  0  0
  -23.6000  -29.8353   20.1701 C   0  0  0  0  0  0
  -25.4103  -36.3104   24.0330 C   0  0  1  0  0  0
  -20.5830  -28.3669   23.1323 C   0  0  2  0  0  0
  -20.6741  -26.9418   22.5416 C   0  0  0  0  0  0
  -19.5738  -26.6391   21.5192 C   0  0  0  0  0  0
  -18.1902  -26.7918   22.1600 C   0  0  0  0  0  0
  -19.1487  -28.8833   23.2888 C   0  0  0  0  0  0
  -18.9436  -30.1427   23.8925 C   0  0  0  0  0  0
  -17.6446  -30.6593   24.0554 C   0  0  0  0  0  0
  -25.9027  -34.9464   23.5129 C   0  0  0  0  0  0
  -16.5336  -29.9103   23.6318 C   0  0  0  0  0  0
  -16.7233  -28.6514   23.0333 C   0  0  0  0  0  0
  -26.4488  -31.6562   25.0685 C   0  0  0  0  0  0
  -25.3772  -31.3653   26.1447 C   0  0  0  0  0  0
  -27.0307  -30.3011   24.6005 C   0  0  0  0  0  0
  -27.6081  -32.4270   25.7453 C   0  0  0  0  0  0
  -27.5580  -37.1806   24.8465 C   0  0  0  0  0  0
  -21.4107  -29.3046   22.3758 N   0  0  0  0  0  0
  -26.4291  -37.3788   23.9410 N   0  0  0  0  0  0
  -24.6620  -31.0811   22.1016 N   0  0  0  0  0  0
  -23.4183  -28.8213   23.3049 O   0  0  0  0  0  0
  -28.3533  -26.6994   20.0812 O   0  0  0  0  0  0
  -26.5600  -34.8909   22.4686 O   0  0  0  0  0  0
  -23.5336  -32.1406   23.7546 O   0  0  0  0  0  0
  -29.8197  -20.5021   22.2431 C   0  0  0  0  0  0
  -29.4384  -19.5158   23.1022 C   0  0  0  0  0  0
  -30.2178  -18.3361   23.5822 C   0  0  0  0  0  0
  -29.7374  -17.0143   22.9745 C   0  0  0  0  0  0
  -28.1125  -22.8644   20.3861 C   0  0  0  0  0  0
  -28.3720  -24.2373   19.7245 C   0  0  0  0  0  0
  -28.7353  -22.7501   21.7904 C   0  0  0  0  0  0
  -30.8324  -16.3056   22.1744 C   0  0  0  0  0  0
  -28.1733  -25.4189   20.6915 C   0  0  0  0  0  0
  -28.1567  -19.8006   23.5750 N   0  0  0  0  0  0
  -27.7678  -20.9391   23.0881 N   0  0  0  0  0  0
  -28.7797  -21.4032   22.3164 N   0  0  0  0  0  0
  -30.3178  -15.0313   21.7129 N   0  0  0  0  0  0
  -31.4579  -12.3541   19.0744 H   0  0  0  0  0  0
  -30.3000  -11.2360   19.7267 H   0  0  0  0  0  0
  -29.7004  -11.8302   17.3699 H   0  0  0  0  0  0
  -29.6628  -13.5251   17.7873 H   0  0  0  0  0  0
  -27.7888  -11.3346   18.7575 H   0  0  0  0  0  0
  -27.3489  -12.6981   17.7757 H   0  0  0  0  0  0
  -27.7346  -14.2557   19.6234 H   0  0  0  0  0  0
  -28.6522  -11.8537   21.2710 H   0  0  0  0  0  0
  -28.4487  -13.4545   21.8892 H   0  0  0  0  0  0
  -25.2792   -9.5672   22.4639 H   0  0  0  0  0  0
  -24.0007   -7.4657   22.7445 H   0  0  0  0  0  0
  -21.0742   -8.8829   19.9020 H   0  0  0  0  0  0
  -22.3636  -10.9694   19.6187 H   0  0  0  0  0  0
  -21.2001   -7.6149   23.9671 H   0  0  0  0  0  0
  -21.1522   -6.0534   25.9049 H   0  0  0  0  0  0
  -22.0569   -2.7598   23.2850 H   0  0  0  0  0  0
  -22.4195  -11.9986   22.4911 H   0  0  0  0  0  0
  -21.1162  -13.1289   22.2689 H   0  0  0  0  0  0
  -24.6757  -15.8536   20.5442 H   0  0  0  0  0  0
  -26.3014  -15.6265   20.1384 H   0  0  0  0  0  0
  -26.7082  -32.5579   23.1154 H   0  0  0  0  0  0
  -25.0063  -33.9763   25.0502 H   0  0  0  0  0  0
  -22.6836  -31.3152   21.4231 H   0  0  0  0  0  0
  -23.3726  -35.9688   23.3318 H   0  0  0  0  0  0
  -24.3589  -36.8909   22.2043 H   0  0  0  0  0  0
  -23.7254  -37.6538   23.6643 H   0  0  0  0  0  0
  -26.0153  -31.6102   20.5899 H   0  0  0  0  0  0
  -26.8191  -30.9034   21.9631 H   0  0  0  0  0  0
  -28.0922  -29.1125   21.1472 H   0  0  0  0  0  0
  -26.0373  -25.9927   18.9950 H   0  0  0  0  0  0
  -23.9522  -27.3080   19.0415 H   0  0  0  0  0  0
  -23.7153  -30.6152   19.4188 H   0  0  0  0  0  0
  -22.7211  -29.2629   19.8658 H   0  0  0  0  0  0
  -25.1264  -36.1965   25.0826 H   0  0  0  0  0  0
  -20.9854  -28.3222   24.1467 H   0  0  0  0  0  0
  -20.5610  -26.2286   23.3593 H   0  0  0  0  0  0
  -21.6624  -26.7469   22.1239 H   0  0  0  0  0  0
  -19.6937  -25.6302   21.1214 H   0  0  0  0  0  0
  -19.6685  -27.3217   20.6731 H   0  0  0  0  0  0
  -17.4169  -26.6603   21.4015 H   0  0  0  0  0  0
  -18.0352  -26.0072   22.9017 H   0  0  0  0  0  0
  -19.7923  -30.7173   24.2360 H   0  0  0  0  0  0
  -17.5037  -31.6277   24.5136 H   0  0  0  0  0  0
  -15.5351  -30.3036   23.7625 H   0  0  0  0  0  0
  -15.8617  -28.0844   22.7076 H   0  0  0  0  0  0
  -24.5956  -30.6987   25.7784 H   0  0  0  0  0  0
  -24.8965  -32.2811   26.4907 H   0  0  0  0  0  0
  -25.8141  -30.8813   27.0190 H   0  0  0  0  0  0
  -26.2826  -29.6778   24.1092 H   0  0  0  0  0  0
  -27.4133  -29.7220   25.4416 H   0  0  0  0  0  0
  -27.8642  -30.4346   23.9101 H   0  0  0  0  0  0
  -27.2707  -33.3546   26.2112 H   0  0  0  0  0  0
  -28.3883  -32.6859   25.0269 H   0  0  0  0  0  0
  -28.0787  -31.8336   26.5309 H   0  0  0  0  0  0
  -28.2590  -38.0106   24.7490 H   0  0  0  0  0  0
  -28.1067  -36.2621   24.6314 H   0  0  0  0  0  0
  -27.2300  -37.1481   25.8869 H   0  0  0  0  0  0
  -20.9260  -29.8804   21.7008 H   0  0  0  0  0  0
  -26.0168  -38.2867   24.1420 H   0  0  0  0  0  0
  -30.7306  -20.6735   21.6802 H   0  0  0  0  0  0
  -30.1455  -18.2692   24.6672 H   0  0  0  0  0  0
  -31.2799  -18.4853   23.3799 H   0  0  0  0  0  0
  -28.8611  -17.1748   22.3407 H   0  0  0  0  0  0
  -29.3995  -16.3635   23.7812 H   0  0  0  0  0  0
  -28.5003  -22.0784   19.7373 H   0  0  0  0  0  0
  -27.0376  -22.6887   20.4590 H   0  0  0  0  0  0
  -27.7140  -24.3350   18.8590 H   0  0  0  0  0  0
  -29.3888  -24.2614   19.3332 H   0  0  0  0  0  0
  -28.1835  -23.3691   22.4994 H   0  0  0  0  0  0
  -29.7565  -23.1318   21.7855 H   0  0  0  0  0  0
  -31.7160  -16.1340   22.7929 H   0  0  0  0  0  0
  -31.1385  -16.9257   21.3285 H   0  0  0  0  0  0
  -28.9034  -25.3708   21.4972 H   0  0  0  0  0  0
  -27.2012  -25.3193   21.1797 H   0  0  0  0  0  0
  -29.5179  -14.6513   22.1963 H   0  0  0  0  0  0
  1 25  1  0  0  0
  1 30  2  0  0  0
  1 83  1  0  0  0
  2  3  1  0  0  0
  2 25  1  0  0  0
  2 84  1  0  0  0
  2 85  1  0  0  0
  3  4  1  0  0  0
  3 86  1  0  0  0
  3 87  1  0  0  0
  4  5  1  0  0  0
  4 88  1  0  0  0
  4 89  1  0  0  0
  5  6  1  0  0  0
  5 26  1  0  0  0
  5 90  1  0  0  0
  6 25  1  0  0  0
  6 91  1  0  0  0
  6 92  1  0  0  0
  7  8  2  0  0  0
  7 26  1  0  0  0
  7 29  1  0  0  0
  8  9  1  0  0  0
  8 22  1  0  0  0
  9 10  1  0  0  0
  9 27  2  0  0  0
 10 11  2  0  0  0
 10 15  1  0  0  0
 11 12  1  0  0  0
 11 93  1  0  0  0
 12 13  2  0  0  0
 12 94  1  0  0  0
 13 14  1  0  0  0
 13 31  1  0  0  0
 14 15  2  0  0  0
 14 95  1  0  0  0
 15 96  1  0  0  0
 16 17  2  0  0  0
 16 21  1  0  0  0
 16 31  1  0  0  0
 17 18  1  0  0  0
 17 97  1  0  0  0
 18 19  2  0  0  0
 18 98  1  0  0  0
 19 20  1  0  0  0
 19 24  1  0  0  0
 20 21  2  0  0  0
 20 99  1  0  0  0
 21 23  1  0  0  0
 22 28  1  0  0  0
 22 32  2  0  0  0
 26 27  1  0  0  0
 28100  1  0  0  0
 28101  1  0  0  0
 29102  1  0  0  0
 29103  1  0  0  0
 33 34  1  0  0  0
 33 66  1  0  0  0
 33 70  2  0  0  0
 34 36  1  0  0  0
 34 59  1  0  0  0
 34104  1  0  0  0
 35 44  2  0  0  0
 35 45  1  0  0  0
 35 68  1  0  0  0
 36 56  1  0  0  0
 36105  1  0  0  0
 37 39  1  0  0  0
 37 47  1  0  0  0
 37 66  1  0  0  0
 37106  1  0  0  0
 38 43  2  0  0  0
 38 46  1  0  0  0
 38 47  1  0  0  0
 39 64  1  0  0  0
 39 67  2  0  0  0
 40 52  1  0  0  0
 40 53  2  0  0  0
 40 58  1  0  0  0
 41107  1  0  0  0
 41108  1  0  0  0
 41109  1  0  0  0
 41 48  1  0  0  0
 42 43  1  0  0  0
 42 66  1  0  0  0
 42110  1  0  0  0
 42111  1  0  0  0
 43 44  1  0  0  0
 44112  1  0  0  0
 45 46  2  0  0  0
 45113  1  0  0  0
 46114  1  0  0  0
 47115  1  0  0  0
 47116  1  0  0  0
 48 56  1  0  0  0
 48 65  1  0  0  0
 48117  1  0  0  0
 49 50  1  0  0  0
 49 53  1  0  0  0
 49 64  1  0  0  0
 49118  1  0  0  0
 50 51  1  0  0  0
 50119  1  0  0  0
 50120  1  0  0  0
 51 52  1  0  0  0
 51121  1  0  0  0
 51122  1  0  0  0
 52123  1  0  0  0
 52124  1  0  0  0
 53 54  1  0  0  0
 54 55  2  0  0  0
 54125  1  0  0  0
 55 57  1  0  0  0
 55126  1  0  0  0
 56 69  2  0  0  0
 57 58  2  0  0  0
 57127  1  0  0  0
 58128  1  0  0  0
 59 60  1  0  0  0
 59 61  1  0  0  0
 59 62  1  0  0  0
 60129  1  0  0  0
 60130  1  0  0  0
 60131  1  0  0  0
 61132  1  0  0  0
 61133  1  0  0  0
 61134  1  0  0  0
 62135  1  0  0  0
 62136  1  0  0  0
 62137  1  0  0  0
 63 65  1  0  0  0
 63138  1  0  0  0
 63139  1  0  0  0
 63140  1  0  0  0
 64141  1  0  0  0
 65142  1  0  0  0
 68 79  1  0  0  0
 71 72  2  0  0  0
 71 82  1  0  0  0
 71143  1  0  0  0
 72 73  1  0  0  0
 72 80  1  0  0  0
 73 74  1  0  0  0
 73144  1  0  0  0
 73145  1  0  0  0
 74 78  1  0  0  0
 74146  1  0  0  0
 74147  1  0  0  0
 75 76  1  0  0  0
 75 77  1  0  0  0
 75148  1  0  0  0
 75149  1  0  0  0
 76 79  1  0  0  0
 76150  1  0  0  0
 76151  1  0  0  0
 77 82  1  0  0  0
 77152  1  0  0  0
 77153  1  0  0  0
 78 83  1  0  0  0
 78154  1  0  0  0
 78155  1  0  0  0
 79156  1  0  0  0
 79157  1  0  0  0
 80 81  2  0  0  0
 81 82  1  0  0  0
 83158  1  0  0  0
M  ISO  4   1 100  68 101  79 101  83 100
M  END
> <chiral flag>
0

> <version>
0

> <s_m_source_file>
/data/baiqing/PycharmProjects/Reinvent-master-3.2/result/LINK_invent/BTK/process_docking_weight1_custom_sum_contain_oxygen_bond_distance_aromatic_linkinvent_7_9_3/rearranged_h_0086.sdf

> <i_m_source_file_index>
95

> <r_mmod_Potential_Energy-OPLS-2005>
-119.607383728027

> <r_mmod_Stretch_Energy-OPLS-2005>
29.3657341003418

> <r_mmod_Bend_Energy-OPLS-2005>
86.7303619384766

> <r_mmod_Torsional_Energy-OPLS-2005>
233.966247558594

> <r_mmod_Improper_Torsional_Energy-OPLS-2005>
2.26325583457947

> <r_mmod_Van_der_Waal_Energy-OPLS-2005>
136.485488891602

> <r_mmod_Electrostatic_Energy-OPLS-2005>
-393.947021484375

> <r_mmod_Solvation_Energy-OPLS-2005>
-223.101684570312

> <b_mmod_Minimization_Converged-OPLS-2005>
0

> <r_mmod_RMS_Derivative-OPLS-2005>
4.2758002281189

$$$$
97
                    3D
 Structure written by MMmdl.
173181  0  0  1  0            999 V2000
  -30.5225  -14.9892   20.4212 C   0  0  0  0  0  0
  -30.4384  -12.6205   19.4957 C   0  0  0  0  0  0
  -29.5211  -12.5421   18.2536 C   0  0  0  0  0  0
  -28.0556  -12.3154   18.6717 C   0  0  0  0  0  0
  -27.6245  -13.2511   19.8308 C   0  0  2  0  0  0
  -28.6635  -13.2979   20.9683 C   0  0  0  0  0  0
  -25.2463  -13.8226   20.5706 C   0  0  0  0  0  0
  -24.1784  -13.0444   20.9220 C   0  0  0  0  0  0
  -24.6408  -11.6932   20.8737 C   0  0  0  0  0  0
  -23.9094  -10.4300   21.0401 C   0  0  0  0  0  0
  -24.3640   -9.4215   21.9172 C   0  0  0  0  0  0
  -23.6322   -8.2245   22.0745 C   0  0  0  0  0  0
  -22.4299   -8.0278   21.3538 C   0  0  0  0  0  0
  -21.9937   -9.0246   20.4629 C   0  0  0  0  0  0
  -22.7270  -10.2133   20.3049 C   0  0  0  0  0  0
  -21.6860   -6.0744   22.5278 C   0  0  0  0  0  0
  -21.4013   -6.5641   23.8214 C   0  0  0  0  0  0
  -21.3664   -5.6792   24.9171 C   0  0  0  0  0  0
  -21.6050   -4.3056   24.7218 C   0  0  0  0  0  0
  -21.8825   -3.8150   23.4335 C   0  0  0  0  0  0
  -21.9206   -4.6971   22.3399 C   0  0  0  0  0  0
  -22.7799  -13.5201   21.1885 C   0  0  0  0  0  0
  -22.1672   -4.2157   21.0974 F   0  0  0  0  0  0
  -21.5637   -3.4539   25.7736 F   0  0  0  0  0  0
  -29.9327  -13.7234   20.3662 N   0  0  0  0  0  0
  -26.2866  -12.9457   20.3207 N   0  0  0  0  0  0
  -25.9326  -11.6586   20.5685 N   0  0  0  0  0  0
  -22.0468  -12.8164   22.0437 N   0  0  0  0  0  0
  -25.4139  -15.1954   20.4126 N   0  0  0  0  0  0
  -31.7332  -15.0425   20.1771 O   0  0  0  0  0  0
  -21.6649   -6.8882   21.4242 O   0  0  0  0  0  0
  -22.3469  -14.5502   20.6738 O   0  0  0  0  0  0
  -24.6469  -31.8410   23.1852 C   0  0  0  0  0  0
  -25.9223  -32.4678   23.8257 C   0  0  1  0  0  0
  -27.2141  -27.1006   20.1635 C   0  0  0  0  0  0
  -25.5958  -33.8488   24.2175 N   0  0  0  0  0  0
  -23.4517  -30.4569   21.5326 C   0  0  2  0  0  0
  -24.9006  -28.8728   20.1155 C   0  0  0  0  0  0
  -22.7576  -29.4529   22.4877 C   0  0  0  0  0  0
  -18.0300  -28.1392   22.8483 C   0  0  0  0  0  0
  -24.1494  -36.7252   23.2643 C   0  0  0  0  0  0
  -26.0098  -30.7041   21.3868 C   0  0  0  0  0  0
  -26.0794  -29.3089   20.7339 C   0  0  0  0  0  0
  -27.2383  -28.4416   20.7346 C   0  0  0  0  0  0
  -26.0101  -26.7699   19.5072 C   0  0  0  0  0  0
  -24.8807  -27.6190   19.4847 C   0  0  0  0  0  0
  -23.6796  -29.7805   20.1541 C   0  0  0  0  0  0
  -25.4127  -36.3024   24.0314 C   0  0  1  0  0  0
  -20.5916  -28.3722   23.1238 C   0  0  2  0  0  0
  -20.6792  -26.9426   22.5407 C   0  0  0  0  0  0
  -19.5762  -26.6384   21.5216 C   0  0  0  0  0  0
  -18.1943  -26.7935   22.1622 C   0  0  0  0  0  0
  -19.1561  -28.8877   23.2851 C   0  0  0  0  0  0
  -18.9473  -30.1479   23.8873 C   0  0  0  0  0  0
  -17.6467  -30.6597   24.0554 C   0  0  0  0  0  0
  -25.9081  -34.9397   23.5058 C   0  0  0  0  0  0
  -16.5359  -29.9088   23.6332 C   0  0  0  0  0  0
  -16.7285  -28.6504   23.0361 C   0  0  0  0  0  0
  -26.4534  -31.6551   25.0712 C   0  0  0  0  0  0
  -25.3707  -31.3736   26.1397 C   0  0  0  0  0  0
  -27.0400  -30.2944   24.6300 C   0  0  0  0  0  0
  -27.6065  -32.4315   25.7499 C   0  0  0  0  0  0
  -27.5578  -37.1784   24.8465 C   0  0  0  0  0  0
  -21.4269  -29.3043   22.3622 N   0  0  0  0  0  0
  -26.4288  -37.3743   23.9410 N   0  0  0  0  0  0
  -24.7238  -31.0229   22.0900 N   0  0  0  0  0  0
  -23.4209  -28.8083   23.3044 O   0  0  0  0  0  0
  -28.2766  -26.1180   20.1808 O   0  0  0  0  0  0
  -26.5673  -34.8898   22.4640 O   0  0  0  0  0  0
  -23.5577  -32.1299   23.7044 O   0  0  0  0  0  0
  -29.6036  -24.0597   18.5055 C   0  0  0  0  0  0
  -28.9883  -23.4342   19.6151 C   0  0  0  0  0  0
  -30.4942  -23.4035   17.6342 C   0  0  0  0  0  0
  -29.2964  -21.9430   19.7418 C   0  0  0  0  0  0
  -30.7709  -22.0503   17.8964 C   0  0  0  0  0  0
  -33.1623  -21.2361   17.7478 C   0  0  0  0  0  0
  -31.4140  -25.6315   16.7131 C   0  0  0  0  0  0
  -30.2342  -23.9895   15.1935 C   0  0  0  0  0  0
  -29.6355  -20.9988   22.1074 C   0  0  0  0  0  0
  -30.7485  -17.9396   22.0314 C   0  0  0  0  0  0
  -28.0715  -24.5653   20.3890 C   0  0  0  0  0  0
  -31.7696  -21.2173   17.1032 C   0  0  0  0  0  0
  -28.9884  -19.0257   20.3524 C   0  0  0  0  0  0
  -31.1144  -24.1458   16.4426 C   0  0  0  0  0  0
  -28.9558  -20.7128   20.7636 C   0  0  2  0  0  0
  -30.0884  -17.7455   20.6579 C   0  0  2  0  0  0
  -30.1973  -21.3854   18.9069 N   0  0  0  0  0  0
  -29.7413  -16.1851   20.5571 N   0  0  0  0  0  0
  -31.4692  -12.7913   19.1815 H   0  0  0  0  0  0
  -30.4416  -11.6718   20.0341 H   0  0  0  0  0  0
  -29.8487  -11.7447   17.5861 H   0  0  0  0  0  0
  -29.5995  -13.4692   17.6831 H   0  0  0  0  0  0
  -27.9596  -11.2740   18.9807 H   0  0  0  0  0  0
  -27.3934  -12.4398   17.8140 H   0  0  0  0  0  0
  -27.5801  -14.2483   19.3926 H   0  0  0  0  0  0
  -28.7621  -12.3270   21.4550 H   0  0  0  0  0  0
  -28.3522  -14.0043   21.7405 H   0  0  0  0  0  0
  -25.2790   -9.5690   22.4740 H   0  0  0  0  0  0
  -24.0043   -7.4634   22.7463 H   0  0  0  0  0  0
  -21.0877   -8.8756   19.8920 H   0  0  0  0  0  0
  -22.3729  -10.9661   19.6148 H   0  0  0  0  0  0
  -21.1985   -7.6145   23.9718 H   0  0  0  0  0  0
  -21.1489   -6.0513   25.9077 H   0  0  0  0  0  0
  -22.0604   -2.7612   23.2831 H   0  0  0  0  0  0
  -22.4120  -11.9837   22.4827 H   0  0  0  0  0  0
  -21.1055  -13.1122   22.2621 H   0  0  0  0  0  0
  -24.6461  -15.8485   20.5233 H   0  0  0  0  0  0
  -26.2526  -15.6315   20.0527 H   0  0  0  0  0  0
  -26.7294  -32.5273   23.0986 H   0  0  0  0  0  0
  -25.0076  -33.9605   25.0302 H   0  0  0  0  0  0
  -22.7553  -31.2836   21.3745 H   0  0  0  0  0  0
  -23.3767  -35.9573   23.3284 H   0  0  0  0  0  0
  -24.3576  -36.8909   22.2062 H   0  0  0  0  0  0
  -23.7238  -37.6434   23.6700 H   0  0  0  0  0  0
  -26.1641  -31.4529   20.6084 H   0  0  0  0  0  0
  -26.8805  -30.7597   22.0285 H   0  0  0  0  0  0
  -28.1420  -28.7752   21.2274 H   0  0  0  0  0  0
  -25.9234  -25.8149   19.0099 H   0  0  0  0  0  0
  -23.9839  -27.2833   18.9832 H   0  0  0  0  0  0
  -23.8186  -30.5516   19.3962 H   0  0  0  0  0  0
  -22.7937  -29.2238   19.8455 H   0  0  0  0  0  0
  -25.1319  -36.1854   25.0808 H   0  0  0  0  0  0
  -20.9988  -28.3314   24.1364 H   0  0  0  0  0  0
  -20.5691  -26.2336   23.3632 H   0  0  0  0  0  0
  -21.6660  -26.7445   22.1202 H   0  0  0  0  0  0
  -19.6931  -25.6291   21.1264 H   0  0  0  0  0  0
  -19.6699  -27.3183   20.6741 H   0  0  0  0  0  0
  -17.4216  -26.6678   21.4023 H   0  0  0  0  0  0
  -18.0335  -26.0084   22.9024 H   0  0  0  0  0  0
  -19.7948  -30.7305   24.2226 H   0  0  0  0  0  0
  -17.5018  -31.6267   24.5172 H   0  0  0  0  0  0
  -15.5355  -30.2975   23.7682 H   0  0  0  0  0  0
  -15.8684  -28.0813   22.7091 H   0  0  0  0  0  0
  -24.5913  -30.7058   25.7711 H   0  0  0  0  0  0
  -24.8864  -32.2910   26.4752 H   0  0  0  0  0  0
  -25.7985  -30.8959   27.0217 H   0  0  0  0  0  0
  -26.3021  -29.6659   24.1304 H   0  0  0  0  0  0
  -27.4006  -29.7254   25.4877 H   0  0  0  0  0  0
  -27.8927  -30.4180   23.9621 H   0  0  0  0  0  0
  -27.2677  -33.3650   26.1995 H   0  0  0  0  0  0
  -28.3917  -32.6806   25.0352 H   0  0  0  0  0  0
  -28.0678  -31.8482   26.5474 H   0  0  0  0  0  0
  -28.2580  -38.0094   24.7523 H   0  0  0  0  0  0
  -28.1089  -36.2625   24.6283 H   0  0  0  0  0  0
  -27.2293  -37.1416   25.8864 H   0  0  0  0  0  0
  -20.9498  -29.8737   21.6774 H   0  0  0  0  0  0
  -26.0152  -38.2813   24.1409 H   0  0  0  0  0  0
  -29.3833  -25.0977   18.3157 H   0  0  0  0  0  0
  -33.8508  -20.5837   17.2126 H   0  0  0  0  0  0
  -33.1165  -20.8977   18.7831 H   0  0  0  0  0  0
  -33.5810  -22.2423   17.7461 H   0  0  0  0  0  0
  -32.0197  -25.7596   17.6102 H   0  0  0  0  0  0
  -30.5098  -26.2293   16.8241 H   0  0  0  0  0  0
  -31.9736  -26.0670   15.8841 H   0  0  0  0  0  0
  -30.0911  -22.9401   14.9345 H   0  0  0  0  0  0
  -30.6867  -24.4782   14.3304 H   0  0  0  0  0  0
  -29.2469  -24.4301   15.3411 H   0  0  0  0  0  0
  -29.3552  -21.9852   22.4765 H   0  0  0  0  0  0
  -30.7199  -20.9967   22.0031 H   0  0  0  0  0  0
  -29.3481  -20.2709   22.8654 H   0  0  0  0  0  0
  -31.3031  -18.8734   22.0757 H   0  0  0  0  0  0
  -31.4726  -17.1546   22.2492 H   0  0  0  0  0  0
  -30.0098  -17.9388   22.8331 H   0  0  0  0  0  0
  -28.1973  -24.3825   21.4563 H   0  0  0  0  0  0
  -27.0334  -24.3090   20.1851 H   0  0  0  0  0  0
  -31.8214  -21.5354   16.0629 H   0  0  0  0  0  0
  -31.4151  -20.1862   17.0629 H   0  0  0  0  0  0
  -28.7210  -18.9696   19.2968 H   0  0  0  0  0  0
  -28.0891  -18.6583   20.8475 H   0  0  0  0  0  0
  -32.0860  -23.6996   16.2297 H   0  0  0  0  0  0
  -27.8942  -20.8938   20.9440 H   0  0  0  0  0  0
  -30.8846  -17.8842   19.9250 H   0  0  0  0  0  0
  -28.7591  -15.9857   20.6720 H   0  0  0  0  0  0
  1 25  1  0  0  0
  1 30  2  0  0  0
  1 88  1  0  0  0
  2  3  1  0  0  0
  2 25  1  0  0  0
  2 89  1  0  0  0
  2 90  1  0  0  0
  3  4  1  0  0  0
  3 91  1  0  0  0
  3 92  1  0  0  0
  4  5  1  0  0  0
  4 93  1  0  0  0
  4 94  1  0  0  0
  5  6  1  0  0  0
  5 26  1  0  0  0
  5 95  1  0  0  0
  6 25  1  0  0  0
  6 96  1  0  0  0
  6 97  1  0  0  0
  7  8  2  0  0  0
  7 26  1  0  0  0
  7 29  1  0  0  0
  8  9  1  0  0  0
  8 22  1  0  0  0
  9 10  1  0  0  0
  9 27  2  0  0  0
 10 11  2  0  0  0
 10 15  1  0  0  0
 11 12  1  0  0  0
 11 98  1  0  0  0
 12 13  2  0  0  0
 12 99  1  0  0  0
 13 14  1  0  0  0
 13 31  1  0  0  0
 14 15  2  0  0  0
 14100  1  0  0  0
 15101  1  0  0  0
 16 17  2  0  0  0
 16 21  1  0  0  0
 16 31  1  0  0  0
 17 18  1  0  0  0
 17102  1  0  0  0
 18 19  2  0  0  0
 18103  1  0  0  0
 19 20  1  0  0  0
 19 24  1  0  0  0
 20 21  2  0  0  0
 20104  1  0  0  0
 21 23  1  0  0  0
 22 28  1  0  0  0
 22 32  2  0  0  0
 26 27  1  0  0  0
 28105  1  0  0  0
 28106  1  0  0  0
 29107  1  0  0  0
 29108  1  0  0  0
 33 34  1  0  0  0
 33 66  1  0  0  0
 33 70  2  0  0  0
 34 36  1  0  0  0
 34 59  1  0  0  0
 34109  1  0  0  0
 35 44  2  0  0  0
 35 45  1  0  0  0
 35 68  1  0  0  0
 36 56  1  0  0  0
 36110  1  0  0  0
 37 39  1  0  0  0
 37 47  1  0  0  0
 37 66  1  0  0  0
 37111  1  0  0  0
 38 43  2  0  0  0
 38 46  1  0  0  0
 38 47  1  0  0  0
 39 64  1  0  0  0
 39 67  2  0  0  0
 40 52  1  0  0  0
 40 53  2  0  0  0
 40 58  1  0  0  0
 41112  1  0  0  0
 41113  1  0  0  0
 41114  1  0  0  0
 41 48  1  0  0  0
 42 43  1  0  0  0
 42 66  1  0  0  0
 42115  1  0  0  0
 42116  1  0  0  0
 43 44  1  0  0  0
 44117  1  0  0  0
 45 46  2  0  0  0
 45118  1  0  0  0
 46119  1  0  0  0
 47120  1  0  0  0
 47121  1  0  0  0
 48 56  1  0  0  0
 48 65  1  0  0  0
 48122  1  0  0  0
 49 50  1  0  0  0
 49 53  1  0  0  0
 49 64  1  0  0  0
 49123  1  0  0  0
 50 51  1  0  0  0
 50124  1  0  0  0
 50125  1  0  0  0
 51 52  1  0  0  0
 51126  1  0  0  0
 51127  1  0  0  0
 52128  1  0  0  0
 52129  1  0  0  0
 53 54  1  0  0  0
 54 55  2  0  0  0
 54130  1  0  0  0
 55 57  1  0  0  0
 55131  1  0  0  0
 56 69  2  0  0  0
 57 58  2  0  0  0
 57132  1  0  0  0
 58133  1  0  0  0
 59 60  1  0  0  0
 59 61  1  0  0  0
 59 62  1  0  0  0
 60134  1  0  0  0
 60135  1  0  0  0
 60136  1  0  0  0
 61137  1  0  0  0
 61138  1  0  0  0
 61139  1  0  0  0
 62140  1  0  0  0
 62141  1  0  0  0
 62142  1  0  0  0
 63 65  1  0  0  0
 63143  1  0  0  0
 63144  1  0  0  0
 63145  1  0  0  0
 64146  1  0  0  0
 65147  1  0  0  0
 68 81  1  0  0  0
 71 72  2  0  0  0
 71 73  1  0  0  0
 71148  1  0  0  0
 72 74  1  0  0  0
 72 81  1  0  0  0
 73 75  2  0  0  0
 73 84  1  0  0  0
 74 85  1  0  0  0
 74 87  2  0  0  0
 75 82  1  0  0  0
 75 87  1  0  0  0
 76 82  1  0  0  0
 76149  1  0  0  0
 76150  1  0  0  0
 76151  1  0  0  0
 77152  1  0  0  0
 77153  1  0  0  0
 77154  1  0  0  0
 77 84  1  0  0  0
 78 84  1  0  0  0
 78155  1  0  0  0
 78156  1  0  0  0
 78157  1  0  0  0
 79158  1  0  0  0
 79159  1  0  0  0
 79160  1  0  0  0
 79 85  1  0  0  0
 80161  1  0  0  0
 80162  1  0  0  0
 80163  1  0  0  0
 80 86  1  0  0  0
 81164  1  0  0  0
 81165  1  0  0  0
 82166  1  0  0  0
 82167  1  0  0  0
 83 85  1  0  0  0
 83 86  1  0  0  0
 83168  1  0  0  0
 83169  1  0  0  0
 84170  1  0  0  0
 85171  1  0  0  0
 86 88  1  0  0  0
 86172  1  0  0  0
 88173  1  0  0  0
M  ISO  4   1 100  68 101  81 101  88 100
M  END
> <chiral flag>
0

> <version>
0

> <s_m_source_file>
/data/baiqing/PycharmProjects/Reinvent-master-3.2/result/LINK_invent/BTK/process_docking_weight1_custom_sum_contain_oxygen_bond_distance_aromatic_linkinvent_7_9_3/rearranged_h_0086.sdf

> <i_m_source_file_index>
96

> <r_mmod_Potential_Energy-OPLS-2005>
534.928405761719

> <r_mmod_Stretch_Energy-OPLS-2005>
326.148864746094

> <r_mmod_Bend_Energy-OPLS-2005>
355.821411132812

> <r_mmod_Torsional_Energy-OPLS-2005>
231.816589355469

> <r_mmod_Improper_Torsional_Energy-OPLS-2005>
4.38658237457275

> <r_mmod_Van_der_Waal_Energy-OPLS-2005>
129.070053100586

> <r_mmod_Electrostatic_Energy-OPLS-2005>
-522.03662109375

> <r_mmod_Solvation_Energy-OPLS-2005>
-209.960205078125

> <b_mmod_Minimization_Converged-OPLS-2005>
0

> <r_mmod_RMS_Derivative-OPLS-2005>
1.86089718341827

$$$$
98
                    3D
 Structure written by MMmdl.
181189  0  0  1  0            999 V2000
  -30.7533  -14.3965   20.6724 C   0  0  0  0  0  0
  -30.4161  -12.3087   19.3934 C   0  0  0  0  0  0
  -29.4803  -12.5254   18.1900 C   0  0  0  0  0  0
  -28.0063  -12.3757   18.6106 C   0  0  0  0  0  0
  -27.6611  -13.2044   19.8761 C   0  0  2  0  0  0
  -28.7005  -12.9588   20.9903 C   0  0  0  0  0  0
  -25.2573  -13.8157   20.5673 C   0  0  0  0  0  0
  -24.1823  -13.0440   20.9163 C   0  0  0  0  0  0
  -24.6371  -11.6905   20.8723 C   0  0  0  0  0  0
  -23.9032  -10.4295   21.0394 C   0  0  0  0  0  0
  -24.3591   -9.4220   21.9176 C   0  0  0  0  0  0
  -23.6278   -8.2252   22.0754 C   0  0  0  0  0  0
  -22.4264   -8.0273   21.3542 C   0  0  0  0  0  0
  -21.9885   -9.0243   20.4647 C   0  0  0  0  0  0
  -22.7198  -10.2130   20.3052 C   0  0  0  0  0  0
  -21.6855   -6.0725   22.5276 C   0  0  0  0  0  0
  -21.4016   -6.5635   23.8208 C   0  0  0  0  0  0
  -21.3662   -5.6790   24.9171 C   0  0  0  0  0  0
  -21.6044   -4.3052   24.7226 C   0  0  0  0  0  0
  -21.8819   -3.8142   23.4350 C   0  0  0  0  0  0
  -21.9193   -4.6954   22.3403 C   0  0  0  0  0  0
  -22.7848  -13.5241   21.1842 C   0  0  0  0  0  0
  -22.1661   -4.2140   21.0980 F   0  0  0  0  0  0
  -21.5631   -3.4538   25.7744 F   0  0  0  0  0  0
  -30.0370  -13.2639   20.4451 N   0  0  0  0  0  0
  -26.3013  -12.9330   20.3364 N   0  0  0  0  0  0
  -25.9295  -11.6487   20.5740 N   0  0  0  0  0  0
  -22.0493  -12.8240   22.0407 N   0  0  0  0  0  0
  -25.4304  -15.1875   20.4113 N   0  0  0  0  0  0
  -31.8061  -14.6605   20.0847 O   0  0  0  0  0  0
  -21.6640   -6.8861   21.4235 O   0  0  0  0  0  0
  -22.3543  -14.5558   20.6698 O   0  0  0  0  0  0
  -24.6139  -31.8709   23.2120 C   0  0  0  0  0  0
  -25.9040  -32.4837   23.8404 C   0  0  1  0  0  0
  -27.2267  -27.4405   20.0913 C   0  0  0  0  0  0
  -25.5913  -33.8631   24.2339 N   0  0  0  0  0  0
  -23.4008  -30.4944   21.5535 C   0  0  2  0  0  0
  -24.8449  -28.9681   20.1111 C   0  0  0  0  0  0
  -22.7395  -29.4667   22.4999 C   0  0  0  0  0  0
  -18.0268  -28.1352   22.8461 C   0  0  0  0  0  0
  -24.1504  -36.7315   23.2637 C   0  0  0  0  0  0
  -25.9299  -30.8357   21.3683 C   0  0  0  0  0  0
  -26.0073  -29.4736   20.7088 C   0  0  0  0  0  0
  -27.2027  -28.7188   20.6930 C   0  0  0  0  0  0
  -26.0491  -26.9569   19.4755 C   0  0  0  0  0  0
  -24.8610  -27.7083   19.4901 C   0  0  0  0  0  0
  -23.6070  -29.8329   20.1659 C   0  0  0  0  0  0
  -25.4125  -36.3121   24.0332 C   0  0  1  0  0  0
  -20.5852  -28.3645   23.1303 C   0  0  2  0  0  0
  -20.6766  -26.9386   22.5404 C   0  0  0  0  0  0
  -19.5762  -26.6362   21.5186 C   0  0  0  0  0  0
  -18.1927  -26.7893   22.1587 C   0  0  0  0  0  0
  -19.1510  -28.8815   23.2880 C   0  0  0  0  0  0
  -18.9452  -30.1415   23.8899 C   0  0  0  0  0  0
  -17.6462  -30.6569   24.0548 C   0  0  0  0  0  0
  -25.9040  -34.9488   23.5133 C   0  0  0  0  0  0
  -16.5348  -29.9069   23.6326 C   0  0  0  0  0  0
  -16.7256  -28.6480   23.0345 C   0  0  0  0  0  0
  -26.4468  -31.6610   25.0723 C   0  0  0  0  0  0
  -25.3725  -31.3712   26.1468 C   0  0  0  0  0  0
  -27.0304  -30.3058   24.6085 C   0  0  0  0  0  0
  -27.6063  -32.4318   25.7481 C   0  0  0  0  0  0
  -27.5596  -37.1810   24.8458 C   0  0  0  0  0  0
  -21.4121  -29.3020   22.3725 N   0  0  0  0  0  0
  -26.4314  -37.3795   23.9397 N   0  0  0  0  0  0
  -24.6664  -31.0795   22.1028 N   0  0  0  0  0  0
  -23.4171  -28.8197   23.3033 O   0  0  0  0  0  0
  -28.3706  -26.6696   20.1255 O   0  0  0  0  0  0
  -26.5592  -34.8933   22.4689 O   0  0  0  0  0  0
  -23.5334  -32.1462   23.7512 O   0  0  0  0  0  0
  -29.7165  -20.7719   21.2830 C   0  0  0  0  0  0
  -30.0866  -22.0648   21.4839 C   0  0  0  0  0  0
  -31.5089  -22.0667   21.5507 C   0  0  0  0  0  0
  -31.9798  -20.7829   21.3021 C   0  0  0  0  0  0
  -32.2901  -23.3277   21.8555 C   0  0  0  0  0  0
  -29.7306  -18.1853   19.8056 C   0  0  0  0  0  0
  -34.1138  -20.3982   22.6302 C   0  0  0  0  0  0
  -34.2552  -21.3278   20.2992 C   0  0  0  0  0  0
  -33.7968  -18.9684   20.6607 C   0  0  0  0  0  0
  -30.8453  -18.3952   23.5784 C   0  0  0  0  0  0
  -28.7696  -17.5474   22.5285 C   0  0  0  0  0  0
  -29.1257  -23.2308   21.6576 C   0  0  0  0  0  0
  -29.4114  -24.4950   20.8043 C   0  0  0  0  0  0
  -30.9731  -16.2660   22.3260 C   0  0  0  0  0  0
  -28.1383  -25.3364   20.6125 C   0  0  0  0  0  0
  -30.6595  -18.4850   21.0038 C   0  0  2  0  0  0
  -33.4708  -20.3656   21.2262 C   0  0  0  0  0  0
  -30.3001  -17.6788   22.3209 C   0  0  0  0  0  0
  -30.8299  -19.9537   21.1832 N   0  0  0  0  0  0
  -30.2545  -15.2015   21.6202 N   0  0  0  0  0  0
  -31.4573  -12.4175   19.0842 H   0  0  0  0  0  0
  -30.3253  -11.2891   19.7706 H   0  0  0  0  0  0
  -29.7168  -11.8149   17.3967 H   0  0  0  0  0  0
  -29.6425  -13.5198   17.7706 H   0  0  0  0  0  0
  -27.8185  -11.3173   18.7962 H   0  0  0  0  0  0
  -27.3507  -12.6582   17.7862 H   0  0  0  0  0  0
  -27.7153  -14.2570   19.5971 H   0  0  0  0  0  0
  -28.6719  -11.9164   21.3120 H   0  0  0  0  0  0
  -28.4433  -13.5378   21.8774 H   0  0  0  0  0  0
  -25.2731   -9.5715   22.4746 H   0  0  0  0  0  0
  -23.9995   -7.4653   22.7481 H   0  0  0  0  0  0
  -21.0813   -8.8741   19.8963 H   0  0  0  0  0  0
  -22.3629  -10.9660   19.6168 H   0  0  0  0  0  0
  -21.2006   -7.6146   23.9703 H   0  0  0  0  0  0
  -21.1488   -6.0527   25.9071 H   0  0  0  0  0  0
  -22.0596   -2.7605   23.2853 H   0  0  0  0  0  0
  -22.4107  -11.9891   22.4779 H   0  0  0  0  0  0
  -21.1121  -13.1281   22.2635 H   0  0  0  0  0  0
  -24.6668  -15.8441   20.5278 H   0  0  0  0  0  0
  -26.2900  -15.6286   20.1109 H   0  0  0  0  0  0
  -26.7103  -32.5557   23.1164 H   0  0  0  0  0  0
  -25.0091  -33.9792   25.0505 H   0  0  0  0  0  0
  -22.6889  -31.3114   21.4205 H   0  0  0  0  0  0
  -23.3770  -35.9646   23.3312 H   0  0  0  0  0  0
  -24.3600  -36.8913   22.2048 H   0  0  0  0  0  0
  -23.7240  -37.6515   23.6642 H   0  0  0  0  0  0
  -26.0446  -31.6078   20.6064 H   0  0  0  0  0  0
  -26.8147  -30.8816   21.9904 H   0  0  0  0  0  0
  -28.0985  -29.1001   21.1646 H   0  0  0  0  0  0
  -26.0350  -26.0018   18.9738 H   0  0  0  0  0  0
  -23.9684  -27.3175   19.0195 H   0  0  0  0  0  0
  -23.7106  -30.6112   19.4097 H   0  0  0  0  0  0
  -22.7300  -29.2510   19.8756 H   0  0  0  0  0  0
  -25.1300  -36.2003   25.0817 H   0  0  0  0  0  0
  -20.9926  -28.3231   24.1435 H   0  0  0  0  0  0
  -20.5674  -26.2257   23.3588 H   0  0  0  0  0  0
  -21.6642  -26.7449   22.1207 H   0  0  0  0  0  0
  -19.6947  -25.6274   21.1217 H   0  0  0  0  0  0
  -19.6721  -27.3172   20.6719 H   0  0  0  0  0  0
  -17.4202  -26.6622   21.3988 H   0  0  0  0  0  0
  -18.0355  -26.0035   22.8991 H   0  0  0  0  0  0
  -19.7948  -30.7191   24.2299 H   0  0  0  0  0  0
  -17.5041  -31.6270   24.5122 H   0  0  0  0  0  0
  -15.5348  -30.2980   23.7657 H   0  0  0  0  0  0
  -15.8650  -28.0801   22.7078 H   0  0  0  0  0  0
  -24.5895  -30.7060   25.7796 H   0  0  0  0  0  0
  -24.8899  -32.2858   26.4917 H   0  0  0  0  0  0
  -25.8057  -30.8866   27.0226 H   0  0  0  0  0  0
  -26.2839  -29.6815   24.1146 H   0  0  0  0  0  0
  -27.4099  -29.7297   25.4534 H   0  0  0  0  0  0
  -27.8678  -30.4394   23.9231 H   0  0  0  0  0  0
  -27.2699  -33.3612   26.2094 H   0  0  0  0  0  0
  -28.3849  -32.6879   25.0280 H   0  0  0  0  0  0
  -28.0762  -31.8405   26.5347 H   0  0  0  0  0  0
  -28.2611  -38.0121   24.7522 H   0  0  0  0  0  0
  -28.1097  -36.2637   24.6278 H   0  0  0  0  0  0
  -27.2299  -37.1449   25.8861 H   0  0  0  0  0  0
  -20.9294  -29.8754   21.6951 H   0  0  0  0  0  0
  -26.0220  -38.2878   24.1399 H   0  0  0  0  0  0
  -28.7224  -20.3533   21.2161 H   0  0  0  0  0  0
  -31.7077  -23.9894   22.4947 H   0  0  0  0  0  0
  -32.5209  -23.8645   20.9351 H   0  0  0  0  0  0
  -33.2130  -23.1465   22.3970 H   0  0  0  0  0  0
  -29.7095  -17.1192   19.5812 H   0  0  0  0  0  0
  -30.0842  -18.6956   18.9093 H   0  0  0  0  0  0
  -28.7024  -18.5031   19.9725 H   0  0  0  0  0  0
  -33.9779  -21.3444   23.1453 H   0  0  0  0  0  0
  -35.1882  -20.2197   22.5801 H   0  0  0  0  0  0
  -33.6998  -19.6347   23.2833 H   0  0  0  0  0  0
  -34.3332  -22.3411   20.6801 H   0  0  0  0  0  0
  -33.7948  -21.3827   19.3127 H   0  0  0  0  0  0
  -35.2865  -21.0022   20.1537 H   0  0  0  0  0  0
  -33.4915  -18.1731   21.3382 H   0  0  0  0  0  0
  -34.8728  -18.8262   20.5476 H   0  0  0  0  0  0
  -33.3610  -18.8122   19.6741 H   0  0  0  0  0  0
  -30.5873  -17.8566   24.4913 H   0  0  0  0  0  0
  -30.4467  -19.4032   23.6954 H   0  0  0  0  0  0
  -31.9287  -18.4630   23.5509 H   0  0  0  0  0  0
  -28.5384  -17.0185   23.4535 H   0  0  0  0  0  0
  -28.2818  -16.9964   21.7251 H   0  0  0  0  0  0
  -28.2883  -18.5236   22.5884 H   0  0  0  0  0  0
  -29.1020  -23.5014   22.7148 H   0  0  0  0  0  0
  -28.1258  -22.8600   21.4266 H   0  0  0  0  0  0
  -29.7942  -24.2143   19.8231 H   0  0  0  0  0  0
  -30.1831  -25.1006   21.2758 H   0  0  0  0  0  0
  -31.0406  -15.9028   23.3524 H   0  0  0  0  0  0
  -32.0109  -16.3323   21.9961 H   0  0  0  0  0  0
  -27.6143  -25.4073   21.5680 H   0  0  0  0  0  0
  -27.4882  -24.7779   19.9392 H   0  0  0  0  0  0
  -31.5791  -18.0755   20.6381 H   0  0  0  0  0  0
  -29.3729  -14.9158   22.0175 H   0  0  0  0  0  0
  1 25  1  0  0  0
  1 30  2  0  0  0
  1 90  1  0  0  0
  2  3  1  0  0  0
  2 25  1  0  0  0
  2 91  1  0  0  0
  2 92  1  0  0  0
  3  4  1  0  0  0
  3 93  1  0  0  0
  3 94  1  0  0  0
  4  5  1  0  0  0
  4 95  1  0  0  0
  4 96  1  0  0  0
  5  6  1  0  0  0
  5 26  1  0  0  0
  5 97  1  0  0  0
  6 25  1  0  0  0
  6 98  1  0  0  0
  6 99  1  0  0  0
  7  8  2  0  0  0
  7 26  1  0  0  0
  7 29  1  0  0  0
  8  9  1  0  0  0
  8 22  1  0  0  0
  9 10  1  0  0  0
  9 27  2  0  0  0
 10 11  2  0  0  0
 10 15  1  0  0  0
 11 12  1  0  0  0
 11100  1  0  0  0
 12 13  2  0  0  0
 12101  1  0  0  0
 13 14  1  0  0  0
 13 31  1  0  0  0
 14 15  2  0  0  0
 14102  1  0  0  0
 15103  1  0  0  0
 16 17  2  0  0  0
 16 21  1  0  0  0
 16 31  1  0  0  0
 17 18  1  0  0  0
 17104  1  0  0  0
 18 19  2  0  0  0
 18105  1  0  0  0
 19 20  1  0  0  0
 19 24  1  0  0  0
 20 21  2  0  0  0
 20106  1  0  0  0
 21 23  1  0  0  0
 22 28  1  0  0  0
 22 32  2  0  0  0
 26 27  1  0  0  0
 28107  1  0  0  0
 28108  1  0  0  0
 29109  1  0  0  0
 29110  1  0  0  0
 33 34  1  0  0  0
 33 66  1  0  0  0
 33 70  2  0  0  0
 34 36  1  0  0  0
 34 59  1  0  0  0
 34111  1  0  0  0
 35 44  2  0  0  0
 35 45  1  0  0  0
 35 68  1  0  0  0
 36 56  1  0  0  0
 36112  1  0  0  0
 37 39  1  0  0  0
 37 47  1  0  0  0
 37 66  1  0  0  0
 37113  1  0  0  0
 38 43  2  0  0  0
 38 46  1  0  0  0
 38 47  1  0  0  0
 39 64  1  0  0  0
 39 67  2  0  0  0
 40 52  1  0  0  0
 40 53  2  0  0  0
 40 58  1  0  0  0
 41114  1  0  0  0
 41115  1  0  0  0
 41116  1  0  0  0
 41 48  1  0  0  0
 42 43  1  0  0  0
 42 66  1  0  0  0
 42117  1  0  0  0
 42118  1  0  0  0
 43 44  1  0  0  0
 44119  1  0  0  0
 45 46  2  0  0  0
 45120  1  0  0  0
 46121  1  0  0  0
 47122  1  0  0  0
 47123  1  0  0  0
 48 56  1  0  0  0
 48 65  1  0  0  0
 48124  1  0  0  0
 49 50  1  0  0  0
 49 53  1  0  0  0
 49 64  1  0  0  0
 49125  1  0  0  0
 50 51  1  0  0  0
 50126  1  0  0  0
 50127  1  0  0  0
 51 52  1  0  0  0
 51128  1  0  0  0
 51129  1  0  0  0
 52130  1  0  0  0
 52131  1  0  0  0
 53 54  1  0  0  0
 54 55  2  0  0  0
 54132  1  0  0  0
 55 57  1  0  0  0
 55133  1  0  0  0
 56 69  2  0  0  0
 57 58  2  0  0  0
 57134  1  0  0  0
 58135  1  0  0  0
 59 60  1  0  0  0
 59 61  1  0  0  0
 59 62  1  0  0  0
 60136  1  0  0  0
 60137  1  0  0  0
 60138  1  0  0  0
 61139  1  0  0  0
 61140  1  0  0  0
 61141  1  0  0  0
 62142  1  0  0  0
 62143  1  0  0  0
 62144  1  0  0  0
 63 65  1  0  0  0
 63145  1  0  0  0
 63146  1  0  0  0
 63147  1  0  0  0
 64148  1  0  0  0
 65149  1  0  0  0
 68 85  1  0  0  0
 71 72  2  0  0  0
 71 89  1  0  0  0
 71150  1  0  0  0
 72 73  1  0  0  0
 72 82  1  0  0  0
 73 74  2  0  0  0
 73 75  1  0  0  0
 74 87  1  0  0  0
 74 89  1  0  0  0
 75151  1  0  0  0
 75152  1  0  0  0
 75153  1  0  0  0
 76154  1  0  0  0
 76155  1  0  0  0
 76156  1  0  0  0
 76 86  1  0  0  0
 77157  1  0  0  0
 77158  1  0  0  0
 77159  1  0  0  0
 77 87  1  0  0  0
 78 87  1  0  0  0
 78160  1  0  0  0
 78161  1  0  0  0
 78162  1  0  0  0
 79 87  1  0  0  0
 79163  1  0  0  0
 79164  1  0  0  0
 79165  1  0  0  0
 80166  1  0  0  0
 80167  1  0  0  0
 80168  1  0  0  0
 80 88  1  0  0  0
 81 88  1  0  0  0
 81169  1  0  0  0
 81170  1  0  0  0
 81171  1  0  0  0
 82 83  1  0  0  0
 82172  1  0  0  0
 82173  1  0  0  0
 83 85  1  0  0  0
 83174  1  0  0  0
 83175  1  0  0  0
 84 88  1  0  0  0
 84 90  1  0  0  0
 84176  1  0  0  0
 84177  1  0  0  0
 85178  1  0  0  0
 85179  1  0  0  0
 86 88  1  0  0  0
 86 89  1  0  0  0
 86180  1  0  0  0
 90181  1  0  0  0
M  ISO  4   1 100  68 101  85 101  90 100
M  END
> <chiral flag>
0

> <version>
0

> <s_m_source_file>
/data/baiqing/PycharmProjects/Reinvent-master-3.2/result/LINK_invent/BTK/process_docking_weight1_custom_sum_contain_oxygen_bond_distance_aromatic_linkinvent_7_9_3/rearranged_h_0086.sdf

> <i_m_source_file_index>
97

> <r_mmod_Potential_Energy-OPLS-2005>
-30.6701011657715

> <r_mmod_Stretch_Energy-OPLS-2005>
51.4328842163086

> <r_mmod_Bend_Energy-OPLS-2005>
147.069717407227

> <r_mmod_Torsional_Energy-OPLS-2005>
276.36572265625

> <r_mmod_Improper_Torsional_Energy-OPLS-2005>
2.26303172111511

> <r_mmod_Van_der_Waal_Energy-OPLS-2005>
156.863388061523

> <r_mmod_Electrostatic_Energy-OPLS-2005>
-485.419555664062

> <r_mmod_Solvation_Energy-OPLS-2005>
-189.265838623047

> <b_mmod_Minimization_Converged-OPLS-2005>
0

> <r_mmod_RMS_Derivative-OPLS-2005>
2.01609659194946

$$$$
99
                    3D
 Structure written by MMmdl.
170178  0  0  1  0            999 V2000
  -30.6778  -14.4929   20.5414 C   0  0  0  0  0  0
  -30.4197  -12.3088   19.4270 C   0  0  0  0  0  0
  -29.4927  -12.5068   18.2088 C   0  0  0  0  0  0
  -28.0144  -12.3663   18.6226 C   0  0  0  0  0  0
  -27.6595  -13.2076   19.8770 C   0  0  2  0  0  0
  -28.7021  -12.9981   20.9999 C   0  0  0  0  0  0
  -25.2574  -13.8164   20.5687 C   0  0  0  0  0  0
  -24.1829  -13.0422   20.9177 C   0  0  0  0  0  0
  -24.6384  -11.6894   20.8728 C   0  0  0  0  0  0
  -23.9058  -10.4277   21.0405 C   0  0  0  0  0  0
  -24.3624   -9.4200   21.9186 C   0  0  0  0  0  0
  -23.6301   -8.2233   22.0756 C   0  0  0  0  0  0
  -22.4279   -8.0273   21.3553 C   0  0  0  0  0  0
  -21.9910   -9.0240   20.4650 C   0  0  0  0  0  0
  -22.7230  -10.2122   20.3058 C   0  0  0  0  0  0
  -21.6849   -6.0729   22.5280 C   0  0  0  0  0  0
  -21.4015   -6.5635   23.8213 C   0  0  0  0  0  0
  -21.3664   -5.6794   24.9180 C   0  0  0  0  0  0
  -21.6049   -4.3056   24.7220 C   0  0  0  0  0  0
  -21.8823   -3.8141   23.4341 C   0  0  0  0  0  0
  -21.9196   -4.6959   22.3398 C   0  0  0  0  0  0
  -22.7861  -13.5217   21.1852 C   0  0  0  0  0  0
  -22.1660   -4.2145   21.0977 F   0  0  0  0  0  0
  -21.5641   -3.4536   25.7733 F   0  0  0  0  0  0
  -30.0286  -13.3015   20.4413 N   0  0  0  0  0  0
  -26.3012  -12.9333   20.3382 N   0  0  0  0  0  0
  -25.9309  -11.6491   20.5768 N   0  0  0  0  0  0
  -22.0516  -12.8198   22.0421 N   0  0  0  0  0  0
  -25.4275  -15.1874   20.4073 N   0  0  0  0  0  0
  -31.8196  -14.6679   20.1081 O   0  0  0  0  0  0
  -21.6639   -6.8877   21.4246 O   0  0  0  0  0  0
  -22.3547  -14.5533   20.6720 O   0  0  0  0  0  0
  -24.6157  -31.8678   23.2085 C   0  0  0  0  0  0
  -25.9047  -32.4815   23.8387 C   0  0  1  0  0  0
  -27.2346  -27.4210   20.1093 C   0  0  0  0  0  0
  -25.5902  -33.8613   24.2322 N   0  0  0  0  0  0
  -23.4048  -30.4906   21.5495 C   0  0  2  0  0  0
  -24.8522  -28.9524   20.1144 C   0  0  0  0  0  0
  -22.7424  -29.4657   22.4987 C   0  0  0  0  0  0
  -18.0281  -28.1394   22.8497 C   0  0  0  0  0  0
  -24.1490  -36.7316   23.2638 C   0  0  0  0  0  0
  -25.9334  -30.8308   21.3614 C   0  0  0  0  0  0
  -26.0123  -29.4629   20.7110 C   0  0  0  0  0  0
  -27.2088  -28.7069   20.7007 C   0  0  0  0  0  0
  -26.0600  -26.9284   19.5029 C   0  0  0  0  0  0
  -24.8718  -27.6852   19.5048 C   0  0  0  0  0  0
  -23.6143  -29.8216   20.1643 C   0  0  0  0  0  0
  -25.4109  -36.3104   24.0339 C   0  0  1  0  0  0
  -20.5869  -28.3680   23.1328 C   0  0  2  0  0  0
  -20.6774  -26.9419   22.5426 C   0  0  0  0  0  0
  -19.5742  -26.6398   21.5233 C   0  0  0  0  0  0
  -18.1924  -26.7939   22.1640 C   0  0  0  0  0  0
  -19.1527  -28.8854   23.2907 C   0  0  0  0  0  0
  -18.9452  -30.1464   23.8910 C   0  0  0  0  0  0
  -17.6452  -30.6593   24.0574 C   0  0  0  0  0  0
  -25.9039  -34.9470   23.5128 C   0  0  0  0  0  0
  -16.5347  -29.9098   23.6319 C   0  0  0  0  0  0
  -16.7274  -28.6520   23.0335 C   0  0  0  0  0  0
  -26.4463  -31.6587   25.0717 C   0  0  0  0  0  0
  -25.3729  -31.3698   26.1467 C   0  0  0  0  0  0
  -27.0282  -30.3028   24.6083 C   0  0  0  0  0  0
  -27.6038  -32.4297   25.7481 C   0  0  0  0  0  0
  -27.5579  -37.1818   24.8464 C   0  0  0  0  0  0
  -21.4151  -29.3043   22.3731 N   0  0  0  0  0  0
  -26.4291  -37.3793   23.9406 N   0  0  0  0  0  0
  -24.6698  -31.0779   22.0983 N   0  0  0  0  0  0
  -23.4189  -28.8209   23.3038 O   0  0  0  0  0  0
  -28.3912  -26.6662   20.1012 O   0  0  0  0  0  0
  -26.5605  -34.8925   22.4692 O   0  0  0  0  0  0
  -23.5348  -32.1434   23.7479 O   0  0  0  0  0  0
  -29.2975  -21.6904   19.6637 C   0  0  0  0  0  0
  -28.8019  -22.5585   21.8530 C   0  0  0  0  0  0
  -29.0197  -22.8127   20.4829 C   0  0  0  0  0  0
  -29.3533  -20.3851   20.2210 C   0  0  0  0  0  0
  -28.8760  -21.2339   22.3431 C   0  0  0  0  0  0
  -29.1588  -19.2680   17.9434 C   0  0  0  0  0  0
  -28.2906  -22.0980   24.6860 C   0  0  0  0  0  0
  -29.8640  -20.1852   24.4151 C   0  0  0  0  0  0
  -27.4129  -19.9046   23.8932 C   0  0  0  0  0  0
  -29.0015  -24.2396   19.8873 C   0  0  0  0  0  0
  -29.2162  -17.7499   19.9720 C   0  0  0  0  0  0
  -30.2532  -16.9689   20.8323 C   0  0  0  0  0  0
  -28.3031  -25.3586   20.7140 C   0  0  0  0  0  0
  -29.6945  -19.1277   19.3841 C   0  0  2  0  0  0
  -28.6169  -20.8652   23.8154 C   0  0  0  0  0  0
  -29.1667  -20.1869   21.5391 N   0  0  0  0  0  0
  -29.9242  -15.5313   20.9629 N   0  0  0  0  0  0
  -31.4673  -12.3987   19.1336 H   0  0  0  0  0  0
  -30.3111  -11.3005   19.8292 H   0  0  0  0  0  0
  -29.7315  -11.7845   17.4274 H   0  0  0  0  0  0
  -29.6599  -13.4937   17.7729 H   0  0  0  0  0  0
  -27.8275  -11.3095   18.8209 H   0  0  0  0  0  0
  -27.3628  -12.6414   17.7921 H   0  0  0  0  0  0
  -27.7003  -14.2544   19.5738 H   0  0  0  0  0  0
  -28.6800  -11.9664   21.3536 H   0  0  0  0  0  0
  -28.4672  -13.6106   21.8721 H   0  0  0  0  0  0
  -25.2771   -9.5660   22.4765 H   0  0  0  0  0  0
  -24.0008   -7.4618   22.7470 H   0  0  0  0  0  0
  -21.0845   -8.8746   19.8947 H   0  0  0  0  0  0
  -22.3690  -10.9667   19.6162 H   0  0  0  0  0  0
  -21.2005   -7.6145   23.9707 H   0  0  0  0  0  0
  -21.1493   -6.0529   25.9089 H   0  0  0  0  0  0
  -22.0602   -2.7599   23.2832 H   0  0  0  0  0  0
  -22.4136  -11.9831   22.4751 H   0  0  0  0  0  0
  -21.1147  -13.1226   22.2679 H   0  0  0  0  0  0
  -24.6548  -15.8377   20.5096 H   0  0  0  0  0  0
  -26.2767  -15.6280   20.0773 H   0  0  0  0  0  0
  -26.7126  -32.5532   23.1155 H   0  0  0  0  0  0
  -25.0037  -33.9767   25.0458 H   0  0  0  0  0  0
  -22.6931  -31.3073   21.4102 H   0  0  0  0  0  0
  -23.3738  -35.9661   23.3306 H   0  0  0  0  0  0
  -24.3591  -36.8925   22.2051 H   0  0  0  0  0  0
  -23.7255  -37.6530   23.6650 H   0  0  0  0  0  0
  -26.0453  -31.5946   20.5904 H   0  0  0  0  0  0
  -26.8211  -30.8877   21.9800 H   0  0  0  0  0  0
  -28.1051  -29.0996   21.1605 H   0  0  0  0  0  0
  -26.0633  -25.9582   19.0260 H   0  0  0  0  0  0
  -23.9826  -27.2880   19.0349 H   0  0  0  0  0  0
  -23.7251  -30.5972   19.4057 H   0  0  0  0  0  0
  -22.7368  -29.2450   19.8660 H   0  0  0  0  0  0
  -25.1282  -36.1965   25.0832 H   0  0  0  0  0  0
  -20.9972  -28.3255   24.1443 H   0  0  0  0  0  0
  -20.5715  -26.2290   23.3616 H   0  0  0  0  0  0
  -21.6642  -26.7483   22.1196 H   0  0  0  0  0  0
  -19.6908  -25.6315   21.1248 H   0  0  0  0  0  0
  -19.6676  -27.3220   20.6771 H   0  0  0  0  0  0
  -17.4204  -26.6698   21.4035 H   0  0  0  0  0  0
  -18.0310  -26.0083   22.9033 H   0  0  0  0  0  0
  -19.7930  -30.7283   24.2276 H   0  0  0  0  0  0
  -17.5007  -31.6276   24.5181 H   0  0  0  0  0  0
  -15.5343  -30.3003   23.7641 H   0  0  0  0  0  0
  -15.8677  -28.0855   22.7011 H   0  0  0  0  0  0
  -24.5885  -30.7063   25.7805 H   0  0  0  0  0  0
  -24.8937  -32.2860   26.4931 H   0  0  0  0  0  0
  -25.8081  -30.8851   27.0216 H   0  0  0  0  0  0
  -26.2830  -29.6812   24.1106 H   0  0  0  0  0  0
  -27.4021  -29.7232   25.4531 H   0  0  0  0  0  0
  -27.8674  -30.4335   23.9246 H   0  0  0  0  0  0
  -27.2653  -33.3578   26.2093 H   0  0  0  0  0  0
  -28.3830  -32.6888   25.0303 H   0  0  0  0  0  0
  -28.0724  -31.8403   26.5369 H   0  0  0  0  0  0
  -28.2600  -38.0113   24.7503 H   0  0  0  0  0  0
  -28.1073  -36.2645   24.6291 H   0  0  0  0  0  0
  -27.2307  -37.1473   25.8872 H   0  0  0  0  0  0
  -20.9322  -29.8755   21.6936 H   0  0  0  0  0  0
  -26.0175  -38.2872   24.1399 H   0  0  0  0  0  0
  -29.4823  -21.8507   18.6121 H   0  0  0  0  0  0
  -28.5837  -23.3774   22.5198 H   0  0  0  0  0  0
  -29.6578  -20.0703   17.4026 H   0  0  0  0  0  0
  -28.0880  -19.4762   17.9440 H   0  0  0  0  0  0
  -29.3265  -18.3631   17.3605 H   0  0  0  0  0  0
  -29.1185  -22.8088   24.6986 H   0  0  0  0  0  0
  -28.0952  -21.8127   25.7202 H   0  0  0  0  0  0
  -27.4030  -22.6191   24.3256 H   0  0  0  0  0  0
  -30.7365  -20.8351   24.3440 H   0  0  0  0  0  0
  -30.1062  -19.2564   23.8982 H   0  0  0  0  0  0
  -29.7165  -19.9395   25.4666 H   0  0  0  0  0  0
  -26.5186  -20.3606   23.4679 H   0  0  0  0  0  0
  -27.1894  -19.6276   24.9228 H   0  0  0  0  0  0
  -27.5979  -18.9810   23.3432 H   0  0  0  0  0  0
  -28.5307  -24.1895   18.9056 H   0  0  0  0  0  0
  -30.0364  -24.5339   19.7112 H   0  0  0  0  0  0
  -28.2740  -17.8686   20.5080 H   0  0  0  0  0  0
  -28.9772  -17.0918   19.1365 H   0  0  0  0  0  0
  -30.3138  -17.4075   21.8295 H   0  0  0  0  0  0
  -31.2451  -17.0849   20.3934 H   0  0  0  0  0  0
  -28.7929  -25.4498   21.6832 H   0  0  0  0  0  0
  -27.2738  -25.0648   20.9236 H   0  0  0  0  0  0
  -30.7819  -19.0940   19.3072 H   0  0  0  0  0  0
  -29.0053  -15.3025   21.3110 H   0  0  0  0  0  0
  1 25  1  0  0  0
  1 30  2  0  0  0
  1 87  1  0  0  0
  2  3  1  0  0  0
  2 25  1  0  0  0
  2 88  1  0  0  0
  2 89  1  0  0  0
  3  4  1  0  0  0
  3 90  1  0  0  0
  3 91  1  0  0  0
  4  5  1  0  0  0
  4 92  1  0  0  0
  4 93  1  0  0  0
  5  6  1  0  0  0
  5 26  1  0  0  0
  5 94  1  0  0  0
  6 25  1  0  0  0
  6 95  1  0  0  0
  6 96  1  0  0  0
  7  8  2  0  0  0
  7 26  1  0  0  0
  7 29  1  0  0  0
  8  9  1  0  0  0
  8 22  1  0  0  0
  9 10  1  0  0  0
  9 27  2  0  0  0
 10 11  2  0  0  0
 10 15  1  0  0  0
 11 12  1  0  0  0
 11 97  1  0  0  0
 12 13  2  0  0  0
 12 98  1  0  0  0
 13 14  1  0  0  0
 13 31  1  0  0  0
 14 15  2  0  0  0
 14 99  1  0  0  0
 15100  1  0  0  0
 16 17  2  0  0  0
 16 21  1  0  0  0
 16 31  1  0  0  0
 17 18  1  0  0  0
 17101  1  0  0  0
 18 19  2  0  0  0
 18102  1  0  0  0
 19 20  1  0  0  0
 19 24  1  0  0  0
 20 21  2  0  0  0
 20103  1  0  0  0
 21 23  1  0  0  0
 22 28  1  0  0  0
 22 32  2  0  0  0
 26 27  1  0  0  0
 28104  1  0  0  0
 28105  1  0  0  0
 29106  1  0  0  0
 29107  1  0  0  0
 33 34  1  0  0  0
 33 66  1  0  0  0
 33 70  2  0  0  0
 34 36  1  0  0  0
 34 59  1  0  0  0
 34108  1  0  0  0
 35 44  2  0  0  0
 35 45  1  0  0  0
 35 68  1  0  0  0
 36 56  1  0  0  0
 36109  1  0  0  0
 37 39  1  0  0  0
 37 47  1  0  0  0
 37 66  1  0  0  0
 37110  1  0  0  0
 38 43  2  0  0  0
 38 46  1  0  0  0
 38 47  1  0  0  0
 39 64  1  0  0  0
 39 67  2  0  0  0
 40 52  1  0  0  0
 40 53  2  0  0  0
 40 58  1  0  0  0
 41111  1  0  0  0
 41112  1  0  0  0
 41113  1  0  0  0
 41 48  1  0  0  0
 42 43  1  0  0  0
 42 66  1  0  0  0
 42114  1  0  0  0
 42115  1  0  0  0
 43 44  1  0  0  0
 44116  1  0  0  0
 45 46  2  0  0  0
 45117  1  0  0  0
 46118  1  0  0  0
 47119  1  0  0  0
 47120  1  0  0  0
 48 56  1  0  0  0
 48 65  1  0  0  0
 48121  1  0  0  0
 49 50  1  0  0  0
 49 53  1  0  0  0
 49 64  1  0  0  0
 49122  1  0  0  0
 50 51  1  0  0  0
 50123  1  0  0  0
 50124  1  0  0  0
 51 52  1  0  0  0
 51125  1  0  0  0
 51126  1  0  0  0
 52127  1  0  0  0
 52128  1  0  0  0
 53 54  1  0  0  0
 54 55  2  0  0  0
 54129  1  0  0  0
 55 57  1  0  0  0
 55130  1  0  0  0
 56 69  2  0  0  0
 57 58  2  0  0  0
 57131  1  0  0  0
 58132  1  0  0  0
 59 60  1  0  0  0
 59 61  1  0  0  0
 59 62  1  0  0  0
 60133  1  0  0  0
 60134  1  0  0  0
 60135  1  0  0  0
 61136  1  0  0  0
 61137  1  0  0  0
 61138  1  0  0  0
 62139  1  0  0  0
 62140  1  0  0  0
 62141  1  0  0  0
 63 65  1  0  0  0
 63142  1  0  0  0
 63143  1  0  0  0
 63144  1  0  0  0
 64145  1  0  0  0
 65146  1  0  0  0
 68 83  1  0  0  0
 71 73  2  0  0  0
 71 74  1  0  0  0
 71147  1  0  0  0
 72 73  1  0  0  0
 72 75  2  0  0  0
 72148  1  0  0  0
 73 80  1  0  0  0
 74 84  1  0  0  0
 74 86  2  0  0  0
 75 85  1  0  0  0
 75 86  1  0  0  0
 76149  1  0  0  0
 76150  1  0  0  0
 76151  1  0  0  0
 76 84  1  0  0  0
 77152  1  0  0  0
 77153  1  0  0  0
 77154  1  0  0  0
 77 85  1  0  0  0
 78 85  1  0  0  0
 78155  1  0  0  0
 78156  1  0  0  0
 78157  1  0  0  0
 79 85  1  0  0  0
 79158  1  0  0  0
 79159  1  0  0  0
 79160  1  0  0  0
 80 83  1  0  0  0
 80161  1  0  0  0
 80162  1  0  0  0
 81 82  1  0  0  0
 81 84  1  0  0  0
 81163  1  0  0  0
 81164  1  0  0  0
 82 87  1  0  0  0
 82165  1  0  0  0
 82166  1  0  0  0
 83167  1  0  0  0
 83168  1  0  0  0
 84169  1  0  0  0
 87170  1  0  0  0
M  ISO  4   1 100  68 101  83 101  87 100
M  END
> <chiral flag>
0

> <version>
0

> <s_m_source_file>
/data/baiqing/PycharmProjects/Reinvent-master-3.2/result/LINK_invent/BTK/process_docking_weight1_custom_sum_contain_oxygen_bond_distance_aromatic_linkinvent_7_9_3/rearranged_h_0086.sdf

> <i_m_source_file_index>
98

> <r_mmod_Potential_Energy-OPLS-2005>
-222.285446166992

> <r_mmod_Stretch_Energy-OPLS-2005>
45.503833770752

> <r_mmod_Bend_Energy-OPLS-2005>
106.403213500977

> <r_mmod_Torsional_Energy-OPLS-2005>
219.390014648438

> <r_mmod_Improper_Torsional_Energy-OPLS-2005>
4.65382289886475

> <r_mmod_Van_der_Waal_Energy-OPLS-2005>
163.933609008789

> <r_mmod_Electrostatic_Energy-OPLS-2005>
-576.998962402344

> <r_mmod_Solvation_Energy-OPLS-2005>
-200.102142333984

> <b_mmod_Minimization_Converged-OPLS-2005>
0

> <r_mmod_RMS_Derivative-OPLS-2005>
1.96733510494232

$$$$
