0
                    3D
 Structure written by MMmdl.
168177  0  0  1  0            999 V2000
  -30.7077  -14.5249   20.4364 C   0  0  0  0  0  0
  -30.4126  -12.3000   19.4429 C   0  0  0  0  0  0
  -29.4958  -12.4587   18.2132 C   0  0  0  0  0  0
  -28.0143  -12.3457   18.6240 C   0  0  0  0  0  0
  -27.6515  -13.2149   19.8600 C   0  0  2  0  0  0
  -28.7051  -13.0914   20.9873 C   0  0  0  0  0  0
  -25.2573  -13.8170   20.5684 C   0  0  0  0  0  0
  -24.1839  -13.0438   20.9176 C   0  0  0  0  0  0
  -24.6418  -11.6916   20.8752 C   0  0  0  0  0  0
  -23.9078  -10.4309   21.0415 C   0  0  0  0  0  0
  -24.3639   -9.4230   21.9190 C   0  0  0  0  0  0
  -23.6319   -8.2265   22.0754 C   0  0  0  0  0  0
  -22.4298   -8.0314   21.3544 C   0  0  0  0  0  0
  -21.9931   -9.0283   20.4646 C   0  0  0  0  0  0
  -22.7256  -10.2160   20.3064 C   0  0  0  0  0  0
  -21.6873   -6.0768   22.5290 C   0  0  0  0  0  0
  -21.4020   -6.5653   23.8221 C   0  0  0  0  0  0
  -21.3660   -5.6798   24.9177 C   0  0  0  0  0  0
  -21.6047   -4.3065   24.7233 C   0  0  0  0  0  0
  -21.8826   -3.8167   23.4348 C   0  0  0  0  0  0
  -21.9201   -4.6989   22.3406 C   0  0  0  0  0  0
  -22.7869  -13.5216   21.1869 C   0  0  0  0  0  0
  -22.1660   -4.2167   21.0983 F   0  0  0  0  0  0
  -21.5627   -3.4542   25.7742 F   0  0  0  0  0  0
  -30.0267  -13.3460   20.3988 N   0  0  0  0  0  0
  -26.3005  -12.9361   20.3369 N   0  0  0  0  0  0
  -25.9342  -11.6519   20.5808 N   0  0  0  0  0  0
  -22.0535  -12.8184   22.0435 N   0  0  0  0  0  0
  -25.4291  -15.1891   20.4089 N   0  0  0  0  0  0
  -31.9139  -14.5988   20.2010 O   0  0  0  0  0  0
  -21.6670   -6.8917   21.4253 O   0  0  0  0  0  0
  -22.3561  -14.5533   20.6757 O   0  0  0  0  0  0
  -24.6138  -31.8667   23.2098 C   0  0  0  0  0  0
  -25.9047  -32.4815   23.8384 C   0  0  1  0  0  0
  -27.2345  -27.4241   20.0707 C   0  0  0  0  0  0
  -25.5926  -33.8618   24.2313 N   0  0  0  0  0  0
  -23.4027  -30.4882   21.5538 C   0  0  2  0  0  0
  -24.8459  -28.9567   20.1117 C   0  0  0  0  0  0
  -22.7407  -29.4629   22.5020 C   0  0  0  0  0  0
  -18.0272  -28.1353   22.8489 C   0  0  0  0  0  0
  -24.1500  -36.7307   23.2631 C   0  0  0  0  0  0
  -25.9335  -30.8170   21.3762 C   0  0  0  0  0  0
  -26.0053  -29.4539   20.7180 C   0  0  0  0  0  0
  -27.1964  -28.6896   20.7033 C   0  0  0  0  0  0
  -26.0528  -26.9546   19.4459 C   0  0  0  0  0  0
  -24.8650  -27.7065   19.4759 C   0  0  0  0  0  0
  -23.6091  -29.8230   20.1669 C   0  0  0  0  0  0
  -25.4128  -36.3111   24.0322 C   0  0  1  0  0  0
  -20.5849  -28.3640   23.1328 C   0  0  2  0  0  0
  -20.6761  -26.9381   22.5414 C   0  0  0  0  0  0
  -19.5752  -26.6365   21.5207 C   0  0  0  0  0  0
  -18.1924  -26.7904   22.1609 C   0  0  0  0  0  0
  -19.1513  -28.8821   23.2895 C   0  0  0  0  0  0
  -18.9445  -30.1434   23.8888 C   0  0  0  0  0  0
  -17.6449  -30.6567   24.0555 C   0  0  0  0  0  0
  -25.9050  -34.9481   23.5117 C   0  0  0  0  0  0
  -16.5339  -29.9058   23.6332 C   0  0  0  0  0  0
  -16.7261  -28.6472   23.0354 C   0  0  0  0  0  0
  -26.4461  -31.6605   25.0725 C   0  0  0  0  0  0
  -25.3713  -31.3746   26.1471 C   0  0  0  0  0  0
  -27.0277  -30.3029   24.6138 C   0  0  0  0  0  0
  -27.6031  -32.4325   25.7492 C   0  0  0  0  0  0
  -27.5598  -37.1807   24.8450 C   0  0  0  0  0  0
  -21.4131  -29.3022   22.3760 N   0  0  0  0  0  0
  -26.4310  -37.3799   23.9396 N   0  0  0  0  0  0
  -24.6680  -31.0719   22.1043 N   0  0  0  0  0  0
  -23.4180  -28.8173   23.3062 O   0  0  0  0  0  0
  -28.4146  -26.6968   20.0922 O   0  0  0  0  0  0
  -26.5596  -34.8932   22.4669 O   0  0  0  0  0  0
  -23.5325  -32.1474   23.7459 O   0  0  0  0  0  0
  -29.0778  -19.9159   21.0252 C   0  0  0  0  0  0
  -28.7868  -21.2870   21.1868 C   0  0  0  0  0  0
  -30.9273  -21.8693   20.2176 C   0  0  0  0  0  0
  -30.2999  -19.4917   20.4550 C   0  0  0  0  0  0
  -31.2410  -20.4931   20.0756 C   0  0  0  0  0  0
  -29.6858  -22.2811   20.7551 C   0  0  0  0  0  0
  -29.8248  -17.6149   18.8415 C   0  0  0  0  0  0
  -29.7707  -16.0885   18.8747 C   0  0  0  0  0  0
  -30.5359  -17.9973   20.1280 C   0  0  2  0  0  0
  -30.0217  -16.8861   21.0858 C   0  0  2  0  0  0
  -32.5942  -20.1242   19.4866 C   0  0  0  0  0  0
  -32.2176  -16.9587   22.5422 C   0  0  0  0  0  0
  -28.4265  -25.3838   19.5028 C   0  0  0  0  0  0
  -29.6689  -24.5452   19.8889 C   0  0  0  0  0  0
  -30.6929  -16.7718   22.4883 C   0  0  1  0  0  0
  -29.9388  -15.6372   20.2767 N   0  0  0  0  0  0
  -30.1292  -17.7519   23.3363 O   0  0  0  0  0  0
  -29.3107  -23.6025   20.9089 O   0  0  0  0  0  0
  -31.4610  -12.3644   19.1466 H   0  0  0  0  0  0
  -30.2826  -11.3133   19.8918 H   0  0  0  0  0  0
  -29.7343  -11.6949   17.4725 H   0  0  0  0  0  0
  -29.6808  -13.4182   17.7282 H   0  0  0  0  0  0
  -27.8179  -11.2956   18.8433 H   0  0  0  0  0  0
  -27.3701  -12.5955   17.7784 H   0  0  0  0  0  0
  -27.6553  -14.2462   19.5178 H   0  0  0  0  0  0
  -28.6818  -12.0985   21.4408 H   0  0  0  0  0  0
  -28.4892  -13.8071   21.7833 H   0  0  0  0  0  0
  -25.2782   -9.5707   22.4757 H   0  0  0  0  0  0
  -24.0053   -7.4658   22.7442 H   0  0  0  0  0  0
  -21.0871   -8.8786   19.8936 H   0  0  0  0  0  0
  -22.3718  -10.9702   19.6169 H   0  0  0  0  0  0
  -21.2011   -7.6157   23.9731 H   0  0  0  0  0  0
  -21.1460   -6.0521   25.9069 H   0  0  0  0  0  0
  -22.0596   -2.7634   23.2851 H   0  0  0  0  0  0
  -22.4148  -11.9820   22.4790 H   0  0  0  0  0  0
  -21.1169  -13.1233   22.2692 H   0  0  0  0  0  0
  -24.6699  -15.8503   20.5293 H   0  0  0  0  0  0
  -26.2952  -15.6268   20.1186 H   0  0  0  0  0  0
  -26.7092  -32.5498   23.1115 H   0  0  0  0  0  0
  -25.0110  -33.9795   25.0477 H   0  0  0  0  0  0
  -22.6919  -31.3056   21.4153 H   0  0  0  0  0  0
  -23.3786  -35.9613   23.3265 H   0  0  0  0  0  0
  -24.3594  -36.8957   22.2051 H   0  0  0  0  0  0
  -23.7223  -37.6487   23.6667 H   0  0  0  0  0  0
  -26.0619  -31.5862   20.6136 H   0  0  0  0  0  0
  -26.8141  -30.8555   22.0054 H   0  0  0  0  0  0
  -28.0893  -29.0643   21.1835 H   0  0  0  0  0  0
  -26.0151  -26.0162   18.9141 H   0  0  0  0  0  0
  -23.9766  -27.3271   18.9903 H   0  0  0  0  0  0
  -23.7093  -30.5991   19.4069 H   0  0  0  0  0  0
  -22.7333  -29.2384   19.8767 H   0  0  0  0  0  0
  -25.1310  -36.1971   25.0810 H   0  0  0  0  0  0
  -20.9920  -28.3178   24.1461 H   0  0  0  0  0  0
  -20.5666  -26.2240   23.3589 H   0  0  0  0  0  0
  -21.6633  -26.7429   22.1208 H   0  0  0  0  0  0
  -19.6913  -25.6274   21.1241 H   0  0  0  0  0  0
  -19.6712  -27.3170   20.6733 H   0  0  0  0  0  0
  -17.4209  -26.6684   21.3985 H   0  0  0  0  0  0
  -18.0305  -26.0020   22.8973 H   0  0  0  0  0  0
  -19.7925  -30.7261   24.2232 H   0  0  0  0  0  0
  -17.5000  -31.6254   24.5146 H   0  0  0  0  0  0
  -15.5336  -30.2957   23.7653 H   0  0  0  0  0  0
  -15.8665  -28.0785   22.7075 H   0  0  0  0  0  0
  -24.5854  -30.7139   25.7804 H   0  0  0  0  0  0
  -24.8954  -32.2919   26.4931 H   0  0  0  0  0  0
  -25.8035  -30.8885   27.0226 H   0  0  0  0  0  0
  -26.2833  -29.6813   24.1155 H   0  0  0  0  0  0
  -27.3977  -29.7245   25.4613 H   0  0  0  0  0  0
  -27.8702  -30.4320   23.9344 H   0  0  0  0  0  0
  -27.2651  -33.3628   26.2068 H   0  0  0  0  0  0
  -28.3844  -32.6884   25.0325 H   0  0  0  0  0  0
  -28.0690  -31.8457   26.5414 H   0  0  0  0  0  0
  -28.2590  -38.0136   24.7546 H   0  0  0  0  0  0
  -28.1132  -36.2666   24.6226 H   0  0  0  0  0  0
  -27.2315  -37.1385   25.8854 H   0  0  0  0  0  0
  -20.9291  -29.8770   21.7005 H   0  0  0  0  0  0
  -26.0200  -38.2871   24.1422 H   0  0  0  0  0  0
  -28.3251  -19.1972   21.3146 H   0  0  0  0  0  0
  -27.8401  -21.5867   21.6115 H   0  0  0  0  0  0
  -31.6490  -22.6138   19.9110 H   0  0  0  0  0  0
  -28.8050  -18.0042   18.8465 H   0  0  0  0  0  0
  -30.3206  -18.0147   17.9555 H   0  0  0  0  0  0
  -30.5660  -15.7049   18.2320 H   0  0  0  0  0  0
  -28.8347  -15.7373   18.4432 H   0  0  0  0  0  0
  -31.6009  -17.8146   19.9838 H   0  0  0  0  0  0
  -28.9648  -17.0744   21.2786 H   0  0  0  0  0  0
  -33.1779  -21.0071   19.2225 H   0  0  0  0  0  0
  -32.4798  -19.5231   18.5841 H   0  0  0  0  0  0
  -33.1774  -19.5550   20.2112 H   0  0  0  0  0  0
  -32.7426  -16.2307   21.9272 H   0  0  0  0  0  0
  -32.5847  -16.8308   23.5619 H   0  0  0  0  0  0
  -32.5223  -17.9506   22.2083 H   0  0  0  0  0  0
  -27.5437  -24.8067   19.7786 H   0  0  0  0  0  0
  -28.4024  -25.5015   18.4181 H   0  0  0  0  0  0
  -30.4853  -25.1853   20.2257 H   0  0  0  0  0  0
  -30.0142  -24.0360   18.9897 H   0  0  0  0  0  0
  -30.4387  -15.8083   22.9357 H   0  0  0  0  0  0
  -30.2459  -18.5998   22.9129 H   0  0  0  0  0  0
  1 25  1  0  0  0
  1 30  2  0  0  0
  1 86  1  0  0  0
  2  3  1  0  0  0
  2 25  1  0  0  0
  2 89  1  0  0  0
  2 90  1  0  0  0
  3  4  1  0  0  0
  3 91  1  0  0  0
  3 92  1  0  0  0
  4  5  1  0  0  0
  4 93  1  0  0  0
  4 94  1  0  0  0
  5  6  1  0  0  0
  5 26  1  0  0  0
  5 95  1  0  0  0
  6 25  1  0  0  0
  6 96  1  0  0  0
  6 97  1  0  0  0
  7  8  2  0  0  0
  7 26  1  0  0  0
  7 29  1  0  0  0
  8  9  1  0  0  0
  8 22  1  0  0  0
  9 10  1  0  0  0
  9 27  2  0  0  0
 10 11  2  0  0  0
 10 15  1  0  0  0
 11 12  1  0  0  0
 11 98  1  0  0  0
 12 13  2  0  0  0
 12 99  1  0  0  0
 13 14  1  0  0  0
 13 31  1  0  0  0
 14 15  2  0  0  0
 14100  1  0  0  0
 15101  1  0  0  0
 16 17  2  0  0  0
 16 21  1  0  0  0
 16 31  1  0  0  0
 17 18  1  0  0  0
 17102  1  0  0  0
 18 19  2  0  0  0
 18103  1  0  0  0
 19 20  1  0  0  0
 19 24  1  0  0  0
 20 21  2  0  0  0
 20104  1  0  0  0
 21 23  1  0  0  0
 22 28  1  0  0  0
 22 32  2  0  0  0
 26 27  1  0  0  0
 28105  1  0  0  0
 28106  1  0  0  0
 29107  1  0  0  0
 29108  1  0  0  0
 33 34  1  0  0  0
 33 66  1  0  0  0
 33 70  2  0  0  0
 34 36  1  0  0  0
 34 59  1  0  0  0
 34109  1  0  0  0
 35 44  2  0  0  0
 35 45  1  0  0  0
 35 68  1  0  0  0
 36 56  1  0  0  0
 36110  1  0  0  0
 37 39  1  0  0  0
 37 47  1  0  0  0
 37 66  1  0  0  0
 37111  1  0  0  0
 38 43  2  0  0  0
 38 46  1  0  0  0
 38 47  1  0  0  0
 39 64  1  0  0  0
 39 67  2  0  0  0
 40 52  1  0  0  0
 40 53  2  0  0  0
 40 58  1  0  0  0
 41112  1  0  0  0
 41113  1  0  0  0
 41114  1  0  0  0
 41 48  1  0  0  0
 42 43  1  0  0  0
 42 66  1  0  0  0
 42115  1  0  0  0
 42116  1  0  0  0
 43 44  1  0  0  0
 44117  1  0  0  0
 45 46  2  0  0  0
 45118  1  0  0  0
 46119  1  0  0  0
 47120  1  0  0  0
 47121  1  0  0  0
 48 56  1  0  0  0
 48 65  1  0  0  0
 48122  1  0  0  0
 49 50  1  0  0  0
 49 53  1  0  0  0
 49 64  1  0  0  0
 49123  1  0  0  0
 50 51  1  0  0  0
 50124  1  0  0  0
 50125  1  0  0  0
 51 52  1  0  0  0
 51126  1  0  0  0
 51127  1  0  0  0
 52128  1  0  0  0
 52129  1  0  0  0
 53 54  1  0  0  0
 54 55  2  0  0  0
 54130  1  0  0  0
 55 57  1  0  0  0
 55131  1  0  0  0
 56 69  2  0  0  0
 57 58  2  0  0  0
 57132  1  0  0  0
 58133  1  0  0  0
 59 60  1  0  0  0
 59 61  1  0  0  0
 59 62  1  0  0  0
 60134  1  0  0  0
 60135  1  0  0  0
 60136  1  0  0  0
 61137  1  0  0  0
 61138  1  0  0  0
 61139  1  0  0  0
 62140  1  0  0  0
 62141  1  0  0  0
 62142  1  0  0  0
 63 65  1  0  0  0
 63143  1  0  0  0
 63144  1  0  0  0
 63145  1  0  0  0
 64146  1  0  0  0
 65147  1  0  0  0
 68 83  1  0  0  0
 71 72  2  0  0  0
 71 74  1  0  0  0
 71148  1  0  0  0
 72 76  1  0  0  0
 72149  1  0  0  0
 73 75  1  0  0  0
 73 76  2  0  0  0
 73150  1  0  0  0
 74 75  2  0  0  0
 74 79  1  0  0  0
 75 81  1  0  0  0
 76 88  1  0  0  0
 77 78  1  0  0  0
 77 79  1  0  0  0
 77151  1  0  0  0
 77152  1  0  0  0
 78 86  1  0  0  0
 78153  1  0  0  0
 78154  1  0  0  0
 79 80  1  0  0  0
 79155  1  0  0  0
 80 85  1  0  0  0
 80 86  1  0  0  0
 80156  1  0  0  0
 81157  1  0  0  0
 81158  1  0  0  0
 81159  1  0  0  0
 82160  1  0  0  0
 82161  1  0  0  0
 82162  1  0  0  0
 82 85  1  0  0  0
 83 84  1  0  0  0
 83163  1  0  0  0
 83164  1  0  0  0
 84 88  1  0  0  0
 84165  1  0  0  0
 84166  1  0  0  0
 85 87  1  0  0  0
 85167  1  0  0  0
 87168  1  0  0  0
M  ISO  4   1 100  68 101  83 101  86 100
M  END
> <chiral flag>
0

> <version>
0

> <s_m_source_file>
/data/baiqing/PycharmProjects/Reinvent-master-3.2/result/LINK_invent/BTK/process_docking_weight1_custom_sum_contain_oxygen_bond_distance_aromatic_linkinvent_7_9_3/rearranged_h_0144.sdf

> <i_m_source_file_index>
1

> <r_mmod_Potential_Energy-OPLS-2005>
202.113830566406

> <r_mmod_Stretch_Energy-OPLS-2005>
45.5288047790527

> <r_mmod_Bend_Energy-OPLS-2005>
151.226425170898

> <r_mmod_Torsional_Energy-OPLS-2005>
360.299530029297

> <r_mmod_Improper_Torsional_Energy-OPLS-2005>
18.2183380126953

> <r_mmod_Van_der_Waal_Energy-OPLS-2005>
150.752777099609

> <r_mmod_Electrostatic_Energy-OPLS-2005>
-346.016815185547

> <r_mmod_Solvation_Energy-OPLS-2005>
-205.776702880859

> <b_mmod_Minimization_Converged-OPLS-2005>
0

> <r_mmod_RMS_Derivative-OPLS-2005>
3.2491729259491

$$$$
1
                    3D
 Structure written by MMmdl.
177186  0  0  1  0            999 V2000
  -30.5922  -14.7741   20.4708 C   0  0  0  0  0  0
  -30.4362  -12.4827   19.4617 C   0  0  0  0  0  0
  -29.5062  -12.5165   18.2310 C   0  0  0  0  0  0
  -28.0311  -12.3353   18.6458 C   0  0  0  0  0  0
  -27.6370  -13.2329   19.8485 C   0  0  2  0  0  0
  -28.6873  -13.1665   20.9780 C   0  0  0  0  0  0
  -25.2484  -13.8171   20.5654 C   0  0  0  0  0  0
  -24.1799  -13.0415   20.9205 C   0  0  0  0  0  0
  -24.6400  -11.6894   20.8751 C   0  0  0  0  0  0
  -23.9040  -10.4296   21.0404 C   0  0  0  0  0  0
  -24.3595   -9.4220   21.9174 C   0  0  0  0  0  0
  -23.6285   -8.2253   22.0737 C   0  0  0  0  0  0
  -22.4264   -8.0275   21.3538 C   0  0  0  0  0  0
  -21.9898   -9.0242   20.4639 C   0  0  0  0  0  0
  -22.7217  -10.2134   20.3050 C   0  0  0  0  0  0
  -21.6849   -6.0737   22.5274 C   0  0  0  0  0  0
  -21.4031   -6.5650   23.8207 C   0  0  0  0  0  0
  -21.3660   -5.6812   24.9177 C   0  0  0  0  0  0
  -21.6028   -4.3067   24.7222 C   0  0  0  0  0  0
  -21.8822   -3.8154   23.4340 C   0  0  0  0  0  0
  -21.9199   -4.6969   22.3399 C   0  0  0  0  0  0
  -22.7816  -13.5177   21.1861 C   0  0  0  0  0  0
  -22.1641   -4.2173   21.0968 F   0  0  0  0  0  0
  -21.5623   -3.4534   25.7724 F   0  0  0  0  0  0
  -29.9818  -13.5422   20.3910 N   0  0  0  0  0  0
  -26.2924  -12.9381   20.3277 N   0  0  0  0  0  0
  -25.9338  -11.6514   20.5795 N   0  0  0  0  0  0
  -22.0476  -12.8187   22.0427 N   0  0  0  0  0  0
  -25.4125  -15.1898   20.3992 N   0  0  0  0  0  0
  -31.7916  -14.8873   20.1970 O   0  0  0  0  0  0
  -21.6625   -6.8879   21.4230 O   0  0  0  0  0  0
  -22.3484  -14.5471   20.6701 O   0  0  0  0  0  0
  -24.6325  -31.8524   23.1981 C   0  0  0  0  0  0
  -25.9147  -32.4744   23.8320 C   0  0  1  0  0  0
  -27.2336  -27.2476   20.1088 C   0  0  0  0  0  0
  -25.5943  -33.8544   24.2241 N   0  0  0  0  0  0
  -23.4312  -30.4765   21.5414 C   0  0  2  0  0  0
  -24.8822  -28.9262   20.1074 C   0  0  0  0  0  0
  -22.7509  -29.4581   22.4895 C   0  0  0  0  0  0
  -18.0292  -28.1389   22.8480 C   0  0  0  0  0  0
  -24.1496  -36.7278   23.2638 C   0  0  0  0  0  0
  -25.9809  -30.7565   21.3863 C   0  0  0  0  0  0
  -26.0542  -29.3801   20.7235 C   0  0  0  0  0  0
  -27.2262  -28.5514   20.7210 C   0  0  0  0  0  0
  -26.0300  -26.8722   19.4619 C   0  0  0  0  0  0
  -24.8774  -27.6793   19.4702 C   0  0  0  0  0  0
  -23.6515  -29.8133   20.1575 C   0  0  0  0  0  0
  -25.4121  -36.3055   24.0312 C   0  0  1  0  0  0
  -20.5899  -28.3694   23.1268 C   0  0  2  0  0  0
  -20.6786  -26.9408   22.5412 C   0  0  0  0  0  0
  -19.5762  -26.6379   21.5221 C   0  0  0  0  0  0
  -18.1940  -26.7932   22.1620 C   0  0  0  0  0  0
  -19.1549  -28.8860   23.2873 C   0  0  0  0  0  0
  -18.9466  -30.1465   23.8893 C   0  0  0  0  0  0
  -17.6463  -30.6591   24.0559 C   0  0  0  0  0  0
  -25.9064  -34.9426   23.5071 C   0  0  0  0  0  0
  -16.5354  -29.9084   23.6336 C   0  0  0  0  0  0
  -16.7280  -28.6504   23.0357 C   0  0  0  0  0  0
  -26.4502  -31.6591   25.0731 C   0  0  0  0  0  0
  -25.3712  -31.3776   26.1451 C   0  0  0  0  0  0
  -27.0365  -30.2992   24.6287 C   0  0  0  0  0  0
  -27.6026  -32.4364   25.7519 C   0  0  0  0  0  0
  -27.5579  -37.1791   24.8449 C   0  0  0  0  0  0
  -21.4216  -29.3039   22.3642 N   0  0  0  0  0  0
  -26.4296  -37.3753   23.9397 N   0  0  0  0  0  0
  -24.7002  -31.0478   22.0969 N   0  0  0  0  0  0
  -23.4200  -28.8101   23.2990 O   0  0  0  0  0  0
  -28.3308  -26.3399   20.2007 O   0  0  0  0  0  0
  -26.5637  -34.8898   22.4645 O   0  0  0  0  0  0
  -23.5474  -32.1354   23.7275 O   0  0  0  0  0  0
  -28.7670  -22.4310   20.1570 C   0  0  0  0  0  0
  -30.9952  -21.4902   20.2492 C   0  0  0  0  0  0
  -29.2717  -23.7762   19.8937 C   0  0  0  0  0  0
  -30.6804  -23.8963   19.7626 C   0  0  0  0  0  0
  -31.5360  -22.7809   20.0273 C   0  0  0  0  0  0
  -29.6100  -21.2508   20.3029 C   0  0  0  0  0  0
  -31.2618  -25.2145   19.2325 C   0  0  0  0  0  0
  -30.3372  -26.0534   18.3107 C   0  0  0  0  0  0
  -28.3703  -25.0282   19.4449 C   0  0  2  0  0  0
  -28.9141  -25.4793   18.0580 C   0  0  2  0  0  0
  -33.7096  -22.3456   18.7958 C   0  0  0  0  0  0
  -33.6793  -22.3067   21.3339 C   0  0  0  0  0  0
  -27.4076  -23.9393   16.6625 C   0  0  0  0  0  0
  -29.4748  -24.8632   15.6003 C   0  0  0  0  0  0
  -29.7371  -18.5944   20.0060 C   0  0  0  0  0  0
  -30.0918  -17.3611   21.0064 C   0  0  0  0  0  0
  -33.0635  -22.9204   20.0639 C   0  0  0  0  0  0
  -28.8540  -24.3948   16.9337 C   0  0  0  0  0  0
  -29.1497  -19.8942   20.5522 N   0  0  0  0  0  0
  -29.7899  -15.8910   20.6705 N   0  0  0  0  0  0
  -31.4699  -12.6303   19.1498 H   0  0  0  0  0  0
  -30.3973  -11.5059   19.9488 H   0  0  0  0  0  0
  -29.7977  -11.7410   17.5219 H   0  0  0  0  0  0
  -29.6272  -13.4682   17.7099 H   0  0  0  0  0  0
  -27.8910  -11.2871   18.9112 H   0  0  0  0  0  0
  -27.3689  -12.5237   17.7978 H   0  0  0  0  0  0
  -27.6267  -14.2567   19.4754 H   0  0  0  0  0  0
  -28.7382  -12.1635   21.4063 H   0  0  0  0  0  0
  -28.4253  -13.8391   21.7948 H   0  0  0  0  0  0
  -25.2719   -9.5730   22.4770 H   0  0  0  0  0  0
  -24.0031   -7.4642   22.7435 H   0  0  0  0  0  0
  -21.0839   -8.8709   19.8920 H   0  0  0  0  0  0
  -22.3611  -10.9666   19.6187 H   0  0  0  0  0  0
  -21.2025   -7.6157   23.9727 H   0  0  0  0  0  0
  -21.1473   -6.0521   25.9081 H   0  0  0  0  0  0
  -22.0607   -2.7609   23.2813 H   0  0  0  0  0  0
  -22.4082  -11.9880   22.4860 H   0  0  0  0  0  0
  -21.1090  -13.1202   22.2642 H   0  0  0  0  0  0
  -24.6266  -15.8254   20.4856 H   0  0  0  0  0  0
  -26.2393  -15.6305   20.0178 H   0  0  0  0  0  0
  -26.7203  -32.5378   23.1042 H   0  0  0  0  0  0
  -25.0068  -33.9689   25.0376 H   0  0  0  0  0  0
  -22.7276  -31.2990   21.3966 H   0  0  0  0  0  0
  -23.3761  -35.9610   23.3281 H   0  0  0  0  0  0
  -24.3585  -36.8935   22.2057 H   0  0  0  0  0  0
  -23.7260  -37.6468   23.6693 H   0  0  0  0  0  0
  -26.1333  -31.5188   20.6209 H   0  0  0  0  0  0
  -26.8515  -30.7962   22.0286 H   0  0  0  0  0  0
  -28.1178  -28.8940   21.2268 H   0  0  0  0  0  0
  -25.9164  -25.9305   18.9518 H   0  0  0  0  0  0
  -23.9804  -27.3248   18.9837 H   0  0  0  0  0  0
  -23.7726  -30.5912   19.4022 H   0  0  0  0  0  0
  -22.7691  -29.2474   19.8530 H   0  0  0  0  0  0
  -25.1321  -36.1870   25.0808 H   0  0  0  0  0  0
  -21.0013  -28.3279   24.1381 H   0  0  0  0  0  0
  -20.5704  -26.2293   23.3615 H   0  0  0  0  0  0
  -21.6642  -26.7433   22.1188 H   0  0  0  0  0  0
  -19.6913  -25.6289   21.1260 H   0  0  0  0  0  0
  -19.6719  -27.3182   20.6751 H   0  0  0  0  0  0
  -17.4214  -26.6689   21.4019 H   0  0  0  0  0  0
  -18.0328  -26.0087   22.9023 H   0  0  0  0  0  0
  -19.7946  -30.7289   24.2252 H   0  0  0  0  0  0
  -17.5017  -31.6278   24.5147 H   0  0  0  0  0  0
  -15.5357  -30.2975   23.7686 H   0  0  0  0  0  0
  -15.8675  -28.0824   22.7073 H   0  0  0  0  0  0
  -24.5833  -30.7201   25.7761 H   0  0  0  0  0  0
  -24.8986  -32.2980   26.4892 H   0  0  0  0  0  0
  -25.8000  -30.8900   27.0217 H   0  0  0  0  0  0
  -26.2971  -29.6723   24.1288 H   0  0  0  0  0  0
  -27.3978  -29.7283   25.4853 H   0  0  0  0  0  0
  -27.8882  -30.4232   23.9593 H   0  0  0  0  0  0
  -27.2574  -33.3637   26.2106 H   0  0  0  0  0  0
  -28.3829  -32.6983   25.0362 H   0  0  0  0  0  0
  -28.0709  -31.8509   26.5445 H   0  0  0  0  0  0
  -28.2567  -38.0116   24.7517 H   0  0  0  0  0  0
  -28.1112  -36.2641   24.6252 H   0  0  0  0  0  0
  -27.2303  -37.1402   25.8857 H   0  0  0  0  0  0
  -20.9395  -29.8733   21.6826 H   0  0  0  0  0  0
  -26.0159  -38.2817   24.1424 H   0  0  0  0  0  0
  -27.6954  -22.2961   20.1895 H   0  0  0  0  0  0
  -31.6671  -20.6569   20.3981 H   0  0  0  0  0  0
  -32.1636  -25.0101   18.6546 H   0  0  0  0  0  0
  -31.5798  -25.8161   20.0861 H   0  0  0  0  0  0
  -30.8503  -26.2847   17.3796 H   0  0  0  0  0  0
  -30.2329  -27.0368   18.7733 H   0  0  0  0  0  0
  -27.3716  -24.6115   19.3823 H   0  0  0  0  0  0
  -28.2991  -26.3061   17.6993 H   0  0  0  0  0  0
  -33.3514  -22.8630   17.9062 H   0  0  0  0  0  0
  -33.4822  -21.2860   18.6708 H   0  0  0  0  0  0
  -34.7948  -22.4513   18.8276 H   0  0  0  0  0  0
  -33.2239  -22.7313   22.2282 H   0  0  0  0  0  0
  -34.7479  -22.5165   21.3830 H   0  0  0  0  0  0
  -33.5613  -21.2237   21.3837 H   0  0  0  0  0  0
  -26.9671  -23.4413   17.5262 H   0  0  0  0  0  0
  -27.3661  -23.2253   15.8387 H   0  0  0  0  0  0
  -26.7660  -24.7821   16.3965 H   0  0  0  0  0  0
  -30.5541  -24.9924   15.6739 H   0  0  0  0  0  0
  -29.0416  -25.8050   15.2607 H   0  0  0  0  0  0
  -29.3191  -24.1258   14.8117 H   0  0  0  0  0  0
  -29.0170  -18.2340   19.2706 H   0  0  0  0  0  0
  -30.6331  -18.8226   19.4284 H   0  0  0  0  0  0
  -29.5484  -17.5461   21.9318 H   0  0  0  0  0  0
  -31.1416  -17.4397   21.2930 H   0  0  0  0  0  0
  -33.3306  -23.9736   20.1227 H   0  0  0  0  0  0
  -29.4214  -23.5188   17.2463 H   0  0  0  0  0  0
  -28.1548  -19.8274   20.7591 H   0  0  0  0  0  0
  -28.8156  -15.6538   20.7740 H   0  0  0  0  0  0
  1 25  1  0  0  0
  1 30  2  0  0  0
  1 90  1  0  0  0
  2  3  1  0  0  0
  2 25  1  0  0  0
  2 91  1  0  0  0
  2 92  1  0  0  0
  3  4  1  0  0  0
  3 93  1  0  0  0
  3 94  1  0  0  0
  4  5  1  0  0  0
  4 95  1  0  0  0
  4 96  1  0  0  0
  5  6  1  0  0  0
  5 26  1  0  0  0
  5 97  1  0  0  0
  6 25  1  0  0  0
  6 98  1  0  0  0
  6 99  1  0  0  0
  7  8  2  0  0  0
  7 26  1  0  0  0
  7 29  1  0  0  0
  8  9  1  0  0  0
  8 22  1  0  0  0
  9 10  1  0  0  0
  9 27  2  0  0  0
 10 11  2  0  0  0
 10 15  1  0  0  0
 11 12  1  0  0  0
 11100  1  0  0  0
 12 13  2  0  0  0
 12101  1  0  0  0
 13 14  1  0  0  0
 13 31  1  0  0  0
 14 15  2  0  0  0
 14102  1  0  0  0
 15103  1  0  0  0
 16 17  2  0  0  0
 16 21  1  0  0  0
 16 31  1  0  0  0
 17 18  1  0  0  0
 17104  1  0  0  0
 18 19  2  0  0  0
 18105  1  0  0  0
 19 20  1  0  0  0
 19 24  1  0  0  0
 20 21  2  0  0  0
 20106  1  0  0  0
 21 23  1  0  0  0
 22 28  1  0  0  0
 22 32  2  0  0  0
 26 27  1  0  0  0
 28107  1  0  0  0
 28108  1  0  0  0
 29109  1  0  0  0
 29110  1  0  0  0
 33 34  1  0  0  0
 33 66  1  0  0  0
 33 70  2  0  0  0
 34 36  1  0  0  0
 34 59  1  0  0  0
 34111  1  0  0  0
 35 44  2  0  0  0
 35 45  1  0  0  0
 35 68  1  0  0  0
 36 56  1  0  0  0
 36112  1  0  0  0
 37 39  1  0  0  0
 37 47  1  0  0  0
 37 66  1  0  0  0
 37113  1  0  0  0
 38 43  2  0  0  0
 38 46  1  0  0  0
 38 47  1  0  0  0
 39 64  1  0  0  0
 39 67  2  0  0  0
 40 52  1  0  0  0
 40 53  2  0  0  0
 40 58  1  0  0  0
 41114  1  0  0  0
 41115  1  0  0  0
 41116  1  0  0  0
 41 48  1  0  0  0
 42 43  1  0  0  0
 42 66  1  0  0  0
 42117  1  0  0  0
 42118  1  0  0  0
 43 44  1  0  0  0
 44119  1  0  0  0
 45 46  2  0  0  0
 45120  1  0  0  0
 46121  1  0  0  0
 47122  1  0  0  0
 47123  1  0  0  0
 48 56  1  0  0  0
 48 65  1  0  0  0
 48124  1  0  0  0
 49 50  1  0  0  0
 49 53  1  0  0  0
 49 64  1  0  0  0
 49125  1  0  0  0
 50 51  1  0  0  0
 50126  1  0  0  0
 50127  1  0  0  0
 51 52  1  0  0  0
 51128  1  0  0  0
 51129  1  0  0  0
 52130  1  0  0  0
 52131  1  0  0  0
 53 54  1  0  0  0
 54 55  2  0  0  0
 54132  1  0  0  0
 55 57  1  0  0  0
 55133  1  0  0  0
 56 69  2  0  0  0
 57 58  2  0  0  0
 57134  1  0  0  0
 58135  1  0  0  0
 59 60  1  0  0  0
 59 61  1  0  0  0
 59 62  1  0  0  0
 60136  1  0  0  0
 60137  1  0  0  0
 60138  1  0  0  0
 61139  1  0  0  0
 61140  1  0  0  0
 61141  1  0  0  0
 62142  1  0  0  0
 62143  1  0  0  0
 62144  1  0  0  0
 63 65  1  0  0  0
 63145  1  0  0  0
 63146  1  0  0  0
 63147  1  0  0  0
 64148  1  0  0  0
 65149  1  0  0  0
 68 79  1  0  0  0
 71 73  2  0  0  0
 71 76  1  0  0  0
 71150  1  0  0  0
 72 75  1  0  0  0
 72 76  2  0  0  0
 72151  1  0  0  0
 73 74  1  0  0  0
 73 79  1  0  0  0
 74 75  2  0  0  0
 74 77  1  0  0  0
 75 87  1  0  0  0
 76 89  1  0  0  0
 77 78  1  0  0  0
 77152  1  0  0  0
 77153  1  0  0  0
 78154  1  0  0  0
 78155  1  0  0  0
 78 80  1  0  0  0
 79 80  1  0  0  0
 79156  1  0  0  0
 80 88  1  0  0  0
 80157  1  0  0  0
 81158  1  0  0  0
 81159  1  0  0  0
 81160  1  0  0  0
 81 87  1  0  0  0
 82 87  1  0  0  0
 82161  1  0  0  0
 82162  1  0  0  0
 82163  1  0  0  0
 83164  1  0  0  0
 83165  1  0  0  0
 83166  1  0  0  0
 83 88  1  0  0  0
 84 88  1  0  0  0
 84167  1  0  0  0
 84168  1  0  0  0
 84169  1  0  0  0
 85 86  1  0  0  0
 85 89  1  0  0  0
 85170  1  0  0  0
 85171  1  0  0  0
 86 90  1  0  0  0
 86172  1  0  0  0
 86173  1  0  0  0
 87174  1  0  0  0
 88175  1  0  0  0
 89176  1  0  0  0
 90177  1  0  0  0
M  ISO  4   1 100  68 101  79 101  90 100
M  END
> <chiral flag>
0

> <version>
0

> <s_m_source_file>
/data/baiqing/PycharmProjects/Reinvent-master-3.2/result/LINK_invent/BTK/process_docking_weight1_custom_sum_contain_oxygen_bond_distance_aromatic_linkinvent_7_9_3/rearranged_h_0144.sdf

> <i_m_source_file_index>
2

> <r_mmod_Potential_Energy-OPLS-2005>
224.789672851562

> <r_mmod_Stretch_Energy-OPLS-2005>
142.30061340332

> <r_mmod_Bend_Energy-OPLS-2005>
213.277145385742

> <r_mmod_Torsional_Energy-OPLS-2005>
253.49934387207

> <r_mmod_Improper_Torsional_Energy-OPLS-2005>
8.83537578582764

> <r_mmod_Van_der_Waal_Energy-OPLS-2005>
152.67317199707

> <r_mmod_Electrostatic_Energy-OPLS-2005>
-430.950347900391

> <r_mmod_Solvation_Energy-OPLS-2005>
-213.625946044922

> <b_mmod_Minimization_Converged-OPLS-2005>
0

> <r_mmod_RMS_Derivative-OPLS-2005>
3.47839856147766

$$$$
2
                    3D
 Structure written by MMmdl.
170180  0  0  1  0            999 V2000
  -30.7402  -14.4829   20.5030 C   0  0  0  0  0  0
  -30.4015  -12.2971   19.4192 C   0  0  0  0  0  0
  -29.4888  -12.5065   18.1953 C   0  0  0  0  0  0
  -28.0100  -12.3718   18.6032 C   0  0  0  0  0  0
  -27.6565  -13.2139   19.8621 C   0  0  2  0  0  0
  -28.7047  -13.0492   20.9845 C   0  0  0  0  0  0
  -25.2555  -13.8096   20.5572 C   0  0  0  0  0  0
  -24.1842  -13.0402   20.9165 C   0  0  0  0  0  0
  -24.6405  -11.6872   20.8735 C   0  0  0  0  0  0
  -23.9038  -10.4284   21.0381 C   0  0  0  0  0  0
  -24.3587   -9.4213   21.9166 C   0  0  0  0  0  0
  -23.6302   -8.2237   22.0728 C   0  0  0  0  0  0
  -22.4298   -8.0253   21.3530 C   0  0  0  0  0  0
  -21.9911   -9.0228   20.4639 C   0  0  0  0  0  0
  -22.7196  -10.2127   20.3067 C   0  0  0  0  0  0
  -21.6887   -6.0691   22.5249 C   0  0  0  0  0  0
  -21.4021   -6.5598   23.8167 C   0  0  0  0  0  0
  -21.3690   -5.6779   24.9138 C   0  0  0  0  0  0
  -21.6085   -4.3049   24.7208 C   0  0  0  0  0  0
  -21.8821   -3.8111   23.4330 C   0  0  0  0  0  0
  -21.9211   -4.6915   22.3380 C   0  0  0  0  0  0
  -22.7874  -13.5229   21.1846 C   0  0  0  0  0  0
  -22.1667   -4.2062   21.0972 F   0  0  0  0  0  0
  -21.5676   -3.4549   25.7724 F   0  0  0  0  0  0
  -30.0295  -13.3254   20.4046 N   0  0  0  0  0  0
  -26.3018  -12.9298   20.3314 N   0  0  0  0  0  0
  -25.9345  -11.6445   20.5739 N   0  0  0  0  0  0
  -22.0578  -12.8183   22.0418 N   0  0  0  0  0  0
  -25.4207  -15.1765   20.3720 N   0  0  0  0  0  0
  -31.9320  -14.5407   20.1738 O   0  0  0  0  0  0
  -21.6688   -6.8830   21.4214 O   0  0  0  0  0  0
  -22.3526  -14.5551   20.6729 O   0  0  0  0  0  0
  -24.6116  -31.8695   23.2124 C   0  0  0  0  0  0
  -25.9017  -32.4834   23.8407 C   0  0  1  0  0  0
  -27.2205  -27.4376   20.1175 C   0  0  0  0  0  0
  -25.5893  -33.8643   24.2344 N   0  0  0  0  0  0
  -23.4003  -30.4939   21.5499 C   0  0  2  0  0  0
  -24.8469  -28.9603   20.1138 C   0  0  0  0  0  0
  -22.7402  -29.4664   22.4964 C   0  0  0  0  0  0
  -18.0278  -28.1416   22.8486 C   0  0  0  0  0  0
  -24.1488  -36.7327   23.2637 C   0  0  0  0  0  0
  -25.9251  -30.8374   21.3641 C   0  0  0  0  0  0
  -26.0024  -29.4685   20.7227 C   0  0  0  0  0  0
  -27.1942  -28.7088   20.7299 C   0  0  0  0  0  0
  -26.0572  -26.9409   19.4955 C   0  0  0  0  0  0
  -24.8679  -27.6971   19.4972 C   0  0  0  0  0  0
  -23.6098  -29.8297   20.1624 C   0  0  0  0  0  0
  -25.4108  -36.3123   24.0340 C   0  0  1  0  0  0
  -20.5866  -28.3690   23.1331 C   0  0  2  0  0  0
  -20.6791  -26.9429   22.5430 C   0  0  0  0  0  0
  -19.5772  -26.6413   21.5233 C   0  0  0  0  0  0
  -18.1943  -26.7966   22.1617 C   0  0  0  0  0  0
  -19.1526  -28.8867   23.2913 C   0  0  0  0  0  0
  -18.9442  -30.1479   23.8918 C   0  0  0  0  0  0
  -17.6447  -30.6604   24.0584 C   0  0  0  0  0  0
  -25.9021  -34.9483   23.5137 C   0  0  0  0  0  0
  -16.5344  -29.9107   23.6343 C   0  0  0  0  0  0
  -16.7272  -28.6541   23.0333 C   0  0  0  0  0  0
  -26.4463  -31.6602   25.0715 C   0  0  0  0  0  0
  -25.3738  -31.3701   26.1471 C   0  0  0  0  0  0
  -27.0287  -30.3051   24.6062 C   0  0  0  0  0  0
  -27.6072  -32.4296   25.7451 C   0  0  0  0  0  0
  -27.5585  -37.1821   24.8454 C   0  0  0  0  0  0
  -21.4120  -29.3031   22.3702 N   0  0  0  0  0  0
  -26.4293  -37.3802   23.9405 N   0  0  0  0  0  0
  -24.6648  -31.0809   22.1005 N   0  0  0  0  0  0
  -23.4174  -28.8228   23.3009 O   0  0  0  0  0  0
  -28.3630  -26.6767   20.1012 O   0  0  0  0  0  0
  -26.5571  -34.8924   22.4674 O   0  0  0  0  0  0
  -23.5323  -32.1412   23.7515 O   0  0  0  0  0  0
  -29.9123  -19.8230   21.6701 C   0  0  0  0  0  0
  -28.9398  -19.6399   20.6539 C   0  0  0  0  0  0
  -29.6606  -22.2273   21.5518 C   0  0  0  0  0  0
  -28.7580  -22.0838   20.5086 C   0  0  0  0  0  0
  -30.2617  -21.1046   22.1492 C   0  0  0  0  0  0
  -28.3807  -20.8065   20.0269 C   0  0  0  0  0  0
  -29.8560  -23.6776   21.9160 C   0  0  0  0  0  0
  -28.2500  -23.4378   20.0482 C   0  0  0  0  0  0
  -29.2108  -17.5462   19.1414 C   0  0  0  0  0  0
  -28.4022  -17.2320   21.5592 C   0  0  0  0  0  0
  -30.4247  -16.6965   19.5610 C   0  0  0  0  0  0
  -29.6203  -16.2869   21.7663 C   0  0  0  0  0  0
  -28.4766  -18.1991   20.3312 C   0  0  0  0  0  0
  -29.1716  -24.4642   20.7656 C   0  0  1  0  0  0
  -31.2154  -21.2522   23.3199 C   0  0  0  0  0  0
  -27.3809  -20.7627   18.8749 C   0  0  0  0  0  0
  -28.4874  -25.7781   21.2090 C   0  0  0  0  0  0
  -30.0199  -15.6370   20.5065 N   0  0  0  0  0  0
  -31.4520  -12.3465   19.1261 H   0  0  0  0  0  0
  -30.2428  -11.3000   19.8409 H   0  0  0  0  0  0
  -29.7333  -11.7938   17.4077 H   0  0  0  0  0  0
  -29.6511  -13.4975   17.7677 H   0  0  0  0  0  0
  -27.8128  -11.3182   18.7905 H   0  0  0  0  0  0
  -27.3599  -12.6518   17.7681 H   0  0  0  0  0  0
  -27.6818  -14.2559   19.5506 H   0  0  0  0  0  0
  -28.6738  -12.0462   21.4074 H   0  0  0  0  0  0
  -28.4790  -13.7230   21.8089 H   0  0  0  0  0  0
  -25.2686   -9.5761   22.4747 H   0  0  0  0  0  0
  -24.0038   -7.4649   22.7458 H   0  0  0  0  0  0
  -21.0841   -8.8729   19.8960 H   0  0  0  0  0  0
  -22.3581  -10.9675   19.6231 H   0  0  0  0  0  0
  -21.1978   -7.6104   23.9598 H   0  0  0  0  0  0
  -21.1554   -6.0535   25.9038 H   0  0  0  0  0  0
  -22.0590   -2.7568   23.2848 H   0  0  0  0  0  0
  -22.4266  -11.9832   22.4714 H   0  0  0  0  0  0
  -21.1241  -13.1229   22.2739 H   0  0  0  0  0  0
  -24.6290  -15.8094   20.3644 H   0  0  0  0  0  0
  -26.2443  -15.5698   19.9361 H   0  0  0  0  0  0
  -26.7085  -32.5560   23.1186 H   0  0  0  0  0  0
  -25.0088  -33.9823   25.0529 H   0  0  0  0  0  0
  -22.6881  -31.3092   21.4140 H   0  0  0  0  0  0
  -23.3743  -35.9664   23.3308 H   0  0  0  0  0  0
  -24.3589  -36.8922   22.2045 H   0  0  0  0  0  0
  -23.7245  -37.6545   23.6634 H   0  0  0  0  0  0
  -26.0233  -31.5955   20.5865 H   0  0  0  0  0  0
  -26.8192  -30.9035   21.9719 H   0  0  0  0  0  0
  -28.0842  -29.0829   21.2165 H   0  0  0  0  0  0
  -26.0696  -25.9687   19.0222 H   0  0  0  0  0  0
  -23.9801  -27.3094   19.0164 H   0  0  0  0  0  0
  -23.7204  -30.6055   19.4032 H   0  0  0  0  0  0
  -22.7345  -29.2491   19.8646 H   0  0  0  0  0  0
  -25.1285  -36.1995   25.0836 H   0  0  0  0  0  0
  -20.9977  -28.3280   24.1448 H   0  0  0  0  0  0
  -20.5778  -26.2279   23.3604 H   0  0  0  0  0  0
  -21.6662  -26.7541   22.1182 H   0  0  0  0  0  0
  -19.6948  -25.6331   21.1257 H   0  0  0  0  0  0
  -19.6745  -27.3234   20.6772 H   0  0  0  0  0  0
  -17.4233  -26.6736   21.3992 H   0  0  0  0  0  0
  -18.0319  -26.0119   22.9014 H   0  0  0  0  0  0
  -19.7919  -30.7301   24.2288 H   0  0  0  0  0  0
  -17.5000  -31.6283   24.5192 H   0  0  0  0  0  0
  -15.5345  -30.3006   23.7684 H   0  0  0  0  0  0
  -15.8676  -28.0891   22.6998 H   0  0  0  0  0  0
  -24.5914  -30.7060   25.7791 H   0  0  0  0  0  0
  -24.8927  -32.2851   26.4927 H   0  0  0  0  0  0
  -25.8088  -30.8854   27.0220 H   0  0  0  0  0  0
  -26.2816  -29.6812   24.1149 H   0  0  0  0  0  0
  -27.4104  -29.7291   25.4502 H   0  0  0  0  0  0
  -27.8626  -30.4378   23.9168 H   0  0  0  0  0  0
  -27.2734  -33.3582   26.2087 H   0  0  0  0  0  0
  -28.3838  -32.6872   25.0241 H   0  0  0  0  0  0
  -28.0792  -31.8380   26.5303 H   0  0  0  0  0  0
  -28.2607  -38.0116   24.7507 H   0  0  0  0  0  0
  -28.1078  -36.2650   24.6269 H   0  0  0  0  0  0
  -27.2313  -37.1465   25.8860 H   0  0  0  0  0  0
  -20.9286  -29.8650   21.6844 H   0  0  0  0  0  0
  -26.0186  -38.2881   24.1416 H   0  0  0  0  0  0
  -30.3674  -18.9630   22.1336 H   0  0  0  0  0  0
  -30.9111  -23.9358   22.0180 H   0  0  0  0  0  0
  -29.3586  -23.8584   22.8721 H   0  0  0  0  0  0
  -27.2138  -23.5444   20.3720 H   0  0  0  0  0  0
  -28.2714  -23.5553   18.9648 H   0  0  0  0  0  0
  -28.5206  -16.8787   18.6202 H   0  0  0  0  0  0
  -29.4945  -18.3014   18.4074 H   0  0  0  0  0  0
  -28.1908  -17.7884   22.4725 H   0  0  0  0  0  0
  -27.5329  -16.5887   21.4240 H   0  0  0  0  0  0
  -31.1953  -17.3239   20.0150 H   0  0  0  0  0  0
  -30.8773  -16.2758   18.6593 H   0  0  0  0  0  0
  -29.3972  -15.5600   22.5476 H   0  0  0  0  0  0
  -30.4793  -16.8365   22.1513 H   0  0  0  0  0  0
  -27.4370  -18.3121   20.0279 H   0  0  0  0  0  0
  -29.9668  -24.7134   20.0635 H   0  0  0  0  0  0
  -31.5512  -20.2813   23.6871 H   0  0  0  0  0  0
  -30.7133  -21.7568   24.1467 H   0  0  0  0  0  0
  -32.0961  -21.8320   23.0403 H   0  0  0  0  0  0
  -27.1275  -19.7686   18.5221 H   0  0  0  0  0  0
  -27.7878  -21.3052   18.0213 H   0  0  0  0  0  0
  -26.4581  -21.2677   19.1596 H   0  0  0  0  0  0
  -29.1047  -26.2734   21.9591 H   0  0  0  0  0  0
  -27.5318  -25.5659   21.6945 H   0  0  0  0  0  0
  1 25  1  0  0  0
  1 30  2  0  0  0
  1 88  1  0  0  0
  2  3  1  0  0  0
  2 25  1  0  0  0
  2 89  1  0  0  0
  2 90  1  0  0  0
  3  4  1  0  0  0
  3 91  1  0  0  0
  3 92  1  0  0  0
  4  5  1  0  0  0
  4 93  1  0  0  0
  4 94  1  0  0  0
  5  6  1  0  0  0
  5 26  1  0  0  0
  5 95  1  0  0  0
  6 25  1  0  0  0
  6 96  1  0  0  0
  6 97  1  0  0  0
  7  8  2  0  0  0
  7 26  1  0  0  0
  7 29  1  0  0  0
  8  9  1  0  0  0
  8 22  1  0  0  0
  9 10  1  0  0  0
  9 27  2  0  0  0
 10 11  2  0  0  0
 10 15  1  0  0  0
 11 12  1  0  0  0
 11 98  1  0  0  0
 12 13  2  0  0  0
 12 99  1  0  0  0
 13 14  1  0  0  0
 13 31  1  0  0  0
 14 15  2  0  0  0
 14100  1  0  0  0
 15101  1  0  0  0
 16 17  2  0  0  0
 16 21  1  0  0  0
 16 31  1  0  0  0
 17 18  1  0  0  0
 17102  1  0  0  0
 18 19  2  0  0  0
 18103  1  0  0  0
 19 20  1  0  0  0
 19 24  1  0  0  0
 20 21  2  0  0  0
 20104  1  0  0  0
 21 23  1  0  0  0
 22 28  1  0  0  0
 22 32  2  0  0  0
 26 27  1  0  0  0
 28105  1  0  0  0
 28106  1  0  0  0
 29107  1  0  0  0
 29108  1  0  0  0
 33 34  1  0  0  0
 33 66  1  0  0  0
 33 70  2  0  0  0
 34 36  1  0  0  0
 34 59  1  0  0  0
 34109  1  0  0  0
 35 44  2  0  0  0
 35 45  1  0  0  0
 35 68  1  0  0  0
 36 56  1  0  0  0
 36110  1  0  0  0
 37 39  1  0  0  0
 37 47  1  0  0  0
 37 66  1  0  0  0
 37111  1  0  0  0
 38 43  2  0  0  0
 38 46  1  0  0  0
 38 47  1  0  0  0
 39 64  1  0  0  0
 39 67  2  0  0  0
 40 52  1  0  0  0
 40 53  2  0  0  0
 40 58  1  0  0  0
 41112  1  0  0  0
 41113  1  0  0  0
 41114  1  0  0  0
 41 48  1  0  0  0
 42 43  1  0  0  0
 42 66  1  0  0  0
 42115  1  0  0  0
 42116  1  0  0  0
 43 44  1  0  0  0
 44117  1  0  0  0
 45 46  2  0  0  0
 45118  1  0  0  0
 46119  1  0  0  0
 47120  1  0  0  0
 47121  1  0  0  0
 48 56  1  0  0  0
 48 65  1  0  0  0
 48122  1  0  0  0
 49 50  1  0  0  0
 49 53  1  0  0  0
 49 64  1  0  0  0
 49123  1  0  0  0
 50 51  1  0  0  0
 50124  1  0  0  0
 50125  1  0  0  0
 51 52  1  0  0  0
 51126  1  0  0  0
 51127  1  0  0  0
 52128  1  0  0  0
 52129  1  0  0  0
 53 54  1  0  0  0
 54 55  2  0  0  0
 54130  1  0  0  0
 55 57  1  0  0  0
 55131  1  0  0  0
 56 69  2  0  0  0
 57 58  2  0  0  0
 57132  1  0  0  0
 58133  1  0  0  0
 59 60  1  0  0  0
 59 61  1  0  0  0
 59 62  1  0  0  0
 60134  1  0  0  0
 60135  1  0  0  0
 60136  1  0  0  0
 61137  1  0  0  0
 61138  1  0  0  0
 61139  1  0  0  0
 62140  1  0  0  0
 62141  1  0  0  0
 62142  1  0  0  0
 63 65  1  0  0  0
 63143  1  0  0  0
 63144  1  0  0  0
 63145  1  0  0  0
 64146  1  0  0  0
 65147  1  0  0  0
 68 87  1  0  0  0
 71 72  2  0  0  0
 71 75  1  0  0  0
 71148  1  0  0  0
 72 76  1  0  0  0
 72 83  1  0  0  0
 73 74  1  0  0  0
 73 75  2  0  0  0
 73 77  1  0  0  0
 74 76  2  0  0  0
 74 78  1  0  0  0
 75 85  1  0  0  0
 76 86  1  0  0  0
 77 84  1  0  0  0
 77149  1  0  0  0
 77150  1  0  0  0
 78 84  1  0  0  0
 78151  1  0  0  0
 78152  1  0  0  0
 79 81  1  0  0  0
 79 83  1  0  0  0
 79153  1  0  0  0
 79154  1  0  0  0
 80 82  1  0  0  0
 80 83  1  0  0  0
 80155  1  0  0  0
 80156  1  0  0  0
 81 88  1  0  0  0
 81157  1  0  0  0
 81158  1  0  0  0
 82 88  1  0  0  0
 82159  1  0  0  0
 82160  1  0  0  0
 83161  1  0  0  0
 84 87  1  0  0  0
 84162  1  0  0  0
 85163  1  0  0  0
 85164  1  0  0  0
 85165  1  0  0  0
 86166  1  0  0  0
 86167  1  0  0  0
 86168  1  0  0  0
 87169  1  0  0  0
 87170  1  0  0  0
M  ISO  4   1 100  68 101  87 101  88 100
M  END
> <chiral flag>
0

> <version>
0

> <s_m_source_file>
/data/baiqing/PycharmProjects/Reinvent-master-3.2/result/LINK_invent/BTK/process_docking_weight1_custom_sum_contain_oxygen_bond_distance_aromatic_linkinvent_7_9_3/rearranged_h_0144.sdf

> <i_m_source_file_index>
3

> <r_mmod_Potential_Energy-OPLS-2005>
228.087265014648

> <r_mmod_Stretch_Energy-OPLS-2005>
44.0086860656738

> <r_mmod_Bend_Energy-OPLS-2005>
149.795455932617

> <r_mmod_Torsional_Energy-OPLS-2005>
360.520446777344

> <r_mmod_Improper_Torsional_Energy-OPLS-2005>
19.4398365020752

> <r_mmod_Van_der_Waal_Energy-OPLS-2005>
145.56770324707

> <r_mmod_Electrostatic_Energy-OPLS-2005>
-322.792266845703

> <r_mmod_Solvation_Energy-OPLS-2005>
-189.570068359375

> <b_mmod_Minimization_Converged-OPLS-2005>
0

> <r_mmod_RMS_Derivative-OPLS-2005>
5.59341382980347

$$$$
3
                    3D
 Structure written by MMmdl.
168178  0  0  1  0            999 V2000
  -30.7708  -14.4025   20.6649 C   0  0  0  0  0  0
  -30.3909  -12.3233   19.3869 C   0  0  0  0  0  0
  -29.5009  -12.6161   18.1700 C   0  0  0  0  0  0
  -28.0100  -12.5008   18.5323 C   0  0  0  0  0  0
  -27.6548  -13.2400   19.8529 C   0  0  2  0  0  0
  -28.6850  -12.9801   20.9699 C   0  0  0  0  0  0
  -25.2542  -13.8248   20.5553 C   0  0  0  0  0  0
  -24.1848  -13.0445   20.9128 C   0  0  0  0  0  0
  -24.6447  -11.6949   20.8574 C   0  0  0  0  0  0
  -23.9104  -10.4319   21.0317 C   0  0  0  0  0  0
  -24.3654   -9.4251   21.9073 C   0  0  0  0  0  0
  -23.6333   -8.2290   22.0674 C   0  0  0  0  0  0
  -22.4283   -8.0290   21.3532 C   0  0  0  0  0  0
  -21.9940   -9.0261   20.4610 C   0  0  0  0  0  0
  -22.7322  -10.2101   20.2992 C   0  0  0  0  0  0
  -21.6866   -6.0749   22.5284 C   0  0  0  0  0  0
  -21.4024   -6.5682   23.8222 C   0  0  0  0  0  0
  -21.3659   -5.6808   24.9198 C   0  0  0  0  0  0
  -21.6041   -4.3079   24.7206 C   0  0  0  0  0  0
  -21.8821   -3.8167   23.4333 C   0  0  0  0  0  0
  -21.9223   -4.7006   22.3406 C   0  0  0  0  0  0
  -22.7843  -13.5190   21.1896 C   0  0  0  0  0  0
  -22.1678   -4.2170   21.0989 F   0  0  0  0  0  0
  -21.5613   -3.4570   25.7735 F   0  0  0  0  0  0
  -30.0316  -13.2750   20.4445 N   0  0  0  0  0  0
  -26.2986  -12.9446   20.3096 N   0  0  0  0  0  0
  -25.9351  -11.6557   20.5400 N   0  0  0  0  0  0
  -22.0556  -12.8089   22.0438 N   0  0  0  0  0  0
  -25.4281  -15.1940   20.3983 N   0  0  0  0  0  0
  -31.7677  -14.6930   19.9974 O   0  0  0  0  0  0
  -21.6678   -6.8872   21.4219 O   0  0  0  0  0  0
  -22.3484  -14.5470   20.6771 O   0  0  0  0  0  0
  -24.6142  -31.8676   23.2088 C   0  0  0  0  0  0
  -25.9029  -32.4836   23.8386 C   0  0  1  0  0  0
  -27.2338  -27.4212   20.1409 C   0  0  0  0  0  0
  -25.5876  -33.8640   24.2322 N   0  0  0  0  0  0
  -23.4042  -30.4882   21.5462 C   0  0  2  0  0  0
  -24.8565  -28.9514   20.1165 C   0  0  0  0  0  0
  -22.7412  -29.4651   22.4968 C   0  0  0  0  0  0
  -18.0274  -28.1372   22.8497 C   0  0  0  0  0  0
  -24.1480  -36.7329   23.2637 C   0  0  0  0  0  0
  -25.9290  -30.8408   21.3561 C   0  0  0  0  0  0
  -26.0131  -29.4688   20.7156 C   0  0  0  0  0  0
  -27.2068  -28.7089   20.7267 C   0  0  0  0  0  0
  -26.0715  -26.9281   19.5141 C   0  0  0  0  0  0
  -24.8799  -27.6810   19.5125 C   0  0  0  0  0  0
  -23.6151  -29.8158   20.1626 C   0  0  0  0  0  0
  -25.4102  -36.3129   24.0339 C   0  0  1  0  0  0
  -20.5860  -28.3666   23.1316 C   0  0  2  0  0  0
  -20.6764  -26.9400   22.5424 C   0  0  0  0  0  0
  -19.5743  -26.6380   21.5221 C   0  0  0  0  0  0
  -18.1917  -26.7920   22.1624 C   0  0  0  0  0  0
  -19.1521  -28.8842   23.2900 C   0  0  0  0  0  0
  -18.9443  -30.1447   23.8916 C   0  0  0  0  0  0
  -17.6445  -30.6584   24.0563 C   0  0  0  0  0  0
  -25.9026  -34.9483   23.5132 C   0  0  0  0  0  0
  -16.5338  -29.9083   23.6324 C   0  0  0  0  0  0
  -16.7264  -28.6493   23.0356 C   0  0  0  0  0  0
  -26.4453  -31.6615   25.0708 C   0  0  0  0  0  0
  -25.3722  -31.3721   26.1461 C   0  0  0  0  0  0
  -27.0277  -30.3069   24.6046 C   0  0  0  0  0  0
  -27.6026  -32.4329   25.7471 C   0  0  0  0  0  0
  -27.5580  -37.1815   24.8460 C   0  0  0  0  0  0
  -21.4138  -29.3036   22.3723 N   0  0  0  0  0  0
  -26.4296  -37.3805   23.9401 N   0  0  0  0  0  0
  -24.6671  -31.0777   22.0979 N   0  0  0  0  0  0
  -23.4180  -28.8208   23.3026 O   0  0  0  0  0  0
  -28.3559  -26.6254   20.1988 O   0  0  0  0  0  0
  -26.5579  -34.8934   22.4692 O   0  0  0  0  0  0
  -23.5328  -32.1407   23.7481 O   0  0  0  0  0  0
  -29.0075  -20.8972   20.9647 C   0  0  0  0  0  0
  -29.4506  -19.5742   21.1965 C   0  0  0  0  0  0
  -28.5236  -21.1391   23.3126 C   0  0  0  0  0  0
  -28.5187  -21.7029   22.0191 C   0  0  0  0  0  0
  -29.4090  -18.9901   22.4872 C   0  0  0  0  0  0
  -28.9510  -19.8105   23.5615 C   0  0  0  0  0  0
  -29.7802  -15.3931   24.0739 C   0  0  0  0  0  0
  -29.0062  -16.6384   23.6104 C   0  0  0  0  0  0
  -27.2699  -23.4528   20.4946 C   0  0  0  0  0  0
  -30.7635  -14.8693   23.0190 C   0  0  0  0  0  0
  -30.2305  -16.6861   21.4247 C   0  0  0  0  0  0
  -27.9295  -23.0983   21.8074 C   0  0  2  0  0  0
  -29.9062  -17.5286   22.7118 C   0  0  1  0  0  0
  -28.4992  -24.2210   20.9277 C   0  0  2  0  0  0
  -27.8645  -19.5811   25.6907 C   0  0  0  0  0  0
  -28.3601  -25.7046   21.3156 C   0  0  0  0  0  0
  -30.3519  -15.2233   21.6579 N   0  0  0  0  0  0
  -28.9979  -19.3370   24.8514 O   0  0  0  0  0  0
  -31.4495  -12.3793   19.1262 H   0  0  0  0  0  0
  -30.2254  -11.2993   19.7091 H   0  0  0  0  0  0
  -29.7508  -11.9567   17.3370 H   0  0  0  0  0  0
  -29.6926  -13.6314   17.8213 H   0  0  0  0  0  0
  -27.7336  -11.4485   18.5459 H   0  0  0  0  0  0
  -27.4359  -12.9361   17.7137 H   0  0  0  0  0  0
  -27.7132  -14.3052   19.6213 H   0  0  0  0  0  0
  -28.6239  -11.9448   21.3043 H   0  0  0  0  0  0
  -28.4138  -13.5791   21.8360 H   0  0  0  0  0  0
  -25.2837   -9.5670   22.4558 H   0  0  0  0  0  0
  -24.0077   -7.4717   22.7392 H   0  0  0  0  0  0
  -21.0889   -8.8747   19.8974 H   0  0  0  0  0  0
  -22.3868  -10.9554   19.5982 H   0  0  0  0  0  0
  -21.1970   -7.6176   23.9741 H   0  0  0  0  0  0
  -21.1467   -6.0537   25.9098 H   0  0  0  0  0  0
  -22.0578   -2.7638   23.2850 H   0  0  0  0  0  0
  -22.4336  -11.9858   22.4865 H   0  0  0  0  0  0
  -21.1006  -13.0690   22.2447 H   0  0  0  0  0  0
  -24.6637  -15.8568   20.4834 H   0  0  0  0  0  0
  -26.3017  -15.6212   20.1103 H   0  0  0  0  0  0
  -26.7112  -32.5573   23.1168 H   0  0  0  0  0  0
  -25.0047  -33.9791   25.0480 H   0  0  0  0  0  0
  -22.6925  -31.3038   21.4039 H   0  0  0  0  0  0
  -23.3736  -35.9666   23.3311 H   0  0  0  0  0  0
  -24.3577  -36.8933   22.2049 H   0  0  0  0  0  0
  -23.7241  -37.6543   23.6644 H   0  0  0  0  0  0
  -26.0199  -31.5994   20.5768 H   0  0  0  0  0  0
  -26.8255  -30.9143   21.9600 H   0  0  0  0  0  0
  -28.0956  -29.0916   21.2076 H   0  0  0  0  0  0
  -26.0828  -25.9507   19.0524 H   0  0  0  0  0  0
  -23.9860  -27.2731   19.0579 H   0  0  0  0  0  0
  -23.7216  -30.5871   19.3992 H   0  0  0  0  0  0
  -22.7419  -29.2295   19.8710 H   0  0  0  0  0  0
  -25.1278  -36.1988   25.0833 H   0  0  0  0  0  0
  -20.9958  -28.3234   24.1431 H   0  0  0  0  0  0
  -20.5670  -26.2269   23.3606 H   0  0  0  0  0  0
  -21.6630  -26.7441   22.1208 H   0  0  0  0  0  0
  -19.6897  -25.6292   21.1242 H   0  0  0  0  0  0
  -19.6682  -27.3196   20.6753 H   0  0  0  0  0  0
  -17.4189  -26.6683   21.4020 H   0  0  0  0  0  0
  -18.0306  -26.0056   22.9012 H   0  0  0  0  0  0
  -19.7922  -30.7260   24.2281 H   0  0  0  0  0  0
  -17.5001  -31.6268   24.5153 H   0  0  0  0  0  0
  -15.5337  -30.2988   23.7647 H   0  0  0  0  0  0
  -15.8657  -28.0822   22.7062 H   0  0  0  0  0  0
  -24.5872  -30.7094   25.7797 H   0  0  0  0  0  0
  -24.8935  -32.2884   26.4930 H   0  0  0  0  0  0
  -25.8069  -30.8867   27.0209 H   0  0  0  0  0  0
  -26.2813  -29.6846   24.1095 H   0  0  0  0  0  0
  -27.4071  -29.7284   25.4480 H   0  0  0  0  0  0
  -27.8628  -30.4415   23.9166 H   0  0  0  0  0  0
  -27.2639  -33.3607   26.2097 H   0  0  0  0  0  0
  -28.3808  -32.6936   25.0286 H   0  0  0  0  0  0
  -28.0726  -31.8432   26.5349 H   0  0  0  0  0  0
  -28.2601  -38.0108   24.7510 H   0  0  0  0  0  0
  -28.1067  -36.2640   24.6275 H   0  0  0  0  0  0
  -27.2294  -37.1461   25.8862 H   0  0  0  0  0  0
  -20.9292  -29.8744   21.6937 H   0  0  0  0  0  0
  -26.0183  -38.2883   24.1407 H   0  0  0  0  0  0
  -29.0339  -21.2990   19.9572 H   0  0  0  0  0  0
  -29.8233  -19.0016   20.3605 H   0  0  0  0  0  0
  -28.1918  -21.7675   24.1285 H   0  0  0  0  0  0
  -29.0856  -14.6048   24.3633 H   0  0  0  0  0  0
  -30.3474  -15.6093   24.9761 H   0  0  0  0  0  0
  -28.6808  -17.1255   24.5196 H   0  0  0  0  0  0
  -28.1018  -16.3442   23.0743 H   0  0  0  0  0  0
  -26.3155  -23.9726   20.5274 H   0  0  0  0  0  0
  -27.3882  -22.7788   19.6518 H   0  0  0  0  0  0
  -30.8735  -13.7904   23.1426 H   0  0  0  0  0  0
  -31.7585  -15.2922   23.1938 H   0  0  0  0  0  0
  -31.1338  -17.0648   20.9447 H   0  0  0  0  0  0
  -29.4319  -16.7935   20.6895 H   0  0  0  0  0  0
  -27.4211  -23.4207   22.7131 H   0  0  0  0  0  0
  -30.8489  -17.6646   23.2476 H   0  0  0  0  0  0
  -29.4318  -23.9874   20.4216 H   0  0  0  0  0  0
  -28.0378  -19.1522   26.6783 H   0  0  0  0  0  0
  -26.9797  -19.0916   25.2853 H   0  0  0  0  0  0
  -27.6381  -20.6338   25.8508 H   0  0  0  0  0  0
  -29.1890  -25.9706   21.9713 H   0  0  0  0  0  0
  -27.4653  -25.8203   21.9294 H   0  0  0  0  0  0
  1 25  1  0  0  0
  1 30  2  0  0  0
  1 87  1  0  0  0
  2  3  1  0  0  0
  2 25  1  0  0  0
  2 89  1  0  0  0
  2 90  1  0  0  0
  3  4  1  0  0  0
  3 91  1  0  0  0
  3 92  1  0  0  0
  4  5  1  0  0  0
  4 93  1  0  0  0
  4 94  1  0  0  0
  5  6  1  0  0  0
  5 26  1  0  0  0
  5 95  1  0  0  0
  6 25  1  0  0  0
  6 96  1  0  0  0
  6 97  1  0  0  0
  7  8  2  0  0  0
  7 26  1  0  0  0
  7 29  1  0  0  0
  8  9  1  0  0  0
  8 22  1  0  0  0
  9 10  1  0  0  0
  9 27  2  0  0  0
 10 11  2  0  0  0
 10 15  1  0  0  0
 11 12  1  0  0  0
 11 98  1  0  0  0
 12 13  2  0  0  0
 12 99  1  0  0  0
 13 14  1  0  0  0
 13 31  1  0  0  0
 14 15  2  0  0  0
 14100  1  0  0  0
 15101  1  0  0  0
 16 17  2  0  0  0
 16 21  1  0  0  0
 16 31  1  0  0  0
 17 18  1  0  0  0
 17102  1  0  0  0
 18 19  2  0  0  0
 18103  1  0  0  0
 19 20  1  0  0  0
 19 24  1  0  0  0
 20 21  2  0  0  0
 20104  1  0  0  0
 21 23  1  0  0  0
 22 28  1  0  0  0
 22 32  2  0  0  0
 26 27  1  0  0  0
 28105  1  0  0  0
 28106  1  0  0  0
 29107  1  0  0  0
 29108  1  0  0  0
 33 34  1  0  0  0
 33 66  1  0  0  0
 33 70  2  0  0  0
 34 36  1  0  0  0
 34 59  1  0  0  0
 34109  1  0  0  0
 35 44  2  0  0  0
 35 45  1  0  0  0
 35 68  1  0  0  0
 36 56  1  0  0  0
 36110  1  0  0  0
 37 39  1  0  0  0
 37 47  1  0  0  0
 37 66  1  0  0  0
 37111  1  0  0  0
 38 43  2  0  0  0
 38 46  1  0  0  0
 38 47  1  0  0  0
 39 64  1  0  0  0
 39 67  2  0  0  0
 40 52  1  0  0  0
 40 53  2  0  0  0
 40 58  1  0  0  0
 41112  1  0  0  0
 41113  1  0  0  0
 41114  1  0  0  0
 41 48  1  0  0  0
 42 43  1  0  0  0
 42 66  1  0  0  0
 42115  1  0  0  0
 42116  1  0  0  0
 43 44  1  0  0  0
 44117  1  0  0  0
 45 46  2  0  0  0
 45118  1  0  0  0
 46119  1  0  0  0
 47120  1  0  0  0
 47121  1  0  0  0
 48 56  1  0  0  0
 48 65  1  0  0  0
 48122  1  0  0  0
 49 50  1  0  0  0
 49 53  1  0  0  0
 49 64  1  0  0  0
 49123  1  0  0  0
 50 51  1  0  0  0
 50124  1  0  0  0
 50125  1  0  0  0
 51 52  1  0  0  0
 51126  1  0  0  0
 51127  1  0  0  0
 52128  1  0  0  0
 52129  1  0  0  0
 53 54  1  0  0  0
 54 55  2  0  0  0
 54130  1  0  0  0
 55 57  1  0  0  0
 55131  1  0  0  0
 56 69  2  0  0  0
 57 58  2  0  0  0
 57132  1  0  0  0
 58133  1  0  0  0
 59 60  1  0  0  0
 59 61  1  0  0  0
 59 62  1  0  0  0
 60134  1  0  0  0
 60135  1  0  0  0
 60136  1  0  0  0
 61137  1  0  0  0
 61138  1  0  0  0
 61139  1  0  0  0
 62140  1  0  0  0
 62141  1  0  0  0
 62142  1  0  0  0
 63 65  1  0  0  0
 63143  1  0  0  0
 63144  1  0  0  0
 63145  1  0  0  0
 64146  1  0  0  0
 65147  1  0  0  0
 68 86  1  0  0  0
 71 72  2  0  0  0
 71 74  1  0  0  0
 71148  1  0  0  0
 72 75  1  0  0  0
 72149  1  0  0  0
 73 74  2  0  0  0
 73 76  1  0  0  0
 73150  1  0  0  0
 74 82  1  0  0  0
 75 76  2  0  0  0
 75 83  1  0  0  0
 76 88  1  0  0  0
 77 78  1  0  0  0
 77 80  1  0  0  0
 77151  1  0  0  0
 77152  1  0  0  0
 78 83  1  0  0  0
 78153  1  0  0  0
 78154  1  0  0  0
 79 82  1  0  0  0
 79 84  1  0  0  0
 79155  1  0  0  0
 79156  1  0  0  0
 80 87  1  0  0  0
 80157  1  0  0  0
 80158  1  0  0  0
 81 83  1  0  0  0
 81 87  1  0  0  0
 81159  1  0  0  0
 81160  1  0  0  0
 82 84  1  0  0  0
 82161  1  0  0  0
 83162  1  0  0  0
 84 86  1  0  0  0
 84163  1  0  0  0
 85 88  1  0  0  0
 85164  1  0  0  0
 85165  1  0  0  0
 85166  1  0  0  0
 86167  1  0  0  0
 86168  1  0  0  0
M  ISO  4   1 100  68 101  86 101  87 100
M  END
> <chiral flag>
0

> <version>
0

> <s_m_source_file>
/data/baiqing/PycharmProjects/Reinvent-master-3.2/result/LINK_invent/BTK/process_docking_weight1_custom_sum_contain_oxygen_bond_distance_aromatic_linkinvent_7_9_3/rearranged_h_0144.sdf

> <i_m_source_file_index>
4

> <r_mmod_Potential_Energy-OPLS-2005>
258.05322265625

> <r_mmod_Stretch_Energy-OPLS-2005>
49.8030090332031

> <r_mmod_Bend_Energy-OPLS-2005>
117.027183532715

> <r_mmod_Torsional_Energy-OPLS-2005>
410.394226074219

> <r_mmod_Improper_Torsional_Energy-OPLS-2005>
4.78364706039429

> <r_mmod_Van_der_Waal_Energy-OPLS-2005>
162.413528442383

> <r_mmod_Electrostatic_Energy-OPLS-2005>
-312.291870117188

> <r_mmod_Solvation_Energy-OPLS-2005>
-190.897186279297

> <b_mmod_Minimization_Converged-OPLS-2005>
0

> <r_mmod_RMS_Derivative-OPLS-2005>
9.54815196990967

$$$$
4
                    3D
 Structure written by MMmdl.
180189  0  0  1  0            999 V2000
  -30.7283  -14.3544   20.6813 C   0  0  0  0  0  0
  -30.4374  -12.2772   19.3881 C   0  0  0  0  0  0
  -29.4943  -12.5218   18.1918 C   0  0  0  0  0  0
  -28.0153  -12.3791   18.6012 C   0  0  0  0  0  0
  -27.6735  -13.1852   19.8810 C   0  0  2  0  0  0
  -28.7099  -12.8837   20.9899 C   0  0  0  0  0  0
  -25.2642  -13.8144   20.5670 C   0  0  0  0  0  0
  -24.1888  -13.0454   20.9238 C   0  0  0  0  0  0
  -24.6399  -11.6904   20.8741 C   0  0  0  0  0  0
  -23.9063  -10.4298   21.0388 C   0  0  0  0  0  0
  -24.3607   -9.4221   21.9169 C   0  0  0  0  0  0
  -23.6278   -8.2268   22.0735 C   0  0  0  0  0  0
  -22.4261   -8.0303   21.3524 C   0  0  0  0  0  0
  -21.9894   -9.0282   20.4630 C   0  0  0  0  0  0
  -22.7232  -10.2157   20.3056 C   0  0  0  0  0  0
  -21.6863   -6.0759   22.5296 C   0  0  0  0  0  0
  -21.4022   -6.5654   23.8241 C   0  0  0  0  0  0
  -21.3635   -5.6793   24.9186 C   0  0  0  0  0  0
  -21.6034   -4.3062   24.7228 C   0  0  0  0  0  0
  -21.8807   -3.8158   23.4350 C   0  0  0  0  0  0
  -21.9195   -4.6982   22.3416 C   0  0  0  0  0  0
  -22.7917  -13.5290   21.1840 C   0  0  0  0  0  0
  -22.1649   -4.2165   21.0994 F   0  0  0  0  0  0
  -21.5608   -3.4550   25.7748 F   0  0  0  0  0  0
  -30.0621  -13.1911   20.4731 N   0  0  0  0  0  0
  -26.3071  -12.9271   20.3353 N   0  0  0  0  0  0
  -25.9315  -11.6460   20.5747 N   0  0  0  0  0  0
  -22.0498  -12.8344   22.0375 N   0  0  0  0  0  0
  -25.4330  -15.1850   20.3896 N   0  0  0  0  0  0
  -31.7184  -14.7159   20.0358 O   0  0  0  0  0  0
  -21.6620   -6.8905   21.4251 O   0  0  0  0  0  0
  -22.3694  -14.5619   20.6656 O   0  0  0  0  0  0
  -24.6113  -31.8710   23.2140 C   0  0  0  0  0  0
  -25.9018  -32.4845   23.8412 C   0  0  1  0  0  0
  -27.2441  -27.4677   20.0715 C   0  0  0  0  0  0
  -25.5893  -33.8640   24.2357 N   0  0  0  0  0  0
  -23.3983  -30.4945   21.5555 C   0  0  2  0  0  0
  -24.8443  -28.9653   20.1184 C   0  0  0  0  0  0
  -22.7388  -29.4665   22.5025 C   0  0  0  0  0  0
  -18.0283  -28.1344   22.8521 C   0  0  0  0  0  0
  -24.1489  -36.7325   23.2641 C   0  0  0  0  0  0
  -25.9259  -30.8446   21.3627 C   0  0  0  0  0  0
  -26.0038  -29.4806   20.7108 C   0  0  0  0  0  0
  -27.2016  -28.7358   20.6930 C   0  0  0  0  0  0
  -26.0614  -26.9618   19.4796 C   0  0  0  0  0  0
  -24.8667  -27.7013   19.5088 C   0  0  0  0  0  0
  -23.6054  -29.8284   20.1695 C   0  0  0  0  0  0
  -25.4109  -36.3124   24.0347 C   0  0  1  0  0  0
  -20.5868  -28.3647   23.1339 C   0  0  2  0  0  0
  -20.6789  -26.9379   22.5432 C   0  0  0  0  0  0
  -19.5754  -26.6327   21.5265 C   0  0  0  0  0  0
  -18.1952  -26.7876   22.1683 C   0  0  0  0  0  0
  -19.1528  -28.8815   23.2919 C   0  0  0  0  0  0
  -18.9438  -30.1432   23.8902 C   0  0  0  0  0  0
  -17.6427  -30.6573   24.0531 C   0  0  0  0  0  0
  -25.9028  -34.9491   23.5132 C   0  0  0  0  0  0
  -16.5331  -29.9069   23.6290 C   0  0  0  0  0  0
  -16.7276  -28.6459   23.0359 C   0  0  0  0  0  0
  -26.4469  -31.6599   25.0718 C   0  0  0  0  0  0
  -25.3752  -31.3683   26.1476 C   0  0  0  0  0  0
  -27.0288  -30.3045   24.6055 C   0  0  0  0  0  0
  -27.6048  -32.4317   25.7480 C   0  0  0  0  0  0
  -27.5582  -37.1815   24.8462 C   0  0  0  0  0  0
  -21.4117  -29.3026   22.3745 N   0  0  0  0  0  0
  -26.4300  -37.3802   23.9395 N   0  0  0  0  0  0
  -24.6643  -31.0820   22.1038 N   0  0  0  0  0  0
  -23.4156  -28.8209   23.3050 O   0  0  0  0  0  0
  -28.4479  -26.7926   20.0706 O   0  0  0  0  0  0
  -26.5586  -34.8926   22.4698 O   0  0  0  0  0  0
  -23.5309  -32.1464   23.7532 O   0  0  0  0  0  0
  -27.1668  -20.9512   20.5908 C   0  0  0  0  0  0
  -25.5249  -22.6961   20.9547 C   0  0  0  0  0  0
  -25.0510  -20.4065   21.7057 C   0  0  0  0  0  0
  -26.3137  -19.9941   21.1902 C   0  0  0  0  0  0
  -26.8103  -22.3099   20.5177 C   0  0  0  0  0  0
  -24.6539  -21.7560   21.5380 C   0  0  0  0  0  0
  -23.3304  -19.7824   23.6249 C   0  0  0  0  0  0
  -24.4119  -18.7367   23.6640 C   0  0  0  0  0  0
  -24.0901  -19.4350   22.3569 C   0  0  0  0  0  0
  -19.9538  -22.6082   20.6041 C   0  0  0  0  0  0
  -30.7236  -17.1624   22.8466 C   0  0  0  0  0  0
  -26.7339  -18.5174   21.2223 C   0  0  0  0  0  0
  -21.0978  -22.4830   21.6149 C   0  0  0  0  0  0
  -28.5286  -16.8660   21.5339 C   0  0  0  0  0  0
  -22.4860  -22.4800   20.9618 C   0  0  0  0  0  0
  -28.5012  -25.4468   19.5957 C   0  0  0  0  0  0
  -27.8367  -24.4746   20.5861 C   0  0  0  0  0  0
  -30.0448  -16.5672   21.6017 C   0  0  2  0  0  0
  -30.1742  -15.1132   21.6297 N   0  0  0  0  0  0
  -28.1899  -18.2913   21.3523 N   0  3  0  0  0  0
  -27.7245  -23.1866   19.9787 O   0  0  0  0  0  0
  -23.4226  -22.1631   21.9814 O   0  0  0  0  0  0
  -31.4764  -12.4062   19.0782 H   0  0  0  0  0  0
  -30.3652  -11.2438   19.7332 H   0  0  0  0  0  0
  -29.7282  -11.8236   17.3857 H   0  0  0  0  0  0
  -29.6681  -13.5202   17.7858 H   0  0  0  0  0  0
  -27.8168  -11.3220   18.7729 H   0  0  0  0  0  0
  -27.3642  -12.6822   17.7800 H   0  0  0  0  0  0
  -27.7436  -14.2408   19.6222 H   0  0  0  0  0  0
  -28.6687  -11.8278   21.2640 H   0  0  0  0  0  0
  -28.4484  -13.4103   21.9056 H   0  0  0  0  0  0
  -25.2746   -9.5703   22.4744 H   0  0  0  0  0  0
  -23.9968   -7.4660   22.7482 H   0  0  0  0  0  0
  -21.0811   -8.8835   19.8961 H   0  0  0  0  0  0
  -22.3693  -10.9705   19.6177 H   0  0  0  0  0  0
  -21.2034   -7.6163   23.9766 H   0  0  0  0  0  0
  -21.1433   -6.0499   25.9093 H   0  0  0  0  0  0
  -22.0594   -2.7628   23.2853 H   0  0  0  0  0  0
  -22.4029  -11.9988   22.4799 H   0  0  0  0  0  0
  -21.1140  -13.1460   22.2532 H   0  0  0  0  0  0
  -24.5684  -15.7132   20.3229 H   0  0  0  0  0  0
  -26.0972  -15.4733   19.6848 H   0  0  0  0  0  0
  -26.7094  -32.5562   23.1181 H   0  0  0  0  0  0
  -25.0056  -33.9810   25.0507 H   0  0  0  0  0  0
  -22.6878  -31.3133   21.4184 H   0  0  0  0  0  0
  -23.3743  -35.9662   23.3328 H   0  0  0  0  0  0
  -24.3592  -36.8913   22.2049 H   0  0  0  0  0  0
  -23.7246  -37.6546   23.6635 H   0  0  0  0  0  0
  -26.0263  -31.6139   20.5956 H   0  0  0  0  0  0
  -26.8167  -30.9026   21.9761 H   0  0  0  0  0  0
  -28.0994  -29.1326   21.1491 H   0  0  0  0  0  0
  -26.0325  -26.0020   18.9882 H   0  0  0  0  0  0
  -23.9744  -27.2947   19.0558 H   0  0  0  0  0  0
  -23.7141  -30.6053   19.4110 H   0  0  0  0  0  0
  -22.7304  -29.2502   19.8701 H   0  0  0  0  0  0
  -25.1280  -36.2015   25.0845 H   0  0  0  0  0  0
  -20.9947  -28.3232   24.1466 H   0  0  0  0  0  0
  -20.5739  -26.2244   23.3626 H   0  0  0  0  0  0
  -21.6640  -26.7428   22.1187 H   0  0  0  0  0  0
  -19.6903  -25.6236   21.1318 H   0  0  0  0  0  0
  -19.6661  -27.3159   20.6792 H   0  0  0  0  0  0
  -17.4204  -26.6546   21.4107 H   0  0  0  0  0  0
  -18.0410  -26.0000   22.9085 H   0  0  0  0  0  0
  -19.7899  -30.7269   24.2273 H   0  0  0  0  0  0
  -17.4972  -31.6249   24.5127 H   0  0  0  0  0  0
  -15.5336  -30.2974   23.7572 H   0  0  0  0  0  0
  -15.8675  -28.0793   22.7044 H   0  0  0  0  0  0
  -24.5910  -30.7056   25.7805 H   0  0  0  0  0  0
  -24.8970  -32.2840   26.4969 H   0  0  0  0  0  0
  -25.8123  -30.8814   27.0205 H   0  0  0  0  0  0
  -26.2812  -29.6818   24.1130 H   0  0  0  0  0  0
  -27.4105  -29.7260   25.4479 H   0  0  0  0  0  0
  -27.8629  -30.4374   23.9156 H   0  0  0  0  0  0
  -27.2655  -33.3592   26.2111 H   0  0  0  0  0  0
  -28.3828  -32.6933   25.0289 H   0  0  0  0  0  0
  -28.0758  -31.8419   26.5356 H   0  0  0  0  0  0
  -28.2609  -38.0105   24.7498 H   0  0  0  0  0  0
  -28.1072  -36.2633   24.6304 H   0  0  0  0  0  0
  -27.2298  -37.1487   25.8869 H   0  0  0  0  0  0
  -20.9288  -29.8757   21.6964 H   0  0  0  0  0  0
  -26.0200  -38.2886   24.1401 H   0  0  0  0  0  0
  -28.1243  -20.6629   20.1814 H   0  0  0  0  0  0
  -25.1787  -23.7124   20.8480 H   0  0  0  0  0  0
  -23.5519  -20.7235   24.1247 H   0  0  0  0  0  0
  -22.3018  -19.4393   23.7121 H   0  0  0  0  0  0
  -24.0934  -17.7024   23.7877 H   0  0  0  0  0  0
  -25.3304  -19.0064   24.1798 H   0  0  0  0  0  0
  -23.5461  -18.8705   21.5989 H   0  0  0  0  0  0
  -18.9885  -22.6194   21.1102 H   0  0  0  0  0  0
  -19.9514  -21.7673   19.9108 H   0  0  0  0  0  0
  -20.0373  -23.5234   20.0197 H   0  0  0  0  0  0
  -30.6865  -18.2534   22.8455 H   0  0  0  0  0  0
  -31.7743  -16.8726   22.8858 H   0  0  0  0  0  0
  -30.2585  -16.8093   23.7678 H   0  0  0  0  0  0
  -26.3618  -18.0305   20.3201 H   0  0  0  0  0  0
  -26.2631  -18.0082   22.0576 H   0  0  0  0  0  0
  -20.9681  -21.5565   22.1763 H   0  0  0  0  0  0
  -21.0405  -23.2927   22.3445 H   0  0  0  0  0  0
  -28.0431  -16.4967   22.4406 H   0  0  0  0  0  0
  -28.0878  -16.3122   20.7055 H   0  0  0  0  0  0
  -22.7031  -23.4545   20.5220 H   0  0  0  0  0  0
  -22.5245  -21.7385   20.1601 H   0  0  0  0  0  0
  -28.0687  -25.3690   18.5976 H   0  0  0  0  0  0
  -29.5488  -25.1693   19.4777 H   0  0  0  0  0  0
  -26.8773  -24.8799   20.8900 H   0  0  0  0  0  0
  -28.4312  -24.4101   21.4986 H   0  0  0  0  0  0
  -30.5315  -16.9630   20.7063 H   0  0  0  0  0  0
  -29.4845  -14.6203   22.1788 H   0  0  0  0  0  0
  -28.6372  -18.6317   20.5166 H   0  0  0  0  0  0
  -28.5340  -18.8180   22.1381 H   0  0  0  0  0  0
  1 25  1  0  0  0
  1 30  2  0  0  0
  1 89  1  0  0  0
  2  3  1  0  0  0
  2 25  1  0  0  0
  2 93  1  0  0  0
  2 94  1  0  0  0
  3  4  1  0  0  0
  3 95  1  0  0  0
  3 96  1  0  0  0
  4  5  1  0  0  0
  4 97  1  0  0  0
  4 98  1  0  0  0
  5  6  1  0  0  0
  5 26  1  0  0  0
  5 99  1  0  0  0
  6 25  1  0  0  0
  6100  1  0  0  0
  6101  1  0  0  0
  7  8  2  0  0  0
  7 26  1  0  0  0
  7 29  1  0  0  0
  8  9  1  0  0  0
  8 22  1  0  0  0
  9 10  1  0  0  0
  9 27  2  0  0  0
 10 11  2  0  0  0
 10 15  1  0  0  0
 11 12  1  0  0  0
 11102  1  0  0  0
 12 13  2  0  0  0
 12103  1  0  0  0
 13 14  1  0  0  0
 13 31  1  0  0  0
 14 15  2  0  0  0
 14104  1  0  0  0
 15105  1  0  0  0
 16 17  2  0  0  0
 16 21  1  0  0  0
 16 31  1  0  0  0
 17 18  1  0  0  0
 17106  1  0  0  0
 18 19  2  0  0  0
 18107  1  0  0  0
 19 20  1  0  0  0
 19 24  1  0  0  0
 20 21  2  0  0  0
 20108  1  0  0  0
 21 23  1  0  0  0
 22 28  1  0  0  0
 22 32  2  0  0  0
 26 27  1  0  0  0
 28109  1  0  0  0
 28110  1  0  0  0
 29111  1  0  0  0
 29112  1  0  0  0
 33 34  1  0  0  0
 33 66  1  0  0  0
 33 70  2  0  0  0
 34 36  1  0  0  0
 34 59  1  0  0  0
 34113  1  0  0  0
 35 44  2  0  0  0
 35 45  1  0  0  0
 35 68  1  0  0  0
 36 56  1  0  0  0
 36114  1  0  0  0
 37 39  1  0  0  0
 37 47  1  0  0  0
 37 66  1  0  0  0
 37115  1  0  0  0
 38 43  2  0  0  0
 38 46  1  0  0  0
 38 47  1  0  0  0
 39 64  1  0  0  0
 39 67  2  0  0  0
 40 52  1  0  0  0
 40 53  2  0  0  0
 40 58  1  0  0  0
 41116  1  0  0  0
 41117  1  0  0  0
 41118  1  0  0  0
 41 48  1  0  0  0
 42 43  1  0  0  0
 42 66  1  0  0  0
 42119  1  0  0  0
 42120  1  0  0  0
 43 44  1  0  0  0
 44121  1  0  0  0
 45 46  2  0  0  0
 45122  1  0  0  0
 46123  1  0  0  0
 47124  1  0  0  0
 47125  1  0  0  0
 48 56  1  0  0  0
 48 65  1  0  0  0
 48126  1  0  0  0
 49 50  1  0  0  0
 49 53  1  0  0  0
 49 64  1  0  0  0
 49127  1  0  0  0
 50 51  1  0  0  0
 50128  1  0  0  0
 50129  1  0  0  0
 51 52  1  0  0  0
 51130  1  0  0  0
 51131  1  0  0  0
 52132  1  0  0  0
 52133  1  0  0  0
 53 54  1  0  0  0
 54 55  2  0  0  0
 54134  1  0  0  0
 55 57  1  0  0  0
 55135  1  0  0  0
 56 69  2  0  0  0
 57 58  2  0  0  0
 57136  1  0  0  0
 58137  1  0  0  0
 59 60  1  0  0  0
 59 61  1  0  0  0
 59 62  1  0  0  0
 60138  1  0  0  0
 60139  1  0  0  0
 60140  1  0  0  0
 61141  1  0  0  0
 61142  1  0  0  0
 61143  1  0  0  0
 62144  1  0  0  0
 62145  1  0  0  0
 62146  1  0  0  0
 63 65  1  0  0  0
 63147  1  0  0  0
 63148  1  0  0  0
 63149  1  0  0  0
 64150  1  0  0  0
 65151  1  0  0  0
 68 86  1  0  0  0
 71 74  2  0  0  0
 71 75  1  0  0  0
 71152  1  0  0  0
 72 75  2  0  0  0
 72 76  1  0  0  0
 72153  1  0  0  0
 73 74  1  0  0  0
 73 76  2  0  0  0
 73 79  1  0  0  0
 74 82  1  0  0  0
 75 91  1  0  0  0
 76 92  1  0  0  0
 77 78  1  0  0  0
 77 79  1  0  0  0
 77154  1  0  0  0
 77155  1  0  0  0
 78 79  1  0  0  0
 78156  1  0  0  0
 78157  1  0  0  0
 79158  1  0  0  0
 80 83  1  0  0  0
 80159  1  0  0  0
 80160  1  0  0  0
 80161  1  0  0  0
 81162  1  0  0  0
 81163  1  0  0  0
 81164  1  0  0  0
 81 88  1  0  0  0
 82 90  1  0  0  0
 82165  1  0  0  0
 82166  1  0  0  0
 83 85  1  0  0  0
 83167  1  0  0  0
 83168  1  0  0  0
 84 88  1  0  0  0
 84 90  1  0  0  0
 84169  1  0  0  0
 84170  1  0  0  0
 85 92  1  0  0  0
 85171  1  0  0  0
 85172  1  0  0  0
 86 87  1  0  0  0
 86173  1  0  0  0
 86174  1  0  0  0
 87 91  1  0  0  0
 87175  1  0  0  0
 87176  1  0  0  0
 88 89  1  0  0  0
 88177  1  0  0  0
 89178  1  0  0  0
 90179  1  0  0  0
 90180  1  0  0  0
M  CHG  1  90   1
M  ISO  4   1 100  68 101  86 101  89 100
M  END
> <chiral flag>
0

> <version>
0

> <s_m_source_file>
/data/baiqing/PycharmProjects/Reinvent-master-3.2/result/LINK_invent/BTK/process_docking_weight1_custom_sum_contain_oxygen_bond_distance_aromatic_linkinvent_7_9_3/rearranged_h_0144.sdf

> <i_m_source_file_index>
5

> <r_mmod_Potential_Energy-OPLS-2005>
-246.702774047852

> <r_mmod_Stretch_Energy-OPLS-2005>
36.3029823303223

> <r_mmod_Bend_Energy-OPLS-2005>
100.656158447266

> <r_mmod_Torsional_Energy-OPLS-2005>
283.233276367188

> <r_mmod_Improper_Torsional_Energy-OPLS-2005>
8.69832420349121

> <r_mmod_Van_der_Waal_Energy-OPLS-2005>
149.847732543945

> <r_mmod_Electrostatic_Energy-OPLS-2005>
-362.239410400391

> <r_mmod_Solvation_Energy-OPLS-2005>
-472.021270751953

> <b_mmod_Minimization_Converged-OPLS-2005>
0

> <r_mmod_RMS_Derivative-OPLS-2005>
3.5498788356781

$$$$
5
                    3D
 Structure written by MMmdl.
177187  0  0  1  0            999 V2000
  -30.6787  -14.5108   20.4069 C   0  0  0  0  0  0
  -30.4190  -12.2815   19.4328 C   0  0  0  0  0  0
  -29.4887  -12.4061   18.2062 C   0  0  0  0  0  0
  -28.0076  -12.3137   18.6241 C   0  0  0  0  0  0
  -27.6488  -13.2032   19.8470 C   0  0  2  0  0  0
  -28.7004  -13.0725   20.9724 C   0  0  0  0  0  0
  -25.2582  -13.8157   20.5685 C   0  0  0  0  0  0
  -24.1834  -13.0453   20.9192 C   0  0  0  0  0  0
  -24.6376  -11.6914   20.8762 C   0  0  0  0  0  0
  -23.9057  -10.4299   21.0418 C   0  0  0  0  0  0
  -24.3615   -9.4214   21.9186 C   0  0  0  0  0  0
  -23.6292   -8.2248   22.0753 C   0  0  0  0  0  0
  -22.4276   -8.0280   21.3544 C   0  0  0  0  0  0
  -21.9911   -9.0259   20.4652 C   0  0  0  0  0  0
  -22.7234  -10.2139   20.3065 C   0  0  0  0  0  0
  -21.6851   -6.0738   22.5281 C   0  0  0  0  0  0
  -21.4010   -6.5638   23.8215 C   0  0  0  0  0  0
  -21.3662   -5.6791   24.9174 C   0  0  0  0  0  0
  -21.6049   -4.3054   24.7223 C   0  0  0  0  0  0
  -21.8821   -3.8149   23.4342 C   0  0  0  0  0  0
  -21.9194   -4.6969   22.3400 C   0  0  0  0  0  0
  -22.7858  -13.5257   21.1841 C   0  0  0  0  0  0
  -22.1661   -4.2155   21.0980 F   0  0  0  0  0  0
  -21.5633   -3.4540   25.7733 F   0  0  0  0  0  0
  -30.0224  -13.3229   20.3871 N   0  0  0  0  0  0
  -26.2980  -12.9313   20.3305 N   0  0  0  0  0  0
  -25.9298  -11.6488   20.5799 N   0  0  0  0  0  0
  -22.0482  -12.8268   22.0398 N   0  0  0  0  0  0
  -25.4350  -15.1872   20.4094 N   0  0  0  0  0  0
  -31.9032  -14.5987   20.2869 O   0  0  0  0  0  0
  -21.6639   -6.8880   21.4240 O   0  0  0  0  0  0
  -22.3562  -14.5566   20.6677 O   0  0  0  0  0  0
  -24.6132  -31.8661   23.2096 C   0  0  0  0  0  0
  -25.9029  -32.4813   23.8384 C   0  0  1  0  0  0
  -27.2317  -27.4334   20.0932 C   0  0  0  0  0  0
  -25.5887  -33.8612   24.2315 N   0  0  0  0  0  0
  -23.3986  -30.4904   21.5501 C   0  0  2  0  0  0
  -24.8423  -28.9562   20.1122 C   0  0  0  0  0  0
  -22.7385  -29.4652   22.5001 C   0  0  0  0  0  0
  -18.0271  -28.1364   22.8502 C   0  0  0  0  0  0
  -24.1474  -36.7321   23.2640 C   0  0  0  0  0  0
  -25.9259  -30.8329   21.3603 C   0  0  0  0  0  0
  -26.0010  -29.4670   20.7085 C   0  0  0  0  0  0
  -27.1941  -28.7115   20.6974 C   0  0  0  0  0  0
  -26.0496  -26.9339   19.4973 C   0  0  0  0  0  0
  -24.8618  -27.6890   19.5052 C   0  0  0  0  0  0
  -23.6030  -29.8209   20.1643 C   0  0  0  0  0  0
  -25.4096  -36.3113   24.0339 C   0  0  1  0  0  0
  -20.5851  -28.3640   23.1330 C   0  0  2  0  0  0
  -20.6751  -26.9379   22.5412 C   0  0  0  0  0  0
  -19.5731  -26.6376   21.5205 C   0  0  0  0  0  0
  -18.1916  -26.7914   22.1621 C   0  0  0  0  0  0
  -19.1518  -28.8820   23.2917 C   0  0  0  0  0  0
  -18.9449  -30.1433   23.8912 C   0  0  0  0  0  0
  -17.6451  -30.6574   24.0562 C   0  0  0  0  0  0
  -25.9023  -34.9475   23.5122 C   0  0  0  0  0  0
  -16.5344  -29.9069   23.6331 C   0  0  0  0  0  0
  -16.7265  -28.6483   23.0360 C   0  0  0  0  0  0
  -26.4463  -31.6601   25.0718 C   0  0  0  0  0  0
  -25.3745  -31.3715   26.1483 C   0  0  0  0  0  0
  -27.0293  -30.3040   24.6099 C   0  0  0  0  0  0
  -27.6040  -32.4327   25.7478 C   0  0  0  0  0  0
  -27.5577  -37.1810   24.8470 C   0  0  0  0  0  0
  -21.4114  -29.3016   22.3743 N   0  0  0  0  0  0
  -26.4289  -37.3795   23.9414 N   0  0  0  0  0  0
  -24.6642  -31.0775   22.0985 N   0  0  0  0  0  0
  -23.4169  -28.8215   23.3054 O   0  0  0  0  0  0
  -28.4267  -26.7423   20.1109 O   0  0  0  0  0  0
  -26.5593  -34.8935   22.4690 O   0  0  0  0  0  0
  -23.5336  -32.1407   23.7508 O   0  0  0  0  0  0
  -29.1239  -22.0624   23.0576 C   0  0  0  0  0  0
  -29.0045  -19.9203   21.9034 C   0  0  0  0  0  0
  -29.9552  -21.4985   24.0459 C   0  0  0  0  0  0
  -29.8877  -19.3472   22.8541 C   0  0  0  0  0  0
  -28.6595  -21.2923   21.9730 C   0  0  0  0  0  0
  -30.3696  -20.1514   23.9141 C   0  0  0  0  0  0
  -30.7064  -17.3267   18.4975 C   0  0  0  0  0  0
  -30.1456  -21.8871   26.6362 C   0  0  0  0  0  0
  -29.3431  -23.0360   26.0751 C   0  0  0  0  0  0
  -30.8448  -17.7339   19.9537 C   0  0  0  0  0  0
  -30.1055  -15.9136   18.5500 C   0  0  0  0  0  0
  -30.3747  -22.3428   25.2139 C   0  0  0  0  0  0
  -29.7793  -16.8627   20.6266 C   0  0  1  0  0  0
  -32.5912  -19.9268   24.6042 C   0  0  0  0  0  0
  -29.6956  -16.8943   22.1737 C   0  0  0  0  0  0
  -27.9946  -24.3343   20.6144 C   0  0  0  0  0  0
  -28.5122  -25.3985   19.6181 C   0  0  0  0  0  0
  -28.4417  -22.9046   20.2240 C   0  0  0  0  0  0
  -29.9083  -15.5447   19.9701 N   0  0  0  0  0  0
  -30.3772  -18.0258   22.8021 N   0  0  0  0  0  0
  -31.2280  -19.5914   24.8287 O   0  0  0  0  0  0
  -27.8544  -21.8540   21.0056 O   0  0  0  0  0  0
  -31.4629  -12.3724   19.1264 H   0  0  0  0  0  0
  -30.3228  -11.2968   19.8922 H   0  0  0  0  0  0
  -29.7152  -11.6114   17.4941 H   0  0  0  0  0  0
  -29.6653  -13.3364   17.6706 H   0  0  0  0  0  0
  -27.8095  -11.2674   18.8599 H   0  0  0  0  0  0
  -27.3635  -12.5563   17.7784 H   0  0  0  0  0  0
  -27.6593  -14.2317   19.4889 H   0  0  0  0  0  0
  -28.6746  -12.0773   21.4182 H   0  0  0  0  0  0
  -28.4919  -13.7804   21.7769 H   0  0  0  0  0  0
  -25.2758   -9.5691   22.4763 H   0  0  0  0  0  0
  -24.0004   -7.4644   22.7468 H   0  0  0  0  0  0
  -21.0843   -8.8780   19.8954 H   0  0  0  0  0  0
  -22.3690  -10.9684   19.6181 H   0  0  0  0  0  0
  -21.1991   -7.6146   23.9719 H   0  0  0  0  0  0
  -21.1483   -6.0517   25.9078 H   0  0  0  0  0  0
  -22.0596   -2.7614   23.2839 H   0  0  0  0  0  0
  -22.4084  -11.9933   22.4815 H   0  0  0  0  0  0
  -21.1096  -13.1295   22.2568 H   0  0  0  0  0  0
  -24.6761  -15.8493   20.5248 H   0  0  0  0  0  0
  -26.2986  -15.6220   20.1099 H   0  0  0  0  0  0
  -26.7105  -32.5512   23.1157 H   0  0  0  0  0  0
  -25.0055  -33.9764   25.0470 H   0  0  0  0  0  0
  -22.6885  -31.3088   21.4130 H   0  0  0  0  0  0
  -23.3734  -35.9660   23.3320 H   0  0  0  0  0  0
  -24.3577  -36.8905   22.2051 H   0  0  0  0  0  0
  -23.7220  -37.6532   23.6638 H   0  0  0  0  0  0
  -26.0379  -31.6009   20.5931 H   0  0  0  0  0  0
  -26.8124  -30.8830   21.9804 H   0  0  0  0  0  0
  -28.0901  -29.1063   21.1558 H   0  0  0  0  0  0
  -26.0205  -25.9663   19.0206 H   0  0  0  0  0  0
  -23.9697  -27.2889   19.0426 H   0  0  0  0  0  0
  -23.7011  -30.5906   19.3979 H   0  0  0  0  0  0
  -22.7263  -29.2357   19.8798 H   0  0  0  0  0  0
  -25.1272  -36.1983   25.0833 H   0  0  0  0  0  0
  -20.9964  -28.3182   24.1441 H   0  0  0  0  0  0
  -20.5625  -26.2245   23.3588 H   0  0  0  0  0  0
  -21.6628  -26.7403   22.1216 H   0  0  0  0  0  0
  -19.6876  -25.6288   21.1221 H   0  0  0  0  0  0
  -19.6666  -27.3195   20.6743 H   0  0  0  0  0  0
  -17.4177  -26.6682   21.4027 H   0  0  0  0  0  0
  -18.0317  -26.0044   22.9005 H   0  0  0  0  0  0
  -19.7927  -30.7256   24.2275 H   0  0  0  0  0  0
  -17.5003  -31.6259   24.5157 H   0  0  0  0  0  0
  -15.5341  -30.2974   23.7642 H   0  0  0  0  0  0
  -15.8669  -28.0803   22.7071 H   0  0  0  0  0  0
  -24.5903  -30.7067   25.7842 H   0  0  0  0  0  0
  -24.8963  -32.2877   26.4957 H   0  0  0  0  0  0
  -25.8110  -30.8874   27.0224 H   0  0  0  0  0  0
  -26.2824  -29.6805   24.1164 H   0  0  0  0  0  0
  -27.4070  -29.7283   25.4559 H   0  0  0  0  0  0
  -27.8664  -30.4373   23.9241 H   0  0  0  0  0  0
  -27.2652  -33.3610   26.2097 H   0  0  0  0  0  0
  -28.3829  -32.6904   25.0288 H   0  0  0  0  0  0
  -28.0734  -31.8423   26.5357 H   0  0  0  0  0  0
  -28.2619  -38.0087   24.7516 H   0  0  0  0  0  0
  -28.1045  -36.2623   24.6295 H   0  0  0  0  0  0
  -27.2309  -37.1471   25.8878 H   0  0  0  0  0  0
  -20.9255  -29.8766   21.7001 H   0  0  0  0  0  0
  -26.0183  -38.2877   24.1410 H   0  0  0  0  0  0
  -28.8179  -23.0923   23.1559 H   0  0  0  0  0  0
  -28.6224  -19.3365   21.0817 H   0  0  0  0  0  0
  -31.6679  -17.3551   17.9835 H   0  0  0  0  0  0
  -30.0298  -18.0028   17.9716 H   0  0  0  0  0  0
  -29.6349  -20.9377   26.7861 H   0  0  0  0  0  0
  -30.9073  -22.1324   27.3740 H   0  0  0  0  0  0
  -29.5772  -24.0275   26.4568 H   0  0  0  0  0  0
  -28.2914  -22.8531   25.8630 H   0  0  0  0  0  0
  -30.6943  -18.8040   20.0863 H   0  0  0  0  0  0
  -31.8368  -17.4865   20.3359 H   0  0  0  0  0  0
  -30.7656  -15.2291   18.0120 H   0  0  0  0  0  0
  -29.1440  -15.8827   18.0353 H   0  0  0  0  0  0
  -31.2943  -22.8834   24.9994 H   0  0  0  0  0  0
  -28.8118  -17.2414   20.2902 H   0  0  0  0  0  0
  -33.2212  -19.4058   25.3244 H   0  0  0  0  0  0
  -32.7707  -20.9949   24.7207 H   0  0  0  0  0  0
  -32.9129  -19.6341   23.6040 H   0  0  0  0  0  0
  -30.1392  -15.9953   22.6028 H   0  0  0  0  0  0
  -28.6498  -16.8806   22.4875 H   0  0  0  0  0  0
  -26.9075  -24.3813   20.6748 H   0  0  0  0  0  0
  -28.3685  -24.5790   21.6068 H   0  0  0  0  0  0
  -28.0497  -25.2926   18.6364 H   0  0  0  0  0  0
  -29.5734  -25.2149   19.4471 H   0  0  0  0  0  0
  -29.5321  -22.8422   20.2357 H   0  0  0  0  0  0
  -28.1516  -22.7190   19.1889 H   0  0  0  0  0  0
  -30.9807  -17.7941   23.5881 H   0  0  0  0  0  0
  1 25  1  0  0  0
  1 30  2  0  0  0
  1 89  1  0  0  0
  2  3  1  0  0  0
  2 25  1  0  0  0
  2 93  1  0  0  0
  2 94  1  0  0  0
  3  4  1  0  0  0
  3 95  1  0  0  0
  3 96  1  0  0  0
  4  5  1  0  0  0
  4 97  1  0  0  0
  4 98  1  0  0  0
  5  6  1  0  0  0
  5 26  1  0  0  0
  5 99  1  0  0  0
  6 25  1  0  0  0
  6100  1  0  0  0
  6101  1  0  0  0
  7  8  2  0  0  0
  7 26  1  0  0  0
  7 29  1  0  0  0
  8  9  1  0  0  0
  8 22  1  0  0  0
  9 10  1  0  0  0
  9 27  2  0  0  0
 10 11  2  0  0  0
 10 15  1  0  0  0
 11 12  1  0  0  0
 11102  1  0  0  0
 12 13  2  0  0  0
 12103  1  0  0  0
 13 14  1  0  0  0
 13 31  1  0  0  0
 14 15  2  0  0  0
 14104  1  0  0  0
 15105  1  0  0  0
 16 17  2  0  0  0
 16 21  1  0  0  0
 16 31  1  0  0  0
 17 18  1  0  0  0
 17106  1  0  0  0
 18 19  2  0  0  0
 18107  1  0  0  0
 19 20  1  0  0  0
 19 24  1  0  0  0
 20 21  2  0  0  0
 20108  1  0  0  0
 21 23  1  0  0  0
 22 28  1  0  0  0
 22 32  2  0  0  0
 26 27  1  0  0  0
 28109  1  0  0  0
 28110  1  0  0  0
 29111  1  0  0  0
 29112  1  0  0  0
 33 34  1  0  0  0
 33 66  1  0  0  0
 33 70  2  0  0  0
 34 36  1  0  0  0
 34 59  1  0  0  0
 34113  1  0  0  0
 35 44  2  0  0  0
 35 45  1  0  0  0
 35 68  1  0  0  0
 36 56  1  0  0  0
 36114  1  0  0  0
 37 39  1  0  0  0
 37 47  1  0  0  0
 37 66  1  0  0  0
 37115  1  0  0  0
 38 43  2  0  0  0
 38 46  1  0  0  0
 38 47  1  0  0  0
 39 64  1  0  0  0
 39 67  2  0  0  0
 40 52  1  0  0  0
 40 53  2  0  0  0
 40 58  1  0  0  0
 41116  1  0  0  0
 41117  1  0  0  0
 41118  1  0  0  0
 41 48  1  0  0  0
 42 43  1  0  0  0
 42 66  1  0  0  0
 42119  1  0  0  0
 42120  1  0  0  0
 43 44  1  0  0  0
 44121  1  0  0  0
 45 46  2  0  0  0
 45122  1  0  0  0
 46123  1  0  0  0
 47124  1  0  0  0
 47125  1  0  0  0
 48 56  1  0  0  0
 48 65  1  0  0  0
 48126  1  0  0  0
 49 50  1  0  0  0
 49 53  1  0  0  0
 49 64  1  0  0  0
 49127  1  0  0  0
 50 51  1  0  0  0
 50128  1  0  0  0
 50129  1  0  0  0
 51 52  1  0  0  0
 51130  1  0  0  0
 51131  1  0  0  0
 52132  1  0  0  0
 52133  1  0  0  0
 53 54  1  0  0  0
 54 55  2  0  0  0
 54134  1  0  0  0
 55 57  1  0  0  0
 55135  1  0  0  0
 56 69  2  0  0  0
 57 58  2  0  0  0
 57136  1  0  0  0
 58137  1  0  0  0
 59 60  1  0  0  0
 59 61  1  0  0  0
 59 62  1  0  0  0
 60138  1  0  0  0
 60139  1  0  0  0
 60140  1  0  0  0
 61141  1  0  0  0
 61142  1  0  0  0
 61143  1  0  0  0
 62144  1  0  0  0
 62145  1  0  0  0
 62146  1  0  0  0
 63 65  1  0  0  0
 63147  1  0  0  0
 63148  1  0  0  0
 63149  1  0  0  0
 64150  1  0  0  0
 65151  1  0  0  0
 68 87  1  0  0  0
 71 73  2  0  0  0
 71 75  1  0  0  0
 71152  1  0  0  0
 72 74  1  0  0  0
 72 75  2  0  0  0
 72153  1  0  0  0
 73 76  1  0  0  0
 73 82  1  0  0  0
 74 76  2  0  0  0
 74 90  1  0  0  0
 75 92  1  0  0  0
 76 91  1  0  0  0
 77 80  1  0  0  0
 77 81  1  0  0  0
 77154  1  0  0  0
 77155  1  0  0  0
 78 79  1  0  0  0
 78 82  1  0  0  0
 78156  1  0  0  0
 78157  1  0  0  0
 79 82  1  0  0  0
 79158  1  0  0  0
 79159  1  0  0  0
 80 83  1  0  0  0
 80160  1  0  0  0
 80161  1  0  0  0
 81 89  1  0  0  0
 81162  1  0  0  0
 81163  1  0  0  0
 82164  1  0  0  0
 83 85  1  0  0  0
 83 89  1  0  0  0
 83165  1  0  0  0
 84 91  1  0  0  0
 84166  1  0  0  0
 84167  1  0  0  0
 84168  1  0  0  0
 85 90  1  0  0  0
 85169  1  0  0  0
 85170  1  0  0  0
 86 87  1  0  0  0
 86 88  1  0  0  0
 86171  1  0  0  0
 86172  1  0  0  0
 87173  1  0  0  0
 87174  1  0  0  0
 88 92  1  0  0  0
 88175  1  0  0  0
 88176  1  0  0  0
 90177  1  0  0  0
M  ISO  4   1 100  68 101  87 101  89 100
M  END
> <chiral flag>
0

> <version>
0

> <s_m_source_file>
/data/baiqing/PycharmProjects/Reinvent-master-3.2/result/LINK_invent/BTK/process_docking_weight1_custom_sum_contain_oxygen_bond_distance_aromatic_linkinvent_7_9_3/rearranged_h_0144.sdf

> <i_m_source_file_index>
6

> <r_mmod_Potential_Energy-OPLS-2005>
313.907135009766

> <r_mmod_Stretch_Energy-OPLS-2005>
40.2787933349609

> <r_mmod_Bend_Energy-OPLS-2005>
168.389251708984

> <r_mmod_Torsional_Energy-OPLS-2005>
434.076354980469

> <r_mmod_Improper_Torsional_Energy-OPLS-2005>
26.7070789337158

> <r_mmod_Van_der_Waal_Energy-OPLS-2005>
146.698318481445

> <r_mmod_Electrostatic_Energy-OPLS-2005>
-326.898468017578

> <r_mmod_Solvation_Energy-OPLS-2005>
-206.704177856445

> <b_mmod_Minimization_Converged-OPLS-2005>
0

> <r_mmod_RMS_Derivative-OPLS-2005>
1.73053443431854

$$$$
6
                    3D
 Structure written by MMmdl.
175184  0  0  1  0            999 V2000
  -30.6101  -14.6789   20.4426 C   0  0  0  0  0  0
  -30.4430  -12.3950   19.4554 C   0  0  0  0  0  0
  -29.5215  -12.4948   18.2186 C   0  0  0  0  0  0
  -28.0403  -12.3498   18.6288 C   0  0  0  0  0  0
  -27.6614  -13.2175   19.8625 C   0  0  2  0  0  0
  -28.7139  -13.0913   20.9856 C   0  0  0  0  0  0
  -25.2636  -13.8110   20.5660 C   0  0  0  0  0  0
  -24.1879  -13.0364   20.9172 C   0  0  0  0  0  0
  -24.6444  -11.6849   20.8731 C   0  0  0  0  0  0
  -23.9071  -10.4236   21.0396 C   0  0  0  0  0  0
  -24.3621   -9.4150   21.9166 C   0  0  0  0  0  0
  -23.6280   -8.2185   22.0735 C   0  0  0  0  0  0
  -22.4270   -8.0246   21.3535 C   0  0  0  0  0  0
  -21.9899   -9.0216   20.4647 C   0  0  0  0  0  0
  -22.7226  -10.2081   20.3051 C   0  0  0  0  0  0
  -21.6861   -6.0705   22.5252 C   0  0  0  0  0  0
  -21.4002   -6.5608   23.8182 C   0  0  0  0  0  0
  -21.3652   -5.6760   24.9155 C   0  0  0  0  0  0
  -21.6064   -4.3033   24.7213 C   0  0  0  0  0  0
  -21.8843   -3.8113   23.4336 C   0  0  0  0  0  0
  -21.9210   -4.6913   22.3391 C   0  0  0  0  0  0
  -22.7922  -13.5207   21.1820 C   0  0  0  0  0  0
  -22.1704   -4.2108   21.0975 F   0  0  0  0  0  0
  -21.5637   -3.4528   25.7743 F   0  0  0  0  0  0
  -30.0054  -13.4468   20.3970 N   0  0  0  0  0  0
  -26.3085  -12.9278   20.3345 N   0  0  0  0  0  0
  -25.9392  -11.6440   20.5769 N   0  0  0  0  0  0
  -22.0512  -12.8214   22.0375 N   0  0  0  0  0  0
  -25.4259  -15.1786   20.4055 N   0  0  0  0  0  0
  -31.7978  -14.7908   20.1120 O   0  0  0  0  0  0
  -21.6630   -6.8848   21.4221 O   0  0  0  0  0  0
  -22.3617  -14.5505   20.6662 O   0  0  0  0  0  0
  -24.6333  -31.8554   23.1990 C   0  0  0  0  0  0
  -25.9181  -32.4740   23.8318 C   0  0  1  0  0  0
  -27.2226  -27.2932   20.1266 C   0  0  0  0  0  0
  -25.5966  -33.8536   24.2221 N   0  0  0  0  0  0
  -23.4232  -30.4808   21.5435 C   0  0  2  0  0  0
  -24.8648  -28.9257   20.1087 C   0  0  0  0  0  0
  -22.7510  -29.4586   22.4911 C   0  0  0  0  0  0
  -18.0291  -28.1375   22.8488 C   0  0  0  0  0  0
  -24.1470  -36.7277   23.2637 C   0  0  0  0  0  0
  -25.9642  -30.7869   21.3614 C   0  0  0  0  0  0
  -26.0353  -29.4091   20.7056 C   0  0  0  0  0  0
  -27.2154  -28.6083   20.6931 C   0  0  0  0  0  0
  -26.0317  -26.8661   19.4989 C   0  0  0  0  0  0
  -24.8665  -27.6593   19.4959 C   0  0  0  0  0  0
  -23.6400  -29.8199   20.1558 C   0  0  0  0  0  0
  -25.4098  -36.3027   24.0297 C   0  0  1  0  0  0
  -20.5897  -28.3673   23.1280 C   0  0  2  0  0  0
  -20.6744  -26.9396   22.5419 C   0  0  0  0  0  0
  -19.5723  -26.6357   21.5210 C   0  0  0  0  0  0
  -18.1912  -26.7914   22.1622 C   0  0  0  0  0  0
  -19.1551  -28.8832   23.2882 C   0  0  0  0  0  0
  -18.9476  -30.1426   23.8917 C   0  0  0  0  0  0
  -17.6479  -30.6573   24.0564 C   0  0  0  0  0  0
  -25.9072  -34.9421   23.5057 C   0  0  0  0  0  0
  -16.5367  -29.9092   23.6314 C   0  0  0  0  0  0
  -16.7282  -28.6498   23.0352 C   0  0  0  0  0  0
  -26.4518  -31.6577   25.0729 C   0  0  0  0  0  0
  -25.3724  -31.3797   26.1452 C   0  0  0  0  0  0
  -27.0357  -30.2984   24.6196 C   0  0  0  0  0  0
  -27.5998  -32.4373   25.7573 C   0  0  0  0  0  0
  -27.5542  -37.1797   24.8457 C   0  0  0  0  0  0
  -21.4204  -29.3021   22.3670 N   0  0  0  0  0  0
  -26.4231  -37.3761   23.9431 N   0  0  0  0  0  0
  -24.6938  -31.0586   22.0919 N   0  0  0  0  0  0
  -23.4237  -28.8111   23.2959 O   0  0  0  0  0  0
  -28.3479  -26.4576   20.2243 O   0  0  0  0  0  0
  -26.5673  -34.8906   22.4646 O   0  0  0  0  0  0
  -23.5503  -32.1326   23.7359 O   0  0  0  0  0  0
  -29.8621  -22.8970   20.8931 C   0  0  0  0  0  0
  -27.4683  -22.5758   20.2541 C   0  0  0  0  0  0
  -29.7308  -24.3314   20.1954 C   0  0  0  0  0  0
  -27.3295  -24.0727   20.7064 C   0  0  0  0  0  0
  -29.6331  -18.1947   21.5839 C   0  0  0  0  0  0
  -28.6775  -17.8427   19.3327 C   0  0  0  0  0  0
  -29.6171  -16.6076   21.7225 C   0  0  0  0  0  0
  -29.7735  -16.7141   19.3019 C   0  0  0  0  0  0
  -28.7266  -21.8036   20.7828 C   0  0  1  0  0  0
  -28.3255  -24.9881   19.9528 C   0  0  1  0  0  0
  -28.6747  -18.8797   20.5251 C   0  0  0  0  0  0
  -25.2144  -18.4987   19.5812 C   0  0  0  0  0  0
  -25.0747  -20.1523   21.4468 C   0  0  0  0  0  0
  -29.1245  -20.3884   20.0616 C   0  0  0  0  0  0
  -27.2619  -18.9477   21.1861 C   0  0  0  0  0  0
  -26.0306  -19.5078   20.4135 C   0  0  0  0  0  0
  -29.7972  -15.8044   20.4792 N   0  0  0  0  0  0
  -31.4947  -12.4958   19.1703 H   0  0  0  0  0  0
  -30.3546  -11.4093   19.9201 H   0  0  0  0  0  0
  -29.7848  -11.7281   17.4872 H   0  0  0  0  0  0
  -29.6740  -13.4565   17.7266 H   0  0  0  0  0  0
  -27.8725  -11.2970   18.8575 H   0  0  0  0  0  0
  -27.3888  -12.5954   17.7873 H   0  0  0  0  0  0
  -27.6735  -14.2540   19.5232 H   0  0  0  0  0  0
  -28.7571  -12.0685   21.3686 H   0  0  0  0  0  0
  -28.4940  -13.7391   21.8334 H   0  0  0  0  0  0
  -25.2749   -9.5635   22.4748 H   0  0  0  0  0  0
  -23.9993   -7.4578   22.7448 H   0  0  0  0  0  0
  -21.0809   -8.8723   19.8975 H   0  0  0  0  0  0
  -22.3655  -10.9628   19.6194 H   0  0  0  0  0  0
  -21.1970   -7.6114   23.9699 H   0  0  0  0  0  0
  -21.1485   -6.0474   25.9072 H   0  0  0  0  0  0
  -22.0646   -2.7571   23.2833 H   0  0  0  0  0  0
  -22.4102  -11.9864   22.4782 H   0  0  0  0  0  0
  -21.1165  -13.1304   22.2605 H   0  0  0  0  0  0
  -24.6341  -15.8078   20.4765 H   0  0  0  0  0  0
  -26.2662  -15.6326   20.0693 H   0  0  0  0  0  0
  -26.7285  -32.5383   23.1096 H   0  0  0  0  0  0
  -25.0035  -33.9649   25.0311 H   0  0  0  0  0  0
  -22.7097  -31.2968   21.4062 H   0  0  0  0  0  0
  -23.3695  -35.9647   23.3300 H   0  0  0  0  0  0
  -24.3536  -36.8928   22.2048 H   0  0  0  0  0  0
  -23.7259  -37.6480   23.6700 H   0  0  0  0  0  0
  -26.0850  -31.5479   20.5891 H   0  0  0  0  0  0
  -26.8499  -30.8425   21.9827 H   0  0  0  0  0  0
  -28.1196  -28.9831   21.1517 H   0  0  0  0  0  0
  -25.9760  -25.8989   19.0242 H   0  0  0  0  0  0
  -23.9720  -27.2743   19.0252 H   0  0  0  0  0  0
  -23.7713  -30.6049   19.4082 H   0  0  0  0  0  0
  -22.7522  -29.2697   19.8442 H   0  0  0  0  0  0
  -25.1279  -36.1800   25.0775 H   0  0  0  0  0  0
  -20.9998  -28.3248   24.1396 H   0  0  0  0  0  0
  -20.5557  -26.2326   23.3644 H   0  0  0  0  0  0
  -21.6620  -26.7346   22.1269 H   0  0  0  0  0  0
  -19.6870  -25.6255   21.1263 H   0  0  0  0  0  0
  -19.6651  -27.3131   20.6711 H   0  0  0  0  0  0
  -17.4186  -26.6678   21.4030 H   0  0  0  0  0  0
  -18.0305  -26.0048   22.9007 H   0  0  0  0  0  0
  -19.7960  -30.7214   24.2319 H   0  0  0  0  0  0
  -17.5049  -31.6246   24.5178 H   0  0  0  0  0  0
  -15.5371  -30.3002   23.7605 H   0  0  0  0  0  0
  -15.8685  -28.0802   22.7077 H   0  0  0  0  0  0
  -24.5847  -30.7186   25.7828 H   0  0  0  0  0  0
  -24.8992  -32.3028   26.4818 H   0  0  0  0  0  0
  -25.8014  -30.9018   27.0266 H   0  0  0  0  0  0
  -26.2946  -29.6764   24.1159 H   0  0  0  0  0  0
  -27.3983  -29.7190   25.4696 H   0  0  0  0  0  0
  -27.8837  -30.4251   23.9458 H   0  0  0  0  0  0
  -27.2464  -33.3615   26.2162 H   0  0  0  0  0  0
  -28.3840  -32.7057   25.0488 H   0  0  0  0  0  0
  -28.0647  -31.8537   26.5526 H   0  0  0  0  0  0
  -28.2542  -38.0107   24.7495 H   0  0  0  0  0  0
  -28.1038  -36.2632   24.6256 H   0  0  0  0  0  0
  -27.2298  -37.1440   25.8871 H   0  0  0  0  0  0
  -20.9383  -29.8825   21.6954 H   0  0  0  0  0  0
  -26.0061  -38.2801   24.1477 H   0  0  0  0  0  0
  -29.9474  -23.1178   21.9600 H   0  0  0  0  0  0
  -30.8341  -22.4611   20.6601 H   0  0  0  0  0  0
  -27.4115  -22.5001   19.1646 H   0  0  0  0  0  0
  -26.5699  -22.1104   20.6256 H   0  0  0  0  0  0
  -30.2676  -24.3233   19.2480 H   0  0  0  0  0  0
  -30.2932  -25.0319   20.8169 H   0  0  0  0  0  0
  -27.4882  -24.1524   21.7814 H   0  0  0  0  0  0
  -26.3004  -24.3841   20.5421 H   0  0  0  0  0  0
  -30.6642  -18.4970   21.3955 H   0  0  0  0  0  0
  -29.4067  -18.5931   22.5720 H   0  0  0  0  0  0
  -27.7358  -17.3029   19.3175 H   0  0  0  0  0  0
  -28.6945  -18.3638   18.3743 H   0  0  0  0  0  0
  -28.6820  -16.2937   22.1907 H   0  0  0  0  0  0
  -30.4044  -16.3296   22.4316 H   0  0  0  0  0  0
  -30.7520  -17.1746   19.1854 H   0  0  0  0  0  0
  -29.6243  -16.1151   18.3995 H   0  0  0  0  0  0
  -28.5075  -21.5393   21.8202 H   0  0  0  0  0  0
  -28.1053  -24.8662   18.8913 H   0  0  0  0  0  0
  -24.3975  -19.0105   19.0653 H   0  0  0  0  0  0
  -24.7491  -17.7432   20.2121 H   0  0  0  0  0  0
  -25.7919  -17.9979   18.8055 H   0  0  0  0  0  0
  -24.1872  -20.5746   20.9715 H   0  0  0  0  0  0
  -25.5510  -20.9410   22.0312 H   0  0  0  0  0  0
  -24.7482  -19.4222   22.1873 H   0  0  0  0  0  0
  -30.2116  -20.3582   19.9698 H   0  0  0  0  0  0
  -28.7958  -20.4931   19.0287 H   0  0  0  0  0  0
  -27.4161  -19.5926   22.0532 H   0  0  0  0  0  0
  -26.9797  -17.9860   21.6120 H   0  0  0  0  0  0
  -26.3711  -20.2485   19.6935 H   0  0  0  0  0  0
  1 25  1  0  0  0
  1 30  2  0  0  0
  1 87  1  0  0  0
  2  3  1  0  0  0
  2 25  1  0  0  0
  2 88  1  0  0  0
  2 89  1  0  0  0
  3  4  1  0  0  0
  3 90  1  0  0  0
  3 91  1  0  0  0
  4  5  1  0  0  0
  4 92  1  0  0  0
  4 93  1  0  0  0
  5  6  1  0  0  0
  5 26  1  0  0  0
  5 94  1  0  0  0
  6 25  1  0  0  0
  6 95  1  0  0  0
  6 96  1  0  0  0
  7  8  2  0  0  0
  7 26  1  0  0  0
  7 29  1  0  0  0
  8  9  1  0  0  0
  8 22  1  0  0  0
  9 10  1  0  0  0
  9 27  2  0  0  0
 10 11  2  0  0  0
 10 15  1  0  0  0
 11 12  1  0  0  0
 11 97  1  0  0  0
 12 13  2  0  0  0
 12 98  1  0  0  0
 13 14  1  0  0  0
 13 31  1  0  0  0
 14 15  2  0  0  0
 14 99  1  0  0  0
 15100  1  0  0  0
 16 17  2  0  0  0
 16 21  1  0  0  0
 16 31  1  0  0  0
 17 18  1  0  0  0
 17101  1  0  0  0
 18 19  2  0  0  0
 18102  1  0  0  0
 19 20  1  0  0  0
 19 24  1  0  0  0
 20 21  2  0  0  0
 20103  1  0  0  0
 21 23  1  0  0  0
 22 28  1  0  0  0
 22 32  2  0  0  0
 26 27  1  0  0  0
 28104  1  0  0  0
 28105  1  0  0  0
 29106  1  0  0  0
 29107  1  0  0  0
 33 34  1  0  0  0
 33 66  1  0  0  0
 33 70  2  0  0  0
 34 36  1  0  0  0
 34 59  1  0  0  0
 34108  1  0  0  0
 35 44  2  0  0  0
 35 45  1  0  0  0
 35 68  1  0  0  0
 36 56  1  0  0  0
 36109  1  0  0  0
 37 39  1  0  0  0
 37 47  1  0  0  0
 37 66  1  0  0  0
 37110  1  0  0  0
 38 43  2  0  0  0
 38 46  1  0  0  0
 38 47  1  0  0  0
 39 64  1  0  0  0
 39 67  2  0  0  0
 40 52  1  0  0  0
 40 53  2  0  0  0
 40 58  1  0  0  0
 41111  1  0  0  0
 41112  1  0  0  0
 41113  1  0  0  0
 41 48  1  0  0  0
 42 43  1  0  0  0
 42 66  1  0  0  0
 42114  1  0  0  0
 42115  1  0  0  0
 43 44  1  0  0  0
 44116  1  0  0  0
 45 46  2  0  0  0
 45117  1  0  0  0
 46118  1  0  0  0
 47119  1  0  0  0
 47120  1  0  0  0
 48 56  1  0  0  0
 48 65  1  0  0  0
 48121  1  0  0  0
 49 50  1  0  0  0
 49 53  1  0  0  0
 49 64  1  0  0  0
 49122  1  0  0  0
 50 51  1  0  0  0
 50123  1  0  0  0
 50124  1  0  0  0
 51 52  1  0  0  0
 51125  1  0  0  0
 51126  1  0  0  0
 52127  1  0  0  0
 52128  1  0  0  0
 53 54  1  0  0  0
 54 55  2  0  0  0
 54129  1  0  0  0
 55 57  1  0  0  0
 55130  1  0  0  0
 56 69  2  0  0  0
 57 58  2  0  0  0
 57131  1  0  0  0
 58132  1  0  0  0
 59 60  1  0  0  0
 59 61  1  0  0  0
 59 62  1  0  0  0
 60133  1  0  0  0
 60134  1  0  0  0
 60135  1  0  0  0
 61136  1  0  0  0
 61137  1  0  0  0
 61138  1  0  0  0
 62139  1  0  0  0
 62140  1  0  0  0
 62141  1  0  0  0
 63 65  1  0  0  0
 63142  1  0  0  0
 63143  1  0  0  0
 63144  1  0  0  0
 64145  1  0  0  0
 65146  1  0  0  0
 68 80  1  0  0  0
 71 73  1  0  0  0
 71 79  1  0  0  0
 71147  1  0  0  0
 71148  1  0  0  0
 72 74  1  0  0  0
 72 79  1  0  0  0
 72149  1  0  0  0
 72150  1  0  0  0
 73 80  1  0  0  0
 73151  1  0  0  0
 73152  1  0  0  0
 74 80  1  0  0  0
 74153  1  0  0  0
 74154  1  0  0  0
 75 77  1  0  0  0
 75 81  1  0  0  0
 75155  1  0  0  0
 75156  1  0  0  0
 76 78  1  0  0  0
 76 81  1  0  0  0
 76157  1  0  0  0
 76158  1  0  0  0
 77 87  1  0  0  0
 77159  1  0  0  0
 77160  1  0  0  0
 78 87  1  0  0  0
 78161  1  0  0  0
 78162  1  0  0  0
 79 84  1  0  0  0
 79163  1  0  0  0
 80164  1  0  0  0
 81 84  1  0  0  0
 81 85  1  0  0  0
 82165  1  0  0  0
 82166  1  0  0  0
 82167  1  0  0  0
 82 86  1  0  0  0
 83 86  1  0  0  0
 83168  1  0  0  0
 83169  1  0  0  0
 83170  1  0  0  0
 84171  1  0  0  0
 84172  1  0  0  0
 85 86  1  0  0  0
 85173  1  0  0  0
 85174  1  0  0  0
 86175  1  0  0  0
M  ISO  4   1 100  68 101  80 101  87 100
M  END
> <chiral flag>
0

> <version>
0

> <s_m_source_file>
/data/baiqing/PycharmProjects/Reinvent-master-3.2/result/LINK_invent/BTK/process_docking_weight1_custom_sum_contain_oxygen_bond_distance_aromatic_linkinvent_7_9_3/rearranged_h_0144.sdf

> <i_m_source_file_index>
7

> <r_mmod_Potential_Energy-OPLS-2005>
527.350524902344

> <r_mmod_Stretch_Energy-OPLS-2005>
117.280395507812

> <r_mmod_Bend_Energy-OPLS-2005>
227.56266784668

> <r_mmod_Torsional_Energy-OPLS-2005>
426.091461181641

> <r_mmod_Improper_Torsional_Energy-OPLS-2005>
13.8865547180176

> <r_mmod_Van_der_Waal_Energy-OPLS-2005>
139.084411621094

> <r_mmod_Electrostatic_Energy-OPLS-2005>
-288.554534912109

> <r_mmod_Solvation_Energy-OPLS-2005>
-169.582427978516

> <b_mmod_Minimization_Converged-OPLS-2005>
0

> <r_mmod_RMS_Derivative-OPLS-2005>
6.98385906219482

$$$$
7
                    3D
 Structure written by MMmdl.
170180  0  0  1  0            999 V2000
  -30.6214  -14.6268   20.5185 C   0  0  0  0  0  0
  -30.4405  -12.3893   19.4360 C   0  0  0  0  0  0
  -29.5039  -12.5100   18.2137 C   0  0  0  0  0  0
  -28.0279  -12.3413   18.6299 C   0  0  0  0  0  0
  -27.6521  -13.2100   19.8597 C   0  0  2  0  0  0
  -28.7007  -13.0555   20.9832 C   0  0  0  0  0  0
  -25.2583  -13.8152   20.5716 C   0  0  0  0  0  0
  -24.1839  -13.0423   20.9207 C   0  0  0  0  0  0
  -24.6399  -11.6894   20.8752 C   0  0  0  0  0  0
  -23.9070  -10.4285   21.0414 C   0  0  0  0  0  0
  -24.3623   -9.4201   21.9191 C   0  0  0  0  0  0
  -23.6295   -8.2241   22.0761 C   0  0  0  0  0  0
  -22.4274   -8.0284   21.3562 C   0  0  0  0  0  0
  -21.9920   -9.0250   20.4651 C   0  0  0  0  0  0
  -22.7252  -10.2124   20.3062 C   0  0  0  0  0  0
  -21.6852   -6.0748   22.5294 C   0  0  0  0  0  0
  -21.4012   -6.5648   23.8226 C   0  0  0  0  0  0
  -21.3656   -5.6800   24.9183 C   0  0  0  0  0  0
  -21.6046   -4.3065   24.7230 C   0  0  0  0  0  0
  -21.8817   -3.8163   23.4351 C   0  0  0  0  0  0
  -21.9190   -4.6980   22.3411 C   0  0  0  0  0  0
  -22.7862  -13.5217   21.1865 C   0  0  0  0  0  0
  -22.1662   -4.2168   21.0985 F   0  0  0  0  0  0
  -21.5626   -3.4545   25.7740 F   0  0  0  0  0  0
  -30.0120  -13.4051   20.4149 N   0  0  0  0  0  0
  -26.2990  -12.9321   20.3319 N   0  0  0  0  0  0
  -25.9320  -11.6484   20.5760 N   0  0  0  0  0  0
  -22.0492  -12.8206   22.0410 N   0  0  0  0  0  0
  -25.4301  -15.1873   20.4168 N   0  0  0  0  0  0
  -31.7946  -14.7934   20.1771 O   0  0  0  0  0  0
  -21.6641   -6.8887   21.4252 O   0  0  0  0  0  0
  -22.3554  -14.5532   20.6715 O   0  0  0  0  0  0
  -24.6230  -31.8617   23.2046 C   0  0  0  0  0  0
  -25.9086  -32.4798   23.8369 C   0  0  1  0  0  0
  -27.2280  -27.3409   20.1140 C   0  0  0  0  0  0
  -25.5917  -33.8598   24.2297 N   0  0  0  0  0  0
  -23.4163  -30.4832   21.5477 C   0  0  2  0  0  0
  -24.8629  -28.9397   20.1122 C   0  0  0  0  0  0
  -22.7456  -29.4625   22.4964 C   0  0  0  0  0  0
  -18.0274  -28.1391   22.8491 C   0  0  0  0  0  0
  -24.1482  -36.7288   23.2644 C   0  0  0  0  0  0
  -25.9543  -30.7987   21.3726 C   0  0  0  0  0  0
  -26.0292  -29.4271   20.7150 C   0  0  0  0  0  0
  -27.2140  -28.6383   20.7064 C   0  0  0  0  0  0
  -26.0402  -26.8967   19.4904 C   0  0  0  0  0  0
  -24.8693  -27.6797   19.4929 C   0  0  0  0  0  0
  -23.6292  -29.8177   20.1626 C   0  0  0  0  0  0
  -25.4114  -36.3092   24.0326 C   0  0  1  0  0  0
  -20.5873  -28.3681   23.1310 C   0  0  2  0  0  0
  -20.6770  -26.9407   22.5428 C   0  0  0  0  0  0
  -19.5751  -26.6384   21.5221 C   0  0  0  0  0  0
  -18.1921  -26.7941   22.1612 C   0  0  0  0  0  0
  -19.1528  -28.8851   23.2896 C   0  0  0  0  0  0
  -18.9452  -30.1456   23.8903 C   0  0  0  0  0  0
  -17.6453  -30.6594   24.0556 C   0  0  0  0  0  0
  -25.9044  -34.9459   23.5111 C   0  0  0  0  0  0
  -16.5341  -29.9088   23.6336 C   0  0  0  0  0  0
  -16.7262  -28.6509   23.0357 C   0  0  0  0  0  0
  -26.4482  -31.6600   25.0728 C   0  0  0  0  0  0
  -25.3712  -31.3725   26.1450 C   0  0  0  0  0  0
  -27.0342  -30.3041   24.6159 C   0  0  0  0  0  0
  -27.6048  -32.4332   25.7499 C   0  0  0  0  0  0
  -27.5583  -37.1795   24.8460 C   0  0  0  0  0  0
  -21.4172  -29.3037   22.3705 N   0  0  0  0  0  0
  -26.4297  -37.3783   23.9404 N   0  0  0  0  0  0
  -24.6831  -31.0637   22.0993 N   0  0  0  0  0  0
  -23.4187  -28.8162   23.3033 O   0  0  0  0  0  0
  -28.3665  -26.5305   20.1617 O   0  0  0  0  0  0
  -26.5605  -34.8912   22.4675 O   0  0  0  0  0  0
  -23.5399  -32.1414   23.7382 O   0  0  0  0  0  0
  -30.8909  -22.1594   20.8149 C   0  0  0  0  0  0
  -28.6220  -21.7672   20.1633 C   0  0  0  0  0  0
  -31.1760  -20.7658   20.7928 C   0  0  0  0  0  0
  -30.1654  -19.8050   20.4698 C   0  0  0  0  0  0
  -29.6274  -22.7084   20.4996 C   0  0  0  0  0  0
  -28.8800  -20.3549   20.1509 C   0  0  0  0  0  0
  -33.7897  -21.0859   20.5686 C   0  0  0  0  0  0
  -33.4904  -19.6671   20.1540 C   0  0  0  0  0  0
  -31.3277  -17.6260   21.4743 C   0  0  0  0  0  0
  -32.5859  -20.3670   21.1435 C   0  0  0  0  0  0
  -30.4964  -18.2689   20.3757 C   0  0  1  0  0  0
  -29.9514  -17.0775   21.2412 C   0  0  1  0  0  0
  -26.7063  -17.9574   17.9576 C   0  0  0  0  0  0
  -29.4679  -24.2708   20.5916 C   0  0  0  0  0  0
  -27.7350  -19.4280   19.7700 C   0  0  0  0  0  0
  -27.8051  -18.9675   18.3054 C   0  0  0  0  0  0
  -28.2267  -25.0674   20.0330 C   0  0  0  0  0  0
  -29.7848  -15.6544   20.8632 N   0  0  0  0  0  0
  -31.4815  -12.5209   19.1341 H   0  0  0  0  0  0
  -30.3755  -11.3912   19.8732 H   0  0  0  0  0  0
  -29.7659  -11.7664   17.4604 H   0  0  0  0  0  0
  -29.6425  -13.4845   17.7419 H   0  0  0  0  0  0
  -27.8673  -11.2868   18.8596 H   0  0  0  0  0  0
  -27.3691  -12.5702   17.7923 H   0  0  0  0  0  0
  -27.6691  -14.2457   19.5204 H   0  0  0  0  0  0
  -28.7160  -12.0293   21.3534 H   0  0  0  0  0  0
  -28.4493  -13.6749   21.8464 H   0  0  0  0  0  0
  -25.2765   -9.5668   22.4762 H   0  0  0  0  0  0
  -24.0010   -7.4626   22.7470 H   0  0  0  0  0  0
  -21.0869   -8.8764   19.8937 H   0  0  0  0  0  0
  -22.3729  -10.9662   19.6170 H   0  0  0  0  0  0
  -21.1999   -7.6154   23.9736 H   0  0  0  0  0  0
  -21.1484   -6.0529   25.9087 H   0  0  0  0  0  0
  -22.0594   -2.7629   23.2853 H   0  0  0  0  0  0
  -22.4106  -11.9852   22.4771 H   0  0  0  0  0  0
  -21.1117  -13.1257   22.2616 H   0  0  0  0  0  0
  -24.6606  -15.8385   20.5248 H   0  0  0  0  0  0
  -26.2725  -15.6276   20.0742 H   0  0  0  0  0  0
  -26.7151  -32.5471   23.1116 H   0  0  0  0  0  0
  -25.0062  -33.9754   25.0441 H   0  0  0  0  0  0
  -22.7090  -31.3027   21.4058 H   0  0  0  0  0  0
  -23.3762  -35.9605   23.3295 H   0  0  0  0  0  0
  -24.3575  -36.8928   22.2065 H   0  0  0  0  0  0
  -23.7200  -37.6469   23.6676 H   0  0  0  0  0  0
  -26.0806  -31.5629   20.6049 H   0  0  0  0  0  0
  -26.8371  -30.8495   21.9984 H   0  0  0  0  0  0
  -28.1100  -29.0068   21.1855 H   0  0  0  0  0  0
  -25.9956  -25.9345   19.0030 H   0  0  0  0  0  0
  -23.9737  -27.3026   19.0185 H   0  0  0  0  0  0
  -23.7462  -30.5959   19.4073 H   0  0  0  0  0  0
  -22.7495  -29.2464   19.8612 H   0  0  0  0  0  0
  -25.1296  -36.1963   25.0821 H   0  0  0  0  0  0
  -20.9958  -28.3252   24.1435 H   0  0  0  0  0  0
  -20.5695  -26.2277   23.3617 H   0  0  0  0  0  0
  -21.6638  -26.7456   22.1209 H   0  0  0  0  0  0
  -19.6916  -25.6296   21.1253 H   0  0  0  0  0  0
  -19.6713  -27.3197   20.6758 H   0  0  0  0  0  0
  -17.4210  -26.6718   21.3995 H   0  0  0  0  0  0
  -18.0286  -26.0077   22.8994 H   0  0  0  0  0  0
  -19.7921  -30.7280   24.2272 H   0  0  0  0  0  0
  -17.4998  -31.6279   24.5152 H   0  0  0  0  0  0
  -15.5345  -30.2990   23.7658 H   0  0  0  0  0  0
  -15.8664  -28.0827   22.7077 H   0  0  0  0  0  0
  -24.5889  -30.7085   25.7756 H   0  0  0  0  0  0
  -24.8898  -32.2888   26.4874 H   0  0  0  0  0  0
  -25.8026  -30.8891   27.0222 H   0  0  0  0  0  0
  -26.2921  -29.6783   24.1191 H   0  0  0  0  0  0
  -27.4079  -29.7302   25.4646 H   0  0  0  0  0  0
  -27.8759  -30.4361   23.9358 H   0  0  0  0  0  0
  -27.2668  -33.3629   26.2084 H   0  0  0  0  0  0
  -28.3852  -32.6899   25.0326 H   0  0  0  0  0  0
  -28.0717  -31.8452   26.5408 H   0  0  0  0  0  0
  -28.2592  -38.0101   24.7527 H   0  0  0  0  0  0
  -28.1085  -36.2629   24.6271 H   0  0  0  0  0  0
  -27.2289  -37.1422   25.8858 H   0  0  0  0  0  0
  -20.9340  -29.8771   21.6935 H   0  0  0  0  0  0
  -26.0183  -38.2860   24.1428 H   0  0  0  0  0  0
  -31.6849  -22.8417   21.0867 H   0  0  0  0  0  0
  -27.6336  -22.1275   19.9122 H   0  0  0  0  0  0
  -33.6318  -21.8630   19.8230 H   0  0  0  0  0  0
  -34.6499  -21.2300   21.2204 H   0  0  0  0  0  0
  -34.1487  -18.8906   20.5395 H   0  0  0  0  0  0
  -33.1154  -19.5062   19.1452 H   0  0  0  0  0  0
  -31.4464  -18.1437   22.4237 H   0  0  0  0  0  0
  -32.2041  -17.0739   21.1464 H   0  0  0  0  0  0
  -32.6541  -20.0951   22.1954 H   0  0  0  0  0  0
  -30.7946  -18.0361   19.3547 H   0  0  0  0  0  0
  -29.2068  -17.3946   21.9685 H   0  0  0  0  0  0
  -26.7648  -17.6601   16.9098 H   0  0  0  0  0  0
  -25.7127  -18.3737   18.1292 H   0  0  0  0  0  0
  -26.8003  -17.0548   18.5618 H   0  0  0  0  0  0
  -30.3533  -24.6965   20.1181 H   0  0  0  0  0  0
  -29.5619  -24.5250   21.6475 H   0  0  0  0  0  0
  -26.7859  -19.9365   19.9441 H   0  0  0  0  0  0
  -27.7293  -18.5688   20.4391 H   0  0  0  0  0  0
  -27.7326  -19.8334   17.6475 H   0  0  0  0  0  0
  -28.7732  -18.5127   18.1012 H   0  0  0  0  0  0
  -27.3362  -24.7337   20.5688 H   0  0  0  0  0  0
  -28.0797  -24.8175   18.9812 H   0  0  0  0  0  0
  -28.8420  -15.3233   21.0007 H   0  0  0  0  0  0
  1 25  1  0  0  0
  1 30  2  0  0  0
  1 88  1  0  0  0
  2  3  1  0  0  0
  2 25  1  0  0  0
  2 89  1  0  0  0
  2 90  1  0  0  0
  3  4  1  0  0  0
  3 91  1  0  0  0
  3 92  1  0  0  0
  4  5  1  0  0  0
  4 93  1  0  0  0
  4 94  1  0  0  0
  5  6  1  0  0  0
  5 26  1  0  0  0
  5 95  1  0  0  0
  6 25  1  0  0  0
  6 96  1  0  0  0
  6 97  1  0  0  0
  7  8  2  0  0  0
  7 26  1  0  0  0
  7 29  1  0  0  0
  8  9  1  0  0  0
  8 22  1  0  0  0
  9 10  1  0  0  0
  9 27  2  0  0  0
 10 11  2  0  0  0
 10 15  1  0  0  0
 11 12  1  0  0  0
 11 98  1  0  0  0
 12 13  2  0  0  0
 12 99  1  0  0  0
 13 14  1  0  0  0
 13 31  1  0  0  0
 14 15  2  0  0  0
 14100  1  0  0  0
 15101  1  0  0  0
 16 17  2  0  0  0
 16 21  1  0  0  0
 16 31  1  0  0  0
 17 18  1  0  0  0
 17102  1  0  0  0
 18 19  2  0  0  0
 18103  1  0  0  0
 19 20  1  0  0  0
 19 24  1  0  0  0
 20 21  2  0  0  0
 20104  1  0  0  0
 21 23  1  0  0  0
 22 28  1  0  0  0
 22 32  2  0  0  0
 26 27  1  0  0  0
 28105  1  0  0  0
 28106  1  0  0  0
 29107  1  0  0  0
 29108  1  0  0  0
 33 34  1  0  0  0
 33 66  1  0  0  0
 33 70  2  0  0  0
 34 36  1  0  0  0
 34 59  1  0  0  0
 34109  1  0  0  0
 35 44  2  0  0  0
 35 45  1  0  0  0
 35 68  1  0  0  0
 36 56  1  0  0  0
 36110  1  0  0  0
 37 39  1  0  0  0
 37 47  1  0  0  0
 37 66  1  0  0  0
 37111  1  0  0  0
 38 43  2  0  0  0
 38 46  1  0  0  0
 38 47  1  0  0  0
 39 64  1  0  0  0
 39 67  2  0  0  0
 40 52  1  0  0  0
 40 53  2  0  0  0
 40 58  1  0  0  0
 41112  1  0  0  0
 41113  1  0  0  0
 41114  1  0  0  0
 41 48  1  0  0  0
 42 43  1  0  0  0
 42 66  1  0  0  0
 42115  1  0  0  0
 42116  1  0  0  0
 43 44  1  0  0  0
 44117  1  0  0  0
 45 46  2  0  0  0
 45118  1  0  0  0
 46119  1  0  0  0
 47120  1  0  0  0
 47121  1  0  0  0
 48 56  1  0  0  0
 48 65  1  0  0  0
 48122  1  0  0  0
 49 50  1  0  0  0
 49 53  1  0  0  0
 49 64  1  0  0  0
 49123  1  0  0  0
 50 51  1  0  0  0
 50124  1  0  0  0
 50125  1  0  0  0
 51 52  1  0  0  0
 51126  1  0  0  0
 51127  1  0  0  0
 52128  1  0  0  0
 52129  1  0  0  0
 53 54  1  0  0  0
 54 55  2  0  0  0
 54130  1  0  0  0
 55 57  1  0  0  0
 55131  1  0  0  0
 56 69  2  0  0  0
 57 58  2  0  0  0
 57132  1  0  0  0
 58133  1  0  0  0
 59 60  1  0  0  0
 59 61  1  0  0  0
 59 62  1  0  0  0
 60134  1  0  0  0
 60135  1  0  0  0
 60136  1  0  0  0
 61137  1  0  0  0
 61138  1  0  0  0
 61139  1  0  0  0
 62140  1  0  0  0
 62141  1  0  0  0
 62142  1  0  0  0
 63 65  1  0  0  0
 63143  1  0  0  0
 63144  1  0  0  0
 63145  1  0  0  0
 64146  1  0  0  0
 65147  1  0  0  0
 68 87  1  0  0  0
 71 73  2  0  0  0
 71 75  1  0  0  0
 71148  1  0  0  0
 72 75  2  0  0  0
 72 76  1  0  0  0
 72149  1  0  0  0
 73 74  1  0  0  0
 73 80  1  0  0  0
 74 76  2  0  0  0
 74 81  1  0  0  0
 75 84  1  0  0  0
 76 85  1  0  0  0
 77 78  1  0  0  0
 77 80  1  0  0  0
 77150  1  0  0  0
 77151  1  0  0  0
 78 80  1  0  0  0
 78152  1  0  0  0
 78153  1  0  0  0
 79 81  1  0  0  0
 79 82  1  0  0  0
 79154  1  0  0  0
 79155  1  0  0  0
 80156  1  0  0  0
 81 82  1  0  0  0
 81157  1  0  0  0
 82 88  1  0  0  0
 82158  1  0  0  0
 83 86  1  0  0  0
 83159  1  0  0  0
 83160  1  0  0  0
 83161  1  0  0  0
 84 87  1  0  0  0
 84162  1  0  0  0
 84163  1  0  0  0
 85 86  1  0  0  0
 85164  1  0  0  0
 85165  1  0  0  0
 86166  1  0  0  0
 86167  1  0  0  0
 87168  1  0  0  0
 87169  1  0  0  0
 88170  1  0  0  0
M  ISO  4   1 100  68 101  87 101  88 100
M  END
> <chiral flag>
0

> <version>
0

> <s_m_source_file>
/data/baiqing/PycharmProjects/Reinvent-master-3.2/result/LINK_invent/BTK/process_docking_weight1_custom_sum_contain_oxygen_bond_distance_aromatic_linkinvent_7_9_3/rearranged_h_0144.sdf

> <i_m_source_file_index>
8

> <r_mmod_Potential_Energy-OPLS-2005>
143.269500732422

> <r_mmod_Stretch_Energy-OPLS-2005>
78.235107421875

> <r_mmod_Bend_Energy-OPLS-2005>
157.354263305664

> <r_mmod_Torsional_Energy-OPLS-2005>
303.012908935547

> <r_mmod_Improper_Torsional_Energy-OPLS-2005>
4.0638747215271

> <r_mmod_Van_der_Waal_Energy-OPLS-2005>
135.258773803711

> <r_mmod_Electrostatic_Energy-OPLS-2005>
-375.782501220703

> <r_mmod_Solvation_Energy-OPLS-2005>
-200.921295166016

> <b_mmod_Minimization_Converged-OPLS-2005>
0

> <r_mmod_RMS_Derivative-OPLS-2005>
1.75519835948944

$$$$
8
                    3D
 Structure written by MMmdl.
172180  0  0  1  0            999 V2000
  -30.6537  -14.5787   20.5486 C   0  0  0  0  0  0
  -30.4249  -12.3632   19.4425 C   0  0  0  0  0  0
  -29.4928  -12.4989   18.2196 C   0  0  0  0  0  0
  -28.0159  -12.3435   18.6361 C   0  0  0  0  0  0
  -27.6488  -13.2114   19.8706 C   0  0  2  0  0  0
  -28.6942  -13.0470   20.9958 C   0  0  0  0  0  0
  -25.2502  -13.8166   20.5702 C   0  0  0  0  0  0
  -24.1784  -13.0415   20.9224 C   0  0  0  0  0  0
  -24.6351  -11.6896   20.8750 C   0  0  0  0  0  0
  -23.9044  -10.4269   21.0377 C   0  0  0  0  0  0
  -24.3603   -9.4205   21.9172 C   0  0  0  0  0  0
  -23.6283   -8.2237   22.0736 C   0  0  0  0  0  0
  -22.4271   -8.0259   21.3534 C   0  0  0  0  0  0
  -21.9905   -9.0216   20.4627 C   0  0  0  0  0  0
  -22.7209  -10.2106   20.3021 C   0  0  0  0  0  0
  -21.6862   -6.0726   22.5272 C   0  0  0  0  0  0
  -21.4009   -6.5643   23.8199 C   0  0  0  0  0  0
  -21.3668   -5.6806   24.9179 C   0  0  0  0  0  0
  -21.6038   -4.3050   24.7235 C   0  0  0  0  0  0
  -21.8818   -3.8152   23.4349 C   0  0  0  0  0  0
  -21.9190   -4.6962   22.3406 C   0  0  0  0  0  0
  -22.7814  -13.5196   21.1914 C   0  0  0  0  0  0
  -22.1652   -4.2139   21.0977 F   0  0  0  0  0  0
  -21.5646   -3.4535   25.7753 F   0  0  0  0  0  0
  -30.0076  -13.3795   20.4250 N   0  0  0  0  0  0
  -26.2946  -12.9345   20.3370 N   0  0  0  0  0  0
  -25.9287  -11.6501   20.5800 N   0  0  0  0  0  0
  -22.0501  -12.8121   22.0454 N   0  0  0  0  0  0
  -25.4188  -15.1878   20.4104 N   0  0  0  0  0  0
  -31.8126  -14.7424   20.1643 O   0  0  0  0  0  0
  -21.6650   -6.8842   21.4221 O   0  0  0  0  0  0
  -22.3485  -14.5515   20.6794 O   0  0  0  0  0  0
  -24.6211  -31.8625   23.2025 C   0  0  0  0  0  0
  -25.9062  -32.4796   23.8346 C   0  0  1  0  0  0
  -27.2386  -27.3752   20.1114 C   0  0  0  0  0  0
  -25.5898  -33.8597   24.2294 N   0  0  0  0  0  0
  -23.4128  -30.4846   21.5419 C   0  0  2  0  0  0
  -24.8633  -28.9307   20.1303 C   0  0  0  0  0  0
  -22.7440  -29.4647   22.4937 C   0  0  0  0  0  0
  -18.0277  -28.1393   22.8486 C   0  0  0  0  0  0
  -24.1484  -36.7311   23.2636 C   0  0  0  0  0  0
  -25.9483  -30.8062   21.3669 C   0  0  0  0  0  0
  -26.0263  -29.4265   20.7369 C   0  0  0  0  0  0
  -27.2199  -28.6536   20.7315 C   0  0  0  0  0  0
  -26.0592  -26.9098   19.4996 C   0  0  0  0  0  0
  -24.8748  -27.6697   19.5122 C   0  0  0  0  0  0
  -23.6292  -29.8047   20.1631 C   0  0  0  0  0  0
  -25.4100  -36.3100   24.0328 C   0  0  1  0  0  0
  -20.5867  -28.3690   23.1279 C   0  0  2  0  0  0
  -20.6780  -26.9417   22.5401 C   0  0  0  0  0  0
  -19.5754  -26.6392   21.5211 C   0  0  0  0  0  0
  -18.1929  -26.7949   22.1609 C   0  0  0  0  0  0
  -19.1531  -28.8859   23.2888 C   0  0  0  0  0  0
  -18.9453  -30.1465   23.8909 C   0  0  0  0  0  0
  -17.6453  -30.6597   24.0568 C   0  0  0  0  0  0
  -25.9029  -34.9461   23.5113 C   0  0  0  0  0  0
  -16.5348  -29.9088   23.6340 C   0  0  0  0  0  0
  -16.7264  -28.6510   23.0354 C   0  0  0  0  0  0
  -26.4469  -31.6588   25.0692 C   0  0  0  0  0  0
  -25.3715  -31.3704   26.1420 C   0  0  0  0  0  0
  -27.0307  -30.3030   24.6098 C   0  0  0  0  0  0
  -27.6066  -32.4283   25.7448 C   0  0  0  0  0  0
  -27.5571  -37.1797   24.8457 C   0  0  0  0  0  0
  -21.4155  -29.3054   22.3684 N   0  0  0  0  0  0
  -26.4286  -37.3786   23.9416 N   0  0  0  0  0  0
  -24.6796  -31.0678   22.0955 N   0  0  0  0  0  0
  -23.4182  -28.8173   23.2989 O   0  0  0  0  0  0
  -28.3847  -26.6283   19.8945 O   0  0  0  0  0  0
  -26.5597  -34.8923   22.4678 O   0  0  0  0  0  0
  -23.5371  -32.1389   23.7374 O   0  0  0  0  0  0
  -31.3778  -22.0911   22.3470 C   0  0  0  0  0  0
  -30.5711  -23.2264   22.1248 C   0  0  0  0  0  0
  -30.9760  -20.7883   22.0146 C   0  0  0  0  0  0
  -29.3008  -23.0992   21.4699 C   0  0  0  0  0  0
  -28.9095  -21.7394   21.1168 C   0  0  0  0  0  0
  -29.7237  -20.5827   21.3904 C   0  0  0  0  0  0
  -31.8820  -19.6492   22.4539 C   0  0  0  0  0  0
  -27.5571  -21.4134   20.4866 C   0  0  0  0  0  0
  -32.3240  -25.0807   21.8670 C   0  0  0  0  0  0
  -26.6142  -23.3349   22.9343 C   0  0  0  0  0  0
  -31.1550  -24.5174   22.6982 C   0  0  0  0  0  0
  -27.2834  -24.5702   22.3157 C   0  0  0  0  0  0
  -30.3386  -16.9927   21.3915 C   0  0  0  0  0  0
  -29.9168  -18.2304   20.5021 C   0  0  0  0  0  0
  -28.9737  -25.7779   20.9004 C   0  0  0  0  0  0
  -28.3487  -24.3515   21.2047 C   0  0  1  0  0  0
  -29.8988  -15.6239   20.9803 N   0  0  0  0  0  0
  -29.1932  -19.2993   21.1805 O   0  0  0  0  0  0
  -31.4685  -12.4789   19.1434 H   0  0  0  0  0  0
  -30.3457  -11.3643   19.8754 H   0  0  0  0  0  0
  -29.7432  -11.7527   17.4648 H   0  0  0  0  0  0
  -29.6405  -13.4723   17.7505 H   0  0  0  0  0  0
  -27.8457  -11.2897   18.8635 H   0  0  0  0  0  0
  -27.3597  -12.5811   17.7983 H   0  0  0  0  0  0
  -27.6721  -14.2508   19.5437 H   0  0  0  0  0  0
  -28.6969  -12.0219   21.3705 H   0  0  0  0  0  0
  -28.4501  -13.6713   21.8570 H   0  0  0  0  0  0
  -25.2732   -9.5713   22.4768 H   0  0  0  0  0  0
  -24.0022   -7.4627   22.7429 H   0  0  0  0  0  0
  -21.0865   -8.8671   19.8911 H   0  0  0  0  0  0
  -22.3620  -10.9635   19.6131 H   0  0  0  0  0  0
  -21.1978   -7.6153   23.9682 H   0  0  0  0  0  0
  -21.1501   -6.0560   25.9073 H   0  0  0  0  0  0
  -22.0587   -2.7611   23.2864 H   0  0  0  0  0  0
  -22.4163  -11.9773   22.4797 H   0  0  0  0  0  0
  -21.1090  -13.1049   22.2637 H   0  0  0  0  0  0
  -24.6466  -15.8354   20.5171 H   0  0  0  0  0  0
  -26.2608  -15.6330   20.0678 H   0  0  0  0  0  0
  -26.7131  -32.5505   23.1101 H   0  0  0  0  0  0
  -25.0108  -33.9766   25.0473 H   0  0  0  0  0  0
  -22.7065  -31.3038   21.3861 H   0  0  0  0  0  0
  -23.3757  -35.9633   23.3291 H   0  0  0  0  0  0
  -24.3597  -36.8950   22.2058 H   0  0  0  0  0  0
  -23.7212  -37.6498   23.6667 H   0  0  0  0  0  0
  -26.0633  -31.5566   20.5822 H   0  0  0  0  0  0
  -26.8374  -30.8729   21.9826 H   0  0  0  0  0  0
  -28.1249  -29.0492   21.1718 H   0  0  0  0  0  0
  -26.0682  -25.9601   18.9849 H   0  0  0  0  0  0
  -23.9856  -27.2894   19.0288 H   0  0  0  0  0  0
  -23.7457  -30.5684   19.3939 H   0  0  0  0  0  0
  -22.7558  -29.2212   19.8640 H   0  0  0  0  0  0
  -25.1277  -36.1964   25.0820 H   0  0  0  0  0  0
  -20.9979  -28.3271   24.1387 H   0  0  0  0  0  0
  -20.5712  -26.2300   23.3597 H   0  0  0  0  0  0
  -21.6641  -26.7477   22.1157 H   0  0  0  0  0  0
  -19.6928  -25.6310   21.1229 H   0  0  0  0  0  0
  -19.6695  -27.3218   20.6760 H   0  0  0  0  0  0
  -17.4201  -26.6720   21.4003 H   0  0  0  0  0  0
  -18.0319  -26.0079   22.8998 H   0  0  0  0  0  0
  -19.7925  -30.7288   24.2283 H   0  0  0  0  0  0
  -17.4994  -31.6278   24.5172 H   0  0  0  0  0  0
  -15.5345  -30.2985   23.7671 H   0  0  0  0  0  0
  -15.8663  -28.0832   22.7059 H   0  0  0  0  0  0
  -24.5879  -30.7073   25.7732 H   0  0  0  0  0  0
  -24.8905  -32.2865   26.4863 H   0  0  0  0  0  0
  -25.8017  -30.8846   27.0189 H   0  0  0  0  0  0
  -26.2859  -29.6776   24.1166 H   0  0  0  0  0  0
  -27.4104  -29.7275   25.4557 H   0  0  0  0  0  0
  -27.8681  -30.4368   23.9247 H   0  0  0  0  0  0
  -27.2744  -33.3625   26.1996 H   0  0  0  0  0  0
  -28.3888  -32.6770   25.0259 H   0  0  0  0  0  0
  -28.0716  -31.8405   26.5378 H   0  0  0  0  0  0
  -28.2569  -38.0117   24.7536 H   0  0  0  0  0  0
  -28.1089  -36.2647   24.6240 H   0  0  0  0  0  0
  -27.2308  -37.1387   25.8866 H   0  0  0  0  0  0
  -20.9348  -29.8754   21.6868 H   0  0  0  0  0  0
  -26.0178  -38.2871   24.1418 H   0  0  0  0  0  0
  -32.3249  -22.2250   22.8494 H   0  0  0  0  0  0
  -32.7231  -20.0055   23.0491 H   0  0  0  0  0  0
  -32.3056  -19.1285   21.5983 H   0  0  0  0  0  0
  -31.3343  -18.9442   23.0786 H   0  0  0  0  0  0
  -26.9833  -22.2593   20.1254 H   0  0  0  0  0  0
  -26.9430  -20.8894   21.2201 H   0  0  0  0  0  0
  -27.6854  -20.7394   19.6398 H   0  0  0  0  0  0
  -32.6863  -26.0189   22.2884 H   0  0  0  0  0  0
  -32.0592  -25.2717   20.8289 H   0  0  0  0  0  0
  -33.1618  -24.3829   21.8576 H   0  0  0  0  0  0
  -25.8853  -23.6374   23.6868 H   0  0  0  0  0  0
  -27.3392  -22.6832   23.4243 H   0  0  0  0  0  0
  -26.0694  -22.7622   22.1880 H   0  0  0  0  0  0
  -31.5484  -24.2874   23.6894 H   0  0  0  0  0  0
  -30.4049  -25.2642   22.9191 H   0  0  0  0  0  0
  -27.7454  -25.1161   23.1406 H   0  0  0  0  0  0
  -26.5095  -25.2329   21.9261 H   0  0  0  0  0  0
  -29.9459  -17.1554   22.3952 H   0  0  0  0  0  0
  -31.4231  -16.9880   21.5139 H   0  0  0  0  0  0
  -29.2530  -17.8788   19.7132 H   0  0  0  0  0  0
  -30.7784  -18.6416   19.9745 H   0  0  0  0  0  0
  -29.9675  -25.6142   20.4962 H   0  0  0  0  0  0
  -29.0889  -26.3865   21.7975 H   0  0  0  0  0  0
  -27.8351  -24.1233   20.2755 H   0  0  0  0  0  0
  -28.9321  -15.4021   21.1648 H   0  0  0  0  0  0
  1 25  1  0  0  0
  1 30  2  0  0  0
  1 87  1  0  0  0
  2  3  1  0  0  0
  2 25  1  0  0  0
  2 89  1  0  0  0
  2 90  1  0  0  0
  3  4  1  0  0  0
  3 91  1  0  0  0
  3 92  1  0  0  0
  4  5  1  0  0  0
  4 93  1  0  0  0
  4 94  1  0  0  0
  5  6  1  0  0  0
  5 26  1  0  0  0
  5 95  1  0  0  0
  6 25  1  0  0  0
  6 96  1  0  0  0
  6 97  1  0  0  0
  7  8  2  0  0  0
  7 26  1  0  0  0
  7 29  1  0  0  0
  8  9  1  0  0  0
  8 22  1  0  0  0
  9 10  1  0  0  0
  9 27  2  0  0  0
 10 11  2  0  0  0
 10 15  1  0  0  0
 11 12  1  0  0  0
 11 98  1  0  0  0
 12 13  2  0  0  0
 12 99  1  0  0  0
 13 14  1  0  0  0
 13 31  1  0  0  0
 14 15  2  0  0  0
 14100  1  0  0  0
 15101  1  0  0  0
 16 17  2  0  0  0
 16 21  1  0  0  0
 16 31  1  0  0  0
 17 18  1  0  0  0
 17102  1  0  0  0
 18 19  2  0  0  0
 18103  1  0  0  0
 19 20  1  0  0  0
 19 24  1  0  0  0
 20 21  2  0  0  0
 20104  1  0  0  0
 21 23  1  0  0  0
 22 28  1  0  0  0
 22 32  2  0  0  0
 26 27  1  0  0  0
 28105  1  0  0  0
 28106  1  0  0  0
 29107  1  0  0  0
 29108  1  0  0  0
 33 34  1  0  0  0
 33 66  1  0  0  0
 33 70  2  0  0  0
 34 36  1  0  0  0
 34 59  1  0  0  0
 34109  1  0  0  0
 35 44  2  0  0  0
 35 45  1  0  0  0
 35 68  1  0  0  0
 36 56  1  0  0  0
 36110  1  0  0  0
 37 39  1  0  0  0
 37 47  1  0  0  0
 37 66  1  0  0  0
 37111  1  0  0  0
 38 43  2  0  0  0
 38 46  1  0  0  0
 38 47  1  0  0  0
 39 64  1  0  0  0
 39 67  2  0  0  0
 40 52  1  0  0  0
 40 53  2  0  0  0
 40 58  1  0  0  0
 41112  1  0  0  0
 41113  1  0  0  0
 41114  1  0  0  0
 41 48  1  0  0  0
 42 43  1  0  0  0
 42 66  1  0  0  0
 42115  1  0  0  0
 42116  1  0  0  0
 43 44  1  0  0  0
 44117  1  0  0  0
 45 46  2  0  0  0
 45118  1  0  0  0
 46119  1  0  0  0
 47120  1  0  0  0
 47121  1  0  0  0
 48 56  1  0  0  0
 48 65  1  0  0  0
 48122  1  0  0  0
 49 50  1  0  0  0
 49 53  1  0  0  0
 49 64  1  0  0  0
 49123  1  0  0  0
 50 51  1  0  0  0
 50124  1  0  0  0
 50125  1  0  0  0
 51 52  1  0  0  0
 51126  1  0  0  0
 51127  1  0  0  0
 52128  1  0  0  0
 52129  1  0  0  0
 53 54  1  0  0  0
 54 55  2  0  0  0
 54130  1  0  0  0
 55 57  1  0  0  0
 55131  1  0  0  0
 56 69  2  0  0  0
 57 58  2  0  0  0
 57132  1  0  0  0
 58133  1  0  0  0
 59 60  1  0  0  0
 59 61  1  0  0  0
 59 62  1  0  0  0
 60134  1  0  0  0
 60135  1  0  0  0
 60136  1  0  0  0
 61137  1  0  0  0
 61138  1  0  0  0
 61139  1  0  0  0
 62140  1  0  0  0
 62141  1  0  0  0
 62142  1  0  0  0
 63 65  1  0  0  0
 63143  1  0  0  0
 63144  1  0  0  0
 63145  1  0  0  0
 64146  1  0  0  0
 65147  1  0  0  0
 68 85  1  0  0  0
 71 72  2  0  0  0
 71 73  1  0  0  0
 71148  1  0  0  0
 72 74  1  0  0  0
 72 81  1  0  0  0
 73 76  2  0  0  0
 73 77  1  0  0  0
 74 75  2  0  0  0
 74 86  1  0  0  0
 75 76  1  0  0  0
 75 78  1  0  0  0
 76 88  1  0  0  0
 77149  1  0  0  0
 77150  1  0  0  0
 77151  1  0  0  0
 78152  1  0  0  0
 78153  1  0  0  0
 78154  1  0  0  0
 79 81  1  0  0  0
 79155  1  0  0  0
 79156  1  0  0  0
 79157  1  0  0  0
 80 82  1  0  0  0
 80158  1  0  0  0
 80159  1  0  0  0
 80160  1  0  0  0
 81161  1  0  0  0
 81162  1  0  0  0
 82163  1  0  0  0
 82164  1  0  0  0
 82 86  1  0  0  0
 83 84  1  0  0  0
 83 87  1  0  0  0
 83165  1  0  0  0
 83166  1  0  0  0
 84 88  1  0  0  0
 84167  1  0  0  0
 84168  1  0  0  0
 85 86  1  0  0  0
 85169  1  0  0  0
 85170  1  0  0  0
 86171  1  0  0  0
 87172  1  0  0  0
M  ISO  4   1 100  68 101  85 101  87 100
M  END
> <chiral flag>
0

> <version>
0

> <s_m_source_file>
/data/baiqing/PycharmProjects/Reinvent-master-3.2/result/LINK_invent/BTK/process_docking_weight1_custom_sum_contain_oxygen_bond_distance_aromatic_linkinvent_7_9_3/rearranged_h_0144.sdf

> <i_m_source_file_index>
9

> <r_mmod_Potential_Energy-OPLS-2005>
64.2492828369141

> <r_mmod_Stretch_Energy-OPLS-2005>
75.8408737182617

> <r_mmod_Bend_Energy-OPLS-2005>
177.149505615234

> <r_mmod_Torsional_Energy-OPLS-2005>
265.784271240234

> <r_mmod_Improper_Torsional_Energy-OPLS-2005>
5.4264988899231

> <r_mmod_Van_der_Waal_Energy-OPLS-2005>
154.181640625

> <r_mmod_Electrostatic_Energy-OPLS-2005>
-442.888000488281

> <r_mmod_Solvation_Energy-OPLS-2005>
-199.952346801758

> <b_mmod_Minimization_Converged-OPLS-2005>
0

> <r_mmod_RMS_Derivative-OPLS-2005>
3.8422212600708

$$$$
9
                    3D
 Structure written by MMmdl.
166174  0  0  1  0            999 V2000
  -30.6817  -14.6190   20.4667 C   0  0  0  0  0  0
  -30.4185  -12.3744   19.4618 C   0  0  0  0  0  0
  -29.4981  -12.5004   18.2290 C   0  0  0  0  0  0
  -28.0249  -12.3388   18.6462 C   0  0  0  0  0  0
  -27.6499  -13.2270   19.8632 C   0  0  2  0  0  0
  -28.6978  -13.1241   20.9971 C   0  0  0  0  0  0
  -25.2533  -13.8196   20.5718 C   0  0  0  0  0  0
  -24.1818  -13.0434   20.9203 C   0  0  0  0  0  0
  -24.6406  -11.6914   20.8761 C   0  0  0  0  0  0
  -23.9087  -10.4289   21.0414 C   0  0  0  0  0  0
  -24.3634   -9.4203   21.9196 C   0  0  0  0  0  0
  -23.6312   -8.2240   22.0755 C   0  0  0  0  0  0
  -22.4296   -8.0276   21.3543 C   0  0  0  0  0  0
  -21.9936   -9.0244   20.4645 C   0  0  0  0  0  0
  -22.7262  -10.2129   20.3062 C   0  0  0  0  0  0
  -21.6856   -6.0753   22.5289 C   0  0  0  0  0  0
  -21.4009   -6.5651   23.8225 C   0  0  0  0  0  0
  -21.3658   -5.6799   24.9183 C   0  0  0  0  0  0
  -21.6034   -4.3063   24.7230 C   0  0  0  0  0  0
  -21.8811   -3.8165   23.4354 C   0  0  0  0  0  0
  -21.9192   -4.6982   22.3410 C   0  0  0  0  0  0
  -22.7841  -13.5209   21.1877 C   0  0  0  0  0  0
  -22.1659   -4.2167   21.0985 F   0  0  0  0  0  0
  -21.5631   -3.4548   25.7749 F   0  0  0  0  0  0
  -30.0159  -13.4237   20.4205 N   0  0  0  0  0  0
  -26.2985  -12.9406   20.3375 N   0  0  0  0  0  0
  -25.9345  -11.6543   20.5809 N   0  0  0  0  0  0
  -22.0513  -12.8171   22.0431 N   0  0  0  0  0  0
  -25.4188  -15.1926   20.4112 N   0  0  0  0  0  0
  -31.8535  -14.7105   20.0975 O   0  0  0  0  0  0
  -21.6643   -6.8891   21.4250 O   0  0  0  0  0  0
  -22.3513  -14.5527   20.6752 O   0  0  0  0  0  0
  -24.6282  -31.8636   23.2086 C   0  0  0  0  0  0
  -25.9123  -32.4793   23.8405 C   0  0  1  0  0  0
  -27.2007  -27.3151   20.0903 C   0  0  0  0  0  0
  -25.5930  -33.8591   24.2299 N   0  0  0  0  0  0
  -23.4192  -30.4983   21.5526 C   0  0  2  0  0  0
  -24.8605  -28.9777   20.1029 C   0  0  0  0  0  0
  -22.7489  -29.4659   22.4915 C   0  0  0  0  0  0
  -18.0290  -28.1393   22.8483 C   0  0  0  0  0  0
  -24.1477  -36.7297   23.2646 C   0  0  0  0  0  0
  -25.9683  -30.7881   21.3906 C   0  0  0  0  0  0
  -26.0348  -29.4219   20.7246 C   0  0  0  0  0  0
  -27.2063  -28.6008   20.7231 C   0  0  0  0  0  0
  -26.0057  -26.9743   19.3983 C   0  0  0  0  0  0
  -24.8504  -27.7576   19.4300 C   0  0  0  0  0  0
  -23.6310  -29.8553   20.1618 C   0  0  0  0  0  0
  -25.4101  -36.3080   24.0334 C   0  0  1  0  0  0
  -20.5896  -28.3693   23.1259 C   0  0  2  0  0  0
  -20.6772  -26.9410   22.5388 C   0  0  0  0  0  0
  -19.5733  -26.6378   21.5208 C   0  0  0  0  0  0
  -18.1917  -26.7930   22.1630 C   0  0  0  0  0  0
  -19.1551  -28.8860   23.2872 C   0  0  0  0  0  0
  -18.9475  -30.1471   23.8881 C   0  0  0  0  0  0
  -17.6476  -30.6590   24.0578 C   0  0  0  0  0  0
  -25.9046  -34.9458   23.5108 C   0  0  0  0  0  0
  -16.5367  -29.9084   23.6357 C   0  0  0  0  0  0
  -16.7284  -28.6513   23.0348 C   0  0  0  0  0  0
  -26.4485  -31.6602   25.0785 C   0  0  0  0  0  0
  -25.3703  -31.3717   26.1501 C   0  0  0  0  0  0
  -27.0353  -30.3020   24.6264 C   0  0  0  0  0  0
  -27.6024  -32.4372   25.7537 C   0  0  0  0  0  0
  -27.5570  -37.1814   24.8477 C   0  0  0  0  0  0
  -21.4195  -29.3069   22.3667 N   0  0  0  0  0  0
  -26.4276  -37.3780   23.9426 N   0  0  0  0  0  0
  -24.6908  -31.0663   22.1046 N   0  0  0  0  0  0
  -23.4218  -28.8154   23.2963 O   0  0  0  0  0  0
  -28.2596  -26.3769   20.1672 O   0  0  0  0  0  0
  -26.5611  -34.8929   22.4675 O   0  0  0  0  0  0
  -23.5443  -32.1423   23.7410 O   0  0  0  0  0  0
  -29.8930  -23.3870   20.4028 C   0  0  0  0  0  0
  -27.7515  -22.4865   19.7911 C   0  0  0  0  0  0
  -28.5479  -23.6325   20.0542 C   0  0  0  0  0  0
  -30.3983  -22.0468   20.4613 C   0  0  0  0  0  0
  -28.2416  -21.1496   19.8001 C   0  0  0  0  0  0
  -29.5949  -20.8960   20.1734 C   0  0  0  0  0  0
  -31.8665  -21.8490   20.7851 C   0  0  0  0  0  0
  -27.4937  -20.6969   16.8132 C   0  0  0  0  0  0
  -26.3046  -19.6142   20.3910 C   0  0  0  0  0  0
  -27.8430  -25.0033   19.7862 C   0  0  0  0  0  0
  -26.5618  -20.3706   17.9885 C   0  0  0  0  0  0
  -30.3238  -17.1095   20.1165 C   0  0  0  0  0  0
  -29.7739  -18.4309   20.7962 C   0  0  0  0  0  0
  -27.3072  -20.0364   19.3035 C   0  0  1  0  0  0
  -29.9527  -15.7565   20.6689 N   0  0  0  0  0  0
  -30.2182  -19.6345   20.0864 O   0  0  0  0  0  0
  -31.4645  -12.4582   19.1618 H   0  0  0  0  0  0
  -30.3198  -11.3875   19.9182 H   0  0  0  0  0  0
  -29.7585  -11.7505   17.4809 H   0  0  0  0  0  0
  -29.6402  -13.4730   17.7543 H   0  0  0  0  0  0
  -27.8697  -11.2881   18.8954 H   0  0  0  0  0  0
  -27.3642  -12.5523   17.8041 H   0  0  0  0  0  0
  -27.6574  -14.2555   19.4999 H   0  0  0  0  0  0
  -28.6997  -12.1263   21.4377 H   0  0  0  0  0  0
  -28.4593  -13.8141   21.8084 H   0  0  0  0  0  0
  -25.2777   -9.5686   22.4773 H   0  0  0  0  0  0
  -24.0026   -7.4633   22.7474 H   0  0  0  0  0  0
  -21.0878   -8.8755   19.8950 H   0  0  0  0  0  0
  -22.3718  -10.9665   19.6172 H   0  0  0  0  0  0
  -21.1989   -7.6149   23.9739 H   0  0  0  0  0  0
  -21.1486   -6.0530   25.9089 H   0  0  0  0  0  0
  -22.0591   -2.7634   23.2851 H   0  0  0  0  0  0
  -22.4155  -11.9806   22.4750 H   0  0  0  0  0  0
  -21.1139  -13.1175   22.2705 H   0  0  0  0  0  0
  -24.6395  -15.8347   20.5057 H   0  0  0  0  0  0
  -26.2608  -15.6388   20.0723 H   0  0  0  0  0  0
  -26.7201  -32.5456   23.1161 H   0  0  0  0  0  0
  -25.0123  -33.9738   25.0475 H   0  0  0  0  0  0
  -22.7140  -31.3215   21.4199 H   0  0  0  0  0  0
  -23.3734  -35.9634   23.3290 H   0  0  0  0  0  0
  -24.3562  -36.8930   22.2066 H   0  0  0  0  0  0
  -23.7244  -37.6502   23.6679 H   0  0  0  0  0  0
  -26.1165  -31.5508   20.6247 H   0  0  0  0  0  0
  -26.8447  -30.8218   22.0261 H   0  0  0  0  0  0
  -28.0945  -28.9304   21.2426 H   0  0  0  0  0  0
  -25.8911  -26.0734   18.8174 H   0  0  0  0  0  0
  -23.9633  -27.4231   18.9083 H   0  0  0  0  0  0
  -23.7441  -30.6420   19.4150 H   0  0  0  0  0  0
  -22.7495  -29.2895   19.8534 H   0  0  0  0  0  0
  -25.1267  -36.1930   25.0819 H   0  0  0  0  0  0
  -21.0022  -28.3267   24.1370 H   0  0  0  0  0  0
  -20.5676  -26.2305   23.3598 H   0  0  0  0  0  0
  -21.6635  -26.7418   22.1175 H   0  0  0  0  0  0
  -19.6882  -25.6284   21.1240 H   0  0  0  0  0  0
  -19.6663  -27.3192   20.6740 H   0  0  0  0  0  0
  -17.4184  -26.6715   21.4031 H   0  0  0  0  0  0
  -18.0294  -26.0057   22.9007 H   0  0  0  0  0  0
  -19.7962  -30.7309   24.2209 H   0  0  0  0  0  0
  -17.5033  -31.6268   24.5180 H   0  0  0  0  0  0
  -15.5371  -30.2988   23.7690 H   0  0  0  0  0  0
  -15.8675  -28.0852   22.7046 H   0  0  0  0  0  0
  -24.5917  -30.7001   25.7845 H   0  0  0  0  0  0
  -24.8849  -32.2875   26.4905 H   0  0  0  0  0  0
  -25.8036  -30.8945   27.0303 H   0  0  0  0  0  0
  -26.2947  -29.6763   24.1277 H   0  0  0  0  0  0
  -27.4021  -29.7279   25.4786 H   0  0  0  0  0  0
  -27.8808  -30.4293   23.9500 H   0  0  0  0  0  0
  -27.2613  -33.3709   26.2029 H   0  0  0  0  0  0
  -28.3856  -32.6902   25.0370 H   0  0  0  0  0  0
  -28.0657  -31.8573   26.5534 H   0  0  0  0  0  0
  -28.2582  -38.0117   24.7522 H   0  0  0  0  0  0
  -28.1066  -36.2653   24.6277 H   0  0  0  0  0  0
  -27.2294  -37.1427   25.8880 H   0  0  0  0  0  0
  -20.9349  -29.8872   21.6953 H   0  0  0  0  0  0
  -26.0142  -38.2846   24.1426 H   0  0  0  0  0  0
  -30.5477  -24.2301   20.5861 H   0  0  0  0  0  0
  -26.7281  -22.6566   19.4929 H   0  0  0  0  0  0
  -32.2929  -22.7292   21.2678 H   0  0  0  0  0  0
  -32.4257  -21.6547   19.8700 H   0  0  0  0  0  0
  -32.0018  -20.9999   21.4542 H   0  0  0  0  0  0
  -26.9198  -20.9001   15.9084 H   0  0  0  0  0  0
  -28.1643  -19.8642   16.5964 H   0  0  0  0  0  0
  -28.1081  -21.5737   17.0174 H   0  0  0  0  0  0
  -26.7994  -19.3015   21.3092 H   0  0  0  0  0  0
  -25.6899  -18.7800   20.0535 H   0  0  0  0  0  0
  -25.6342  -20.4305   20.6576 H   0  0  0  0  0  0
  -26.8812  -24.8231   20.2701 H   0  0  0  0  0  0
  -27.6958  -25.0064   18.7039 H   0  0  0  0  0  0
  -25.9401  -19.5187   17.7071 H   0  0  0  0  0  0
  -25.8604  -21.1913   18.1359 H   0  0  0  0  0  0
  -31.4098  -17.1962   20.0604 H   0  0  0  0  0  0
  -29.9830  -17.1130   19.0794 H   0  0  0  0  0  0
  -30.1457  -18.4943   21.8187 H   0  0  0  0  0  0
  -28.6970  -18.3691   20.8832 H   0  0  0  0  0  0
  -27.9203  -19.1745   19.0457 H   0  0  0  0  0  0
  -29.0006  -15.6347   20.9832 H   0  0  0  0  0  0
  1 25  1  0  0  0
  1 30  2  0  0  0
  1 85  1  0  0  0
  2  3  1  0  0  0
  2 25  1  0  0  0
  2 87  1  0  0  0
  2 88  1  0  0  0
  3  4  1  0  0  0
  3 89  1  0  0  0
  3 90  1  0  0  0
  4  5  1  0  0  0
  4 91  1  0  0  0
  4 92  1  0  0  0
  5  6  1  0  0  0
  5 26  1  0  0  0
  5 93  1  0  0  0
  6 25  1  0  0  0
  6 94  1  0  0  0
  6 95  1  0  0  0
  7  8  2  0  0  0
  7 26  1  0  0  0
  7 29  1  0  0  0
  8  9  1  0  0  0
  8 22  1  0  0  0
  9 10  1  0  0  0
  9 27  2  0  0  0
 10 11  2  0  0  0
 10 15  1  0  0  0
 11 12  1  0  0  0
 11 96  1  0  0  0
 12 13  2  0  0  0
 12 97  1  0  0  0
 13 14  1  0  0  0
 13 31  1  0  0  0
 14 15  2  0  0  0
 14 98  1  0  0  0
 15 99  1  0  0  0
 16 17  2  0  0  0
 16 21  1  0  0  0
 16 31  1  0  0  0
 17 18  1  0  0  0
 17100  1  0  0  0
 18 19  2  0  0  0
 18101  1  0  0  0
 19 20  1  0  0  0
 19 24  1  0  0  0
 20 21  2  0  0  0
 20102  1  0  0  0
 21 23  1  0  0  0
 22 28  1  0  0  0
 22 32  2  0  0  0
 26 27  1  0  0  0
 28103  1  0  0  0
 28104  1  0  0  0
 29105  1  0  0  0
 29106  1  0  0  0
 33 34  1  0  0  0
 33 66  1  0  0  0
 33 70  2  0  0  0
 34 36  1  0  0  0
 34 59  1  0  0  0
 34107  1  0  0  0
 35 44  2  0  0  0
 35 45  1  0  0  0
 35 68  1  0  0  0
 36 56  1  0  0  0
 36108  1  0  0  0
 37 39  1  0  0  0
 37 47  1  0  0  0
 37 66  1  0  0  0
 37109  1  0  0  0
 38 43  2  0  0  0
 38 46  1  0  0  0
 38 47  1  0  0  0
 39 64  1  0  0  0
 39 67  2  0  0  0
 40 52  1  0  0  0
 40 53  2  0  0  0
 40 58  1  0  0  0
 41110  1  0  0  0
 41111  1  0  0  0
 41112  1  0  0  0
 41 48  1  0  0  0
 42 43  1  0  0  0
 42 66  1  0  0  0
 42113  1  0  0  0
 42114  1  0  0  0
 43 44  1  0  0  0
 44115  1  0  0  0
 45 46  2  0  0  0
 45116  1  0  0  0
 46117  1  0  0  0
 47118  1  0  0  0
 47119  1  0  0  0
 48 56  1  0  0  0
 48 65  1  0  0  0
 48120  1  0  0  0
 49 50  1  0  0  0
 49 53  1  0  0  0
 49 64  1  0  0  0
 49121  1  0  0  0
 50 51  1  0  0  0
 50122  1  0  0  0
 50123  1  0  0  0
 51 52  1  0  0  0
 51124  1  0  0  0
 51125  1  0  0  0
 52126  1  0  0  0
 52127  1  0  0  0
 53 54  1  0  0  0
 54 55  2  0  0  0
 54128  1  0  0  0
 55 57  1  0  0  0
 55129  1  0  0  0
 56 69  2  0  0  0
 57 58  2  0  0  0
 57130  1  0  0  0
 58131  1  0  0  0
 59 60  1  0  0  0
 59 61  1  0  0  0
 59 62  1  0  0  0
 60132  1  0  0  0
 60133  1  0  0  0
 60134  1  0  0  0
 61135  1  0  0  0
 61136  1  0  0  0
 61137  1  0  0  0
 62138  1  0  0  0
 62139  1  0  0  0
 62140  1  0  0  0
 63 65  1  0  0  0
 63141  1  0  0  0
 63142  1  0  0  0
 63143  1  0  0  0
 64144  1  0  0  0
 65145  1  0  0  0
 68 80  1  0  0  0
 71 73  2  0  0  0
 71 74  1  0  0  0
 71146  1  0  0  0
 72 73  1  0  0  0
 72 75  2  0  0  0
 72147  1  0  0  0
 73 80  1  0  0  0
 74 76  2  0  0  0
 74 77  1  0  0  0
 75 76  1  0  0  0
 75 84  1  0  0  0
 76 86  1  0  0  0
 77148  1  0  0  0
 77149  1  0  0  0
 77150  1  0  0  0
 78 81  1  0  0  0
 78151  1  0  0  0
 78152  1  0  0  0
 78153  1  0  0  0
 79154  1  0  0  0
 79155  1  0  0  0
 79156  1  0  0  0
 79 84  1  0  0  0
 80157  1  0  0  0
 80158  1  0  0  0
 81 84  1  0  0  0
 81159  1  0  0  0
 81160  1  0  0  0
 82 83  1  0  0  0
 82 85  1  0  0  0
 82161  1  0  0  0
 82162  1  0  0  0
 83 86  1  0  0  0
 83163  1  0  0  0
 83164  1  0  0  0
 84165  1  0  0  0
 85166  1  0  0  0
M  ISO  4   1 100  68 101  80 101  85 100
M  END
> <chiral flag>
0

> <version>
0

> <s_m_source_file>
/data/baiqing/PycharmProjects/Reinvent-master-3.2/result/LINK_invent/BTK/process_docking_weight1_custom_sum_contain_oxygen_bond_distance_aromatic_linkinvent_7_9_3/rearranged_h_0144.sdf

> <i_m_source_file_index>
10

> <r_mmod_Potential_Energy-OPLS-2005>
108.584587097168

> <r_mmod_Stretch_Energy-OPLS-2005>
79.5043869018555

> <r_mmod_Bend_Energy-OPLS-2005>
182.671737670898

> <r_mmod_Torsional_Energy-OPLS-2005>
241.092956542969

> <r_mmod_Improper_Torsional_Energy-OPLS-2005>
8.83447074890137

> <r_mmod_Van_der_Waal_Energy-OPLS-2005>
164.907745361328

> <r_mmod_Electrostatic_Energy-OPLS-2005>
-421.766693115234

> <r_mmod_Solvation_Energy-OPLS-2005>
-205.605224609375

> <b_mmod_Minimization_Converged-OPLS-2005>
0

> <r_mmod_RMS_Derivative-OPLS-2005>
2.62082052230835

$$$$
10
                    3D
 Structure written by MMmdl.
173182  0  0  1  0            999 V2000
  -30.7242  -14.3614   20.6407 C   0  0  0  0  0  0
  -30.4212  -12.2647   19.3793 C   0  0  0  0  0  0
  -29.4841  -12.5178   18.1822 C   0  0  0  0  0  0
  -28.0054  -12.3861   18.6009 C   0  0  0  0  0  0
  -27.6700  -13.1807   19.8912 C   0  0  2  0  0  0
  -28.7110  -12.8819   20.9910 C   0  0  0  0  0  0
  -25.2599  -13.8074   20.5652 C   0  0  0  0  0  0
  -24.1844  -13.0388   20.9195 C   0  0  0  0  0  0
  -24.6367  -11.6856   20.8747 C   0  0  0  0  0  0
  -23.9020  -10.4259   21.0409 C   0  0  0  0  0  0
  -24.3589   -9.4189   21.9191 C   0  0  0  0  0  0
  -23.6273   -8.2223   22.0752 C   0  0  0  0  0  0
  -22.4251   -8.0260   21.3537 C   0  0  0  0  0  0
  -21.9882   -9.0232   20.4636 C   0  0  0  0  0  0
  -22.7210  -10.2115   20.3049 C   0  0  0  0  0  0
  -21.6846   -6.0719   22.5281 C   0  0  0  0  0  0
  -21.3994   -6.5628   23.8213 C   0  0  0  0  0  0
  -21.3654   -5.6788   24.9179 C   0  0  0  0  0  0
  -21.6046   -4.3045   24.7230 C   0  0  0  0  0  0
  -21.8829   -3.8134   23.4352 C   0  0  0  0  0  0
  -21.9192   -4.6947   22.3405 C   0  0  0  0  0  0
  -22.7869  -13.5219   21.1858 C   0  0  0  0  0  0
  -22.1668   -4.2130   21.0984 F   0  0  0  0  0  0
  -21.5634   -3.4536   25.7743 F   0  0  0  0  0  0
  -30.0482  -13.1989   20.4493 N   0  0  0  0  0  0
  -26.3051  -12.9216   20.3424 N   0  0  0  0  0  0
  -25.9291  -11.6392   20.5795 N   0  0  0  0  0  0
  -22.0488  -12.8225   22.0393 N   0  0  0  0  0  0
  -25.4277  -15.1763   20.3961 N   0  0  0  0  0  0
  -31.7857  -14.6368   20.0699 O   0  0  0  0  0  0
  -21.6636   -6.8859   21.4232 O   0  0  0  0  0  0
  -22.3578  -14.5547   20.6723 O   0  0  0  0  0  0
  -24.6126  -31.8679   23.2143 C   0  0  0  0  0  0
  -25.9016  -32.4832   23.8407 C   0  0  1  0  0  0
  -27.2315  -27.4575   20.0942 C   0  0  0  0  0  0
  -25.5852  -33.8629   24.2332 N   0  0  0  0  0  0
  -23.4001  -30.4974   21.5493 C   0  0  2  0  0  0
  -24.8457  -28.9649   20.1110 C   0  0  0  0  0  0
  -22.7383  -29.4707   22.4947 C   0  0  0  0  0  0
  -18.0241  -28.1435   22.8548 C   0  0  0  0  0  0
  -24.1410  -36.7251   23.2650 C   0  0  0  0  0  0
  -25.9266  -30.8459   21.3601 C   0  0  0  0  0  0
  -26.0060  -29.4824   20.7056 C   0  0  0  0  0  0
  -27.2054  -28.7370   20.6930 C   0  0  0  0  0  0
  -26.0605  -26.9522   19.4935 C   0  0  0  0  0  0
  -24.8677  -27.6991   19.5009 C   0  0  0  0  0  0
  -23.6087  -29.8315   20.1607 C   0  0  0  0  0  0
  -25.4052  -36.3110   24.0372 C   0  0  1  0  0  0
  -20.5841  -28.3712   23.1305 C   0  0  2  0  0  0
  -20.6711  -26.9429   22.5439 C   0  0  0  0  0  0
  -19.5679  -26.6427   21.5236 C   0  0  0  0  0  0
  -18.1860  -26.7991   22.1653 C   0  0  0  0  0  0
  -19.1510  -28.8883   23.2920 C   0  0  0  0  0  0
  -18.9477  -30.1490   23.8938 C   0  0  0  0  0  0
  -17.6500  -30.6673   24.0600 C   0  0  0  0  0  0
  -25.9003  -34.9493   23.5152 C   0  0  0  0  0  0
  -16.5360  -29.9218   23.6362 C   0  0  0  0  0  0
  -16.7237  -28.6612   23.0413 C   0  0  0  0  0  0
  -26.4447  -31.6635   25.0750 C   0  0  0  0  0  0
  -25.3721  -31.3791   26.1509 C   0  0  0  0  0  0
  -27.0294  -30.3086   24.6153 C   0  0  0  0  0  0
  -27.5998  -32.4384   25.7508 C   0  0  0  0  0  0
  -27.5549  -37.1734   24.8486 C   0  0  0  0  0  0
  -21.4106  -29.3090   22.3703 N   0  0  0  0  0  0
  -26.4198  -37.3834   23.9515 N   0  0  0  0  0  0
  -24.6638  -31.0829   22.1001 N   0  0  0  0  0  0
  -23.4146  -28.8222   23.2963 O   0  0  0  0  0  0
  -28.3634  -26.6806   20.1075 O   0  0  0  0  0  0
  -26.5596  -34.8969   22.4730 O   0  0  0  0  0  0
  -23.5327  -32.1404   23.7573 O   0  0  0  0  0  0
  -29.8693  -18.9303   21.3690 C   0  0  0  0  0  0
  -31.8691  -18.2778   22.5998 C   0  0  0  0  0  0
  -29.5594  -17.5706   21.1346 C   0  0  0  0  0  0
  -31.0225  -19.2950   22.1023 C   0  0  0  0  0  0
  -30.4307  -16.5728   21.6359 C   0  0  0  0  0  0
  -31.5759  -16.9162   22.3825 C   0  0  0  0  0  0
  -28.3814  -16.8722   18.8957 C   0  0  0  0  0  0
  -27.6288  -18.0876   19.3750 C   0  0  0  0  0  0
  -28.3151  -17.1842   20.3764 C   0  0  0  0  0  0
  -27.7548  -23.7306   20.0777 C   0  0  0  0  0  0
  -32.5825  -15.9174   24.2722 C   0  0  0  0  0  0
  -31.4176  -20.7465   22.3835 C   0  0  0  0  0  0
  -30.6643  -21.8935   21.6604 C   0  0  0  0  0  0
  -28.9540  -23.6124   22.3374 C   0  0  0  0  0  0
  -28.4696  -25.8719   21.2874 C   0  0  0  0  0  0
  -28.8080  -24.3848   20.9946 C   0  0  2  0  0  0
  -30.1051  -15.2111   21.4637 N   0  0  0  0  0  0
  -29.3171  -22.1745   22.2183 N   0  3  0  0  0  0
  -32.3815  -15.9122   22.8656 O   0  0  0  0  0  0
  -31.4646  -12.3697   19.0768 H   0  0  0  0  0  0
  -30.3171  -11.2347   19.7277 H   0  0  0  0  0  0
  -29.7091  -11.8175   17.3760 H   0  0  0  0  0  0
  -29.6621  -13.5152   17.7762 H   0  0  0  0  0  0
  -27.8006  -11.3270   18.7573 H   0  0  0  0  0  0
  -27.3533  -12.7013   17.7854 H   0  0  0  0  0  0
  -27.7427  -14.2387   19.6583 H   0  0  0  0  0  0
  -28.6738  -11.8245   21.2612 H   0  0  0  0  0  0
  -28.4691  -13.4102   21.9141 H   0  0  0  0  0  0
  -25.2734   -9.5669   22.4760 H   0  0  0  0  0  0
  -23.9984   -7.4610   22.7464 H   0  0  0  0  0  0
  -21.0827   -8.8736   19.8941 H   0  0  0  0  0  0
  -22.3671  -10.9640   19.6148 H   0  0  0  0  0  0
  -21.1969   -7.6134   23.9702 H   0  0  0  0  0  0
  -21.1469   -6.0519   25.9079 H   0  0  0  0  0  0
  -22.0608   -2.7593   23.2863 H   0  0  0  0  0  0
  -22.4079  -11.9867   22.4772 H   0  0  0  0  0  0
  -21.1092  -13.1250   22.2563 H   0  0  0  0  0  0
  -24.6536  -15.8239   20.4964 H   0  0  0  0  0  0
  -26.2604  -15.6041   20.0162 H   0  0  0  0  0  0
  -26.7096  -32.5539   23.1177 H   0  0  0  0  0  0
  -24.9935  -33.9761   25.0438 H   0  0  0  0  0  0
  -22.6937  -31.3173   21.4087 H   0  0  0  0  0  0
  -23.3730  -35.9510   23.3289 H   0  0  0  0  0  0
  -24.3497  -36.8886   22.2065 H   0  0  0  0  0  0
  -23.7087  -37.6421   23.6669 H   0  0  0  0  0  0
  -26.0354  -31.6146   20.5923 H   0  0  0  0  0  0
  -26.8148  -30.8986   21.9749 H   0  0  0  0  0  0
  -28.1027  -29.1356   21.1469 H   0  0  0  0  0  0
  -26.0739  -25.9754   19.0336 H   0  0  0  0  0  0
  -23.9752  -27.2949   19.0407 H   0  0  0  0  0  0
  -23.7214  -30.6111   19.4066 H   0  0  0  0  0  0
  -22.7337  -29.2542   19.8612 H   0  0  0  0  0  0
  -25.1205  -36.1898   25.0860 H   0  0  0  0  0  0
  -20.9925  -28.3265   24.1422 H   0  0  0  0  0  0
  -20.5551  -26.2336   23.3653 H   0  0  0  0  0  0
  -21.6581  -26.7442   22.1222 H   0  0  0  0  0  0
  -19.6823  -25.6334   21.1268 H   0  0  0  0  0  0
  -19.6619  -27.3245   20.6772 H   0  0  0  0  0  0
  -17.4117  -26.6774   21.4064 H   0  0  0  0  0  0
  -18.0236  -26.0156   22.9063 H   0  0  0  0  0  0
  -19.7980  -30.7297   24.2279 H   0  0  0  0  0  0
  -17.5112  -31.6363   24.5228 H   0  0  0  0  0  0
  -15.5385  -30.3183   23.7732 H   0  0  0  0  0  0
  -15.8594  -28.0984   22.7128 H   0  0  0  0  0  0
  -24.5872  -30.7141   25.7906 H   0  0  0  0  0  0
  -24.8922  -32.2973   26.4909 H   0  0  0  0  0  0
  -25.8076  -30.9028   27.0296 H   0  0  0  0  0  0
  -26.2873  -29.6834   24.1188 H   0  0  0  0  0  0
  -27.4057  -29.7353   25.4636 H   0  0  0  0  0  0
  -27.8692  -30.4438   23.9338 H   0  0  0  0  0  0
  -27.2592  -33.3719   26.2002 H   0  0  0  0  0  0
  -28.3826  -32.6886   25.0342 H   0  0  0  0  0  0
  -28.0612  -31.8563   26.5488 H   0  0  0  0  0  0
  -28.2499  -38.0089   24.7640 H   0  0  0  0  0  0
  -28.1068  -36.2640   24.6094 H   0  0  0  0  0  0
  -27.2299  -37.1123   25.8883 H   0  0  0  0  0  0
  -20.9243  -29.8879   21.6996 H   0  0  0  0  0  0
  -26.0061  -38.2845   24.1708 H   0  0  0  0  0  0
  -29.2061  -19.6869   20.9815 H   0  0  0  0  0  0
  -32.7617  -18.5476   23.1461 H   0  0  0  0  0  0
  -29.3264  -17.0409   18.3822 H   0  0  0  0  0  0
  -27.7651  -16.0790   18.4792 H   0  0  0  0  0  0
  -26.5411  -18.0412   19.3245 H   0  0  0  0  0  0
  -28.0649  -19.0501   19.1220 H   0  0  0  0  0  0
  -27.6718  -16.5670   20.9993 H   0  0  0  0  0  0
  -28.0582  -22.7315   19.7595 H   0  0  0  0  0  0
  -27.6115  -24.3125   19.1672 H   0  0  0  0  0  0
  -26.7859  -23.6460   20.5745 H   0  0  0  0  0  0
  -33.1846  -15.0512   24.5457 H   0  0  0  0  0  0
  -31.6306  -15.8332   24.8023 H   0  0  0  0  0  0
  -33.1083  -16.8095   24.6162 H   0  0  0  0  0  0
  -32.4756  -20.8309   22.1262 H   0  0  0  0  0  0
  -31.3758  -20.9040   23.4642 H   0  0  0  0  0  0
  -30.6017  -21.7180   20.5837 H   0  0  0  0  0  0
  -31.2782  -22.7881   21.7721 H   0  0  0  0  0  0
  -28.0118  -23.6757   22.8851 H   0  0  0  0  0  0
  -29.6975  -24.1045   22.9681 H   0  0  0  0  0  0
  -29.2541  -26.3074   21.9067 H   0  0  0  0  0  0
  -27.5589  -25.9196   21.8906 H   0  0  0  0  0  0
  -29.7657  -24.3691   20.4734 H   0  0  0  0  0  0
  -29.2091  -14.9049   21.8087 H   0  0  0  0  0  0
  -29.2905  -21.7923   23.1514 H   0  0  0  0  0  0
  -28.6055  -21.6922   21.6922 H   0  0  0  0  0  0
  1 25  1  0  0  0
  1 30  2  0  0  0
  1 87  1  0  0  0
  2  3  1  0  0  0
  2 25  1  0  0  0
  2 90  1  0  0  0
  2 91  1  0  0  0
  3  4  1  0  0  0
  3 92  1  0  0  0
  3 93  1  0  0  0
  4  5  1  0  0  0
  4 94  1  0  0  0
  4 95  1  0  0  0
  5  6  1  0  0  0
  5 26  1  0  0  0
  5 96  1  0  0  0
  6 25  1  0  0  0
  6 97  1  0  0  0
  6 98  1  0  0  0
  7  8  2  0  0  0
  7 26  1  0  0  0
  7 29  1  0  0  0
  8  9  1  0  0  0
  8 22  1  0  0  0
  9 10  1  0  0  0
  9 27  2  0  0  0
 10 11  2  0  0  0
 10 15  1  0  0  0
 11 12  1  0  0  0
 11 99  1  0  0  0
 12 13  2  0  0  0
 12100  1  0  0  0
 13 14  1  0  0  0
 13 31  1  0  0  0
 14 15  2  0  0  0
 14101  1  0  0  0
 15102  1  0  0  0
 16 17  2  0  0  0
 16 21  1  0  0  0
 16 31  1  0  0  0
 17 18  1  0  0  0
 17103  1  0  0  0
 18 19  2  0  0  0
 18104  1  0  0  0
 19 20  1  0  0  0
 19 24  1  0  0  0
 20 21  2  0  0  0
 20105  1  0  0  0
 21 23  1  0  0  0
 22 28  1  0  0  0
 22 32  2  0  0  0
 26 27  1  0  0  0
 28106  1  0  0  0
 28107  1  0  0  0
 29108  1  0  0  0
 29109  1  0  0  0
 33 34  1  0  0  0
 33 66  1  0  0  0
 33 70  2  0  0  0
 34 36  1  0  0  0
 34 59  1  0  0  0
 34110  1  0  0  0
 35 44  2  0  0  0
 35 45  1  0  0  0
 35 68  1  0  0  0
 36 56  1  0  0  0
 36111  1  0  0  0
 37 39  1  0  0  0
 37 47  1  0  0  0
 37 66  1  0  0  0
 37112  1  0  0  0
 38 43  2  0  0  0
 38 46  1  0  0  0
 38 47  1  0  0  0
 39 64  1  0  0  0
 39 67  2  0  0  0
 40 52  1  0  0  0
 40 53  2  0  0  0
 40 58  1  0  0  0
 41113  1  0  0  0
 41114  1  0  0  0
 41115  1  0  0  0
 41 48  1  0  0  0
 42 43  1  0  0  0
 42 66  1  0  0  0
 42116  1  0  0  0
 42117  1  0  0  0
 43 44  1  0  0  0
 44118  1  0  0  0
 45 46  2  0  0  0
 45119  1  0  0  0
 46120  1  0  0  0
 47121  1  0  0  0
 47122  1  0  0  0
 48 56  1  0  0  0
 48 65  1  0  0  0
 48123  1  0  0  0
 49 50  1  0  0  0
 49 53  1  0  0  0
 49 64  1  0  0  0
 49124  1  0  0  0
 50 51  1  0  0  0
 50125  1  0  0  0
 50126  1  0  0  0
 51 52  1  0  0  0
 51127  1  0  0  0
 51128  1  0  0  0
 52129  1  0  0  0
 52130  1  0  0  0
 53 54  1  0  0  0
 54 55  2  0  0  0
 54131  1  0  0  0
 55 57  1  0  0  0
 55132  1  0  0  0
 56 69  2  0  0  0
 57 58  2  0  0  0
 57133  1  0  0  0
 58134  1  0  0  0
 59 60  1  0  0  0
 59 61  1  0  0  0
 59 62  1  0  0  0
 60135  1  0  0  0
 60136  1  0  0  0
 60137  1  0  0  0
 61138  1  0  0  0
 61139  1  0  0  0
 61140  1  0  0  0
 62141  1  0  0  0
 62142  1  0  0  0
 62143  1  0  0  0
 63 65  1  0  0  0
 63144  1  0  0  0
 63145  1  0  0  0
 63146  1  0  0  0
 64147  1  0  0  0
 65148  1  0  0  0
 68 85  1  0  0  0
 71 73  2  0  0  0
 71 74  1  0  0  0
 71149  1  0  0  0
 72 74  2  0  0  0
 72 76  1  0  0  0
 72150  1  0  0  0
 73 75  1  0  0  0
 73 79  1  0  0  0
 74 82  1  0  0  0
 75 76  2  0  0  0
 75 87  1  0  0  0
 76 89  1  0  0  0
 77 78  1  0  0  0
 77 79  1  0  0  0
 77151  1  0  0  0
 77152  1  0  0  0
 78 79  1  0  0  0
 78153  1  0  0  0
 78154  1  0  0  0
 79155  1  0  0  0
 80156  1  0  0  0
 80157  1  0  0  0
 80158  1  0  0  0
 80 86  1  0  0  0
 81 89  1  0  0  0
 81159  1  0  0  0
 81160  1  0  0  0
 81161  1  0  0  0
 82 83  1  0  0  0
 82162  1  0  0  0
 82163  1  0  0  0
 83 88  1  0  0  0
 83164  1  0  0  0
 83165  1  0  0  0
 84 86  1  0  0  0
 84 88  1  0  0  0
 84166  1  0  0  0
 84167  1  0  0  0
 85 86  1  0  0  0
 85168  1  0  0  0
 85169  1  0  0  0
 86170  1  0  0  0
 87171  1  0  0  0
 88172  1  0  0  0
 88173  1  0  0  0
M  CHG  1  88   1
M  ISO  4   1 100  68 101  85 101  87 100
M  END
> <chiral flag>
0

> <version>
0

> <s_m_source_file>
/data/baiqing/PycharmProjects/Reinvent-master-3.2/result/LINK_invent/BTK/process_docking_weight1_custom_sum_contain_oxygen_bond_distance_aromatic_linkinvent_7_9_3/rearranged_h_0144.sdf

> <i_m_source_file_index>
11

> <r_mmod_Potential_Energy-OPLS-2005>
-165.47331237793

> <r_mmod_Stretch_Energy-OPLS-2005>
35.9588088989258

> <r_mmod_Bend_Energy-OPLS-2005>
101.705451965332

> <r_mmod_Torsional_Energy-OPLS-2005>
337.093139648438

> <r_mmod_Improper_Torsional_Energy-OPLS-2005>
3.14977192878723

> <r_mmod_Van_der_Waal_Energy-OPLS-2005>
141.488357543945

> <r_mmod_Electrostatic_Energy-OPLS-2005>
-313.907867431641

> <r_mmod_Solvation_Energy-OPLS-2005>
-480.127410888672

> <b_mmod_Minimization_Converged-OPLS-2005>
0

> <r_mmod_RMS_Derivative-OPLS-2005>
4.1631236076355

$$$$
11
                    3D
 Structure written by MMmdl.
172181  0  0  1  0            999 V2000
  -30.6953  -14.4254   20.5891 C   0  0  0  0  0  0
  -30.4255  -12.2885   19.3973 C   0  0  0  0  0  0
  -29.4882  -12.5136   18.1916 C   0  0  0  0  0  0
  -28.0095  -12.3778   18.6101 C   0  0  0  0  0  0
  -27.6646  -13.1979   19.8840 C   0  0  2  0  0  0
  -28.7084  -12.9335   20.9944 C   0  0  0  0  0  0
  -25.2616  -13.8147   20.5633 C   0  0  0  0  0  0
  -24.1826  -13.0452   20.9133 C   0  0  0  0  0  0
  -24.6358  -11.6921   20.8768 C   0  0  0  0  0  0
  -23.9021  -10.4304   21.0454 C   0  0  0  0  0  0
  -24.3583   -9.4199   21.9217 C   0  0  0  0  0  0
  -23.6250   -8.2228   22.0762 C   0  0  0  0  0  0
  -22.4256   -8.0278   21.3522 C   0  0  0  0  0  0
  -21.9904   -9.0251   20.4635 C   0  0  0  0  0  0
  -22.7220  -10.2138   20.3082 C   0  0  0  0  0  0
  -21.6845   -6.0752   22.5280 C   0  0  0  0  0  0
  -21.4012   -6.5654   23.8210 C   0  0  0  0  0  0
  -21.3646   -5.6797   24.9161 C   0  0  0  0  0  0
  -21.5996   -4.3063   24.7188 C   0  0  0  0  0  0
  -21.8826   -3.8156   23.4326 C   0  0  0  0  0  0
  -21.9199   -4.6984   22.3395 C   0  0  0  0  0  0
  -22.7844  -13.5280   21.1738 C   0  0  0  0  0  0
  -22.1717   -4.2178   21.0967 F   0  0  0  0  0  0
  -21.5525   -3.4553   25.7692 F   0  0  0  0  0  0
  -30.0419  -13.2439   20.4447 N   0  0  0  0  0  0
  -26.3041  -12.9270   20.3453 N   0  0  0  0  0  0
  -25.9298  -11.6444   20.5848 N   0  0  0  0  0  0
  -22.0537  -12.8279   22.0342 N   0  0  0  0  0  0
  -25.4381  -15.1811   20.3884 N   0  0  0  0  0  0
  -31.8000  -14.6699   20.0949 O   0  0  0  0  0  0
  -21.6613   -6.8882   21.4243 O   0  0  0  0  0  0
  -22.3512  -14.5535   20.6508 O   0  0  0  0  0  0
  -24.6084  -31.8695   23.2140 C   0  0  0  0  0  0
  -25.8988  -32.4819   23.8430 C   0  0  1  0  0  0
  -27.2622  -27.4797   20.0870 C   0  0  0  0  0  0
  -25.5874  -33.8614   24.2371 N   0  0  0  0  0  0
  -23.3978  -30.4994   21.5460 C   0  0  2  0  0  0
  -24.8532  -28.9617   20.1213 C   0  0  0  0  0  0
  -22.7371  -29.4746   22.4954 C   0  0  0  0  0  0
  -18.0268  -28.1388   22.8470 C   0  0  0  0  0  0
  -24.1483  -36.7339   23.2644 C   0  0  0  0  0  0
  -25.9234  -30.8444   21.3629 C   0  0  0  0  0  0
  -26.0072  -29.4802   20.7239 C   0  0  0  0  0  0
  -27.2116  -28.7473   20.7128 C   0  0  0  0  0  0
  -26.0985  -26.9720   19.4761 C   0  0  0  0  0  0
  -24.8918  -27.7004   19.5001 C   0  0  0  0  0  0
  -23.6085  -29.8228   20.1649 C   0  0  0  0  0  0
  -25.4078  -36.3101   24.0369 C   0  0  1  0  0  0
  -20.5867  -28.3696   23.1285 C   0  0  2  0  0  0
  -20.6757  -26.9431   22.5410 C   0  0  0  0  0  0
  -19.5753  -26.6403   21.5191 C   0  0  0  0  0  0
  -18.1924  -26.7933   22.1602 C   0  0  0  0  0  0
  -19.1513  -28.8851   23.2889 C   0  0  0  0  0  0
  -18.9444  -30.1444   23.8930 C   0  0  0  0  0  0
  -17.6449  -30.6592   24.0591 C   0  0  0  0  0  0
  -25.9018  -34.9462   23.5162 C   0  0  0  0  0  0
  -16.5340  -29.9094   23.6339 C   0  0  0  0  0  0
  -16.7257  -28.6511   23.0346 C   0  0  0  0  0  0
  -26.4441  -31.6562   25.0723 C   0  0  0  0  0  0
  -25.3738  -31.3671   26.1521 C   0  0  0  0  0  0
  -27.0296  -30.2994   24.6072 C   0  0  0  0  0  0
  -27.6028  -32.4285   25.7480 C   0  0  0  0  0  0
  -27.5574  -37.1790   24.8465 C   0  0  0  0  0  0
  -21.4113  -29.3074   22.3678 N   0  0  0  0  0  0
  -26.4269  -37.3768   23.9453 N   0  0  0  0  0  0
  -24.6620  -31.0885   22.0978 N   0  0  0  0  0  0
  -23.4133  -28.8227   23.2952 O   0  0  0  0  0  0
  -28.4170  -26.7365   19.9792 O   0  0  0  0  0  0
  -26.5577  -34.8890   22.4710 O   0  0  0  0  0  0
  -23.5295  -32.1420   23.7556 O   0  0  0  0  0  0
  -27.3216  -21.3870   19.9596 C   0  0  0  0  0  0
  -29.7960  -20.4239   19.0546 C   0  0  0  0  0  0
  -28.3709  -22.2992   19.7137 C   0  0  0  0  0  0
  -29.5909  -21.8166   19.1727 C   0  0  0  0  0  0
  -27.5084  -19.9984   19.7834 C   0  0  0  0  0  0
  -28.7939  -19.5124   19.4360 C   0  0  0  0  0  0
  -24.4634  -20.0334   18.5822 C   0  0  0  0  0  0
  -24.0706  -18.6875   19.1529 C   0  0  0  0  0  0
  -25.0710  -19.5496   19.8805 C   0  0  0  0  0  0
  -30.6831  -22.7710   18.7132 C   0  0  0  0  0  0
  -28.1748  -23.7702   20.0741 C   0  0  0  0  0  0
  -30.2218  -16.8049   21.2298 C   0  0  0  0  0  0
  -28.5440  -25.3881   21.9933 C   0  0  0  0  0  0
  -28.9621  -17.5828   20.7818 C   0  0  0  0  0  0
  -29.1917  -26.5075   21.1560 C   0  0  0  0  0  0
  -26.4521  -19.0909   19.9370 N   0  0  0  0  0  0
  -29.9726  -15.3673   21.2025 N   0  0  0  0  0  0
  -28.7274  -24.0237   21.4266 N   0  3  0  0  0  0
  -29.1124  -18.1725   19.4831 O   0  0  0  0  0  0
  -31.4711  -12.3954   19.0988 H   0  0  0  0  0  0
  -30.3282  -11.2656   19.7662 H   0  0  0  0  0  0
  -29.7164  -11.7995   17.4001 H   0  0  0  0  0  0
  -29.6575  -13.5015   17.7586 H   0  0  0  0  0  0
  -27.8022  -11.3212   18.7865 H   0  0  0  0  0  0
  -27.3652  -12.6769   17.7837 H   0  0  0  0  0  0
  -27.7199  -14.2503   19.6076 H   0  0  0  0  0  0
  -28.6792  -11.8852   21.2962 H   0  0  0  0  0  0
  -28.4829  -13.4916   21.9027 H   0  0  0  0  0  0
  -25.2715   -9.5637   22.4796 H   0  0  0  0  0  0
  -23.9926   -7.4613   22.7494 H   0  0  0  0  0  0
  -21.0851   -8.8772   19.8919 H   0  0  0  0  0  0
  -22.3703  -10.9666   19.6197 H   0  0  0  0  0  0
  -21.2040   -7.6170   23.9739 H   0  0  0  0  0  0
  -21.1472   -6.0521   25.9074 H   0  0  0  0  0  0
  -22.0624   -2.7627   23.2802 H   0  0  0  0  0  0
  -22.4274  -11.9974   22.4674 H   0  0  0  0  0  0
  -21.1161  -13.1249   22.2649 H   0  0  0  0  0  0
  -24.6650  -15.8369   20.4069 H   0  0  0  0  0  0
  -26.2796  -15.5699   19.9880 H   0  0  0  0  0  0
  -26.7047  -32.5575   23.1209 H   0  0  0  0  0  0
  -24.9953  -33.9783   25.0460 H   0  0  0  0  0  0
  -22.6882  -31.3161   21.4002 H   0  0  0  0  0  0
  -23.3701  -35.9714   23.3267 H   0  0  0  0  0  0
  -24.3609  -36.8972   22.2074 H   0  0  0  0  0  0
  -23.7285  -37.6553   23.6670 H   0  0  0  0  0  0
  -26.0353  -31.5954   20.5815 H   0  0  0  0  0  0
  -26.8137  -30.9059   21.9783 H   0  0  0  0  0  0
  -28.1008  -29.1797   21.1472 H   0  0  0  0  0  0
  -26.1326  -26.0178   18.9709 H   0  0  0  0  0  0
  -24.0089  -27.2973   19.0243 H   0  0  0  0  0  0
  -23.7090  -30.5922   19.3997 H   0  0  0  0  0  0
  -22.7312  -29.2403   19.8769 H   0  0  0  0  0  0
  -25.1220  -36.1952   25.0861 H   0  0  0  0  0  0
  -21.0004  -28.3246   24.1389 H   0  0  0  0  0  0
  -20.5645  -26.2320   23.3605 H   0  0  0  0  0  0
  -21.6619  -26.7458   22.1219 H   0  0  0  0  0  0
  -19.6964  -25.6316   21.1214 H   0  0  0  0  0  0
  -19.6701  -27.3208   20.6721 H   0  0  0  0  0  0
  -17.4198  -26.6650   21.4011 H   0  0  0  0  0  0
  -18.0335  -26.0095   22.9029 H   0  0  0  0  0  0
  -19.7920  -30.7252   24.2310 H   0  0  0  0  0  0
  -17.5009  -31.6285   24.5160 H   0  0  0  0  0  0
  -15.5344  -30.3030   23.7665 H   0  0  0  0  0  0
  -15.8635  -28.0885   22.7046 H   0  0  0  0  0  0
  -24.5943  -30.6943   25.7925 H   0  0  0  0  0  0
  -24.8884  -32.2815   26.4947 H   0  0  0  0  0  0
  -25.8143  -30.8921   27.0296 H   0  0  0  0  0  0
  -26.2833  -29.6743   24.1147 H   0  0  0  0  0  0
  -27.4088  -29.7253   25.4544 H   0  0  0  0  0  0
  -27.8664  -30.4324   23.9200 H   0  0  0  0  0  0
  -27.2643  -33.3594   26.2045 H   0  0  0  0  0  0
  -28.3835  -32.6814   25.0295 H   0  0  0  0  0  0
  -28.0672  -31.8405   26.5404 H   0  0  0  0  0  0
  -28.2532  -38.0129   24.7515 H   0  0  0  0  0  0
  -28.1099  -36.2659   24.6223 H   0  0  0  0  0  0
  -27.2326  -37.1381   25.8868 H   0  0  0  0  0  0
  -20.9253  -29.8809   21.6930 H   0  0  0  0  0  0
  -26.0147  -38.2847   24.1389 H   0  0  0  0  0  0
  -26.3686  -21.7667   20.2915 H   0  0  0  0  0  0
  -30.7394  -20.0358   18.6970 H   0  0  0  0  0  0
  -23.7185  -20.8273   18.6373 H   0  0  0  0  0  0
  -25.0838  -20.0389   17.6856 H   0  0  0  0  0  0
  -24.4181  -17.8133   18.6051 H   0  0  0  0  0  0
  -23.0922  -18.5877   19.6189 H   0  0  0  0  0  0
  -24.7437  -20.0195   20.8089 H   0  0  0  0  0  0
  -31.5254  -22.2387   18.2668 H   0  0  0  0  0  0
  -31.0676  -23.3808   19.5311 H   0  0  0  0  0  0
  -30.2869  -23.4397   17.9484 H   0  0  0  0  0  0
  -27.1155  -24.0266   20.0458 H   0  0  0  0  0  0
  -28.6691  -24.3935   19.3319 H   0  0  0  0  0  0
  -30.4502  -17.0582   22.2651 H   0  0  0  0  0  0
  -31.1006  -17.0977   20.6512 H   0  0  0  0  0  0
  -27.4861  -25.5895   22.1679 H   0  0  0  0  0  0
  -29.0150  -25.3860   22.9792 H   0  0  0  0  0  0
  -28.7565  -18.3404   21.5425 H   0  0  0  0  0  0
  -28.0817  -16.9395   20.7693 H   0  0  0  0  0  0
  -30.2084  -26.2218   20.8713 H   0  0  0  0  0  0
  -29.2994  -27.4156   21.7492 H   0  0  0  0  0  0
  -26.6374  -18.1607   19.5803 H   0  0  0  0  0  0
  -29.0871  -15.0622   21.5761 H   0  0  0  0  0  0
  -29.7064  -23.7858   21.4217 H   0  0  0  0  0  0
  -28.2780  -23.3710   22.0483 H   0  0  0  0  0  0
  1 25  1  0  0  0
  1 30  2  0  0  0
  1 87  1  0  0  0
  2  3  1  0  0  0
  2 25  1  0  0  0
  2 90  1  0  0  0
  2 91  1  0  0  0
  3  4  1  0  0  0
  3 92  1  0  0  0
  3 93  1  0  0  0
  4  5  1  0  0  0
  4 94  1  0  0  0
  4 95  1  0  0  0
  5  6  1  0  0  0
  5 26  1  0  0  0
  5 96  1  0  0  0
  6 25  1  0  0  0
  6 97  1  0  0  0
  6 98  1  0  0  0
  7  8  2  0  0  0
  7 26  1  0  0  0
  7 29  1  0  0  0
  8  9  1  0  0  0
  8 22  1  0  0  0
  9 10  1  0  0  0
  9 27  2  0  0  0
 10 11  2  0  0  0
 10 15  1  0  0  0
 11 12  1  0  0  0
 11 99  1  0  0  0
 12 13  2  0  0  0
 12100  1  0  0  0
 13 14  1  0  0  0
 13 31  1  0  0  0
 14 15  2  0  0  0
 14101  1  0  0  0
 15102  1  0  0  0
 16 17  2  0  0  0
 16 21  1  0  0  0
 16 31  1  0  0  0
 17 18  1  0  0  0
 17103  1  0  0  0
 18 19  2  0  0  0
 18104  1  0  0  0
 19 20  1  0  0  0
 19 24  1  0  0  0
 20 21  2  0  0  0
 20105  1  0  0  0
 21 23  1  0  0  0
 22 28  1  0  0  0
 22 32  2  0  0  0
 26 27  1  0  0  0
 28106  1  0  0  0
 28107  1  0  0  0
 29108  1  0  0  0
 29109  1  0  0  0
 33 34  1  0  0  0
 33 66  1  0  0  0
 33 70  2  0  0  0
 34 36  1  0  0  0
 34 59  1  0  0  0
 34110  1  0  0  0
 35 44  2  0  0  0
 35 45  1  0  0  0
 35 68  1  0  0  0
 36 56  1  0  0  0
 36111  1  0  0  0
 37 39  1  0  0  0
 37 47  1  0  0  0
 37 66  1  0  0  0
 37112  1  0  0  0
 38 43  2  0  0  0
 38 46  1  0  0  0
 38 47  1  0  0  0
 39 64  1  0  0  0
 39 67  2  0  0  0
 40 52  1  0  0  0
 40 53  2  0  0  0
 40 58  1  0  0  0
 41113  1  0  0  0
 41114  1  0  0  0
 41115  1  0  0  0
 41 48  1  0  0  0
 42 43  1  0  0  0
 42 66  1  0  0  0
 42116  1  0  0  0
 42117  1  0  0  0
 43 44  1  0  0  0
 44118  1  0  0  0
 45 46  2  0  0  0
 45119  1  0  0  0
 46120  1  0  0  0
 47121  1  0  0  0
 47122  1  0  0  0
 48 56  1  0  0  0
 48 65  1  0  0  0
 48123  1  0  0  0
 49 50  1  0  0  0
 49 53  1  0  0  0
 49 64  1  0  0  0
 49124  1  0  0  0
 50 51  1  0  0  0
 50125  1  0  0  0
 50126  1  0  0  0
 51 52  1  0  0  0
 51127  1  0  0  0
 51128  1  0  0  0
 52129  1  0  0  0
 52130  1  0  0  0
 53 54  1  0  0  0
 54 55  2  0  0  0
 54131  1  0  0  0
 55 57  1  0  0  0
 55132  1  0  0  0
 56 69  2  0  0  0
 57 58  2  0  0  0
 57133  1  0  0  0
 58134  1  0  0  0
 59 60  1  0  0  0
 59 61  1  0  0  0
 59 62  1  0  0  0
 60135  1  0  0  0
 60136  1  0  0  0
 60137  1  0  0  0
 61138  1  0  0  0
 61139  1  0  0  0
 61140  1  0  0  0
 62141  1  0  0  0
 62142  1  0  0  0
 62143  1  0  0  0
 63 65  1  0  0  0
 63144  1  0  0  0
 63145  1  0  0  0
 63146  1  0  0  0
 64147  1  0  0  0
 65148  1  0  0  0
 68 85  1  0  0  0
 71 73  2  0  0  0
 71 75  1  0  0  0
 71149  1  0  0  0
 72 74  2  0  0  0
 72 76  1  0  0  0
 72150  1  0  0  0
 73 74  1  0  0  0
 73 81  1  0  0  0
 74 80  1  0  0  0
 75 76  2  0  0  0
 75 86  1  0  0  0
 76 89  1  0  0  0
 77 78  1  0  0  0
 77 79  1  0  0  0
 77151  1  0  0  0
 77152  1  0  0  0
 78 79  1  0  0  0
 78153  1  0  0  0
 78154  1  0  0  0
 79 86  1  0  0  0
 79155  1  0  0  0
 80156  1  0  0  0
 80157  1  0  0  0
 80158  1  0  0  0
 81 88  1  0  0  0
 81159  1  0  0  0
 81160  1  0  0  0
 82 84  1  0  0  0
 82 87  1  0  0  0
 82161  1  0  0  0
 82162  1  0  0  0
 83 85  1  0  0  0
 83 88  1  0  0  0
 83163  1  0  0  0
 83164  1  0  0  0
 84 89  1  0  0  0
 84165  1  0  0  0
 84166  1  0  0  0
 85167  1  0  0  0
 85168  1  0  0  0
 86169  1  0  0  0
 87170  1  0  0  0
 88171  1  0  0  0
 88172  1  0  0  0
M  CHG  1  88   1
M  ISO  4   1 100  68 101  85 101  87 100
M  END
> <chiral flag>
0

> <version>
0

> <s_m_source_file>
/data/baiqing/PycharmProjects/Reinvent-master-3.2/result/LINK_invent/BTK/process_docking_weight1_custom_sum_contain_oxygen_bond_distance_aromatic_linkinvent_7_9_3/rearranged_h_0144.sdf

> <i_m_source_file_index>
12

> <r_mmod_Potential_Energy-OPLS-2005>
-243.278656005859

> <r_mmod_Stretch_Energy-OPLS-2005>
35.2626113891602

> <r_mmod_Bend_Energy-OPLS-2005>
104.555030822754

> <r_mmod_Torsional_Energy-OPLS-2005>
285.312316894531

> <r_mmod_Improper_Torsional_Energy-OPLS-2005>
6.72910213470459

> <r_mmod_Van_der_Waal_Energy-OPLS-2005>
150.412094116211

> <r_mmod_Electrostatic_Energy-OPLS-2005>
-389.05712890625

> <r_mmod_Solvation_Energy-OPLS-2005>
-444.507049560547

> <b_mmod_Minimization_Converged-OPLS-2005>
0

> <r_mmod_RMS_Derivative-OPLS-2005>
5.32901000976562

$$$$
12
                    3D
 Structure written by MMmdl.
159169  0  0  1  0            999 V2000
  -30.5575  -14.8334   20.4725 C   0  0  0  0  0  0
  -30.4342  -12.5188   19.4877 C   0  0  0  0  0  0
  -29.5099  -12.5125   18.2481 C   0  0  0  0  0  0
  -28.0387  -12.3223   18.6607 C   0  0  0  0  0  0
  -27.6332  -13.2333   19.8486 C   0  0  2  0  0  0
  -28.6719  -13.1999   20.9889 C   0  0  0  0  0  0
  -25.2490  -13.8196   20.5680 C   0  0  0  0  0  0
  -24.1785  -13.0440   20.9213 C   0  0  0  0  0  0
  -24.6377  -11.6923   20.8756 C   0  0  0  0  0  0
  -23.9060  -10.4298   21.0419 C   0  0  0  0  0  0
  -24.3616   -9.4210   21.9187 C   0  0  0  0  0  0
  -23.6301   -8.2238   22.0750 C   0  0  0  0  0  0
  -22.4282   -8.0273   21.3541 C   0  0  0  0  0  0
  -21.9919   -9.0247   20.4645 C   0  0  0  0  0  0
  -22.7240  -10.2136   20.3065 C   0  0  0  0  0  0
  -21.6855   -6.0737   22.5270 C   0  0  0  0  0  0
  -21.4004   -6.5641   23.8201 C   0  0  0  0  0  0
  -21.3655   -5.6793   24.9162 C   0  0  0  0  0  0
  -21.6044   -4.3059   24.7216 C   0  0  0  0  0  0
  -21.8827   -3.8155   23.4340 C   0  0  0  0  0  0
  -21.9197   -4.6967   22.3394 C   0  0  0  0  0  0
  -22.7815  -13.5237   21.1862 C   0  0  0  0  0  0
  -22.1671   -4.2155   21.0971 F   0  0  0  0  0  0
  -21.5629   -3.4546   25.7730 F   0  0  0  0  0  0
  -29.9597  -13.5879   20.4046 N   0  0  0  0  0  0
  -26.2887  -12.9393   20.3269 N   0  0  0  0  0  0
  -25.9303  -11.6540   20.5767 N   0  0  0  0  0  0
  -22.0484  -12.8212   22.0426 N   0  0  0  0  0  0
  -25.4205  -15.1910   20.4079 N   0  0  0  0  0  0
  -31.7493  -14.9358   20.1670 O   0  0  0  0  0  0
  -21.6638   -6.8875   21.4233 O   0  0  0  0  0  0
  -22.3503  -14.5543   20.6710 O   0  0  0  0  0  0
  -24.6395  -31.8487   23.1942 C   0  0  0  0  0  0
  -25.9190  -32.4723   23.8309 C   0  0  1  0  0  0
  -27.2049  -27.1744   20.1345 C   0  0  0  0  0  0
  -25.5943  -33.8524   24.2210 N   0  0  0  0  0  0
  -23.4410  -30.4738   21.5378 C   0  0  2  0  0  0
  -24.8890  -28.9196   20.1055 C   0  0  0  0  0  0
  -22.7542  -29.4583   22.4848 C   0  0  0  0  0  0
  -18.0296  -28.1405   22.8478 C   0  0  0  0  0  0
  -24.1462  -36.7240   23.2632 C   0  0  0  0  0  0
  -25.9977  -30.7298   21.3961 C   0  0  0  0  0  0
  -26.0644  -29.3484   20.7343 C   0  0  0  0  0  0
  -27.2203  -28.4867   20.7483 C   0  0  0  0  0  0
  -26.0172  -26.8725   19.4234 C   0  0  0  0  0  0
  -24.8764  -27.6916   19.4386 C   0  0  0  0  0  0
  -23.6645  -29.8144   20.1537 C   0  0  0  0  0  0
  -25.4087  -36.3030   24.0316 C   0  0  1  0  0  0
  -20.5917  -28.3726   23.1227 C   0  0  2  0  0  0
  -20.6782  -26.9422   22.5403 C   0  0  0  0  0  0
  -19.5752  -26.6378   21.5209 C   0  0  0  0  0  0
  -18.1927  -26.7942   22.1613 C   0  0  0  0  0  0
  -19.1558  -28.8883   23.2849 C   0  0  0  0  0  0
  -18.9486  -30.1481   23.8873 C   0  0  0  0  0  0
  -17.6490  -30.6605   24.0572 C   0  0  0  0  0  0
  -25.9060  -34.9417   23.5064 C   0  0  0  0  0  0
  -16.5371  -29.9096   23.6365 C   0  0  0  0  0  0
  -16.7288  -28.6518   23.0376 C   0  0  0  0  0  0
  -26.4510  -31.6600   25.0760 C   0  0  0  0  0  0
  -25.3690  -31.3836   26.1465 C   0  0  0  0  0  0
  -27.0369  -30.2980   24.6373 C   0  0  0  0  0  0
  -27.6038  -32.4398   25.7524 C   0  0  0  0  0  0
  -27.5572  -37.1726   24.8434 C   0  0  0  0  0  0
  -21.4240  -29.3055   22.3592 N   0  0  0  0  0  0
  -26.4227  -37.3768   23.9477 N   0  0  0  0  0  0
  -24.7123  -31.0369   22.0972 N   0  0  0  0  0  0
  -23.4209  -28.8104   23.2966 O   0  0  0  0  0  0
  -28.2298  -26.1723   20.2521 O   0  0  0  0  0  0
  -26.5643  -34.8914   22.4641 O   0  0  0  0  0  0
  -23.5524  -32.1352   23.7168 O   0  0  0  0  0  0
  -27.6530  -22.4677   21.0949 C   0  0  0  0  0  0
  -29.5812  -22.5595   19.7411 C   0  0  0  0  0  0
  -27.8438  -21.0527   21.3134 C   0  0  0  0  0  0
  -28.9384  -20.3035   20.7426 C   0  0  0  0  0  0
  -28.4841  -23.2997   20.2922 C   0  0  0  0  0  0
  -29.8071  -21.1399   19.9588 C   0  0  0  0  0  0
  -26.1174  -21.0364   23.3040 C   0  0  0  0  0  0
  -27.0091  -19.8386   23.5135 C   0  0  0  0  0  0
  -30.7932  -17.9065   21.9059 C   0  0  0  0  0  0
  -26.7719  -20.3582   22.1148 C   0  0  0  0  0  0
  -29.0958  -18.6906   21.0156 C   0  0  1  0  0  0
  -30.1340  -17.4880   20.5938 C   0  0  2  0  0  0
  -27.9416  -24.7428   19.7652 C   0  0  0  0  0  0
  -29.7687  -15.9753   20.6809 N   0  0  0  0  0  0
  -29.5694  -18.5352   22.3806 O   0  0  0  0  0  0
  -31.1804  -20.4301   19.1896 Cl  0  0  0  0  0  0
  -31.4688  -12.6756   19.1789 H   0  0  0  0  0  0
  -30.4147  -11.5506   19.9902 H   0  0  0  0  0  0
  -29.8077  -11.7226   17.5586 H   0  0  0  0  0  0
  -29.6168  -13.4504   17.7017 H   0  0  0  0  0  0
  -27.9091  -11.2754   18.9362 H   0  0  0  0  0  0
  -27.3789  -12.4949   17.8091 H   0  0  0  0  0  0
  -27.6185  -14.2482   19.4505 H   0  0  0  0  0  0
  -28.7309  -12.2070   21.4380 H   0  0  0  0  0  0
  -28.3872  -13.8827   21.7908 H   0  0  0  0  0  0
  -25.2768   -9.5686   22.4756 H   0  0  0  0  0  0
  -24.0015   -7.4635   22.7475 H   0  0  0  0  0  0
  -21.0846   -8.8776   19.8954 H   0  0  0  0  0  0
  -22.3706  -10.9673   19.6177 H   0  0  0  0  0  0
  -21.1986   -7.6144   23.9701 H   0  0  0  0  0  0
  -21.1464   -6.0522   25.9060 H   0  0  0  0  0  0
  -22.0610   -2.7619   23.2834 H   0  0  0  0  0  0
  -22.4133  -11.9877   22.4786 H   0  0  0  0  0  0
  -21.1104  -13.1219   22.2669 H   0  0  0  0  0  0
  -24.6503  -15.8443   20.4969 H   0  0  0  0  0  0
  -26.2579  -15.6201   20.0382 H   0  0  0  0  0  0
  -26.7262  -32.5336   23.1045 H   0  0  0  0  0  0
  -25.0090  -33.9650   25.0363 H   0  0  0  0  0  0
  -22.7419  -31.2998   21.3879 H   0  0  0  0  0  0
  -23.3765  -35.9522   23.3204 H   0  0  0  0  0  0
  -24.3578  -36.8965   22.2069 H   0  0  0  0  0  0
  -23.7154  -37.6375   23.6742 H   0  0  0  0  0  0
  -26.1566  -31.4862   20.6260 H   0  0  0  0  0  0
  -26.8676  -30.7709   22.0407 H   0  0  0  0  0  0
  -28.1062  -28.7985   21.2840 H   0  0  0  0  0  0
  -25.9078  -25.9673   18.8488 H   0  0  0  0  0  0
  -23.9866  -27.3659   18.9190 H   0  0  0  0  0  0
  -23.7936  -30.5936   19.4015 H   0  0  0  0  0  0
  -22.7824  -29.2520   19.8446 H   0  0  0  0  0  0
  -25.1245  -36.1816   25.0796 H   0  0  0  0  0  0
  -21.0016  -28.3327   24.1347 H   0  0  0  0  0  0
  -20.5664  -26.2339   23.3626 H   0  0  0  0  0  0
  -21.6648  -26.7412   22.1201 H   0  0  0  0  0  0
  -19.6907  -25.6276   21.1266 H   0  0  0  0  0  0
  -19.6709  -27.3172   20.6727 H   0  0  0  0  0  0
  -17.4196  -26.6723   21.4006 H   0  0  0  0  0  0
  -18.0308  -26.0083   22.9010 H   0  0  0  0  0  0
  -19.7964  -30.7300   24.2227 H   0  0  0  0  0  0
  -17.5046  -31.6286   24.5163 H   0  0  0  0  0  0
  -15.5376  -30.2992   23.7717 H   0  0  0  0  0  0
  -15.8685  -28.0833   22.7115 H   0  0  0  0  0  0
  -24.5864  -30.7168   25.7825 H   0  0  0  0  0  0
  -24.8882  -32.3036   26.4798 H   0  0  0  0  0  0
  -25.7958  -30.9096   27.0313 H   0  0  0  0  0  0
  -26.3004  -29.6718   24.1327 H   0  0  0  0  0  0
  -27.3888  -29.7276   25.4980 H   0  0  0  0  0  0
  -27.8947  -30.4184   23.9758 H   0  0  0  0  0  0
  -27.2620  -33.3736   26.2002 H   0  0  0  0  0  0
  -28.3880  -32.6910   25.0375 H   0  0  0  0  0  0
  -28.0667  -31.8608   26.5522 H   0  0  0  0  0  0
  -28.2449  -38.0157   24.7686 H   0  0  0  0  0  0
  -28.1205  -36.2709   24.5978 H   0  0  0  0  0  0
  -27.2351  -37.1026   25.8837 H   0  0  0  0  0  0
  -20.9431  -29.8801   21.6807 H   0  0  0  0  0  0
  -26.0066  -38.2779   24.1673 H   0  0  0  0  0  0
  -26.7616  -22.9245   21.5017 H   0  0  0  0  0  0
  -30.2504  -23.0748   19.0666 H   0  0  0  0  0  0
  -26.5043  -21.9970   23.6378 H   0  0  0  0  0  0
  -25.0480  -20.8917   23.4461 H   0  0  0  0  0  0
  -26.5213  -18.9065   23.7932 H   0  0  0  0  0  0
  -27.9818  -20.0154   23.9672 H   0  0  0  0  0  0
  -31.6000  -18.6298   21.7724 H   0  0  0  0  0  0
  -31.1187  -17.0843   22.5462 H   0  0  0  0  0  0
  -26.1149  -19.7850   21.4628 H   0  0  0  0  0  0
  -28.0898  -18.2785   20.9216 H   0  0  0  0  0  0
  -30.7319  -17.7351   19.7166 H   0  0  0  0  0  0
  -26.8804  -24.5665   19.9161 H   0  0  0  0  0  0
  -28.0891  -24.7497   18.6848 H   0  0  0  0  0  0
  -28.7991  -15.7849   20.8807 H   0  0  0  0  0  0
  1 25  1  0  0  0
  1 30  2  0  0  0
  1 84  1  0  0  0
  2  3  1  0  0  0
  2 25  1  0  0  0
  2 87  1  0  0  0
  2 88  1  0  0  0
  3  4  1  0  0  0
  3 89  1  0  0  0
  3 90  1  0  0  0
  4  5  1  0  0  0
  4 91  1  0  0  0
  4 92  1  0  0  0
  5  6  1  0  0  0
  5 26  1  0  0  0
  5 93  1  0  0  0
  6 25  1  0  0  0
  6 94  1  0  0  0
  6 95  1  0  0  0
  7  8  2  0  0  0
  7 26  1  0  0  0
  7 29  1  0  0  0
  8  9  1  0  0  0
  8 22  1  0  0  0
  9 10  1  0  0  0
  9 27  2  0  0  0
 10 11  2  0  0  0
 10 15  1  0  0  0
 11 12  1  0  0  0
 11 96  1  0  0  0
 12 13  2  0  0  0
 12 97  1  0  0  0
 13 14  1  0  0  0
 13 31  1  0  0  0
 14 15  2  0  0  0
 14 98  1  0  0  0
 15 99  1  0  0  0
 16 17  2  0  0  0
 16 21  1  0  0  0
 16 31  1  0  0  0
 17 18  1  0  0  0
 17100  1  0  0  0
 18 19  2  0  0  0
 18101  1  0  0  0
 19 20  1  0  0  0
 19 24  1  0  0  0
 20 21  2  0  0  0
 20102  1  0  0  0
 21 23  1  0  0  0
 22 28  1  0  0  0
 22 32  2  0  0  0
 26 27  1  0  0  0
 28103  1  0  0  0
 28104  1  0  0  0
 29105  1  0  0  0
 29106  1  0  0  0
 33 34  1  0  0  0
 33 66  1  0  0  0
 33 70  2  0  0  0
 34 36  1  0  0  0
 34 59  1  0  0  0
 34107  1  0  0  0
 35 44  2  0  0  0
 35 45  1  0  0  0
 35 68  1  0  0  0
 36 56  1  0  0  0
 36108  1  0  0  0
 37 39  1  0  0  0
 37 47  1  0  0  0
 37 66  1  0  0  0
 37109  1  0  0  0
 38 43  2  0  0  0
 38 46  1  0  0  0
 38 47  1  0  0  0
 39 64  1  0  0  0
 39 67  2  0  0  0
 40 52  1  0  0  0
 40 53  2  0  0  0
 40 58  1  0  0  0
 41110  1  0  0  0
 41111  1  0  0  0
 41112  1  0  0  0
 41 48  1  0  0  0
 42 43  1  0  0  0
 42 66  1  0  0  0
 42113  1  0  0  0
 42114  1  0  0  0
 43 44  1  0  0  0
 44115  1  0  0  0
 45 46  2  0  0  0
 45116  1  0  0  0
 46117  1  0  0  0
 47118  1  0  0  0
 47119  1  0  0  0
 48 56  1  0  0  0
 48 65  1  0  0  0
 48120  1  0  0  0
 49 50  1  0  0  0
 49 53  1  0  0  0
 49 64  1  0  0  0
 49121  1  0  0  0
 50 51  1  0  0  0
 50122  1  0  0  0
 50123  1  0  0  0
 51 52  1  0  0  0
 51124  1  0  0  0
 51125  1  0  0  0
 52126  1  0  0  0
 52127  1  0  0  0
 53 54  1  0  0  0
 54 55  2  0  0  0
 54128  1  0  0  0
 55 57  1  0  0  0
 55129  1  0  0  0
 56 69  2  0  0  0
 57 58  2  0  0  0
 57130  1  0  0  0
 58131  1  0  0  0
 59 60  1  0  0  0
 59 61  1  0  0  0
 59 62  1  0  0  0
 60132  1  0  0  0
 60133  1  0  0  0
 60134  1  0  0  0
 61135  1  0  0  0
 61136  1  0  0  0
 61137  1  0  0  0
 62138  1  0  0  0
 62139  1  0  0  0
 62140  1  0  0  0
 63 65  1  0  0  0
 63141  1  0  0  0
 63142  1  0  0  0
 63143  1  0  0  0
 64144  1  0  0  0
 65145  1  0  0  0
 68 83  1  0  0  0
 71 73  2  0  0  0
 71 75  1  0  0  0
 71146  1  0  0  0
 72 75  2  0  0  0
 72 76  1  0  0  0
 72147  1  0  0  0
 73 74  1  0  0  0
 73 80  1  0  0  0
 74 76  2  0  0  0
 74 81  1  0  0  0
 75 83  1  0  0  0
 76 86  1  0  0  0
 77 78  1  0  0  0
 77 80  1  0  0  0
 77148  1  0  0  0
 77149  1  0  0  0
 78 80  1  0  0  0
 78150  1  0  0  0
 78151  1  0  0  0
 79 82  1  0  0  0
 79 85  1  0  0  0
 79152  1  0  0  0
 79153  1  0  0  0
 80154  1  0  0  0
 81 82  1  0  0  0
 81 85  1  0  0  0
 81155  1  0  0  0
 82 84  1  0  0  0
 82156  1  0  0  0
 83157  1  0  0  0
 83158  1  0  0  0
 84159  1  0  0  0
M  ISO  4   1 100  68 101  83 101  84 100
M  END
> <chiral flag>
0

> <version>
0

> <s_m_source_file>
/data/baiqing/PycharmProjects/Reinvent-master-3.2/result/LINK_invent/BTK/process_docking_weight1_custom_sum_contain_oxygen_bond_distance_aromatic_linkinvent_7_9_3/rearranged_h_0144.sdf

> <i_m_source_file_index>
13

> <r_mmod_Potential_Energy-OPLS-2005>
390.059143066406

> <r_mmod_Stretch_Energy-OPLS-2005>
180.115020751953

> <r_mmod_Bend_Energy-OPLS-2005>
249.739685058594

> <r_mmod_Torsional_Energy-OPLS-2005>
279.259521484375

> <r_mmod_Improper_Torsional_Energy-OPLS-2005>
8.58463287353516

> <r_mmod_Van_der_Waal_Energy-OPLS-2005>
139.567901611328

> <r_mmod_Electrostatic_Energy-OPLS-2005>
-398.818328857422

> <r_mmod_Solvation_Energy-OPLS-2005>
-215.99462890625

> <b_mmod_Minimization_Converged-OPLS-2005>
0

> <r_mmod_RMS_Derivative-OPLS-2005>
2.3439679145813

$$$$
13
                    3D
 Structure written by MMmdl.
176185  0  0  1  0            999 V2000
  -30.7168  -14.4439   20.4763 C   0  0  0  0  0  0
  -30.4171  -12.2621   19.4196 C   0  0  0  0  0  0
  -29.4875  -12.4630   18.2040 C   0  0  0  0  0  0
  -28.0056  -12.3462   18.6194 C   0  0  0  0  0  0
  -27.6559  -13.1927   19.8739 C   0  0  2  0  0  0
  -28.7100  -13.0117   20.9893 C   0  0  0  0  0  0
  -25.2469  -13.8018   20.5539 C   0  0  0  0  0  0
  -24.1776  -13.0347   20.9249 C   0  0  0  0  0  0
  -24.6370  -11.6832   20.8872 C   0  0  0  0  0  0
  -23.9040  -10.4240   21.0488 C   0  0  0  0  0  0
  -24.3611   -9.4146   21.9239 C   0  0  0  0  0  0
  -23.6291   -8.2174   22.0745 C   0  0  0  0  0  0
  -22.4276   -8.0247   21.3511 C   0  0  0  0  0  0
  -21.9918   -9.0233   20.4625 C   0  0  0  0  0  0
  -22.7235  -10.2121   20.3098 C   0  0  0  0  0  0
  -21.6831   -6.0738   22.5263 C   0  0  0  0  0  0
  -21.3984   -6.5629   23.8210 C   0  0  0  0  0  0
  -21.3629   -5.6791   24.9173 C   0  0  0  0  0  0
  -21.6034   -4.3050   24.7241 C   0  0  0  0  0  0
  -21.8816   -3.8141   23.4355 C   0  0  0  0  0  0
  -21.9174   -4.6960   22.3408 C   0  0  0  0  0  0
  -22.7800  -13.5188   21.1832 C   0  0  0  0  0  0
  -22.1666   -4.2138   21.0990 F   0  0  0  0  0  0
  -21.5633   -3.4524   25.7752 F   0  0  0  0  0  0
  -30.0393  -13.2709   20.4131 N   0  0  0  0  0  0
  -26.2985  -12.9220   20.3430 N   0  0  0  0  0  0
  -25.9293  -11.6409   20.5925 N   0  0  0  0  0  0
  -22.0387  -12.8238   22.0383 N   0  0  0  0  0  0
  -25.3931  -15.1637   20.3455 N   0  0  0  0  0  0
  -31.9147  -14.5517   20.1974 O   0  0  0  0  0  0
  -21.6614   -6.8859   21.4223 O   0  0  0  0  0  0
  -22.3498  -14.5469   20.6605 O   0  0  0  0  0  0
  -24.6047  -31.8699   23.2132 C   0  0  0  0  0  0
  -25.8970  -32.4839   23.8410 C   0  0  1  0  0  0
  -27.2470  -27.4914   20.0968 C   0  0  0  0  0  0
  -25.5864  -33.8639   24.2352 N   0  0  0  0  0  0
  -23.3927  -30.4916   21.5492 C   0  0  2  0  0  0
  -24.8454  -28.9687   20.1045 C   0  0  0  0  0  0
  -22.7353  -29.4652   22.4975 C   0  0  0  0  0  0
  -18.0238  -28.1363   22.8439 C   0  0  0  0  0  0
  -24.1497  -36.7328   23.2639 C   0  0  0  0  0  0
  -25.9122  -30.8540   21.3584 C   0  0  0  0  0  0
  -25.9926  -29.4903   20.7155 C   0  0  0  0  0  0
  -27.1924  -28.7580   20.7169 C   0  0  0  0  0  0
  -26.1035  -26.9964   19.4411 C   0  0  0  0  0  0
  -24.8948  -27.7189   19.4614 C   0  0  0  0  0  0
  -23.6007  -29.8227   20.1615 C   0  0  0  0  0  0
  -25.4117  -36.3123   24.0350 C   0  0  1  0  0  0
  -20.5817  -28.3668   23.1305 C   0  0  2  0  0  0
  -20.6761  -26.9409   22.5416 C   0  0  0  0  0  0
  -19.5770  -26.6368   21.5191 C   0  0  0  0  0  0
  -18.1939  -26.7894   22.1587 C   0  0  0  0  0  0
  -19.1472  -28.8827   23.2872 C   0  0  0  0  0  0
  -18.9399  -30.1416   23.8918 C   0  0  0  0  0  0
  -17.6404  -30.6569   24.0545 C   0  0  0  0  0  0
  -25.9031  -34.9484   23.5143 C   0  0  0  0  0  0
  -16.5301  -29.9075   23.6285 C   0  0  0  0  0  0
  -16.7221  -28.6484   23.0315 C   0  0  0  0  0  0
  -26.4451  -31.6576   25.0685 C   0  0  0  0  0  0
  -25.3749  -31.3632   26.1447 C   0  0  0  0  0  0
  -27.0262  -30.3042   24.5966 C   0  0  0  0  0  0
  -27.6059  -32.4261   25.7427 C   0  0  0  0  0  0
  -27.5587  -37.1815   24.8467 C   0  0  0  0  0  0
  -21.4080  -29.3035   22.3725 N   0  0  0  0  0  0
  -26.4305  -37.3807   23.9400 N   0  0  0  0  0  0
  -24.6543  -31.0857   22.1000 N   0  0  0  0  0  0
  -23.4148  -28.8195   23.2999 O   0  0  0  0  0  0
  -28.3897  -26.7312   20.1071 O   0  0  0  0  0  0
  -26.5590  -34.8924   22.4700 O   0  0  0  0  0  0
  -23.5252  -32.1431   23.7553 O   0  0  0  0  0  0
  -26.6543  -22.8771   22.7223 C   0  0  0  0  0  0
  -25.4592  -23.7333   20.7896 C   0  0  0  0  0  0
  -26.2068  -21.5728   22.4389 C   0  0  0  0  0  0
  -25.0331  -22.4304   20.4614 C   0  0  0  0  0  0
  -25.4625  -21.3310   21.2514 C   0  0  0  0  0  0
  -26.3351  -23.9491   21.8688 C   0  0  0  0  0  0
  -28.6953  -16.8458   18.6231 C   0  0  0  0  0  0
  -28.2095  -17.0793   21.1094 C   0  0  0  0  0  0
  -30.0568  -16.2662   19.0301 C   0  0  0  0  0  0
  -29.5580  -16.3937   21.4007 C   0  0  0  0  0  0
  -28.1761  -17.7809   19.7273 C   0  0  0  0  0  0
  -26.5792  -20.4782   23.4319 C   0  0  0  0  0  0
  -24.1663  -22.2424   19.2240 C   0  0  0  0  0  0
  -25.3260  -19.9133   20.7120 C   0  0  0  0  0  0
  -26.7905  -18.3630   19.3744 C   0  0  0  0  0  0
  -28.9083  -26.4663   21.4160 C   0  0  0  0  0  0
  -28.3347  -25.1541   21.9779 C   0  0  0  0  0  0
  -29.9196  -15.5157   20.2864 N   0  0  0  0  0  0
  -26.6111  -19.6599   20.0376 N   0  3  0  0  0  0
  -26.9063  -25.1847   22.0383 O   0  0  0  0  0  0
  -31.4611  -12.3496   19.1133 H   0  0  0  0  0  0
  -30.3084  -11.2606   19.8405 H   0  0  0  0  0  0
  -29.7203  -11.7250   17.4348 H   0  0  0  0  0  0
  -29.6667  -13.4390   17.7489 H   0  0  0  0  0  0
  -27.8012  -11.2940   18.8213 H   0  0  0  0  0  0
  -27.3551  -12.6228   17.7867 H   0  0  0  0  0  0
  -27.6798  -14.2334   19.5670 H   0  0  0  0  0  0
  -28.6717  -11.9990   21.3930 H   0  0  0  0  0  0
  -28.5067  -13.6810   21.8253 H   0  0  0  0  0  0
  -25.2737   -9.5621   22.4852 H   0  0  0  0  0  0
  -23.9988   -7.4540   22.7444 H   0  0  0  0  0  0
  -21.0849   -8.8786   19.8929 H   0  0  0  0  0  0
  -22.3700  -10.9708   19.6244 H   0  0  0  0  0  0
  -21.1953   -7.6128   23.9714 H   0  0  0  0  0  0
  -21.1448   -6.0514   25.9088 H   0  0  0  0  0  0
  -22.0607   -2.7589   23.2870 H   0  0  0  0  0  0
  -22.4032  -11.9989   22.4886 H   0  0  0  0  0  0
  -21.0990  -13.1245   22.2502 H   0  0  0  0  0  0
  -26.1884  -15.5262   19.8389 H   0  0  0  0  0  0
  -24.5820  -15.7723   20.3372 H   0  0  0  0  0  0
  -26.7020  -32.5598   23.1168 H   0  0  0  0  0  0
  -25.0020  -33.9821   25.0500 H   0  0  0  0  0  0
  -22.6774  -31.3055   21.4127 H   0  0  0  0  0  0
  -23.3746  -35.9671   23.3319 H   0  0  0  0  0  0
  -24.3592  -36.8911   22.2043 H   0  0  0  0  0  0
  -23.7254  -37.6554   23.6629 H   0  0  0  0  0  0
  -26.0076  -31.6153   20.5831 H   0  0  0  0  0  0
  -26.8063  -30.9194   21.9647 H   0  0  0  0  0  0
  -28.0711  -29.1692   21.1919 H   0  0  0  0  0  0
  -26.1572  -26.0508   18.9218 H   0  0  0  0  0  0
  -24.0207  -27.3239   18.9604 H   0  0  0  0  0  0
  -23.6975  -30.5997   19.4018 H   0  0  0  0  0  0
  -22.7289  -29.2335   19.8684 H   0  0  0  0  0  0
  -25.1280  -36.2001   25.0847 H   0  0  0  0  0  0
  -20.9854  -28.3233   24.1436 H   0  0  0  0  0  0
  -20.5686  -26.2269   23.3595 H   0  0  0  0  0  0
  -21.6638  -26.7500   22.1205 H   0  0  0  0  0  0
  -19.6971  -25.6273   21.1240 H   0  0  0  0  0  0
  -19.6748  -27.3150   20.6697 H   0  0  0  0  0  0
  -17.4212  -26.6562   21.3994 H   0  0  0  0  0  0
  -18.0399  -26.0062   22.9019 H   0  0  0  0  0  0
  -19.7876  -30.7198   24.2352 H   0  0  0  0  0  0
  -17.4967  -31.6255   24.5137 H   0  0  0  0  0  0
  -15.5306  -30.3002   23.7602 H   0  0  0  0  0  0
  -15.8613  -28.0819   22.7032 H   0  0  0  0  0  0
  -24.5946  -30.6958   25.7771 H   0  0  0  0  0  0
  -24.8921  -32.2765   26.4928 H   0  0  0  0  0  0
  -25.8138  -30.8777   27.0168 H   0  0  0  0  0  0
  -26.2754  -29.6801   24.1106 H   0  0  0  0  0  0
  -27.4168  -29.7260   25.4344 H   0  0  0  0  0  0
  -27.8531  -30.4399   23.8992 H   0  0  0  0  0  0
  -27.2721  -33.3542   26.2072 H   0  0  0  0  0  0
  -28.3840  -32.6824   25.0228 H   0  0  0  0  0  0
  -28.0765  -31.8328   26.5273 H   0  0  0  0  0  0
  -28.2618  -38.0101   24.7508 H   0  0  0  0  0  0
  -28.1064  -36.2626   24.6300 H   0  0  0  0  0  0
  -27.2302  -37.1488   25.8874 H   0  0  0  0  0  0
  -20.9221  -29.8747   21.6948 H   0  0  0  0  0  0
  -26.0194  -38.2888   24.1394 H   0  0  0  0  0  0
  -27.2805  -23.0561   23.5848 H   0  0  0  0  0  0
  -25.1732  -24.5619   20.1610 H   0  0  0  0  0  0
  -27.9801  -16.0511   18.4124 H   0  0  0  0  0  0
  -28.8027  -17.3994   17.6892 H   0  0  0  0  0  0
  -27.9836  -17.7837   21.9097 H   0  0  0  0  0  0
  -27.4364  -16.3191   21.1638 H   0  0  0  0  0  0
  -30.7858  -17.0673   19.1582 H   0  0  0  0  0  0
  -30.4369  -15.6383   18.2218 H   0  0  0  0  0  0
  -29.4941  -15.8308   22.3356 H   0  0  0  0  0  0
  -30.3379  -17.1438   21.5401 H   0  0  0  0  0  0
  -28.8929  -18.6044   19.7601 H   0  0  0  0  0  0
  -25.8117  -20.4224   24.2052 H   0  0  0  0  0  0
  -27.5275  -20.7064   23.9205 H   0  0  0  0  0  0
  -26.6855  -19.4882   22.9962 H   0  0  0  0  0  0
  -23.8787  -23.1965   18.7818 H   0  0  0  0  0  0
  -23.2456  -21.7153   19.4780 H   0  0  0  0  0  0
  -24.6957  -21.6758   18.4582 H   0  0  0  0  0  0
  -24.4989  -19.8058   20.0110 H   0  0  0  0  0  0
  -25.1327  -19.1921   21.5036 H   0  0  0  0  0  0
  -25.9899  -17.6716   19.6281 H   0  0  0  0  0  0
  -26.7119  -18.5381   18.3005 H   0  0  0  0  0  0
  -29.9924  -26.3758   21.3262 H   0  0  0  0  0  0
  -28.7469  -27.2748   22.1281 H   0  0  0  0  0  0
  -28.7302  -24.9821   22.9812 H   0  0  0  0  0  0
  -28.6852  -24.3331   21.3489 H   0  0  0  0  0  0
  -27.3364  -19.7700   20.7256 H   0  0  0  0  0  0
  -26.7504  -20.3845   19.3525 H   0  0  0  0  0  0
  1 25  1  0  0  0
  1 30  2  0  0  0
  1 88  1  0  0  0
  2  3  1  0  0  0
  2 25  1  0  0  0
  2 91  1  0  0  0
  2 92  1  0  0  0
  3  4  1  0  0  0
  3 93  1  0  0  0
  3 94  1  0  0  0
  4  5  1  0  0  0
  4 95  1  0  0  0
  4 96  1  0  0  0
  5  6  1  0  0  0
  5 26  1  0  0  0
  5 97  1  0  0  0
  6 25  1  0  0  0
  6 98  1  0  0  0
  6 99  1  0  0  0
  7  8  2  0  0  0
  7 26  1  0  0  0
  7 29  1  0  0  0
  8  9  1  0  0  0
  8 22  1  0  0  0
  9 10  1  0  0  0
  9 27  2  0  0  0
 10 11  2  0  0  0
 10 15  1  0  0  0
 11 12  1  0  0  0
 11100  1  0  0  0
 12 13  2  0  0  0
 12101  1  0  0  0
 13 14  1  0  0  0
 13 31  1  0  0  0
 14 15  2  0  0  0
 14102  1  0  0  0
 15103  1  0  0  0
 16 17  2  0  0  0
 16 21  1  0  0  0
 16 31  1  0  0  0
 17 18  1  0  0  0
 17104  1  0  0  0
 18 19  2  0  0  0
 18105  1  0  0  0
 19 20  1  0  0  0
 19 24  1  0  0  0
 20 21  2  0  0  0
 20106  1  0  0  0
 21 23  1  0  0  0
 22 28  1  0  0  0
 22 32  2  0  0  0
 26 27  1  0  0  0
 28107  1  0  0  0
 28108  1  0  0  0
 29109  1  0  0  0
 29110  1  0  0  0
 33 34  1  0  0  0
 33 66  1  0  0  0
 33 70  2  0  0  0
 34 36  1  0  0  0
 34 59  1  0  0  0
 34111  1  0  0  0
 35 44  2  0  0  0
 35 45  1  0  0  0
 35 68  1  0  0  0
 36 56  1  0  0  0
 36112  1  0  0  0
 37 39  1  0  0  0
 37 47  1  0  0  0
 37 66  1  0  0  0
 37113  1  0  0  0
 38 43  2  0  0  0
 38 46  1  0  0  0
 38 47  1  0  0  0
 39 64  1  0  0  0
 39 67  2  0  0  0
 40 52  1  0  0  0
 40 53  2  0  0  0
 40 58  1  0  0  0
 41114  1  0  0  0
 41115  1  0  0  0
 41116  1  0  0  0
 41 48  1  0  0  0
 42 43  1  0  0  0
 42 66  1  0  0  0
 42117  1  0  0  0
 42118  1  0  0  0
 43 44  1  0  0  0
 44119  1  0  0  0
 45 46  2  0  0  0
 45120  1  0  0  0
 46121  1  0  0  0
 47122  1  0  0  0
 47123  1  0  0  0
 48 56  1  0  0  0
 48 65  1  0  0  0
 48124  1  0  0  0
 49 50  1  0  0  0
 49 53  1  0  0  0
 49 64  1  0  0  0
 49125  1  0  0  0
 50 51  1  0  0  0
 50126  1  0  0  0
 50127  1  0  0  0
 51 52  1  0  0  0
 51128  1  0  0  0
 51129  1  0  0  0
 52130  1  0  0  0
 52131  1  0  0  0
 53 54  1  0  0  0
 54 55  2  0  0  0
 54132  1  0  0  0
 55 57  1  0  0  0
 55133  1  0  0  0
 56 69  2  0  0  0
 57 58  2  0  0  0
 57134  1  0  0  0
 58135  1  0  0  0
 59 60  1  0  0  0
 59 61  1  0  0  0
 59 62  1  0  0  0
 60136  1  0  0  0
 60137  1  0  0  0
 60138  1  0  0  0
 61139  1  0  0  0
 61140  1  0  0  0
 61141  1  0  0  0
 62142  1  0  0  0
 62143  1  0  0  0
 62144  1  0  0  0
 63 65  1  0  0  0
 63145  1  0  0  0
 63146  1  0  0  0
 63147  1  0  0  0
 64148  1  0  0  0
 65149  1  0  0  0
 68 86  1  0  0  0
 71 73  2  0  0  0
 71 76  1  0  0  0
 71150  1  0  0  0
 72 74  1  0  0  0
 72 76  2  0  0  0
 72151  1  0  0  0
 73 75  1  0  0  0
 73 82  1  0  0  0
 74 75  2  0  0  0
 74 83  1  0  0  0
 75 84  1  0  0  0
 76 90  1  0  0  0
 77 79  1  0  0  0
 77 81  1  0  0  0
 77152  1  0  0  0
 77153  1  0  0  0
 78 80  1  0  0  0
 78 81  1  0  0  0
 78154  1  0  0  0
 78155  1  0  0  0
 79 88  1  0  0  0
 79156  1  0  0  0
 79157  1  0  0  0
 80 88  1  0  0  0
 80158  1  0  0  0
 80159  1  0  0  0
 81 85  1  0  0  0
 81160  1  0  0  0
 82161  1  0  0  0
 82162  1  0  0  0
 82163  1  0  0  0
 83164  1  0  0  0
 83165  1  0  0  0
 83166  1  0  0  0
 84 89  1  0  0  0
 84167  1  0  0  0
 84168  1  0  0  0
 85 89  1  0  0  0
 85169  1  0  0  0
 85170  1  0  0  0
 86 87  1  0  0  0
 86171  1  0  0  0
 86172  1  0  0  0
 87 90  1  0  0  0
 87173  1  0  0  0
 87174  1  0  0  0
 89175  1  0  0  0
 89176  1  0  0  0
M  CHG  1  89   1
M  ISO  4   1 100  68 101  86 101  88 100
M  END
> <chiral flag>
0

> <version>
0

> <s_m_source_file>
/data/baiqing/PycharmProjects/Reinvent-master-3.2/result/LINK_invent/BTK/process_docking_weight1_custom_sum_contain_oxygen_bond_distance_aromatic_linkinvent_7_9_3/rearranged_h_0144.sdf

> <i_m_source_file_index>
14

> <r_mmod_Potential_Energy-OPLS-2005>
62.7123870849609

> <r_mmod_Stretch_Energy-OPLS-2005>
34.4744262695312

> <r_mmod_Bend_Energy-OPLS-2005>
100.848197937012

> <r_mmod_Torsional_Energy-OPLS-2005>
389.400665283203

> <r_mmod_Improper_Torsional_Energy-OPLS-2005>
24.6159324645996

> <r_mmod_Van_der_Waal_Energy-OPLS-2005>
151.994476318359

> <r_mmod_Electrostatic_Energy-OPLS-2005>
-205.363464355469

> <r_mmod_Solvation_Energy-OPLS-2005>
-452.425598144531

> <b_mmod_Minimization_Converged-OPLS-2005>
0

> <r_mmod_RMS_Derivative-OPLS-2005>
3.92944931983948

$$$$
14
                    3D
 Structure written by MMmdl.
193203  0  0  1  0            999 V2000
  -30.8544  -14.2392   20.7845 C   0  0  0  0  0  0
  -30.4078  -12.2861   19.3575 C   0  0  0  0  0  0
  -29.4676  -12.5462   18.1728 C   0  0  0  0  0  0
  -28.0007  -12.3850   18.6039 C   0  0  0  0  0  0
  -27.6670  -13.2056   19.8758 C   0  0  2  0  0  0
  -28.7068  -12.9524   20.9895 C   0  0  0  0  0  0
  -25.2610  -13.8166   20.5671 C   0  0  0  0  0  0
  -24.1855  -13.0446   20.9170 C   0  0  0  0  0  0
  -24.6400  -11.6912   20.8722 C   0  0  0  0  0  0
  -23.9061  -10.4299   21.0395 C   0  0  0  0  0  0
  -24.3609   -9.4213   21.9176 C   0  0  0  0  0  0
  -23.6285   -8.2247   22.0752 C   0  0  0  0  0  0
  -22.4267   -8.0282   21.3543 C   0  0  0  0  0  0
  -21.9901   -9.0255   20.4645 C   0  0  0  0  0  0
  -22.7230  -10.2135   20.3048 C   0  0  0  0  0  0
  -21.6853   -6.0731   22.5277 C   0  0  0  0  0  0
  -21.4015   -6.5639   23.8209 C   0  0  0  0  0  0
  -21.3661   -5.6791   24.9175 C   0  0  0  0  0  0
  -21.6045   -4.3052   24.7224 C   0  0  0  0  0  0
  -21.8819   -3.8145   23.4345 C   0  0  0  0  0  0
  -21.9194   -4.6961   22.3403 C   0  0  0  0  0  0
  -22.7874  -13.5244   21.1836 C   0  0  0  0  0  0
  -22.1660   -4.2144   21.0978 F   0  0  0  0  0  0
  -21.5631   -3.4539   25.7738 F   0  0  0  0  0  0
  -30.0603  -13.1968   20.4532 N   0  0  0  0  0  0
  -26.3055  -12.9339   20.3375 N   0  0  0  0  0  0
  -25.9329  -11.6497   20.5751 N   0  0  0  0  0  0
  -22.0515  -12.8233   22.0391 N   0  0  0  0  0  0
  -25.4336  -15.1877   20.4056 N   0  0  0  0  0  0
  -31.7445  -14.6898   20.0556 O   0  0  0  0  0  0
  -21.6640   -6.8871   21.4236 O   0  0  0  0  0  0
  -22.3556  -14.5551   20.6693 O   0  0  0  0  0  0
  -24.6101  -31.8705   23.2117 C   0  0  0  0  0  0
  -25.9008  -32.4833   23.8409 C   0  0  1  0  0  0
  -27.2411  -27.4769   20.0816 C   0  0  0  0  0  0
  -25.5881  -33.8635   24.2344 N   0  0  0  0  0  0
  -23.3954  -30.4952   21.5500 C   0  0  2  0  0  0
  -24.8422  -28.9580   20.1221 C   0  0  0  0  0  0
  -22.7373  -29.4685   22.4991 C   0  0  0  0  0  0
  -18.0259  -28.1369   22.8502 C   0  0  0  0  0  0
  -24.1480  -36.7318   23.2642 C   0  0  0  0  0  0
  -25.9222  -30.8456   21.3613 C   0  0  0  0  0  0
  -25.9992  -29.4819   20.7114 C   0  0  0  0  0  0
  -27.2022  -28.7489   20.6874 C   0  0  0  0  0  0
  -26.0675  -26.9520   19.4964 C   0  0  0  0  0  0
  -24.8681  -27.6889   19.5179 C   0  0  0  0  0  0
  -23.6035  -29.8226   20.1666 C   0  0  0  0  0  0
  -25.4110  -36.3127   24.0341 C   0  0  1  0  0  0
  -20.5848  -28.3651   23.1324 C   0  0  2  0  0  0
  -20.6752  -26.9395   22.5408 C   0  0  0  0  0  0
  -19.5735  -26.6386   21.5200 C   0  0  0  0  0  0
  -18.1912  -26.7922   22.1622 C   0  0  0  0  0  0
  -19.1508  -28.8829   23.2912 C   0  0  0  0  0  0
  -18.9450  -30.1438   23.8927 C   0  0  0  0  0  0
  -17.6454  -30.6590   24.0577 C   0  0  0  0  0  0
  -25.9029  -34.9485   23.5141 C   0  0  0  0  0  0
  -16.5339  -29.9095   23.6334 C   0  0  0  0  0  0
  -16.7250  -28.6503   23.0362 C   0  0  0  0  0  0
  -26.4456  -31.6610   25.0724 C   0  0  0  0  0  0
  -25.3743  -31.3714   26.1489 C   0  0  0  0  0  0
  -27.0284  -30.3056   24.6077 C   0  0  0  0  0  0
  -27.6033  -32.4339   25.7487 C   0  0  0  0  0  0
  -27.5588  -37.1821   24.8471 C   0  0  0  0  0  0
  -21.4108  -29.3035   22.3741 N   0  0  0  0  0  0
  -26.4300  -37.3809   23.9410 N   0  0  0  0  0  0
  -24.6605  -31.0844   22.0994 N   0  0  0  0  0  0
  -23.4168  -28.8225   23.3011 O   0  0  0  0  0  0
  -28.4358  -26.8021   20.0317 O   0  0  0  0  0  0
  -26.5588  -34.8932   22.4698 O   0  0  0  0  0  0
  -23.5303  -32.1421   23.7552 O   0  0  0  0  0  0
  -28.1353  -19.9379   23.1774 C   0  0  0  0  0  0
  -29.4209  -18.3827   25.1027 C   0  0  0  0  0  0
  -28.4390  -20.5195   24.4309 C   0  0  0  0  0  0
  -28.4917  -18.6112   22.8582 C   0  0  0  0  0  0
  -29.0694  -19.7121   25.4125 C   0  0  0  0  0  0
  -29.1627  -17.8305   23.8300 C   0  0  0  0  0  0
  -27.8457  -18.6065   18.9443 C   0  0  0  0  0  0
  -27.3812  -19.8343   19.6806 C   0  0  0  0  0  0
  -29.4038  -22.8635   24.6503 C   0  0  0  0  0  0
  -26.9911  -22.6088   23.8430 C   0  0  0  0  0  0
  -29.1551  -24.2694   24.0873 C   0  0  0  0  0  0
  -27.4667  -23.2771   22.5305 C   0  0  0  0  0  0
  -28.1237  -21.9983   24.7060 C   0  0  1  0  0  0
  -28.4619  -18.9577   20.2839 C   0  0  0  0  0  0
  -29.3936  -20.2326   26.8058 C   0  0  0  0  0  0
  -30.9443  -18.3545   20.1698 C   0  0  0  0  0  0
  -32.8481  -14.6016   23.3982 C   0  0  0  0  0  0
  -28.1108  -18.0613   21.4777 C   0  0  0  0  0  0
  -29.9010  -19.4693   20.3018 C   0  0  0  0  0  0
  -30.9015  -16.1294   23.9715 C   0  0  0  0  0  0
  -28.4508  -25.5242   22.0805 C   0  0  0  0  0  0
  -28.4403  -25.4731   20.5407 C   0  0  0  0  0  0
  -31.6700  -15.4164   22.8436 C   0  0  2  0  0  0
  -29.5611  -16.5199   23.5433 N   0  0  0  0  0  0
  -30.7582  -14.5688   22.0768 N   0  0  0  0  0  0
  -28.6400  -24.1876   22.6971 N   0  3  1  0  0  0
  -31.4483  -12.3945   19.0445 H   0  0  0  0  0  0
  -30.3084  -11.2558   19.7016 H   0  0  0  0  0  0
  -29.6941  -11.8615   17.3545 H   0  0  0  0  0  0
  -29.6305  -13.5538   17.7867 H   0  0  0  0  0  0
  -27.8188  -11.3249   18.7862 H   0  0  0  0  0  0
  -27.3357  -12.6722   17.7889 H   0  0  0  0  0  0
  -27.7250  -14.2597   19.6029 H   0  0  0  0  0  0
  -28.6466  -11.9220   21.3428 H   0  0  0  0  0  0
  -28.4643  -13.5800   21.8479 H   0  0  0  0  0  0
  -25.2753   -9.5694   22.4747 H   0  0  0  0  0  0
  -23.9999   -7.4643   22.7470 H   0  0  0  0  0  0
  -21.0834   -8.8766   19.8949 H   0  0  0  0  0  0
  -22.3683  -10.9668   19.6155 H   0  0  0  0  0  0
  -21.2004   -7.6145   23.9708 H   0  0  0  0  0  0
  -21.1485   -6.0524   25.9074 H   0  0  0  0  0  0
  -22.0596   -2.7606   23.2849 H   0  0  0  0  0  0
  -22.4129  -11.9890   22.4774 H   0  0  0  0  0  0
  -21.1130  -13.1256   22.2591 H   0  0  0  0  0  0
  -24.6691  -15.8445   20.5105 H   0  0  0  0  0  0
  -26.2896  -15.6192   20.0833 H   0  0  0  0  0  0
  -26.7082  -32.5548   23.1187 H   0  0  0  0  0  0
  -25.0062  -33.9814   25.0511 H   0  0  0  0  0  0
  -22.6813  -31.3099   21.4106 H   0  0  0  0  0  0
  -23.3736  -35.9656   23.3315 H   0  0  0  0  0  0
  -24.3583  -36.8908   22.2054 H   0  0  0  0  0  0
  -23.7223  -37.6528   23.6640 H   0  0  0  0  0  0
  -26.0336  -31.6109   20.5914 H   0  0  0  0  0  0
  -26.8114  -30.8957   21.9792 H   0  0  0  0  0  0
  -28.1006  -29.1574   21.1301 H   0  0  0  0  0  0
  -26.0760  -25.9940   18.9966 H   0  0  0  0  0  0
  -23.9790  -27.2812   19.0568 H   0  0  0  0  0  0
  -23.7140  -30.5942   19.4032 H   0  0  0  0  0  0
  -22.7289  -29.2374   19.8744 H   0  0  0  0  0  0
  -25.1284  -36.2014   25.0834 H   0  0  0  0  0  0
  -20.9950  -28.3205   24.1437 H   0  0  0  0  0  0
  -20.5645  -26.2256   23.3580 H   0  0  0  0  0  0
  -21.6634  -26.7436   22.1220 H   0  0  0  0  0  0
  -19.6879  -25.6296   21.1219 H   0  0  0  0  0  0
  -19.6684  -27.3215   20.6744 H   0  0  0  0  0  0
  -17.4187  -26.6678   21.4013 H   0  0  0  0  0  0
  -18.0333  -26.0036   22.9001 H   0  0  0  0  0  0
  -19.7924  -30.7247   24.2310 H   0  0  0  0  0  0
  -17.5011  -31.6274   24.5165 H   0  0  0  0  0  0
  -15.5350  -30.3017   23.7629 H   0  0  0  0  0  0
  -15.8647  -28.0832   22.7075 H   0  0  0  0  0  0
  -24.5896  -30.7082   25.7847 H   0  0  0  0  0  0
  -24.8967  -32.2874   26.4980 H   0  0  0  0  0  0
  -25.8108  -30.8864   27.0225 H   0  0  0  0  0  0
  -26.2824  -29.6820   24.1140 H   0  0  0  0  0  0
  -27.4069  -29.7295   25.4528 H   0  0  0  0  0  0
  -27.8645  -30.4388   23.9207 H   0  0  0  0  0  0
  -27.2650  -33.3628   26.2107 H   0  0  0  0  0  0
  -28.3825  -32.6928   25.0304 H   0  0  0  0  0  0
  -28.0718  -31.8438   26.5378 H   0  0  0  0  0  0
  -28.2624  -38.0102   24.7525 H   0  0  0  0  0  0
  -28.1061  -36.2640   24.6292 H   0  0  0  0  0  0
  -27.2308  -37.1476   25.8872 H   0  0  0  0  0  0
  -20.9242  -29.8780   21.7010 H   0  0  0  0  0  0
  -26.0174  -38.2883   24.1405 H   0  0  0  0  0  0
  -27.6248  -20.5026   22.4173 H   0  0  0  0  0  0
  -29.8998  -17.7787   25.8606 H   0  0  0  0  0  0
  -28.4512  -18.7520   18.0516 H   0  0  0  0  0  0
  -27.1630  -17.7595   18.9039 H   0  0  0  0  0  0
  -26.3889  -19.8036   20.1269 H   0  0  0  0  0  0
  -27.6736  -20.8011   19.2753 H   0  0  0  0  0  0
  -29.8517  -22.9417   25.6406 H   0  0  0  0  0  0
  -30.1551  -22.3744   24.0271 H   0  0  0  0  0  0
  -26.2004  -21.8822   23.6548 H   0  0  0  0  0  0
  -26.5057  -23.3855   24.4358 H   0  0  0  0  0  0
  -30.0900  -24.8329   24.1024 H   0  0  0  0  0  0
  -28.4536  -24.8179   24.7184 H   0  0  0  0  0  0
  -26.6187  -23.8148   22.1047 H   0  0  0  0  0  0
  -27.7371  -22.5331   21.7843 H   0  0  0  0  0  0
  -27.7368  -22.0480   25.7232 H   0  0  0  0  0  0
  -29.7531  -19.4336   27.4545 H   0  0  0  0  0  0
  -28.5116  -20.6562   27.2858 H   0  0  0  0  0  0
  -30.1733  -20.9921   26.7672 H   0  0  0  0  0  0
  -31.9539  -18.7660   20.1486 H   0  0  0  0  0  0
  -30.8010  -17.7766   19.2566 H   0  0  0  0  0  0
  -30.8884  -17.6687   21.0125 H   0  0  0  0  0  0
  -33.5303  -15.2380   23.9632 H   0  0  0  0  0  0
  -33.4249  -14.1383   22.5964 H   0  0  0  0  0  0
  -32.5081  -13.8090   24.0663 H   0  0  0  0  0  0
  -27.0353  -17.8802   21.4846 H   0  0  0  0  0  0
  -28.5601  -17.0867   21.2933 H   0  0  0  0  0  0
  -30.0819  -20.0460   21.2086 H   0  0  0  0  0  0
  -30.0352  -20.1707   19.4772 H   0  0  0  0  0  0
  -31.4884  -16.9843   24.3133 H   0  0  0  0  0  0
  -30.7962  -15.4640   24.8299 H   0  0  0  0  0  0
  -27.5397  -25.9844   22.4620 H   0  0  0  0  0  0
  -29.2706  -26.1774   22.3821 H   0  0  0  0  0  0
  -27.6119  -24.8775   20.1603 H   0  0  0  0  0  0
  -29.3492  -24.9902   20.1807 H   0  0  0  0  0  0
  -32.0786  -16.1800   22.1797 H   0  0  0  0  0  0
  -29.3543  -16.2200   22.5986 H   0  0  0  0  0  0
  -30.0397  -14.0970   22.6066 H   0  0  0  0  0  0
  -29.3921  -23.7531   22.1783 H   0  0  0  0  0  0
  1 25  1  0  0  0
  1 30  2  0  0  0
  1 95  1  0  0  0
  2  3  1  0  0  0
  2 25  1  0  0  0
  2 97  1  0  0  0
  2 98  1  0  0  0
  3  4  1  0  0  0
  3 99  1  0  0  0
  3100  1  0  0  0
  4  5  1  0  0  0
  4101  1  0  0  0
  4102  1  0  0  0
  5  6  1  0  0  0
  5 26  1  0  0  0
  5103  1  0  0  0
  6 25  1  0  0  0
  6104  1  0  0  0
  6105  1  0  0  0
  7  8  2  0  0  0
  7 26  1  0  0  0
  7 29  1  0  0  0
  8  9  1  0  0  0
  8 22  1  0  0  0
  9 10  1  0  0  0
  9 27  2  0  0  0
 10 11  2  0  0  0
 10 15  1  0  0  0
 11 12  1  0  0  0
 11106  1  0  0  0
 12 13  2  0  0  0
 12107  1  0  0  0
 13 14  1  0  0  0
 13 31  1  0  0  0
 14 15  2  0  0  0
 14108  1  0  0  0
 15109  1  0  0  0
 16 17  2  0  0  0
 16 21  1  0  0  0
 16 31  1  0  0  0
 17 18  1  0  0  0
 17110  1  0  0  0
 18 19  2  0  0  0
 18111  1  0  0  0
 19 20  1  0  0  0
 19 24  1  0  0  0
 20 21  2  0  0  0
 20112  1  0  0  0
 21 23  1  0  0  0
 22 28  1  0  0  0
 22 32  2  0  0  0
 26 27  1  0  0  0
 28113  1  0  0  0
 28114  1  0  0  0
 29115  1  0  0  0
 29116  1  0  0  0
 33 34  1  0  0  0
 33 66  1  0  0  0
 33 70  2  0  0  0
 34 36  1  0  0  0
 34 59  1  0  0  0
 34117  1  0  0  0
 35 44  2  0  0  0
 35 45  1  0  0  0
 35 68  1  0  0  0
 36 56  1  0  0  0
 36118  1  0  0  0
 37 39  1  0  0  0
 37 47  1  0  0  0
 37 66  1  0  0  0
 37119  1  0  0  0
 38 43  2  0  0  0
 38 46  1  0  0  0
 38 47  1  0  0  0
 39 64  1  0  0  0
 39 67  2  0  0  0
 40 52  1  0  0  0
 40 53  2  0  0  0
 40 58  1  0  0  0
 41120  1  0  0  0
 41121  1  0  0  0
 41122  1  0  0  0
 41 48  1  0  0  0
 42 43  1  0  0  0
 42 66  1  0  0  0
 42123  1  0  0  0
 42124  1  0  0  0
 43 44  1  0  0  0
 44125  1  0  0  0
 45 46  2  0  0  0
 45126  1  0  0  0
 46127  1  0  0  0
 47128  1  0  0  0
 47129  1  0  0  0
 48 56  1  0  0  0
 48 65  1  0  0  0
 48130  1  0  0  0
 49 50  1  0  0  0
 49 53  1  0  0  0
 49 64  1  0  0  0
 49131  1  0  0  0
 50 51  1  0  0  0
 50132  1  0  0  0
 50133  1  0  0  0
 51 52  1  0  0  0
 51134  1  0  0  0
 51135  1  0  0  0
 52136  1  0  0  0
 52137  1  0  0  0
 53 54  1  0  0  0
 54 55  2  0  0  0
 54138  1  0  0  0
 55 57  1  0  0  0
 55139  1  0  0  0
 56 69  2  0  0  0
 57 58  2  0  0  0
 57140  1  0  0  0
 58141  1  0  0  0
 59 60  1  0  0  0
 59 61  1  0  0  0
 59 62  1  0  0  0
 60142  1  0  0  0
 60143  1  0  0  0
 60144  1  0  0  0
 61145  1  0  0  0
 61146  1  0  0  0
 61147  1  0  0  0
 62148  1  0  0  0
 62149  1  0  0  0
 62150  1  0  0  0
 63 65  1  0  0  0
 63151  1  0  0  0
 63152  1  0  0  0
 63153  1  0  0  0
 64154  1  0  0  0
 65155  1  0  0  0
 68 92  1  0  0  0
 71 73  2  0  0  0
 71 74  1  0  0  0
 71156  1  0  0  0
 72 75  2  0  0  0
 72 76  1  0  0  0
 72157  1  0  0  0
 73 75  1  0  0  0
 73 83  1  0  0  0
 74 76  2  0  0  0
 74 88  1  0  0  0
 75 85  1  0  0  0
 76 94  1  0  0  0
 77 78  1  0  0  0
 77 84  1  0  0  0
 77158  1  0  0  0
 77159  1  0  0  0
 78 84  1  0  0  0
 78160  1  0  0  0
 78161  1  0  0  0
 79 81  1  0  0  0
 79 83  1  0  0  0
 79162  1  0  0  0
 79163  1  0  0  0
 80 82  1  0  0  0
 80 83  1  0  0  0
 80164  1  0  0  0
 80165  1  0  0  0
 81 96  1  0  0  0
 81166  1  0  0  0
 81167  1  0  0  0
 82 96  1  0  0  0
 82168  1  0  0  0
 82169  1  0  0  0
 83170  1  0  0  0
 84 88  1  0  0  0
 84 89  1  0  0  0
 85171  1  0  0  0
 85172  1  0  0  0
 85173  1  0  0  0
 86 89  1  0  0  0
 86174  1  0  0  0
 86175  1  0  0  0
 86176  1  0  0  0
 87177  1  0  0  0
 87178  1  0  0  0
 87179  1  0  0  0
 87 93  1  0  0  0
 88180  1  0  0  0
 88181  1  0  0  0
 89182  1  0  0  0
 89183  1  0  0  0
 90 93  1  0  0  0
 90 94  1  0  0  0
 90184  1  0  0  0
 90185  1  0  0  0
 91 92  1  0  0  0
 91186  1  0  0  0
 91187  1  0  0  0
 91 96  1  0  0  0
 92188  1  0  0  0
 92189  1  0  0  0
 93 95  1  0  0  0
 93190  1  0  0  0
 94191  1  0  0  0
 95192  1  0  0  0
 96193  1  0  0  0
M  CHG  1  96   1
M  ISO  4   1 100  68 101  92 101  95 100
M  END
> <chiral flag>
0

> <version>
0

> <s_m_source_file>
/data/baiqing/PycharmProjects/Reinvent-master-3.2/result/LINK_invent/BTK/process_docking_weight1_custom_sum_contain_oxygen_bond_distance_aromatic_linkinvent_7_9_3/rearranged_h_0144.sdf

> <i_m_source_file_index>
15

> <r_mmod_Potential_Energy-OPLS-2005>
-123.501235961914

> <r_mmod_Stretch_Energy-OPLS-2005>
36.943244934082

> <r_mmod_Bend_Energy-OPLS-2005>
105.63655090332

> <r_mmod_Torsional_Energy-OPLS-2005>
345.722686767578

> <r_mmod_Improper_Torsional_Energy-OPLS-2005>
9.72139072418213

> <r_mmod_Van_der_Waal_Energy-OPLS-2005>
158.001953125

> <r_mmod_Electrostatic_Energy-OPLS-2005>
-382.518981933594

> <r_mmod_Solvation_Energy-OPLS-2005>
-407.697143554688

> <b_mmod_Minimization_Converged-OPLS-2005>
0

> <r_mmod_RMS_Derivative-OPLS-2005>
1.82610404491425

$$$$
15
                    3D
 Structure written by MMmdl.
177186  0  0  1  0            999 V2000
  -30.7689  -14.3599   20.6675 C   0  0  0  0  0  0
  -30.4159  -12.2789   19.3992 C   0  0  0  0  0  0
  -29.4867  -12.5303   18.1975 C   0  0  0  0  0  0
  -28.0125  -12.3790   18.6155 C   0  0  0  0  0  0
  -27.6702  -13.2030   19.8851 C   0  0  2  0  0  0
  -28.7064  -12.9424   21.0007 C   0  0  0  0  0  0
  -25.2634  -13.8180   20.5686 C   0  0  0  0  0  0
  -24.1862  -13.0465   20.9161 C   0  0  0  0  0  0
  -24.6405  -11.6921   20.8732 C   0  0  0  0  0  0
  -23.9070  -10.4306   21.0405 C   0  0  0  0  0  0
  -24.3620   -9.4224   21.9192 C   0  0  0  0  0  0
  -23.6284   -8.2263   22.0770 C   0  0  0  0  0  0
  -22.4269   -8.0293   21.3557 C   0  0  0  0  0  0
  -21.9920   -9.0270   20.4646 C   0  0  0  0  0  0
  -22.7260  -10.2141   20.3043 C   0  0  0  0  0  0
  -21.6853   -6.0745   22.5285 C   0  0  0  0  0  0
  -21.4006   -6.5646   23.8222 C   0  0  0  0  0  0
  -21.3646   -5.6793   24.9179 C   0  0  0  0  0  0
  -21.6031   -4.3061   24.7225 C   0  0  0  0  0  0
  -21.8821   -3.8154   23.4348 C   0  0  0  0  0  0
  -21.9203   -4.6971   22.3404 C   0  0  0  0  0  0
  -22.7877  -13.5265   21.1819 C   0  0  0  0  0  0
  -22.1675   -4.2160   21.0985 F   0  0  0  0  0  0
  -21.5608   -3.4534   25.7730 F   0  0  0  0  0  0
  -30.0510  -13.2253   20.4629 N   0  0  0  0  0  0
  -26.3073  -12.9334   20.3406 N   0  0  0  0  0  0
  -25.9335  -11.6501   20.5773 N   0  0  0  0  0  0
  -22.0493  -12.8239   22.0340 N   0  0  0  0  0  0
  -25.4399  -15.1880   20.4095 N   0  0  0  0  0  0
  -31.7831  -14.6429   20.0187 O   0  0  0  0  0  0
  -21.6647   -6.8884   21.4249 O   0  0  0  0  0  0
  -22.3584  -14.5602   20.6709 O   0  0  0  0  0  0
  -24.6079  -31.8741   23.2124 C   0  0  0  0  0  0
  -25.9002  -32.4846   23.8416 C   0  0  1  0  0  0
  -27.2565  -27.4928   20.0864 C   0  0  0  0  0  0
  -25.5895  -33.8648   24.2351 N   0  0  0  0  0  0
  -23.3914  -30.4952   21.5521 C   0  0  2  0  0  0
  -24.8409  -28.9607   20.1206 C   0  0  0  0  0  0
  -22.7363  -29.4694   22.5037 C   0  0  0  0  0  0
  -18.0246  -28.1373   22.8505 C   0  0  0  0  0  0
  -24.1464  -36.7310   23.2634 C   0  0  0  0  0  0
  -25.9102  -30.8576   21.3521 C   0  0  0  0  0  0
  -25.9935  -29.4915   20.7100 C   0  0  0  0  0  0
  -27.2007  -28.7685   20.6968 C   0  0  0  0  0  0
  -26.0835  -26.9630   19.5089 C   0  0  0  0  0  0
  -24.8773  -27.6899   19.5190 C   0  0  0  0  0  0
  -23.5970  -29.8178   20.1690 C   0  0  0  0  0  0
  -25.4103  -36.3143   24.0338 C   0  0  1  0  0  0
  -20.5836  -28.3650   23.1355 C   0  0  2  0  0  0
  -20.6738  -26.9406   22.5429 C   0  0  0  0  0  0
  -19.5722  -26.6383   21.5222 C   0  0  0  0  0  0
  -18.1894  -26.7930   22.1616 C   0  0  0  0  0  0
  -19.1498  -28.8825   23.2924 C   0  0  0  0  0  0
  -18.9440  -30.1427   23.8930 C   0  0  0  0  0  0
  -17.6446  -30.6592   24.0552 C   0  0  0  0  0  0
  -25.9041  -34.9507   23.5146 C   0  0  0  0  0  0
  -16.5333  -29.9097   23.6326 C   0  0  0  0  0  0
  -16.7243  -28.6501   23.0364 C   0  0  0  0  0  0
  -26.4468  -31.6587   25.0706 C   0  0  0  0  0  0
  -25.3742  -31.3588   26.1435 C   0  0  0  0  0  0
  -27.0322  -30.3067   24.5989 C   0  0  0  0  0  0
  -27.6009  -32.4309   25.7545 C   0  0  0  0  0  0
  -27.5575  -37.1831   24.8471 C   0  0  0  0  0  0
  -21.4096  -29.3035   22.3774 N   0  0  0  0  0  0
  -26.4289  -37.3834   23.9409 N   0  0  0  0  0  0
  -24.6548  -31.0884   22.0991 N   0  0  0  0  0  0
  -23.4160  -28.8247   23.3065 O   0  0  0  0  0  0
  -28.3930  -26.7224   20.0053 O   0  0  0  0  0  0
  -26.5606  -34.8946   22.4710 O   0  0  0  0  0  0
  -23.5291  -32.1480   23.7554 O   0  0  0  0  0  0
  -29.3374  -23.1116   21.7534 C   0  0  0  0  0  0
  -31.5675  -23.3571   20.8287 C   0  0  0  0  0  0
  -29.4085  -21.7135   21.5988 C   0  0  0  0  0  0
  -31.6725  -21.9570   20.6815 C   0  0  0  0  0  0
  -30.5864  -21.1189   21.0672 C   0  0  0  0  0  0
  -30.4031  -23.9363   21.3663 C   0  0  0  0  0  0
  -31.2689  -16.5634   23.3590 C   0  0  0  0  0  0
  -30.8921  -15.1314   22.9540 C   0  0  0  0  0  0
  -30.1225  -16.6131   21.2807 C   0  0  0  0  0  0
  -31.2148  -17.3532   22.0551 C   0  0  1  0  0  0
  -28.1958  -20.8942   22.0168 C   0  0  0  0  0  0
  -35.6568  -19.4356   21.7075 C   0  0  0  0  0  0
  -30.6742  -19.5981   20.9124 C   0  0  0  0  0  0
  -32.9704  -21.4027   20.1080 C   0  0  0  0  0  0
  -30.9982  -18.8675   22.2314 C   0  0  0  0  0  0
  -34.9386  -20.1865   20.5851 C   0  0  0  0  0  0
  -29.6260  -27.2656   20.4710 C   0  0  0  0  0  0
  -30.6529  -26.1327   20.4908 C   0  0  0  0  0  0
  -30.2936  -15.1961   21.6122 N   0  0  0  0  0  0
  -30.2687  -25.2848   21.5662 O   0  0  0  0  0  0
  -33.7014  -20.6718   21.0824 O   0  0  0  0  0  0
  -31.4621  -12.3653   19.0976 H   0  0  0  0  0  0
  -30.2995  -11.2568   19.7608 H   0  0  0  0  0  0
  -29.7190  -11.8373   17.3873 H   0  0  0  0  0  0
  -29.6596  -13.5336   17.8059 H   0  0  0  0  0  0
  -27.8251  -11.3200   18.7957 H   0  0  0  0  0  0
  -27.3577  -12.6659   17.7930 H   0  0  0  0  0  0
  -27.7316  -14.2572   19.6141 H   0  0  0  0  0  0
  -28.6614  -11.9006   21.3223 H   0  0  0  0  0  0
  -28.4623  -13.5284   21.8876 H   0  0  0  0  0  0
  -25.2772   -9.5690   22.4760 H   0  0  0  0  0  0
  -23.9986   -7.4657   22.7491 H   0  0  0  0  0  0
  -21.0865   -8.8799   19.8926 H   0  0  0  0  0  0
  -22.3766  -10.9673   19.6115 H   0  0  0  0  0  0
  -21.1990   -7.6158   23.9727 H   0  0  0  0  0  0
  -21.1441   -6.0522   25.9081 H   0  0  0  0  0  0
  -22.0594   -2.7614   23.2854 H   0  0  0  0  0  0
  -22.4068  -11.9865   22.4701 H   0  0  0  0  0  0
  -21.1091  -13.1244   22.2498 H   0  0  0  0  0  0
  -24.6818  -15.8512   20.5265 H   0  0  0  0  0  0
  -26.3054  -15.6222   20.1135 H   0  0  0  0  0  0
  -26.7078  -32.5588   23.1194 H   0  0  0  0  0  0
  -25.0072  -33.9836   25.0507 H   0  0  0  0  0  0
  -22.6776  -31.3102   21.4125 H   0  0  0  0  0  0
  -23.3767  -35.9603   23.3314 H   0  0  0  0  0  0
  -24.3539  -36.8922   22.2044 H   0  0  0  0  0  0
  -23.7168  -37.6494   23.6645 H   0  0  0  0  0  0
  -26.0023  -31.6174   20.5739 H   0  0  0  0  0  0
  -26.8038  -30.9260   21.9595 H   0  0  0  0  0  0
  -28.0726  -29.2159   21.1507 H   0  0  0  0  0  0
  -26.1114  -25.9907   19.0377 H   0  0  0  0  0  0
  -23.9911  -27.2731   19.0609 H   0  0  0  0  0  0
  -23.6934  -30.5857   19.4014 H   0  0  0  0  0  0
  -22.7245  -29.2274   19.8839 H   0  0  0  0  0  0
  -25.1277  -36.2020   25.0833 H   0  0  0  0  0  0
  -20.9921  -28.3193   24.1473 H   0  0  0  0  0  0
  -20.5649  -26.2263   23.3601 H   0  0  0  0  0  0
  -21.6609  -26.7468   22.1196 H   0  0  0  0  0  0
  -19.6872  -25.6294   21.1242 H   0  0  0  0  0  0
  -19.6662  -27.3193   20.6751 H   0  0  0  0  0  0
  -17.4180  -26.6725   21.3994 H   0  0  0  0  0  0
  -18.0255  -26.0045   22.8975 H   0  0  0  0  0  0
  -19.7923  -30.7217   24.2324 H   0  0  0  0  0  0
  -17.5020  -31.6296   24.5124 H   0  0  0  0  0  0
  -15.5333  -30.3017   23.7645 H   0  0  0  0  0  0
  -15.8628  -28.0823   22.7092 H   0  0  0  0  0  0
  -24.5970  -30.6900   25.7722 H   0  0  0  0  0  0
  -24.8864  -32.2689   26.4938 H   0  0  0  0  0  0
  -25.8112  -30.8720   27.0160 H   0  0  0  0  0  0
  -26.2859  -29.6842   24.1037 H   0  0  0  0  0  0
  -27.4162  -29.7255   25.4380 H   0  0  0  0  0  0
  -27.8650  -30.4440   23.9080 H   0  0  0  0  0  0
  -27.2590  -33.3601   26.2120 H   0  0  0  0  0  0
  -28.3883  -32.6886   25.0446 H   0  0  0  0  0  0
  -28.0613  -31.8431   26.5494 H   0  0  0  0  0  0
  -28.2587  -38.0139   24.7577 H   0  0  0  0  0  0
  -28.1092  -36.2684   24.6258 H   0  0  0  0  0  0
  -27.2288  -37.1401   25.8870 H   0  0  0  0  0  0
  -20.9242  -29.8779   21.7019 H   0  0  0  0  0  0
  -26.0186  -38.2913   24.1442 H   0  0  0  0  0  0
  -28.4469  -23.5708   22.1606 H   0  0  0  0  0  0
  -32.3992  -23.9891   20.5489 H   0  0  0  0  0  0
  -32.2478  -16.6205   23.8370 H   0  0  0  0  0  0
  -30.5325  -16.9435   24.0705 H   0  0  0  0  0  0
  -30.1804  -14.6957   23.6568 H   0  0  0  0  0  0
  -31.7789  -14.4944   22.9698 H   0  0  0  0  0  0
  -30.1825  -16.8098   20.2064 H   0  0  0  0  0  0
  -29.1292  -16.9256   21.6076 H   0  0  0  0  0  0
  -32.1565  -17.2034   21.5230 H   0  0  0  0  0  0
  -27.3563  -21.5390   22.2802 H   0  0  0  0  0  0
  -28.4137  -20.2849   22.8921 H   0  0  0  0  0  0
  -27.8536  -20.2440   21.2125 H   0  0  0  0  0  0
  -36.6214  -19.0597   21.3661 H   0  0  0  0  0  0
  -35.0694  -18.5836   22.0514 H   0  0  0  0  0  0
  -35.8377  -20.0886   22.5621 H   0  0  0  0  0  0
  -31.4139  -19.3238   20.1641 H   0  0  0  0  0  0
  -29.7345  -19.2347   20.4985 H   0  0  0  0  0  0
  -33.5860  -22.2267   19.7433 H   0  0  0  0  0  0
  -32.7559  -20.7836   19.2359 H   0  0  0  0  0  0
  -31.9050  -19.2952   22.6608 H   0  0  0  0  0  0
  -30.2134  -19.0415   22.9639 H   0  0  0  0  0  0
  -34.7710  -19.5213   19.7364 H   0  0  0  0  0  0
  -35.5582  -21.0159   20.2396 H   0  0  0  0  0  0
  -29.9509  -28.0649   19.8036 H   0  0  0  0  0  0
  -29.5417  -27.6738   21.4791 H   0  0  0  0  0  0
  -31.6527  -26.5266   20.6756 H   0  0  0  0  0  0
  -30.6649  -25.6241   19.5239 H   0  0  0  0  0  0
  1 25  1  0  0  0
  1 30  2  0  0  0
  1 89  1  0  0  0
  2  3  1  0  0  0
  2 25  1  0  0  0
  2 92  1  0  0  0
  2 93  1  0  0  0
  3  4  1  0  0  0
  3 94  1  0  0  0
  3 95  1  0  0  0
  4  5  1  0  0  0
  4 96  1  0  0  0
  4 97  1  0  0  0
  5  6  1  0  0  0
  5 26  1  0  0  0
  5 98  1  0  0  0
  6 25  1  0  0  0
  6 99  1  0  0  0
  6100  1  0  0  0
  7  8  2  0  0  0
  7 26  1  0  0  0
  7 29  1  0  0  0
  8  9  1  0  0  0
  8 22  1  0  0  0
  9 10  1  0  0  0
  9 27  2  0  0  0
 10 11  2  0  0  0
 10 15  1  0  0  0
 11 12  1  0  0  0
 11101  1  0  0  0
 12 13  2  0  0  0
 12102  1  0  0  0
 13 14  1  0  0  0
 13 31  1  0  0  0
 14 15  2  0  0  0
 14103  1  0  0  0
 15104  1  0  0  0
 16 17  2  0  0  0
 16 21  1  0  0  0
 16 31  1  0  0  0
 17 18  1  0  0  0
 17105  1  0  0  0
 18 19  2  0  0  0
 18106  1  0  0  0
 19 20  1  0  0  0
 19 24  1  0  0  0
 20 21  2  0  0  0
 20107  1  0  0  0
 21 23  1  0  0  0
 22 28  1  0  0  0
 22 32  2  0  0  0
 26 27  1  0  0  0
 28108  1  0  0  0
 28109  1  0  0  0
 29110  1  0  0  0
 29111  1  0  0  0
 33 34  1  0  0  0
 33 66  1  0  0  0
 33 70  2  0  0  0
 34 36  1  0  0  0
 34 59  1  0  0  0
 34112  1  0  0  0
 35 44  2  0  0  0
 35 45  1  0  0  0
 35 68  1  0  0  0
 36 56  1  0  0  0
 36113  1  0  0  0
 37 39  1  0  0  0
 37 47  1  0  0  0
 37 66  1  0  0  0
 37114  1  0  0  0
 38 43  2  0  0  0
 38 46  1  0  0  0
 38 47  1  0  0  0
 39 64  1  0  0  0
 39 67  2  0  0  0
 40 52  1  0  0  0
 40 53  2  0  0  0
 40 58  1  0  0  0
 41115  1  0  0  0
 41116  1  0  0  0
 41117  1  0  0  0
 41 48  1  0  0  0
 42 43  1  0  0  0
 42 66  1  0  0  0
 42118  1  0  0  0
 42119  1  0  0  0
 43 44  1  0  0  0
 44120  1  0  0  0
 45 46  2  0  0  0
 45121  1  0  0  0
 46122  1  0  0  0
 47123  1  0  0  0
 47124  1  0  0  0
 48 56  1  0  0  0
 48 65  1  0  0  0
 48125  1  0  0  0
 49 50  1  0  0  0
 49 53  1  0  0  0
 49 64  1  0  0  0
 49126  1  0  0  0
 50 51  1  0  0  0
 50127  1  0  0  0
 50128  1  0  0  0
 51 52  1  0  0  0
 51129  1  0  0  0
 51130  1  0  0  0
 52131  1  0  0  0
 52132  1  0  0  0
 53 54  1  0  0  0
 54 55  2  0  0  0
 54133  1  0  0  0
 55 57  1  0  0  0
 55134  1  0  0  0
 56 69  2  0  0  0
 57 58  2  0  0  0
 57135  1  0  0  0
 58136  1  0  0  0
 59 60  1  0  0  0
 59 61  1  0  0  0
 59 62  1  0  0  0
 60137  1  0  0  0
 60138  1  0  0  0
 60139  1  0  0  0
 61140  1  0  0  0
 61141  1  0  0  0
 61142  1  0  0  0
 62143  1  0  0  0
 62144  1  0  0  0
 62145  1  0  0  0
 63 65  1  0  0  0
 63146  1  0  0  0
 63147  1  0  0  0
 63148  1  0  0  0
 64149  1  0  0  0
 65150  1  0  0  0
 68 87  1  0  0  0
 71 73  2  0  0  0
 71 76  1  0  0  0
 71151  1  0  0  0
 72 74  1  0  0  0
 72 76  2  0  0  0
 72152  1  0  0  0
 73 75  1  0  0  0
 73 81  1  0  0  0
 74 75  2  0  0  0
 74 84  1  0  0  0
 75 83  1  0  0  0
 76 90  1  0  0  0
 77 78  1  0  0  0
 77 80  1  0  0  0
 77153  1  0  0  0
 77154  1  0  0  0
 78 89  1  0  0  0
 78155  1  0  0  0
 78156  1  0  0  0
 79 80  1  0  0  0
 79 89  1  0  0  0
 79157  1  0  0  0
 79158  1  0  0  0
 80 85  1  0  0  0
 80159  1  0  0  0
 81160  1  0  0  0
 81161  1  0  0  0
 81162  1  0  0  0
 82 86  1  0  0  0
 82163  1  0  0  0
 82164  1  0  0  0
 82165  1  0  0  0
 83 85  1  0  0  0
 83166  1  0  0  0
 83167  1  0  0  0
 84 91  1  0  0  0
 84168  1  0  0  0
 84169  1  0  0  0
 85170  1  0  0  0
 85171  1  0  0  0
 86 91  1  0  0  0
 86172  1  0  0  0
 86173  1  0  0  0
 87 88  1  0  0  0
 87174  1  0  0  0
 87175  1  0  0  0
 88 90  1  0  0  0
 88176  1  0  0  0
 88177  1  0  0  0
M  ISO  4   1 100  68 101  87 101  89 100
M  END
> <chiral flag>
0

> <version>
0

> <s_m_source_file>
/data/baiqing/PycharmProjects/Reinvent-master-3.2/result/LINK_invent/BTK/process_docking_weight1_custom_sum_contain_oxygen_bond_distance_aromatic_linkinvent_7_9_3/rearranged_h_0144.sdf

> <i_m_source_file_index>
16

> <r_mmod_Potential_Energy-OPLS-2005>
181.265182495117

> <r_mmod_Stretch_Energy-OPLS-2005>
35.2758331298828

> <r_mmod_Bend_Energy-OPLS-2005>
126.966278076172

> <r_mmod_Torsional_Energy-OPLS-2005>
343.443634033203

> <r_mmod_Improper_Torsional_Energy-OPLS-2005>
6.36619138717651

> <r_mmod_Van_der_Waal_Energy-OPLS-2005>
155.943481445312

> <r_mmod_Electrostatic_Energy-OPLS-2005>
-287.730590820312

> <r_mmod_Solvation_Energy-OPLS-2005>
-204.353713989258

> <b_mmod_Minimization_Converged-OPLS-2005>
0

> <r_mmod_RMS_Derivative-OPLS-2005>
2.25876474380493

$$$$
16
                    3D
 Structure written by MMmdl.
175184  0  0  1  0            999 V2000
  -30.7573  -14.4264   20.5827 C   0  0  0  0  0  0
  -30.4094  -12.2924   19.4057 C   0  0  0  0  0  0
  -29.4813  -12.4921   18.1932 C   0  0  0  0  0  0
  -28.0057  -12.3423   18.6128 C   0  0  0  0  0  0
  -27.6492  -13.1907   19.8604 C   0  0  2  0  0  0
  -28.6985  -13.0063   20.9813 C   0  0  0  0  0  0
  -25.2558  -13.8116   20.5680 C   0  0  0  0  0  0
  -24.1810  -13.0418   20.9209 C   0  0  0  0  0  0
  -24.6346  -11.6876   20.8761 C   0  0  0  0  0  0
  -23.9015  -10.4277   21.0423 C   0  0  0  0  0  0
  -24.3582   -9.4195   21.9189 C   0  0  0  0  0  0
  -23.6272   -8.2224   22.0750 C   0  0  0  0  0  0
  -22.4256   -8.0262   21.3544 C   0  0  0  0  0  0
  -21.9885   -9.0235   20.4647 C   0  0  0  0  0  0
  -22.7197  -10.2120   20.3057 C   0  0  0  0  0  0
  -21.6843   -6.0719   22.5277 C   0  0  0  0  0  0
  -21.4000   -6.5625   23.8212 C   0  0  0  0  0  0
  -21.3661   -5.6776   24.9176 C   0  0  0  0  0  0
  -21.6050   -4.3041   24.7227 C   0  0  0  0  0  0
  -21.8821   -3.8130   23.4349 C   0  0  0  0  0  0
  -21.9191   -4.6948   22.3405 C   0  0  0  0  0  0
  -22.7838  -13.5236   21.1861 C   0  0  0  0  0  0
  -22.1664   -4.2133   21.0982 F   0  0  0  0  0  0
  -21.5633   -3.4525   25.7743 F   0  0  0  0  0  0
  -30.0304  -13.2879   20.4185 N   0  0  0  0  0  0
  -26.2953  -12.9238   20.3320 N   0  0  0  0  0  0
  -25.9256  -11.6424   20.5761 N   0  0  0  0  0  0
  -22.0460  -12.8242   22.0416 N   0  0  0  0  0  0
  -25.4269  -15.1831   20.4057 N   0  0  0  0  0  0
  -31.9041  -14.5502   20.1460 O   0  0  0  0  0  0
  -21.6623   -6.8860   21.4241 O   0  0  0  0  0  0
  -22.3545  -14.5547   20.6697 O   0  0  0  0  0  0
  -24.6099  -31.8704   23.2129 C   0  0  0  0  0  0
  -25.9006  -32.4837   23.8411 C   0  0  1  0  0  0
  -27.2413  -27.4837   20.0824 C   0  0  0  0  0  0
  -25.5879  -33.8640   24.2344 N   0  0  0  0  0  0
  -23.3966  -30.4929   21.5515 C   0  0  2  0  0  0
  -24.8464  -28.9627   20.1148 C   0  0  0  0  0  0
  -22.7386  -29.4666   22.5007 C   0  0  0  0  0  0
  -18.0262  -28.1377   22.8494 C   0  0  0  0  0  0
  -24.1483  -36.7326   23.2635 C   0  0  0  0  0  0
  -25.9200  -30.8508   21.3584 C   0  0  0  0  0  0
  -26.0020  -29.4876   20.7078 C   0  0  0  0  0  0
  -27.2044  -28.7524   20.6958 C   0  0  0  0  0  0
  -26.0726  -26.9523   19.5033 C   0  0  0  0  0  0
  -24.8736  -27.6915   19.5120 C   0  0  0  0  0  0
  -23.6038  -29.8221   20.1662 C   0  0  0  0  0  0
  -25.4099  -36.3125   24.0345 C   0  0  1  0  0  0
  -20.5850  -28.3653   23.1338 C   0  0  2  0  0  0
  -20.6751  -26.9395   22.5427 C   0  0  0  0  0  0
  -19.5739  -26.6384   21.5215 C   0  0  0  0  0  0
  -18.1913  -26.7928   22.1616 C   0  0  0  0  0  0
  -19.1512  -28.8830   23.2913 C   0  0  0  0  0  0
  -18.9442  -30.1440   23.8915 C   0  0  0  0  0  0
  -17.6449  -30.6588   24.0561 C   0  0  0  0  0  0
  -25.9026  -34.9488   23.5140 C   0  0  0  0  0  0
  -16.5337  -29.9091   23.6324 C   0  0  0  0  0  0
  -16.7252  -28.6508   23.0345 C   0  0  0  0  0  0
  -26.4456  -31.6608   25.0722 C   0  0  0  0  0  0
  -25.3745  -31.3718   26.1496 C   0  0  0  0  0  0
  -27.0263  -30.3050   24.6064 C   0  0  0  0  0  0
  -27.6055  -32.4314   25.7461 C   0  0  0  0  0  0
  -27.5593  -37.1796   24.8453 C   0  0  0  0  0  0
  -21.4120  -29.3025   22.3749 N   0  0  0  0  0  0
  -26.4283  -37.3812   23.9429 N   0  0  0  0  0  0
  -24.6600  -31.0841   22.1004 N   0  0  0  0  0  0
  -23.4180  -28.8212   23.3030 O   0  0  0  0  0  0
  -28.3862  -26.7363   20.0798 O   0  0  0  0  0  0
  -26.5587  -34.8934   22.4703 O   0  0  0  0  0  0
  -23.5299  -32.1431   23.7545 O   0  0  0  0  0  0
  -29.2529  -20.1365   20.7709 C   0  0  0  0  0  0
  -30.8507  -19.4678   19.0742 C   0  0  0  0  0  0
  -30.2273  -20.4862   19.8150 C   0  0  0  0  0  0
  -28.9181  -18.7844   21.0010 C   0  0  0  0  0  0
  -30.5218  -18.1136   19.2759 C   0  0  0  0  0  0
  -29.5587  -17.7517   20.2609 C   0  0  0  0  0  0
  -29.5334  -22.6675   18.7138 C   0  0  0  0  0  0
  -30.9120  -22.7481   20.8109 C   0  0  0  0  0  0
  -29.9736  -24.1079   18.3929 C   0  0  0  0  0  0
  -31.3306  -24.1863   20.4530 C   0  0  0  0  0  0
  -30.6036  -21.9376   19.5402 C   0  0  1  0  0  0
  -27.8443  -18.4827   22.0362 C   0  0  0  0  0  0
  -31.2354  -17.0996   18.3945 C   0  0  0  0  0  0
  -30.9030  -16.1315   22.2894 C   0  0  0  0  0  0
  -29.1817  -16.2791   20.4944 C   0  0  0  0  0  0
  -30.6107  -26.3013   19.3865 C   0  0  0  0  0  0
  -29.3428  -27.1182   19.0998 C   0  0  0  0  0  0
  -30.1581  -15.4486   21.2286 N   0  0  0  0  0  0
  -30.2951  -24.8686   19.6314 N   0  3  1  0  0  0
  -31.4534  -12.3735   19.0973 H   0  0  0  0  0  0
  -30.2991  -11.2862   19.8121 H   0  0  0  0  0  0
  -29.7217  -11.7674   17.4142 H   0  0  0  0  0  0
  -29.6451  -13.4778   17.7555 H   0  0  0  0  0  0
  -27.8269  -11.2873   18.8219 H   0  0  0  0  0  0
  -27.3489  -12.6013   17.7812 H   0  0  0  0  0  0
  -27.6612  -14.2224   19.5281 H   0  0  0  0  0  0
  -28.6735  -11.9821   21.3567 H   0  0  0  0  0  0
  -28.4637  -13.6387   21.8385 H   0  0  0  0  0  0
  -25.2732   -9.5674   22.4754 H   0  0  0  0  0  0
  -23.9992   -7.4607   22.7455 H   0  0  0  0  0  0
  -21.0816   -8.8738   19.8954 H   0  0  0  0  0  0
  -22.3654  -10.9649   19.6157 H   0  0  0  0  0  0
  -21.1981   -7.6130   23.9714 H   0  0  0  0  0  0
  -21.1481   -6.0502   25.9080 H   0  0  0  0  0  0
  -22.0602   -2.7592   23.2844 H   0  0  0  0  0  0
  -22.4056  -11.9917   22.4839 H   0  0  0  0  0  0
  -21.1078  -13.1296   22.2592 H   0  0  0  0  0  0
  -24.6565  -15.8345   20.5110 H   0  0  0  0  0  0
  -26.2682  -15.6195   20.0524 H   0  0  0  0  0  0
  -26.7078  -32.5573   23.1186 H   0  0  0  0  0  0
  -25.0031  -33.9804   25.0489 H   0  0  0  0  0  0
  -22.6827  -31.3079   21.4131 H   0  0  0  0  0  0
  -23.3751  -35.9652   23.3285 H   0  0  0  0  0  0
  -24.3588  -36.8949   22.2055 H   0  0  0  0  0  0
  -23.7217  -37.6523   23.6651 H   0  0  0  0  0  0
  -26.0222  -31.6174   20.5890 H   0  0  0  0  0  0
  -26.8116  -30.9080   21.9711 H   0  0  0  0  0  0
  -28.0961  -29.1522   21.1588 H   0  0  0  0  0  0
  -26.0917  -25.9725   19.0471 H   0  0  0  0  0  0
  -23.9830  -27.2785   19.0582 H   0  0  0  0  0  0
  -23.7054  -30.5956   19.4043 H   0  0  0  0  0  0
  -22.7311  -29.2353   19.8745 H   0  0  0  0  0  0
  -25.1266  -36.1987   25.0835 H   0  0  0  0  0  0
  -20.9941  -28.3212   24.1458 H   0  0  0  0  0  0
  -20.5654  -26.2258   23.3606 H   0  0  0  0  0  0
  -21.6623  -26.7441   22.1226 H   0  0  0  0  0  0
  -19.6902  -25.6299   21.1233 H   0  0  0  0  0  0
  -19.6697  -27.3203   20.6755 H   0  0  0  0  0  0
  -17.4196  -26.6691   21.4003 H   0  0  0  0  0  0
  -18.0303  -26.0060   22.9000 H   0  0  0  0  0  0
  -19.7921  -30.7242   24.2298 H   0  0  0  0  0  0
  -17.5009  -31.6272   24.5164 H   0  0  0  0  0  0
  -15.5339  -30.3000   23.7646 H   0  0  0  0  0  0
  -15.8652  -28.0837   22.7046 H   0  0  0  0  0  0
  -24.5899  -30.7079   25.7850 H   0  0  0  0  0  0
  -24.8952  -32.2876   26.4965 H   0  0  0  0  0  0
  -25.8118  -30.8876   27.0237 H   0  0  0  0  0  0
  -26.2775  -29.6824   24.1148 H   0  0  0  0  0  0
  -27.4070  -29.7275   25.4498 H   0  0  0  0  0  0
  -27.8601  -30.4371   23.9164 H   0  0  0  0  0  0
  -27.2693  -33.3605   26.2076 H   0  0  0  0  0  0
  -28.3834  -32.6890   25.0262 H   0  0  0  0  0  0
  -28.0758  -31.8412   26.5336 H   0  0  0  0  0  0
  -28.2580  -38.0126   24.7559 H   0  0  0  0  0  0
  -28.1113  -36.2660   24.6189 H   0  0  0  0  0  0
  -27.2330  -37.1344   25.8856 H   0  0  0  0  0  0
  -20.9272  -29.8741   21.6974 H   0  0  0  0  0  0
  -26.0176  -38.2884   24.1471 H   0  0  0  0  0  0
  -28.7469  -20.9124   21.3286 H   0  0  0  0  0  0
  -31.5863  -19.7315   18.3261 H   0  0  0  0  0  0
  -29.3522  -22.1290   17.7829 H   0  0  0  0  0  0
  -28.5833  -22.6787   19.2497 H   0  0  0  0  0  0
  -30.0456  -22.7795   21.4722 H   0  0  0  0  0  0
  -31.7106  -22.2649   21.3739 H   0  0  0  0  0  0
  -29.1781  -24.6032   17.8370 H   0  0  0  0  0  0
  -30.8463  -24.0932   17.7379 H   0  0  0  0  0  0
  -32.2786  -24.1793   19.9115 H   0  0  0  0  0  0
  -31.5014  -24.7448   21.3745 H   0  0  0  0  0  0
  -31.5197  -21.9204   18.9459 H   0  0  0  0  0  0
  -27.5712  -19.3742   22.6015 H   0  0  0  0  0  0
  -28.1769  -17.7360   22.7567 H   0  0  0  0  0  0
  -26.9406  -18.1143   21.5491 H   0  0  0  0  0  0
  -31.5456  -17.5561   17.4542 H   0  0  0  0  0  0
  -30.6159  -16.2456   18.1285 H   0  0  0  0  0  0
  -32.1382  -16.7456   18.8896 H   0  0  0  0  0  0
  -30.2503  -16.7626   22.8905 H   0  0  0  0  0  0
  -31.6926  -16.7577   21.8704 H   0  0  0  0  0  0
  -31.3689  -15.4131   22.9659 H   0  0  0  0  0  0
  -28.9895  -15.8668   19.5055 H   0  0  0  0  0  0
  -28.2255  -16.1851   21.0049 H   0  0  0  0  0  0
  -31.0748  -26.7235   20.2787 H   0  0  0  0  0  0
  -31.3370  -26.4105   18.5801 H   0  0  0  0  0  0
  -28.9558  -26.9126   18.1010 H   0  0  0  0  0  0
  -29.5630  -28.1861   19.1489 H   0  0  0  0  0  0
  -29.4521  -24.8894   20.1913 H   0  0  0  0  0  0
  1 25  1  0  0  0
  1 30  2  0  0  0
  1 88  1  0  0  0
  2  3  1  0  0  0
  2 25  1  0  0  0
  2 90  1  0  0  0
  2 91  1  0  0  0
  3  4  1  0  0  0
  3 92  1  0  0  0
  3 93  1  0  0  0
  4  5  1  0  0  0
  4 94  1  0  0  0
  4 95  1  0  0  0
  5  6  1  0  0  0
  5 26  1  0  0  0
  5 96  1  0  0  0
  6 25  1  0  0  0
  6 97  1  0  0  0
  6 98  1  0  0  0
  7  8  2  0  0  0
  7 26  1  0  0  0
  7 29  1  0  0  0
  8  9  1  0  0  0
  8 22  1  0  0  0
  9 10  1  0  0  0
  9 27  2  0  0  0
 10 11  2  0  0  0
 10 15  1  0  0  0
 11 12  1  0  0  0
 11 99  1  0  0  0
 12 13  2  0  0  0
 12100  1  0  0  0
 13 14  1  0  0  0
 13 31  1  0  0  0
 14 15  2  0  0  0
 14101  1  0  0  0
 15102  1  0  0  0
 16 17  2  0  0  0
 16 21  1  0  0  0
 16 31  1  0  0  0
 17 18  1  0  0  0
 17103  1  0  0  0
 18 19  2  0  0  0
 18104  1  0  0  0
 19 20  1  0  0  0
 19 24  1  0  0  0
 20 21  2  0  0  0
 20105  1  0  0  0
 21 23  1  0  0  0
 22 28  1  0  0  0
 22 32  2  0  0  0
 26 27  1  0  0  0
 28106  1  0  0  0
 28107  1  0  0  0
 29108  1  0  0  0
 29109  1  0  0  0
 33 34  1  0  0  0
 33 66  1  0  0  0
 33 70  2  0  0  0
 34 36  1  0  0  0
 34 59  1  0  0  0
 34110  1  0  0  0
 35 44  2  0  0  0
 35 45  1  0  0  0
 35 68  1  0  0  0
 36 56  1  0  0  0
 36111  1  0  0  0
 37 39  1  0  0  0
 37 47  1  0  0  0
 37 66  1  0  0  0
 37112  1  0  0  0
 38 43  2  0  0  0
 38 46  1  0  0  0
 38 47  1  0  0  0
 39 64  1  0  0  0
 39 67  2  0  0  0
 40 52  1  0  0  0
 40 53  2  0  0  0
 40 58  1  0  0  0
 41113  1  0  0  0
 41114  1  0  0  0
 41115  1  0  0  0
 41 48  1  0  0  0
 42 43  1  0  0  0
 42 66  1  0  0  0
 42116  1  0  0  0
 42117  1  0  0  0
 43 44  1  0  0  0
 44118  1  0  0  0
 45 46  2  0  0  0
 45119  1  0  0  0
 46120  1  0  0  0
 47121  1  0  0  0
 47122  1  0  0  0
 48 56  1  0  0  0
 48 65  1  0  0  0
 48123  1  0  0  0
 49 50  1  0  0  0
 49 53  1  0  0  0
 49 64  1  0  0  0
 49124  1  0  0  0
 50 51  1  0  0  0
 50125  1  0  0  0
 50126  1  0  0  0
 51 52  1  0  0  0
 51127  1  0  0  0
 51128  1  0  0  0
 52129  1  0  0  0
 52130  1  0  0  0
 53 54  1  0  0  0
 54 55  2  0  0  0
 54131  1  0  0  0
 55 57  1  0  0  0
 55132  1  0  0  0
 56 69  2  0  0  0
 57 58  2  0  0  0
 57133  1  0  0  0
 58134  1  0  0  0
 59 60  1  0  0  0
 59 61  1  0  0  0
 59 62  1  0  0  0
 60135  1  0  0  0
 60136  1  0  0  0
 60137  1  0  0  0
 61138  1  0  0  0
 61139  1  0  0  0
 61140  1  0  0  0
 62141  1  0  0  0
 62142  1  0  0  0
 62143  1  0  0  0
 63 65  1  0  0  0
 63144  1  0  0  0
 63145  1  0  0  0
 63146  1  0  0  0
 64147  1  0  0  0
 65148  1  0  0  0
 68 87  1  0  0  0
 71 73  2  0  0  0
 71 74  1  0  0  0
 71149  1  0  0  0
 72 73  1  0  0  0
 72 75  2  0  0  0
 72150  1  0  0  0
 73 81  1  0  0  0
 74 76  2  0  0  0
 74 82  1  0  0  0
 75 76  1  0  0  0
 75 83  1  0  0  0
 76 85  1  0  0  0
 77 79  1  0  0  0
 77 81  1  0  0  0
 77151  1  0  0  0
 77152  1  0  0  0
 78 80  1  0  0  0
 78 81  1  0  0  0
 78153  1  0  0  0
 78154  1  0  0  0
 79 89  1  0  0  0
 79155  1  0  0  0
 79156  1  0  0  0
 80 89  1  0  0  0
 80157  1  0  0  0
 80158  1  0  0  0
 81159  1  0  0  0
 82160  1  0  0  0
 82161  1  0  0  0
 82162  1  0  0  0
 83163  1  0  0  0
 83164  1  0  0  0
 83165  1  0  0  0
 84 88  1  0  0  0
 84166  1  0  0  0
 84167  1  0  0  0
 84168  1  0  0  0
 85 88  1  0  0  0
 85169  1  0  0  0
 85170  1  0  0  0
 86 87  1  0  0  0
 86171  1  0  0  0
 86172  1  0  0  0
 86 89  1  0  0  0
 87173  1  0  0  0
 87174  1  0  0  0
 89175  1  0  0  0
M  CHG  1  89   1
M  ISO  4   1 100  68 101  87 101  88 100
M  END
> <chiral flag>
0

> <version>
0

> <s_m_source_file>
/data/baiqing/PycharmProjects/Reinvent-master-3.2/result/LINK_invent/BTK/process_docking_weight1_custom_sum_contain_oxygen_bond_distance_aromatic_linkinvent_7_9_3/rearranged_h_0144.sdf

> <i_m_source_file_index>
17

> <r_mmod_Potential_Energy-OPLS-2005>
0.492467790842056

> <r_mmod_Stretch_Energy-OPLS-2005>
36.2782440185547

> <r_mmod_Bend_Energy-OPLS-2005>
98.9071350097656

> <r_mmod_Torsional_Energy-OPLS-2005>
338.072113037109

> <r_mmod_Improper_Torsional_Energy-OPLS-2005>
4.11966371536255

> <r_mmod_Van_der_Waal_Energy-OPLS-2005>
157.928039550781

> <r_mmod_Electrostatic_Energy-OPLS-2005>
-255.521240234375

> <r_mmod_Solvation_Energy-OPLS-2005>
-392.313354492188

> <b_mmod_Minimization_Converged-OPLS-2005>
0

> <r_mmod_RMS_Derivative-OPLS-2005>
1.06600689888

$$$$
17
                    3D
 Structure written by MMmdl.
164173  0  0  1  0            999 V2000
  -30.6572  -14.6143   20.5116 C   0  0  0  0  0  0
  -30.4305  -12.3823   19.4463 C   0  0  0  0  0  0
  -29.5029  -12.5114   18.2202 C   0  0  0  0  0  0
  -28.0238  -12.3612   18.6297 C   0  0  0  0  0  0
  -27.6521  -13.2219   19.8665 C   0  0  2  0  0  0
  -28.7005  -13.0813   20.9918 C   0  0  0  0  0  0
  -25.2546  -13.8176   20.5732 C   0  0  0  0  0  0
  -24.1817  -13.0423   20.9207 C   0  0  0  0  0  0
  -24.6401  -11.6901   20.8738 C   0  0  0  0  0  0
  -23.9070  -10.4275   21.0387 C   0  0  0  0  0  0
  -24.3622   -9.4188   21.9166 C   0  0  0  0  0  0
  -23.6304   -8.2224   22.0736 C   0  0  0  0  0  0
  -22.4280   -8.0261   21.3540 C   0  0  0  0  0  0
  -21.9924   -9.0227   20.4630 C   0  0  0  0  0  0
  -22.7244  -10.2113   20.3035 C   0  0  0  0  0  0
  -21.6863   -6.0724   22.5282 C   0  0  0  0  0  0
  -21.4015   -6.5633   23.8217 C   0  0  0  0  0  0
  -21.3669   -5.6791   24.9174 C   0  0  0  0  0  0
  -21.6051   -4.3050   24.7228 C   0  0  0  0  0  0
  -21.8817   -3.8149   23.4353 C   0  0  0  0  0  0
  -21.9199   -4.6964   22.3404 C   0  0  0  0  0  0
  -22.7836  -13.5196   21.1877 C   0  0  0  0  0  0
  -22.1659   -4.2147   21.0983 F   0  0  0  0  0  0
  -21.5641   -3.4536   25.7745 F   0  0  0  0  0  0
  -30.0150  -13.4087   20.4194 N   0  0  0  0  0  0
  -26.2987  -12.9374   20.3372 N   0  0  0  0  0  0
  -25.9342  -11.6518   20.5783 N   0  0  0  0  0  0
  -22.0498  -12.8158   22.0428 N   0  0  0  0  0  0
  -25.4241  -15.1900   20.4120 N   0  0  0  0  0  0
  -31.8339  -14.7454   20.1668 O   0  0  0  0  0  0
  -21.6647   -6.8858   21.4234 O   0  0  0  0  0  0
  -22.3507  -14.5505   20.6737 O   0  0  0  0  0  0
  -24.6232  -31.8639   23.2087 C   0  0  0  0  0  0
  -25.9090  -32.4795   23.8417 C   0  0  1  0  0  0
  -27.2129  -27.3391   20.1269 C   0  0  0  0  0  0
  -25.5912  -33.8601   24.2330 N   0  0  0  0  0  0
  -23.4168  -30.4863   21.5498 C   0  0  2  0  0  0
  -24.8647  -28.9480   20.1128 C   0  0  0  0  0  0
  -22.7465  -29.4638   22.4971 C   0  0  0  0  0  0
  -18.0272  -28.1400   22.8497 C   0  0  0  0  0  0
  -24.1481  -36.7294   23.2636 C   0  0  0  0  0  0
  -25.9566  -30.7973   21.3823 C   0  0  0  0  0  0
  -26.0282  -29.4238   20.7314 C   0  0  0  0  0  0
  -27.2090  -28.6240   20.7417 C   0  0  0  0  0  0
  -26.0509  -26.9358   19.4412 C   0  0  0  0  0  0
  -24.8752  -27.7059   19.4600 C   0  0  0  0  0  0
  -23.6306  -29.8240   20.1637 C   0  0  0  0  0  0
  -25.4104  -36.3094   24.0338 C   0  0  1  0  0  0
  -20.5867  -28.3693   23.1301 C   0  0  2  0  0  0
  -20.6753  -26.9413   22.5424 C   0  0  0  0  0  0
  -19.5723  -26.6404   21.5227 C   0  0  0  0  0  0
  -18.1909  -26.7943   22.1638 C   0  0  0  0  0  0
  -19.1524  -28.8861   23.2893 C   0  0  0  0  0  0
  -18.9443  -30.1467   23.8901 C   0  0  0  0  0  0
  -17.6437  -30.6588   24.0575 C   0  0  0  0  0  0
  -25.9047  -34.9458   23.5137 C   0  0  0  0  0  0
  -16.5331  -29.9085   23.6336 C   0  0  0  0  0  0
  -16.7259  -28.6513   23.0350 C   0  0  0  0  0  0
  -26.4476  -31.6584   25.0767 C   0  0  0  0  0  0
  -25.3723  -31.3677   26.1492 C   0  0  0  0  0  0
  -27.0327  -30.3015   24.6216 C   0  0  0  0  0  0
  -27.6056  -32.4311   25.7522 C   0  0  0  0  0  0
  -27.5589  -37.1793   24.8448 C   0  0  0  0  0  0
  -21.4182  -29.3045   22.3702 N   0  0  0  0  0  0
  -26.4278  -37.3801   23.9427 N   0  0  0  0  0  0
  -24.6832  -31.0667   22.1031 N   0  0  0  0  0  0
  -23.4188  -28.8169   23.3050 O   0  0  0  0  0  0
  -28.2963  -26.4619   20.1423 O   0  0  0  0  0  0
  -26.5634  -34.8905   22.4707 O   0  0  0  0  0  0
  -23.5394  -32.1438   23.7414 O   0  0  0  0  0  0
  -30.8634  -19.2809   19.8550 C   0  0  0  0  0  0
  -29.7149  -23.1282   20.5439 C   0  0  0  0  0  0
  -27.3145  -23.0087   20.1404 C   0  0  0  0  0  0
  -31.2283  -17.7789   20.0266 C   0  0  0  0  0  0
  -29.5444  -24.5133   21.2728 C   0  0  0  0  0  0
  -27.0442  -24.2912   20.9728 C   0  0  0  0  0  0
  -29.0061  -18.1272   20.8469 C   0  0  0  0  0  0
  -28.5044  -22.1587   20.6883 C   0  0  1  0  0  0
  -29.5772  -19.5834   20.6580 C   0  0  2  0  0  0
  -30.2139  -17.1504   21.0056 C   0  0  1  0  0  0
  -28.2148  -25.3195   21.0721 C   0  0  2  0  0  0
  -28.6452  -20.7130   20.0106 C   0  0  1  0  0  0
  -29.8788  -15.6947   20.8171 N   0  0  0  0  0  0
  -27.3435  -20.1564   19.9463 O   0  0  0  0  0  0
  -31.4726  -12.4984   19.1450 H   0  0  0  0  0  0
  -30.3537  -11.3875   19.8875 H   0  0  0  0  0  0
  -29.7646  -11.7647   17.4689 H   0  0  0  0  0  0
  -29.6540  -13.4852   17.7527 H   0  0  0  0  0  0
  -27.8486  -11.3062   18.8456 H   0  0  0  0  0  0
  -27.3723  -12.6123   17.7914 H   0  0  0  0  0  0
  -27.6690  -14.2600   19.5343 H   0  0  0  0  0  0
  -28.7054  -12.0655   21.3910 H   0  0  0  0  0  0
  -28.4575  -13.7334   21.8324 H   0  0  0  0  0  0
  -25.2759   -9.5701   22.4736 H   0  0  0  0  0  0
  -24.0038   -7.4629   22.7446 H   0  0  0  0  0  0
  -21.0870   -8.8724   19.8924 H   0  0  0  0  0  0
  -22.3687  -10.9644   19.6141 H   0  0  0  0  0  0
  -21.1982   -7.6137   23.9727 H   0  0  0  0  0  0
  -21.1506   -6.0509   25.9082 H   0  0  0  0  0  0
  -22.0593   -2.7616   23.2856 H   0  0  0  0  0  0
  -22.4140  -11.9813   22.4789 H   0  0  0  0  0  0
  -21.1098  -13.1134   22.2624 H   0  0  0  0  0  0
  -24.6519  -15.8407   20.5060 H   0  0  0  0  0  0
  -26.2674  -15.6314   20.0686 H   0  0  0  0  0  0
  -26.7159  -32.5471   23.1177 H   0  0  0  0  0  0
  -25.0000  -33.9773   25.0429 H   0  0  0  0  0  0
  -22.7087  -31.3053   21.4093 H   0  0  0  0  0  0
  -23.3764  -35.9605   23.3260 H   0  0  0  0  0  0
  -24.3590  -36.8957   22.2061 H   0  0  0  0  0  0
  -23.7197  -37.6464   23.6685 H   0  0  0  0  0  0
  -26.0880  -31.5573   20.6095 H   0  0  0  0  0  0
  -26.8364  -30.8483   22.0118 H   0  0  0  0  0  0
  -28.0985  -28.9756   21.2455 H   0  0  0  0  0  0
  -26.0453  -25.9987   18.9041 H   0  0  0  0  0  0
  -23.9902  -27.3443   18.9560 H   0  0  0  0  0  0
  -23.7425  -30.6011   19.4065 H   0  0  0  0  0  0
  -22.7531  -29.2485   19.8641 H   0  0  0  0  0  0
  -25.1278  -36.1953   25.0830 H   0  0  0  0  0  0
  -20.9971  -28.3265   24.1419 H   0  0  0  0  0  0
  -20.5660  -26.2310   23.3633 H   0  0  0  0  0  0
  -21.6619  -26.7445   22.1204 H   0  0  0  0  0  0
  -19.6862  -25.6321   21.1251 H   0  0  0  0  0  0
  -19.6642  -27.3229   20.6767 H   0  0  0  0  0  0
  -17.4176  -26.6718   21.4034 H   0  0  0  0  0  0
  -18.0274  -26.0086   22.9026 H   0  0  0  0  0  0
  -19.7908  -30.7313   24.2271 H   0  0  0  0  0  0
  -17.4968  -31.6264   24.5181 H   0  0  0  0  0  0
  -15.5325  -30.2975   23.7665 H   0  0  0  0  0  0
  -15.8668  -28.0838   22.7050 H   0  0  0  0  0  0
  -24.5898  -30.7039   25.7795 H   0  0  0  0  0  0
  -24.8906  -32.2815   26.4990 H   0  0  0  0  0  0
  -25.8052  -30.8787   27.0234 H   0  0  0  0  0  0
  -26.2915  -29.6765   24.1224 H   0  0  0  0  0  0
  -27.3997  -29.7264   25.4735 H   0  0  0  0  0  0
  -27.8795  -30.4303   23.9472 H   0  0  0  0  0  0
  -27.2693  -33.3618   26.2106 H   0  0  0  0  0  0
  -28.3848  -32.6864   25.0325 H   0  0  0  0  0  0
  -28.0740  -31.8427   26.5421 H   0  0  0  0  0  0
  -28.2548  -38.0151   24.7599 H   0  0  0  0  0  0
  -28.1148  -36.2697   24.6138 H   0  0  0  0  0  0
  -27.2330  -37.1256   25.8851 H   0  0  0  0  0  0
  -20.9375  -29.8778   21.6910 H   0  0  0  0  0  0
  -26.0150  -38.2865   24.1479 H   0  0  0  0  0  0
  -30.7154  -19.4827   18.7934 H   0  0  0  0  0  0
  -31.6789  -19.9301   20.1781 H   0  0  0  0  0  0
  -30.6078  -22.6364   20.9297 H   0  0  0  0  0  0
  -29.9114  -23.3084   19.4862 H   0  0  0  0  0  0
  -27.4898  -23.2733   19.0957 H   0  0  0  0  0  0
  -26.3907  -22.4293   20.1431 H   0  0  0  0  0  0
  -32.2540  -17.6604   20.3811 H   0  0  0  0  0  0
  -31.1708  -17.2895   19.0530 H   0  0  0  0  0  0
  -30.3959  -25.1579   21.0581 H   0  0  0  0  0  0
  -29.6182  -24.3011   22.3414 H   0  0  0  0  0  0
  -26.8326  -23.9546   21.9883 H   0  0  0  0  0  0
  -26.1048  -24.7417   20.6720 H   0  0  0  0  0  0
  -28.4450  -17.8381   19.9567 H   0  0  0  0  0  0
  -28.3202  -18.0681   21.6923 H   0  0  0  0  0  0
  -28.3308  -21.9898   21.7529 H   0  0  0  0  0  0
  -29.8778  -19.9239   21.6507 H   0  0  0  0  0  0
  -30.6075  -17.2651   22.0176 H   0  0  0  0  0  0
  -28.0517  -25.8339   22.0209 H   0  0  0  0  0  0
  -28.9479  -20.8681   18.9749 H   0  0  0  0  0  0
  -28.9180  -15.4538   21.0125 H   0  0  0  0  0  0
  -27.0529  -19.9945   20.8372 H   0  0  0  0  0  0
  1 25  1  0  0  0
  1 30  2  0  0  0
  1 83  1  0  0  0
  2  3  1  0  0  0
  2 25  1  0  0  0
  2 85  1  0  0  0
  2 86  1  0  0  0
  3  4  1  0  0  0
  3 87  1  0  0  0
  3 88  1  0  0  0
  4  5  1  0  0  0
  4 89  1  0  0  0
  4 90  1  0  0  0
  5  6  1  0  0  0
  5 26  1  0  0  0
  5 91  1  0  0  0
  6 25  1  0  0  0
  6 92  1  0  0  0
  6 93  1  0  0  0
  7  8  2  0  0  0
  7 26  1  0  0  0
  7 29  1  0  0  0
  8  9  1  0  0  0
  8 22  1  0  0  0
  9 10  1  0  0  0
  9 27  2  0  0  0
 10 11  2  0  0  0
 10 15  1  0  0  0
 11 12  1  0  0  0
 11 94  1  0  0  0
 12 13  2  0  0  0
 12 95  1  0  0  0
 13 14  1  0  0  0
 13 31  1  0  0  0
 14 15  2  0  0  0
 14 96  1  0  0  0
 15 97  1  0  0  0
 16 17  2  0  0  0
 16 21  1  0  0  0
 16 31  1  0  0  0
 17 18  1  0  0  0
 17 98  1  0  0  0
 18 19  2  0  0  0
 18 99  1  0  0  0
 19 20  1  0  0  0
 19 24  1  0  0  0
 20 21  2  0  0  0
 20100  1  0  0  0
 21 23  1  0  0  0
 22 28  1  0  0  0
 22 32  2  0  0  0
 26 27  1  0  0  0
 28101  1  0  0  0
 28102  1  0  0  0
 29103  1  0  0  0
 29104  1  0  0  0
 33 34  1  0  0  0
 33 66  1  0  0  0
 33 70  2  0  0  0
 34 36  1  0  0  0
 34 59  1  0  0  0
 34105  1  0  0  0
 35 44  2  0  0  0
 35 45  1  0  0  0
 35 68  1  0  0  0
 36 56  1  0  0  0
 36106  1  0  0  0
 37 39  1  0  0  0
 37 47  1  0  0  0
 37 66  1  0  0  0
 37107  1  0  0  0
 38 43  2  0  0  0
 38 46  1  0  0  0
 38 47  1  0  0  0
 39 64  1  0  0  0
 39 67  2  0  0  0
 40 52  1  0  0  0
 40 53  2  0  0  0
 40 58  1  0  0  0
 41108  1  0  0  0
 41109  1  0  0  0
 41110  1  0  0  0
 41 48  1  0  0  0
 42 43  1  0  0  0
 42 66  1  0  0  0
 42111  1  0  0  0
 42112  1  0  0  0
 43 44  1  0  0  0
 44113  1  0  0  0
 45 46  2  0  0  0
 45114  1  0  0  0
 46115  1  0  0  0
 47116  1  0  0  0
 47117  1  0  0  0
 48 56  1  0  0  0
 48 65  1  0  0  0
 48118  1  0  0  0
 49 50  1  0  0  0
 49 53  1  0  0  0
 49 64  1  0  0  0
 49119  1  0  0  0
 50 51  1  0  0  0
 50120  1  0  0  0
 50121  1  0  0  0
 51 52  1  0  0  0
 51122  1  0  0  0
 51123  1  0  0  0
 52124  1  0  0  0
 52125  1  0  0  0
 53 54  1  0  0  0
 54 55  2  0  0  0
 54126  1  0  0  0
 55 57  1  0  0  0
 55127  1  0  0  0
 56 69  2  0  0  0
 57 58  2  0  0  0
 57128  1  0  0  0
 58129  1  0  0  0
 59 60  1  0  0  0
 59 61  1  0  0  0
 59 62  1  0  0  0
 60130  1  0  0  0
 60131  1  0  0  0
 60132  1  0  0  0
 61133  1  0  0  0
 61134  1  0  0  0
 61135  1  0  0  0
 62136  1  0  0  0
 62137  1  0  0  0
 62138  1  0  0  0
 63 65  1  0  0  0
 63139  1  0  0  0
 63140  1  0  0  0
 63141  1  0  0  0
 64142  1  0  0  0
 65143  1  0  0  0
 68 81  1  0  0  0
 71 74  1  0  0  0
 71144  1  0  0  0
 71145  1  0  0  0
 71 79  1  0  0  0
 72 75  1  0  0  0
 72146  1  0  0  0
 72147  1  0  0  0
 72 78  1  0  0  0
 73 76  1  0  0  0
 73 78  1  0  0  0
 73148  1  0  0  0
 73149  1  0  0  0
 74 80  1  0  0  0
 74150  1  0  0  0
 74151  1  0  0  0
 75 81  1  0  0  0
 75152  1  0  0  0
 75153  1  0  0  0
 76 81  1  0  0  0
 76154  1  0  0  0
 76155  1  0  0  0
 77 79  1  0  0  0
 77 80  1  0  0  0
 77156  1  0  0  0
 77157  1  0  0  0
 78 82  1  0  0  0
 78158  1  0  0  0
 79 82  1  0  0  0
 79159  1  0  0  0
 80 83  1  0  0  0
 80160  1  0  0  0
 81161  1  0  0  0
 82 84  1  0  0  0
 82162  1  0  0  0
 83163  1  0  0  0
 84164  1  0  0  0
M  ISO  4   1 100  68 101  81 101  83 100
M  END
> <chiral flag>
0

> <version>
0

> <s_m_source_file>
/data/baiqing/PycharmProjects/Reinvent-master-3.2/result/LINK_invent/BTK/process_docking_weight1_custom_sum_contain_oxygen_bond_distance_aromatic_linkinvent_7_9_3/rearranged_h_0144.sdf

> <i_m_source_file_index>
18

> <r_mmod_Potential_Energy-OPLS-2005>
151.303726196289

> <r_mmod_Stretch_Energy-OPLS-2005>
71.4657592773438

> <r_mmod_Bend_Energy-OPLS-2005>
179.010955810547

> <r_mmod_Torsional_Energy-OPLS-2005>
327.055053710938

> <r_mmod_Improper_Torsional_Energy-OPLS-2005>
4.21639060974121

> <r_mmod_Van_der_Waal_Energy-OPLS-2005>
131.418701171875

> <r_mmod_Electrostatic_Energy-OPLS-2005>
-395.425109863281

> <r_mmod_Solvation_Energy-OPLS-2005>
-210.964736938477

> <b_mmod_Minimization_Converged-OPLS-2005>
0

> <r_mmod_RMS_Derivative-OPLS-2005>
2.57443118095398

$$$$
18
                    3D
 Structure written by MMmdl.
163172  0  0  1  0            999 V2000
  -30.6956  -14.5973   20.5161 C   0  0  0  0  0  0
  -30.4164  -12.3740   19.4528 C   0  0  0  0  0  0
  -29.4973  -12.5030   18.2213 C   0  0  0  0  0  0
  -28.0219  -12.3507   18.6349 C   0  0  0  0  0  0
  -27.6487  -13.2269   19.8611 C   0  0  2  0  0  0
  -28.6946  -13.1072   20.9917 C   0  0  0  0  0  0
  -25.2530  -13.8198   20.5696 C   0  0  0  0  0  0
  -24.1812  -13.0442   20.9190 C   0  0  0  0  0  0
  -24.6399  -11.6917   20.8740 C   0  0  0  0  0  0
  -23.9076  -10.4294   21.0404 C   0  0  0  0  0  0
  -24.3624   -9.4207   21.9179 C   0  0  0  0  0  0
  -23.6297   -8.2245   22.0758 C   0  0  0  0  0  0
  -22.4282   -8.0283   21.3545 C   0  0  0  0  0  0
  -21.9921   -9.0259   20.4645 C   0  0  0  0  0  0
  -22.7252  -10.2136   20.3054 C   0  0  0  0  0  0
  -21.6854   -6.0736   22.5279 C   0  0  0  0  0  0
  -21.4016   -6.5639   23.8212 C   0  0  0  0  0  0
  -21.3660   -5.6791   24.9173 C   0  0  0  0  0  0
  -21.6045   -4.3054   24.7222 C   0  0  0  0  0  0
  -21.8822   -3.8145   23.4343 C   0  0  0  0  0  0
  -21.9194   -4.6964   22.3398 C   0  0  0  0  0  0
  -22.7834  -13.5222   21.1849 C   0  0  0  0  0  0
  -22.1660   -4.2147   21.0976 F   0  0  0  0  0  0
  -21.5632   -3.4539   25.7734 F   0  0  0  0  0  0
  -30.0087  -13.4175   20.4149 N   0  0  0  0  0  0
  -26.2972  -12.9402   20.3336 N   0  0  0  0  0  0
  -25.9334  -11.6546   20.5781 N   0  0  0  0  0  0
  -22.0480  -12.8211   22.0406 N   0  0  0  0  0  0
  -25.4213  -15.1923   20.4101 N   0  0  0  0  0  0
  -31.8651  -14.6784   20.1356 O   0  0  0  0  0  0
  -21.6645   -6.8882   21.4242 O   0  0  0  0  0  0
  -22.3510  -14.5522   20.6696 O   0  0  0  0  0  0
  -24.6265  -31.8624   23.2070 C   0  0  0  0  0  0
  -25.9121  -32.4790   23.8387 C   0  0  1  0  0  0
  -27.2124  -27.3332   20.1052 C   0  0  0  0  0  0
  -25.5942  -33.8588   24.2308 N   0  0  0  0  0  0
  -23.4172  -30.4909   21.5506 C   0  0  2  0  0  0
  -24.8595  -28.9583   20.1093 C   0  0  0  0  0  0
  -22.7471  -29.4645   22.4950 C   0  0  0  0  0  0
  -18.0284  -28.1382   22.8491 C   0  0  0  0  0  0
  -24.1486  -36.7293   23.2638 C   0  0  0  0  0  0
  -25.9601  -30.7982   21.3778 C   0  0  0  0  0  0
  -26.0313  -29.4305   20.7137 C   0  0  0  0  0  0
  -27.2118  -28.6297   20.7030 C   0  0  0  0  0  0
  -26.0136  -26.9221   19.4725 C   0  0  0  0  0  0
  -24.8520  -27.7080   19.4808 C   0  0  0  0  0  0
  -23.6287  -29.8359   20.1630 C   0  0  0  0  0  0
  -25.4111  -36.3086   24.0333 C   0  0  1  0  0  0
  -20.5885  -28.3691   23.1279 C   0  0  2  0  0  0
  -20.6774  -26.9417   22.5404 C   0  0  0  0  0  0
  -19.5746  -26.6388   21.5210 C   0  0  0  0  0  0
  -18.1924  -26.7927   22.1624 C   0  0  0  0  0  0
  -19.1537  -28.8854   23.2880 C   0  0  0  0  0  0
  -18.9459  -30.1459   23.8894 C   0  0  0  0  0  0
  -17.6458  -30.6587   24.0566 C   0  0  0  0  0  0
  -25.9049  -34.9452   23.5114 C   0  0  0  0  0  0
  -16.5351  -29.9082   23.6336 C   0  0  0  0  0  0
  -16.7272  -28.6499   23.0358 C   0  0  0  0  0  0
  -26.4506  -31.6592   25.0752 C   0  0  0  0  0  0
  -25.3746  -31.3709   26.1483 C   0  0  0  0  0  0
  -27.0367  -30.3023   24.6204 C   0  0  0  0  0  0
  -27.6063  -32.4336   25.7521 C   0  0  0  0  0  0
  -27.5580  -37.1799   24.8464 C   0  0  0  0  0  0
  -21.4187  -29.3047   22.3683 N   0  0  0  0  0  0
  -26.4287  -37.3782   23.9416 N   0  0  0  0  0  0
  -24.6868  -31.0661   22.1015 N   0  0  0  0  0  0
  -23.4201  -28.8170   23.3013 O   0  0  0  0  0  0
  -28.3232  -26.4741   20.1688 O   0  0  0  0  0  0
  -26.5604  -34.8914   22.4671 O   0  0  0  0  0  0
  -23.5434  -32.1412   23.7410 O   0  0  0  0  0  0
  -28.7801  -18.8414   21.3077 C   0  0  0  0  0  0
  -30.7738  -19.3985   20.1009 C   0  0  0  0  0  0
  -29.0455  -21.1647   20.3946 C   0  0  0  0  0  0
  -30.0298  -18.4211   20.8058 C   0  0  0  0  0  0
  -28.2991  -20.1735   21.1209 C   0  0  0  0  0  0
  -30.3129  -20.7309   19.8949 C   0  0  0  0  0  0
  -28.2583  -22.9792   18.6064 C   0  0  0  0  0  0
  -28.2116  -24.5272   18.5523 C   0  0  0  0  0  0
  -28.9278  -23.9302   20.7543 C   0  0  0  0  0  0
  -28.4287  -22.5942   20.0914 C   0  0  2  0  0  0
  -28.0836  -25.0219   20.0071 C   0  0  1  0  0  0
  -26.9493  -20.4992   21.7447 C   0  0  0  0  0  0
  -31.2417  -21.6495   19.1162 C   0  0  0  0  0  0
  -30.6848  -17.0454   21.1617 C   0  0  0  0  0  0
  -30.0241  -15.7238   20.9018 N   0  0  0  0  0  0
  -31.4620  -12.4611   19.1526 H   0  0  0  0  0  0
  -30.3197  -11.3856   19.9060 H   0  0  0  0  0  0
  -29.7561  -11.7523   17.4737 H   0  0  0  0  0  0
  -29.6489  -13.4742   17.7470 H   0  0  0  0  0  0
  -27.8532  -11.2986   18.8667 H   0  0  0  0  0  0
  -27.3683  -12.5837   17.7936 H   0  0  0  0  0  0
  -27.6620  -14.2604   19.5135 H   0  0  0  0  0  0
  -28.6975  -12.0998   21.4103 H   0  0  0  0  0  0
  -28.4519  -13.7770   21.8179 H   0  0  0  0  0  0
  -25.2771   -9.5682   22.4752 H   0  0  0  0  0  0
  -24.0004   -7.4642   22.7486 H   0  0  0  0  0  0
  -21.0854   -8.8780   19.8946 H   0  0  0  0  0  0
  -22.3715  -10.9676   19.6161 H   0  0  0  0  0  0
  -21.2008   -7.6149   23.9713 H   0  0  0  0  0  0
  -21.1482   -6.0522   25.9075 H   0  0  0  0  0  0
  -22.0600   -2.7607   23.2846 H   0  0  0  0  0  0
  -22.4115  -11.9875   22.4788 H   0  0  0  0  0  0
  -21.1096  -13.1227   22.2624 H   0  0  0  0  0  0
  -24.6509  -15.8442   20.5132 H   0  0  0  0  0  0
  -26.2698  -15.6329   20.0777 H   0  0  0  0  0  0
  -26.7194  -32.5455   23.1137 H   0  0  0  0  0  0
  -25.0125  -33.9744   25.0478 H   0  0  0  0  0  0
  -22.7108  -31.3120   21.4133 H   0  0  0  0  0  0
  -23.3759  -35.9615   23.3283 H   0  0  0  0  0  0
  -24.3587  -36.8937   22.2060 H   0  0  0  0  0  0
  -23.7231  -37.6481   23.6678 H   0  0  0  0  0  0
  -26.0937  -31.5660   20.6145 H   0  0  0  0  0  0
  -26.8401  -30.8395   22.0080 H   0  0  0  0  0  0
  -28.1088  -28.9853   21.1899 H   0  0  0  0  0  0
  -25.9242  -25.9710   18.9749 H   0  0  0  0  0  0
  -23.9546  -27.3404   19.0021 H   0  0  0  0  0  0
  -23.7457  -30.6164   19.4104 H   0  0  0  0  0  0
  -22.7487  -29.2662   19.8595 H   0  0  0  0  0  0
  -25.1288  -36.1935   25.0826 H   0  0  0  0  0  0
  -20.9975  -28.3262   24.1401 H   0  0  0  0  0  0
  -20.5687  -26.2300   23.3602 H   0  0  0  0  0  0
  -21.6641  -26.7449   22.1192 H   0  0  0  0  0  0
  -19.6906  -25.6297   21.1243 H   0  0  0  0  0  0
  -19.6681  -27.3195   20.6737 H   0  0  0  0  0  0
  -17.4197  -26.6690   21.4020 H   0  0  0  0  0  0
  -18.0316  -26.0064   22.9013 H   0  0  0  0  0  0
  -19.7934  -30.7281   24.2259 H   0  0  0  0  0  0
  -17.5010  -31.6265   24.5169 H   0  0  0  0  0  0
  -15.5350  -30.2983   23.7660 H   0  0  0  0  0  0
  -15.8673  -28.0819   22.7075 H   0  0  0  0  0  0
  -24.5931  -30.7047   25.7807 H   0  0  0  0  0  0
  -24.8930  -32.2866   26.4921 H   0  0  0  0  0  0
  -25.8087  -30.8882   27.0250 H   0  0  0  0  0  0
  -26.2947  -29.6756   24.1245 H   0  0  0  0  0  0
  -27.4089  -29.7293   25.4707 H   0  0  0  0  0  0
  -27.8801  -30.4320   23.9419 H   0  0  0  0  0  0
  -27.2674  -33.3647   26.2073 H   0  0  0  0  0  0
  -28.3880  -32.6883   25.0352 H   0  0  0  0  0  0
  -28.0722  -31.8484   26.5456 H   0  0  0  0  0  0
  -28.2576  -38.0117   24.7543 H   0  0  0  0  0  0
  -28.1101  -36.2652   24.6251 H   0  0  0  0  0  0
  -27.2304  -37.1398   25.8866 H   0  0  0  0  0  0
  -20.9361  -29.8787   21.6910 H   0  0  0  0  0  0
  -26.0165  -38.2851   24.1438 H   0  0  0  0  0  0
  -28.1953  -18.1376   21.8846 H   0  0  0  0  0  0
  -31.7520  -19.1292   19.7251 H   0  0  0  0  0  0
  -29.0737  -22.6237   17.9805 H   0  0  0  0  0  0
  -27.3469  -22.5360   18.2027 H   0  0  0  0  0  0
  -27.4158  -24.8794   17.8985 H   0  0  0  0  0  0
  -29.1462  -24.9003   18.1320 H   0  0  0  0  0  0
  -29.9917  -24.0964   20.5925 H   0  0  0  0  0  0
  -28.7535  -23.9421   21.8306 H   0  0  0  0  0  0
  -27.3981  -22.5395   20.4321 H   0  0  0  0  0  0
  -27.0740  -24.8145   20.3640 H   0  0  0  0  0  0
  -26.5868  -19.6848   22.3724 H   0  0  0  0  0  0
  -26.1979  -20.6734   20.9739 H   0  0  0  0  0  0
  -27.0176  -21.3853   22.3768 H   0  0  0  0  0  0
  -32.2812  -21.4588   19.3859 H   0  0  0  0  0  0
  -31.0582  -22.7042   19.3001 H   0  0  0  0  0  0
  -31.1399  -21.4663   18.0462 H   0  0  0  0  0  0
  -30.8827  -17.0749   22.2342 H   0  0  0  0  0  0
  -31.6766  -17.0504   20.7075 H   0  0  0  0  0  0
  -29.0499  -15.6295   21.1448 H   0  0  0  0  0  0
  1 25  1  0  0  0
  1 30  2  0  0  0
  1 85  1  0  0  0
  2  3  1  0  0  0
  2 25  1  0  0  0
  2 86  1  0  0  0
  2 87  1  0  0  0
  3  4  1  0  0  0
  3 88  1  0  0  0
  3 89  1  0  0  0
  4  5  1  0  0  0
  4 90  1  0  0  0
  4 91  1  0  0  0
  5  6  1  0  0  0
  5 26  1  0  0  0
  5 92  1  0  0  0
  6 25  1  0  0  0
  6 93  1  0  0  0
  6 94  1  0  0  0
  7  8  2  0  0  0
  7 26  1  0  0  0
  7 29  1  0  0  0
  8  9  1  0  0  0
  8 22  1  0  0  0
  9 10  1  0  0  0
  9 27  2  0  0  0
 10 11  2  0  0  0
 10 15  1  0  0  0
 11 12  1  0  0  0
 11 95  1  0  0  0
 12 13  2  0  0  0
 12 96  1  0  0  0
 13 14  1  0  0  0
 13 31  1  0  0  0
 14 15  2  0  0  0
 14 97  1  0  0  0
 15 98  1  0  0  0
 16 17  2  0  0  0
 16 21  1  0  0  0
 16 31  1  0  0  0
 17 18  1  0  0  0
 17 99  1  0  0  0
 18 19  2  0  0  0
 18100  1  0  0  0
 19 20  1  0  0  0
 19 24  1  0  0  0
 20 21  2  0  0  0
 20101  1  0  0  0
 21 23  1  0  0  0
 22 28  1  0  0  0
 22 32  2  0  0  0
 26 27  1  0  0  0
 28102  1  0  0  0
 28103  1  0  0  0
 29104  1  0  0  0
 29105  1  0  0  0
 33 34  1  0  0  0
 33 66  1  0  0  0
 33 70  2  0  0  0
 34 36  1  0  0  0
 34 59  1  0  0  0
 34106  1  0  0  0
 35 44  2  0  0  0
 35 45  1  0  0  0
 35 68  1  0  0  0
 36 56  1  0  0  0
 36107  1  0  0  0
 37 39  1  0  0  0
 37 47  1  0  0  0
 37 66  1  0  0  0
 37108  1  0  0  0
 38 43  2  0  0  0
 38 46  1  0  0  0
 38 47  1  0  0  0
 39 64  1  0  0  0
 39 67  2  0  0  0
 40 52  1  0  0  0
 40 53  2  0  0  0
 40 58  1  0  0  0
 41109  1  0  0  0
 41110  1  0  0  0
 41111  1  0  0  0
 41 48  1  0  0  0
 42 43  1  0  0  0
 42 66  1  0  0  0
 42112  1  0  0  0
 42113  1  0  0  0
 43 44  1  0  0  0
 44114  1  0  0  0
 45 46  2  0  0  0
 45115  1  0  0  0
 46116  1  0  0  0
 47117  1  0  0  0
 47118  1  0  0  0
 48 56  1  0  0  0
 48 65  1  0  0  0
 48119  1  0  0  0
 49 50  1  0  0  0
 49 53  1  0  0  0
 49 64  1  0  0  0
 49120  1  0  0  0
 50 51  1  0  0  0
 50121  1  0  0  0
 50122  1  0  0  0
 51 52  1  0  0  0
 51123  1  0  0  0
 51124  1  0  0  0
 52125  1  0  0  0
 52126  1  0  0  0
 53 54  1  0  0  0
 54 55  2  0  0  0
 54127  1  0  0  0
 55 57  1  0  0  0
 55128  1  0  0  0
 56 69  2  0  0  0
 57 58  2  0  0  0
 57129  1  0  0  0
 58130  1  0  0  0
 59 60  1  0  0  0
 59 61  1  0  0  0
 59 62  1  0  0  0
 60131  1  0  0  0
 60132  1  0  0  0
 60133  1  0  0  0
 61134  1  0  0  0
 61135  1  0  0  0
 61136  1  0  0  0
 62137  1  0  0  0
 62138  1  0  0  0
 62139  1  0  0  0
 63 65  1  0  0  0
 63140  1  0  0  0
 63141  1  0  0  0
 63142  1  0  0  0
 64143  1  0  0  0
 65144  1  0  0  0
 68 81  1  0  0  0
 71 74  2  0  0  0
 71 75  1  0  0  0
 71145  1  0  0  0
 72 74  1  0  0  0
 72 76  2  0  0  0
 72146  1  0  0  0
 73 75  2  0  0  0
 73 76  1  0  0  0
 73 80  1  0  0  0
 74 84  1  0  0  0
 75 82  1  0  0  0
 76 83  1  0  0  0
 77 78  1  0  0  0
 77 80  1  0  0  0
 77147  1  0  0  0
 77148  1  0  0  0
 78 81  1  0  0  0
 78149  1  0  0  0
 78150  1  0  0  0
 79 80  1  0  0  0
 79 81  1  0  0  0
 79151  1  0  0  0
 79152  1  0  0  0
 80153  1  0  0  0
 81154  1  0  0  0
 82155  1  0  0  0
 82156  1  0  0  0
 82157  1  0  0  0
 83158  1  0  0  0
 83159  1  0  0  0
 83160  1  0  0  0
 84 85  1  0  0  0
 84161  1  0  0  0
 84162  1  0  0  0
 85163  1  0  0  0
M  ISO  4   1 100  68 101  81 101  85 100
M  END
> <chiral flag>
0

> <version>
0

> <s_m_source_file>
/data/baiqing/PycharmProjects/Reinvent-master-3.2/result/LINK_invent/BTK/process_docking_weight1_custom_sum_contain_oxygen_bond_distance_aromatic_linkinvent_7_9_3/rearranged_h_0144.sdf

> <i_m_source_file_index>
19

> <r_mmod_Potential_Energy-OPLS-2005>
72.7202224731445

> <r_mmod_Stretch_Energy-OPLS-2005>
73.9382019042969

> <r_mmod_Bend_Energy-OPLS-2005>
188.328796386719

> <r_mmod_Torsional_Energy-OPLS-2005>
241.727600097656

> <r_mmod_Improper_Torsional_Energy-OPLS-2005>
4.4359769821167

> <r_mmod_Van_der_Waal_Energy-OPLS-2005>
160.852981567383

> <r_mmod_Electrostatic_Energy-OPLS-2005>
-436.485534667969

> <r_mmod_Solvation_Energy-OPLS-2005>
-203.457931518555

> <b_mmod_Minimization_Converged-OPLS-2005>
0

> <r_mmod_RMS_Derivative-OPLS-2005>
0.936057329177856

$$$$
19
                    3D
 Structure written by MMmdl.
179187  0  0  1  0            999 V2000
  -30.7286  -14.3663   20.7260 C   0  0  0  0  0  0
  -30.4322  -12.3022   19.3984 C   0  0  0  0  0  0
  -29.4955  -12.5386   18.1975 C   0  0  0  0  0  0
  -28.0165  -12.3795   18.6081 C   0  0  0  0  0  0
  -27.6657  -13.1989   19.8773 C   0  0  2  0  0  0
  -28.6951  -12.9099   20.9900 C   0  0  0  0  0  0
  -25.2569  -13.8141   20.5621 C   0  0  0  0  0  0
  -24.1817  -13.0446   20.9142 C   0  0  0  0  0  0
  -24.6356  -11.6904   20.8711 C   0  0  0  0  0  0
  -23.9022  -10.4300   21.0400 C   0  0  0  0  0  0
  -24.3585   -9.4213   21.9175 C   0  0  0  0  0  0
  -23.6264   -8.2248   22.0735 C   0  0  0  0  0  0
  -22.4240   -8.0279   21.3545 C   0  0  0  0  0  0
  -21.9879   -9.0241   20.4627 C   0  0  0  0  0  0
  -22.7197  -10.2126   20.3037 C   0  0  0  0  0  0
  -21.6833   -6.0716   22.5288 C   0  0  0  0  0  0
  -21.4018   -6.5626   23.8217 C   0  0  0  0  0  0
  -21.3673   -5.6772   24.9181 C   0  0  0  0  0  0
  -21.6041   -4.3037   24.7233 C   0  0  0  0  0  0
  -21.8832   -3.8125   23.4364 C   0  0  0  0  0  0
  -21.9190   -4.6949   22.3405 C   0  0  0  0  0  0
  -22.7838  -13.5255   21.1795 C   0  0  0  0  0  0
  -22.1650   -4.2141   21.0983 F   0  0  0  0  0  0
  -21.5606   -3.4525   25.7739 F   0  0  0  0  0  0
  -30.0431  -13.2217   20.4757 N   0  0  0  0  0  0
  -26.3025  -12.9308   20.3333 N   0  0  0  0  0  0
  -25.9275  -11.6484   20.5723 N   0  0  0  0  0  0
  -22.0460  -12.8259   22.0342 N   0  0  0  0  0  0
  -25.4279  -15.1860   20.4007 N   0  0  0  0  0  0
  -31.7357  -14.7155   20.1013 O   0  0  0  0  0  0
  -21.6609   -6.8882   21.4243 O   0  0  0  0  0  0
  -22.3541  -14.5574   20.6649 O   0  0  0  0  0  0
  -24.6147  -31.8726   23.2077 C   0  0  0  0  0  0
  -25.9040  -32.4863   23.8390 C   0  0  1  0  0  0
  -27.2242  -27.4421   20.0977 C   0  0  0  0  0  0
  -25.5870  -33.8649   24.2328 N   0  0  0  0  0  0
  -23.4028  -30.4951   21.5490 C   0  0  2  0  0  0
  -24.8445  -28.9643   20.1064 C   0  0  0  0  0  0
  -22.7411  -29.4698   22.4986 C   0  0  0  0  0  0
  -18.0302  -28.1384   22.8528 C   0  0  0  0  0  0
  -24.1481  -36.7331   23.2629 C   0  0  0  0  0  0
  -25.9277  -30.8389   21.3571 C   0  0  0  0  0  0
  -26.0012  -29.4714   20.7125 C   0  0  0  0  0  0
  -27.1932  -28.7150   20.7070 C   0  0  0  0  0  0
  -26.0591  -26.9679   19.4487 C   0  0  0  0  0  0
  -24.8686  -27.7147   19.4655 C   0  0  0  0  0  0
  -23.6078  -29.8284   20.1618 C   0  0  0  0  0  0
  -25.4105  -36.3135   24.0341 C   0  0  1  0  0  0
  -20.5882  -28.3681   23.1298 C   0  0  2  0  0  0
  -20.6801  -26.9449   22.5340 C   0  0  0  0  0  0
  -19.5708  -26.6372   21.5229 C   0  0  0  0  0  0
  -18.1946  -26.7893   22.1755 C   0  0  0  0  0  0
  -19.1546  -28.8861   23.2922 C   0  0  0  0  0  0
  -18.9469  -30.1469   23.8936 C   0  0  0  0  0  0
  -17.6462  -30.6592   24.0593 C   0  0  0  0  0  0
  -25.9028  -34.9503   23.5149 C   0  0  0  0  0  0
  -16.5352  -29.9112   23.6308 C   0  0  0  0  0  0
  -16.7289  -28.6525   23.0345 C   0  0  0  0  0  0
  -26.4435  -31.6620   25.0709 C   0  0  0  0  0  0
  -25.3665  -31.3714   26.1418 C   0  0  0  0  0  0
  -27.0232  -30.3082   24.6031 C   0  0  0  0  0  0
  -27.6051  -32.4289   25.7452 C   0  0  0  0  0  0
  -27.5603  -37.1823   24.8469 C   0  0  0  0  0  0
  -21.4139  -29.3074   22.3726 N   0  0  0  0  0  0
  -26.4315  -37.3812   23.9406 N   0  0  0  0  0  0
  -24.6680  -31.0828   22.0984 N   0  0  0  0  0  0
  -23.4192  -28.8250   23.3030 O   0  0  0  0  0  0
  -28.3861  -26.7021   20.1721 O   0  0  0  0  0  0
  -26.5602  -34.8948   22.4718 O   0  0  0  0  0  0
  -23.5333  -32.1442   23.7485 O   0  0  0  0  0  0
  -27.3101  -20.9182   20.7448 C   0  0  0  0  0  0
  -27.9717  -19.7442   21.1536 C   0  0  0  0  0  0
  -28.8635  -22.2538   22.0332 C   0  0  0  0  0  0
  -29.5315  -21.0835   22.4648 C   0  0  0  0  0  0
  -27.7424  -22.1856   21.1756 C   0  0  0  0  0  0
  -29.0983  -19.8100   22.0109 C   0  0  0  0  0  0
  -31.6795  -22.3344   23.0699 C   0  0  0  0  0  0
  -26.2745  -18.3499   25.1964 C   0  0  0  0  0  0
  -25.9521  -20.6342   24.1695 C   0  0  0  0  0  0
  -30.3024  -21.2835   24.9500 C   0  0  0  0  0  0
  -30.6107  -16.4218   22.1788 C   0  0  0  0  0  0
  -28.8021  -21.2258   25.3038 C   0  0  0  0  0  0
  -29.4498  -17.4088   21.9480 C   0  0  0  0  0  0
  -28.2979  -25.2685   20.0844 C   0  0  0  0  0  0
  -27.3737  -24.5989   21.1385 C   0  0  0  0  0  0
  -30.7085  -21.1996   23.4468 C   0  0  1  0  0  0
  -26.7302  -19.8187   25.2225 C   0  0  0  0  0  0
  -30.2275  -15.0827   21.7386 N   0  0  0  0  0  0
  -28.1995  -19.8995   25.0347 N   0  3  0  0  0  0
  -27.0174  -23.2727   20.7362 O   0  0  0  0  0  0
  -29.7782  -18.6960   22.4687 O   0  0  0  0  0  0
  -31.4732  -12.4384   19.0969 H   0  0  0  0  0  0
  -30.3587  -11.2710   19.7478 H   0  0  0  0  0  0
  -29.7420  -11.8482   17.3889 H   0  0  0  0  0  0
  -29.6596  -13.5420   17.8002 H   0  0  0  0  0  0
  -27.8264  -11.3205   18.7884 H   0  0  0  0  0  0
  -27.3647  -12.6691   17.7845 H   0  0  0  0  0  0
  -27.7321  -14.2561   19.6121 H   0  0  0  0  0  0
  -28.6607  -11.8565   21.2660 H   0  0  0  0  0  0
  -28.4264  -13.4420   21.9014 H   0  0  0  0  0  0
  -25.2727   -9.5689   22.4766 H   0  0  0  0  0  0
  -23.9979   -7.4624   22.7436 H   0  0  0  0  0  0
  -21.0812   -8.8738   19.8923 H   0  0  0  0  0  0
  -22.3632  -10.9661   19.6144 H   0  0  0  0  0  0
  -21.2010   -7.6121   23.9739 H   0  0  0  0  0  0
  -21.1475   -6.0481   25.9087 H   0  0  0  0  0  0
  -22.0601   -2.7591   23.2837 H   0  0  0  0  0  0
  -22.4072  -11.9927   22.4762 H   0  0  0  0  0  0
  -21.1080  -13.1309   22.2533 H   0  0  0  0  0  0
  -24.6622  -15.8410   20.5145 H   0  0  0  0  0  0
  -26.2755  -15.6221   20.0636 H   0  0  0  0  0  0
  -26.7150  -32.5570   23.1185 H   0  0  0  0  0  0
  -25.0016  -33.9809   25.0470 H   0  0  0  0  0  0
  -22.6942  -31.3146   21.4116 H   0  0  0  0  0  0
  -23.3751  -35.9656   23.3306 H   0  0  0  0  0  0
  -24.3577  -36.8907   22.2037 H   0  0  0  0  0  0
  -23.7217  -37.6541   23.6624 H   0  0  0  0  0  0
  -26.0206  -31.5954   20.5770 H   0  0  0  0  0  0
  -26.8259  -30.9066   21.9590 H   0  0  0  0  0  0
  -28.0809  -29.0989   21.1902 H   0  0  0  0  0  0
  -26.0489  -26.0190   18.9327 H   0  0  0  0  0  0
  -23.9851  -27.3320   18.9706 H   0  0  0  0  0  0
  -23.7158  -30.6021   19.4008 H   0  0  0  0  0  0
  -22.7326  -29.2446   19.8723 H   0  0  0  0  0  0
  -25.1286  -36.2027   25.0837 H   0  0  0  0  0  0
  -21.0001  -28.3222   24.1401 H   0  0  0  0  0  0
  -20.5845  -26.2281   23.3497 H   0  0  0  0  0  0
  -21.6641  -26.7559   22.1022 H   0  0  0  0  0  0
  -19.6836  -25.6263   21.1316 H   0  0  0  0  0  0
  -19.6551  -27.3133   20.6708 H   0  0  0  0  0  0
  -17.4112  -26.6524   21.4282 H   0  0  0  0  0  0
  -18.0503  -26.0121   22.9271 H   0  0  0  0  0  0
  -19.7951  -30.7314   24.2293 H   0  0  0  0  0  0
  -17.5007  -31.6253   24.5251 H   0  0  0  0  0  0
  -15.5357  -30.3024   23.7614 H   0  0  0  0  0  0
  -15.8693  -28.0865   22.7021 H   0  0  0  0  0  0
  -24.5881  -30.7037   25.7712 H   0  0  0  0  0  0
  -24.8786  -32.2848   26.4838 H   0  0  0  0  0  0
  -25.7952  -30.8887   27.0202 H   0  0  0  0  0  0
  -26.2755  -29.6896   24.1058 H   0  0  0  0  0  0
  -27.3997  -29.7273   25.4458 H   0  0  0  0  0  0
  -27.8587  -30.4452   23.9161 H   0  0  0  0  0  0
  -27.2771  -33.3622   26.2047 H   0  0  0  0  0  0
  -28.3841  -32.6783   25.0233 H   0  0  0  0  0  0
  -28.0737  -31.8376   26.5322 H   0  0  0  0  0  0
  -28.2638  -38.0109   24.7540 H   0  0  0  0  0  0
  -28.1090  -36.2653   24.6293 H   0  0  0  0  0  0
  -27.2325  -37.1463   25.8872 H   0  0  0  0  0  0
  -20.9311  -29.8788   21.6938 H   0  0  0  0  0  0
  -26.0216  -38.2904   24.1371 H   0  0  0  0  0  0
  -26.4438  -20.8413   20.1034 H   0  0  0  0  0  0
  -27.5711  -18.8027   20.8084 H   0  0  0  0  0  0
  -29.2190  -23.2045   22.3917 H   0  0  0  0  0  0
  -32.0257  -22.2379   22.0401 H   0  0  0  0  0  0
  -32.5633  -22.3193   23.7072 H   0  0  0  0  0  0
  -31.2265  -23.3188   23.1854 H   0  0  0  0  0  0
  -25.1927  -18.2722   25.3212 H   0  0  0  0  0  0
  -26.7368  -17.7693   25.9956 H   0  0  0  0  0  0
  -26.5269  -17.8734   24.2491 H   0  0  0  0  0  0
  -24.8828  -20.6159   24.3803 H   0  0  0  0  0  0
  -26.0871  -20.2241   23.1715 H   0  0  0  0  0  0
  -26.2399  -21.6840   24.1388 H   0  0  0  0  0  0
  -30.8390  -20.5184   25.5123 H   0  0  0  0  0  0
  -30.6722  -22.2230   25.3631 H   0  0  0  0  0  0
  -30.8547  -16.3732   23.2408 H   0  0  0  0  0  0
  -31.5092  -16.7682   21.6647 H   0  0  0  0  0  0
  -28.2828  -22.0168   24.7669 H   0  0  0  0  0  0
  -28.6749  -21.4542   26.3623 H   0  0  0  0  0  0
  -28.5502  -17.0525   22.4515 H   0  0  0  0  0  0
  -29.2442  -17.4397   20.8780 H   0  0  0  0  0  0
  -28.0026  -24.9799   19.0747 H   0  0  0  0  0  0
  -29.3060  -24.8737   20.2115 H   0  0  0  0  0  0
  -26.4204  -25.1183   21.1998 H   0  0  0  0  0  0
  -27.7742  -24.6743   22.1479 H   0  0  0  0  0  0
  -31.3050  -20.2926   23.3379 H   0  0  0  0  0  0
  -26.4980  -20.2189   26.2103 H   0  0  0  0  0  0
  -29.4395  -14.6659   22.2108 H   0  0  0  0  0  0
  -28.6289  -19.2443   25.6690 H   0  0  0  0  0  0
  -28.4431  -19.6149   24.0964 H   0  0  0  0  0  0
  1 25  1  0  0  0
  1 30  2  0  0  0
  1 88  1  0  0  0
  2  3  1  0  0  0
  2 25  1  0  0  0
  2 92  1  0  0  0
  2 93  1  0  0  0
  3  4  1  0  0  0
  3 94  1  0  0  0
  3 95  1  0  0  0
  4  5  1  0  0  0
  4 96  1  0  0  0
  4 97  1  0  0  0
  5  6  1  0  0  0
  5 26  1  0  0  0
  5 98  1  0  0  0
  6 25  1  0  0  0
  6 99  1  0  0  0
  6100  1  0  0  0
  7  8  2  0  0  0
  7 26  1  0  0  0
  7 29  1  0  0  0
  8  9  1  0  0  0
  8 22  1  0  0  0
  9 10  1  0  0  0
  9 27  2  0  0  0
 10 11  2  0  0  0
 10 15  1  0  0  0
 11 12  1  0  0  0
 11101  1  0  0  0
 12 13  2  0  0  0
 12102  1  0  0  0
 13 14  1  0  0  0
 13 31  1  0  0  0
 14 15  2  0  0  0
 14103  1  0  0  0
 15104  1  0  0  0
 16 17  2  0  0  0
 16 21  1  0  0  0
 16 31  1  0  0  0
 17 18  1  0  0  0
 17105  1  0  0  0
 18 19  2  0  0  0
 18106  1  0  0  0
 19 20  1  0  0  0
 19 24  1  0  0  0
 20 21  2  0  0  0
 20107  1  0  0  0
 21 23  1  0  0  0
 22 28  1  0  0  0
 22 32  2  0  0  0
 26 27  1  0  0  0
 28108  1  0  0  0
 28109  1  0  0  0
 29110  1  0  0  0
 29111  1  0  0  0
 33 34  1  0  0  0
 33 66  1  0  0  0
 33 70  2  0  0  0
 34 36  1  0  0  0
 34 59  1  0  0  0
 34112  1  0  0  0
 35 44  2  0  0  0
 35 45  1  0  0  0
 35 68  1  0  0  0
 36 56  1  0  0  0
 36113  1  0  0  0
 37 39  1  0  0  0
 37 47  1  0  0  0
 37 66  1  0  0  0
 37114  1  0  0  0
 38 43  2  0  0  0
 38 46  1  0  0  0
 38 47  1  0  0  0
 39 64  1  0  0  0
 39 67  2  0  0  0
 40 52  1  0  0  0
 40 53  2  0  0  0
 40 58  1  0  0  0
 41115  1  0  0  0
 41116  1  0  0  0
 41117  1  0  0  0
 41 48  1  0  0  0
 42 43  1  0  0  0
 42 66  1  0  0  0
 42118  1  0  0  0
 42119  1  0  0  0
 43 44  1  0  0  0
 44120  1  0  0  0
 45 46  2  0  0  0
 45121  1  0  0  0
 46122  1  0  0  0
 47123  1  0  0  0
 47124  1  0  0  0
 48 56  1  0  0  0
 48 65  1  0  0  0
 48125  1  0  0  0
 49 50  1  0  0  0
 49 53  1  0  0  0
 49 64  1  0  0  0
 49126  1  0  0  0
 50 51  1  0  0  0
 50127  1  0  0  0
 50128  1  0  0  0
 51 52  1  0  0  0
 51129  1  0  0  0
 51130  1  0  0  0
 52131  1  0  0  0
 52132  1  0  0  0
 53 54  1  0  0  0
 54 55  2  0  0  0
 54133  1  0  0  0
 55 57  1  0  0  0
 55134  1  0  0  0
 56 69  2  0  0  0
 57 58  2  0  0  0
 57135  1  0  0  0
 58136  1  0  0  0
 59 60  1  0  0  0
 59 61  1  0  0  0
 59 62  1  0  0  0
 60137  1  0  0  0
 60138  1  0  0  0
 60139  1  0  0  0
 61140  1  0  0  0
 61141  1  0  0  0
 61142  1  0  0  0
 62143  1  0  0  0
 62144  1  0  0  0
 62145  1  0  0  0
 63 65  1  0  0  0
 63146  1  0  0  0
 63147  1  0  0  0
 63148  1  0  0  0
 64149  1  0  0  0
 65150  1  0  0  0
 68 84  1  0  0  0
 71 72  2  0  0  0
 71 75  1  0  0  0
 71151  1  0  0  0
 72 76  1  0  0  0
 72152  1  0  0  0
 73 74  1  0  0  0
 73 75  2  0  0  0
 73153  1  0  0  0
 74 76  2  0  0  0
 74 86  1  0  0  0
 75 90  1  0  0  0
 76 91  1  0  0  0
 77154  1  0  0  0
 77155  1  0  0  0
 77156  1  0  0  0
 77 86  1  0  0  0
 78157  1  0  0  0
 78158  1  0  0  0
 78159  1  0  0  0
 78 87  1  0  0  0
 79 87  1  0  0  0
 79160  1  0  0  0
 79161  1  0  0  0
 79162  1  0  0  0
 80 82  1  0  0  0
 80 86  1  0  0  0
 80163  1  0  0  0
 80164  1  0  0  0
 81 83  1  0  0  0
 81 88  1  0  0  0
 81165  1  0  0  0
 81166  1  0  0  0
 82 89  1  0  0  0
 82167  1  0  0  0
 82168  1  0  0  0
 83 91  1  0  0  0
 83169  1  0  0  0
 83170  1  0  0  0
 84 85  1  0  0  0
 84171  1  0  0  0
 84172  1  0  0  0
 85 90  1  0  0  0
 85173  1  0  0  0
 85174  1  0  0  0
 86175  1  0  0  0
 87 89  1  0  0  0
 87176  1  0  0  0
 88177  1  0  0  0
 89178  1  0  0  0
 89179  1  0  0  0
M  CHG  1  89   1
M  ISO  4   1 100  68 101  84 101  88 100
M  END
> <chiral flag>
0

> <version>
0

> <s_m_source_file>
/data/baiqing/PycharmProjects/Reinvent-master-3.2/result/LINK_invent/BTK/process_docking_weight1_custom_sum_contain_oxygen_bond_distance_aromatic_linkinvent_7_9_3/rearranged_h_0144.sdf

> <i_m_source_file_index>
20

> <r_mmod_Potential_Energy-OPLS-2005>
-242.399887084961

> <r_mmod_Stretch_Energy-OPLS-2005>
38.7936401367188

> <r_mmod_Bend_Energy-OPLS-2005>
126.826438903809

> <r_mmod_Torsional_Energy-OPLS-2005>
206.934951782227

> <r_mmod_Improper_Torsional_Energy-OPLS-2005>
1.99382877349854

> <r_mmod_Van_der_Waal_Energy-OPLS-2005>
165.344696044922

> <r_mmod_Electrostatic_Energy-OPLS-2005>
-359.795288085938

> <r_mmod_Solvation_Energy-OPLS-2005>
-434.418670654297

> <b_mmod_Minimization_Converged-OPLS-2005>
0

> <r_mmod_RMS_Derivative-OPLS-2005>
3.51767420768738

$$$$
20
                    3D
 Structure written by MMmdl.
168176  0  0  1  0            999 V2000
  -30.7319  -14.3902   20.6467 C   0  0  0  0  0  0
  -30.4240  -12.2889   19.3929 C   0  0  0  0  0  0
  -29.4854  -12.5062   18.1898 C   0  0  0  0  0  0
  -28.0084  -12.3701   18.6126 C   0  0  0  0  0  0
  -27.6668  -13.1947   19.8818 C   0  0  2  0  0  0
  -28.7063  -12.9315   20.9919 C   0  0  0  0  0  0
  -25.2628  -13.8126   20.5690 C   0  0  0  0  0  0
  -24.1846  -13.0417   20.9192 C   0  0  0  0  0  0
  -24.6391  -11.6902   20.8743 C   0  0  0  0  0  0
  -23.9059  -10.4284   21.0411 C   0  0  0  0  0  0
  -24.3602   -9.4212   21.9193 C   0  0  0  0  0  0
  -23.6277   -8.2233   22.0761 C   0  0  0  0  0  0
  -22.4265   -8.0271   21.3547 C   0  0  0  0  0  0
  -21.9900   -9.0252   20.4646 C   0  0  0  0  0  0
  -22.7224  -10.2132   20.3061 C   0  0  0  0  0  0
  -21.6855   -6.0729   22.5279 C   0  0  0  0  0  0
  -21.4007   -6.5635   23.8206 C   0  0  0  0  0  0
  -21.3660   -5.6786   24.9169 C   0  0  0  0  0  0
  -21.6044   -4.3051   24.7225 C   0  0  0  0  0  0
  -21.8820   -3.8145   23.4342 C   0  0  0  0  0  0
  -21.9189   -4.6958   22.3401 C   0  0  0  0  0  0
  -22.7880  -13.5264   21.1833 C   0  0  0  0  0  0
  -22.1662   -4.2145   21.0977 F   0  0  0  0  0  0
  -21.5631   -3.4535   25.7739 F   0  0  0  0  0  0
  -30.0430  -13.2388   20.4471 N   0  0  0  0  0  0
  -26.3049  -12.9278   20.3386 N   0  0  0  0  0  0
  -25.9316  -11.6456   20.5773 N   0  0  0  0  0  0
  -22.0497  -12.8245   22.0385 N   0  0  0  0  0  0
  -25.4356  -15.1828   20.4072 N   0  0  0  0  0  0
  -31.8021  -14.6582   20.0924 O   0  0  0  0  0  0
  -21.6628   -6.8868   21.4242 O   0  0  0  0  0  0
  -22.3588  -14.5568   20.6694 O   0  0  0  0  0  0
  -24.6089  -31.8709   23.2106 C   0  0  0  0  0  0
  -25.8981  -32.4840   23.8390 C   0  0  1  0  0  0
  -27.2496  -27.4881   20.0958 C   0  0  0  0  0  0
  -25.5847  -33.8627   24.2336 N   0  0  0  0  0  0
  -23.3983  -30.4910   21.5447 C   0  0  2  0  0  0
  -24.8529  -28.9618   20.1132 C   0  0  0  0  0  0
  -22.7388  -29.4667   22.4967 C   0  0  0  0  0  0
  -18.0279  -28.1406   22.8480 C   0  0  0  0  0  0
  -24.1490  -36.7355   23.2644 C   0  0  0  0  0  0
  -25.9187  -30.8560   21.3520 C   0  0  0  0  0  0
  -26.0015  -29.4842   20.7212 C   0  0  0  0  0  0
  -27.2033  -28.7471   20.7244 C   0  0  0  0  0  0
  -26.0966  -26.9700   19.4777 C   0  0  0  0  0  0
  -24.8929  -27.7000   19.4903 C   0  0  0  0  0  0
  -23.6067  -29.8181   20.1604 C   0  0  0  0  0  0
  -25.4101  -36.3134   24.0344 C   0  0  1  0  0  0
  -20.5846  -28.3659   23.1346 C   0  0  2  0  0  0
  -20.6747  -26.9387   22.5438 C   0  0  0  0  0  0
  -19.5716  -26.6402   21.5237 C   0  0  0  0  0  0
  -18.1894  -26.7942   22.1636 C   0  0  0  0  0  0
  -19.1515  -28.8852   23.2909 C   0  0  0  0  0  0
  -18.9418  -30.1451   23.8917 C   0  0  0  0  0  0
  -17.6416  -30.6569   24.0592 C   0  0  0  0  0  0
  -25.9016  -34.9481   23.5141 C   0  0  0  0  0  0
  -16.5321  -29.9081   23.6322 C   0  0  0  0  0  0
  -16.7269  -28.6528   23.0308 C   0  0  0  0  0  0
  -26.4427  -31.6570   25.0675 C   0  0  0  0  0  0
  -25.3719  -31.3582   26.1442 C   0  0  0  0  0  0
  -27.0237  -30.3027   24.5945 C   0  0  0  0  0  0
  -27.6057  -32.4239   25.7406 C   0  0  0  0  0  0
  -27.5572  -37.1818   24.8458 C   0  0  0  0  0  0
  -21.4101  -29.3069   22.3767 N   0  0  0  0  0  0
  -26.4289  -37.3813   23.9414 N   0  0  0  0  0  0
  -24.6594  -31.0884   22.0942 N   0  0  0  0  0  0
  -23.4193  -28.8186   23.2963 O   0  0  0  0  0  0
  -28.4108  -26.7683   20.0512 O   0  0  0  0  0  0
  -26.5603  -34.8933   22.4710 O   0  0  0  0  0  0
  -23.5284  -32.1423   23.7531 O   0  0  0  0  0  0
  -29.9683  -20.9312   18.7999 C   0  0  0  0  0  0
  -27.5809  -21.6676   20.0616 C   0  0  0  0  0  0
  -29.0041  -19.9443   19.0934 C   0  0  0  0  0  0
  -29.7131  -22.2878   19.0630 C   0  0  0  0  0  0
  -27.7649  -20.3155   19.6765 C   0  0  0  0  0  0
  -28.5475  -22.6516   19.7812 C   0  0  0  0  0  0
  -29.9733  -23.9814   17.4823 C   0  0  0  0  0  0
  -25.5487  -19.7138   20.4349 C   0  0  0  0  0  0
  -29.3023  -18.4987   18.7112 C   0  0  0  0  0  0
  -30.6255  -16.6032   21.8143 C   0  0  0  0  0  0
  -30.6005  -17.6541   20.6797 C   0  0  0  0  0  0
  -28.6620  -26.0095   21.2314 C   0  0  0  0  0  0
  -29.2891  -24.6821   20.8063 C   0  0  0  0  0  0
  -30.1120  -15.2871   21.4265 N   0  0  0  0  0  0
  -29.3515  -17.6031   19.8840 N   0  3  0  0  0  0
  -30.5708  -23.2136   18.5275 O   0  0  0  0  0  0
  -26.7935  -19.3417   19.8341 O   0  0  0  0  0  0
  -28.2547  -23.9377   20.1658 O   0  0  0  0  0  0
  -31.4652  -12.4042   19.0864 H   0  0  0  0  0  0
  -30.3380  -11.2675   19.7661 H   0  0  0  0  0  0
  -29.7129  -11.7825   17.4059 H   0  0  0  0  0  0
  -29.6583  -13.4921   17.7550 H   0  0  0  0  0  0
  -27.8158  -11.3118   18.7985 H   0  0  0  0  0  0
  -27.3523  -12.6557   17.7884 H   0  0  0  0  0  0
  -27.7245  -14.2470   19.6077 H   0  0  0  0  0  0
  -28.6765  -11.8841   21.2939 H   0  0  0  0  0  0
  -28.4604  -13.4899   21.8945 H   0  0  0  0  0  0
  -25.2751   -9.5674   22.4778 H   0  0  0  0  0  0
  -23.9985   -7.4624   22.7486 H   0  0  0  0  0  0
  -21.0834   -8.8773   19.8948 H   0  0  0  0  0  0
  -22.3698  -10.9673   19.6168 H   0  0  0  0  0  0
  -21.1998   -7.6142   23.9713 H   0  0  0  0  0  0
  -21.1482   -6.0515   25.9071 H   0  0  0  0  0  0
  -22.0599   -2.7610   23.2847 H   0  0  0  0  0  0
  -22.4071  -11.9887   22.4744 H   0  0  0  0  0  0
  -21.1129  -13.1301   22.2576 H   0  0  0  0  0  0
  -24.6676  -15.8376   20.5097 H   0  0  0  0  0  0
  -26.2722  -15.6120   20.0373 H   0  0  0  0  0  0
  -26.7062  -32.5584   23.1185 H   0  0  0  0  0  0
  -25.0001  -33.9783   25.0477 H   0  0  0  0  0  0
  -22.6838  -31.3045   21.3967 H   0  0  0  0  0  0
  -23.3730  -35.9702   23.3296 H   0  0  0  0  0  0
  -24.3634  -36.8995   22.2069 H   0  0  0  0  0  0
  -23.7240  -37.6558   23.6663 H   0  0  0  0  0  0
  -26.0144  -31.6104   20.5689 H   0  0  0  0  0  0
  -26.8160  -30.9320   21.9542 H   0  0  0  0  0  0
  -28.0892  -29.1505   21.1936 H   0  0  0  0  0  0
  -26.1429  -26.0122   18.9819 H   0  0  0  0  0  0
  -24.0160  -27.2925   19.0067 H   0  0  0  0  0  0
  -23.7009  -30.5891   19.3926 H   0  0  0  0  0  0
  -22.7367  -29.2271   19.8717 H   0  0  0  0  0  0
  -25.1259  -36.2015   25.0827 H   0  0  0  0  0  0
  -20.9943  -28.3193   24.1475 H   0  0  0  0  0  0
  -20.5650  -26.2254   23.3612 H   0  0  0  0  0  0
  -21.6601  -26.7432   22.1212 H   0  0  0  0  0  0
  -19.6873  -25.6334   21.1227 H   0  0  0  0  0  0
  -19.6641  -27.3249   20.6777 H   0  0  0  0  0  0
  -17.4161  -26.6699   21.4043 H   0  0  0  0  0  0
  -18.0262  -26.0096   22.9023 H   0  0  0  0  0  0
  -19.7885  -30.7262   24.2291 H   0  0  0  0  0  0
  -17.4972  -31.6246   24.5195 H   0  0  0  0  0  0
  -15.5322  -30.2999   23.7626 H   0  0  0  0  0  0
  -15.8669  -28.0887   22.6976 H   0  0  0  0  0  0
  -24.5962  -30.6853   25.7779 H   0  0  0  0  0  0
  -24.8824  -32.2682   26.4886 H   0  0  0  0  0  0
  -25.8128  -30.8771   27.0179 H   0  0  0  0  0  0
  -26.2709  -29.6781   24.1125 H   0  0  0  0  0  0
  -27.4213  -29.7237   25.4290 H   0  0  0  0  0  0
  -27.8442  -30.4417   23.8915 H   0  0  0  0  0  0
  -27.2753  -33.3571   26.1956 H   0  0  0  0  0  0
  -28.3848  -32.6716   25.0195 H   0  0  0  0  0  0
  -28.0714  -31.8337   26.5313 H   0  0  0  0  0  0
  -28.2579  -38.0133   24.7543 H   0  0  0  0  0  0
  -28.1057  -36.2657   24.6197 H   0  0  0  0  0  0
  -27.2299  -37.1391   25.8866 H   0  0  0  0  0  0
  -20.9210  -29.8890   21.7092 H   0  0  0  0  0  0
  -26.0168  -38.2884   24.1405 H   0  0  0  0  0  0
  -30.8887  -20.6629   18.2991 H   0  0  0  0  0  0
  -26.6826  -21.9916   20.5621 H   0  0  0  0  0  0
  -29.2042  -24.6623   17.8504 H   0  0  0  0  0  0
  -29.5237  -23.3371   16.7268 H   0  0  0  0  0  0
  -30.7281  -24.5853   16.9803 H   0  0  0  0  0  0
  -24.7963  -18.9315   20.3037 H   0  0  0  0  0  0
  -25.1194  -20.6169   19.9908 H   0  0  0  0  0  0
  -25.6849  -19.8666   21.5083 H   0  0  0  0  0  0
  -30.2437  -18.4312   18.1616 H   0  0  0  0  0  0
  -28.5271  -18.1544   18.0259 H   0  0  0  0  0  0
  -30.0124  -16.9571   22.6431 H   0  0  0  0  0  0
  -31.6366  -16.5019   22.2138 H   0  0  0  0  0  0
  -31.4526  -17.4843   20.0192 H   0  0  0  0  0  0
  -30.7351  -18.6523   21.1017 H   0  0  0  0  0  0
  -29.3455  -26.5613   21.8806 H   0  0  0  0  0  0
  -27.7543  -25.8116   21.8075 H   0  0  0  0  0  0
  -29.6601  -24.1430   21.6798 H   0  0  0  0  0  0
  -30.1448  -24.8892   20.1639 H   0  0  0  0  0  0
  -29.2462  -14.9849   21.8525 H   0  0  0  0  0  0
  -29.2563  -16.6635   19.5405 H   0  0  0  0  0  0
  -28.5548  -17.8085   20.4641 H   0  0  0  0  0  0
  1 25  1  0  0  0
  1 30  2  0  0  0
  1 84  1  0  0  0
  2  3  1  0  0  0
  2 25  1  0  0  0
  2 89  1  0  0  0
  2 90  1  0  0  0
  3  4  1  0  0  0
  3 91  1  0  0  0
  3 92  1  0  0  0
  4  5  1  0  0  0
  4 93  1  0  0  0
  4 94  1  0  0  0
  5  6  1  0  0  0
  5 26  1  0  0  0
  5 95  1  0  0  0
  6 25  1  0  0  0
  6 96  1  0  0  0
  6 97  1  0  0  0
  7  8  2  0  0  0
  7 26  1  0  0  0
  7 29  1  0  0  0
  8  9  1  0  0  0
  8 22  1  0  0  0
  9 10  1  0  0  0
  9 27  2  0  0  0
 10 11  2  0  0  0
 10 15  1  0  0  0
 11 12  1  0  0  0
 11 98  1  0  0  0
 12 13  2  0  0  0
 12 99  1  0  0  0
 13 14  1  0  0  0
 13 31  1  0  0  0
 14 15  2  0  0  0
 14100  1  0  0  0
 15101  1  0  0  0
 16 17  2  0  0  0
 16 21  1  0  0  0
 16 31  1  0  0  0
 17 18  1  0  0  0
 17102  1  0  0  0
 18 19  2  0  0  0
 18103  1  0  0  0
 19 20  1  0  0  0
 19 24  1  0  0  0
 20 21  2  0  0  0
 20104  1  0  0  0
 21 23  1  0  0  0
 22 28  1  0  0  0
 22 32  2  0  0  0
 26 27  1  0  0  0
 28105  1  0  0  0
 28106  1  0  0  0
 29107  1  0  0  0
 29108  1  0  0  0
 33 34  1  0  0  0
 33 66  1  0  0  0
 33 70  2  0  0  0
 34 36  1  0  0  0
 34 59  1  0  0  0
 34109  1  0  0  0
 35 44  2  0  0  0
 35 45  1  0  0  0
 35 68  1  0  0  0
 36 56  1  0  0  0
 36110  1  0  0  0
 37 39  1  0  0  0
 37 47  1  0  0  0
 37 66  1  0  0  0
 37111  1  0  0  0
 38 43  2  0  0  0
 38 46  1  0  0  0
 38 47  1  0  0  0
 39 64  1  0  0  0
 39 67  2  0  0  0
 40 52  1  0  0  0
 40 53  2  0  0  0
 40 58  1  0  0  0
 41112  1  0  0  0
 41113  1  0  0  0
 41114  1  0  0  0
 41 48  1  0  0  0
 42 43  1  0  0  0
 42 66  1  0  0  0
 42115  1  0  0  0
 42116  1  0  0  0
 43 44  1  0  0  0
 44117  1  0  0  0
 45 46  2  0  0  0
 45118  1  0  0  0
 46119  1  0  0  0
 47120  1  0  0  0
 47121  1  0  0  0
 48 56  1  0  0  0
 48 65  1  0  0  0
 48122  1  0  0  0
 49 50  1  0  0  0
 49 53  1  0  0  0
 49 64  1  0  0  0
 49123  1  0  0  0
 50 51  1  0  0  0
 50124  1  0  0  0
 50125  1  0  0  0
 51 52  1  0  0  0
 51126  1  0  0  0
 51127  1  0  0  0
 52128  1  0  0  0
 52129  1  0  0  0
 53 54  1  0  0  0
 54 55  2  0  0  0
 54130  1  0  0  0
 55 57  1  0  0  0
 55131  1  0  0  0
 56 69  2  0  0  0
 57 58  2  0  0  0
 57132  1  0  0  0
 58133  1  0  0  0
 59 60  1  0  0  0
 59 61  1  0  0  0
 59 62  1  0  0  0
 60134  1  0  0  0
 60135  1  0  0  0
 60136  1  0  0  0
 61137  1  0  0  0
 61138  1  0  0  0
 61139  1  0  0  0
 62140  1  0  0  0
 62141  1  0  0  0
 62142  1  0  0  0
 63 65  1  0  0  0
 63143  1  0  0  0
 63144  1  0  0  0
 63145  1  0  0  0
 64146  1  0  0  0
 65147  1  0  0  0
 68 82  1  0  0  0
 71 73  2  0  0  0
 71 74  1  0  0  0
 71148  1  0  0  0
 72 75  2  0  0  0
 72 76  1  0  0  0
 72149  1  0  0  0
 73 75  1  0  0  0
 73 79  1  0  0  0
 74 76  2  0  0  0
 74 86  1  0  0  0
 75 87  1  0  0  0
 76 88  1  0  0  0
 77 86  1  0  0  0
 77150  1  0  0  0
 77151  1  0  0  0
 77152  1  0  0  0
 78 87  1  0  0  0
 78153  1  0  0  0
 78154  1  0  0  0
 78155  1  0  0  0
 79 85  1  0  0  0
 79156  1  0  0  0
 79157  1  0  0  0
 80 81  1  0  0  0
 80 84  1  0  0  0
 80158  1  0  0  0
 80159  1  0  0  0
 81 85  1  0  0  0
 81160  1  0  0  0
 81161  1  0  0  0
 82 83  1  0  0  0
 82162  1  0  0  0
 82163  1  0  0  0
 83 88  1  0  0  0
 83164  1  0  0  0
 83165  1  0  0  0
 84166  1  0  0  0
 85167  1  0  0  0
 85168  1  0  0  0
M  CHG  1  85   1
M  ISO  4   1 100  68 101  82 101  84 100
M  END
> <chiral flag>
0

> <version>
0

> <s_m_source_file>
/data/baiqing/PycharmProjects/Reinvent-master-3.2/result/LINK_invent/BTK/process_docking_weight1_custom_sum_contain_oxygen_bond_distance_aromatic_linkinvent_7_9_3/rearranged_h_0144.sdf

> <i_m_source_file_index>
21

> <r_mmod_Potential_Energy-OPLS-2005>
-273.537933349609

> <r_mmod_Stretch_Energy-OPLS-2005>
34.3715324401855

> <r_mmod_Bend_Energy-OPLS-2005>
101.603172302246

> <r_mmod_Torsional_Energy-OPLS-2005>
295.084594726562

> <r_mmod_Improper_Torsional_Energy-OPLS-2005>
3.15568852424622

> <r_mmod_Van_der_Waal_Energy-OPLS-2005>
154.272155761719

> <r_mmod_Electrostatic_Energy-OPLS-2005>
-411.728149414062

> <r_mmod_Solvation_Energy-OPLS-2005>
-456.693206787109

> <b_mmod_Minimization_Converged-OPLS-2005>
0

> <r_mmod_RMS_Derivative-OPLS-2005>
4.95765924453735

$$$$
21
                    3D
 Structure written by MMmdl.
164173  0  0  1  0            999 V2000
  -30.6950  -14.4557   20.5925 C   0  0  0  0  0  0
  -30.4325  -12.3002   19.4202 C   0  0  0  0  0  0
  -29.4987  -12.5037   18.2079 C   0  0  0  0  0  0
  -28.0193  -12.3609   18.6186 C   0  0  0  0  0  0
  -27.6665  -13.1972   19.8775 C   0  0  2  0  0  0
  -28.7062  -12.9601   20.9971 C   0  0  0  0  0  0
  -25.2625  -13.8143   20.5641 C   0  0  0  0  0  0
  -24.1862  -13.0448   20.9148 C   0  0  0  0  0  0
  -24.6394  -11.6904   20.8728 C   0  0  0  0  0  0
  -23.9045  -10.4303   21.0413 C   0  0  0  0  0  0
  -24.3604   -9.4214   21.9189 C   0  0  0  0  0  0
  -23.6285   -8.2244   22.0758 C   0  0  0  0  0  0
  -22.4267   -8.0283   21.3546 C   0  0  0  0  0  0
  -21.9897   -9.0255   20.4649 C   0  0  0  0  0  0
  -22.7221  -10.2136   20.3063 C   0  0  0  0  0  0
  -21.6844   -6.0738   22.5278 C   0  0  0  0  0  0
  -21.4012   -6.5645   23.8208 C   0  0  0  0  0  0
  -21.3658   -5.6799   24.9170 C   0  0  0  0  0  0
  -21.6037   -4.3059   24.7223 C   0  0  0  0  0  0
  -21.8821   -3.8152   23.4343 C   0  0  0  0  0  0
  -21.9191   -4.6967   22.3401 C   0  0  0  0  0  0
  -22.7892  -13.5267   21.1800 C   0  0  0  0  0  0
  -22.1665   -4.2158   21.0976 F   0  0  0  0  0  0
  -21.5612   -3.4544   25.7732 F   0  0  0  0  0  0
  -30.0414  -13.2713   20.4530 N   0  0  0  0  0  0
  -26.3048  -12.9289   20.3352 N   0  0  0  0  0  0
  -25.9317  -11.6465   20.5750 N   0  0  0  0  0  0
  -22.0526  -12.8279   22.0362 N   0  0  0  0  0  0
  -25.4399  -15.1856   20.4017 N   0  0  0  0  0  0
  -31.8034  -14.6835   20.0985 O   0  0  0  0  0  0
  -21.6638   -6.8878   21.4237 O   0  0  0  0  0  0
  -22.3592  -14.5583   20.6649 O   0  0  0  0  0  0
  -24.6163  -31.8681   23.2119 C   0  0  0  0  0  0
  -25.9056  -32.4819   23.8414 C   0  0  1  0  0  0
  -27.2264  -27.4166   20.1023 C   0  0  0  0  0  0
  -25.5906  -33.8620   24.2338 N   0  0  0  0  0  0
  -23.4042  -30.4946   21.5533 C   0  0  2  0  0  0
  -24.8477  -28.9637   20.1137 C   0  0  0  0  0  0
  -22.7422  -29.4669   22.5001 C   0  0  0  0  0  0
  -18.0285  -28.1353   22.8505 C   0  0  0  0  0  0
  -24.1482  -36.7318   23.2636 C   0  0  0  0  0  0
  -25.9351  -30.8270   21.3703 C   0  0  0  0  0  0
  -26.0084  -29.4611   20.7174 C   0  0  0  0  0  0
  -27.1978  -28.6954   20.7106 C   0  0  0  0  0  0
  -26.0529  -26.9587   19.4559 C   0  0  0  0  0  0
  -24.8666  -27.7123   19.4785 C   0  0  0  0  0  0
  -23.6113  -29.8320   20.1660 C   0  0  0  0  0  0
  -25.4104  -36.3111   24.0340 C   0  0  1  0  0  0
  -20.5873  -28.3677   23.1311 C   0  0  2  0  0  0
  -20.6799  -26.9393   22.5458 C   0  0  0  0  0  0
  -19.5782  -26.6300   21.5281 C   0  0  0  0  0  0
  -18.1947  -26.7893   22.1655 C   0  0  0  0  0  0
  -19.1529  -28.8831   23.2893 C   0  0  0  0  0  0
  -18.9444  -30.1444   23.8877 C   0  0  0  0  0  0
  -17.6444  -30.6580   24.0512 C   0  0  0  0  0  0
  -25.9036  -34.9474   23.5134 C   0  0  0  0  0  0
  -16.5339  -29.9063   23.6299 C   0  0  0  0  0  0
  -16.7272  -28.6466   23.0355 C   0  0  0  0  0  0
  -26.4472  -31.6603   25.0749 C   0  0  0  0  0  0
  -25.3727  -31.3733   26.1495 C   0  0  0  0  0  0
  -27.0298  -30.3038   24.6143 C   0  0  0  0  0  0
  -27.6047  -32.4325   25.7507 C   0  0  0  0  0  0
  -27.5578  -37.1819   24.8467 C   0  0  0  0  0  0
  -21.4156  -29.3051   22.3719 N   0  0  0  0  0  0
  -26.4293  -37.3796   23.9408 N   0  0  0  0  0  0
  -24.6703  -31.0777   22.1024 N   0  0  0  0  0  0
  -23.4186  -28.8189   23.3031 O   0  0  0  0  0  0
  -28.3978  -26.6793   20.1304 O   0  0  0  0  0  0
  -26.5593  -34.8920   22.4693 O   0  0  0  0  0  0
  -23.5355  -32.1443   23.7493 O   0  0  0  0  0  0
  -28.0390  -22.0905   21.6687 C   0  0  0  0  0  0
  -25.3616  -22.4137   22.2991 C   0  0  0  0  0  0
  -25.9274  -21.1234   22.1351 C   0  0  0  0  0  0
  -27.4695  -23.4153   21.8254 C   0  0  0  0  0  0
  -26.0916  -23.5914   22.1801 C   0  0  0  0  0  0
  -27.2654  -20.8914   21.8338 C   0  0  0  0  0  0
  -23.9877  -21.8764   22.6076 C   0  0  0  0  0  0
  -24.6274  -20.4158   22.4289 C   0  0  0  0  0  0
  -25.4276  -24.9325   22.4346 C   0  0  0  0  0  0
  -28.3414  -24.6662   21.6259 C   0  0  0  0  0  0
  -28.9369  -17.6444   21.4481 C   0  0  0  0  0  0
  -30.2463  -16.8684   21.1801 C   0  0  0  0  0  0
  -28.3243  -25.2348   20.1824 C   0  0  0  0  0  0
  -29.0032  -19.1924   21.4844 C   0  0  0  0  0  0
  -29.9752  -15.4236   21.1836 N   0  0  0  0  0  0
  -27.6555  -19.5737   21.7353 O   0  0  0  0  0  0
  -31.4759  -12.4102   19.1181 H   0  0  0  0  0  0
  -30.3411  -11.2848   19.8104 H   0  0  0  0  0  0
  -29.7386  -11.7847   17.4235 H   0  0  0  0  0  0
  -29.6656  -13.4916   17.7762 H   0  0  0  0  0  0
  -27.8272  -11.3046   18.8136 H   0  0  0  0  0  0
  -27.3705  -12.6355   17.7868 H   0  0  0  0  0  0
  -27.7168  -14.2465   19.5855 H   0  0  0  0  0  0
  -28.6825  -11.9182   21.3215 H   0  0  0  0  0  0
  -28.4619  -13.5410   21.8875 H   0  0  0  0  0  0
  -25.2753   -9.5688   22.4755 H   0  0  0  0  0  0
  -23.9995   -7.4638   22.7482 H   0  0  0  0  0  0
  -21.0818   -8.8769   19.8970 H   0  0  0  0  0  0
  -22.3671  -10.9673   19.6171 H   0  0  0  0  0  0
  -21.2016   -7.6155   23.9709 H   0  0  0  0  0  0
  -21.1474   -6.0533   25.9069 H   0  0  0  0  0  0
  -22.0601   -2.7619   23.2838 H   0  0  0  0  0  0
  -22.4145  -11.9948   22.4768 H   0  0  0  0  0  0
  -21.1153  -13.1322   22.2564 H   0  0  0  0  0  0
  -24.6788  -15.8475   20.5072 H   0  0  0  0  0  0
  -26.2967  -15.6135   20.0753 H   0  0  0  0  0  0
  -26.7120  -32.5514   23.1170 H   0  0  0  0  0  0
  -25.0053  -33.9796   25.0479 H   0  0  0  0  0  0
  -22.6926  -31.3123   21.4176 H   0  0  0  0  0  0
  -23.3737  -35.9662   23.3319 H   0  0  0  0  0  0
  -24.3569  -36.8909   22.2046 H   0  0  0  0  0  0
  -23.7253  -37.6539   23.6632 H   0  0  0  0  0  0
  -26.0512  -31.5920   20.6015 H   0  0  0  0  0  0
  -26.8218  -30.8766   21.9907 H   0  0  0  0  0  0
  -28.0903  -29.0765   21.1877 H   0  0  0  0  0  0
  -26.0159  -26.0215   18.9223 H   0  0  0  0  0  0
  -23.9805  -27.3294   18.9914 H   0  0  0  0  0  0
  -23.7207  -30.6097   19.4092 H   0  0  0  0  0  0
  -22.7338  -29.2552   19.8686 H   0  0  0  0  0  0
  -25.1280  -36.1979   25.0837 H   0  0  0  0  0  0
  -20.9954  -28.3267   24.1427 H   0  0  0  0  0  0
  -21.6676  -26.7447   22.1255 H   0  0  0  0  0  0
  -20.5723  -26.2296   23.3675 H   0  0  0  0  0  0
  -19.6942  -25.6186   21.1378 H   0  0  0  0  0  0
  -19.6738  -27.3032   20.6754 H   0  0  0  0  0  0
  -17.4251  -26.6660   21.4018 H   0  0  0  0  0  0
  -18.0330  -26.0052   22.9068 H   0  0  0  0  0  0
  -19.7905  -30.7255   24.2257 H   0  0  0  0  0  0
  -17.4985  -31.6278   24.5054 H   0  0  0  0  0  0
  -15.5335  -30.2966   23.7607 H   0  0  0  0  0  0
  -15.8677  -28.0784   22.7058 H   0  0  0  0  0  0
  -24.5889  -30.7089   25.7839 H   0  0  0  0  0  0
  -24.8929  -32.2899   26.4938 H   0  0  0  0  0  0
  -25.8067  -30.8905   27.0257 H   0  0  0  0  0  0
  -26.2855  -29.6820   24.1151 H   0  0  0  0  0  0
  -27.4005  -29.7266   25.4624 H   0  0  0  0  0  0
  -27.8717  -30.4356   23.9341 H   0  0  0  0  0  0
  -27.2659  -33.3606   26.2128 H   0  0  0  0  0  0
  -28.3827  -32.6922   25.0314 H   0  0  0  0  0  0
  -28.0743  -31.8423   26.5388 H   0  0  0  0  0  0
  -28.2617  -38.0093   24.7490 H   0  0  0  0  0  0
  -28.1051  -36.2632   24.6316 H   0  0  0  0  0  0
  -27.2292  -37.1498   25.8868 H   0  0  0  0  0  0
  -20.9328  -29.8815   21.6975 H   0  0  0  0  0  0
  -26.0181  -38.2878   24.1392 H   0  0  0  0  0  0
  -29.0876  -22.0053   21.4227 H   0  0  0  0  0  0
  -23.2527  -22.1409   21.8468 H   0  0  0  0  0  0
  -23.6577  -22.1073   23.6205 H   0  0  0  0  0  0
  -24.6628  -19.8251   23.3448 H   0  0  0  0  0  0
  -24.2545  -19.8538   21.5729 H   0  0  0  0  0  0
  -25.5205  -25.5785   21.5686 H   0  0  0  0  0  0
  -25.8775  -25.4343   23.2912 H   0  0  0  0  0  0
  -24.3639  -24.8123   22.6411 H   0  0  0  0  0  0
  -29.3686  -24.4427   21.9166 H   0  0  0  0  0  0
  -28.0190  -25.4387   22.3229 H   0  0  0  0  0  0
  -28.5218  -17.2997   22.3974 H   0  0  0  0  0  0
  -28.2086  -17.3632   20.6853 H   0  0  0  0  0  0
  -30.9934  -17.0950   21.9419 H   0  0  0  0  0  0
  -30.6653  -17.1685   20.2180 H   0  0  0  0  0  0
  -27.4774  -24.8216   19.6431 H   0  0  0  0  0  0
  -29.1884  -24.8392   19.6480 H   0  0  0  0  0  0
  -29.3545  -19.5985   20.5348 H   0  0  0  0  0  0
  -29.6615  -19.5426   22.2803 H   0  0  0  0  0  0
  -29.0848  -15.1320   21.5582 H   0  0  0  0  0  0
  1 25  1  0  0  0
  1 30  2  0  0  0
  1 85  1  0  0  0
  2  3  1  0  0  0
  2 25  1  0  0  0
  2 87  1  0  0  0
  2 88  1  0  0  0
  3  4  1  0  0  0
  3 89  1  0  0  0
  3 90  1  0  0  0
  4  5  1  0  0  0
  4 91  1  0  0  0
  4 92  1  0  0  0
  5  6  1  0  0  0
  5 26  1  0  0  0
  5 93  1  0  0  0
  6 25  1  0  0  0
  6 94  1  0  0  0
  6 95  1  0  0  0
  7  8  2  0  0  0
  7 26  1  0  0  0
  7 29  1  0  0  0
  8  9  1  0  0  0
  8 22  1  0  0  0
  9 10  1  0  0  0
  9 27  2  0  0  0
 10 11  2  0  0  0
 10 15  1  0  0  0
 11 12  1  0  0  0
 11 96  1  0  0  0
 12 13  2  0  0  0
 12 97  1  0  0  0
 13 14  1  0  0  0
 13 31  1  0  0  0
 14 15  2  0  0  0
 14 98  1  0  0  0
 15 99  1  0  0  0
 16 17  2  0  0  0
 16 21  1  0  0  0
 16 31  1  0  0  0
 17 18  1  0  0  0
 17100  1  0  0  0
 18 19  2  0  0  0
 18101  1  0  0  0
 19 20  1  0  0  0
 19 24  1  0  0  0
 20 21  2  0  0  0
 20102  1  0  0  0
 21 23  1  0  0  0
 22 28  1  0  0  0
 22 32  2  0  0  0
 26 27  1  0  0  0
 28103  1  0  0  0
 28104  1  0  0  0
 29105  1  0  0  0
 29106  1  0  0  0
 33 34  1  0  0  0
 33 66  1  0  0  0
 33 70  2  0  0  0
 34 36  1  0  0  0
 34 59  1  0  0  0
 34107  1  0  0  0
 35 44  2  0  0  0
 35 45  1  0  0  0
 35 68  1  0  0  0
 36 56  1  0  0  0
 36108  1  0  0  0
 37 39  1  0  0  0
 37 47  1  0  0  0
 37 66  1  0  0  0
 37109  1  0  0  0
 38 43  2  0  0  0
 38 46  1  0  0  0
 38 47  1  0  0  0
 39 64  1  0  0  0
 39 67  2  0  0  0
 40 52  1  0  0  0
 40 53  2  0  0  0
 40 58  1  0  0  0
 41110  1  0  0  0
 41111  1  0  0  0
 41112  1  0  0  0
 41 48  1  0  0  0
 42 43  1  0  0  0
 42 66  1  0  0  0
 42113  1  0  0  0
 42114  1  0  0  0
 43 44  1  0  0  0
 44115  1  0  0  0
 45 46  2  0  0  0
 45116  1  0  0  0
 46117  1  0  0  0
 47118  1  0  0  0
 47119  1  0  0  0
 48 56  1  0  0  0
 48 65  1  0  0  0
 48120  1  0  0  0
 49 50  1  0  0  0
 49 53  1  0  0  0
 49 64  1  0  0  0
 49121  1  0  0  0
 50 51  1  0  0  0
 50122  1  0  0  0
 50123  1  0  0  0
 51 52  1  0  0  0
 51124  1  0  0  0
 51125  1  0  0  0
 52126  1  0  0  0
 52127  1  0  0  0
 53 54  1  0  0  0
 54 55  2  0  0  0
 54128  1  0  0  0
 55 57  1  0  0  0
 55129  1  0  0  0
 56 69  2  0  0  0
 57 58  2  0  0  0
 57130  1  0  0  0
 58131  1  0  0  0
 59 60  1  0  0  0
 59 61  1  0  0  0
 59 62  1  0  0  0
 60132  1  0  0  0
 60133  1  0  0  0
 60134  1  0  0  0
 61135  1  0  0  0
 61136  1  0  0  0
 61137  1  0  0  0
 62138  1  0  0  0
 62139  1  0  0  0
 62140  1  0  0  0
 63 65  1  0  0  0
 63141  1  0  0  0
 63142  1  0  0  0
 63143  1  0  0  0
 64144  1  0  0  0
 65145  1  0  0  0
 68 83  1  0  0  0
 71 74  2  0  0  0
 71 76  1  0  0  0
 71146  1  0  0  0
 72 73  1  0  0  0
 72 75  2  0  0  0
 72 77  1  0  0  0
 73 76  2  0  0  0
 73 78  1  0  0  0
 74 75  1  0  0  0
 74 80  1  0  0  0
 75 79  1  0  0  0
 76 86  1  0  0  0
 77 78  1  0  0  0
 77147  1  0  0  0
 77148  1  0  0  0
 78149  1  0  0  0
 78150  1  0  0  0
 79151  1  0  0  0
 79152  1  0  0  0
 79153  1  0  0  0
 80 83  1  0  0  0
 80154  1  0  0  0
 80155  1  0  0  0
 81 82  1  0  0  0
 81 84  1  0  0  0
 81156  1  0  0  0
 81157  1  0  0  0
 82 85  1  0  0  0
 82158  1  0  0  0
 82159  1  0  0  0
 83160  1  0  0  0
 83161  1  0  0  0
 84 86  1  0  0  0
 84162  1  0  0  0
 84163  1  0  0  0
 85164  1  0  0  0
M  ISO  4   1 100  68 101  83 101  85 100
M  END
> <chiral flag>
0

> <version>
0

> <s_m_source_file>
/data/baiqing/PycharmProjects/Reinvent-master-3.2/result/LINK_invent/BTK/process_docking_weight1_custom_sum_contain_oxygen_bond_distance_aromatic_linkinvent_7_9_3/rearranged_h_0144.sdf

> <i_m_source_file_index>
22

> <r_mmod_Potential_Energy-OPLS-2005>
314.059143066406

> <r_mmod_Stretch_Energy-OPLS-2005>
62.1760559082031

> <r_mmod_Bend_Energy-OPLS-2005>
486.263824462891

> <r_mmod_Torsional_Energy-OPLS-2005>
216.882919311523

> <r_mmod_Improper_Torsional_Energy-OPLS-2005>
3.67012286186218

> <r_mmod_Van_der_Waal_Energy-OPLS-2005>
141.878448486328

> <r_mmod_Electrostatic_Energy-OPLS-2005>
-396.432464599609

> <r_mmod_Solvation_Energy-OPLS-2005>
-213.582046508789

> <b_mmod_Minimization_Converged-OPLS-2005>
0

> <r_mmod_RMS_Derivative-OPLS-2005>
1.8610897064209

$$$$
22
                    3D
 Structure written by MMmdl.
166175  0  0  1  0            999 V2000
  -30.6657  -14.5034   20.6125 C   0  0  0  0  0  0
  -30.4536  -12.3379   19.4211 C   0  0  0  0  0  0
  -29.5114  -12.5246   18.2107 C   0  0  0  0  0  0
  -28.0312  -12.3755   18.6196 C   0  0  0  0  0  0
  -27.6755  -13.1984   19.8857 C   0  0  2  0  0  0
  -28.7179  -12.9465   21.0000 C   0  0  0  0  0  0
  -25.2671  -13.8124   20.5682 C   0  0  0  0  0  0
  -24.1892  -13.0430   20.9162 C   0  0  0  0  0  0
  -24.6423  -11.6892   20.8719 C   0  0  0  0  0  0
  -23.9070  -10.4292   21.0400 C   0  0  0  0  0  0
  -24.3623   -9.4215   21.9184 C   0  0  0  0  0  0
  -23.6301   -8.2249   22.0747 C   0  0  0  0  0  0
  -22.4282   -8.0286   21.3542 C   0  0  0  0  0  0
  -21.9924   -9.0258   20.4637 C   0  0  0  0  0  0
  -22.7248  -10.2137   20.3044 C   0  0  0  0  0  0
  -21.6851   -6.0754   22.5288 C   0  0  0  0  0  0
  -21.4013   -6.5652   23.8224 C   0  0  0  0  0  0
  -21.3657   -5.6801   24.9185 C   0  0  0  0  0  0
  -21.6038   -4.3062   24.7231 C   0  0  0  0  0  0
  -21.8820   -3.8164   23.4350 C   0  0  0  0  0  0
  -21.9199   -4.6985   22.3413 C   0  0  0  0  0  0
  -22.7922  -13.5247   21.1852 C   0  0  0  0  0  0
  -22.1666   -4.2176   21.0985 F   0  0  0  0  0  0
  -21.5629   -3.4538   25.7736 F   0  0  0  0  0  0
  -30.0507  -13.2931   20.4660 N   0  0  0  0  0  0
  -26.3115  -12.9276   20.3398 N   0  0  0  0  0  0
  -25.9354  -11.6448   20.5755 N   0  0  0  0  0  0
  -22.0542  -12.8222   22.0377 N   0  0  0  0  0  0
  -25.4431  -15.1835   20.4078 N   0  0  0  0  0  0
  -31.7476  -14.7768   20.0847 O   0  0  0  0  0  0
  -21.6642   -6.8891   21.4242 O   0  0  0  0  0  0
  -22.3619  -14.5579   20.6736 O   0  0  0  0  0  0
  -24.6199  -31.8634   23.2077 C   0  0  0  0  0  0
  -25.9069  -32.4804   23.8378 C   0  0  1  0  0  0
  -27.2363  -27.3998   20.0985 C   0  0  0  0  0  0
  -25.5900  -33.8607   24.2310 N   0  0  0  0  0  0
  -23.4099  -30.4862   21.5500 C   0  0  2  0  0  0
  -24.8567  -28.9506   20.1121 C   0  0  0  0  0  0
  -22.7443  -29.4631   22.4999 C   0  0  0  0  0  0
  -18.0277  -28.1366   22.8470 C   0  0  0  0  0  0
  -24.1492  -36.7300   23.2641 C   0  0  0  0  0  0
  -25.9441  -30.8176   21.3667 C   0  0  0  0  0  0
  -26.0207  -29.4521   20.7093 C   0  0  0  0  0  0
  -27.2163  -28.6874   20.6939 C   0  0  0  0  0  0
  -26.0560  -26.9328   19.4790 C   0  0  0  0  0  0
  -24.8721  -27.6914   19.4917 C   0  0  0  0  0  0
  -23.6189  -29.8198   20.1651 C   0  0  0  0  0  0
  -25.4109  -36.3104   24.0341 C   0  0  1  0  0  0
  -20.5871  -28.3660   23.1302 C   0  0  2  0  0  0
  -20.6767  -26.9391   22.5409 C   0  0  0  0  0  0
  -19.5748  -26.6365   21.5210 C   0  0  0  0  0  0
  -18.1925  -26.7908   22.1606 C   0  0  0  0  0  0
  -19.1528  -28.8832   23.2876 C   0  0  0  0  0  0
  -18.9454  -30.1437   23.8887 C   0  0  0  0  0  0
  -17.6457  -30.6571   24.0561 C   0  0  0  0  0  0
  -25.9034  -34.9471   23.5121 C   0  0  0  0  0  0
  -16.5349  -29.9065   23.6339 C   0  0  0  0  0  0
  -16.7262  -28.6488   23.0345 C   0  0  0  0  0  0
  -26.4475  -31.6609   25.0732 C   0  0  0  0  0  0
  -25.3729  -31.3720   26.1475 C   0  0  0  0  0  0
  -27.0332  -30.3058   24.6128 C   0  0  0  0  0  0
  -27.6041  -32.4340   25.7489 C   0  0  0  0  0  0
  -27.5579  -37.1804   24.8460 C   0  0  0  0  0  0
  -21.4168  -29.3034   22.3731 N   0  0  0  0  0  0
  -26.4290  -37.3793   23.9409 N   0  0  0  0  0  0
  -24.6764  -31.0708   22.0986 N   0  0  0  0  0  0
  -23.4208  -28.8189   23.3059 O   0  0  0  0  0  0
  -28.3734  -26.6047   20.1108 O   0  0  0  0  0  0
  -26.5610  -34.8923   22.4690 O   0  0  0  0  0  0
  -23.5383  -32.1397   23.7442 O   0  0  0  0  0  0
  -30.7075  -20.2952   21.0288 C   0  0  0  0  0  0
  -28.8878  -20.8008   19.0194 C   0  0  0  0  0  0
  -30.2754  -19.1955   20.2523 C   0  0  0  0  0  0
  -29.3429  -19.4610   19.2160 C   0  0  0  0  0  0
  -29.3735  -21.8235   19.8763 C   0  0  0  0  0  0
  -28.1008  -22.2652   16.8747 C   0  0  0  0  0  0
  -26.5847  -22.4336   16.9651 C   0  0  0  0  0  0
  -27.8944  -21.1368   17.8870 C   0  0  2  0  0  0
  -28.8339  -18.3266   18.3254 C   0  0  0  0  0  0
  -30.8244  -17.7709   20.5248 C   0  0  0  0  0  0
  -29.8275  -16.8838   21.3237 C   0  0  0  0  0  0
  -28.1879  -25.2968   20.7162 C   0  0  0  0  0  0
  -29.3176  -24.2300   20.5382 C   0  0  0  0  0  0
  -30.2708  -21.5687   20.8539 N   0  0  0  0  0  0
  -29.9178  -15.4052   21.2803 N   0  0  0  0  0  0
  -26.6687  -21.8295   18.2933 N   0  3  0  0  0  0
  -28.8634  -23.1158   19.7358 O   0  0  0  0  0  0
  -31.4925  -12.4769   19.1160 H   0  0  0  0  0  0
  -30.3931  -11.3168   19.8017 H   0  0  0  0  0  0
  -29.7578  -11.8024   17.4313 H   0  0  0  0  0  0
  -29.6722  -13.5122   17.7742 H   0  0  0  0  0  0
  -27.8419  -11.3170   18.7999 H   0  0  0  0  0  0
  -27.3827  -12.6617   17.7913 H   0  0  0  0  0  0
  -27.7294  -14.2522   19.6095 H   0  0  0  0  0  0
  -28.7087  -11.8960   21.2948 H   0  0  0  0  0  0
  -28.4593  -13.4928   21.9074 H   0  0  0  0  0  0
  -25.2768   -9.5702   22.4764 H   0  0  0  0  0  0
  -24.0025   -7.4640   22.7458 H   0  0  0  0  0  0
  -21.0869   -8.8768   19.8936 H   0  0  0  0  0  0
  -22.3709  -10.9678   19.6155 H   0  0  0  0  0  0
  -21.1986   -7.6154   23.9737 H   0  0  0  0  0  0
  -21.1473   -6.0525   25.9087 H   0  0  0  0  0  0
  -22.0598   -2.7628   23.2840 H   0  0  0  0  0  0
  -22.4135  -11.9842   22.4715 H   0  0  0  0  0  0
  -21.1158  -13.1247   22.2569 H   0  0  0  0  0  0
  -24.6800  -15.8433   20.5102 H   0  0  0  0  0  0
  -26.3016  -15.6166   20.0921 H   0  0  0  0  0  0
  -26.7144  -32.5495   23.1139 H   0  0  0  0  0  0
  -25.0105  -33.9775   25.0491 H   0  0  0  0  0  0
  -22.7014  -31.3048   21.4092 H   0  0  0  0  0  0
  -23.3757  -35.9632   23.3312 H   0  0  0  0  0  0
  -24.3587  -36.8905   22.2052 H   0  0  0  0  0  0
  -23.7241  -37.6506   23.6651 H   0  0  0  0  0  0
  -26.0674  -31.5838   20.6003 H   0  0  0  0  0  0
  -26.8284  -30.8648   21.9909 H   0  0  0  0  0  0
  -28.1136  -29.0698   21.1581 H   0  0  0  0  0  0
  -26.0439  -25.9759   18.9785 H   0  0  0  0  0  0
  -23.9815  -27.3009   19.0195 H   0  0  0  0  0  0
  -23.7276  -30.5953   19.4055 H   0  0  0  0  0  0
  -22.7409  -29.2416   19.8708 H   0  0  0  0  0  0
  -25.1291  -36.1966   25.0837 H   0  0  0  0  0  0
  -20.9943  -28.3201   24.1427 H   0  0  0  0  0  0
  -20.5677  -26.2259   23.3592 H   0  0  0  0  0  0
  -21.6628  -26.7426   22.1194 H   0  0  0  0  0  0
  -19.6921  -25.6286   21.1217 H   0  0  0  0  0  0
  -19.6690  -27.3195   20.6760 H   0  0  0  0  0  0
  -17.4198  -26.6666   21.3999 H   0  0  0  0  0  0
  -18.0296  -26.0053   22.8997 H   0  0  0  0  0  0
  -19.7949  -30.7244   24.2234 H   0  0  0  0  0  0
  -17.5029  -31.6253   24.5148 H   0  0  0  0  0  0
  -15.5352  -30.2968   23.7675 H   0  0  0  0  0  0
  -15.8659  -28.0812   22.7058 H   0  0  0  0  0  0
  -24.5892  -30.7070   25.7816 H   0  0  0  0  0  0
  -24.8923  -32.2880   26.4926 H   0  0  0  0  0  0
  -25.8066  -30.8883   27.0237 H   0  0  0  0  0  0
  -26.2891  -29.6802   24.1177 H   0  0  0  0  0  0
  -27.4122  -29.7307   25.4589 H   0  0  0  0  0  0
  -27.8716  -30.4398   23.9284 H   0  0  0  0  0  0
  -27.2657  -33.3654   26.2040 H   0  0  0  0  0  0
  -28.3851  -32.6876   25.0309 H   0  0  0  0  0  0
  -28.0705  -31.8479   26.5418 H   0  0  0  0  0  0
  -28.2593  -38.0111   24.7528 H   0  0  0  0  0  0
  -28.1085  -36.2638   24.6264 H   0  0  0  0  0  0
  -27.2299  -37.1423   25.8867 H   0  0  0  0  0  0
  -20.9331  -29.8755   21.6955 H   0  0  0  0  0  0
  -26.0180  -38.2873   24.1412 H   0  0  0  0  0  0
  -31.4236  -20.1505   21.8247 H   0  0  0  0  0  0
  -28.6419  -23.1344   17.2517 H   0  0  0  0  0  0
  -28.4805  -21.9472   15.9029 H   0  0  0  0  0  0
  -26.0346  -21.8002   16.2654 H   0  0  0  0  0  0
  -26.2224  -23.4629   16.9555 H   0  0  0  0  0  0
  -27.5992  -20.2438   17.3373 H   0  0  0  0  0  0
  -29.1403  -18.4929   17.2927 H   0  0  0  0  0  0
  -27.7471  -18.2693   18.3657 H   0  0  0  0  0  0
  -29.1875  -17.3363   18.5982 H   0  0  0  0  0  0
  -31.7598  -17.8422   21.0827 H   0  0  0  0  0  0
  -31.1030  -17.3090   19.5778 H   0  0  0  0  0  0
  -28.8199  -17.0976   20.9647 H   0  0  0  0  0  0
  -29.8214  -17.1995   22.3678 H   0  0  0  0  0  0
  -28.0594  -25.4775   21.7846 H   0  0  0  0  0  0
  -27.2536  -24.8346   20.4024 H   0  0  0  0  0  0
  -29.6131  -23.8987   21.5340 H   0  0  0  0  0  0
  -30.2015  -24.6756   20.0821 H   0  0  0  0  0  0
  -29.1217  -14.9605   21.7136 H   0  0  0  0  0  0
  -25.8920  -21.2310   18.5249 H   0  0  0  0  0  0
  -26.8330  -22.5302   18.9948 H   0  0  0  0  0  0
  1 25  1  0  0  0
  1 30  2  0  0  0
  1 85  1  0  0  0
  2  3  1  0  0  0
  2 25  1  0  0  0
  2 88  1  0  0  0
  2 89  1  0  0  0
  3  4  1  0  0  0
  3 90  1  0  0  0
  3 91  1  0  0  0
  4  5  1  0  0  0
  4 92  1  0  0  0
  4 93  1  0  0  0
  5  6  1  0  0  0
  5 26  1  0  0  0
  5 94  1  0  0  0
  6 25  1  0  0  0
  6 95  1  0  0  0
  6 96  1  0  0  0
  7  8  2  0  0  0
  7 26  1  0  0  0
  7 29  1  0  0  0
  8  9  1  0  0  0
  8 22  1  0  0  0
  9 10  1  0  0  0
  9 27  2  0  0  0
 10 11  2  0  0  0
 10 15  1  0  0  0
 11 12  1  0  0  0
 11 97  1  0  0  0
 12 13  2  0  0  0
 12 98  1  0  0  0
 13 14  1  0  0  0
 13 31  1  0  0  0
 14 15  2  0  0  0
 14 99  1  0  0  0
 15100  1  0  0  0
 16 17  2  0  0  0
 16 21  1  0  0  0
 16 31  1  0  0  0
 17 18  1  0  0  0
 17101  1  0  0  0
 18 19  2  0  0  0
 18102  1  0  0  0
 19 20  1  0  0  0
 19 24  1  0  0  0
 20 21  2  0  0  0
 20103  1  0  0  0
 21 23  1  0  0  0
 22 28  1  0  0  0
 22 32  2  0  0  0
 26 27  1  0  0  0
 28104  1  0  0  0
 28105  1  0  0  0
 29106  1  0  0  0
 29107  1  0  0  0
 33 34  1  0  0  0
 33 66  1  0  0  0
 33 70  2  0  0  0
 34 36  1  0  0  0
 34 59  1  0  0  0
 34108  1  0  0  0
 35 44  2  0  0  0
 35 45  1  0  0  0
 35 68  1  0  0  0
 36 56  1  0  0  0
 36109  1  0  0  0
 37 39  1  0  0  0
 37 47  1  0  0  0
 37 66  1  0  0  0
 37110  1  0  0  0
 38 43  2  0  0  0
 38 46  1  0  0  0
 38 47  1  0  0  0
 39 64  1  0  0  0
 39 67  2  0  0  0
 40 52  1  0  0  0
 40 53  2  0  0  0
 40 58  1  0  0  0
 41111  1  0  0  0
 41112  1  0  0  0
 41113  1  0  0  0
 41 48  1  0  0  0
 42 43  1  0  0  0
 42 66  1  0  0  0
 42114  1  0  0  0
 42115  1  0  0  0
 43 44  1  0  0  0
 44116  1  0  0  0
 45 46  2  0  0  0
 45117  1  0  0  0
 46118  1  0  0  0
 47119  1  0  0  0
 47120  1  0  0  0
 48 56  1  0  0  0
 48 65  1  0  0  0
 48121  1  0  0  0
 49 50  1  0  0  0
 49 53  1  0  0  0
 49 64  1  0  0  0
 49122  1  0  0  0
 50 51  1  0  0  0
 50123  1  0  0  0
 50124  1  0  0  0
 51 52  1  0  0  0
 51125  1  0  0  0
 51126  1  0  0  0
 52127  1  0  0  0
 52128  1  0  0  0
 53 54  1  0  0  0
 54 55  2  0  0  0
 54129  1  0  0  0
 55 57  1  0  0  0
 55130  1  0  0  0
 56 69  2  0  0  0
 57 58  2  0  0  0
 57131  1  0  0  0
 58132  1  0  0  0
 59 60  1  0  0  0
 59 61  1  0  0  0
 59 62  1  0  0  0
 60133  1  0  0  0
 60134  1  0  0  0
 60135  1  0  0  0
 61136  1  0  0  0
 61137  1  0  0  0
 61138  1  0  0  0
 62139  1  0  0  0
 62140  1  0  0  0
 62141  1  0  0  0
 63 65  1  0  0  0
 63142  1  0  0  0
 63143  1  0  0  0
 63144  1  0  0  0
 64145  1  0  0  0
 65146  1  0  0  0
 68 82  1  0  0  0
 71 73  2  0  0  0
 71 84  1  0  0  0
 71147  1  0  0  0
 72 74  2  0  0  0
 72 75  1  0  0  0
 72 78  1  0  0  0
 73 74  1  0  0  0
 73 80  1  0  0  0
 74 79  1  0  0  0
 75 84  2  0  0  0
 75 87  1  0  0  0
 76 77  1  0  0  0
 76 78  1  0  0  0
 76148  1  0  0  0
 76149  1  0  0  0
 77 86  1  0  0  0
 77150  1  0  0  0
 77151  1  0  0  0
 78 86  1  0  0  0
 78152  1  0  0  0
 79153  1  0  0  0
 79154  1  0  0  0
 79155  1  0  0  0
 80 81  1  0  0  0
 80156  1  0  0  0
 80157  1  0  0  0
 81 85  1  0  0  0
 81158  1  0  0  0
 81159  1  0  0  0
 82 83  1  0  0  0
 82160  1  0  0  0
 82161  1  0  0  0
 83 87  1  0  0  0
 83162  1  0  0  0
 83163  1  0  0  0
 85164  1  0  0  0
 86165  1  0  0  0
 86166  1  0  0  0
M  CHG  1  86   1
M  ISO  4   1 100  68 101  82 101  85 100
M  END
> <chiral flag>
0

> <version>
0

> <s_m_source_file>
/data/baiqing/PycharmProjects/Reinvent-master-3.2/result/LINK_invent/BTK/process_docking_weight1_custom_sum_contain_oxygen_bond_distance_aromatic_linkinvent_7_9_3/rearranged_h_0144.sdf

> <i_m_source_file_index>
23

> <r_mmod_Potential_Energy-OPLS-2005>
-377.920196533203

> <r_mmod_Stretch_Energy-OPLS-2005>
51.9829902648926

> <r_mmod_Bend_Energy-OPLS-2005>
155.518402099609

> <r_mmod_Torsional_Energy-OPLS-2005>
225.315277099609

> <r_mmod_Improper_Torsional_Energy-OPLS-2005>
3.5644314289093

> <r_mmod_Van_der_Waal_Energy-OPLS-2005>
164.162658691406

> <r_mmod_Electrostatic_Energy-OPLS-2005>
-511.430999755859

> <r_mmod_Solvation_Energy-OPLS-2005>
-485.418304443359

> <b_mmod_Minimization_Converged-OPLS-2005>
0

> <r_mmod_RMS_Derivative-OPLS-2005>
2.0549623966217

$$$$
23
                    3D
 Structure written by MMmdl.
160168  0  0  1  0            999 V2000
  -30.5294  -14.9369   20.4286 C   0  0  0  0  0  0
  -30.4359  -12.5836   19.4911 C   0  0  0  0  0  0
  -29.5179  -12.5272   18.2482 C   0  0  0  0  0  0
  -28.0489  -12.3183   18.6632 C   0  0  0  0  0  0
  -27.6260  -13.2452   19.8335 C   0  0  2  0  0  0
  -28.6660  -13.2617   20.9708 C   0  0  0  0  0  0
  -25.2455  -13.8205   20.5698 C   0  0  0  0  0  0
  -24.1776  -13.0434   20.9230 C   0  0  0  0  0  0
  -24.6378  -11.6917   20.8742 C   0  0  0  0  0  0
  -23.9069  -10.4292   21.0404 C   0  0  0  0  0  0
  -24.3626   -9.4206   21.9182 C   0  0  0  0  0  0
  -23.6301   -8.2239   22.0748 C   0  0  0  0  0  0
  -22.4281   -8.0280   21.3541 C   0  0  0  0  0  0
  -21.9917   -9.0250   20.4640 C   0  0  0  0  0  0
  -22.7242  -10.2131   20.3049 C   0  0  0  0  0  0
  -21.6858   -6.0735   22.5281 C   0  0  0  0  0  0
  -21.4013   -6.5642   23.8214 C   0  0  0  0  0  0
  -21.3658   -5.6795   24.9180 C   0  0  0  0  0  0
  -21.6043   -4.3056   24.7227 C   0  0  0  0  0  0
  -21.8820   -3.8147   23.4349 C   0  0  0  0  0  0
  -21.9194   -4.6963   22.3405 C   0  0  0  0  0  0
  -22.7801  -13.5213   21.1896 C   0  0  0  0  0  0
  -22.1668   -4.2150   21.0980 F   0  0  0  0  0  0
  -21.5627   -3.4537   25.7739 F   0  0  0  0  0  0
  -29.9388  -13.6768   20.3727 N   0  0  0  0  0  0
  -26.2856  -12.9423   20.3198 N   0  0  0  0  0  0
  -25.9305  -11.6556   20.5710 N   0  0  0  0  0  0
  -22.0453  -12.8186   22.0440 N   0  0  0  0  0  0
  -25.4122  -15.1932   20.4116 N   0  0  0  0  0  0
  -31.7366  -15.0064   20.1809 O   0  0  0  0  0  0
  -21.6641   -6.8876   21.4243 O   0  0  0  0  0  0
  -22.3488  -14.5524   20.6757 O   0  0  0  0  0  0
  -24.6429  -31.8460   23.1853 C   0  0  0  0  0  0
  -25.9210  -32.4707   23.8248 C   0  0  1  0  0  0
  -27.2204  -27.1394   20.1658 C   0  0  0  0  0  0
  -25.5957  -33.8506   24.2179 N   0  0  0  0  0  0
  -23.4447  -30.4603   21.5332 C   0  0  2  0  0  0
  -24.8922  -28.8746   20.1205 C   0  0  0  0  0  0
  -22.7548  -29.4554   22.4885 C   0  0  0  0  0  0
  -18.0306  -28.1423   22.8499 C   0  0  0  0  0  0
  -24.1483  -36.7258   23.2639 C   0  0  0  0  0  0
  -25.9972  -30.7186   21.3817 C   0  0  0  0  0  0
  -26.0666  -29.3243   20.7375 C   0  0  0  0  0  0
  -27.2301  -28.4712   20.7431 C   0  0  0  0  0  0
  -26.0236  -26.7822   19.5119 C   0  0  0  0  0  0
  -24.8811  -27.6156   19.4949 C   0  0  0  0  0  0
  -23.6704  -29.7795   20.1565 C   0  0  0  0  0  0
  -25.4121  -36.3044   24.0315 C   0  0  1  0  0  0
  -20.5908  -28.3746   23.1251 C   0  0  2  0  0  0
  -20.6790  -26.9446   22.5415 C   0  0  0  0  0  0
  -19.5769  -26.6416   21.5215 C   0  0  0  0  0  0
  -18.1951  -26.7966   22.1629 C   0  0  0  0  0  0
  -19.1557  -28.8900   23.2881 C   0  0  0  0  0  0
  -18.9476  -30.1502   23.8900 C   0  0  0  0  0  0
  -17.6470  -30.6620   24.0572 C   0  0  0  0  0  0
  -25.9079  -34.9425   23.5060 C   0  0  0  0  0  0
  -16.5363  -29.9115   23.6340 C   0  0  0  0  0  0
  -16.7288  -28.6530   23.0364 C   0  0  0  0  0  0
  -26.4525  -31.6559   25.0686 C   0  0  0  0  0  0
  -25.3701  -31.3748   26.1374 C   0  0  0  0  0  0
  -27.0374  -30.2953   24.6240 C   0  0  0  0  0  0
  -27.6066  -32.4297   25.7478 C   0  0  0  0  0  0
  -27.5577  -37.1777   24.8472 C   0  0  0  0  0  0
  -21.4243  -29.3064   22.3618 N   0  0  0  0  0  0
  -26.4290  -37.3754   23.9417 N   0  0  0  0  0  0
  -24.7150  -31.0304   22.0897 N   0  0  0  0  0  0
  -23.4186  -28.8107   23.3043 O   0  0  0  0  0  0
  -28.3257  -26.2208   20.1449 O   0  0  0  0  0  0
  -26.5670  -34.8921   22.4639 O   0  0  0  0  0  0
  -23.5554  -32.1353   23.7073 O   0  0  0  0  0  0
  -27.7757  -23.9471   21.2804 C   0  0  0  0  0  0
  -29.3700  -22.6779   19.4941 C   0  0  0  0  0  0
  -28.0496  -22.5230   21.4316 C   0  0  0  0  0  0
  -28.9089  -21.7830   20.5272 C   0  0  0  0  0  0
  -28.3260  -24.7521   20.2399 C   0  0  0  0  0  0
  -25.1948  -20.9048   23.5739 C   0  0  0  0  0  0
  -27.8862  -22.4624   23.9615 C   0  0  0  0  0  0
  -25.8853  -21.7792   22.5157 C   0  0  0  0  0  0
  -29.1017  -18.9626   20.3049 C   0  0  0  0  0  0
  -30.1077  -17.6503   20.6663 C   0  0  0  0  0  0
  -27.4240  -21.8210   22.6394 C   0  0  1  0  0  0
  -29.1243  -24.0474   19.3710 N   0  0  0  0  0  0
  -29.4519  -20.4085   20.7761 N   0  0  0  0  0  0
  -29.7413  -16.1159   20.5650 N   0  0  0  0  0  0
  -31.4692  -12.7480   19.1816 H   0  0  0  0  0  0
  -30.4302  -11.6303   20.0215 H   0  0  0  0  0  0
  -29.8366  -11.7279   17.5771 H   0  0  0  0  0  0
  -29.6093  -13.4563   17.6829 H   0  0  0  0  0  0
  -27.9399  -11.2761   18.9635 H   0  0  0  0  0  0
  -27.3884  -12.4588   17.8068 H   0  0  0  0  0  0
  -27.5929  -14.2498   19.4114 H   0  0  0  0  0  0
  -28.7503  -12.2808   21.4412 H   0  0  0  0  0  0
  -28.3668  -13.9594   21.7544 H   0  0  0  0  0  0
  -25.2767   -9.5694   22.4762 H   0  0  0  0  0  0
  -24.0016   -7.4631   22.7466 H   0  0  0  0  0  0
  -21.0850   -8.8769   19.8945 H   0  0  0  0  0  0
  -22.3699  -10.9674   19.6163 H   0  0  0  0  0  0
  -21.2006   -7.6147   23.9723 H   0  0  0  0  0  0
  -21.1481   -6.0519   25.9084 H   0  0  0  0  0  0
  -22.0600   -2.7606   23.2847 H   0  0  0  0  0  0
  -22.4068  -11.9843   22.4818 H   0  0  0  0  0  0
  -21.1065  -13.1199   22.2641 H   0  0  0  0  0  0
  -24.6418  -15.8431   20.5227 H   0  0  0  0  0  0
  -26.2481  -15.6322   20.0495 H   0  0  0  0  0  0
  -26.7278  -32.5320   23.0981 H   0  0  0  0  0  0
  -25.0056  -33.9614   25.0291 H   0  0  0  0  0  0
  -22.7479  -31.2855   21.3742 H   0  0  0  0  0  0
  -23.3762  -35.9568   23.3303 H   0  0  0  0  0  0
  -24.3557  -36.8896   22.2051 H   0  0  0  0  0  0
  -23.7215  -37.6445   23.6677 H   0  0  0  0  0  0
  -26.1450  -31.4664   20.6007 H   0  0  0  0  0  0
  -26.8718  -30.7784   22.0173 H   0  0  0  0  0  0
  -28.1342  -28.8208   21.2208 H   0  0  0  0  0  0
  -25.9623  -25.8215   19.0210 H   0  0  0  0  0  0
  -23.9833  -27.2673   19.0027 H   0  0  0  0  0  0
  -23.8115  -30.5507   19.3986 H   0  0  0  0  0  0
  -22.7836  -29.2231   19.8476 H   0  0  0  0  0  0
  -25.1286  -36.1881   25.0803 H   0  0  0  0  0  0
  -21.0021  -28.3370   24.1364 H   0  0  0  0  0  0
  -20.5699  -26.2352   23.3635 H   0  0  0  0  0  0
  -21.6652  -26.7483   22.1185 H   0  0  0  0  0  0
  -19.6943  -25.6316   21.1272 H   0  0  0  0  0  0
  -19.6715  -27.3213   20.6729 H   0  0  0  0  0  0
  -17.4209  -26.6730   21.4045 H   0  0  0  0  0  0
  -18.0364  -26.0102   22.9017 H   0  0  0  0  0  0
  -19.7943  -30.7338   24.2262 H   0  0  0  0  0  0
  -17.5013  -31.6288   24.5193 H   0  0  0  0  0  0
  -15.5358  -30.3014   23.7676 H   0  0  0  0  0  0
  -15.8687  -28.0858   22.7070 H   0  0  0  0  0  0
  -24.5912  -30.7066   25.7690 H   0  0  0  0  0  0
  -24.8857  -32.2926   26.4714 H   0  0  0  0  0  0
  -25.7977  -30.8988   27.0203 H   0  0  0  0  0  0
  -26.2989  -29.6696   24.1221 H   0  0  0  0  0  0
  -27.3972  -29.7239   25.4806 H   0  0  0  0  0  0
  -27.8891  -30.4181   23.9545 H   0  0  0  0  0  0
  -27.2685  -33.3622   26.1995 H   0  0  0  0  0  0
  -28.3906  -32.6807   25.0325 H   0  0  0  0  0  0
  -28.0687  -31.8458   26.5446 H   0  0  0  0  0  0
  -28.2578  -38.0084   24.7507 H   0  0  0  0  0  0
  -28.1085  -36.2612   24.6301 H   0  0  0  0  0  0
  -27.2294  -37.1421   25.8874 H   0  0  0  0  0  0
  -20.9477  -29.8714   21.6726 H   0  0  0  0  0  0
  -26.0178  -38.2827   24.1420 H   0  0  0  0  0  0
  -27.1699  -24.4461   22.0225 H   0  0  0  0  0  0
  -30.0582  -22.2911   18.7566 H   0  0  0  0  0  0
  -24.1339  -20.7972   23.3476 H   0  0  0  0  0  0
  -25.2706  -21.3416   24.5695 H   0  0  0  0  0  0
  -25.6320  -19.9058   23.6116 H   0  0  0  0  0  0
  -27.4960  -23.4728   24.0847 H   0  0  0  0  0  0
  -28.9733  -22.5206   24.0077 H   0  0  0  0  0  0
  -27.5629  -21.8768   24.8214 H   0  0  0  0  0  0
  -25.4683  -22.7861   22.5457 H   0  0  0  0  0  0
  -25.6311  -21.3820   21.5326 H   0  0  0  0  0  0
  -28.1188  -18.7408   20.7250 H   0  0  0  0  0  0
  -28.9477  -18.9866   19.2255 H   0  0  0  0  0  0
  -30.3945  -17.7740   21.7113 H   0  0  0  0  0  0
  -31.0365  -17.7888   20.1102 H   0  0  0  0  0  0
  -27.7662  -20.7873   22.6528 H   0  0  0  0  0  0
  -29.8051  -20.3507   21.7302 H   0  0  0  0  0  0
  -28.7568  -15.9248   20.6755 H   0  0  0  0  0  0
  1 25  1  0  0  0
  1 30  2  0  0  0
  1 84  1  0  0  0
  2  3  1  0  0  0
  2 25  1  0  0  0
  2 85  1  0  0  0
  2 86  1  0  0  0
  3  4  1  0  0  0
  3 87  1  0  0  0
  3 88  1  0  0  0
  4  5  1  0  0  0
  4 89  1  0  0  0
  4 90  1  0  0  0
  5  6  1  0  0  0
  5 26  1  0  0  0
  5 91  1  0  0  0
  6 25  1  0  0  0
  6 92  1  0  0  0
  6 93  1  0  0  0
  7  8  2  0  0  0
  7 26  1  0  0  0
  7 29  1  0  0  0
  8  9  1  0  0  0
  8 22  1  0  0  0
  9 10  1  0  0  0
  9 27  2  0  0  0
 10 11  2  0  0  0
 10 15  1  0  0  0
 11 12  1  0  0  0
 11 94  1  0  0  0
 12 13  2  0  0  0
 12 95  1  0  0  0
 13 14  1  0  0  0
 13 31  1  0  0  0
 14 15  2  0  0  0
 14 96  1  0  0  0
 15 97  1  0  0  0
 16 17  2  0  0  0
 16 21  1  0  0  0
 16 31  1  0  0  0
 17 18  1  0  0  0
 17 98  1  0  0  0
 18 19  2  0  0  0
 18 99  1  0  0  0
 19 20  1  0  0  0
 19 24  1  0  0  0
 20 21  2  0  0  0
 20100  1  0  0  0
 21 23  1  0  0  0
 22 28  1  0  0  0
 22 32  2  0  0  0
 26 27  1  0  0  0
 28101  1  0  0  0
 28102  1  0  0  0
 29103  1  0  0  0
 29104  1  0  0  0
 33 34  1  0  0  0
 33 66  1  0  0  0
 33 70  2  0  0  0
 34 36  1  0  0  0
 34 59  1  0  0  0
 34105  1  0  0  0
 35 44  2  0  0  0
 35 45  1  0  0  0
 35 68  1  0  0  0
 36 56  1  0  0  0
 36106  1  0  0  0
 37 39  1  0  0  0
 37 47  1  0  0  0
 37 66  1  0  0  0
 37107  1  0  0  0
 38 43  2  0  0  0
 38 46  1  0  0  0
 38 47  1  0  0  0
 39 64  1  0  0  0
 39 67  2  0  0  0
 40 52  1  0  0  0
 40 53  2  0  0  0
 40 58  1  0  0  0
 41108  1  0  0  0
 41109  1  0  0  0
 41110  1  0  0  0
 41 48  1  0  0  0
 42 43  1  0  0  0
 42 66  1  0  0  0
 42111  1  0  0  0
 42112  1  0  0  0
 43 44  1  0  0  0
 44113  1  0  0  0
 45 46  2  0  0  0
 45114  1  0  0  0
 46115  1  0  0  0
 47116  1  0  0  0
 47117  1  0  0  0
 48 56  1  0  0  0
 48 65  1  0  0  0
 48118  1  0  0  0
 49 50  1  0  0  0
 49 53  1  0  0  0
 49 64  1  0  0  0
 49119  1  0  0  0
 50 51  1  0  0  0
 50120  1  0  0  0
 50121  1  0  0  0
 51 52  1  0  0  0
 51122  1  0  0  0
 51123  1  0  0  0
 52124  1  0  0  0
 52125  1  0  0  0
 53 54  1  0  0  0
 54 55  2  0  0  0
 54126  1  0  0  0
 55 57  1  0  0  0
 55127  1  0  0  0
 56 69  2  0  0  0
 57 58  2  0  0  0
 57128  1  0  0  0
 58129  1  0  0  0
 59 60  1  0  0  0
 59 61  1  0  0  0
 59 62  1  0  0  0
 60130  1  0  0  0
 60131  1  0  0  0
 60132  1  0  0  0
 61133  1  0  0  0
 61134  1  0  0  0
 61135  1  0  0  0
 62136  1  0  0  0
 62137  1  0  0  0
 62138  1  0  0  0
 63 65  1  0  0  0
 63139  1  0  0  0
 63140  1  0  0  0
 63141  1  0  0  0
 64142  1  0  0  0
 65143  1  0  0  0
 68 75  1  0  0  0
 71 73  2  0  0  0
 71 75  1  0  0  0
 71144  1  0  0  0
 72 74  2  0  0  0
 72 82  1  0  0  0
 72145  1  0  0  0
 73 74  1  0  0  0
 73 81  1  0  0  0
 74 83  1  0  0  0
 75 82  2  0  0  0
 76 78  1  0  0  0
 76146  1  0  0  0
 76147  1  0  0  0
 76148  1  0  0  0
 77149  1  0  0  0
 77150  1  0  0  0
 77151  1  0  0  0
 77 81  1  0  0  0
 78 81  1  0  0  0
 78152  1  0  0  0
 78153  1  0  0  0
 79 80  1  0  0  0
 79 83  1  0  0  0
 79154  1  0  0  0
 79155  1  0  0  0
 80 84  1  0  0  0
 80156  1  0  0  0
 80157  1  0  0  0
 81158  1  0  0  0
 83159  1  0  0  0
 84160  1  0  0  0
M  ISO  4   1 100  68 101  75 101  84 100
M  END
> <chiral flag>
0

> <version>
0

> <s_m_source_file>
/data/baiqing/PycharmProjects/Reinvent-master-3.2/result/LINK_invent/BTK/process_docking_weight1_custom_sum_contain_oxygen_bond_distance_aromatic_linkinvent_7_9_3/rearranged_h_0144.sdf

> <i_m_source_file_index>
24

> <r_mmod_Potential_Energy-OPLS-2005>
329.542175292969

> <r_mmod_Stretch_Energy-OPLS-2005>
220.765960693359

> <r_mmod_Bend_Energy-OPLS-2005>
261.335235595703

> <r_mmod_Torsional_Energy-OPLS-2005>
243.509521484375

> <r_mmod_Improper_Torsional_Energy-OPLS-2005>
9.78246212005615

> <r_mmod_Van_der_Waal_Energy-OPLS-2005>
129.086242675781

> <r_mmod_Electrostatic_Energy-OPLS-2005>
-484.941772460938

> <r_mmod_Solvation_Energy-OPLS-2005>
-228.237731933594

> <b_mmod_Minimization_Converged-OPLS-2005>
0

> <r_mmod_RMS_Derivative-OPLS-2005>
1.90790665149689

$$$$
24
                    3D
 Structure written by MMmdl.
183193  0  0  1  0            999 V2000
  -31.5629  -14.4093   20.6011 C   0  0  0  0  0  0
  -30.7914  -11.8758   19.8054 C   0  0  0  0  0  0
  -29.5708  -11.3357   18.2268 C   0  0  0  0  0  0
  -28.0042  -12.5323   17.7439 C   0  0  0  0  0  0
  -27.7666  -14.2757   18.8458 C   0  0  2  0  0  0
  -29.1680  -14.5899   20.4572 C   0  0  0  0  0  0
  -24.9553  -14.3938   20.7973 C   0  0  0  0  0  0
  -23.9386  -13.3733   21.1651 C   0  0  0  0  0  0
  -24.6877  -12.2434   21.3859 C   0  0  0  0  0  0
  -23.9406  -10.8169   21.2174 C   0  0  0  0  0  0
  -24.3896   -9.6810   21.9800 C   0  0  0  0  0  0
  -23.7092   -8.4189   22.0699 C   0  0  0  0  0  0
  -22.5003   -8.1831   21.3759 C   0  0  0  0  0  0
  -22.0721   -9.2360   20.5339 C   0  0  0  0  0  0
  -22.7738  -10.4835   20.4431 C   0  0  0  0  0  0
  -21.7445   -6.1392   22.5105 C   0  0  0  0  0  0
  -21.4427   -6.6046   23.8108 C   0  0  0  0  0  0
  -21.3786   -5.7068   24.8988 C   0  0  0  0  0  0
  -21.6030   -4.3319   24.6997 C   0  0  0  0  0  0
  -21.8734   -3.8535   23.4071 C   0  0  0  0  0  0
  -21.9376   -4.7473   22.3197 C   0  0  0  0  0  0
  -22.4353  -13.5859   21.3324 C   0  0  0  0  0  0
  -22.1773   -4.2544   21.0797 F   0  0  0  0  0  0
  -21.5538   -3.4735   25.7470 F   0  0  0  0  0  0
  -30.5656  -13.5076   20.6790 N   0  0  0  0  0  0
  -26.0124  -14.6793   19.7057 N   0  0  0  0  0  0
  -24.9318  -13.6902   21.0302 N   0  0  0  0  0  0
  -21.8023  -12.7986   22.1834 N   0  0  0  0  0  0
  -25.9436  -15.0942   19.5299 N   0  0  0  0  0  0
  -32.6960  -14.1796   20.8527 O   0  0  0  0  0  0
  -21.7695   -6.9940   21.4165 O   0  0  0  0  0  0
  -21.8927  -14.5206   20.7572 O   0  0  0  0  0  0
  -24.7115  -31.7573   23.1382 C   0  0  0  0  0  0
  -25.9600  -32.4197   23.7931 C   0  0  1  0  0  0
  -26.6518  -26.0955   20.4191 C   0  0  0  0  0  0
  -25.6075  -33.8070   24.1726 N   0  0  0  0  0  0
  -23.5278  -30.3833   21.5004 C   0  0  2  0  0  0
  -24.8937  -28.6432   20.1055 C   0  0  0  0  0  0
  -22.7785  -29.4168   22.4587 C   0  0  0  0  0  0
  -18.0345  -28.1427   22.8451 C   0  0  0  0  0  0
  -24.1515  -36.7039   23.2652 C   0  0  0  0  0  0
  -26.1061  -30.2779   21.4958 C   0  0  0  0  0  0
  -26.0556  -28.7922   20.8631 C   0  0  0  0  0  0
  -26.9403  -27.5444   20.9802 C   0  0  0  0  0  0
  -25.6306  -26.3316   19.4765 C   0  0  0  0  0  0
  -24.7737  -27.4645   19.3598 C   0  0  0  0  0  0
  -23.7829  -29.7081   20.1213 C   0  0  0  0  0  0
  -25.4174  -36.2730   24.0235 C   0  0  1  0  0  0
  -20.5984  -28.3784   23.1093 C   0  0  2  0  0  0
  -20.6790  -26.9422   22.5398 C   0  0  0  0  0  0
  -19.5754  -26.6352   21.5224 C   0  0  0  0  0  0
  -18.1950  -26.7956   22.1631 C   0  0  0  0  0  0
  -19.1618  -28.8928   23.2760 C   0  0  0  0  0  0
  -18.9529  -30.1522   23.8789 C   0  0  0  0  0  0
  -17.6515  -30.6601   24.0548 C   0  0  0  0  0  0
  -25.9191  -34.9136   23.4835 C   0  0  0  0  0  0
  -16.5402  -29.9074   23.6361 C   0  0  0  0  0  0
  -16.7332  -28.6506   23.0365 C   0  0  0  0  0  0
  -26.4659  -31.6466   25.0745 C   0  0  0  0  0  0
  -25.3609  -31.3949   26.1282 C   0  0  0  0  0  0
  -27.0658  -30.2738   24.7062 C   0  0  0  0  0  0
  -27.6038  -32.4457   25.7542 C   0  0  0  0  0  0
  -27.5557  -37.1668   24.8445 C   0  0  0  0  0  0
  -21.4419  -29.3010   22.3357 N   0  0  0  0  0  0
  -26.4247  -37.3547   23.9408 N   0  0  0  0  0  0
  -24.8155  -30.8603   22.0895 N   0  0  0  0  0  0
  -23.4129  -28.7767   23.3014 O   0  0  0  0  0  0
  -27.1106  -24.4982   20.5616 O   0  0  0  0  0  0
  -26.5869  -34.8788   22.4485 O   0  0  0  0  0  0
  -23.6105  -32.0941   23.6118 O   0  0  0  0  0  0
  -24.0093  -14.1873   18.6602 C   0  0  0  0  0  0
  -23.9812  -16.1343   19.6417 C   0  0  0  0  0  0
  -26.9245  -15.1579   21.6927 C   0  0  0  0  0  0
  -25.5036  -12.6555   19.0479 C   0  0  0  0  0  0
  -27.0709  -13.0459   20.6837 C   0  0  0  0  0  0
  -25.5231  -16.7618   21.0147 C   0  0  0  0  0  0
  -25.1482   -8.7381   14.6980 C   0  0  0  0  0  0
  -24.4768   -7.4596   15.1378 C   0  0  0  0  0  0
  -24.9839  -11.5592   16.7920 C   0  0  0  0  0  0
  -25.4103  -11.3544   18.2489 C   0  0  2  0  0  0
  -24.1059   -8.7706   15.7969 C   0  0  0  0  0  0
  -24.2688  -10.5485   17.6126 C   0  0  2  0  0  0
  -23.9334   -8.0781   18.2079 C   0  0  0  0  0  0
  -31.7485  -16.1036   17.3058 C   0  0  0  0  0  0
  -28.5123  -12.4216   20.0409 C   0  0  0  0  0  0
  -31.2326  -13.6377   17.8045 C   0  0  0  0  0  0
  -26.3612  -22.6327   20.8171 C   0  0  0  0  0  0
  -26.3118  -20.3784   20.6500 C   0  0  0  0  0  0
  -24.5224   -9.0846   17.2249 C   0  0  1  0  0  0
  -31.9520  -14.9280   18.2735 C   0  0  2  0  0  0
  -31.4818  -15.3176   19.6116 N   0  0  0  0  0  0
  -29.8799  -13.5967   18.4794 N   0  3  0  0  0  0
  -25.7739  -18.5278   21.2466 O   0  0  0  0  0  0
  -31.8454  -11.7122   19.5809 H   0  0  0  0  0  0
  -30.6840  -11.1041   20.5704 H   0  0  0  0  0  0
  -29.2026  -10.3245   18.4107 H   0  0  0  0  0  0
  -30.1726  -11.1814   17.3289 H   0  0  0  0  0  0
  -27.2517  -12.0798   17.1553 H   0  0  0  0  0  0
  -28.3416  -12.9557   16.7923 H   0  0  0  0  0  0
  -27.9224  -15.0923   18.1263 H   0  0  0  0  0  0
  -28.9712  -14.3057   21.4846 H   0  0  0  0  0  0
  -29.3304  -15.6644   20.5798 H   0  0  0  0  0  0
  -25.2766   -9.8049   22.5847 H   0  0  0  0  0  0
  -24.1218   -7.6417   22.6977 H   0  0  0  0  0  0
  -21.1737   -9.1000   19.9500 H   0  0  0  0  0  0
  -22.3513  -11.2439   19.8055 H   0  0  0  0  0  0
  -21.2597   -7.6561   23.9745 H   0  0  0  0  0  0
  -21.1632   -6.0758   25.8895 H   0  0  0  0  0  0
  -22.0313   -2.7986   23.2482 H   0  0  0  0  0  0
  -22.2844  -12.0505   22.6595 H   0  0  0  0  0  0
  -20.8201  -12.9482   22.3599 H   0  0  0  0  0  0
  -25.5952  -14.5640   18.7267 H   0  0  0  0  0  0
  -25.5465  -16.0169   19.4249 H   0  0  0  0  0  0
  -26.7625  -32.4439   23.0556 H   0  0  0  0  0  0
  -25.0086  -33.9038   24.9785 H   0  0  0  0  0  0
  -22.8787  -31.2424   21.3201 H   0  0  0  0  0  0
  -23.3808  -35.9334   23.3184 H   0  0  0  0  0  0
  -24.3581  -36.8868   22.2097 H   0  0  0  0  0  0
  -23.7251  -37.6147   23.6861 H   0  0  0  0  0  0
  -26.4065  -30.9545   20.6933 H   0  0  0  0  0  0
  -26.9393  -30.3114   22.1819 H   0  0  0  0  0  0
  -27.7771  -27.6287   21.6589 H   0  0  0  0  0  0
  -25.3421  -25.4762   18.8843 H   0  0  0  0  0  0
  -23.9268  -27.3705   18.6941 H   0  0  0  0  0  0
  -24.0489  -30.4713   19.3900 H   0  0  0  0  0  0
  -22.8581  -29.2638   19.7516 H   0  0  0  0  0  0
  -25.1410  -36.1414   25.0720 H   0  0  0  0  0  0
  -21.0077  -28.3453   24.1222 H   0  0  0  0  0  0
  -20.5633  -26.2435   23.3697 H   0  0  0  0  0  0
  -21.6658  -26.7330   22.1242 H   0  0  0  0  0  0
  -19.6885  -25.6231   21.1331 H   0  0  0  0  0  0
  -19.6697  -27.3105   20.6708 H   0  0  0  0  0  0
  -17.4230  -26.6741   21.4028 H   0  0  0  0  0  0
  -18.0302  -26.0113   22.9030 H   0  0  0  0  0  0
  -19.8001  -30.7379   24.2105 H   0  0  0  0  0  0
  -17.5053  -31.6265   24.5181 H   0  0  0  0  0  0
  -15.5390  -30.2927   23.7724 H   0  0  0  0  0  0
  -15.8759  -28.0774   22.7114 H   0  0  0  0  0  0
  -24.5836  -30.7257   25.7572 H   0  0  0  0  0  0
  -24.8763  -32.3228   26.4324 H   0  0  0  0  0  0
  -25.7663  -30.9344   27.0304 H   0  0  0  0  0  0
  -26.3378  -29.6124   24.2357 H   0  0  0  0  0  0
  -27.4115  -29.7495   25.5986 H   0  0  0  0  0  0
  -27.9396  -30.3709   24.0624 H   0  0  0  0  0  0
  -27.2531  -33.3893   26.1737 H   0  0  0  0  0  0
  -28.4022  -32.6810   25.0490 H   0  0  0  0  0  0
  -28.0527  -31.8876   26.5766 H   0  0  0  0  0  0
  -28.2461  -38.0062   24.7553 H   0  0  0  0  0  0
  -28.1164  -36.2583   24.6205 H   0  0  0  0  0  0
  -27.2276  -37.1212   25.8840 H   0  0  0  0  0  0
  -20.9732  -29.8680   21.6425 H   0  0  0  0  0  0
  -26.0022  -38.2559   24.1466 H   0  0  0  0  0  0
  -23.2400  -13.9755   17.9331 H   0  0  0  0  0  0
  -23.2570  -16.8645   19.3084 H   0  0  0  0  0  0
  -27.6850  -15.5200   22.3714 H   0  0  0  0  0  0
  -24.8782   -9.1514   13.7283 H   0  0  0  0  0  0
  -26.1943   -8.8586   14.9759 H   0  0  0  0  0  0
  -25.0740   -6.7515   15.7099 H   0  0  0  0  0  0
  -23.7447   -7.0126   14.4664 H   0  0  0  0  0  0
  -25.6389  -11.1998   16.0022 H   0  0  0  0  0  0
  -24.4218  -12.4518   16.5313 H   0  0  0  0  0  0
  -26.2546  -10.7211   18.5172 H   0  0  0  0  0  0
  -23.1264   -9.1641   15.5269 H   0  0  0  0  0  0
  -23.2346  -10.8069   17.8237 H   0  0  0  0  0  0
  -24.2845   -7.0679   17.9959 H   0  0  0  0  0  0
  -22.8449   -8.0662   18.1671 H   0  0  0  0  0  0
  -24.2573   -8.3116   19.2190 H   0  0  0  0  0  0
  -32.1281  -15.8624   16.3118 H   0  0  0  0  0  0
  -32.2921  -16.9871   17.6439 H   0  0  0  0  0  0
  -30.6980  -16.3785   17.2057 H   0  0  0  0  0  0
  -28.0511  -11.4507   19.8314 H   0  0  0  0  0  0
  -28.8555  -12.0984   21.0343 H   0  0  0  0  0  0
  -31.8815  -12.7694   17.8420 H   0  0  0  0  0  0
  -31.0356  -13.7204   16.7366 H   0  0  0  0  0  0
  -26.4270  -22.6708   21.9024 H   0  0  0  0  0  0
  -25.3148  -22.8622   20.6213 H   0  0  0  0  0  0
  -27.3849  -20.1990   20.7069 H   0  0  0  0  0  0
  -26.0875  -20.2730   19.5896 H   0  0  0  0  0  0
  -25.6015   -8.9346   17.2703 H   0  0  0  0  0  0
  -33.0262  -14.7323   18.3157 H   0  0  0  0  0  0
  -31.8899  -16.1954   19.8980 H   0  0  0  0  0  0
  -29.8588  -14.5247   18.8781 H   0  0  0  0  0  0
  -29.2528  -13.5999   17.6907 H   0  0  0  0  0  0
  1 25  1  0  0  0
  1 30  2  0  0  0
  1 91  1  0  0  0
  2  3  1  0  0  0
  2 25  1  0  0  0
  2 94  1  0  0  0
  2 95  1  0  0  0
  3  4  1  0  0  0
  3 96  1  0  0  0
  3 97  1  0  0  0
  4  5  1  0  0  0
  4 98  1  0  0  0
  4 99  1  0  0  0
  5  6  1  0  0  0
  5 26  1  0  0  0
  5100  1  0  0  0
  6 25  1  0  0  0
  6101  1  0  0  0
  6102  1  0  0  0
  7  8  2  0  0  0
  7 26  1  0  0  0
  7 29  1  0  0  0
  8  9  1  0  0  0
  8 22  1  0  0  0
  9 10  1  0  0  0
  9 27  2  0  0  0
 10 11  2  0  0  0
 10 15  1  0  0  0
 11 12  1  0  0  0
 11103  1  0  0  0
 12 13  2  0  0  0
 12104  1  0  0  0
 13 14  1  0  0  0
 13 31  1  0  0  0
 14 15  2  0  0  0
 14105  1  0  0  0
 15106  1  0  0  0
 16 17  2  0  0  0
 16 21  1  0  0  0
 16 31  1  0  0  0
 17 18  1  0  0  0
 17107  1  0  0  0
 18 19  2  0  0  0
 18108  1  0  0  0
 19 20  1  0  0  0
 19 24  1  0  0  0
 20 21  2  0  0  0
 20109  1  0  0  0
 21 23  1  0  0  0
 22 28  1  0  0  0
 22 32  2  0  0  0
 26 27  1  0  0  0
 28110  1  0  0  0
 28111  1  0  0  0
 29112  1  0  0  0
 29113  1  0  0  0
 33 34  1  0  0  0
 33 66  1  0  0  0
 33 70  2  0  0  0
 34 36  1  0  0  0
 34 59  1  0  0  0
 34114  1  0  0  0
 35 44  2  0  0  0
 35 45  1  0  0  0
 35 68  1  0  0  0
 36 56  1  0  0  0
 36115  1  0  0  0
 37 39  1  0  0  0
 37 47  1  0  0  0
 37 66  1  0  0  0
 37116  1  0  0  0
 38 43  2  0  0  0
 38 46  1  0  0  0
 38 47  1  0  0  0
 39 64  1  0  0  0
 39 67  2  0  0  0
 40 52  1  0  0  0
 40 53  2  0  0  0
 40 58  1  0  0  0
 41117  1  0  0  0
 41118  1  0  0  0
 41119  1  0  0  0
 41 48  1  0  0  0
 42 43  1  0  0  0
 42 66  1  0  0  0
 42120  1  0  0  0
 42121  1  0  0  0
 43 44  1  0  0  0
 44122  1  0  0  0
 45 46  2  0  0  0
 45123  1  0  0  0
 46124  1  0  0  0
 47125  1  0  0  0
 47126  1  0  0  0
 48 56  1  0  0  0
 48 65  1  0  0  0
 48127  1  0  0  0
 49 50  1  0  0  0
 49 53  1  0  0  0
 49 64  1  0  0  0
 49128  1  0  0  0
 50 51  1  0  0  0
 50129  1  0  0  0
 50130  1  0  0  0
 51 52  1  0  0  0
 51131  1  0  0  0
 51132  1  0  0  0
 52133  1  0  0  0
 52134  1  0  0  0
 53 54  1  0  0  0
 54 55  2  0  0  0
 54135  1  0  0  0
 55 57  1  0  0  0
 55136  1  0  0  0
 56 69  2  0  0  0
 57 58  2  0  0  0
 57137  1  0  0  0
 58138  1  0  0  0
 59 60  1  0  0  0
 59 61  1  0  0  0
 59 62  1  0  0  0
 60139  1  0  0  0
 60140  1  0  0  0
 60141  1  0  0  0
 61142  1  0  0  0
 61143  1  0  0  0
 61144  1  0  0  0
 62145  1  0  0  0
 62146  1  0  0  0
 62147  1  0  0  0
 63 65  1  0  0  0
 63148  1  0  0  0
 63149  1  0  0  0
 63150  1  0  0  0
 64151  1  0  0  0
 65152  1  0  0  0
 68 87  1  0  0  0
 71 72  2  0  0  0
 71 74  1  0  0  0
 71153  1  0  0  0
 72 76  1  0  0  0
 72154  1  0  0  0
 73 75  1  0  0  0
 73 76  2  0  0  0
 73155  1  0  0  0
 74 75  2  0  0  0
 74 80  1  0  0  0
 75 85  1  0  0  0
 76 93  1  0  0  0
 77 78  1  0  0  0
 77156  1  0  0  0
 77157  1  0  0  0
 77 81  1  0  0  0
 78 81  1  0  0  0
 78158  1  0  0  0
 78159  1  0  0  0
 79 80  1  0  0  0
 79160  1  0  0  0
 79161  1  0  0  0
 79 82  1  0  0  0
 80 82  1  0  0  0
 80162  1  0  0  0
 81 89  1  0  0  0
 81163  1  0  0  0
 82 89  1  0  0  0
 82164  1  0  0  0
 83165  1  0  0  0
 83166  1  0  0  0
 83167  1  0  0  0
 83 89  1  0  0  0
 84168  1  0  0  0
 84169  1  0  0  0
 84170  1  0  0  0
 84 90  1  0  0  0
 85 92  1  0  0  0
 85171  1  0  0  0
 85172  1  0  0  0
 86 90  1  0  0  0
 86 92  1  0  0  0
 86173  1  0  0  0
 86174  1  0  0  0
 87 88  1  0  0  0
 87175  1  0  0  0
 87176  1  0  0  0
 88 93  1  0  0  0
 88177  1  0  0  0
 88178  1  0  0  0
 89179  1  0  0  0
 90 91  1  0  0  0
 90180  1  0  0  0
 91181  1  0  0  0
 92182  1  0  0  0
 92183  1  0  0  0
M  CHG  1  92   1
M  ISO  4   1 100  68 101  87 101  91 100
M  END
> <chiral flag>
0

> <version>
0

> <s_m_source_file>
/data/baiqing/PycharmProjects/Reinvent-master-3.2/result/LINK_invent/BTK/process_docking_weight1_custom_sum_contain_oxygen_bond_distance_aromatic_linkinvent_7_9_3/rearranged_h_0144.sdf

> <i_m_source_file_index>
25

> <r_mmod_Potential_Energy-OPLS-2005>
28852.58203125

> <r_mmod_Stretch_Energy-OPLS-2005>
15126.2373046875

> <r_mmod_Bend_Energy-OPLS-2005>
3758.05786132812

> <r_mmod_Torsional_Energy-OPLS-2005>
847.316833496094

> <r_mmod_Improper_Torsional_Energy-OPLS-2005>
113.52498626709

> <r_mmod_Van_der_Waal_Energy-OPLS-2005>
6225.7275390625

> <r_mmod_Electrostatic_Energy-OPLS-2005>
-413.143096923828

> <r_mmod_Solvation_Energy-OPLS-2005>
-421.198394775391

> <b_mmod_Minimization_Converged-OPLS-2005>
0

> <r_mmod_RMS_Derivative-OPLS-2005>
5.45128870010376

$$$$
25
                    3D
 Structure written by MMmdl.
182191  0  0  1  0            999 V2000
  -30.8141  -14.3095   20.7240 C   0  0  0  0  0  0
  -30.4060  -12.2863   19.3794 C   0  0  0  0  0  0
  -29.4734  -12.5336   18.1829 C   0  0  0  0  0  0
  -28.0026  -12.3803   18.6072 C   0  0  0  0  0  0
  -27.6640  -13.2054   19.8755 C   0  0  2  0  0  0
  -28.7021  -12.9593   20.9919 C   0  0  0  0  0  0
  -25.2593  -13.8164   20.5673 C   0  0  0  0  0  0
  -24.1840  -13.0442   20.9159 C   0  0  0  0  0  0
  -24.6391  -11.6907   20.8725 C   0  0  0  0  0  0
  -23.9057  -10.4299   21.0399 C   0  0  0  0  0  0
  -24.3611   -9.4213   21.9177 C   0  0  0  0  0  0
  -23.6290   -8.2246   22.0750 C   0  0  0  0  0  0
  -22.4271   -8.0284   21.3545 C   0  0  0  0  0  0
  -21.9905   -9.0253   20.4642 C   0  0  0  0  0  0
  -22.7229  -10.2134   20.3050 C   0  0  0  0  0  0
  -21.6854   -6.0733   22.5278 C   0  0  0  0  0  0
  -21.4013   -6.5639   23.8211 C   0  0  0  0  0  0
  -21.3661   -5.6792   24.9178 C   0  0  0  0  0  0
  -21.6044   -4.3053   24.7227 C   0  0  0  0  0  0
  -21.8820   -3.8146   23.4348 C   0  0  0  0  0  0
  -21.9191   -4.6961   22.3404 C   0  0  0  0  0  0
  -22.7863  -13.5239   21.1835 C   0  0  0  0  0  0
  -22.1662   -4.2147   21.0979 F   0  0  0  0  0  0
  -21.5630   -3.4540   25.7740 F   0  0  0  0  0  0
  -30.0499  -13.2233   20.4541 N   0  0  0  0  0  0
  -26.3037  -12.9336   20.3368 N   0  0  0  0  0  0
  -25.9318  -11.6496   20.5748 N   0  0  0  0  0  0
  -22.0509  -12.8233   22.0396 N   0  0  0  0  0  0
  -25.4329  -15.1878   20.4090 N   0  0  0  0  0  0
  -31.7755  -14.6556   20.0313 O   0  0  0  0  0  0
  -21.6641   -6.8876   21.4241 O   0  0  0  0  0  0
  -22.3550  -14.5554   20.6695 O   0  0  0  0  0  0
  -24.6112  -31.8692   23.2124 C   0  0  0  0  0  0
  -25.9017  -32.4832   23.8400 C   0  0  1  0  0  0
  -27.2326  -27.4608   20.0884 C   0  0  0  0  0  0
  -25.5872  -33.8627   24.2322 N   0  0  0  0  0  0
  -23.3979  -30.4945   21.5518 C   0  0  2  0  0  0
  -24.8435  -28.9654   20.1129 C   0  0  0  0  0  0
  -22.7388  -29.4667   22.4993 C   0  0  0  0  0  0
  -18.0268  -28.1383   22.8495 C   0  0  0  0  0  0
  -24.1480  -36.7335   23.2635 C   0  0  0  0  0  0
  -25.9232  -30.8447   21.3610 C   0  0  0  0  0  0
  -26.0016  -29.4819   20.7064 C   0  0  0  0  0  0
  -27.1995  -28.7365   20.6909 C   0  0  0  0  0  0
  -26.0598  -26.9582   19.4785 C   0  0  0  0  0  0
  -24.8663  -27.7022   19.4969 C   0  0  0  0  0  0
  -23.6039  -29.8277   20.1656 C   0  0  0  0  0  0
  -25.4099  -36.3118   24.0333 C   0  0  1  0  0  0
  -20.5857  -28.3656   23.1330 C   0  0  2  0  0  0
  -20.6754  -26.9394   22.5422 C   0  0  0  0  0  0
  -19.5737  -26.6388   21.5210 C   0  0  0  0  0  0
  -18.1914  -26.7931   22.1623 C   0  0  0  0  0  0
  -19.1515  -28.8837   23.2914 C   0  0  0  0  0  0
  -18.9446  -30.1447   23.8922 C   0  0  0  0  0  0
  -17.6448  -30.6586   24.0576 C   0  0  0  0  0  0
  -25.9022  -34.9482   23.5129 C   0  0  0  0  0  0
  -16.5340  -29.9086   23.6333 C   0  0  0  0  0  0
  -16.7258  -28.6510   23.0338 C   0  0  0  0  0  0
  -26.4455  -31.6612   25.0717 C   0  0  0  0  0  0
  -25.3731  -31.3722   26.1473 C   0  0  0  0  0  0
  -27.0273  -30.3050   24.6090 C   0  0  0  0  0  0
  -27.6030  -32.4323   25.7484 C   0  0  0  0  0  0
  -27.5582  -37.1814   24.8463 C   0  0  0  0  0  0
  -21.4118  -29.3036   22.3743 N   0  0  0  0  0  0
  -26.4298  -37.3789   23.9402 N   0  0  0  0  0  0
  -24.6627  -31.0820   22.1017 N   0  0  0  0  0  0
  -23.4179  -28.8193   23.3007 O   0  0  0  0  0  0
  -28.4078  -26.7446   20.1215 O   0  0  0  0  0  0
  -26.5596  -34.8937   22.4697 O   0  0  0  0  0  0
  -23.5312  -32.1419   23.7547 O   0  0  0  0  0  0
  -28.6874  -19.6198   21.3592 C   0  0  0  0  0  0
  -29.7299  -18.1304   23.4797 C   0  0  0  0  0  0
  -28.1310  -19.7783   22.6490 C   0  0  0  0  0  0
  -29.7624  -18.7394   21.1205 C   0  0  0  0  0  0
  -30.3182  -18.0120   22.2034 C   0  0  0  0  0  0
  -28.6292  -18.9889   23.7145 C   0  0  0  0  0  0
  -27.5155  -21.9159   23.8965 C   0  0  0  0  0  0
  -26.3136  -21.4128   21.6948 C   0  0  0  0  0  0
  -27.1657  -23.3418   23.4414 C   0  0  0  0  0  0
  -27.0182  -22.6434   21.0655 C   0  0  0  0  0  0
  -27.0237  -20.8062   22.9311 C   0  0  1  0  0  0
  -32.0114  -19.4553   18.0003 C   0  0  0  0  0  0
  -28.4662  -18.2784   26.0109 C   0  0  0  0  0  0
  -30.2946  -18.6325   19.6966 C   0  0  0  0  0  0
  -31.5941  -17.1806   22.0710 C   0  0  0  0  0  0
  -31.4958  -19.5560   19.4409 C   0  0  0  0  0  0
  -31.5133  -15.7412   22.6206 C   0  0  0  0  0  0
  -27.5969  -25.0052   21.6726 C   0  0  0  0  0  0
  -28.3104  -25.3312   20.3350 C   0  0  0  0  0  0
  -30.5720  -14.8791   21.9092 N   0  0  0  0  0  0
  -27.6468  -23.5672   22.0567 N   0  3  1  0  0  0
  -28.0280  -19.1195   24.9502 O   0  0  0  0  0  0
  -31.4488  -12.3803   19.0709 H   0  0  0  0  0  0
  -30.2974  -11.2621   19.7394 H   0  0  0  0  0  0
  -29.7039  -11.8382   17.3743 H   0  0  0  0  0  0
  -29.6410  -13.5356   17.7844 H   0  0  0  0  0  0
  -27.8165  -11.3216   18.7916 H   0  0  0  0  0  0
  -27.3433  -12.6658   17.7867 H   0  0  0  0  0  0
  -27.7201  -14.2582   19.5979 H   0  0  0  0  0  0
  -28.6529  -11.9252   21.3355 H   0  0  0  0  0  0
  -28.4512  -13.5700   21.8593 H   0  0  0  0  0  0
  -25.2757   -9.5693   22.4749 H   0  0  0  0  0  0
  -24.0001   -7.4641   22.7474 H   0  0  0  0  0  0
  -21.0834   -8.8769   19.8953 H   0  0  0  0  0  0
  -22.3685  -10.9669   19.6161 H   0  0  0  0  0  0
  -21.2008   -7.6147   23.9716 H   0  0  0  0  0  0
  -21.1481   -6.0522   25.9077 H   0  0  0  0  0  0
  -22.0598   -2.7609   23.2850 H   0  0  0  0  0  0
  -22.4118  -11.9885   22.4773 H   0  0  0  0  0  0
  -21.1128  -13.1263   22.2606 H   0  0  0  0  0  0
  -24.6734  -15.8493   20.5274 H   0  0  0  0  0  0
  -26.3010  -15.6266   20.1268 H   0  0  0  0  0  0
  -26.7079  -32.5554   23.1164 H   0  0  0  0  0  0
  -25.0002  -33.9782   25.0454 H   0  0  0  0  0  0
  -22.6867  -31.3112   21.4137 H   0  0  0  0  0  0
  -23.3730  -35.9682   23.3304 H   0  0  0  0  0  0
  -24.3573  -36.8944   22.2050 H   0  0  0  0  0  0
  -23.7256  -37.6551   23.6650 H   0  0  0  0  0  0
  -26.0298  -31.6155   20.5969 H   0  0  0  0  0  0
  -26.8140  -30.8995   21.9756 H   0  0  0  0  0  0
  -28.0937  -29.1272   21.1580 H   0  0  0  0  0  0
  -26.0490  -26.0000   18.9806 H   0  0  0  0  0  0
  -23.9782  -27.3002   19.0289 H   0  0  0  0  0  0
  -23.7052  -30.6020   19.4040 H   0  0  0  0  0  0
  -22.7301  -29.2427   19.8733 H   0  0  0  0  0  0
  -25.1275  -36.1990   25.0828 H   0  0  0  0  0  0
  -20.9957  -28.3218   24.1446 H   0  0  0  0  0  0
  -20.5662  -26.2255   23.3601 H   0  0  0  0  0  0
  -21.6621  -26.7444   22.1209 H   0  0  0  0  0  0
  -19.6904  -25.6305   21.1221 H   0  0  0  0  0  0
  -19.6685  -27.3209   20.6751 H   0  0  0  0  0  0
  -17.4180  -26.6679   21.4025 H   0  0  0  0  0  0
  -18.0323  -26.0077   22.9029 H   0  0  0  0  0  0
  -19.7924  -30.7257   24.2294 H   0  0  0  0  0  0
  -17.5002  -31.6269   24.5165 H   0  0  0  0  0  0
  -15.5341  -30.2989   23.7655 H   0  0  0  0  0  0
  -15.8658  -28.0847   22.7022 H   0  0  0  0  0  0
  -24.5886  -30.7092   25.7814 H   0  0  0  0  0  0
  -24.8949  -32.2879   26.4954 H   0  0  0  0  0  0
  -25.8089  -30.8867   27.0212 H   0  0  0  0  0  0
  -26.2815  -29.6827   24.1127 H   0  0  0  0  0  0
  -27.4011  -29.7280   25.4559 H   0  0  0  0  0  0
  -27.8664  -30.4352   23.9251 H   0  0  0  0  0  0
  -27.2638  -33.3595   26.2117 H   0  0  0  0  0  0
  -28.3814  -32.6921   25.0301 H   0  0  0  0  0  0
  -28.0723  -31.8414   26.5361 H   0  0  0  0  0  0
  -28.2597  -38.0112   24.7497 H   0  0  0  0  0  0
  -28.1076  -36.2641   24.6293 H   0  0  0  0  0  0
  -27.2304  -37.1478   25.8868 H   0  0  0  0  0  0
  -20.9266  -29.8790   21.7001 H   0  0  0  0  0  0
  -26.0196  -38.2874   24.1392 H   0  0  0  0  0  0
  -28.3079  -20.1833   20.5226 H   0  0  0  0  0  0
  -30.1657  -17.5681   24.2901 H   0  0  0  0  0  0
  -27.1197  -21.7399   24.8979 H   0  0  0  0  0  0
  -28.5996  -21.8594   24.0032 H   0  0  0  0  0  0
  -26.0988  -20.6523   20.9428 H   0  0  0  0  0  0
  -25.3287  -21.7472   22.0236 H   0  0  0  0  0  0
  -27.6342  -24.0544   24.1215 H   0  0  0  0  0  0
  -26.0914  -23.5218   23.5031 H   0  0  0  0  0  0
  -26.2781  -23.1782   20.4685 H   0  0  0  0  0  0
  -27.7919  -22.3288   20.3664 H   0  0  0  0  0  0
  -26.2511  -20.2399   23.4554 H   0  0  0  0  0  0
  -32.8708  -20.1082   17.8464 H   0  0  0  0  0  0
  -31.2421  -19.7452   17.2833 H   0  0  0  0  0  0
  -32.3223  -18.4370   17.7639 H   0  0  0  0  0  0
  -27.8375  -18.4401   26.8864 H   0  0  0  0  0  0
  -29.4941  -18.5052   26.2976 H   0  0  0  0  0  0
  -28.3901  -17.2222   25.7469 H   0  0  0  0  0  0
  -29.4941  -18.8893   19.0007 H   0  0  0  0  0  0
  -30.5402  -17.5956   19.4653 H   0  0  0  0  0  0
  -32.3686  -17.7134   22.6246 H   0  0  0  0  0  0
  -31.9630  -17.1511   21.0485 H   0  0  0  0  0  0
  -31.2142  -20.5888   19.6518 H   0  0  0  0  0  0
  -32.3072  -19.3145   20.1284 H   0  0  0  0  0  0
  -31.2506  -15.7401   23.6779 H   0  0  0  0  0  0
  -32.5063  -15.2903   22.5720 H   0  0  0  0  0  0
  -26.5552  -25.3265   21.6507 H   0  0  0  0  0  0
  -28.0782  -25.5919   22.4570 H   0  0  0  0  0  0
  -27.8387  -24.8391   19.4848 H   0  0  0  0  0  0
  -29.3297  -24.9442   20.3708 H   0  0  0  0  0  0
  -29.7827  -14.5254   22.4293 H   0  0  0  0  0  0
  -28.6258  -23.3168   22.0836 H   0  0  0  0  0  0
  1 25  1  0  0  0
  1 30  2  0  0  0
  1 90  1  0  0  0
  2  3  1  0  0  0
  2 25  1  0  0  0
  2 93  1  0  0  0
  2 94  1  0  0  0
  3  4  1  0  0  0
  3 95  1  0  0  0
  3 96  1  0  0  0
  4  5  1  0  0  0
  4 97  1  0  0  0
  4 98  1  0  0  0
  5  6  1  0  0  0
  5 26  1  0  0  0
  5 99  1  0  0  0
  6 25  1  0  0  0
  6100  1  0  0  0
  6101  1  0  0  0
  7  8  2  0  0  0
  7 26  1  0  0  0
  7 29  1  0  0  0
  8  9  1  0  0  0
  8 22  1  0  0  0
  9 10  1  0  0  0
  9 27  2  0  0  0
 10 11  2  0  0  0
 10 15  1  0  0  0
 11 12  1  0  0  0
 11102  1  0  0  0
 12 13  2  0  0  0
 12103  1  0  0  0
 13 14  1  0  0  0
 13 31  1  0  0  0
 14 15  2  0  0  0
 14104  1  0  0  0
 15105  1  0  0  0
 16 17  2  0  0  0
 16 21  1  0  0  0
 16 31  1  0  0  0
 17 18  1  0  0  0
 17106  1  0  0  0
 18 19  2  0  0  0
 18107  1  0  0  0
 19 20  1  0  0  0
 19 24  1  0  0  0
 20 21  2  0  0  0
 20108  1  0  0  0
 21 23  1  0  0  0
 22 28  1  0  0  0
 22 32  2  0  0  0
 26 27  1  0  0  0
 28109  1  0  0  0
 28110  1  0  0  0
 29111  1  0  0  0
 29112  1  0  0  0
 33 34  1  0  0  0
 33 66  1  0  0  0
 33 70  2  0  0  0
 34 36  1  0  0  0
 34 59  1  0  0  0
 34113  1  0  0  0
 35 44  2  0  0  0
 35 45  1  0  0  0
 35 68  1  0  0  0
 36 56  1  0  0  0
 36114  1  0  0  0
 37 39  1  0  0  0
 37 47  1  0  0  0
 37 66  1  0  0  0
 37115  1  0  0  0
 38 43  2  0  0  0
 38 46  1  0  0  0
 38 47  1  0  0  0
 39 64  1  0  0  0
 39 67  2  0  0  0
 40 52  1  0  0  0
 40 53  2  0  0  0
 40 58  1  0  0  0
 41116  1  0  0  0
 41117  1  0  0  0
 41118  1  0  0  0
 41 48  1  0  0  0
 42 43  1  0  0  0
 42 66  1  0  0  0
 42119  1  0  0  0
 42120  1  0  0  0
 43 44  1  0  0  0
 44121  1  0  0  0
 45 46  2  0  0  0
 45122  1  0  0  0
 46123  1  0  0  0
 47124  1  0  0  0
 47125  1  0  0  0
 48 56  1  0  0  0
 48 65  1  0  0  0
 48126  1  0  0  0
 49 50  1  0  0  0
 49 53  1  0  0  0
 49 64  1  0  0  0
 49127  1  0  0  0
 50 51  1  0  0  0
 50128  1  0  0  0
 50129  1  0  0  0
 51 52  1  0  0  0
 51130  1  0  0  0
 51131  1  0  0  0
 52132  1  0  0  0
 52133  1  0  0  0
 53 54  1  0  0  0
 54 55  2  0  0  0
 54134  1  0  0  0
 55 57  1  0  0  0
 55135  1  0  0  0
 56 69  2  0  0  0
 57 58  2  0  0  0
 57136  1  0  0  0
 58137  1  0  0  0
 59 60  1  0  0  0
 59 61  1  0  0  0
 59 62  1  0  0  0
 60138  1  0  0  0
 60139  1  0  0  0
 60140  1  0  0  0
 61141  1  0  0  0
 61142  1  0  0  0
 61143  1  0  0  0
 62144  1  0  0  0
 62145  1  0  0  0
 62146  1  0  0  0
 63 65  1  0  0  0
 63147  1  0  0  0
 63148  1  0  0  0
 63149  1  0  0  0
 64150  1  0  0  0
 65151  1  0  0  0
 68 89  1  0  0  0
 71 73  2  0  0  0
 71 74  1  0  0  0
 71152  1  0  0  0
 72 75  1  0  0  0
 72 76  2  0  0  0
 72153  1  0  0  0
 73 76  1  0  0  0
 73 81  1  0  0  0
 74 75  2  0  0  0
 74 84  1  0  0  0
 75 85  1  0  0  0
 76 92  1  0  0  0
 77 79  1  0  0  0
 77 81  1  0  0  0
 77154  1  0  0  0
 77155  1  0  0  0
 78 80  1  0  0  0
 78 81  1  0  0  0
 78156  1  0  0  0
 78157  1  0  0  0
 79 91  1  0  0  0
 79158  1  0  0  0
 79159  1  0  0  0
 80 91  1  0  0  0
 80160  1  0  0  0
 80161  1  0  0  0
 81162  1  0  0  0
 82 86  1  0  0  0
 82163  1  0  0  0
 82164  1  0  0  0
 82165  1  0  0  0
 83 92  1  0  0  0
 83166  1  0  0  0
 83167  1  0  0  0
 83168  1  0  0  0
 84 86  1  0  0  0
 84169  1  0  0  0
 84170  1  0  0  0
 85 87  1  0  0  0
 85171  1  0  0  0
 85172  1  0  0  0
 86173  1  0  0  0
 86174  1  0  0  0
 87 90  1  0  0  0
 87175  1  0  0  0
 87176  1  0  0  0
 88 89  1  0  0  0
 88177  1  0  0  0
 88178  1  0  0  0
 88 91  1  0  0  0
 89179  1  0  0  0
 89180  1  0  0  0
 90181  1  0  0  0
 91182  1  0  0  0
M  CHG  1  91   1
M  ISO  4   1 100  68 101  89 101  90 100
M  END
> <chiral flag>
0

> <version>
0

> <s_m_source_file>
/data/baiqing/PycharmProjects/Reinvent-master-3.2/result/LINK_invent/BTK/process_docking_weight1_custom_sum_contain_oxygen_bond_distance_aromatic_linkinvent_7_9_3/rearranged_h_0144.sdf

> <i_m_source_file_index>
26

> <r_mmod_Potential_Energy-OPLS-2005>
-102.876304626465

> <r_mmod_Stretch_Energy-OPLS-2005>
37.7945976257324

> <r_mmod_Bend_Energy-OPLS-2005>
111.310241699219

> <r_mmod_Torsional_Energy-OPLS-2005>
269.609466552734

> <r_mmod_Improper_Torsional_Energy-OPLS-2005>
4.32763957977295

> <r_mmod_Van_der_Waal_Energy-OPLS-2005>
171.447906494141

> <r_mmod_Electrostatic_Energy-OPLS-2005>
-302.398529052734

> <r_mmod_Solvation_Energy-OPLS-2005>
-403.634552001953

> <b_mmod_Minimization_Converged-OPLS-2005>
0

> <r_mmod_RMS_Derivative-OPLS-2005>
1.27763867378235

$$$$
26
                    3D
 Structure written by MMmdl.
176185  0  0  1  0            999 V2000
  -30.7348  -14.4169   20.5925 C   0  0  0  0  0  0
  -30.4158  -12.2737   19.4219 C   0  0  0  0  0  0
  -29.4952  -12.5092   18.2083 C   0  0  0  0  0  0
  -28.0167  -12.3752   18.6173 C   0  0  0  0  0  0
  -27.6678  -13.2053   19.8812 C   0  0  2  0  0  0
  -28.7063  -12.9683   21.0018 C   0  0  0  0  0  0
  -25.2597  -13.8156   20.5645 C   0  0  0  0  0  0
  -24.1839  -13.0433   20.9142 C   0  0  0  0  0  0
  -24.6401  -11.6908   20.8720 C   0  0  0  0  0  0
  -23.9056  -10.4298   21.0380 C   0  0  0  0  0  0
  -24.3605   -9.4216   21.9171 C   0  0  0  0  0  0
  -23.6284   -8.2252   22.0753 C   0  0  0  0  0  0
  -22.4270   -8.0273   21.3540 C   0  0  0  0  0  0
  -21.9891   -9.0244   20.4653 C   0  0  0  0  0  0
  -22.7218  -10.2129   20.3054 C   0  0  0  0  0  0
  -21.6854   -6.0733   22.5275 C   0  0  0  0  0  0
  -21.4016   -6.5637   23.8201 C   0  0  0  0  0  0
  -21.3659   -5.6788   24.9169 C   0  0  0  0  0  0
  -21.6047   -4.3059   24.7220 C   0  0  0  0  0  0
  -21.8819   -3.8144   23.4345 C   0  0  0  0  0  0
  -21.9195   -4.6952   22.3403 C   0  0  0  0  0  0
  -22.7862  -13.5226   21.1816 C   0  0  0  0  0  0
  -22.1658   -4.2143   21.0983 F   0  0  0  0  0  0
  -21.5627   -3.4540   25.7734 F   0  0  0  0  0  0
  -30.0476  -13.2507   20.4584 N   0  0  0  0  0  0
  -26.3055  -12.9333   20.3392 N   0  0  0  0  0  0
  -25.9339  -11.6492   20.5773 N   0  0  0  0  0  0
  -22.0521  -12.8235   22.0388 N   0  0  0  0  0  0
  -25.4293  -15.1861   20.4031 N   0  0  0  0  0  0
  -31.8336  -14.6028   20.0637 O   0  0  0  0  0  0
  -21.6633   -6.8861   21.4237 O   0  0  0  0  0  0
  -22.3546  -14.5537   20.6668 O   0  0  0  0  0  0
  -24.6133  -31.8714   23.2173 C   0  0  0  0  0  0
  -25.9041  -32.4843   23.8436 C   0  0  1  0  0  0
  -27.2476  -27.4622   20.0903 C   0  0  0  0  0  0
  -25.5909  -33.8662   24.2316 N   0  0  0  0  0  0
  -23.4006  -30.4955   21.5578 C   0  0  2  0  0  0
  -24.8533  -28.9556   20.1407 C   0  0  0  0  0  0
  -22.7379  -29.4704   22.5047 C   0  0  0  0  0  0
  -18.0226  -28.1413   22.8498 C   0  0  0  0  0  0
  -24.1478  -36.7337   23.2620 C   0  0  0  0  0  0
  -25.9298  -30.8410   21.3737 C   0  0  0  0  0  0
  -26.0153  -29.4728   20.7319 C   0  0  0  0  0  0
  -27.2210  -28.7324   20.7114 C   0  0  0  0  0  0
  -26.0692  -26.9520   19.5147 C   0  0  0  0  0  0
  -24.8713  -27.6852   19.5373 C   0  0  0  0  0  0
  -23.6157  -29.8208   20.1784 C   0  0  0  0  0  0
  -25.4114  -36.3142   24.0294 C   0  0  1  0  0  0
  -20.5822  -28.3709   23.1334 C   0  0  2  0  0  0
  -20.6753  -26.9462   22.5413 C   0  0  0  0  0  0
  -19.5728  -26.6427   21.5206 C   0  0  0  0  0  0
  -18.1890  -26.7960   22.1618 C   0  0  0  0  0  0
  -19.1479  -28.8871   23.2911 C   0  0  0  0  0  0
  -18.9413  -30.1465   23.8938 C   0  0  0  0  0  0
  -17.6426  -30.6631   24.0578 C   0  0  0  0  0  0
  -25.9044  -34.9504   23.5091 C   0  0  0  0  0  0
  -16.5310  -29.9150   23.6352 C   0  0  0  0  0  0
  -16.7221  -28.6560   23.0379 C   0  0  0  0  0  0
  -26.4489  -31.6612   25.0758 C   0  0  0  0  0  0
  -25.3759  -31.3684   26.1498 C   0  0  0  0  0  0
  -27.0291  -30.3029   24.6164 C   0  0  0  0  0  0
  -27.6090  -32.4322   25.7484 C   0  0  0  0  0  0
  -27.5571  -37.1813   24.8449 C   0  0  0  0  0  0
  -21.4109  -29.3066   22.3748 N   0  0  0  0  0  0
  -26.4300  -37.3833   23.9384 N   0  0  0  0  0  0
  -24.6656  -31.0829   22.1065 N   0  0  0  0  0  0
  -23.4156  -28.8211   23.3060 O   0  0  0  0  0  0
  -28.3862  -26.7396   19.8485 O   0  0  0  0  0  0
  -26.5647  -34.8947   22.4678 O   0  0  0  0  0  0
  -23.5330  -32.1463   23.7574 O   0  0  0  0  0  0
  -30.9623  -18.8529   20.0657 C   0  0  0  0  0  0
  -31.0816  -17.4691   20.3090 C   0  0  0  0  0  0
  -30.5638  -27.1052   20.7192 C   0  0  0  0  0  0
  -29.1955  -25.3119   21.6193 C   0  0  0  0  0  0
  -28.9209  -18.9116   21.3813 C   0  0  0  0  0  0
  -29.8769  -19.5840   20.5887 C   0  0  0  0  0  0
  -31.6675  -26.6555   21.4666 C   0  0  0  0  0  0
  -30.2982  -24.8219   22.3632 C   0  0  0  0  0  0
  -30.1060  -16.7822   21.0743 C   0  0  0  0  0  0
  -29.3325  -26.4413   20.7907 C   0  0  0  0  0  0
  -31.5326  -25.5275   22.3216 C   0  0  0  0  0  0
  -29.0359  -17.5266   21.6263 C   0  0  0  0  0  0
  -32.9921  -27.3686   21.2452 C   0  0  0  0  0  0
  -34.5397  -25.7124   24.3631 C   0  0  0  0  0  0
  -29.3624  -23.7930   24.4797 C   0  0  0  0  0  0
  -29.7141  -21.0614   20.2378 C   0  0  0  0  0  0
  -29.5449  -22.3465   22.3807 C   0  0  0  0  0  0
  -33.0542  -25.9654   24.0829 C   0  0  0  0  0  0
  -30.1492  -23.5303   23.1842 C   0  0  1  0  0  0
  -30.1107  -15.3706   21.3010 N   0  0  0  0  0  0
  -30.3598  -21.9775   21.2013 N   0  3  0  0  0  0
  -32.5980  -25.0735   23.0646 O   0  0  0  0  0  0
  -27.8345  -16.7390   22.5886 Cl  0  0  0  0  0  0
  -31.4644  -12.3456   19.1258 H   0  0  0  0  0  0
  -30.2869  -11.2593   19.8038 H   0  0  0  0  0  0
  -29.7281  -11.7988   17.4147 H   0  0  0  0  0  0
  -29.6749  -13.5021   17.7940 H   0  0  0  0  0  0
  -27.8234  -11.3189   18.8039 H   0  0  0  0  0  0
  -27.3676  -12.6601   17.7893 H   0  0  0  0  0  0
  -27.7185  -14.2564   19.5972 H   0  0  0  0  0  0
  -28.6679  -11.9323   21.3417 H   0  0  0  0  0  0
  -28.4668  -13.5667   21.8813 H   0  0  0  0  0  0
  -25.2752   -9.5688   22.4737 H   0  0  0  0  0  0
  -23.9991   -7.4641   22.7478 H   0  0  0  0  0  0
  -21.0819   -8.8771   19.8957 H   0  0  0  0  0  0
  -22.3674  -10.9669   19.6166 H   0  0  0  0  0  0
  -21.2017   -7.6146   23.9704 H   0  0  0  0  0  0
  -21.1476   -6.0525   25.9066 H   0  0  0  0  0  0
  -22.0603   -2.7605   23.2852 H   0  0  0  0  0  0
  -22.4135  -11.9890   22.4769 H   0  0  0  0  0  0
  -21.1148  -13.1281   22.2615 H   0  0  0  0  0  0
  -24.6710  -15.8450   20.5367 H   0  0  0  0  0  0
  -26.3011  -15.6329   20.1499 H   0  0  0  0  0  0
  -26.7122  -32.5580   23.1217 H   0  0  0  0  0  0
  -24.9961  -33.9883   25.0381 H   0  0  0  0  0  0
  -22.6861  -31.3091   21.4123 H   0  0  0  0  0  0
  -23.3750  -35.9657   23.3324 H   0  0  0  0  0  0
  -24.3511  -36.8933   22.2013 H   0  0  0  0  0  0
  -23.7259  -37.6547   23.6663 H   0  0  0  0  0  0
  -26.0388  -31.6052   20.6034 H   0  0  0  0  0  0
  -26.8221  -30.9017   21.9863 H   0  0  0  0  0  0
  -28.1315  -29.1460   21.1261 H   0  0  0  0  0  0
  -26.0943  -25.9947   19.0148 H   0  0  0  0  0  0
  -23.9831  -27.2812   19.0732 H   0  0  0  0  0  0
  -23.7305  -30.5956   19.4191 H   0  0  0  0  0  0
  -22.7418  -29.2397   19.8814 H   0  0  0  0  0  0
  -25.1292  -36.1997   25.0787 H   0  0  0  0  0  0
  -20.9884  -28.3334   24.1477 H   0  0  0  0  0  0
  -20.5646  -26.2369   23.3628 H   0  0  0  0  0  0
  -21.6633  -26.7547   22.1182 H   0  0  0  0  0  0
  -19.6933  -25.6343   21.1228 H   0  0  0  0  0  0
  -19.6660  -27.3261   20.6751 H   0  0  0  0  0  0
  -17.4144  -26.6681   21.4037 H   0  0  0  0  0  0
  -18.0335  -26.0093   22.9010 H   0  0  0  0  0  0
  -19.7868  -30.7245   24.2395 H   0  0  0  0  0  0
  -17.4979  -31.6320   24.5160 H   0  0  0  0  0  0
  -15.5323  -30.3077   23.7692 H   0  0  0  0  0  0
  -15.8586  -28.0900   22.7153 H   0  0  0  0  0  0
  -24.5942  -30.7057   25.7787 H   0  0  0  0  0  0
  -24.8941  -32.2810   26.5014 H   0  0  0  0  0  0
  -25.8082  -30.8772   27.0227 H   0  0  0  0  0  0
  -26.2828  -29.6791   24.1225 H   0  0  0  0  0  0
  -27.4010  -29.7289   25.4668 H   0  0  0  0  0  0
  -27.8709  -30.4260   23.9341 H   0  0  0  0  0  0
  -27.2725  -33.3590   26.2141 H   0  0  0  0  0  0
  -28.3845  -32.6904   25.0264 H   0  0  0  0  0  0
  -28.0848  -31.8409   26.5310 H   0  0  0  0  0  0
  -28.2617  -38.0086   24.7509 H   0  0  0  0  0  0
  -28.1038  -36.2626   24.6278 H   0  0  0  0  0  0
  -27.2283  -37.1457   25.8851 H   0  0  0  0  0  0
  -20.9339  -29.8700   21.6843 H   0  0  0  0  0  0
  -26.0187  -38.2898   24.1455 H   0  0  0  0  0  0
  -31.7067  -19.3399   19.4490 H   0  0  0  0  0  0
  -31.9291  -16.9620   19.8747 H   0  0  0  0  0  0
  -30.6795  -27.9248   20.0220 H   0  0  0  0  0  0
  -28.2503  -24.7910   21.6258 H   0  0  0  0  0  0
  -28.0755  -19.4496   21.7839 H   0  0  0  0  0  0
  -33.2036  -27.4381   20.1793 H   0  0  0  0  0  0
  -33.8379  -26.8470   21.6893 H   0  0  0  0  0  0
  -32.9538  -28.3794   21.6539 H   0  0  0  0  0  0
  -34.9296  -26.4622   25.0520 H   0  0  0  0  0  0
  -35.1382  -25.7665   23.4530 H   0  0  0  0  0  0
  -34.6955  -24.7347   24.8163 H   0  0  0  0  0  0
  -29.8817  -24.5171   25.1078 H   0  0  0  0  0  0
  -29.2468  -22.8797   25.0657 H   0  0  0  0  0  0
  -28.3628  -24.1837   24.2796 H   0  0  0  0  0  0
  -28.6593  -21.3078   20.1044 H   0  0  0  0  0  0
  -30.1776  -21.2302   19.2652 H   0  0  0  0  0  0
  -28.5314  -22.5959   22.0642 H   0  0  0  0  0  0
  -29.4497  -21.4701   23.0236 H   0  0  0  0  0  0
  -32.9153  -27.0139   23.8176 H   0  0  0  0  0  0
  -32.4677  -25.8120   24.9880 H   0  0  0  0  0  0
  -31.1398  -23.2055   23.4998 H   0  0  0  0  0  0
  -29.3120  -15.0389   21.8209 H   0  0  0  0  0  0
  -30.5639  -22.8271   20.6998 H   0  0  0  0  0  0
  -31.2398  -21.5816   21.4908 H   0  0  0  0  0  0
  1 25  1  0  0  0
  1 30  2  0  0  0
  1 90  1  0  0  0
  2  3  1  0  0  0
  2 25  1  0  0  0
  2 94  1  0  0  0
  2 95  1  0  0  0
  3  4  1  0  0  0
  3 96  1  0  0  0
  3 97  1  0  0  0
  4  5  1  0  0  0
  4 98  1  0  0  0
  4 99  1  0  0  0
  5  6  1  0  0  0
  5 26  1  0  0  0
  5100  1  0  0  0
  6 25  1  0  0  0
  6101  1  0  0  0
  6102  1  0  0  0
  7  8  2  0  0  0
  7 26  1  0  0  0
  7 29  1  0  0  0
  8  9  1  0  0  0
  8 22  1  0  0  0
  9 10  1  0  0  0
  9 27  2  0  0  0
 10 11  2  0  0  0
 10 15  1  0  0  0
 11 12  1  0  0  0
 11103  1  0  0  0
 12 13  2  0  0  0
 12104  1  0  0  0
 13 14  1  0  0  0
 13 31  1  0  0  0
 14 15  2  0  0  0
 14105  1  0  0  0
 15106  1  0  0  0
 16 17  2  0  0  0
 16 21  1  0  0  0
 16 31  1  0  0  0
 17 18  1  0  0  0
 17107  1  0  0  0
 18 19  2  0  0  0
 18108  1  0  0  0
 19 20  1  0  0  0
 19 24  1  0  0  0
 20 21  2  0  0  0
 20109  1  0  0  0
 21 23  1  0  0  0
 22 28  1  0  0  0
 22 32  2  0  0  0
 26 27  1  0  0  0
 28110  1  0  0  0
 28111  1  0  0  0
 29112  1  0  0  0
 29113  1  0  0  0
 33 34  1  0  0  0
 33 66  1  0  0  0
 33 70  2  0  0  0
 34 36  1  0  0  0
 34 59  1  0  0  0
 34114  1  0  0  0
 35 44  2  0  0  0
 35 45  1  0  0  0
 35 68  1  0  0  0
 36 56  1  0  0  0
 36115  1  0  0  0
 37 39  1  0  0  0
 37 47  1  0  0  0
 37 66  1  0  0  0
 37116  1  0  0  0
 38 43  2  0  0  0
 38 46  1  0  0  0
 38 47  1  0  0  0
 39 64  1  0  0  0
 39 67  2  0  0  0
 40 52  1  0  0  0
 40 53  2  0  0  0
 40 58  1  0  0  0
 41117  1  0  0  0
 41118  1  0  0  0
 41119  1  0  0  0
 41 48  1  0  0  0
 42 43  1  0  0  0
 42 66  1  0  0  0
 42120  1  0  0  0
 42121  1  0  0  0
 43 44  1  0  0  0
 44122  1  0  0  0
 45 46  2  0  0  0
 45123  1  0  0  0
 46124  1  0  0  0
 47125  1  0  0  0
 47126  1  0  0  0
 48 56  1  0  0  0
 48 65  1  0  0  0
 48127  1  0  0  0
 49 50  1  0  0  0
 49 53  1  0  0  0
 49 64  1  0  0  0
 49128  1  0  0  0
 50 51  1  0  0  0
 50129  1  0  0  0
 50130  1  0  0  0
 51 52  1  0  0  0
 51131  1  0  0  0
 51132  1  0  0  0
 52133  1  0  0  0
 52134  1  0  0  0
 53 54  1  0  0  0
 54 55  2  0  0  0
 54135  1  0  0  0
 55 57  1  0  0  0
 55136  1  0  0  0
 56 69  2  0  0  0
 57 58  2  0  0  0
 57137  1  0  0  0
 58138  1  0  0  0
 59 60  1  0  0  0
 59 61  1  0  0  0
 59 62  1  0  0  0
 60139  1  0  0  0
 60140  1  0  0  0
 60141  1  0  0  0
 61142  1  0  0  0
 61143  1  0  0  0
 61144  1  0  0  0
 62145  1  0  0  0
 62146  1  0  0  0
 62147  1  0  0  0
 63 65  1  0  0  0
 63148  1  0  0  0
 63149  1  0  0  0
 63150  1  0  0  0
 64151  1  0  0  0
 65152  1  0  0  0
 68 80  1  0  0  0
 71 72  2  0  0  0
 71 76  1  0  0  0
 71153  1  0  0  0
 72 79  1  0  0  0
 72154  1  0  0  0
 73 77  2  0  0  0
 73 80  1  0  0  0
 73155  1  0  0  0
 74 78  1  0  0  0
 74 80  2  0  0  0
 74156  1  0  0  0
 75 76  2  0  0  0
 75 82  1  0  0  0
 75157  1  0  0  0
 76 86  1  0  0  0
 77 81  1  0  0  0
 77 83  1  0  0  0
 78 81  2  0  0  0
 78 89  1  0  0  0
 79 82  2  0  0  0
 79 90  1  0  0  0
 81 92  1  0  0  0
 82 93  1  0  0  0
 83158  1  0  0  0
 83159  1  0  0  0
 83160  1  0  0  0
 84 88  1  0  0  0
 84161  1  0  0  0
 84162  1  0  0  0
 84163  1  0  0  0
 85164  1  0  0  0
 85165  1  0  0  0
 85166  1  0  0  0
 85 89  1  0  0  0
 86 91  1  0  0  0
 86167  1  0  0  0
 86168  1  0  0  0
 87 89  1  0  0  0
 87 91  1  0  0  0
 87169  1  0  0  0
 87170  1  0  0  0
 88 92  1  0  0  0
 88171  1  0  0  0
 88172  1  0  0  0
 89173  1  0  0  0
 90174  1  0  0  0
 91175  1  0  0  0
 91176  1  0  0  0
M  CHG  1  91   1
M  ISO  4   1 100  68 101  80 101  90 100
M  END
> <chiral flag>
0

> <version>
0

> <s_m_source_file>
/data/baiqing/PycharmProjects/Reinvent-master-3.2/result/LINK_invent/BTK/process_docking_weight1_custom_sum_contain_oxygen_bond_distance_aromatic_linkinvent_7_9_3/rearranged_h_0144.sdf

> <i_m_source_file_index>
27

> <r_mmod_Potential_Energy-OPLS-2005>
-271.072113037109

> <r_mmod_Stretch_Energy-OPLS-2005>
37.9424057006836

> <r_mmod_Bend_Energy-OPLS-2005>
112.531867980957

> <r_mmod_Torsional_Energy-OPLS-2005>
260.961761474609

> <r_mmod_Improper_Torsional_Energy-OPLS-2005>
6.63029956817627

> <r_mmod_Van_der_Waal_Energy-OPLS-2005>
164.891708374023

> <r_mmod_Electrostatic_Energy-OPLS-2005>
-418.262878417969

> <r_mmod_Solvation_Energy-OPLS-2005>
-446.692077636719

> <b_mmod_Minimization_Converged-OPLS-2005>
0

> <r_mmod_RMS_Derivative-OPLS-2005>
4.51782846450806

$$$$
27
                    3D
 Structure written by MMmdl.
157165  0  0  1  0            999 V2000
  -30.6622  -14.6432   20.4911 C   0  0  0  0  0  0
  -30.4216  -12.3950   19.4652 C   0  0  0  0  0  0
  -29.5008  -12.4979   18.2309 C   0  0  0  0  0  0
  -28.0260  -12.3363   18.6451 C   0  0  0  0  0  0
  -27.6457  -13.2249   19.8595 C   0  0  2  0  0  0
  -28.6900  -13.1254   20.9937 C   0  0  0  0  0  0
  -25.2517  -13.8192   20.5701 C   0  0  0  0  0  0
  -24.1796  -13.0440   20.9190 C   0  0  0  0  0  0
  -24.6373  -11.6915   20.8741 C   0  0  0  0  0  0
  -23.9046  -10.4293   21.0395 C   0  0  0  0  0  0
  -24.3603   -9.4210   21.9171 C   0  0  0  0  0  0
  -23.6286   -8.2243   22.0748 C   0  0  0  0  0  0
  -22.4272   -8.0273   21.3535 C   0  0  0  0  0  0
  -21.9900   -9.0238   20.4635 C   0  0  0  0  0  0
  -22.7217  -10.2125   20.3042 C   0  0  0  0  0  0
  -21.6854   -6.0724   22.5268 C   0  0  0  0  0  0
  -21.4015   -6.5632   23.8200 C   0  0  0  0  0  0
  -21.3662   -5.6790   24.9165 C   0  0  0  0  0  0
  -21.6049   -4.3052   24.7222 C   0  0  0  0  0  0
  -21.8820   -3.8138   23.4345 C   0  0  0  0  0  0
  -21.9193   -4.6953   22.3397 C   0  0  0  0  0  0
  -22.7819  -13.5220   21.1860 C   0  0  0  0  0  0
  -22.1660   -4.2138   21.0975 F   0  0  0  0  0  0
  -21.5634   -3.4540   25.7737 F   0  0  0  0  0  0
  -30.0023  -13.4447   20.4174 N   0  0  0  0  0  0
  -26.2948  -12.9390   20.3327 N   0  0  0  0  0  0
  -25.9309  -11.6535   20.5771 N   0  0  0  0  0  0
  -22.0487  -12.8196   22.0427 N   0  0  0  0  0  0
  -25.4220  -15.1915   20.4115 N   0  0  0  0  0  0
  -31.8385  -14.7415   20.1374 O   0  0  0  0  0  0
  -21.6642   -6.8868   21.4229 O   0  0  0  0  0  0
  -22.3492  -14.5524   20.6710 O   0  0  0  0  0  0
  -24.6255  -31.8595   23.2044 C   0  0  0  0  0  0
  -25.9106  -32.4780   23.8367 C   0  0  1  0  0  0
  -27.2182  -27.3192   20.1255 C   0  0  0  0  0  0
  -25.5925  -33.8583   24.2288 N   0  0  0  0  0  0
  -23.4207  -30.4829   21.5459 C   0  0  2  0  0  0
  -24.8709  -28.9444   20.1062 C   0  0  0  0  0  0
  -22.7482  -29.4613   22.4937 C   0  0  0  0  0  0
  -18.0283  -28.1387   22.8482 C   0  0  0  0  0  0
  -24.1482  -36.7289   23.2640 C   0  0  0  0  0  0
  -25.9623  -30.7899   21.3785 C   0  0  0  0  0  0
  -26.0382  -29.4189   20.7189 C   0  0  0  0  0  0
  -27.2199  -28.6170   20.7221 C   0  0  0  0  0  0
  -26.0395  -26.9080   19.4679 C   0  0  0  0  0  0
  -24.8734  -27.6946   19.4684 C   0  0  0  0  0  0
  -23.6363  -29.8213   20.1597 C   0  0  0  0  0  0
  -25.4110  -36.3080   24.0331 C   0  0  1  0  0  0
  -20.5887  -28.3691   23.1284 C   0  0  2  0  0  0
  -20.6776  -26.9416   22.5410 C   0  0  0  0  0  0
  -19.5750  -26.6378   21.5219 C   0  0  0  0  0  0
  -18.1924  -26.7928   22.1618 C   0  0  0  0  0  0
  -19.1539  -28.8858   23.2869 C   0  0  0  0  0  0
  -18.9465  -30.1465   23.8878 C   0  0  0  0  0  0
  -17.6468  -30.6591   24.0568 C   0  0  0  0  0  0
  -25.9049  -34.9452   23.5109 C   0  0  0  0  0  0
  -16.5357  -29.9089   23.6344 C   0  0  0  0  0  0
  -16.7273  -28.6511   23.0354 C   0  0  0  0  0  0
  -26.4498  -31.6595   25.0736 C   0  0  0  0  0  0
  -25.3726  -31.3736   26.1458 C   0  0  0  0  0  0
  -27.0370  -30.3027   24.6204 C   0  0  0  0  0  0
  -27.6051  -32.4350   25.7501 C   0  0  0  0  0  0
  -27.5581  -37.1785   24.8459 C   0  0  0  0  0  0
  -21.4195  -29.3039   22.3681 N   0  0  0  0  0  0
  -26.4280  -37.3779   23.9423 N   0  0  0  0  0  0
  -24.6878  -31.0610   22.0994 N   0  0  0  0  0  0
  -23.4205  -28.8153   23.3020 O   0  0  0  0  0  0
  -28.2817  -26.4080   20.1883 O   0  0  0  0  0  0
  -26.5618  -34.8918   22.4676 O   0  0  0  0  0  0
  -23.5420  -32.1391   23.7370 O   0  0  0  0  0  0
  -29.5083  -23.2244   21.6715 C   0  0  0  0  0  0
  -28.2897  -22.8971   19.6312 C   0  0  0  0  0  0
  -28.6517  -23.7784   20.6864 C   0  0  0  0  0  0
  -29.9690  -21.8733   21.6190 C   0  0  0  0  0  0
  -28.7513  -21.5403   19.5641 C   0  0  0  0  0  0
  -29.5907  -20.9857   20.5750 C   0  0  0  0  0  0
  -30.8876  -21.3664   22.7147 C   0  0  0  0  0  0
  -28.3455  -20.6980   18.3695 C   0  0  0  0  0  0
  -27.9421  -25.1669   20.9255 C   0  0  0  0  0  0
  -30.4660  -17.1895   20.6205 C   0  0  0  0  0  0
  -29.4794  -18.4448   20.6759 C   0  0  0  0  0  0
  -29.9392  -15.7789   20.7535 N   0  0  0  0  0  0
  -30.1963  -19.7128   20.4987 O   0  0  0  0  0  0
  -31.4659  -12.4966   19.1652 H   0  0  0  0  0  0
  -30.3392  -11.4108   19.9289 H   0  0  0  0  0  0
  -29.7680  -11.7380   17.4955 H   0  0  0  0  0  0
  -29.6424  -13.4626   17.7421 H   0  0  0  0  0  0
  -27.8680  -11.2861   18.8923 H   0  0  0  0  0  0
  -27.3705  -12.5499   17.8005 H   0  0  0  0  0  0
  -27.6537  -14.2525   19.4968 H   0  0  0  0  0  0
  -28.7011  -12.1237   21.4252 H   0  0  0  0  0  0
  -28.4413  -13.8058   21.8098 H   0  0  0  0  0  0
  -25.2747   -9.5701   22.4740 H   0  0  0  0  0  0
  -24.0000   -7.4646   22.7477 H   0  0  0  0  0  0
  -21.0833   -8.8739   19.8948 H   0  0  0  0  0  0
  -22.3657  -10.9653   19.6155 H   0  0  0  0  0  0
  -21.2005   -7.6140   23.9695 H   0  0  0  0  0  0
  -21.1490   -6.0524   25.9066 H   0  0  0  0  0  0
  -22.0599   -2.7600   23.2844 H   0  0  0  0  0  0
  -22.4131  -11.9851   22.4784 H   0  0  0  0  0  0
  -21.1107  -13.1196   22.2676 H   0  0  0  0  0  0
  -24.6533  -15.8455   20.5136 H   0  0  0  0  0  0
  -26.2703  -15.6292   20.0752 H   0  0  0  0  0  0
  -26.7172  -32.5449   23.1114 H   0  0  0  0  0  0
  -25.0114  -33.9740   25.0463 H   0  0  0  0  0  0
  -22.7131  -31.3026   21.4038 H   0  0  0  0  0  0
  -23.3751  -35.9609   23.3284 H   0  0  0  0  0  0
  -24.3574  -36.8927   22.2055 H   0  0  0  0  0  0
  -23.7221  -37.6480   23.6679 H   0  0  0  0  0  0
  -26.0946  -31.5529   20.6104 H   0  0  0  0  0  0
  -26.8418  -30.8376   22.0086 H   0  0  0  0  0  0
  -28.1092  -28.9683   21.2256 H   0  0  0  0  0  0
  -26.0088  -25.9459   18.9764 H   0  0  0  0  0  0
  -23.9817  -27.3284   18.9784 H   0  0  0  0  0  0
  -23.7519  -30.5992   19.4039 H   0  0  0  0  0  0
  -22.7575  -29.2475   19.8599 H   0  0  0  0  0  0
  -25.1280  -36.1926   25.0821 H   0  0  0  0  0  0
  -20.9972  -28.3262   24.1410 H   0  0  0  0  0  0
  -20.5696  -26.2302   23.3608 H   0  0  0  0  0  0
  -21.6640  -26.7449   22.1195 H   0  0  0  0  0  0
  -19.6914  -25.6288   21.1256 H   0  0  0  0  0  0
  -19.6695  -27.3182   20.6749 H   0  0  0  0  0  0
  -17.4202  -26.6700   21.4003 H   0  0  0  0  0  0
  -18.0300  -26.0071   22.9009 H   0  0  0  0  0  0
  -19.7946  -30.7289   24.2228 H   0  0  0  0  0  0
  -17.5026  -31.6274   24.5165 H   0  0  0  0  0  0
  -15.5359  -30.2984   23.7692 H   0  0  0  0  0  0
  -15.8670  -28.0838   22.7069 H   0  0  0  0  0  0
  -24.5925  -30.7055   25.7792 H   0  0  0  0  0  0
  -24.8889  -32.2898   26.4849 H   0  0  0  0  0  0
  -25.8041  -30.8949   27.0255 H   0  0  0  0  0  0
  -26.2967  -29.6748   24.1235 H   0  0  0  0  0  0
  -27.4088  -29.7309   25.4717 H   0  0  0  0  0  0
  -27.8811  -30.4332   23.9431 H   0  0  0  0  0  0
  -27.2670  -33.3674   26.2036 H   0  0  0  0  0  0
  -28.3875  -32.6871   25.0329 H   0  0  0  0  0  0
  -28.0705  -31.8505   26.5448 H   0  0  0  0  0  0
  -28.2562  -38.0115   24.7560 H   0  0  0  0  0  0
  -28.1111  -36.2651   24.6213 H   0  0  0  0  0  0
  -27.2309  -37.1347   25.8860 H   0  0  0  0  0  0
  -20.9383  -29.8773   21.6895 H   0  0  0  0  0  0
  -26.0156  -38.2840   24.1465 H   0  0  0  0  0  0
  -29.7877  -23.8414   22.5142 H   0  0  0  0  0  0
  -27.6140  -23.2614   18.8698 H   0  0  0  0  0  0
  -31.0245  -22.1059   23.5044 H   0  0  0  0  0  0
  -31.8673  -21.1220   22.3036 H   0  0  0  0  0  0
  -30.4750  -20.4643   23.1682 H   0  0  0  0  0  0
  -28.1481  -21.3244   17.4990 H   0  0  0  0  0  0
  -27.4400  -20.1341   18.5931 H   0  0  0  0  0  0
  -29.1322  -19.9943   18.0963 H   0  0  0  0  0  0
  -28.0743  -25.4133   21.9795 H   0  0  0  0  0  0
  -26.8788  -24.9405   20.8469 H   0  0  0  0  0  0
  -31.2251  -17.3245   21.3921 H   0  0  0  0  0  0
  -31.0037  -17.2469   19.6728 H   0  0  0  0  0  0
  -28.9631  -18.4647   21.6365 H   0  0  0  0  0  0
  -28.7128  -18.3466   19.9081 H   0  0  0  0  0  0
  -28.9676  -15.6615   20.9988 H   0  0  0  0  0  0
  1 25  1  0  0  0
  1 30  2  0  0  0
  1 82  1  0  0  0
  2  3  1  0  0  0
  2 25  1  0  0  0
  2 84  1  0  0  0
  2 85  1  0  0  0
  3  4  1  0  0  0
  3 86  1  0  0  0
  3 87  1  0  0  0
  4  5  1  0  0  0
  4 88  1  0  0  0
  4 89  1  0  0  0
  5  6  1  0  0  0
  5 26  1  0  0  0
  5 90  1  0  0  0
  6 25  1  0  0  0
  6 91  1  0  0  0
  6 92  1  0  0  0
  7  8  2  0  0  0
  7 26  1  0  0  0
  7 29  1  0  0  0
  8  9  1  0  0  0
  8 22  1  0  0  0
  9 10  1  0  0  0
  9 27  2  0  0  0
 10 11  2  0  0  0
 10 15  1  0  0  0
 11 12  1  0  0  0
 11 93  1  0  0  0
 12 13  2  0  0  0
 12 94  1  0  0  0
 13 14  1  0  0  0
 13 31  1  0  0  0
 14 15  2  0  0  0
 14 95  1  0  0  0
 15 96  1  0  0  0
 16 17  2  0  0  0
 16 21  1  0  0  0
 16 31  1  0  0  0
 17 18  1  0  0  0
 17 97  1  0  0  0
 18 19  2  0  0  0
 18 98  1  0  0  0
 19 20  1  0  0  0
 19 24  1  0  0  0
 20 21  2  0  0  0
 20 99  1  0  0  0
 21 23  1  0  0  0
 22 28  1  0  0  0
 22 32  2  0  0  0
 26 27  1  0  0  0
 28100  1  0  0  0
 28101  1  0  0  0
 29102  1  0  0  0
 29103  1  0  0  0
 33 34  1  0  0  0
 33 66  1  0  0  0
 33 70  2  0  0  0
 34 36  1  0  0  0
 34 59  1  0  0  0
 34104  1  0  0  0
 35 44  2  0  0  0
 35 45  1  0  0  0
 35 68  1  0  0  0
 36 56  1  0  0  0
 36105  1  0  0  0
 37 39  1  0  0  0
 37 47  1  0  0  0
 37 66  1  0  0  0
 37106  1  0  0  0
 38 43  2  0  0  0
 38 46  1  0  0  0
 38 47  1  0  0  0
 39 64  1  0  0  0
 39 67  2  0  0  0
 40 52  1  0  0  0
 40 53  2  0  0  0
 40 58  1  0  0  0
 41107  1  0  0  0
 41108  1  0  0  0
 41109  1  0  0  0
 41 48  1  0  0  0
 42 43  1  0  0  0
 42 66  1  0  0  0
 42110  1  0  0  0
 42111  1  0  0  0
 43 44  1  0  0  0
 44112  1  0  0  0
 45 46  2  0  0  0
 45113  1  0  0  0
 46114  1  0  0  0
 47115  1  0  0  0
 47116  1  0  0  0
 48 56  1  0  0  0
 48 65  1  0  0  0
 48117  1  0  0  0
 49 50  1  0  0  0
 49 53  1  0  0  0
 49 64  1  0  0  0
 49118  1  0  0  0
 50 51  1  0  0  0
 50119  1  0  0  0
 50120  1  0  0  0
 51 52  1  0  0  0
 51121  1  0  0  0
 51122  1  0  0  0
 52123  1  0  0  0
 52124  1  0  0  0
 53 54  1  0  0  0
 54 55  2  0  0  0
 54125  1  0  0  0
 55 57  1  0  0  0
 55126  1  0  0  0
 56 69  2  0  0  0
 57 58  2  0  0  0
 57127  1  0  0  0
 58128  1  0  0  0
 59 60  1  0  0  0
 59 61  1  0  0  0
 59 62  1  0  0  0
 60129  1  0  0  0
 60130  1  0  0  0
 60131  1  0  0  0
 61132  1  0  0  0
 61133  1  0  0  0
 61134  1  0  0  0
 62135  1  0  0  0
 62136  1  0  0  0
 62137  1  0  0  0
 63 65  1  0  0  0
 63138  1  0  0  0
 63139  1  0  0  0
 63140  1  0  0  0
 64141  1  0  0  0
 65142  1  0  0  0
 68 79  1  0  0  0
 71 73  2  0  0  0
 71 74  1  0  0  0
 71143  1  0  0  0
 72 73  1  0  0  0
 72 75  2  0  0  0
 72144  1  0  0  0
 73 79  1  0  0  0
 74 76  2  0  0  0
 74 77  1  0  0  0
 75 76  1  0  0  0
 75 78  1  0  0  0
 76 83  1  0  0  0
 77145  1  0  0  0
 77146  1  0  0  0
 77147  1  0  0  0
 78148  1  0  0  0
 78149  1  0  0  0
 78150  1  0  0  0
 79151  1  0  0  0
 79152  1  0  0  0
 80 81  1  0  0  0
 80 82  1  0  0  0
 80153  1  0  0  0
 80154  1  0  0  0
 81 83  1  0  0  0
 81155  1  0  0  0
 81156  1  0  0  0
 82157  1  0  0  0
M  ISO  4   1 100  68 101  79 101  82 100
M  END
> <chiral flag>
0

> <version>
0

> <s_m_source_file>
/data/baiqing/PycharmProjects/Reinvent-master-3.2/result/LINK_invent/BTK/process_docking_weight1_custom_sum_contain_oxygen_bond_distance_aromatic_linkinvent_7_9_3/rearranged_h_0144.sdf

> <i_m_source_file_index>
28

> <r_mmod_Potential_Energy-OPLS-2005>
54.1001510620117

> <r_mmod_Stretch_Energy-OPLS-2005>
79.7697982788086

> <r_mmod_Bend_Energy-OPLS-2005>
143.208358764648

> <r_mmod_Torsional_Energy-OPLS-2005>
264.241760253906

> <r_mmod_Improper_Torsional_Energy-OPLS-2005>
7.30067682266235

> <r_mmod_Van_der_Waal_Energy-OPLS-2005>
140.231872558594

> <r_mmod_Electrostatic_Energy-OPLS-2005>
-426.034942626953

> <r_mmod_Solvation_Energy-OPLS-2005>
-211.424835205078

> <b_mmod_Minimization_Converged-OPLS-2005>
0

> <r_mmod_RMS_Derivative-OPLS-2005>
1.09698581695557

$$$$
28
                    3D
 Structure written by MMmdl.
167176  0  0  1  0            999 V2000
  -30.7028  -14.4759   20.5797 C   0  0  0  0  0  0
  -30.4103  -12.3106   19.4160 C   0  0  0  0  0  0
  -29.4822  -12.5082   18.2001 C   0  0  0  0  0  0
  -28.0069  -12.3650   18.6183 C   0  0  0  0  0  0
  -27.6569  -13.2103   19.8716 C   0  0  2  0  0  0
  -28.6999  -12.9960   20.9909 C   0  0  0  0  0  0
  -25.2579  -13.8172   20.5709 C   0  0  0  0  0  0
  -24.1831  -13.0418   20.9177 C   0  0  0  0  0  0
  -24.6402  -11.6895   20.8731 C   0  0  0  0  0  0
  -23.9090  -10.4266   21.0391 C   0  0  0  0  0  0
  -24.3650   -9.4172   21.9168 C   0  0  0  0  0  0
  -23.6315   -8.2217   22.0750 C   0  0  0  0  0  0
  -22.4294   -8.0266   21.3530 C   0  0  0  0  0  0
  -21.9927   -9.0245   20.4651 C   0  0  0  0  0  0
  -22.7273  -10.2119   20.3043 C   0  0  0  0  0  0
  -21.6840   -6.0733   22.5264 C   0  0  0  0  0  0
  -21.4018   -6.5633   23.8202 C   0  0  0  0  0  0
  -21.3656   -5.6795   24.9171 C   0  0  0  0  0  0
  -21.6040   -4.3047   24.7227 C   0  0  0  0  0  0
  -21.8806   -3.8141   23.4340 C   0  0  0  0  0  0
  -21.9190   -4.6959   22.3399 C   0  0  0  0  0  0
  -22.7857  -13.5205   21.1854 C   0  0  0  0  0  0
  -22.1677   -4.2146   21.0973 F   0  0  0  0  0  0
  -21.5625   -3.4520   25.7740 F   0  0  0  0  0  0
  -30.0261  -13.3019   20.4338 N   0  0  0  0  0  0
  -26.3012  -12.9341   20.3370 N   0  0  0  0  0  0
  -25.9328  -11.6506   20.5762 N   0  0  0  0  0  0
  -22.0547  -12.8156   22.0427 N   0  0  0  0  0  0
  -25.4254  -15.1884   20.4167 N   0  0  0  0  0  0
  -31.8224  -14.6655   20.0994 O   0  0  0  0  0  0
  -21.6647   -6.8872   21.4232 O   0  0  0  0  0  0
  -22.3496  -14.5498   20.6712 O   0  0  0  0  0  0
  -24.6164  -31.8673   23.2053 C   0  0  0  0  0  0
  -25.9049  -32.4825   23.8395 C   0  0  1  0  0  0
  -27.2458  -27.4174   20.1155 C   0  0  0  0  0  0
  -25.5890  -33.8623   24.2312 N   0  0  0  0  0  0
  -23.4066  -30.4885   21.5419 C   0  0  2  0  0  0
  -24.8544  -28.9414   20.1175 C   0  0  0  0  0  0
  -22.7410  -29.4693   22.4952 C   0  0  0  0  0  0
  -18.0278  -28.1376   22.8488 C   0  0  0  0  0  0
  -24.1484  -36.7314   23.2626 C   0  0  0  0  0  0
  -25.9364  -30.8251   21.3620 C   0  0  0  0  0  0
  -26.0115  -29.4560   20.7143 C   0  0  0  0  0  0
  -27.2048  -28.7013   20.7080 C   0  0  0  0  0  0
  -26.0649  -26.9048   19.5308 C   0  0  0  0  0  0
  -24.8759  -27.6641   19.5267 C   0  0  0  0  0  0
  -23.6176  -29.8108   20.1595 C   0  0  0  0  0  0
  -25.4102  -36.3111   24.0333 C   0  0  1  0  0  0
  -20.5867  -28.3682   23.1268 C   0  0  2  0  0  0
  -20.6761  -26.9415   22.5374 C   0  0  0  0  0  0
  -19.5740  -26.6386   21.5183 C   0  0  0  0  0  0
  -18.1927  -26.7923   22.1611 C   0  0  0  0  0  0
  -19.1525  -28.8838   23.2881 C   0  0  0  0  0  0
  -18.9467  -30.1441   23.8898 C   0  0  0  0  0  0
  -17.6474  -30.6584   24.0566 C   0  0  0  0  0  0
  -25.9051  -34.9481   23.5127 C   0  0  0  0  0  0
  -16.5370  -29.9096   23.6325 C   0  0  0  0  0  0
  -16.7276  -28.6514   23.0348 C   0  0  0  0  0  0
  -26.4441  -31.6629   25.0750 C   0  0  0  0  0  0
  -25.3668  -31.3766   26.1486 C   0  0  0  0  0  0
  -27.0271  -30.3058   24.6174 C   0  0  0  0  0  0
  -27.6048  -32.4340   25.7479 C   0  0  0  0  0  0
  -27.5612  -37.1761   24.8436 C   0  0  0  0  0  0
  -21.4139  -29.3066   22.3675 N   0  0  0  0  0  0
  -26.4267  -37.3821   23.9449 N   0  0  0  0  0  0
  -24.6707  -31.0761   22.0951 N   0  0  0  0  0  0
  -23.4161  -28.8255   23.3025 O   0  0  0  0  0  0
  -28.4492  -26.7393   20.1416 O   0  0  0  0  0  0
  -26.5628  -34.8933   22.4703 O   0  0  0  0  0  0
  -23.5338  -32.1456   23.7404 O   0  0  0  0  0  0
  -28.8249  -20.7313   20.6456 C   0  0  0  0  0  0
  -27.1559  -22.0159   19.4335 C   0  0  0  0  0  0
  -27.1895  -19.5750   19.2411 C   0  0  0  0  0  0
  -28.2852  -19.5150   20.1471 C   0  0  0  0  0  0
  -28.2674  -21.9886   20.2995 C   0  0  0  0  0  0
  -26.5850  -20.8225   18.9438 C   0  0  0  0  0  0
  -27.5673  -17.3592   17.8810 C   0  0  0  0  0  0
  -26.5983  -18.1858   17.0774 C   0  0  0  0  0  0
  -26.6440  -18.3312   18.5869 C   0  0  0  0  0  0
  -24.4127  -21.7365   18.5962 C   0  0  0  0  0  0
  -30.1820  -17.9340   20.5629 C   0  0  0  0  0  0
  -30.5627  -16.7971   21.5512 C   0  0  0  0  0  0
  -28.5454  -25.3584   19.7578 C   0  0  0  0  0  0
  -28.0664  -24.3677   20.8472 C   0  0  0  0  0  0
  -28.7538  -18.2507   20.5844 N   0  0  0  0  0  0
  -30.0351  -15.4662   21.2032 N   0  0  0  0  0  0
  -25.4467  -20.8479   18.1676 O   0  0  0  0  0  0
  -28.8166  -23.1350   20.8492 O   0  0  0  0  0  0
  -31.4571  -12.3967   19.1205 H   0  0  0  0  0  0
  -30.2955  -11.3020   19.8169 H   0  0  0  0  0  0
  -29.7199  -11.7836   17.4209 H   0  0  0  0  0  0
  -29.6466  -13.4931   17.7618 H   0  0  0  0  0  0
  -27.8258  -11.3093   18.8243 H   0  0  0  0  0  0
  -27.3476  -12.6302   17.7908 H   0  0  0  0  0  0
  -27.6966  -14.2571   19.5681 H   0  0  0  0  0  0
  -28.6789  -11.9634   21.3392 H   0  0  0  0  0  0
  -28.4625  -13.5994   21.8660 H   0  0  0  0  0  0
  -25.2821   -9.5638   22.4726 H   0  0  0  0  0  0
  -24.0001   -7.4607   22.7491 H   0  0  0  0  0  0
  -21.0844   -8.8786   19.8972 H   0  0  0  0  0  0
  -22.3763  -10.9651   19.6138 H   0  0  0  0  0  0
  -21.2014   -7.6142   23.9694 H   0  0  0  0  0  0
  -21.1516   -6.0557   25.9082 H   0  0  0  0  0  0
  -22.0588   -2.7611   23.2849 H   0  0  0  0  0  0
  -22.4252  -11.9828   22.4750 H   0  0  0  0  0  0
  -21.1153  -13.1096   22.2676 H   0  0  0  0  0  0
  -24.6570  -15.8362   20.5488 H   0  0  0  0  0  0
  -26.2853  -15.6357   20.1288 H   0  0  0  0  0  0
  -26.7145  -32.5511   23.1179 H   0  0  0  0  0  0
  -24.9998  -33.9808   25.0427 H   0  0  0  0  0  0
  -22.6981  -31.3040   21.3916 H   0  0  0  0  0  0
  -23.3790  -35.9590   23.3185 H   0  0  0  0  0  0
  -24.3612  -36.9061   22.2065 H   0  0  0  0  0  0
  -23.7162  -37.6449   23.6724 H   0  0  0  0  0  0
  -26.0506  -31.5834   20.5867 H   0  0  0  0  0  0
  -26.8239  -30.8832   21.9808 H   0  0  0  0  0  0
  -28.0988  -29.0938   21.1718 H   0  0  0  0  0  0
  -26.0398  -25.9193   19.0884 H   0  0  0  0  0  0
  -23.9831  -27.2512   19.0765 H   0  0  0  0  0  0
  -23.7272  -30.5805   19.3948 H   0  0  0  0  0  0
  -22.7446  -29.2258   19.8654 H   0  0  0  0  0  0
  -25.1261  -36.1965   25.0815 H   0  0  0  0  0  0
  -20.9985  -28.3253   24.1377 H   0  0  0  0  0  0
  -20.5662  -26.2300   23.3565 H   0  0  0  0  0  0
  -21.6633  -26.7440   22.1175 H   0  0  0  0  0  0
  -19.6906  -25.6299   21.1218 H   0  0  0  0  0  0
  -19.6667  -27.3180   20.6696 H   0  0  0  0  0  0
  -17.4182  -26.6656   21.4032 H   0  0  0  0  0  0
  -18.0352  -26.0055   22.8995 H   0  0  0  0  0  0
  -19.7943  -30.7250   24.2274 H   0  0  0  0  0  0
  -17.5041  -31.6271   24.5163 H   0  0  0  0  0  0
  -15.5382  -30.3018   23.7643 H   0  0  0  0  0  0
  -15.8670  -28.0864   22.7052 H   0  0  0  0  0  0
  -24.5877  -30.7072   25.7844 H   0  0  0  0  0  0
  -24.8776  -32.2907   26.4864 H   0  0  0  0  0  0
  -25.7975  -30.9015   27.0310 H   0  0  0  0  0  0
  -26.2846  -29.6829   24.1183 H   0  0  0  0  0  0
  -27.3978  -29.7313   25.4680 H   0  0  0  0  0  0
  -27.8706  -30.4381   23.9390 H   0  0  0  0  0  0
  -27.2759  -33.3708   26.1999 H   0  0  0  0  0  0
  -28.3864  -32.6806   25.0277 H   0  0  0  0  0  0
  -28.0703  -31.8481   26.5419 H   0  0  0  0  0  0
  -28.2505  -38.0183   24.7697 H   0  0  0  0  0  0
  -28.1234  -36.2737   24.5987 H   0  0  0  0  0  0
  -27.2365  -37.1091   25.8833 H   0  0  0  0  0  0
  -20.9297  -29.8814   21.6926 H   0  0  0  0  0  0
  -26.0160  -38.2872   24.1565 H   0  0  0  0  0  0
  -29.6557  -20.7110   21.3362 H   0  0  0  0  0  0
  -26.7438  -22.9608   19.1194 H   0  0  0  0  0  0
  -28.6210  -17.6217   17.7924 H   0  0  0  0  0  0
  -27.3643  -16.2980   18.0001 H   0  0  0  0  0  0
  -25.7575  -17.6589   16.6308 H   0  0  0  0  0  0
  -27.0151  -18.9859   16.4679 H   0  0  0  0  0  0
  -25.7940  -17.9371   19.1418 H   0  0  0  0  0  0
  -23.5405  -21.6132   17.9542 H   0  0  0  0  0  0
  -24.6931  -22.7896   18.5449 H   0  0  0  0  0  0
  -24.1020  -21.5104   19.6189 H   0  0  0  0  0  0
  -30.4667  -17.6521   19.5475 H   0  0  0  0  0  0
  -30.7681  -18.8223   20.8063 H   0  0  0  0  0  0
  -30.2279  -17.0423   22.5614 H   0  0  0  0  0  0
  -31.6515  -16.7473   21.6158 H   0  0  0  0  0  0
  -28.1038  -25.1572   18.7825 H   0  0  0  0  0  0
  -29.6151  -25.1859   19.6317 H   0  0  0  0  0  0
  -26.9854  -24.2310   20.8180 H   0  0  0  0  0  0
  -28.2546  -24.8212   21.8201 H   0  0  0  0  0  0
  -28.2012  -17.4811   20.2204 H   0  0  0  0  0  0
  -29.1108  -15.2410   21.5385 H   0  0  0  0  0  0
  1 25  1  0  0  0
  1 30  2  0  0  0
  1 86  1  0  0  0
  2  3  1  0  0  0
  2 25  1  0  0  0
  2 89  1  0  0  0
  2 90  1  0  0  0
  3  4  1  0  0  0
  3 91  1  0  0  0
  3 92  1  0  0  0
  4  5  1  0  0  0
  4 93  1  0  0  0
  4 94  1  0  0  0
  5  6  1  0  0  0
  5 26  1  0  0  0
  5 95  1  0  0  0
  6 25  1  0  0  0
  6 96  1  0  0  0
  6 97  1  0  0  0
  7  8  2  0  0  0
  7 26  1  0  0  0
  7 29  1  0  0  0
  8  9  1  0  0  0
  8 22  1  0  0  0
  9 10  1  0  0  0
  9 27  2  0  0  0
 10 11  2  0  0  0
 10 15  1  0  0  0
 11 12  1  0  0  0
 11 98  1  0  0  0
 12 13  2  0  0  0
 12 99  1  0  0  0
 13 14  1  0  0  0
 13 31  1  0  0  0
 14 15  2  0  0  0
 14100  1  0  0  0
 15101  1  0  0  0
 16 17  2  0  0  0
 16 21  1  0  0  0
 16 31  1  0  0  0
 17 18  1  0  0  0
 17102  1  0  0  0
 18 19  2  0  0  0
 18103  1  0  0  0
 19 20  1  0  0  0
 19 24  1  0  0  0
 20 21  2  0  0  0
 20104  1  0  0  0
 21 23  1  0  0  0
 22 28  1  0  0  0
 22 32  2  0  0  0
 26 27  1  0  0  0
 28105  1  0  0  0
 28106  1  0  0  0
 29107  1  0  0  0
 29108  1  0  0  0
 33 34  1  0  0  0
 33 66  1  0  0  0
 33 70  2  0  0  0
 34 36  1  0  0  0
 34 59  1  0  0  0
 34109  1  0  0  0
 35 44  2  0  0  0
 35 45  1  0  0  0
 35 68  1  0  0  0
 36 56  1  0  0  0
 36110  1  0  0  0
 37 39  1  0  0  0
 37 47  1  0  0  0
 37 66  1  0  0  0
 37111  1  0  0  0
 38 43  2  0  0  0
 38 46  1  0  0  0
 38 47  1  0  0  0
 39 64  1  0  0  0
 39 67  2  0  0  0
 40 52  1  0  0  0
 40 53  2  0  0  0
 40 58  1  0  0  0
 41112  1  0  0  0
 41113  1  0  0  0
 41114  1  0  0  0
 41 48  1  0  0  0
 42 43  1  0  0  0
 42 66  1  0  0  0
 42115  1  0  0  0
 42116  1  0  0  0
 43 44  1  0  0  0
 44117  1  0  0  0
 45 46  2  0  0  0
 45118  1  0  0  0
 46119  1  0  0  0
 47120  1  0  0  0
 47121  1  0  0  0
 48 56  1  0  0  0
 48 65  1  0  0  0
 48122  1  0  0  0
 49 50  1  0  0  0
 49 53  1  0  0  0
 49 64  1  0  0  0
 49123  1  0  0  0
 50 51  1  0  0  0
 50124  1  0  0  0
 50125  1  0  0  0
 51 52  1  0  0  0
 51126  1  0  0  0
 51127  1  0  0  0
 52128  1  0  0  0
 52129  1  0  0  0
 53 54  1  0  0  0
 54 55  2  0  0  0
 54130  1  0  0  0
 55 57  1  0  0  0
 55131  1  0  0  0
 56 69  2  0  0  0
 57 58  2  0  0  0
 57132  1  0  0  0
 58133  1  0  0  0
 59 60  1  0  0  0
 59 61  1  0  0  0
 59 62  1  0  0  0
 60134  1  0  0  0
 60135  1  0  0  0
 60136  1  0  0  0
 61137  1  0  0  0
 61138  1  0  0  0
 61139  1  0  0  0
 62140  1  0  0  0
 62141  1  0  0  0
 62142  1  0  0  0
 63 65  1  0  0  0
 63143  1  0  0  0
 63144  1  0  0  0
 63145  1  0  0  0
 64146  1  0  0  0
 65147  1  0  0  0
 68 83  1  0  0  0
 71 74  2  0  0  0
 71 75  1  0  0  0
 71148  1  0  0  0
 72 75  2  0  0  0
 72 76  1  0  0  0
 72149  1  0  0  0
 73 74  1  0  0  0
 73 76  2  0  0  0
 73 79  1  0  0  0
 74 85  1  0  0  0
 75 88  1  0  0  0
 76 87  1  0  0  0
 77 78  1  0  0  0
 77 79  1  0  0  0
 77150  1  0  0  0
 77151  1  0  0  0
 78 79  1  0  0  0
 78152  1  0  0  0
 78153  1  0  0  0
 79154  1  0  0  0
 80 87  1  0  0  0
 80155  1  0  0  0
 80156  1  0  0  0
 80157  1  0  0  0
 81 82  1  0  0  0
 81 85  1  0  0  0
 81158  1  0  0  0
 81159  1  0  0  0
 82 86  1  0  0  0
 82160  1  0  0  0
 82161  1  0  0  0
 83 84  1  0  0  0
 83162  1  0  0  0
 83163  1  0  0  0
 84 88  1  0  0  0
 84164  1  0  0  0
 84165  1  0  0  0
 85166  1  0  0  0
 86167  1  0  0  0
M  ISO  4   1 100  68 101  83 101  86 100
M  END
> <chiral flag>
0

> <version>
0

> <s_m_source_file>
/data/baiqing/PycharmProjects/Reinvent-master-3.2/result/LINK_invent/BTK/process_docking_weight1_custom_sum_contain_oxygen_bond_distance_aromatic_linkinvent_7_9_3/rearranged_h_0144.sdf

> <i_m_source_file_index>
29

> <r_mmod_Potential_Energy-OPLS-2005>
-27.6423053741455

> <r_mmod_Stretch_Energy-OPLS-2005>
42.4190368652344

> <r_mmod_Bend_Energy-OPLS-2005>
124.78409576416

> <r_mmod_Torsional_Energy-OPLS-2005>
254.278106689453

> <r_mmod_Improper_Torsional_Energy-OPLS-2005>
6.70548868179321

> <r_mmod_Van_der_Waal_Energy-OPLS-2005>
149.645324707031

> <r_mmod_Electrostatic_Energy-OPLS-2005>
-398.968353271484

> <r_mmod_Solvation_Energy-OPLS-2005>
-221.277984619141

> <b_mmod_Minimization_Converged-OPLS-2005>
0

> <r_mmod_RMS_Derivative-OPLS-2005>
4.09459590911865

$$$$
29
                    3D
 Structure written by MMmdl.
170179  0  0  1  0            999 V2000
  -30.7197  -14.4147   20.6590 C   0  0  0  0  0  0
  -30.4241  -12.3121   19.3967 C   0  0  0  0  0  0
  -29.4847  -12.5274   18.1938 C   0  0  0  0  0  0
  -28.0070  -12.3868   18.6109 C   0  0  0  0  0  0
  -27.6608  -13.2057   19.8798 C   0  0  2  0  0  0
  -28.6989  -12.9440   20.9918 C   0  0  0  0  0  0
  -25.2567  -13.8155   20.5675 C   0  0  0  0  0  0
  -24.1828  -13.0427   20.9171 C   0  0  0  0  0  0
  -24.6387  -11.6905   20.8719 C   0  0  0  0  0  0
  -23.9051  -10.4299   21.0395 C   0  0  0  0  0  0
  -24.3619   -9.4226   21.9176 C   0  0  0  0  0  0
  -23.6329   -8.2240   22.0745 C   0  0  0  0  0  0
  -22.4308   -8.0253   21.3536 C   0  0  0  0  0  0
  -21.9930   -9.0213   20.4636 C   0  0  0  0  0  0
  -22.7223  -10.2117   20.3063 C   0  0  0  0  0  0
  -21.6853   -6.0742   22.5302 C   0  0  0  0  0  0
  -21.3981   -6.5654   23.8218 C   0  0  0  0  0  0
  -21.3675   -5.6809   24.9197 C   0  0  0  0  0  0
  -21.6060   -4.3067   24.7255 C   0  0  0  0  0  0
  -21.8818   -3.8161   23.4364 C   0  0  0  0  0  0
  -21.9187   -4.6968   22.3423 C   0  0  0  0  0  0
  -22.7842  -13.5188   21.1850 C   0  0  0  0  0  0
  -22.1670   -4.2159   21.0990 F   0  0  0  0  0  0
  -21.5657   -3.4545   25.7764 F   0  0  0  0  0  0
  -30.0371  -13.2570   20.4549 N   0  0  0  0  0  0
  -26.3009  -12.9329   20.3376 N   0  0  0  0  0  0
  -25.9312  -11.6488   20.5768 N   0  0  0  0  0  0
  -22.0522  -12.8149   22.0420 N   0  0  0  0  0  0
  -25.4281  -15.1881   20.4109 N   0  0  0  0  0  0
  -31.7752  -14.6913   20.0807 O   0  0  0  0  0  0
  -21.6649   -6.8870   21.4255 O   0  0  0  0  0  0
  -22.3525  -14.5511   20.6733 O   0  0  0  0  0  0
  -24.6122  -31.8711   23.2161 C   0  0  0  0  0  0
  -25.9013  -32.4845   23.8445 C   0  0  1  0  0  0
  -27.2266  -27.4640   20.0807 C   0  0  0  0  0  0
  -25.5875  -33.8644   24.2379 N   0  0  0  0  0  0
  -23.3958  -30.4968   21.5592 C   0  0  2  0  0  0
  -24.8362  -28.9646   20.1198 C   0  0  0  0  0  0
  -22.7387  -29.4669   22.5061 C   0  0  0  0  0  0
  -18.0257  -28.1366   22.8503 C   0  0  0  0  0  0
  -24.1482  -36.7339   23.2639 C   0  0  0  0  0  0
  -25.9204  -30.8480   21.3581 C   0  0  0  0  0  0
  -25.9983  -29.4848   20.7035 C   0  0  0  0  0  0
  -27.1988  -28.7442   20.6735 C   0  0  0  0  0  0
  -26.0478  -26.9490   19.4973 C   0  0  0  0  0  0
  -24.8535  -27.6946   19.5170 C   0  0  0  0  0  0
  -23.5991  -29.8333   20.1734 C   0  0  0  0  0  0
  -25.4103  -36.3140   24.0345 C   0  0  1  0  0  0
  -20.5845  -28.3639   23.1353 C   0  0  2  0  0  0
  -20.6760  -26.9389   22.5433 C   0  0  0  0  0  0
  -19.5743  -26.6379   21.5214 C   0  0  0  0  0  0
  -18.1909  -26.7916   22.1615 C   0  0  0  0  0  0
  -19.1503  -28.8815   23.2915 C   0  0  0  0  0  0
  -18.9434  -30.1423   23.8940 C   0  0  0  0  0  0
  -17.6444  -30.6588   24.0555 C   0  0  0  0  0  0
  -25.9036  -34.9500   23.5167 C   0  0  0  0  0  0
  -16.5337  -29.9092   23.6332 C   0  0  0  0  0  0
  -16.7245  -28.6492   23.0377 C   0  0  0  0  0  0
  -26.4466  -31.6610   25.0756 C   0  0  0  0  0  0
  -25.3748  -31.3642   26.1513 C   0  0  0  0  0  0
  -27.0285  -30.3080   24.6041 C   0  0  0  0  0  0
  -27.6090  -32.4304   25.7505 C   0  0  0  0  0  0
  -27.5583  -37.1821   24.8463 C   0  0  0  0  0  0
  -21.4123  -29.3013   22.3775 N   0  0  0  0  0  0
  -26.4300  -37.3821   23.9417 N   0  0  0  0  0  0
  -24.6619  -31.0840   22.1050 N   0  0  0  0  0  0
  -23.4178  -28.8201   23.3074 O   0  0  0  0  0  0
  -28.4135  -26.7674   20.0679 O   0  0  0  0  0  0
  -26.5587  -34.8929   22.4725 O   0  0  0  0  0  0
  -23.5324  -32.1453   23.7585 O   0  0  0  0  0  0
  -32.2042  -20.9060   22.4557 C   0  0  0  0  0  0
  -31.3570  -19.8116   22.1919 C   0  0  0  0  0  0
  -31.6478  -21.8551   20.3047 C   0  0  0  0  0  0
  -32.3747  -21.9346   21.5075 C   0  0  0  0  0  0
  -30.7286  -20.8073   20.0630 C   0  0  0  0  0  0
  -30.6189  -19.7336   20.9868 C   0  0  0  0  0  0
  -32.7634  -24.3928   22.3356 C   0  0  0  0  0  0
  -33.3920  -24.3470   20.9625 C   0  0  0  0  0  0
  -33.3079  -23.0858   21.8019 C   0  0  0  0  0  0
  -29.8393  -20.8548   18.8184 C   0  0  0  0  0  0
  -30.5944  -16.6100   21.8703 C   0  0  0  0  0  0
  -29.4407  -22.2808   18.3571 C   0  0  0  0  0  0
  -28.6832  -24.5289   19.1219 C   0  0  0  0  0  0
  -29.4904  -17.6789   21.6610 C   0  0  0  0  0  0
  -28.3560  -25.3726   20.3700 C   0  0  0  0  0  0
  -30.1433  -15.2586   21.5224 N   0  0  0  0  0  0
  -28.8365  -23.0879   19.4453 N   0  3  0  0  0  0
  -29.8044  -18.6613   20.6644 O   0  0  0  0  0  0
  -31.4640  -12.4367   19.0900 H   0  0  0  0  0  0
  -30.3461  -11.2907   19.7702 H   0  0  0  0  0  0
  -29.7153  -11.8201   17.3954 H   0  0  0  0  0  0
  -29.6484  -13.5199   17.7740 H   0  0  0  0  0  0
  -27.8036  -11.3305   18.7867 H   0  0  0  0  0  0
  -27.3555  -12.6877   17.7878 H   0  0  0  0  0  0
  -27.7171  -14.2601   19.6056 H   0  0  0  0  0  0
  -28.6749  -11.8974   21.2928 H   0  0  0  0  0  0
  -28.4408  -13.4978   21.8954 H   0  0  0  0  0  0
  -25.2771   -9.5728   22.4737 H   0  0  0  0  0  0
  -24.0088   -7.4632   22.7450 H   0  0  0  0  0  0
  -21.0869   -8.8688   19.8932 H   0  0  0  0  0  0
  -22.3650  -10.9647   19.6183 H   0  0  0  0  0  0
  -21.1949   -7.6166   23.9710 H   0  0  0  0  0  0
  -21.1508   -6.0555   25.9091 H   0  0  0  0  0  0
  -22.0587   -2.7628   23.2848 H   0  0  0  0  0  0
  -22.4174  -11.9844   22.4844 H   0  0  0  0  0  0
  -21.1120  -13.1101   22.2602 H   0  0  0  0  0  0
  -24.6614  -15.8427   20.5222 H   0  0  0  0  0  0
  -26.2815  -15.6289   20.0916 H   0  0  0  0  0  0
  -26.7083  -32.5582   23.1218 H   0  0  0  0  0  0
  -25.0002  -33.9825   25.0494 H   0  0  0  0  0  0
  -22.6815  -31.3117   21.4271 H   0  0  0  0  0  0
  -23.3746  -35.9668   23.3313 H   0  0  0  0  0  0
  -24.3570  -36.8956   22.2053 H   0  0  0  0  0  0
  -23.7241  -37.6544   23.6651 H   0  0  0  0  0  0
  -26.0161  -31.6137   20.5876 H   0  0  0  0  0  0
  -26.8142  -30.9090   21.9653 H   0  0  0  0  0  0
  -28.1006  -29.1474   21.1122 H   0  0  0  0  0  0
  -26.0378  -25.9839   19.0135 H   0  0  0  0  0  0
  -23.9576  -27.2919   19.0663 H   0  0  0  0  0  0
  -23.7067  -30.6121   19.4174 H   0  0  0  0  0  0
  -22.7204  -29.2570   19.8795 H   0  0  0  0  0  0
  -25.1275  -36.2021   25.0838 H   0  0  0  0  0  0
  -20.9905  -28.3171   24.1485 H   0  0  0  0  0  0
  -20.5671  -26.2230   23.3583 H   0  0  0  0  0  0
  -21.6632  -26.7451   22.1219 H   0  0  0  0  0  0
  -19.6921  -25.6288   21.1230 H   0  0  0  0  0  0
  -19.6710  -27.3195   20.6743 H   0  0  0  0  0  0
  -17.4195  -26.6669   21.4005 H   0  0  0  0  0  0
  -18.0312  -26.0033   22.8988 H   0  0  0  0  0  0
  -19.7913  -30.7206   24.2360 H   0  0  0  0  0  0
  -17.5015  -31.6290   24.5112 H   0  0  0  0  0  0
  -15.5351  -30.3015   23.7645 H   0  0  0  0  0  0
  -15.8628  -28.0816   22.7125 H   0  0  0  0  0  0
  -24.5961  -30.6947   25.7847 H   0  0  0  0  0  0
  -24.8870  -32.2741   26.5024 H   0  0  0  0  0  0
  -25.8139  -30.8792   27.0246 H   0  0  0  0  0  0
  -26.2786  -29.6847   24.1156 H   0  0  0  0  0  0
  -27.4175  -29.7316   25.4452 H   0  0  0  0  0  0
  -27.8575  -30.4470   23.9092 H   0  0  0  0  0  0
  -27.2764  -33.3611   26.2119 H   0  0  0  0  0  0
  -28.3867  -32.6848   25.0288 H   0  0  0  0  0  0
  -28.0767  -31.8377   26.5369 H   0  0  0  0  0  0
  -28.2609  -38.0110   24.7528 H   0  0  0  0  0  0
  -28.1077  -36.2655   24.6283 H   0  0  0  0  0  0
  -27.2297  -37.1468   25.8861 H   0  0  0  0  0  0
  -20.9273  -29.8729   21.7003 H   0  0  0  0  0  0
  -26.0194  -38.2905   24.1421 H   0  0  0  0  0  0
  -32.7451  -20.9381   23.3910 H   0  0  0  0  0  0
  -31.2970  -19.0383   22.9407 H   0  0  0  0  0  0
  -31.7865  -22.6260   19.5642 H   0  0  0  0  0  0
  -31.6826  -24.5276   22.3742 H   0  0  0  0  0  0
  -33.3254  -24.8978   23.1214 H   0  0  0  0  0  0
  -34.3659  -24.8241   20.8581 H   0  0  0  0  0  0
  -32.7202  -24.4875   20.1190 H   0  0  0  0  0  0
  -34.2399  -22.7298   22.2413 H   0  0  0  0  0  0
  -28.9274  -20.2897   19.0100 H   0  0  0  0  0  0
  -30.3537  -20.3406   18.0061 H   0  0  0  0  0  0
  -30.8702  -16.5923   22.9272 H   0  0  0  0  0  0
  -31.5010  -16.8822   21.3303 H   0  0  0  0  0  0
  -28.7418  -22.2221   17.5235 H   0  0  0  0  0  0
  -30.3198  -22.7931   17.9633 H   0  0  0  0  0  0
  -29.6156  -24.9007   18.6931 H   0  0  0  0  0  0
  -27.9108  -24.6541   18.3614 H   0  0  0  0  0  0
  -29.2396  -18.1718   22.6021 H   0  0  0  0  0  0
  -28.5638  -17.1945   21.3503 H   0  0  0  0  0  0
  -29.1064  -25.1970   21.1407 H   0  0  0  0  0  0
  -27.4068  -25.0734   20.8181 H   0  0  0  0  0  0
  -29.3068  -14.9240   21.9766 H   0  0  0  0  0  0
  -29.4318  -22.9965   20.2557 H   0  0  0  0  0  0
  -27.9398  -22.6944   19.6892 H   0  0  0  0  0  0
  1 25  1  0  0  0
  1 30  2  0  0  0
  1 86  1  0  0  0
  2  3  1  0  0  0
  2 25  1  0  0  0
  2 89  1  0  0  0
  2 90  1  0  0  0
  3  4  1  0  0  0
  3 91  1  0  0  0
  3 92  1  0  0  0
  4  5  1  0  0  0
  4 93  1  0  0  0
  4 94  1  0  0  0
  5  6  1  0  0  0
  5 26  1  0  0  0
  5 95  1  0  0  0
  6 25  1  0  0  0
  6 96  1  0  0  0
  6 97  1  0  0  0
  7  8  2  0  0  0
  7 26  1  0  0  0
  7 29  1  0  0  0
  8  9  1  0  0  0
  8 22  1  0  0  0
  9 10  1  0  0  0
  9 27  2  0  0  0
 10 11  2  0  0  0
 10 15  1  0  0  0
 11 12  1  0  0  0
 11 98  1  0  0  0
 12 13  2  0  0  0
 12 99  1  0  0  0
 13 14  1  0  0  0
 13 31  1  0  0  0
 14 15  2  0  0  0
 14100  1  0  0  0
 15101  1  0  0  0
 16 17  2  0  0  0
 16 21  1  0  0  0
 16 31  1  0  0  0
 17 18  1  0  0  0
 17102  1  0  0  0
 18 19  2  0  0  0
 18103  1  0  0  0
 19 20  1  0  0  0
 19 24  1  0  0  0
 20 21  2  0  0  0
 20104  1  0  0  0
 21 23  1  0  0  0
 22 28  1  0  0  0
 22 32  2  0  0  0
 26 27  1  0  0  0
 28105  1  0  0  0
 28106  1  0  0  0
 29107  1  0  0  0
 29108  1  0  0  0
 33 34  1  0  0  0
 33 66  1  0  0  0
 33 70  2  0  0  0
 34 36  1  0  0  0
 34 59  1  0  0  0
 34109  1  0  0  0
 35 44  2  0  0  0
 35 45  1  0  0  0
 35 68  1  0  0  0
 36 56  1  0  0  0
 36110  1  0  0  0
 37 39  1  0  0  0
 37 47  1  0  0  0
 37 66  1  0  0  0
 37111  1  0  0  0
 38 43  2  0  0  0
 38 46  1  0  0  0
 38 47  1  0  0  0
 39 64  1  0  0  0
 39 67  2  0  0  0
 40 52  1  0  0  0
 40 53  2  0  0  0
 40 58  1  0  0  0
 41112  1  0  0  0
 41113  1  0  0  0
 41114  1  0  0  0
 41 48  1  0  0  0
 42 43  1  0  0  0
 42 66  1  0  0  0
 42115  1  0  0  0
 42116  1  0  0  0
 43 44  1  0  0  0
 44117  1  0  0  0
 45 46  2  0  0  0
 45118  1  0  0  0
 46119  1  0  0  0
 47120  1  0  0  0
 47121  1  0  0  0
 48 56  1  0  0  0
 48 65  1  0  0  0
 48122  1  0  0  0
 49 50  1  0  0  0
 49 53  1  0  0  0
 49 64  1  0  0  0
 49123  1  0  0  0
 50 51  1  0  0  0
 50124  1  0  0  0
 50125  1  0  0  0
 51 52  1  0  0  0
 51126  1  0  0  0
 51127  1  0  0  0
 52128  1  0  0  0
 52129  1  0  0  0
 53 54  1  0  0  0
 54 55  2  0  0  0
 54130  1  0  0  0
 55 57  1  0  0  0
 55131  1  0  0  0
 56 69  2  0  0  0
 57 58  2  0  0  0
 57132  1  0  0  0
 58133  1  0  0  0
 59 60  1  0  0  0
 59 61  1  0  0  0
 59 62  1  0  0  0
 60134  1  0  0  0
 60135  1  0  0  0
 60136  1  0  0  0
 61137  1  0  0  0
 61138  1  0  0  0
 61139  1  0  0  0
 62140  1  0  0  0
 62141  1  0  0  0
 62142  1  0  0  0
 63 65  1  0  0  0
 63143  1  0  0  0
 63144  1  0  0  0
 63145  1  0  0  0
 64146  1  0  0  0
 65147  1  0  0  0
 68 85  1  0  0  0
 71 72  2  0  0  0
 71 74  1  0  0  0
 71148  1  0  0  0
 72 76  1  0  0  0
 72149  1  0  0  0
 73 74  2  0  0  0
 73 75  1  0  0  0
 73150  1  0  0  0
 74 79  1  0  0  0
 75 76  2  0  0  0
 75 80  1  0  0  0
 76 88  1  0  0  0
 77 78  1  0  0  0
 77 79  1  0  0  0
 77151  1  0  0  0
 77152  1  0  0  0
 78 79  1  0  0  0
 78153  1  0  0  0
 78154  1  0  0  0
 79155  1  0  0  0
 80 82  1  0  0  0
 80156  1  0  0  0
 80157  1  0  0  0
 81 84  1  0  0  0
 81 86  1  0  0  0
 81158  1  0  0  0
 81159  1  0  0  0
 82 87  1  0  0  0
 82160  1  0  0  0
 82161  1  0  0  0
 83 85  1  0  0  0
 83 87  1  0  0  0
 83162  1  0  0  0
 83163  1  0  0  0
 84 88  1  0  0  0
 84164  1  0  0  0
 84165  1  0  0  0
 85166  1  0  0  0
 85167  1  0  0  0
 86168  1  0  0  0
 87169  1  0  0  0
 87170  1  0  0  0
M  CHG  1  87   1
M  ISO  4   1 100  68 101  85 101  86 100
M  END
> <chiral flag>
0

> <version>
0

> <s_m_source_file>
/data/baiqing/PycharmProjects/Reinvent-master-3.2/result/LINK_invent/BTK/process_docking_weight1_custom_sum_contain_oxygen_bond_distance_aromatic_linkinvent_7_9_3/rearranged_h_0144.sdf

> <i_m_source_file_index>
30

> <r_mmod_Potential_Energy-OPLS-2005>
-235.084884643555

> <r_mmod_Stretch_Energy-OPLS-2005>
36.1827430725098

> <r_mmod_Bend_Energy-OPLS-2005>
102.083534240723

> <r_mmod_Torsional_Energy-OPLS-2005>
253.807830810547

> <r_mmod_Improper_Torsional_Energy-OPLS-2005>
1.91582190990448

> <r_mmod_Van_der_Waal_Energy-OPLS-2005>
159.96061706543

> <r_mmod_Electrostatic_Energy-OPLS-2005>
-353.875427246094

> <r_mmod_Solvation_Energy-OPLS-2005>
-443.331359863281

> <b_mmod_Minimization_Converged-OPLS-2005>
0

> <r_mmod_RMS_Derivative-OPLS-2005>
3.89848470687866

$$$$
30
                    3D
 Structure written by MMmdl.
162171  0  0  1  0            999 V2000
  -30.6352  -14.5923   20.5248 C   0  0  0  0  0  0
  -30.4283  -12.3726   19.4373 C   0  0  0  0  0  0
  -29.4982  -12.4989   18.2127 C   0  0  0  0  0  0
  -28.0208  -12.3434   18.6267 C   0  0  0  0  0  0
  -27.6481  -13.2123   19.8586 C   0  0  2  0  0  0
  -28.6898  -13.0555   20.9858 C   0  0  0  0  0  0
  -25.2543  -13.8173   20.5664 C   0  0  0  0  0  0
  -24.1814  -13.0445   20.9188 C   0  0  0  0  0  0
  -24.6385  -11.6916   20.8744 C   0  0  0  0  0  0
  -23.9064  -10.4300   21.0418 C   0  0  0  0  0  0
  -24.3615   -9.4211   21.9196 C   0  0  0  0  0  0
  -23.6293   -8.2242   22.0759 C   0  0  0  0  0  0
  -22.4272   -8.0284   21.3547 C   0  0  0  0  0  0
  -21.9909   -9.0259   20.4642 C   0  0  0  0  0  0
  -22.7241  -10.2141   20.3061 C   0  0  0  0  0  0
  -21.6849   -6.0742   22.5282 C   0  0  0  0  0  0
  -21.4011   -6.5643   23.8217 C   0  0  0  0  0  0
  -21.3660   -5.6792   24.9175 C   0  0  0  0  0  0
  -21.6041   -4.3056   24.7221 C   0  0  0  0  0  0
  -21.8821   -3.8153   23.4341 C   0  0  0  0  0  0
  -21.9191   -4.6971   22.3400 C   0  0  0  0  0  0
  -22.7840  -13.5239   21.1856 C   0  0  0  0  0  0
  -22.1659   -4.2160   21.0977 F   0  0  0  0  0  0
  -21.5630   -3.4539   25.7732 F   0  0  0  0  0  0
  -30.0026  -13.3882   20.4159 N   0  0  0  0  0  0
  -26.2953  -12.9339   20.3282 N   0  0  0  0  0  0
  -25.9302  -11.6505   20.5752 N   0  0  0  0  0  0
  -22.0478  -12.8223   22.0401 N   0  0  0  0  0  0
  -25.4269  -15.1896   20.4060 N   0  0  0  0  0  0
  -31.8072  -14.7431   20.1684 O   0  0  0  0  0  0
  -21.6634   -6.8883   21.4246 O   0  0  0  0  0  0
  -22.3532  -14.5553   20.6715 O   0  0  0  0  0  0
  -24.6210  -31.8625   23.2063 C   0  0  0  0  0  0
  -25.9083  -32.4785   23.8365 C   0  0  1  0  0  0
  -27.2175  -27.3617   20.1067 C   0  0  0  0  0  0
  -25.5932  -33.8585   24.2294 N   0  0  0  0  0  0
  -23.4110  -30.4882   21.5487 C   0  0  2  0  0  0
  -24.8528  -28.9460   20.1170 C   0  0  0  0  0  0
  -22.7450  -29.4626   22.4972 C   0  0  0  0  0  0
  -18.0278  -28.1384   22.8461 C   0  0  0  0  0  0
  -24.1495  -36.7301   23.2638 C   0  0  0  0  0  0
  -25.9469  -30.8085   21.3681 C   0  0  0  0  0  0
  -26.0192  -29.4375   20.7156 C   0  0  0  0  0  0
  -27.2061  -28.6556   20.7012 C   0  0  0  0  0  0
  -26.0312  -26.9118   19.4897 C   0  0  0  0  0  0
  -24.8583  -27.6873   19.4980 C   0  0  0  0  0  0
  -23.6208  -29.8240   20.1631 C   0  0  0  0  0  0
  -25.4111  -36.3088   24.0341 C   0  0  1  0  0  0
  -20.5871  -28.3667   23.1315 C   0  0  2  0  0  0
  -20.6770  -26.9406   22.5416 C   0  0  0  0  0  0
  -19.5749  -26.6383   21.5218 C   0  0  0  0  0  0
  -18.1919  -26.7925   22.1617 C   0  0  0  0  0  0
  -19.1531  -28.8840   23.2875 C   0  0  0  0  0  0
  -18.9461  -30.1437   23.8898 C   0  0  0  0  0  0
  -17.6466  -30.6578   24.0554 C   0  0  0  0  0  0
  -25.9046  -34.9452   23.5114 C   0  0  0  0  0  0
  -16.5353  -29.9081   23.6341 C   0  0  0  0  0  0
  -16.7264  -28.6512   23.0332 C   0  0  0  0  0  0
  -26.4479  -31.6575   25.0715 C   0  0  0  0  0  0
  -25.3726  -31.3710   26.1456 C   0  0  0  0  0  0
  -27.0318  -30.3013   24.6109 C   0  0  0  0  0  0
  -27.6051  -32.4287   25.7484 C   0  0  0  0  0  0
  -27.5572  -37.1800   24.8459 C   0  0  0  0  0  0
  -21.4163  -29.3031   22.3719 N   0  0  0  0  0  0
  -26.4283  -37.3779   23.9407 N   0  0  0  0  0  0
  -24.6785  -31.0677   22.0998 N   0  0  0  0  0  0
  -23.4199  -28.8164   23.3032 O   0  0  0  0  0  0
  -28.3739  -26.5880   20.0756 O   0  0  0  0  0  0
  -26.5597  -34.8916   22.4668 O   0  0  0  0  0  0
  -23.5386  -32.1408   23.7423 O   0  0  0  0  0  0
  -30.6419  -18.6969   19.4396 C   0  0  0  0  0  0
  -28.8563  -20.5507   20.4114 C   0  0  0  0  0  0
  -29.8777  -18.3161   20.5708 C   0  0  0  0  0  0
  -28.9083  -19.2695   21.0532 C   0  0  0  0  0  0
  -29.7197  -20.8090   19.3570 C   0  0  0  0  0  0
  -29.5854  -22.2356   18.8571 C   0  0  0  0  0  0
  -28.0218  -21.8302   20.6771 C   0  0  2  0  0  0
  -27.9820  -18.9580   22.2210 C   0  0  0  0  0  0
  -26.5103  -21.5961   20.8506 C   0  0  0  0  0  0
  -30.3205  -17.0107   21.3186 C   0  0  0  0  0  0
  -27.9035  -24.1317   19.3515 C   0  0  0  0  0  0
  -28.3373  -25.1661   20.4494 C   0  0  0  0  0  0
  -30.5796  -19.9102   18.8369 N   0  0  0  0  0  0
  -29.8609  -15.6562   20.8923 N   0  0  0  0  0  0
  -28.2989  -22.6702   19.4598 N   0  3  1  0  0  0
  -31.4702  -12.4981   19.1363 H   0  0  0  0  0  0
  -30.3593  -11.3753   19.8759 H   0  0  0  0  0  0
  -29.7579  -11.7479   17.4652 H   0  0  0  0  0  0
  -29.6456  -13.4698   17.7364 H   0  0  0  0  0  0
  -27.8519  -11.2903   18.8549 H   0  0  0  0  0  0
  -27.3675  -12.5804   17.7867 H   0  0  0  0  0  0
  -27.6708  -14.2489   19.5230 H   0  0  0  0  0  0
  -28.6951  -12.0323   21.3649 H   0  0  0  0  0  0
  -28.4404  -13.6879   21.8393 H   0  0  0  0  0  0
  -25.2767   -9.5679   22.4764 H   0  0  0  0  0  0
  -24.0001   -7.4629   22.7476 H   0  0  0  0  0  0
  -21.0844   -8.8787   19.8940 H   0  0  0  0  0  0
  -22.3720  -10.9681   19.6160 H   0  0  0  0  0  0
  -21.2006   -7.6151   23.9724 H   0  0  0  0  0  0
  -21.1475   -6.0519   25.9077 H   0  0  0  0  0  0
  -22.0600   -2.7619   23.2837 H   0  0  0  0  0  0
  -22.4079  -11.9863   22.4763 H   0  0  0  0  0  0
  -21.1103  -13.1260   22.2624 H   0  0  0  0  0  0
  -24.6576  -15.8426   20.5033 H   0  0  0  0  0  0
  -26.2699  -15.6246   20.0540 H   0  0  0  0  0  0
  -26.7151  -32.5464   23.1114 H   0  0  0  0  0  0
  -25.0120  -33.9739   25.0466 H   0  0  0  0  0  0
  -22.7024  -31.3086   21.4100 H   0  0  0  0  0  0
  -23.3753  -35.9635   23.3290 H   0  0  0  0  0  0
  -24.3597  -36.8921   22.2054 H   0  0  0  0  0  0
  -23.7259  -37.6511   23.6655 H   0  0  0  0  0  0
  -26.0661  -31.5714   20.5981 H   0  0  0  0  0  0
  -26.8331  -30.8615   21.9887 H   0  0  0  0  0  0
  -28.1080  -29.0350   21.1619 H   0  0  0  0  0  0
  -25.9906  -25.9759   18.9636 H   0  0  0  0  0  0
  -23.9669  -27.3135   19.0136 H   0  0  0  0  0  0
  -23.7381  -30.6022   19.4066 H   0  0  0  0  0  0
  -22.7410  -29.2529   19.8609 H   0  0  0  0  0  0
  -25.1286  -36.1944   25.0836 H   0  0  0  0  0  0
  -20.9938  -28.3216   24.1449 H   0  0  0  0  0  0
  -20.5712  -26.2265   23.3587 H   0  0  0  0  0  0
  -21.6635  -26.7460   22.1195 H   0  0  0  0  0  0
  -19.6932  -25.6313   21.1218 H   0  0  0  0  0  0
  -19.6709  -27.3213   20.6761 H   0  0  0  0  0  0
  -17.4208  -26.6672   21.4007 H   0  0  0  0  0  0
  -18.0311  -26.0080   22.9025 H   0  0  0  0  0  0
  -19.7944  -30.7231   24.2278 H   0  0  0  0  0  0
  -17.5034  -31.6271   24.5137 H   0  0  0  0  0  0
  -15.5355  -30.2974   23.7672 H   0  0  0  0  0  0
  -15.8667  -28.0827   22.7037 H   0  0  0  0  0  0
  -24.5916  -30.7035   25.7794 H   0  0  0  0  0  0
  -24.8907  -32.2886   26.4844 H   0  0  0  0  0  0
  -25.8073  -30.8927   27.0239 H   0  0  0  0  0  0
  -26.2880  -29.6783   24.1131 H   0  0  0  0  0  0
  -27.4064  -29.7235   25.4560 H   0  0  0  0  0  0
  -27.8717  -30.4337   23.9286 H   0  0  0  0  0  0
  -27.2678  -33.3593   26.2044 H   0  0  0  0  0  0
  -28.3873  -32.6816   25.0324 H   0  0  0  0  0  0
  -28.0690  -31.8419   26.5411 H   0  0  0  0  0  0
  -28.2568  -38.0110   24.7501 H   0  0  0  0  0  0
  -28.1094  -36.2641   24.6288 H   0  0  0  0  0  0
  -27.2292  -37.1439   25.8862 H   0  0  0  0  0  0
  -20.9335  -29.8767   21.6944 H   0  0  0  0  0  0
  -26.0170  -38.2856   24.1420 H   0  0  0  0  0  0
  -31.3919  -18.0262   19.0452 H   0  0  0  0  0  0
  -29.5525  -22.2805   17.7684 H   0  0  0  0  0  0
  -30.4167  -22.8390   19.2193 H   0  0  0  0  0  0
  -28.4257  -22.3318   21.5580 H   0  0  0  0  0  0
  -27.9639  -19.7845   22.9321 H   0  0  0  0  0  0
  -28.2547  -18.0619   22.7734 H   0  0  0  0  0  0
  -26.9669  -18.8014   21.8553 H   0  0  0  0  0  0
  -26.0819  -21.0670   19.9986 H   0  0  0  0  0  0
  -25.9769  -22.5409   20.9548 H   0  0  0  0  0  0
  -26.2841  -21.0241   21.7478 H   0  0  0  0  0  0
  -30.1079  -17.1069   22.3814 H   0  0  0  0  0  0
  -31.4124  -17.0160   21.2961 H   0  0  0  0  0  0
  -28.2527  -24.4969   18.3851 H   0  0  0  0  0  0
  -26.8181  -24.1220   19.2863 H   0  0  0  0  0  0
  -29.3565  -24.9254   20.7533 H   0  0  0  0  0  0
  -27.7303  -25.0375   21.3468 H   0  0  0  0  0  0
  -28.8930  -15.4388   21.0769 H   0  0  0  0  0  0
  -27.6699  -22.2429   18.7975 H   0  0  0  0  0  0
  1 25  1  0  0  0
  1 30  2  0  0  0
  1 84  1  0  0  0
  2  3  1  0  0  0
  2 25  1  0  0  0
  2 86  1  0  0  0
  2 87  1  0  0  0
  3  4  1  0  0  0
  3 88  1  0  0  0
  3 89  1  0  0  0
  4  5  1  0  0  0
  4 90  1  0  0  0
  4 91  1  0  0  0
  5  6  1  0  0  0
  5 26  1  0  0  0
  5 92  1  0  0  0
  6 25  1  0  0  0
  6 93  1  0  0  0
  6 94  1  0  0  0
  7  8  2  0  0  0
  7 26  1  0  0  0
  7 29  1  0  0  0
  8  9  1  0  0  0
  8 22  1  0  0  0
  9 10  1  0  0  0
  9 27  2  0  0  0
 10 11  2  0  0  0
 10 15  1  0  0  0
 11 12  1  0  0  0
 11 95  1  0  0  0
 12 13  2  0  0  0
 12 96  1  0  0  0
 13 14  1  0  0  0
 13 31  1  0  0  0
 14 15  2  0  0  0
 14 97  1  0  0  0
 15 98  1  0  0  0
 16 17  2  0  0  0
 16 21  1  0  0  0
 16 31  1  0  0  0
 17 18  1  0  0  0
 17 99  1  0  0  0
 18 19  2  0  0  0
 18100  1  0  0  0
 19 20  1  0  0  0
 19 24  1  0  0  0
 20 21  2  0  0  0
 20101  1  0  0  0
 21 23  1  0  0  0
 22 28  1  0  0  0
 22 32  2  0  0  0
 26 27  1  0  0  0
 28102  1  0  0  0
 28103  1  0  0  0
 29104  1  0  0  0
 29105  1  0  0  0
 33 34  1  0  0  0
 33 66  1  0  0  0
 33 70  2  0  0  0
 34 36  1  0  0  0
 34 59  1  0  0  0
 34106  1  0  0  0
 35 44  2  0  0  0
 35 45  1  0  0  0
 35 68  1  0  0  0
 36 56  1  0  0  0
 36107  1  0  0  0
 37 39  1  0  0  0
 37 47  1  0  0  0
 37 66  1  0  0  0
 37108  1  0  0  0
 38 43  2  0  0  0
 38 46  1  0  0  0
 38 47  1  0  0  0
 39 64  1  0  0  0
 39 67  2  0  0  0
 40 52  1  0  0  0
 40 53  2  0  0  0
 40 58  1  0  0  0
 41109  1  0  0  0
 41110  1  0  0  0
 41111  1  0  0  0
 41 48  1  0  0  0
 42 43  1  0  0  0
 42 66  1  0  0  0
 42112  1  0  0  0
 42113  1  0  0  0
 43 44  1  0  0  0
 44114  1  0  0  0
 45 46  2  0  0  0
 45115  1  0  0  0
 46116  1  0  0  0
 47117  1  0  0  0
 47118  1  0  0  0
 48 56  1  0  0  0
 48 65  1  0  0  0
 48119  1  0  0  0
 49 50  1  0  0  0
 49 53  1  0  0  0
 49 64  1  0  0  0
 49120  1  0  0  0
 50 51  1  0  0  0
 50121  1  0  0  0
 50122  1  0  0  0
 51 52  1  0  0  0
 51123  1  0  0  0
 51124  1  0  0  0
 52125  1  0  0  0
 52126  1  0  0  0
 53 54  1  0  0  0
 54 55  2  0  0  0
 54127  1  0  0  0
 55 57  1  0  0  0
 55128  1  0  0  0
 56 69  2  0  0  0
 57 58  2  0  0  0
 57129  1  0  0  0
 58130  1  0  0  0
 59 60  1  0  0  0
 59 61  1  0  0  0
 59 62  1  0  0  0
 60131  1  0  0  0
 60132  1  0  0  0
 60133  1  0  0  0
 61134  1  0  0  0
 61135  1  0  0  0
 61136  1  0  0  0
 62137  1  0  0  0
 62138  1  0  0  0
 62139  1  0  0  0
 63 65  1  0  0  0
 63140  1  0  0  0
 63141  1  0  0  0
 63142  1  0  0  0
 64143  1  0  0  0
 65144  1  0  0  0
 68 82  1  0  0  0
 71 73  2  0  0  0
 71 83  1  0  0  0
 71145  1  0  0  0
 72 74  2  0  0  0
 72 75  1  0  0  0
 72 77  1  0  0  0
 73 74  1  0  0  0
 73 80  1  0  0  0
 74 78  1  0  0  0
 75 76  1  0  0  0
 75 83  2  0  0  0
 76 85  1  0  0  0
 76146  1  0  0  0
 76147  1  0  0  0
 77 79  1  0  0  0
 77 85  1  0  0  0
 77148  1  0  0  0
 78149  1  0  0  0
 78150  1  0  0  0
 78151  1  0  0  0
 79152  1  0  0  0
 79153  1  0  0  0
 79154  1  0  0  0
 80 84  1  0  0  0
 80155  1  0  0  0
 80156  1  0  0  0
 81 82  1  0  0  0
 81157  1  0  0  0
 81158  1  0  0  0
 81 85  1  0  0  0
 82159  1  0  0  0
 82160  1  0  0  0
 84161  1  0  0  0
 85162  1  0  0  0
M  CHG  1  85   1
M  ISO  4   1 100  68 101  82 101  84 100
M  END
> <chiral flag>
0

> <version>
0

> <s_m_source_file>
/data/baiqing/PycharmProjects/Reinvent-master-3.2/result/LINK_invent/BTK/process_docking_weight1_custom_sum_contain_oxygen_bond_distance_aromatic_linkinvent_7_9_3/rearranged_h_0144.sdf

> <i_m_source_file_index>
31

> <r_mmod_Potential_Energy-OPLS-2005>
-154.286865234375

> <r_mmod_Stretch_Energy-OPLS-2005>
64.0361404418945

> <r_mmod_Bend_Energy-OPLS-2005>
206.316879272461

> <r_mmod_Torsional_Energy-OPLS-2005>
236.168350219727

> <r_mmod_Improper_Torsional_Energy-OPLS-2005>
5.28243637084961

> <r_mmod_Van_der_Waal_Energy-OPLS-2005>
138.548889160156

> <r_mmod_Electrostatic_Energy-OPLS-2005>
-384.505554199219

> <r_mmod_Solvation_Energy-OPLS-2005>
-452.034820556641

> <b_mmod_Minimization_Converged-OPLS-2005>
0

> <r_mmod_RMS_Derivative-OPLS-2005>
2.13748931884766

$$$$
31
                    3D
 Structure written by MMmdl.
155163  0  0  1  0            999 V2000
  -30.5168  -14.8393   20.4582 C   0  0  0  0  0  0
  -30.4500  -12.5170   19.4835 C   0  0  0  0  0  0
  -29.5221  -12.5105   18.2459 C   0  0  0  0  0  0
  -28.0507  -12.2992   18.6616 C   0  0  0  0  0  0
  -27.6357  -13.2174   19.8420 C   0  0  2  0  0  0
  -28.6766  -13.1658   20.9818 C   0  0  0  0  0  0
  -25.2507  -13.8135   20.5676 C   0  0  0  0  0  0
  -24.1769  -13.0400   20.9189 C   0  0  0  0  0  0
  -24.6345  -11.6883   20.8720 C   0  0  0  0  0  0
  -23.9016  -10.4261   21.0408 C   0  0  0  0  0  0
  -24.3574   -9.4193   21.9189 C   0  0  0  0  0  0
  -23.6253   -8.2230   22.0752 C   0  0  0  0  0  0
  -22.4236   -8.0266   21.3545 C   0  0  0  0  0  0
  -21.9871   -9.0237   20.4640 C   0  0  0  0  0  0
  -22.7196  -10.2120   20.3053 C   0  0  0  0  0  0
  -21.6846   -6.0725   22.5293 C   0  0  0  0  0  0
  -21.4021   -6.5628   23.8231 C   0  0  0  0  0  0
  -21.3653   -5.6781   24.9188 C   0  0  0  0  0  0
  -21.6052   -4.3047   24.7243 C   0  0  0  0  0  0
  -21.8806   -3.8134   23.4361 C   0  0  0  0  0  0
  -21.9191   -4.6954   22.3414 C   0  0  0  0  0  0
  -22.7814  -13.5241   21.1871 C   0  0  0  0  0  0
  -22.1658   -4.2136   21.0994 F   0  0  0  0  0  0
  -21.5622   -3.4526   25.7755 F   0  0  0  0  0  0
  -29.9643  -13.5716   20.4070 N   0  0  0  0  0  0
  -26.2883  -12.9300   20.3199 N   0  0  0  0  0  0
  -25.9261  -11.6468   20.5691 N   0  0  0  0  0  0
  -22.0440  -12.8229   22.0418 N   0  0  0  0  0  0
  -25.4238  -15.1856   20.4177 N   0  0  0  0  0  0
  -31.7037  -14.9878   20.1493 O   0  0  0  0  0  0
  -21.6618   -6.8860   21.4247 O   0  0  0  0  0  0
  -22.3537  -14.5578   20.6760 O   0  0  0  0  0  0
  -24.6396  -31.8524   23.1943 C   0  0  0  0  0  0
  -25.9219  -32.4713   23.8287 C   0  0  1  0  0  0
  -27.2010  -27.1764   20.1607 C   0  0  0  0  0  0
  -25.6015  -33.8508   24.2232 N   0  0  0  0  0  0
  -23.4366  -30.4748   21.5412 C   0  0  2  0  0  0
  -24.8814  -28.9125   20.1110 C   0  0  0  0  0  0
  -22.7530  -29.4584   22.4897 C   0  0  0  0  0  0
  -18.0341  -28.1368   22.8463 C   0  0  0  0  0  0
  -24.1499  -36.7250   23.2629 C   0  0  0  0  0  0
  -25.9894  -30.7363   21.3881 C   0  0  0  0  0  0
  -26.0591  -29.3528   20.7295 C   0  0  0  0  0  0
  -27.2195  -28.4995   20.7427 C   0  0  0  0  0  0
  -26.0049  -26.8378   19.4848 C   0  0  0  0  0  0
  -24.8670  -27.6666   19.4694 C   0  0  0  0  0  0
  -23.6608  -29.8143   20.1561 C   0  0  0  0  0  0
  -25.4129  -36.3031   24.0314 C   0  0  1  0  0  0
  -20.5945  -28.3709   23.1281 C   0  0  2  0  0  0
  -20.6836  -26.9408   22.5434 C   0  0  0  0  0  0
  -19.5822  -26.6356   21.5241 C   0  0  0  0  0  0
  -18.1976  -26.7924   22.1594 C   0  0  0  0  0  0
  -19.1582  -28.8848   23.2875 C   0  0  0  0  0  0
  -18.9482  -30.1464   23.8855 C   0  0  0  0  0  0
  -17.6463  -30.6561   24.0517 C   0  0  0  0  0  0
  -25.9075  -34.9415   23.5066 C   0  0  0  0  0  0
  -16.5369  -29.9040   23.6289 C   0  0  0  0  0  0
  -16.7325  -28.6457   23.0313 C   0  0  0  0  0  0
  -26.4550  -31.6546   25.0699 C   0  0  0  0  0  0
  -25.3755  -31.3725   26.1408 C   0  0  0  0  0  0
  -27.0409  -30.2948   24.6243 C   0  0  0  0  0  0
  -27.6075  -32.4304   25.7485 C   0  0  0  0  0  0
  -27.5589  -37.1782   24.8466 C   0  0  0  0  0  0
  -21.4237  -29.3072   22.3649 N   0  0  0  0  0  0
  -26.4294  -37.3752   23.9419 N   0  0  0  0  0  0
  -24.7071  -31.0405   22.0962 N   0  0  0  0  0  0
  -23.4181  -28.8117   23.3014 O   0  0  0  0  0  0
  -28.2523  -26.2048   20.2418 O   0  0  0  0  0  0
  -26.5617  -34.8914   22.4622 O   0  0  0  0  0  0
  -23.5546  -32.1408   23.7221 O   0  0  0  0  0  0
  -29.0960  -19.5589   19.3779 C   0  0  0  0  0  0
  -29.4163  -18.1475   19.4055 C   0  0  0  0  0  0
  -29.6394  -18.2665   21.7609 C   0  0  0  0  0  0
  -29.0029  -20.3996   20.5383 C   0  0  0  0  0  0
  -29.6735  -17.4186   20.6058 C   0  0  0  0  0  0
  -29.3537  -19.6959   21.7432 C   0  0  0  0  0  0
  -30.0732  -19.9418   24.0237 C   0  0  0  0  0  0
  -28.9083  -23.3845   20.4037 C   0  0  0  0  0  0
  -27.9002  -24.7079   20.3548 C   0  0  0  0  0  0
  -28.2601  -21.8628   20.5227 C   0  0  1  0  0  0
  -29.6418  -15.9109   20.6924 N   0  0  0  0  0  0
  -27.2047  -21.8391   19.5747 O   0  0  0  0  0  0
  -29.3303  -20.4359   22.9069 O   0  0  0  0  0  0
  -31.4838  -12.6878   19.1785 H   0  0  0  0  0  0
  -30.4391  -11.5480   19.9831 H   0  0  0  0  0  0
  -29.8276  -11.7309   17.5463 H   0  0  0  0  0  0
  -29.6205  -13.4568   17.7127 H   0  0  0  0  0  0
  -27.9361  -11.2524   18.9502 H   0  0  0  0  0  0
  -27.3874  -12.4488   17.8094 H   0  0  0  0  0  0
  -27.6216  -14.2296   19.4405 H   0  0  0  0  0  0
  -28.7455  -12.1574   21.3930 H   0  0  0  0  0  0
  -28.3846  -13.8144   21.8083 H   0  0  0  0  0  0
  -25.2736   -9.5678   22.4738 H   0  0  0  0  0  0
  -23.9968   -7.4631   22.7474 H   0  0  0  0  0  0
  -21.0803   -8.8769   19.8937 H   0  0  0  0  0  0
  -22.3678  -10.9655   19.6138 H   0  0  0  0  0  0
  -21.2020   -7.6139   23.9742 H   0  0  0  0  0  0
  -21.1487   -6.0505   25.9099 H   0  0  0  0  0  0
  -22.0580   -2.7589   23.2882 H   0  0  0  0  0  0
  -22.4027  -11.9883   22.4815 H   0  0  0  0  0  0
  -21.1078  -13.1284   22.2648 H   0  0  0  0  0  0
  -24.6652  -15.8409   20.5722 H   0  0  0  0  0  0
  -26.2756  -15.6347   20.1053 H   0  0  0  0  0  0
  -26.7267  -32.5317   23.0995 H   0  0  0  0  0  0
  -25.0204  -33.9606   25.0408 H   0  0  0  0  0  0
  -22.7370  -31.3011   21.3973 H   0  0  0  0  0  0
  -23.3764  -35.9574   23.3262 H   0  0  0  0  0  0
  -24.3578  -36.8904   22.2050 H   0  0  0  0  0  0
  -23.7267  -37.6442   23.6677 H   0  0  0  0  0  0
  -26.1444  -31.4904   20.6149 H   0  0  0  0  0  0
  -26.8590  -30.7764   22.0329 H   0  0  0  0  0  0
  -28.1101  -28.8250   21.2611 H   0  0  0  0  0  0
  -25.9030  -25.9009   18.9624 H   0  0  0  0  0  0
  -23.9723  -27.3261   18.9631 H   0  0  0  0  0  0
  -23.8018  -30.5945   19.4061 H   0  0  0  0  0  0
  -22.7742  -29.2643   19.8403 H   0  0  0  0  0  0
  -25.1317  -36.1836   25.0802 H   0  0  0  0  0  0
  -21.0025  -28.3296   24.1398 H   0  0  0  0  0  0
  -20.5736  -26.2321   23.3637 H   0  0  0  0  0  0
  -21.6695  -26.7406   22.1222 H   0  0  0  0  0  0
  -19.7013  -25.6287   21.1230 H   0  0  0  0  0  0
  -19.6795  -27.3176   20.6792 H   0  0  0  0  0  0
  -17.4286  -26.6723   21.3928 H   0  0  0  0  0  0
  -18.0328  -26.0047   22.8946 H   0  0  0  0  0  0
  -19.7953  -30.7297   24.2219 H   0  0  0  0  0  0
  -17.5013  -31.6221   24.5157 H   0  0  0  0  0  0
  -15.5365  -30.2914   23.7630 H   0  0  0  0  0  0
  -15.8737  -28.0753   22.7010 H   0  0  0  0  0  0
  -24.5892  -30.7119   25.7739 H   0  0  0  0  0  0
  -24.8987  -32.2912   26.4831 H   0  0  0  0  0  0
  -25.8043  -30.8886   27.0195 H   0  0  0  0  0  0
  -26.3022  -29.6653   24.1259 H   0  0  0  0  0  0
  -27.4070  -29.7247   25.4794 H   0  0  0  0  0  0
  -27.8914  -30.4174   23.9527 H   0  0  0  0  0  0
  -27.2636  -33.3600   26.2027 H   0  0  0  0  0  0
  -28.3890  -32.6869   25.0322 H   0  0  0  0  0  0
  -28.0730  -31.8457   26.5430 H   0  0  0  0  0  0
  -28.2581  -38.0098   24.7517 H   0  0  0  0  0  0
  -28.1099  -36.2628   24.6264 H   0  0  0  0  0  0
  -27.2298  -37.1411   25.8863 H   0  0  0  0  0  0
  -20.9455  -29.8774   21.6812 H   0  0  0  0  0  0
  -26.0145  -38.2810   24.1434 H   0  0  0  0  0  0
  -28.8216  -19.9778   18.4213 H   0  0  0  0  0  0
  -29.3682  -17.6028   18.4722 H   0  0  0  0  0  0
  -29.7610  -17.7787   22.7176 H   0  0  0  0  0  0
  -29.5521  -19.1331   24.5406 H   0  0  0  0  0  0
  -30.2217  -20.7453   24.7449 H   0  0  0  0  0  0
  -31.0671  -19.5939   23.7346 H   0  0  0  0  0  0
  -29.5844  -23.5175   21.2480 H   0  0  0  0  0  0
  -29.5521  -23.4164   19.5230 H   0  0  0  0  0  0
  -27.2665  -24.6308   21.2413 H   0  0  0  0  0  0
  -27.2449  -24.4703   19.5218 H   0  0  0  0  0  0
  -27.7463  -21.8843   21.4842 H   0  0  0  0  0  0
  -28.7139  -15.5593   20.8755 H   0  0  0  0  0  0
  -27.5902  -21.8235   18.7059 H   0  0  0  0  0  0
  1 25  1  0  0  0
  1 30  2  0  0  0
  1 81  1  0  0  0
  2  3  1  0  0  0
  2 25  1  0  0  0
  2 84  1  0  0  0
  2 85  1  0  0  0
  3  4  1  0  0  0
  3 86  1  0  0  0
  3 87  1  0  0  0
  4  5  1  0  0  0
  4 88  1  0  0  0
  4 89  1  0  0  0
  5  6  1  0  0  0
  5 26  1  0  0  0
  5 90  1  0  0  0
  6 25  1  0  0  0
  6 91  1  0  0  0
  6 92  1  0  0  0
  7  8  2  0  0  0
  7 26  1  0  0  0
  7 29  1  0  0  0
  8  9  1  0  0  0
  8 22  1  0  0  0
  9 10  1  0  0  0
  9 27  2  0  0  0
 10 11  2  0  0  0
 10 15  1  0  0  0
 11 12  1  0  0  0
 11 93  1  0  0  0
 12 13  2  0  0  0
 12 94  1  0  0  0
 13 14  1  0  0  0
 13 31  1  0  0  0
 14 15  2  0  0  0
 14 95  1  0  0  0
 15 96  1  0  0  0
 16 17  2  0  0  0
 16 21  1  0  0  0
 16 31  1  0  0  0
 17 18  1  0  0  0
 17 97  1  0  0  0
 18 19  2  0  0  0
 18 98  1  0  0  0
 19 20  1  0  0  0
 19 24  1  0  0  0
 20 21  2  0  0  0
 20 99  1  0  0  0
 21 23  1  0  0  0
 22 28  1  0  0  0
 22 32  2  0  0  0
 26 27  1  0  0  0
 28100  1  0  0  0
 28101  1  0  0  0
 29102  1  0  0  0
 29103  1  0  0  0
 33 34  1  0  0  0
 33 66  1  0  0  0
 33 70  2  0  0  0
 34 36  1  0  0  0
 34 59  1  0  0  0
 34104  1  0  0  0
 35 44  2  0  0  0
 35 45  1  0  0  0
 35 68  1  0  0  0
 36 56  1  0  0  0
 36105  1  0  0  0
 37 39  1  0  0  0
 37 47  1  0  0  0
 37 66  1  0  0  0
 37106  1  0  0  0
 38 43  2  0  0  0
 38 46  1  0  0  0
 38 47  1  0  0  0
 39 64  1  0  0  0
 39 67  2  0  0  0
 40 52  1  0  0  0
 40 53  2  0  0  0
 40 58  1  0  0  0
 41107  1  0  0  0
 41108  1  0  0  0
 41109  1  0  0  0
 41 48  1  0  0  0
 42 43  1  0  0  0
 42 66  1  0  0  0
 42110  1  0  0  0
 42111  1  0  0  0
 43 44  1  0  0  0
 44112  1  0  0  0
 45 46  2  0  0  0
 45113  1  0  0  0
 46114  1  0  0  0
 47115  1  0  0  0
 47116  1  0  0  0
 48 56  1  0  0  0
 48 65  1  0  0  0
 48117  1  0  0  0
 49 50  1  0  0  0
 49 53  1  0  0  0
 49 64  1  0  0  0
 49118  1  0  0  0
 50 51  1  0  0  0
 50119  1  0  0  0
 50120  1  0  0  0
 51 52  1  0  0  0
 51121  1  0  0  0
 51122  1  0  0  0
 52123  1  0  0  0
 52124  1  0  0  0
 53 54  1  0  0  0
 54 55  2  0  0  0
 54125  1  0  0  0
 55 57  1  0  0  0
 55126  1  0  0  0
 56 69  2  0  0  0
 57 58  2  0  0  0
 57127  1  0  0  0
 58128  1  0  0  0
 59 60  1  0  0  0
 59 61  1  0  0  0
 59 62  1  0  0  0
 60129  1  0  0  0
 60130  1  0  0  0
 60131  1  0  0  0
 61132  1  0  0  0
 61133  1  0  0  0
 61134  1  0  0  0
 62135  1  0  0  0
 62136  1  0  0  0
 62137  1  0  0  0
 63 65  1  0  0  0
 63138  1  0  0  0
 63139  1  0  0  0
 63140  1  0  0  0
 64141  1  0  0  0
 65142  1  0  0  0
 68 79  1  0  0  0
 71 72  2  0  0  0
 71 74  1  0  0  0
 71143  1  0  0  0
 72 75  1  0  0  0
 72144  1  0  0  0
 73 75  2  0  0  0
 73 76  1  0  0  0
 73145  1  0  0  0
 74 76  2  0  0  0
 74 80  1  0  0  0
 75 81  1  0  0  0
 76 83  1  0  0  0
 77 83  1  0  0  0
 77146  1  0  0  0
 77147  1  0  0  0
 77148  1  0  0  0
 78 79  1  0  0  0
 78 80  1  0  0  0
 78149  1  0  0  0
 78150  1  0  0  0
 79151  1  0  0  0
 79152  1  0  0  0
 80 82  1  0  0  0
 80153  1  0  0  0
 81154  1  0  0  0
 82155  1  0  0  0
M  ISO  4   1 100  68 101  79 101  81 100
M  END
> <chiral flag>
0

> <version>
0

> <s_m_source_file>
/data/baiqing/PycharmProjects/Reinvent-master-3.2/result/LINK_invent/BTK/process_docking_weight1_custom_sum_contain_oxygen_bond_distance_aromatic_linkinvent_7_9_3/rearranged_h_0144.sdf

> <i_m_source_file_index>
32

> <r_mmod_Potential_Energy-OPLS-2005>
397.582977294922

> <r_mmod_Stretch_Energy-OPLS-2005>
185.216888427734

> <r_mmod_Bend_Energy-OPLS-2005>
227.56379699707

> <r_mmod_Torsional_Energy-OPLS-2005>
271.219512939453

> <r_mmod_Improper_Torsional_Energy-OPLS-2005>
8.76453876495361

> <r_mmod_Van_der_Waal_Energy-OPLS-2005>
142.479965209961

> <r_mmod_Electrostatic_Energy-OPLS-2005>
-352.587860107422

> <r_mmod_Solvation_Energy-OPLS-2005>
-230.009094238281

> <b_mmod_Minimization_Converged-OPLS-2005>
0

> <r_mmod_RMS_Derivative-OPLS-2005>
4.22677755355835

$$$$
32
                    3D
 Structure written by MMmdl.
161169  0  0  1  0            999 V2000
  -30.7326  -14.4372   20.5376 C   0  0  0  0  0  0
  -30.4128  -12.2749   19.4207 C   0  0  0  0  0  0
  -29.4907  -12.4926   18.2051 C   0  0  0  0  0  0
  -28.0120  -12.3634   18.6219 C   0  0  0  0  0  0
  -27.6628  -13.2082   19.8779 C   0  0  2  0  0  0
  -28.7086  -13.0059   20.9995 C   0  0  0  0  0  0
  -25.2596  -13.8200   20.5661 C   0  0  0  0  0  0
  -24.1839  -13.0479   20.9165 C   0  0  0  0  0  0
  -24.6385  -11.6940   20.8728 C   0  0  0  0  0  0
  -23.9061  -10.4317   21.0384 C   0  0  0  0  0  0
  -24.3628   -9.4230   21.9162 C   0  0  0  0  0  0
  -23.6294   -8.2272   22.0754 C   0  0  0  0  0  0
  -22.4277   -8.0296   21.3542 C   0  0  0  0  0  0
  -21.9903   -9.0266   20.4650 C   0  0  0  0  0  0
  -22.7235  -10.2140   20.3032 C   0  0  0  0  0  0
  -21.6876   -6.0740   22.5255 C   0  0  0  0  0  0
  -21.4040   -6.5641   23.8195 C   0  0  0  0  0  0
  -21.3647   -5.6778   24.9148 C   0  0  0  0  0  0
  -21.6046   -4.3047   24.7198 C   0  0  0  0  0  0
  -21.8824   -3.8141   23.4322 C   0  0  0  0  0  0
  -21.9207   -4.6963   22.3381 C   0  0  0  0  0  0
  -22.7862  -13.5269   21.1836 C   0  0  0  0  0  0
  -22.1676   -4.2146   21.0965 F   0  0  0  0  0  0
  -21.5607   -3.4528   25.7716 F   0  0  0  0  0  0
  -30.0407  -13.2726   20.4348 N   0  0  0  0  0  0
  -26.3043  -12.9362   20.3422 N   0  0  0  0  0  0
  -25.9319  -11.6521   20.5806 N   0  0  0  0  0  0
  -22.0505  -12.8251   22.0397 N   0  0  0  0  0  0
  -25.4316  -15.1931   20.4013 N   0  0  0  0  0  0
  -31.8805  -14.5759   20.1125 O   0  0  0  0  0  0
  -21.6656   -6.8880   21.4220 O   0  0  0  0  0  0
  -22.3548  -14.5574   20.6694 O   0  0  0  0  0  0
  -24.6129  -31.8727   23.2119 C   0  0  0  0  0  0
  -25.9005  -32.4867   23.8424 C   0  0  1  0  0  0
  -27.2304  -27.4476   20.0967 C   0  0  0  0  0  0
  -25.5837  -33.8659   24.2328 N   0  0  0  0  0  0
  -23.4003  -30.4958   21.5567 C   0  0  2  0  0  0
  -24.8450  -28.9654   20.1144 C   0  0  0  0  0  0
  -22.7407  -29.4664   22.5015 C   0  0  0  0  0  0
  -18.0286  -28.1479   22.8420 C   0  0  0  0  0  0
  -24.1469  -36.7334   23.2650 C   0  0  0  0  0  0
  -25.9265  -30.8394   21.3666 C   0  0  0  0  0  0
  -26.0018  -29.4704   20.7220 C   0  0  0  0  0  0
  -27.1972  -28.7177   20.7142 C   0  0  0  0  0  0
  -26.0580  -26.9547   19.4827 C   0  0  0  0  0  0
  -24.8681  -27.7038   19.4936 C   0  0  0  0  0  0
  -23.6079  -29.8340   20.1676 C   0  0  0  0  0  0
  -25.4092  -36.3155   24.0362 C   0  0  1  0  0  0
  -20.5847  -28.3756   23.1390 C   0  0  2  0  0  0
  -20.6786  -26.9483   22.5534 C   0  0  0  0  0  0
  -19.5858  -26.6481   21.5184 C   0  0  0  0  0  0
  -18.1939  -26.8115   22.1389 C   0  0  0  0  0  0
  -19.1520  -28.8942   23.2888 C   0  0  0  0  0  0
  -18.9449  -30.1582   23.8831 C   0  0  0  0  0  0
  -17.6440  -30.6714   24.0443 C   0  0  0  0  0  0
  -25.9022  -34.9513   23.5138 C   0  0  0  0  0  0
  -16.5325  -29.9163   23.6286 C   0  0  0  0  0  0
  -16.7260  -28.6577   23.0336 C   0  0  0  0  0  0
  -26.4425  -31.6650   25.0744 C   0  0  0  0  0  0
  -25.3673  -31.3719   26.1474 C   0  0  0  0  0  0
  -27.0262  -30.3115   24.6081 C   0  0  0  0  0  0
  -27.6039  -32.4335   25.7467 C   0  0  0  0  0  0
  -27.5572  -37.1820   24.8465 C   0  0  0  0  0  0
  -21.4120  -29.3131   22.3842 N   0  0  0  0  0  0
  -26.4283  -37.3828   23.9416 N   0  0  0  0  0  0
  -24.6665  -31.0834   22.1042 N   0  0  0  0  0  0
  -23.4203  -28.8089   23.2939 O   0  0  0  0  0  0
  -28.4067  -26.7387   20.0419 O   0  0  0  0  0  0
  -26.5610  -34.8950   22.4716 O   0  0  0  0  0  0
  -23.5325  -32.1482   23.7504 O   0  0  0  0  0  0
  -26.5173  -19.3471   20.1240 C   0  0  0  0  0  0
  -26.4527  -21.7639   19.8279 C   0  0  0  0  0  0
  -25.8160  -20.5087   19.7514 C   0  0  0  0  0  0
  -28.4806  -20.6998   20.6749 C   0  0  0  0  0  0
  -27.8477  -19.4302   20.5707 C   0  0  0  0  0  0
  -27.7848  -21.8811   20.3067 C   0  0  0  0  0  0
  -24.3710  -20.4096   19.3007 C   0  0  0  0  0  0
  -29.9092  -20.7906   21.1936 C   0  0  0  0  0  0
  -30.4674  -16.8959   20.7552 C   0  0  0  0  0  0
  -29.4208  -17.7581   20.0248 C   0  0  0  0  0  0
  -28.4560  -25.5183   20.7900 C   0  0  0  0  0  0
  -27.7830  -24.3121   20.1017 C   0  0  0  0  0  0
  -30.0235  -15.5045   20.9290 N   0  0  0  0  0  0
  -28.4817  -18.2722   20.9620 O   0  0  0  0  0  0
  -28.4415  -23.0927   20.4566 O   0  0  0  0  0  0
  -31.4585  -12.3499   19.1192 H   0  0  0  0  0  0
  -30.2899  -11.2646   19.8169 H   0  0  0  0  0  0
  -29.7165  -11.7710   17.4173 H   0  0  0  0  0  0
  -29.6714  -13.4791   17.7763 H   0  0  0  0  0  0
  -27.8188  -11.3080   18.8238 H   0  0  0  0  0  0
  -27.3564  -12.6315   17.7903 H   0  0  0  0  0  0
  -27.7024  -14.2558   19.5796 H   0  0  0  0  0  0
  -28.6709  -11.9846   21.3800 H   0  0  0  0  0  0
  -28.4894  -13.6462   21.8543 H   0  0  0  0  0  0
  -25.2790   -9.5722   22.4714 H   0  0  0  0  0  0
  -24.0003   -7.4674   22.7491 H   0  0  0  0  0  0
  -21.0827   -8.8807   19.8962 H   0  0  0  0  0  0
  -22.3710  -10.9676   19.6130 H   0  0  0  0  0  0
  -21.2059   -7.6149   23.9704 H   0  0  0  0  0  0
  -21.1462   -6.0505   25.9055 H   0  0  0  0  0  0
  -22.0627   -2.7602   23.2816 H   0  0  0  0  0  0
  -22.4130  -11.9909   22.4771 H   0  0  0  0  0  0
  -21.1127  -13.1285   22.2638 H   0  0  0  0  0  0
  -24.6608  -15.8474   20.4780 H   0  0  0  0  0  0
  -26.2900  -15.6298   20.0887 H   0  0  0  0  0  0
  -26.7060  -32.5582   23.1189 H   0  0  0  0  0  0
  -24.9917  -33.9847   25.0416 H   0  0  0  0  0  0
  -22.6933  -31.3170   21.4199 H   0  0  0  0  0  0
  -23.3747  -35.9651   23.3345 H   0  0  0  0  0  0
  -24.3549  -36.8908   22.2054 H   0  0  0  0  0  0
  -23.7200  -37.6536   23.6639 H   0  0  0  0  0  0
  -26.0233  -31.6001   20.5924 H   0  0  0  0  0  0
  -26.8187  -30.9006   21.9774 H   0  0  0  0  0  0
  -28.0910  -29.1026   21.1842 H   0  0  0  0  0  0
  -26.0617  -26.0037   18.9740 H   0  0  0  0  0  0
  -23.9817  -27.3130   19.0107 H   0  0  0  0  0  0
  -23.7176  -30.6133   19.4116 H   0  0  0  0  0  0
  -22.7298  -29.2601   19.8641 H   0  0  0  0  0  0
  -25.1273  -36.2052   25.0863 H   0  0  0  0  0  0
  -20.9887  -28.3375   24.1550 H   0  0  0  0  0  0
  -20.5611  -26.2384   23.3732 H   0  0  0  0  0  0
  -21.6703  -26.7520   22.1514 H   0  0  0  0  0  0
  -19.7053  -25.6428   21.1175 H   0  0  0  0  0  0
  -19.6973  -27.3350   20.6781 H   0  0  0  0  0  0
  -17.4332  -26.7120   21.3596 H   0  0  0  0  0  0
  -18.0058  -26.0163   22.8589 H   0  0  0  0  0  0
  -19.7895  -30.7509   24.2076 H   0  0  0  0  0  0
  -17.4994  -31.6485   24.4848 H   0  0  0  0  0  0
  -15.5341  -30.3079   23.7592 H   0  0  0  0  0  0
  -15.8665  -28.0912   22.7043 H   0  0  0  0  0  0
  -24.5850  -30.7084   25.7755 H   0  0  0  0  0  0
  -24.8858  -32.2862   26.4955 H   0  0  0  0  0  0
  -25.8019  -30.8832   27.0200 H   0  0  0  0  0  0
  -26.2817  -29.6886   24.1116 H   0  0  0  0  0  0
  -27.4030  -29.7344   25.4527 H   0  0  0  0  0  0
  -27.8637  -30.4468   23.9238 H   0  0  0  0  0  0
  -27.2710  -33.3619   26.2099 H   0  0  0  0  0  0
  -28.3798  -32.6896   25.0245 H   0  0  0  0  0  0
  -28.0748  -31.8409   26.5307 H   0  0  0  0  0  0
  -28.2630  -38.0085   24.7520 H   0  0  0  0  0  0
  -28.1042  -36.2627   24.6310 H   0  0  0  0  0  0
  -27.2291  -37.1484   25.8867 H   0  0  0  0  0  0
  -20.9196  -29.9085   21.7333 H   0  0  0  0  0  0
  -26.0211  -38.2917   24.1412 H   0  0  0  0  0  0
  -26.0299  -18.3823   20.0702 H   0  0  0  0  0  0
  -25.8818  -22.6282   19.5248 H   0  0  0  0  0  0
  -24.1582  -19.4368   18.8567 H   0  0  0  0  0  0
  -24.1497  -21.1754   18.5533 H   0  0  0  0  0  0
  -23.6914  -20.5463   20.1457 H   0  0  0  0  0  0
  -30.1057  -20.0366   21.9557 H   0  0  0  0  0  0
  -30.1287  -21.7613   21.6396 H   0  0  0  0  0  0
  -30.6053  -20.6342   20.3719 H   0  0  0  0  0  0
  -30.7233  -17.3281   21.7233 H   0  0  0  0  0  0
  -31.3849  -16.9445   20.1656 H   0  0  0  0  0  0
  -28.9029  -17.1878   19.2542 H   0  0  0  0  0  0
  -29.9346  -18.5675   19.4994 H   0  0  0  0  0  0
  -28.0509  -25.6595   21.7944 H   0  0  0  0  0  0
  -29.5135  -25.2964   20.9264 H   0  0  0  0  0  0
  -27.8338  -24.4182   19.0172 H   0  0  0  0  0  0
  -26.7374  -24.3184   20.4011 H   0  0  0  0  0  0
  -29.0704  -15.3518   21.2238 H   0  0  0  0  0  0
  1 25  1  0  0  0
  1 30  2  0  0  0
  1 83  1  0  0  0
  2  3  1  0  0  0
  2 25  1  0  0  0
  2 86  1  0  0  0
  2 87  1  0  0  0
  3  4  1  0  0  0
  3 88  1  0  0  0
  3 89  1  0  0  0
  4  5  1  0  0  0
  4 90  1  0  0  0
  4 91  1  0  0  0
  5  6  1  0  0  0
  5 26  1  0  0  0
  5 92  1  0  0  0
  6 25  1  0  0  0
  6 93  1  0  0  0
  6 94  1  0  0  0
  7  8  2  0  0  0
  7 26  1  0  0  0
  7 29  1  0  0  0
  8  9  1  0  0  0
  8 22  1  0  0  0
  9 10  1  0  0  0
  9 27  2  0  0  0
 10 11  2  0  0  0
 10 15  1  0  0  0
 11 12  1  0  0  0
 11 95  1  0  0  0
 12 13  2  0  0  0
 12 96  1  0  0  0
 13 14  1  0  0  0
 13 31  1  0  0  0
 14 15  2  0  0  0
 14 97  1  0  0  0
 15 98  1  0  0  0
 16 17  2  0  0  0
 16 21  1  0  0  0
 16 31  1  0  0  0
 17 18  1  0  0  0
 17 99  1  0  0  0
 18 19  2  0  0  0
 18100  1  0  0  0
 19 20  1  0  0  0
 19 24  1  0  0  0
 20 21  2  0  0  0
 20101  1  0  0  0
 21 23  1  0  0  0
 22 28  1  0  0  0
 22 32  2  0  0  0
 26 27  1  0  0  0
 28102  1  0  0  0
 28103  1  0  0  0
 29104  1  0  0  0
 29105  1  0  0  0
 33 34  1  0  0  0
 33 66  1  0  0  0
 33 70  2  0  0  0
 34 36  1  0  0  0
 34 59  1  0  0  0
 34106  1  0  0  0
 35 44  2  0  0  0
 35 45  1  0  0  0
 35 68  1  0  0  0
 36 56  1  0  0  0
 36107  1  0  0  0
 37 39  1  0  0  0
 37 47  1  0  0  0
 37 66  1  0  0  0
 37108  1  0  0  0
 38 43  2  0  0  0
 38 46  1  0  0  0
 38 47  1  0  0  0
 39 64  1  0  0  0
 39 67  2  0  0  0
 40 52  1  0  0  0
 40 53  2  0  0  0
 40 58  1  0  0  0
 41109  1  0  0  0
 41110  1  0  0  0
 41111  1  0  0  0
 41 48  1  0  0  0
 42 43  1  0  0  0
 42 66  1  0  0  0
 42112  1  0  0  0
 42113  1  0  0  0
 43 44  1  0  0  0
 44114  1  0  0  0
 45 46  2  0  0  0
 45115  1  0  0  0
 46116  1  0  0  0
 47117  1  0  0  0
 47118  1  0  0  0
 48 56  1  0  0  0
 48 65  1  0  0  0
 48119  1  0  0  0
 49 50  1  0  0  0
 49 53  1  0  0  0
 49 64  1  0  0  0
 49120  1  0  0  0
 50 51  1  0  0  0
 50121  1  0  0  0
 50122  1  0  0  0
 51 52  1  0  0  0
 51123  1  0  0  0
 51124  1  0  0  0
 52125  1  0  0  0
 52126  1  0  0  0
 53 54  1  0  0  0
 54 55  2  0  0  0
 54127  1  0  0  0
 55 57  1  0  0  0
 55128  1  0  0  0
 56 69  2  0  0  0
 57 58  2  0  0  0
 57129  1  0  0  0
 58130  1  0  0  0
 59 60  1  0  0  0
 59 61  1  0  0  0
 59 62  1  0  0  0
 60131  1  0  0  0
 60132  1  0  0  0
 60133  1  0  0  0
 61134  1  0  0  0
 61135  1  0  0  0
 61136  1  0  0  0
 62137  1  0  0  0
 62138  1  0  0  0
 62139  1  0  0  0
 63 65  1  0  0  0
 63140  1  0  0  0
 63141  1  0  0  0
 63142  1  0  0  0
 64143  1  0  0  0
 65144  1  0  0  0
 68 81  1  0  0  0
 71 73  2  0  0  0
 71 75  1  0  0  0
 71145  1  0  0  0
 72 73  1  0  0  0
 72 76  2  0  0  0
 72146  1  0  0  0
 73 77  1  0  0  0
 74 75  2  0  0  0
 74 76  1  0  0  0
 74 78  1  0  0  0
 75 84  1  0  0  0
 76 85  1  0  0  0
 77147  1  0  0  0
 77148  1  0  0  0
 77149  1  0  0  0
 78150  1  0  0  0
 78151  1  0  0  0
 78152  1  0  0  0
 79 80  1  0  0  0
 79 83  1  0  0  0
 79153  1  0  0  0
 79154  1  0  0  0
 80 84  1  0  0  0
 80155  1  0  0  0
 80156  1  0  0  0
 81 82  1  0  0  0
 81157  1  0  0  0
 81158  1  0  0  0
 82 85  1  0  0  0
 82159  1  0  0  0
 82160  1  0  0  0
 83161  1  0  0  0
M  ISO  4   1 100  68 101  81 101  83 100
M  END
> <chiral flag>
0

> <version>
0

> <s_m_source_file>
/data/baiqing/PycharmProjects/Reinvent-master-3.2/result/LINK_invent/BTK/process_docking_weight1_custom_sum_contain_oxygen_bond_distance_aromatic_linkinvent_7_9_3/rearranged_h_0144.sdf

> <i_m_source_file_index>
33

> <r_mmod_Potential_Energy-OPLS-2005>
-75.4487838745117

> <r_mmod_Stretch_Energy-OPLS-2005>
35.2754325866699

> <r_mmod_Bend_Energy-OPLS-2005>
99.1361846923828

> <r_mmod_Torsional_Energy-OPLS-2005>
255.960723876953

> <r_mmod_Improper_Torsional_Energy-OPLS-2005>
5.38731861114502

> <r_mmod_Van_der_Waal_Energy-OPLS-2005>
157.237411499023

> <r_mmod_Electrostatic_Energy-OPLS-2005>
-434.175964355469

> <r_mmod_Solvation_Energy-OPLS-2005>
-207.160614013672

> <b_mmod_Minimization_Converged-OPLS-2005>
0

> <r_mmod_RMS_Derivative-OPLS-2005>
4.88321971893311

$$$$
33
                    3D
 Structure written by MMmdl.
163171  0  0  1  0            999 V2000
  -30.6886  -14.6124   20.5155 C   0  0  0  0  0  0
  -30.4225  -12.3813   19.4612 C   0  0  0  0  0  0
  -29.5019  -12.4984   18.2282 C   0  0  0  0  0  0
  -28.0279  -12.3401   18.6438 C   0  0  0  0  0  0
  -27.6509  -13.2263   19.8616 C   0  0  2  0  0  0
  -28.6955  -13.1147   20.9956 C   0  0  0  0  0  0
  -25.2543  -13.8199   20.5713 C   0  0  0  0  0  0
  -24.1820  -13.0447   20.9207 C   0  0  0  0  0  0
  -24.6406  -11.6925   20.8754 C   0  0  0  0  0  0
  -23.9079  -10.4299   21.0414 C   0  0  0  0  0  0
  -24.3629   -9.4215   21.9190 C   0  0  0  0  0  0
  -23.6306   -8.2249   22.0754 C   0  0  0  0  0  0
  -22.4283   -8.0286   21.3556 C   0  0  0  0  0  0
  -21.9926   -9.0259   20.4647 C   0  0  0  0  0  0
  -22.7253  -10.2139   20.3056 C   0  0  0  0  0  0
  -21.6849   -6.0743   22.5287 C   0  0  0  0  0  0
  -21.4010   -6.5649   23.8219 C   0  0  0  0  0  0
  -21.3660   -5.6798   24.9179 C   0  0  0  0  0  0
  -21.6041   -4.3063   24.7227 C   0  0  0  0  0  0
  -21.8818   -3.8159   23.4345 C   0  0  0  0  0  0
  -21.9193   -4.6974   22.3405 C   0  0  0  0  0  0
  -22.7841  -13.5229   21.1869 C   0  0  0  0  0  0
  -22.1660   -4.2166   21.0980 F   0  0  0  0  0  0
  -21.5629   -3.4540   25.7734 F   0  0  0  0  0  0
  -30.0121  -13.4255   20.4231 N   0  0  0  0  0  0
  -26.2984  -12.9406   20.3340 N   0  0  0  0  0  0
  -25.9340  -11.6547   20.5782 N   0  0  0  0  0  0
  -22.0485  -12.8206   22.0414 N   0  0  0  0  0  0
  -25.4249  -15.1925   20.4138 N   0  0  0  0  0  0
  -31.8539  -14.7126   20.1287 O   0  0  0  0  0  0
  -21.6643   -6.8890   21.4251 O   0  0  0  0  0  0
  -22.3532  -14.5549   20.6737 O   0  0  0  0  0  0
  -24.6287  -31.8619   23.2085 C   0  0  0  0  0  0
  -25.9141  -32.4789   23.8385 C   0  0  1  0  0  0
  -27.2028  -27.3068   20.0973 C   0  0  0  0  0  0
  -25.5964  -33.8588   24.2299 N   0  0  0  0  0  0
  -23.4207  -30.4963   21.5516 C   0  0  2  0  0  0
  -24.8614  -28.9700   20.1069 C   0  0  0  0  0  0
  -22.7488  -29.4654   22.4917 C   0  0  0  0  0  0
  -18.0296  -28.1382   22.8491 C   0  0  0  0  0  0
  -24.1496  -36.7290   23.2638 C   0  0  0  0  0  0
  -25.9701  -30.7878   21.3871 C   0  0  0  0  0  0
  -26.0383  -29.4195   20.7214 C   0  0  0  0  0  0
  -27.2114  -28.5998   20.7143 C   0  0  0  0  0  0
  -25.9985  -26.9459   19.4324 C   0  0  0  0  0  0
  -24.8463  -27.7377   19.4533 C   0  0  0  0  0  0
  -23.6336  -29.8508   20.1618 C   0  0  0  0  0  0
  -25.4116  -36.3078   24.0327 C   0  0  1  0  0  0
  -20.5904  -28.3698   23.1265 C   0  0  2  0  0  0
  -20.6787  -26.9417   22.5395 C   0  0  0  0  0  0
  -19.5761  -26.6381   21.5208 C   0  0  0  0  0  0
  -18.1942  -26.7926   22.1618 C   0  0  0  0  0  0
  -19.1550  -28.8857   23.2882 C   0  0  0  0  0  0
  -18.9469  -30.1462   23.8897 C   0  0  0  0  0  0
  -17.6467  -30.6585   24.0574 C   0  0  0  0  0  0
  -25.9057  -34.9454   23.5100 C   0  0  0  0  0  0
  -16.5362  -29.9082   23.6337 C   0  0  0  0  0  0
  -16.7280  -28.6500   23.0352 C   0  0  0  0  0  0
  -26.4510  -31.6589   25.0748 C   0  0  0  0  0  0
  -25.3733  -31.3735   26.1468 C   0  0  0  0  0  0
  -27.0359  -30.3006   24.6224 C   0  0  0  0  0  0
  -27.6061  -32.4333   25.7524 C   0  0  0  0  0  0
  -27.5581  -37.1807   24.8466 C   0  0  0  0  0  0
  -21.4202  -29.3058   22.3663 N   0  0  0  0  0  0
  -26.4290  -37.3775   23.9411 N   0  0  0  0  0  0
  -24.6923  -31.0639   22.1046 N   0  0  0  0  0  0
  -23.4214  -28.8151   23.2956 O   0  0  0  0  0  0
  -28.2743  -26.3824   20.1672 O   0  0  0  0  0  0
  -26.5609  -34.8919   22.4658 O   0  0  0  0  0  0
  -23.5441  -32.1405   23.7408 O   0  0  0  0  0  0
  -28.2095  -22.5468   19.2795 C   0  0  0  0  0  0
  -30.1373  -22.0198   21.1764 C   0  0  0  0  0  0
  -28.6652  -23.6522   20.0435 C   0  0  0  0  0  0
  -28.6941  -21.2129   19.4145 C   0  0  0  0  0  0
  -29.6582  -23.3620   21.0123 C   0  0  0  0  0  0
  -29.6640  -20.9074   20.4162 C   0  0  0  0  0  0
  -30.2032  -24.4734   21.8883 C   0  0  0  0  0  0
  -28.1690  -20.6395   16.9688 C   0  0  0  0  0  0
  -26.7720  -19.6736   18.8473 C   0  0  0  0  0  0
  -27.8836  -24.9948   19.8078 C   0  0  0  0  0  0
  -30.5586  -17.1372   20.7940 C   0  0  0  0  0  0
  -29.5831  -18.3891   20.8635 C   0  0  0  0  0  0
  -28.1707  -20.1615   18.4332 C   0  0  0  0  0  0
  -29.9966  -15.7399   20.8597 N   0  0  0  0  0  0
  -30.2862  -19.6526   20.5969 O   0  0  0  0  0  0
  -31.4678  -12.4739   19.1611 H   0  0  0  0  0  0
  -30.3318  -11.3942   19.9167 H   0  0  0  0  0  0
  -29.7637  -11.7404   17.4886 H   0  0  0  0  0  0
  -29.6480  -13.4655   17.7439 H   0  0  0  0  0  0
  -27.8711  -11.2895   18.8910 H   0  0  0  0  0  0
  -27.3692  -12.5541   17.8013 H   0  0  0  0  0  0
  -27.6622  -14.2565   19.5050 H   0  0  0  0  0  0
  -28.6993  -12.1102   21.4210 H   0  0  0  0  0  0
  -28.4500  -13.7909   21.8158 H   0  0  0  0  0  0
  -25.2769   -9.5682   22.4774 H   0  0  0  0  0  0
  -24.0006   -7.4634   22.7471 H   0  0  0  0  0  0
  -21.0861   -8.8786   19.8949 H   0  0  0  0  0  0
  -22.3728  -10.9681   19.6167 H   0  0  0  0  0  0
  -21.2001   -7.6157   23.9732 H   0  0  0  0  0  0
  -21.1481   -6.0525   25.9081 H   0  0  0  0  0  0
  -22.0597   -2.7623   23.2841 H   0  0  0  0  0  0
  -22.4096  -11.9838   22.4751 H   0  0  0  0  0  0
  -21.1114  -13.1237   22.2645 H   0  0  0  0  0  0
  -24.6569  -15.8455   20.5238 H   0  0  0  0  0  0
  -26.2752  -15.6328   20.0866 H   0  0  0  0  0  0
  -26.7211  -32.5437   23.1125 H   0  0  0  0  0  0
  -25.0157  -33.9740   25.0477 H   0  0  0  0  0  0
  -22.7165  -31.3206   21.4180 H   0  0  0  0  0  0
  -23.3754  -35.9625   23.3292 H   0  0  0  0  0  0
  -24.3588  -36.8901   22.2053 H   0  0  0  0  0  0
  -23.7244  -37.6491   23.6656 H   0  0  0  0  0  0
  -26.1142  -31.5542   20.6246 H   0  0  0  0  0  0
  -26.8475  -30.8233   22.0208 H   0  0  0  0  0  0
  -28.1065  -28.9354   21.2188 H   0  0  0  0  0  0
  -25.8742  -26.0245   18.8872 H   0  0  0  0  0  0
  -23.9503  -27.3946   18.9525 H   0  0  0  0  0  0
  -23.7556  -30.6360   19.4146 H   0  0  0  0  0  0
  -22.7518  -29.2863   19.8520 H   0  0  0  0  0  0
  -25.1292  -36.1932   25.0814 H   0  0  0  0  0  0
  -21.0023  -28.3270   24.1372 H   0  0  0  0  0  0
  -20.5705  -26.2303   23.3594 H   0  0  0  0  0  0
  -21.6653  -26.7447   22.1179 H   0  0  0  0  0  0
  -19.6930  -25.6294   21.1231 H   0  0  0  0  0  0
  -19.6699  -27.3206   20.6752 H   0  0  0  0  0  0
  -17.4213  -26.6702   21.4015 H   0  0  0  0  0  0
  -18.0331  -26.0050   22.8998 H   0  0  0  0  0  0
  -19.7946  -30.7289   24.2249 H   0  0  0  0  0  0
  -17.5018  -31.6268   24.5180 H   0  0  0  0  0  0
  -15.5366  -30.2992   23.7659 H   0  0  0  0  0  0
  -15.8674  -28.0829   22.7058 H   0  0  0  0  0  0
  -24.5939  -30.7046   25.7801 H   0  0  0  0  0  0
  -24.8895  -32.2901   26.4855 H   0  0  0  0  0  0
  -25.8045  -30.8951   27.0270 H   0  0  0  0  0  0
  -26.2946  -29.6759   24.1222 H   0  0  0  0  0  0
  -27.4021  -29.7253   25.4737 H   0  0  0  0  0  0
  -27.8832  -30.4280   23.9480 H   0  0  0  0  0  0
  -27.2665  -33.3650   26.2061 H   0  0  0  0  0  0
  -28.3896  -32.6859   25.0369 H   0  0  0  0  0  0
  -28.0703  -31.8482   26.5470 H   0  0  0  0  0  0
  -28.2592  -38.0117   24.7508 H   0  0  0  0  0  0
  -28.1078  -36.2634   24.6284 H   0  0  0  0  0  0
  -27.2294  -37.1445   25.8871 H   0  0  0  0  0  0
  -20.9371  -29.8808   21.6910 H   0  0  0  0  0  0
  -26.0160  -38.2843   24.1409 H   0  0  0  0  0  0
  -27.4323  -22.7363   18.5538 H   0  0  0  0  0  0
  -30.9040  -21.8338   21.9163 H   0  0  0  0  0  0
  -30.9488  -24.1020   22.5913 H   0  0  0  0  0  0
  -29.3967  -24.9340   22.4594 H   0  0  0  0  0  0
  -30.6711  -25.2467   21.2773 H   0  0  0  0  0  0
  -29.1571  -20.9887   16.6667 H   0  0  0  0  0  0
  -27.4568  -21.4430   16.7843 H   0  0  0  0  0  0
  -27.8985  -19.8198   16.3019 H   0  0  0  0  0  0
  -26.7680  -19.2692   19.8595 H   0  0  0  0  0  0
  -26.4138  -18.8894   18.1804 H   0  0  0  0  0  0
  -26.0450  -20.4854   18.8217 H   0  0  0  0  0  0
  -26.9391  -24.7729   20.3077 H   0  0  0  0  0  0
  -27.7035  -25.0072   18.7315 H   0  0  0  0  0  0
  -31.2970  -17.2335   21.5914 H   0  0  0  0  0  0
  -31.1229  -17.2224   19.8641 H   0  0  0  0  0  0
  -29.1419  -18.4490   21.8594 H   0  0  0  0  0  0
  -28.7535  -18.2170   20.1872 H   0  0  0  0  0  0
  -28.8624  -19.3232   18.4310 H   0  0  0  0  0  0
  -29.0313  -15.6277   21.1332 H   0  0  0  0  0  0
  1 25  1  0  0  0
  1 30  2  0  0  0
  1 84  1  0  0  0
  2  3  1  0  0  0
  2 25  1  0  0  0
  2 86  1  0  0  0
  2 87  1  0  0  0
  3  4  1  0  0  0
  3 88  1  0  0  0
  3 89  1  0  0  0
  4  5  1  0  0  0
  4 90  1  0  0  0
  4 91  1  0  0  0
  5  6  1  0  0  0
  5 26  1  0  0  0
  5 92  1  0  0  0
  6 25  1  0  0  0
  6 93  1  0  0  0
  6 94  1  0  0  0
  7  8  2  0  0  0
  7 26  1  0  0  0
  7 29  1  0  0  0
  8  9  1  0  0  0
  8 22  1  0  0  0
  9 10  1  0  0  0
  9 27  2  0  0  0
 10 11  2  0  0  0
 10 15  1  0  0  0
 11 12  1  0  0  0
 11 95  1  0  0  0
 12 13  2  0  0  0
 12 96  1  0  0  0
 13 14  1  0  0  0
 13 31  1  0  0  0
 14 15  2  0  0  0
 14 97  1  0  0  0
 15 98  1  0  0  0
 16 17  2  0  0  0
 16 21  1  0  0  0
 16 31  1  0  0  0
 17 18  1  0  0  0
 17 99  1  0  0  0
 18 19  2  0  0  0
 18100  1  0  0  0
 19 20  1  0  0  0
 19 24  1  0  0  0
 20 21  2  0  0  0
 20101  1  0  0  0
 21 23  1  0  0  0
 22 28  1  0  0  0
 22 32  2  0  0  0
 26 27  1  0  0  0
 28102  1  0  0  0
 28103  1  0  0  0
 29104  1  0  0  0
 29105  1  0  0  0
 33 34  1  0  0  0
 33 66  1  0  0  0
 33 70  2  0  0  0
 34 36  1  0  0  0
 34 59  1  0  0  0
 34106  1  0  0  0
 35 44  2  0  0  0
 35 45  1  0  0  0
 35 68  1  0  0  0
 36 56  1  0  0  0
 36107  1  0  0  0
 37 39  1  0  0  0
 37 47  1  0  0  0
 37 66  1  0  0  0
 37108  1  0  0  0
 38 43  2  0  0  0
 38 46  1  0  0  0
 38 47  1  0  0  0
 39 64  1  0  0  0
 39 67  2  0  0  0
 40 52  1  0  0  0
 40 53  2  0  0  0
 40 58  1  0  0  0
 41109  1  0  0  0
 41110  1  0  0  0
 41111  1  0  0  0
 41 48  1  0  0  0
 42 43  1  0  0  0
 42 66  1  0  0  0
 42112  1  0  0  0
 42113  1  0  0  0
 43 44  1  0  0  0
 44114  1  0  0  0
 45 46  2  0  0  0
 45115  1  0  0  0
 46116  1  0  0  0
 47117  1  0  0  0
 47118  1  0  0  0
 48 56  1  0  0  0
 48 65  1  0  0  0
 48119  1  0  0  0
 49 50  1  0  0  0
 49 53  1  0  0  0
 49 64  1  0  0  0
 49120  1  0  0  0
 50 51  1  0  0  0
 50121  1  0  0  0
 50122  1  0  0  0
 51 52  1  0  0  0
 51123  1  0  0  0
 51124  1  0  0  0
 52125  1  0  0  0
 52126  1  0  0  0
 53 54  1  0  0  0
 54 55  2  0  0  0
 54127  1  0  0  0
 55 57  1  0  0  0
 55128  1  0  0  0
 56 69  2  0  0  0
 57 58  2  0  0  0
 57129  1  0  0  0
 58130  1  0  0  0
 59 60  1  0  0  0
 59 61  1  0  0  0
 59 62  1  0  0  0
 60131  1  0  0  0
 60132  1  0  0  0
 60133  1  0  0  0
 61134  1  0  0  0
 61135  1  0  0  0
 61136  1  0  0  0
 62137  1  0  0  0
 62138  1  0  0  0
 62139  1  0  0  0
 63 65  1  0  0  0
 63140  1  0  0  0
 63141  1  0  0  0
 63142  1  0  0  0
 64143  1  0  0  0
 65144  1  0  0  0
 68 80  1  0  0  0
 71 73  2  0  0  0
 71 74  1  0  0  0
 71145  1  0  0  0
 72 75  2  0  0  0
 72 76  1  0  0  0
 72146  1  0  0  0
 73 75  1  0  0  0
 73 80  1  0  0  0
 74 76  2  0  0  0
 74 83  1  0  0  0
 75 77  1  0  0  0
 76 85  1  0  0  0
 77147  1  0  0  0
 77148  1  0  0  0
 77149  1  0  0  0
 78150  1  0  0  0
 78151  1  0  0  0
 78152  1  0  0  0
 78 83  1  0  0  0
 79 83  1  0  0  0
 79153  1  0  0  0
 79154  1  0  0  0
 79155  1  0  0  0
 80156  1  0  0  0
 80157  1  0  0  0
 81 82  1  0  0  0
 81 84  1  0  0  0
 81158  1  0  0  0
 81159  1  0  0  0
 82 85  1  0  0  0
 82160  1  0  0  0
 82161  1  0  0  0
 83162  1  0  0  0
 84163  1  0  0  0
M  ISO  4   1 100  68 101  80 101  84 100
M  END
> <chiral flag>
0

> <version>
0

> <s_m_source_file>
/data/baiqing/PycharmProjects/Reinvent-master-3.2/result/LINK_invent/BTK/process_docking_weight1_custom_sum_contain_oxygen_bond_distance_aromatic_linkinvent_7_9_3/rearranged_h_0144.sdf

> <i_m_source_file_index>
34

> <r_mmod_Potential_Energy-OPLS-2005>
96.6684417724609

> <r_mmod_Stretch_Energy-OPLS-2005>
82.1073684692383

> <r_mmod_Bend_Energy-OPLS-2005>
180.814926147461

> <r_mmod_Torsional_Energy-OPLS-2005>
227.195663452148

> <r_mmod_Improper_Torsional_Energy-OPLS-2005>
5.40449380874634

> <r_mmod_Van_der_Waal_Energy-OPLS-2005>
162.622695922852

> <r_mmod_Electrostatic_Energy-OPLS-2005>
-409.592620849609

> <r_mmod_Solvation_Energy-OPLS-2005>
-207.599090576172

> <b_mmod_Minimization_Converged-OPLS-2005>
0

> <r_mmod_RMS_Derivative-OPLS-2005>
1.48730218410492

$$$$
34
                    3D
 Structure written by MMmdl.
174183  0  0  1  0            999 V2000
  -30.7508  -14.3931   20.6718 C   0  0  0  0  0  0
  -30.4177  -12.3060   19.3937 C   0  0  0  0  0  0
  -29.4793  -12.5105   18.1906 C   0  0  0  0  0  0
  -28.0065  -12.3613   18.6163 C   0  0  0  0  0  0
  -27.6600  -13.2021   19.8733 C   0  0  2  0  0  0
  -28.6972  -12.9581   20.9884 C   0  0  0  0  0  0
  -25.2611  -13.8208   20.5757 C   0  0  0  0  0  0
  -24.1837  -13.0479   20.9207 C   0  0  0  0  0  0
  -24.6347  -11.6941   20.8709 C   0  0  0  0  0  0
  -23.9020  -10.4324   21.0391 C   0  0  0  0  0  0
  -24.3583   -9.4236   21.9171 C   0  0  0  0  0  0
  -23.6274   -8.2266   22.0740 C   0  0  0  0  0  0
  -22.4270   -8.0279   21.3531 C   0  0  0  0  0  0
  -21.9902   -9.0245   20.4633 C   0  0  0  0  0  0
  -22.7204  -10.2141   20.3041 C   0  0  0  0  0  0
  -21.6856   -6.0723   22.5269 C   0  0  0  0  0  0
  -21.4014   -6.5637   23.8197 C   0  0  0  0  0  0
  -21.3655   -5.6793   24.9165 C   0  0  0  0  0  0
  -21.6053   -4.3048   24.7220 C   0  0  0  0  0  0
  -21.8818   -3.8142   23.4339 C   0  0  0  0  0  0
  -21.9193   -4.6951   22.3399 C   0  0  0  0  0  0
  -22.7878  -13.5277   21.1847 C   0  0  0  0  0  0
  -22.1668   -4.2134   21.0977 F   0  0  0  0  0  0
  -21.5628   -3.4534   25.7747 F   0  0  0  0  0  0
  -30.0348  -13.2611   20.4445 N   0  0  0  0  0  0
  -26.3002  -12.9349   20.3362 N   0  0  0  0  0  0
  -25.9258  -11.6517   20.5729 N   0  0  0  0  0  0
  -22.0496  -12.8252   22.0389 N   0  0  0  0  0  0
  -25.4378  -15.1974   20.4208 N   0  0  0  0  0  0
  -31.8108  -14.6566   20.1008 O   0  0  0  0  0  0
  -21.6649   -6.8872   21.4239 O   0  0  0  0  0  0
  -22.3635  -14.5601   20.6690 O   0  0  0  0  0  0
  -24.6143  -31.8718   23.2136 C   0  0  0  0  0  0
  -25.9042  -32.4843   23.8416 C   0  0  1  0  0  0
  -27.2326  -27.4652   20.0927 C   0  0  0  0  0  0
  -25.5888  -33.8624   24.2335 N   0  0  0  0  0  0
  -23.3971  -30.4966   21.5546 C   0  0  2  0  0  0
  -24.8442  -28.9582   20.1249 C   0  0  0  0  0  0
  -22.7379  -29.4717   22.5038 C   0  0  0  0  0  0
  -18.0252  -28.1371   22.8514 C   0  0  0  0  0  0
  -24.1474  -36.7326   23.2636 C   0  0  0  0  0  0
  -25.9238  -30.8453   21.3616 C   0  0  0  0  0  0
  -26.0006  -29.4754   20.7225 C   0  0  0  0  0  0
  -27.1988  -28.7310   20.7143 C   0  0  0  0  0  0
  -26.0668  -26.9483   19.4962 C   0  0  0  0  0  0
  -24.8673  -27.6891   19.5161 C   0  0  0  0  0  0
  -23.6057  -29.8250   20.1715 C   0  0  0  0  0  0
  -25.4104  -36.3096   24.0331 C   0  0  1  0  0  0
  -20.5848  -28.3670   23.1326 C   0  0  2  0  0  0
  -20.6759  -26.9413   22.5414 C   0  0  0  0  0  0
  -19.5753  -26.6407   21.5194 C   0  0  0  0  0  0
  -18.1923  -26.7940   22.1601 C   0  0  0  0  0  0
  -19.1505  -28.8829   23.2940 C   0  0  0  0  0  0
  -18.9456  -30.1426   23.8966 C   0  0  0  0  0  0
  -17.6460  -30.6597   24.0553 C   0  0  0  0  0  0
  -25.9033  -34.9481   23.5125 C   0  0  0  0  0  0
  -16.5345  -29.9105   23.6316 C   0  0  0  0  0  0
  -16.7236  -28.6497   23.0374 C   0  0  0  0  0  0
  -26.4477  -31.6578   25.0709 C   0  0  0  0  0  0
  -25.3718  -31.3565   26.1412 C   0  0  0  0  0  0
  -27.0325  -30.3027   24.6044 C   0  0  0  0  0  0
  -27.6067  -32.4264   25.7494 C   0  0  0  0  0  0
  -27.5582  -37.1816   24.8467 C   0  0  0  0  0  0
  -21.4111  -29.3046   22.3744 N   0  0  0  0  0  0
  -26.4289  -37.3780   23.9410 N   0  0  0  0  0  0
  -24.6629  -31.0845   22.1032 N   0  0  0  0  0  0
  -23.4150  -28.8244   23.3066 O   0  0  0  0  0  0
  -28.3989  -26.7552   19.9934 O   0  0  0  0  0  0
  -26.5629  -34.8942   22.4703 O   0  0  0  0  0  0
  -23.5325  -32.1466   23.7533 O   0  0  0  0  0  0
  -30.8909  -20.4728   21.2607 C   0  0  0  0  0  0
  -28.3344  -21.6027   21.5214 C   0  0  0  0  0  0
  -30.7534  -21.8747   21.3526 C   0  0  0  0  0  0
  -28.4699  -20.1986   21.4134 C   0  0  0  0  0  0
  -29.7605  -19.6162   21.3295 C   0  0  0  0  0  0
  -29.4732  -22.4433   21.5221 C   0  0  0  0  0  0
  -33.6054  -23.6763   20.1993 C   0  0  0  0  0  0
  -33.3875  -22.3173   20.8761 C   0  0  0  0  0  0
  -32.0838  -23.7553   20.0559 C   0  0  0  0  0  0
  -31.9705  -22.7932   21.2538 C   0  0  0  0  0  0
  -27.2213  -19.3175   21.3634 C   0  0  0  0  0  0
  -30.9660  -16.2813   22.2933 C   0  0  0  0  0  0
  -26.9367  -18.5481   22.6673 C   0  0  0  0  0  0
  -31.1078  -17.5956   21.4992 C   0  0  0  0  0  0
  -28.7719  -26.0317   21.1585 C   0  0  0  0  0  0
  -28.3941  -24.5408   21.0423 C   0  0  0  0  0  0
  -30.2456  -15.2046   21.6109 N   0  0  0  0  0  0
  -25.8053  -17.6061   22.5323 N   0  3  0  0  0  0
  -29.8374  -18.2317   21.3173 O   0  0  0  0  0  0
  -29.4013  -23.8030   21.7243 O   0  0  0  0  0  0
  -31.4554  -12.4214   19.0786 H   0  0  0  0  0  0
  -30.3356  -11.2858   19.7711 H   0  0  0  0  0  0
  -29.7133  -11.7909   17.4040 H   0  0  0  0  0  0
  -29.6391  -13.4986   17.7562 H   0  0  0  0  0  0
  -27.8291  -11.3041   18.8196 H   0  0  0  0  0  0
  -27.3449  -12.6229   17.7893 H   0  0  0  0  0  0
  -27.7172  -14.2524   19.5854 H   0  0  0  0  0  0
  -28.6670  -11.9168   21.3143 H   0  0  0  0  0  0
  -28.4380  -13.5395   21.8722 H   0  0  0  0  0  0
  -25.2719   -9.5738   22.4752 H   0  0  0  0  0  0
  -23.9984   -7.4684   22.7467 H   0  0  0  0  0  0
  -21.0837   -8.8730   19.8945 H   0  0  0  0  0  0
  -22.3622  -10.9659   19.6152 H   0  0  0  0  0  0
  -21.1995   -7.6145   23.9695 H   0  0  0  0  0  0
  -21.1491   -6.0530   25.9077 H   0  0  0  0  0  0
  -22.0603   -2.7602   23.2850 H   0  0  0  0  0  0
  -22.4105  -11.9875   22.4708 H   0  0  0  0  0  0
  -21.1121  -13.1294   22.2567 H   0  0  0  0  0  0
  -24.5630  -15.6556   20.1825 H   0  0  0  0  0  0
  -26.1594  -15.4420   19.7527 H   0  0  0  0  0  0
  -26.7123  -32.5569   23.1194 H   0  0  0  0  0  0
  -24.9914  -33.9734   25.0400 H   0  0  0  0  0  0
  -22.6844  -31.3136   21.4157 H   0  0  0  0  0  0
  -23.3718  -35.9676   23.3280 H   0  0  0  0  0  0
  -24.3565  -36.8969   22.2060 H   0  0  0  0  0  0
  -23.7268  -37.6536   23.6687 H   0  0  0  0  0  0
  -26.0252  -31.6089   20.5876 H   0  0  0  0  0  0
  -26.8137  -30.9050   21.9749 H   0  0  0  0  0  0
  -28.0975  -29.1302   21.1647 H   0  0  0  0  0  0
  -26.0931  -25.9850   19.0034 H   0  0  0  0  0  0
  -23.9762  -27.2848   19.0554 H   0  0  0  0  0  0
  -23.7078  -30.5964   19.4072 H   0  0  0  0  0  0
  -22.7272  -29.2428   19.8871 H   0  0  0  0  0  0
  -25.1285  -36.1954   25.0818 H   0  0  0  0  0  0
  -20.9935  -28.3278   24.1450 H   0  0  0  0  0  0
  -20.5649  -26.2307   23.3609 H   0  0  0  0  0  0
  -21.6653  -26.7480   22.1224 H   0  0  0  0  0  0
  -19.6913  -25.6323   21.1221 H   0  0  0  0  0  0
  -19.6685  -27.3227   20.6739 H   0  0  0  0  0  0
  -17.4202  -26.6723   21.3974 H   0  0  0  0  0  0
  -18.0258  -26.0045   22.8935 H   0  0  0  0  0  0
  -19.7942  -30.7188   24.2417 H   0  0  0  0  0  0
  -17.5038  -31.6292   24.5130 H   0  0  0  0  0  0
  -15.5349  -30.3025   23.7631 H   0  0  0  0  0  0
  -15.8627  -28.0806   22.7116 H   0  0  0  0  0  0
  -24.6125  -30.6655   25.7720 H   0  0  0  0  0  0
  -24.8599  -32.2594   26.4721 H   0  0  0  0  0  0
  -25.8113  -30.8913   27.0244 H   0  0  0  0  0  0
  -26.2851  -29.6729   24.1185 H   0  0  0  0  0  0
  -27.4196  -29.7326   25.4505 H   0  0  0  0  0  0
  -27.8640  -30.4350   23.9125 H   0  0  0  0  0  0
  -27.2778  -33.3635   26.2004 H   0  0  0  0  0  0
  -28.3944  -32.6669   25.0338 H   0  0  0  0  0  0
  -28.0647  -31.8375   26.5444 H   0  0  0  0  0  0
  -28.2589  -38.0131   24.7526 H   0  0  0  0  0  0
  -28.1087  -36.2650   24.6267 H   0  0  0  0  0  0
  -27.2276  -37.1435   25.8863 H   0  0  0  0  0  0
  -20.9278  -29.8758   21.6954 H   0  0  0  0  0  0
  -26.0160  -38.2853   24.1406 H   0  0  0  0  0  0
  -31.8839  -20.0726   21.1322 H   0  0  0  0  0  0
  -27.3499  -22.0343   21.6276 H   0  0  0  0  0  0
  -34.1534  -23.6385   19.2579 H   0  0  0  0  0  0
  -34.0138  -24.4344   20.8730 H   0  0  0  0  0  0
  -34.0513  -22.1072   21.7164 H   0  0  0  0  0  0
  -33.4011  -21.5081   20.1437 H   0  0  0  0  0  0
  -31.7356  -23.3068   19.1231 H   0  0  0  0  0  0
  -31.6454  -24.7406   20.2095 H   0  0  0  0  0  0
  -32.0297  -23.3684   22.1824 H   0  0  0  0  0  0
  -27.3267  -18.6154   20.5352 H   0  0  0  0  0  0
  -26.3600  -19.9387   21.1111 H   0  0  0  0  0  0
  -30.4618  -16.4843   23.2383 H   0  0  0  0  0  0
  -31.9571  -15.9156   22.5668 H   0  0  0  0  0  0
  -26.7156  -19.2507   23.4745 H   0  0  0  0  0  0
  -27.8181  -17.9871   22.9778 H   0  0  0  0  0  0
  -31.5942  -17.4332   20.5373 H   0  0  0  0  0  0
  -31.7811  -18.2072   22.0976 H   0  0  0  0  0  0
  -29.8566  -26.1213   21.2179 H   0  0  0  0  0  0
  -28.3831  -26.4719   22.0763 H   0  0  0  0  0  0
  -28.3866  -24.2391   19.9915 H   0  0  0  0  0  0
  -27.3986  -24.3583   21.4509 H   0  0  0  0  0  0
  -29.3571  -14.9296   22.0045 H   0  0  0  0  0  0
  -24.9787  -18.0697   22.2020 H   0  0  0  0  0  0
  -25.5901  -17.2064   23.4280 H   0  0  0  0  0  0
  -26.0197  -16.8499   21.9007 H   0  0  0  0  0  0
  1 25  1  0  0  0
  1 30  2  0  0  0
  1 87  1  0  0  0
  2  3  1  0  0  0
  2 25  1  0  0  0
  2 91  1  0  0  0
  2 92  1  0  0  0
  3  4  1  0  0  0
  3 93  1  0  0  0
  3 94  1  0  0  0
  4  5  1  0  0  0
  4 95  1  0  0  0
  4 96  1  0  0  0
  5  6  1  0  0  0
  5 26  1  0  0  0
  5 97  1  0  0  0
  6 25  1  0  0  0
  6 98  1  0  0  0
  6 99  1  0  0  0
  7  8  2  0  0  0
  7 26  1  0  0  0
  7 29  1  0  0  0
  8  9  1  0  0  0
  8 22  1  0  0  0
  9 10  1  0  0  0
  9 27  2  0  0  0
 10 11  2  0  0  0
 10 15  1  0  0  0
 11 12  1  0  0  0
 11100  1  0  0  0
 12 13  2  0  0  0
 12101  1  0  0  0
 13 14  1  0  0  0
 13 31  1  0  0  0
 14 15  2  0  0  0
 14102  1  0  0  0
 15103  1  0  0  0
 16 17  2  0  0  0
 16 21  1  0  0  0
 16 31  1  0  0  0
 17 18  1  0  0  0
 17104  1  0  0  0
 18 19  2  0  0  0
 18105  1  0  0  0
 19 20  1  0  0  0
 19 24  1  0  0  0
 20 21  2  0  0  0
 20106  1  0  0  0
 21 23  1  0  0  0
 22 28  1  0  0  0
 22 32  2  0  0  0
 26 27  1  0  0  0
 28107  1  0  0  0
 28108  1  0  0  0
 29109  1  0  0  0
 29110  1  0  0  0
 33 34  1  0  0  0
 33 66  1  0  0  0
 33 70  2  0  0  0
 34 36  1  0  0  0
 34 59  1  0  0  0
 34111  1  0  0  0
 35 44  2  0  0  0
 35 45  1  0  0  0
 35 68  1  0  0  0
 36 56  1  0  0  0
 36112  1  0  0  0
 37 39  1  0  0  0
 37 47  1  0  0  0
 37 66  1  0  0  0
 37113  1  0  0  0
 38 43  2  0  0  0
 38 46  1  0  0  0
 38 47  1  0  0  0
 39 64  1  0  0  0
 39 67  2  0  0  0
 40 52  1  0  0  0
 40 53  2  0  0  0
 40 58  1  0  0  0
 41114  1  0  0  0
 41115  1  0  0  0
 41116  1  0  0  0
 41 48  1  0  0  0
 42 43  1  0  0  0
 42 66  1  0  0  0
 42117  1  0  0  0
 42118  1  0  0  0
 43 44  1  0  0  0
 44119  1  0  0  0
 45 46  2  0  0  0
 45120  1  0  0  0
 46121  1  0  0  0
 47122  1  0  0  0
 47123  1  0  0  0
 48 56  1  0  0  0
 48 65  1  0  0  0
 48124  1  0  0  0
 49 50  1  0  0  0
 49 53  1  0  0  0
 49 64  1  0  0  0
 49125  1  0  0  0
 50 51  1  0  0  0
 50126  1  0  0  0
 50127  1  0  0  0
 51 52  1  0  0  0
 51128  1  0  0  0
 51129  1  0  0  0
 52130  1  0  0  0
 52131  1  0  0  0
 53 54  1  0  0  0
 54 55  2  0  0  0
 54132  1  0  0  0
 55 57  1  0  0  0
 55133  1  0  0  0
 56 69  2  0  0  0
 57 58  2  0  0  0
 57134  1  0  0  0
 58135  1  0  0  0
 59 60  1  0  0  0
 59 61  1  0  0  0
 59 62  1  0  0  0
 60136  1  0  0  0
 60137  1  0  0  0
 60138  1  0  0  0
 61139  1  0  0  0
 61140  1  0  0  0
 61141  1  0  0  0
 62142  1  0  0  0
 62143  1  0  0  0
 62144  1  0  0  0
 63 65  1  0  0  0
 63145  1  0  0  0
 63146  1  0  0  0
 63147  1  0  0  0
 64148  1  0  0  0
 65149  1  0  0  0
 68 85  1  0  0  0
 71 73  2  0  0  0
 71 75  1  0  0  0
 71150  1  0  0  0
 72 74  1  0  0  0
 72 76  2  0  0  0
 72151  1  0  0  0
 73 76  1  0  0  0
 73 80  1  0  0  0
 74 75  2  0  0  0
 74 81  1  0  0  0
 75 89  1  0  0  0
 76 90  1  0  0  0
 77 78  1  0  0  0
 77 79  1  0  0  0
 77152  1  0  0  0
 77153  1  0  0  0
 78 80  1  0  0  0
 78154  1  0  0  0
 78155  1  0  0  0
 79 80  1  0  0  0
 79156  1  0  0  0
 79157  1  0  0  0
 80158  1  0  0  0
 81 83  1  0  0  0
 81159  1  0  0  0
 81160  1  0  0  0
 82 84  1  0  0  0
 82 87  1  0  0  0
 82161  1  0  0  0
 82162  1  0  0  0
 83 88  1  0  0  0
 83163  1  0  0  0
 83164  1  0  0  0
 84 89  1  0  0  0
 84165  1  0  0  0
 84166  1  0  0  0
 85 86  1  0  0  0
 85167  1  0  0  0
 85168  1  0  0  0
 86 90  1  0  0  0
 86169  1  0  0  0
 86170  1  0  0  0
 87171  1  0  0  0
 88172  1  0  0  0
 88173  1  0  0  0
 88174  1  0  0  0
M  CHG  1  88   1
M  ISO  4   1 100  68 101  85 101  87 100
M  END
> <chiral flag>
0

> <version>
0

> <s_m_source_file>
/data/baiqing/PycharmProjects/Reinvent-master-3.2/result/LINK_invent/BTK/process_docking_weight1_custom_sum_contain_oxygen_bond_distance_aromatic_linkinvent_7_9_3/rearranged_h_0144.sdf

> <i_m_source_file_index>
35

> <r_mmod_Potential_Energy-OPLS-2005>
-339.413604736328

> <r_mmod_Stretch_Energy-OPLS-2005>
35.8532028198242

> <r_mmod_Bend_Energy-OPLS-2005>
118.139610290527

> <r_mmod_Torsional_Energy-OPLS-2005>
274.464599609375

> <r_mmod_Improper_Torsional_Energy-OPLS-2005>
7.86140918731689

> <r_mmod_Van_der_Waal_Energy-OPLS-2005>
147.975036621094

> <r_mmod_Electrostatic_Energy-OPLS-2005>
-446.396087646484

> <r_mmod_Solvation_Energy-OPLS-2005>
-484.259521484375

> <b_mmod_Minimization_Converged-OPLS-2005>
0

> <r_mmod_RMS_Derivative-OPLS-2005>
4.22473526000977

$$$$
35
                    3D
 Structure written by MMmdl.
173182  0  0  1  0            999 V2000
  -30.7643  -14.3281   20.6700 C   0  0  0  0  0  0
  -30.4368  -12.2667   19.3742 C   0  0  0  0  0  0
  -29.4892  -12.5312   18.1849 C   0  0  0  0  0  0
  -28.0121  -12.4072   18.6050 C   0  0  0  0  0  0
  -27.6870  -13.1911   19.9041 C   0  0  2  0  0  0
  -28.7307  -12.8867   21.0028 C   0  0  0  0  0  0
  -25.2759  -13.8099   20.5713 C   0  0  0  0  0  0
  -24.1966  -13.0414   20.9136 C   0  0  0  0  0  0
  -24.6477  -11.6864   20.8722 C   0  0  0  0  0  0
  -23.9120  -10.4270   21.0387 C   0  0  0  0  0  0
  -24.3660   -9.4196   21.9168 C   0  0  0  0  0  0
  -23.6308   -8.2246   22.0756 C   0  0  0  0  0  0
  -22.4288   -8.0286   21.3552 C   0  0  0  0  0  0
  -21.9934   -9.0275   20.4671 C   0  0  0  0  0  0
  -22.7279  -10.2139   20.3067 C   0  0  0  0  0  0
  -21.6872   -6.0744   22.5269 C   0  0  0  0  0  0
  -21.4008   -6.5646   23.8196 C   0  0  0  0  0  0
  -21.3644   -5.6805   24.9157 C   0  0  0  0  0  0
  -21.6041   -4.3068   24.7213 C   0  0  0  0  0  0
  -21.8836   -3.8159   23.4342 C   0  0  0  0  0  0
  -21.9215   -4.6966   22.3393 C   0  0  0  0  0  0
  -22.8008  -13.5269   21.1794 C   0  0  0  0  0  0
  -22.1694   -4.2143   21.0980 F   0  0  0  0  0  0
  -21.5636   -3.4560   25.7737 F   0  0  0  0  0  0
  -30.0743  -13.1805   20.4655 N   0  0  0  0  0  0
  -26.3217  -12.9248   20.3517 N   0  0  0  0  0  0
  -25.9418  -11.6413   20.5801 N   0  0  0  0  0  0
  -22.0664  -12.8234   22.0335 N   0  0  0  0  0  0
  -25.4567  -15.1797   20.4188 N   0  0  0  0  0  0
  -31.7961  -14.6343   20.0648 O   0  0  0  0  0  0
  -21.6656   -6.8877   21.4229 O   0  0  0  0  0  0
  -22.3707  -14.5596   20.6670 O   0  0  0  0  0  0
  -24.6043  -31.8716   23.2152 C   0  0  0  0  0  0
  -25.8955  -32.4844   23.8426 C   0  0  1  0  0  0
  -27.2339  -27.4761   20.1046 C   0  0  0  0  0  0
  -25.5825  -33.8649   24.2345 N   0  0  0  0  0  0
  -23.3892  -30.4892   21.5580 C   0  0  2  0  0  0
  -24.8380  -28.9587   20.1230 C   0  0  0  0  0  0
  -22.7358  -29.4622   22.5097 C   0  0  0  0  0  0
  -18.0224  -28.1336   22.8503 C   0  0  0  0  0  0
  -24.1470  -36.7332   23.2643 C   0  0  0  0  0  0
  -25.9117  -30.8529   21.3562 C   0  0  0  0  0  0
  -25.9932  -29.4847   20.7148 C   0  0  0  0  0  0
  -27.1957  -28.7526   20.6993 C   0  0  0  0  0  0
  -26.0664  -26.9504   19.5096 C   0  0  0  0  0  0
  -24.8696  -27.6924   19.5147 C   0  0  0  0  0  0
  -23.5916  -29.8125   20.1757 C   0  0  0  0  0  0
  -25.4086  -36.3145   24.0356 C   0  0  1  0  0  0
  -20.5822  -28.3577   23.1371 C   0  0  2  0  0  0
  -20.6722  -26.9324   22.5430 C   0  0  0  0  0  0
  -19.5703  -26.6351   21.5219 C   0  0  0  0  0  0
  -18.1882  -26.7884   22.1629 C   0  0  0  0  0  0
  -19.1484  -28.8790   23.2921 C   0  0  0  0  0  0
  -18.9416  -30.1405   23.8914 C   0  0  0  0  0  0
  -17.6418  -30.6568   24.0531 C   0  0  0  0  0  0
  -25.9017  -34.9498   23.5152 C   0  0  0  0  0  0
  -16.5311  -29.9063   23.6314 C   0  0  0  0  0  0
  -16.7229  -28.6455   23.0387 C   0  0  0  0  0  0
  -26.4414  -31.6621   25.0739 C   0  0  0  0  0  0
  -25.3685  -31.3690   26.1507 C   0  0  0  0  0  0
  -27.0230  -30.3072   24.6046 C   0  0  0  0  0  0
  -27.6017  -32.4323   25.7487 C   0  0  0  0  0  0
  -27.5580  -37.1825   24.8476 C   0  0  0  0  0  0
  -21.4094  -29.2962   22.3827 N   0  0  0  0  0  0
  -26.4289  -37.3821   23.9417 N   0  0  0  0  0  0
  -24.6530  -31.0866   22.1005 N   0  0  0  0  0  0
  -23.4167  -28.8163   23.3104 O   0  0  0  0  0  0
  -28.4390  -26.8298   20.0668 O   0  0  0  0  0  0
  -26.5618  -34.8930   22.4744 O   0  0  0  0  0  0
  -23.5256  -32.1402   23.7596 O   0  0  0  0  0  0
  -27.4663  -19.3229   19.1842 C   0  0  0  0  0  0
  -28.6076  -19.6614   21.2798 C   0  0  0  0  0  0
  -27.6535  -20.6761   18.8355 C   0  0  0  0  0  0
  -28.5431  -21.4928   19.6201 C   0  0  0  0  0  0
  -28.0335  -18.7938   20.3463 C   0  0  0  0  0  0
  -28.8833  -20.9901   20.9267 C   0  0  0  0  0  0
  -25.7902  -22.1227   17.6523 C   0  0  0  0  0  0
  -25.4523  -20.6731   17.4317 C   0  0  0  0  0  0
  -26.9010  -21.0902   17.6002 C   0  0  0  0  0  0
  -28.7057  -23.4575   17.7775 C   0  0  0  0  0  0
  -30.9395  -25.6052   20.9768 C   0  0  0  0  0  0
  -30.3079  -16.6222   21.3867 C   0  0  0  0  0  0
  -29.5459  -17.0999   20.1354 C   0  0  0  0  0  0
  -28.4784  -25.4479   20.3887 C   0  0  0  0  0  0
  -29.3211  -22.6914   18.9772 C   0  0  1  0  0  0
  -29.9060  -25.0145   19.9990 C   0  0  2  0  0  0
  -30.1698  -15.1800   21.5059 N   0  0  0  0  0  0
  -30.0962  -23.5432   19.9176 N   0  3  0  0  0  0
  -28.1961  -17.4434   20.4630 O   0  0  0  0  0  0
  -29.7315  -21.8734   22.1555 Cl  0  0  0  0  0  0
  -31.4787  -12.3829   19.0619 H   0  0  0  0  0  0
  -30.3475  -11.2357   19.7158 H   0  0  0  0  0  0
  -29.7024  -11.8347   17.3736 H   0  0  0  0  0  0
  -29.6754  -13.5277   17.7804 H   0  0  0  0  0  0
  -27.7865  -11.3496   18.7396 H   0  0  0  0  0  0
  -27.3708  -12.7511   17.7931 H   0  0  0  0  0  0
  -27.7657  -14.2524   19.6741 H   0  0  0  0  0  0
  -28.6931  -11.8354   21.2894 H   0  0  0  0  0  0
  -28.4965  -13.4315   21.9186 H   0  0  0  0  0  0
  -25.2810   -9.5650   22.4726 H   0  0  0  0  0  0
  -24.0024   -7.4637   22.7474 H   0  0  0  0  0  0
  -21.0864   -8.8813   19.8981 H   0  0  0  0  0  0
  -22.3744  -10.9693   19.6195 H   0  0  0  0  0  0
  -21.1984   -7.6155   23.9682 H   0  0  0  0  0  0
  -21.1450   -6.0542   25.9052 H   0  0  0  0  0  0
  -22.0631   -2.7617   23.2854 H   0  0  0  0  0  0
  -22.4340  -11.9872   22.4610 H   0  0  0  0  0  0
  -21.1310  -13.1244   22.2644 H   0  0  0  0  0  0
  -24.6997  -15.8408   20.5517 H   0  0  0  0  0  0
  -26.3339  -15.6221   20.1697 H   0  0  0  0  0  0
  -26.7012  -32.5580   23.1212 H   0  0  0  0  0  0
  -24.9948  -33.9838   25.0464 H   0  0  0  0  0  0
  -22.6690  -31.2999   21.4198 H   0  0  0  0  0  0
  -23.3727  -35.9675   23.3339 H   0  0  0  0  0  0
  -24.3564  -36.8901   22.2049 H   0  0  0  0  0  0
  -23.7219  -37.6548   23.6625 H   0  0  0  0  0  0
  -26.0180  -31.6141   20.5813 H   0  0  0  0  0  0
  -26.8002  -30.9137   21.9715 H   0  0  0  0  0  0
  -28.0956  -29.1614   21.1400 H   0  0  0  0  0  0
  -26.0716  -25.9952   19.0089 H   0  0  0  0  0  0
  -23.9848  -27.2934   19.0382 H   0  0  0  0  0  0
  -23.6730  -30.5799   19.4052 H   0  0  0  0  0  0
  -22.7193  -29.2145   19.9004 H   0  0  0  0  0  0
  -25.1259  -36.2035   25.0848 H   0  0  0  0  0  0
  -20.9924  -28.3100   24.1494 H   0  0  0  0  0  0
  -20.5589  -26.2172   23.3585 H   0  0  0  0  0  0
  -21.6589  -26.7337   22.1233 H   0  0  0  0  0  0
  -19.6796  -25.6257   21.1225 H   0  0  0  0  0  0
  -19.6659  -27.3180   20.6757 H   0  0  0  0  0  0
  -17.4162  -26.6631   21.4018 H   0  0  0  0  0  0
  -18.0275  -26.0014   22.9012 H   0  0  0  0  0  0
  -19.7898  -30.7211   24.2294 H   0  0  0  0  0  0
  -17.4973  -31.6274   24.5085 H   0  0  0  0  0  0
  -15.5317  -30.2975   23.7602 H   0  0  0  0  0  0
  -15.8623  -28.0757   22.7150 H   0  0  0  0  0  0
  -24.5855  -30.7064   25.7824 H   0  0  0  0  0  0
  -24.8885  -32.2826   26.5005 H   0  0  0  0  0  0
  -25.8041  -30.8808   27.0236 H   0  0  0  0  0  0
  -26.2757  -29.6876   24.1075 H   0  0  0  0  0  0
  -27.3999  -29.7266   25.4472 H   0  0  0  0  0  0
  -27.8589  -30.4411   23.9184 H   0  0  0  0  0  0
  -27.2661  -33.3590   26.2153 H   0  0  0  0  0  0
  -28.3786  -32.6925   25.0295 H   0  0  0  0  0  0
  -28.0733  -31.8395   26.5335 H   0  0  0  0  0  0
  -28.2639  -38.0083   24.7499 H   0  0  0  0  0  0
  -28.1033  -36.2622   24.6326 H   0  0  0  0  0  0
  -27.2322  -37.1521   25.8890 H   0  0  0  0  0  0
  -20.9260  -29.8687   21.7054 H   0  0  0  0  0  0
  -26.0192  -38.2919   24.1381 H   0  0  0  0  0  0
  -26.9624  -18.6600   18.4950 H   0  0  0  0  0  0
  -28.9684  -19.2779   22.2226 H   0  0  0  0  0  0
  -25.5467  -22.5560   18.6230 H   0  0  0  0  0  0
  -25.6726  -22.7880   16.7993 H   0  0  0  0  0  0
  -25.1456  -20.3671   16.4350 H   0  0  0  0  0  0
  -24.9619  -20.1514   18.2520 H   0  0  0  0  0  0
  -27.4997  -20.9765   16.6989 H   0  0  0  0  0  0
  -28.6240  -22.8186   16.9028 H   0  0  0  0  0  0
  -29.3356  -24.2738   17.4383 H   0  0  0  0  0  0
  -27.7208  -23.8709   17.9813 H   0  0  0  0  0  0
  -31.9483  -25.2780   20.7260 H   0  0  0  0  0  0
  -30.7396  -25.3111   22.0084 H   0  0  0  0  0  0
  -30.9342  -26.6948   20.9414 H   0  0  0  0  0  0
  -31.3633  -16.8984   21.3178 H   0  0  0  0  0  0
  -29.9326  -17.1113   22.2851 H   0  0  0  0  0  0
  -29.5230  -16.3444   19.3485 H   0  0  0  0  0  0
  -30.0979  -17.9329   19.6893 H   0  0  0  0  0  0
  -28.2903  -25.2980   21.4540 H   0  0  0  0  0  0
  -27.7216  -24.8871   19.8545 H   0  0  0  0  0  0
  -30.1426  -22.1439   18.5128 H   0  0  0  0  0  0
  -30.1398  -25.4365   19.0209 H   0  0  0  0  0  0
  -29.3561  -14.8393   21.9936 H   0  0  0  0  0  0
  -29.9878  -23.1311   20.8372 H   0  0  0  0  0  0
  -31.0634  -23.3926   19.6728 H   0  0  0  0  0  0
  1 25  1  0  0  0
  1 30  2  0  0  0
  1 87  1  0  0  0
  2  3  1  0  0  0
  2 25  1  0  0  0
  2 91  1  0  0  0
  2 92  1  0  0  0
  3  4  1  0  0  0
  3 93  1  0  0  0
  3 94  1  0  0  0
  4  5  1  0  0  0
  4 95  1  0  0  0
  4 96  1  0  0  0
  5  6  1  0  0  0
  5 26  1  0  0  0
  5 97  1  0  0  0
  6 25  1  0  0  0
  6 98  1  0  0  0
  6 99  1  0  0  0
  7  8  2  0  0  0
  7 26  1  0  0  0
  7 29  1  0  0  0
  8  9  1  0  0  0
  8 22  1  0  0  0
  9 10  1  0  0  0
  9 27  2  0  0  0
 10 11  2  0  0  0
 10 15  1  0  0  0
 11 12  1  0  0  0
 11100  1  0  0  0
 12 13  2  0  0  0
 12101  1  0  0  0
 13 14  1  0  0  0
 13 31  1  0  0  0
 14 15  2  0  0  0
 14102  1  0  0  0
 15103  1  0  0  0
 16 17  2  0  0  0
 16 21  1  0  0  0
 16 31  1  0  0  0
 17 18  1  0  0  0
 17104  1  0  0  0
 18 19  2  0  0  0
 18105  1  0  0  0
 19 20  1  0  0  0
 19 24  1  0  0  0
 20 21  2  0  0  0
 20106  1  0  0  0
 21 23  1  0  0  0
 22 28  1  0  0  0
 22 32  2  0  0  0
 26 27  1  0  0  0
 28107  1  0  0  0
 28108  1  0  0  0
 29109  1  0  0  0
 29110  1  0  0  0
 33 34  1  0  0  0
 33 66  1  0  0  0
 33 70  2  0  0  0
 34 36  1  0  0  0
 34 59  1  0  0  0
 34111  1  0  0  0
 35 44  2  0  0  0
 35 45  1  0  0  0
 35 68  1  0  0  0
 36 56  1  0  0  0
 36112  1  0  0  0
 37 39  1  0  0  0
 37 47  1  0  0  0
 37 66  1  0  0  0
 37113  1  0  0  0
 38 43  2  0  0  0
 38 46  1  0  0  0
 38 47  1  0  0  0
 39 64  1  0  0  0
 39 67  2  0  0  0
 40 52  1  0  0  0
 40 53  2  0  0  0
 40 58  1  0  0  0
 41114  1  0  0  0
 41115  1  0  0  0
 41116  1  0  0  0
 41 48  1  0  0  0
 42 43  1  0  0  0
 42 66  1  0  0  0
 42117  1  0  0  0
 42118  1  0  0  0
 43 44  1  0  0  0
 44119  1  0  0  0
 45 46  2  0  0  0
 45120  1  0  0  0
 46121  1  0  0  0
 47122  1  0  0  0
 47123  1  0  0  0
 48 56  1  0  0  0
 48 65  1  0  0  0
 48124  1  0  0  0
 49 50  1  0  0  0
 49 53  1  0  0  0
 49 64  1  0  0  0
 49125  1  0  0  0
 50 51  1  0  0  0
 50126  1  0  0  0
 50127  1  0  0  0
 51 52  1  0  0  0
 51128  1  0  0  0
 51129  1  0  0  0
 52130  1  0  0  0
 52131  1  0  0  0
 53 54  1  0  0  0
 54 55  2  0  0  0
 54132  1  0  0  0
 55 57  1  0  0  0
 55133  1  0  0  0
 56 69  2  0  0  0
 57 58  2  0  0  0
 57134  1  0  0  0
 58135  1  0  0  0
 59 60  1  0  0  0
 59 61  1  0  0  0
 59 62  1  0  0  0
 60136  1  0  0  0
 60137  1  0  0  0
 60138  1  0  0  0
 61139  1  0  0  0
 61140  1  0  0  0
 61141  1  0  0  0
 62142  1  0  0  0
 62143  1  0  0  0
 62144  1  0  0  0
 63 65  1  0  0  0
 63145  1  0  0  0
 63146  1  0  0  0
 63147  1  0  0  0
 64148  1  0  0  0
 65149  1  0  0  0
 68 84  1  0  0  0
 71 73  2  0  0  0
 71 75  1  0  0  0
 71150  1  0  0  0
 72 75  2  0  0  0
 72 76  1  0  0  0
 72151  1  0  0  0
 73 74  1  0  0  0
 73 79  1  0  0  0
 74 76  2  0  0  0
 74 85  1  0  0  0
 75 89  1  0  0  0
 76 90  1  0  0  0
 77 78  1  0  0  0
 77 79  1  0  0  0
 77152  1  0  0  0
 77153  1  0  0  0
 78 79  1  0  0  0
 78154  1  0  0  0
 78155  1  0  0  0
 79156  1  0  0  0
 80157  1  0  0  0
 80158  1  0  0  0
 80159  1  0  0  0
 80 85  1  0  0  0
 81160  1  0  0  0
 81161  1  0  0  0
 81162  1  0  0  0
 81 86  1  0  0  0
 82 83  1  0  0  0
 82 87  1  0  0  0
 82163  1  0  0  0
 82164  1  0  0  0
 83 89  1  0  0  0
 83165  1  0  0  0
 83166  1  0  0  0
 84 86  1  0  0  0
 84167  1  0  0  0
 84168  1  0  0  0
 85 88  1  0  0  0
 85169  1  0  0  0
 86 88  1  0  0  0
 86170  1  0  0  0
 87171  1  0  0  0
 88172  1  0  0  0
 88173  1  0  0  0
M  CHG  1  88   1
M  ISO  4   1 100  68 101  84 101  87 100
M  END
> <chiral flag>
0

> <version>
0

> <s_m_source_file>
/data/baiqing/PycharmProjects/Reinvent-master-3.2/result/LINK_invent/BTK/process_docking_weight1_custom_sum_contain_oxygen_bond_distance_aromatic_linkinvent_7_9_3/rearranged_h_0144.sdf

> <i_m_source_file_index>
36

> <r_mmod_Potential_Energy-OPLS-2005>
-54.7952156066895

> <r_mmod_Stretch_Energy-OPLS-2005>
42.4800720214844

> <r_mmod_Bend_Energy-OPLS-2005>
140.016983032227

> <r_mmod_Torsional_Energy-OPLS-2005>
347.239288330078

> <r_mmod_Improper_Torsional_Energy-OPLS-2005>
7.24523067474365

> <r_mmod_Van_der_Waal_Energy-OPLS-2005>
183.641098022461

> <r_mmod_Electrostatic_Energy-OPLS-2005>
-357.925506591797

> <r_mmod_Solvation_Energy-OPLS-2005>
-425.63134765625

> <b_mmod_Minimization_Converged-OPLS-2005>
0

> <r_mmod_RMS_Derivative-OPLS-2005>
4.31260251998901

$$$$
36
                    3D
 Structure written by MMmdl.
164173  0  0  1  0            999 V2000
  -30.7334  -14.5712   20.5445 C   0  0  0  0  0  0
  -30.4233  -12.3750   19.4310 C   0  0  0  0  0  0
  -29.4893  -12.4783   18.2099 C   0  0  0  0  0  0
  -28.0202  -12.2839   18.6309 C   0  0  0  0  0  0
  -27.6433  -13.1608   19.8468 C   0  0  2  0  0  0
  -28.7061  -13.0403   20.9776 C   0  0  0  0  0  0
  -25.2568  -13.8028   20.5635 C   0  0  0  0  0  0
  -24.1801  -13.0376   20.9213 C   0  0  0  0  0  0
  -24.6322  -11.6833   20.8791 C   0  0  0  0  0  0
  -23.8992  -10.4257   21.0457 C   0  0  0  0  0  0
  -24.3577   -9.4177   21.9210 C   0  0  0  0  0  0
  -23.6264   -8.2206   22.0762 C   0  0  0  0  0  0
  -22.4256   -8.0255   21.3537 C   0  0  0  0  0  0
  -21.9881   -9.0233   20.4646 C   0  0  0  0  0  0
  -22.7191  -10.2110   20.3067 C   0  0  0  0  0  0
  -21.6837   -6.0720   22.5274 C   0  0  0  0  0  0
  -21.3994   -6.5620   23.8204 C   0  0  0  0  0  0
  -21.3652   -5.6780   24.9170 C   0  0  0  0  0  0
  -21.6041   -4.3047   24.7230 C   0  0  0  0  0  0
  -21.8819   -3.8133   23.4352 C   0  0  0  0  0  0
  -21.9195   -4.6948   22.3403 C   0  0  0  0  0  0
  -22.7831  -13.5223   21.1858 C   0  0  0  0  0  0
  -22.1666   -4.2131   21.0983 F   0  0  0  0  0  0
  -21.5645   -3.4538   25.7749 F   0  0  0  0  0  0
  -30.0082  -13.4096   20.4035 N   0  0  0  0  0  0
  -26.2928  -12.9090   20.3266 N   0  0  0  0  0  0
  -25.9209  -11.6311   20.5765 N   0  0  0  0  0  0
  -22.0449  -12.8236   22.0412 N   0  0  0  0  0  0
  -25.4269  -15.1737   20.3947 N   0  0  0  0  0  0
  -31.9078  -14.5899   20.1655 O   0  0  0  0  0  0
  -21.6626   -6.8851   21.4230 O   0  0  0  0  0  0
  -22.3536  -14.5537   20.6707 O   0  0  0  0  0  0
  -24.6139  -31.8684   23.2112 C   0  0  0  0  0  0
  -25.9041  -32.4820   23.8395 C   0  0  1  0  0  0
  -27.2508  -27.4435   20.1067 C   0  0  0  0  0  0
  -25.5912  -33.8611   24.2346 N   0  0  0  0  0  0
  -23.4027  -30.4881   21.5507 C   0  0  2  0  0  0
  -24.8552  -28.9451   20.1246 C   0  0  0  0  0  0
  -22.7404  -29.4654   22.5011 C   0  0  0  0  0  0
  -18.0263  -28.1383   22.8488 C   0  0  0  0  0  0
  -24.1486  -36.7316   23.2637 C   0  0  0  0  0  0
  -25.9279  -30.8319   21.3668 C   0  0  0  0  0  0
  -26.0090  -29.4601   20.7294 C   0  0  0  0  0  0
  -27.2097  -28.7131   20.7252 C   0  0  0  0  0  0
  -26.0837  -26.9363   19.5003 C   0  0  0  0  0  0
  -24.8853  -27.6796   19.5098 C   0  0  0  0  0  0
  -23.6151  -29.8125   20.1678 C   0  0  0  0  0  0
  -25.4105  -36.3106   24.0343 C   0  0  1  0  0  0
  -20.5853  -28.3668   23.1335 C   0  0  2  0  0  0
  -20.6747  -26.9398   22.5444 C   0  0  0  0  0  0
  -19.5741  -26.6402   21.5215 C   0  0  0  0  0  0
  -18.1917  -26.7927   22.1627 C   0  0  0  0  0  0
  -19.1509  -28.8838   23.2905 C   0  0  0  0  0  0
  -18.9434  -30.1447   23.8921 C   0  0  0  0  0  0
  -17.6436  -30.6578   24.0579 C   0  0  0  0  0  0
  -25.9040  -34.9470   23.5139 C   0  0  0  0  0  0
  -16.5330  -29.9084   23.6334 C   0  0  0  0  0  0
  -16.7255  -28.6506   23.0342 C   0  0  0  0  0  0
  -26.4476  -31.6579   25.0707 C   0  0  0  0  0  0
  -25.3749  -31.3659   26.1462 C   0  0  0  0  0  0
  -27.0302  -30.3027   24.6056 C   0  0  0  0  0  0
  -27.6056  -32.4291   25.7457 C   0  0  0  0  0  0
  -27.5581  -37.1816   24.8468 C   0  0  0  0  0  0
  -21.4129  -29.3032   22.3739 N   0  0  0  0  0  0
  -26.4292  -37.3795   23.9417 N   0  0  0  0  0  0
  -24.6653  -31.0779   22.1022 N   0  0  0  0  0  0
  -23.4180  -28.8226   23.3074 O   0  0  0  0  0  0
  -28.4327  -26.7558   19.9637 O   0  0  0  0  0  0
  -26.5585  -34.8918   22.4695 O   0  0  0  0  0  0
  -23.5336  -32.1440   23.7519 O   0  0  0  0  0  0
  -28.5941  -19.7951   21.5377 C   0  0  0  0  0  0
  -30.8135  -20.7595   21.4851 C   0  0  0  0  0  0
  -29.1572  -18.5057   21.5705 C   0  0  0  0  0  0
  -30.5442  -18.3043   21.5074 C   0  0  0  0  0  0
  -31.3814  -19.4552   21.5007 C   0  0  0  0  0  0
  -29.4070  -20.9395   21.4734 C   0  0  0  0  0  0
  -28.2748  -17.2971   21.6305 C   0  0  0  0  0  0
  -31.0944  -16.8571   21.4318 C   0  0  0  0  0  0
  -28.7952  -16.1956   20.7026 C   0  0  1  0  0  0
  -32.8936  -19.3186   21.4877 C   0  0  0  0  0  0
  -28.6748  -16.5947   19.2137 C   0  0  0  0  0  0
  -28.4347  -24.4561   20.8343 C   0  0  0  0  0  0
  -28.8716  -25.9245   21.0392 C   0  0  0  0  0  0
  -29.4234  -23.3924   21.3749 C   0  0  0  0  0  0
  -30.1700  -15.7414   21.0226 N   0  0  0  0  0  0
  -28.7318  -22.1433   21.3914 O   0  0  0  0  0  0
  -31.4597  -12.4780   19.1066 H   0  0  0  0  0  0
  -30.3607  -11.3842   19.8837 H   0  0  0  0  0  0
  -29.7637  -11.7303   17.4647 H   0  0  0  0  0  0
  -29.6137  -13.4500   17.7295 H   0  0  0  0  0  0
  -27.8802  -11.2308   18.8774 H   0  0  0  0  0  0
  -27.3563  -12.4929   17.7915 H   0  0  0  0  0  0
  -27.6294  -14.1547   19.4192 H   0  0  0  0  0  0
  -28.7430  -12.0124   21.3410 H   0  0  0  0  0  0
  -28.4651  -13.6270   21.8638 H   0  0  0  0  0  0
  -25.2722   -9.5673   22.4782 H   0  0  0  0  0  0
  -23.9974   -7.4602   22.7486 H   0  0  0  0  0  0
  -21.0803   -8.8751   19.8957 H   0  0  0  0  0  0
  -22.3651  -10.9662   19.6181 H   0  0  0  0  0  0
  -21.1958   -7.6121   23.9705 H   0  0  0  0  0  0
  -21.1475   -6.0504   25.9074 H   0  0  0  0  0  0
  -22.0608   -2.7601   23.2857 H   0  0  0  0  0  0
  -22.4052  -11.9910   22.4822 H   0  0  0  0  0  0
  -21.1084  -13.1304   22.2635 H   0  0  0  0  0  0
  -24.6507  -15.8192   20.4875 H   0  0  0  0  0  0
  -26.2615  -15.6088   20.0269 H   0  0  0  0  0  0
  -26.7112  -32.5544   23.1165 H   0  0  0  0  0  0
  -25.0068  -33.9757   25.0489 H   0  0  0  0  0  0
  -22.6915  -31.3042   21.4084 H   0  0  0  0  0  0
  -23.3729  -35.9670   23.3316 H   0  0  0  0  0  0
  -24.3572  -36.8907   22.2046 H   0  0  0  0  0  0
  -23.7252  -37.6536   23.6632 H   0  0  0  0  0  0
  -26.0305  -31.5885   20.5878 H   0  0  0  0  0  0
  -26.8202  -30.8978   21.9770 H   0  0  0  0  0  0
  -28.1091  -29.1200   21.1661 H   0  0  0  0  0  0
  -26.1124  -25.9786   18.9999 H   0  0  0  0  0  0
  -24.0033  -27.2808   19.0277 H   0  0  0  0  0  0
  -23.7236  -30.5826   19.4027 H   0  0  0  0  0  0
  -22.7403  -29.2290   19.8748 H   0  0  0  0  0  0
  -25.1277  -36.1982   25.0837 H   0  0  0  0  0  0
  -20.9911  -28.3243   24.1472 H   0  0  0  0  0  0
  -20.5601  -26.2279   23.3634 H   0  0  0  0  0  0
  -21.6627  -26.7418   22.1272 H   0  0  0  0  0  0
  -19.6905  -25.6320   21.1222 H   0  0  0  0  0  0
  -19.6692  -27.3229   20.6759 H   0  0  0  0  0  0
  -17.4185  -26.6663   21.4033 H   0  0  0  0  0  0
  -18.0332  -26.0062   22.9023 H   0  0  0  0  0  0
  -19.7906  -30.7257   24.2309 H   0  0  0  0  0  0
  -17.4993  -31.6255   24.5188 H   0  0  0  0  0  0
  -15.5332  -30.2989   23.7651 H   0  0  0  0  0  0
  -15.8661  -28.0833   22.7047 H   0  0  0  0  0  0
  -24.5934  -30.7003   25.7796 H   0  0  0  0  0  0
  -24.8925  -32.2792   26.4946 H   0  0  0  0  0  0
  -25.8115  -30.8805   27.0198 H   0  0  0  0  0  0
  -26.2830  -29.6777   24.1161 H   0  0  0  0  0  0
  -27.4131  -29.7282   25.4498 H   0  0  0  0  0  0
  -27.8639  -30.4347   23.9157 H   0  0  0  0  0  0
  -27.2692  -33.3583   26.2070 H   0  0  0  0  0  0
  -28.3841  -32.6867   25.0263 H   0  0  0  0  0  0
  -28.0753  -31.8390   26.5335 H   0  0  0  0  0  0
  -28.2621  -38.0094   24.7496 H   0  0  0  0  0  0
  -28.1056  -36.2622   24.6318 H   0  0  0  0  0  0
  -27.2298  -37.1503   25.8873 H   0  0  0  0  0  0
  -20.9299  -29.8754   21.6950 H   0  0  0  0  0  0
  -26.0182  -38.2883   24.1394 H   0  0  0  0  0  0
  -27.5199  -19.9154   21.5439 H   0  0  0  0  0  0
  -31.4761  -21.6130   21.4620 H   0  0  0  0  0  0
  -27.2512  -17.5662   21.3648 H   0  0  0  0  0  0
  -28.2468  -16.9400   22.6612 H   0  0  0  0  0  0
  -31.5289  -16.6033   22.3984 H   0  0  0  0  0  0
  -31.9275  -16.9089   20.7307 H   0  0  0  0  0  0
  -28.0804  -15.4300   20.9294 H   0  0  0  0  0  0
  -33.3755  -20.2376   21.8213 H   0  0  0  0  0  0
  -33.2451  -19.1004   20.4783 H   0  0  0  0  0  0
  -33.2283  -18.5205   22.1510 H   0  0  0  0  0  0
  -29.3309  -17.4324   18.9748 H   0  0  0  0  0  0
  -27.6577  -16.9006   18.9664 H   0  0  0  0  0  0
  -28.9456  -15.7806   18.5414 H   0  0  0  0  0  0
  -28.2953  -24.2648   19.7699 H   0  0  0  0  0  0
  -27.4529  -24.3224   21.2895 H   0  0  0  0  0  0
  -29.9609  -25.9806   21.0424 H   0  0  0  0  0  0
  -28.5364  -26.3031   22.0068 H   0  0  0  0  0  0
  -29.7480  -23.6399   22.3876 H   0  0  0  0  0  0
  -30.3029  -23.3644   20.7311 H   0  0  0  0  0  0
  1 25  1  0  0  0
  1 30  2  0  0  0
  1 85  1  0  0  0
  2  3  1  0  0  0
  2 25  1  0  0  0
  2 87  1  0  0  0
  2 88  1  0  0  0
  3  4  1  0  0  0
  3 89  1  0  0  0
  3 90  1  0  0  0
  4  5  1  0  0  0
  4 91  1  0  0  0
  4 92  1  0  0  0
  5  6  1  0  0  0
  5 26  1  0  0  0
  5 93  1  0  0  0
  6 25  1  0  0  0
  6 94  1  0  0  0
  6 95  1  0  0  0
  7  8  2  0  0  0
  7 26  1  0  0  0
  7 29  1  0  0  0
  8  9  1  0  0  0
  8 22  1  0  0  0
  9 10  1  0  0  0
  9 27  2  0  0  0
 10 11  2  0  0  0
 10 15  1  0  0  0
 11 12  1  0  0  0
 11 96  1  0  0  0
 12 13  2  0  0  0
 12 97  1  0  0  0
 13 14  1  0  0  0
 13 31  1  0  0  0
 14 15  2  0  0  0
 14 98  1  0  0  0
 15 99  1  0  0  0
 16 17  2  0  0  0
 16 21  1  0  0  0
 16 31  1  0  0  0
 17 18  1  0  0  0
 17100  1  0  0  0
 18 19  2  0  0  0
 18101  1  0  0  0
 19 20  1  0  0  0
 19 24  1  0  0  0
 20 21  2  0  0  0
 20102  1  0  0  0
 21 23  1  0  0  0
 22 28  1  0  0  0
 22 32  2  0  0  0
 26 27  1  0  0  0
 28103  1  0  0  0
 28104  1  0  0  0
 29105  1  0  0  0
 29106  1  0  0  0
 33 34  1  0  0  0
 33 66  1  0  0  0
 33 70  2  0  0  0
 34 36  1  0  0  0
 34 59  1  0  0  0
 34107  1  0  0  0
 35 44  2  0  0  0
 35 45  1  0  0  0
 35 68  1  0  0  0
 36 56  1  0  0  0
 36108  1  0  0  0
 37 39  1  0  0  0
 37 47  1  0  0  0
 37 66  1  0  0  0
 37109  1  0  0  0
 38 43  2  0  0  0
 38 46  1  0  0  0
 38 47  1  0  0  0
 39 64  1  0  0  0
 39 67  2  0  0  0
 40 52  1  0  0  0
 40 53  2  0  0  0
 40 58  1  0  0  0
 41110  1  0  0  0
 41111  1  0  0  0
 41112  1  0  0  0
 41 48  1  0  0  0
 42 43  1  0  0  0
 42 66  1  0  0  0
 42113  1  0  0  0
 42114  1  0  0  0
 43 44  1  0  0  0
 44115  1  0  0  0
 45 46  2  0  0  0
 45116  1  0  0  0
 46117  1  0  0  0
 47118  1  0  0  0
 47119  1  0  0  0
 48 56  1  0  0  0
 48 65  1  0  0  0
 48120  1  0  0  0
 49 50  1  0  0  0
 49 53  1  0  0  0
 49 64  1  0  0  0
 49121  1  0  0  0
 50 51  1  0  0  0
 50122  1  0  0  0
 50123  1  0  0  0
 51 52  1  0  0  0
 51124  1  0  0  0
 51125  1  0  0  0
 52126  1  0  0  0
 52127  1  0  0  0
 53 54  1  0  0  0
 54 55  2  0  0  0
 54128  1  0  0  0
 55 57  1  0  0  0
 55129  1  0  0  0
 56 69  2  0  0  0
 57 58  2  0  0  0
 57130  1  0  0  0
 58131  1  0  0  0
 59 60  1  0  0  0
 59 61  1  0  0  0
 59 62  1  0  0  0
 60132  1  0  0  0
 60133  1  0  0  0
 60134  1  0  0  0
 61135  1  0  0  0
 61136  1  0  0  0
 61137  1  0  0  0
 62138  1  0  0  0
 62139  1  0  0  0
 62140  1  0  0  0
 63 65  1  0  0  0
 63141  1  0  0  0
 63142  1  0  0  0
 63143  1  0  0  0
 64144  1  0  0  0
 65145  1  0  0  0
 68 83  1  0  0  0
 71 73  2  0  0  0
 71 76  1  0  0  0
 71146  1  0  0  0
 72 75  1  0  0  0
 72 76  2  0  0  0
 72147  1  0  0  0
 73 74  1  0  0  0
 73 77  1  0  0  0
 74 75  2  0  0  0
 74 78  1  0  0  0
 75 80  1  0  0  0
 76 86  1  0  0  0
 77 79  1  0  0  0
 77148  1  0  0  0
 77149  1  0  0  0
 78 85  1  0  0  0
 78150  1  0  0  0
 78151  1  0  0  0
 79 81  1  0  0  0
 79 85  1  0  0  0
 79152  1  0  0  0
 80153  1  0  0  0
 80154  1  0  0  0
 80155  1  0  0  0
 81156  1  0  0  0
 81157  1  0  0  0
 81158  1  0  0  0
 82 83  1  0  0  0
 82 84  1  0  0  0
 82159  1  0  0  0
 82160  1  0  0  0
 83161  1  0  0  0
 83162  1  0  0  0
 84 86  1  0  0  0
 84163  1  0  0  0
 84164  1  0  0  0
M  ISO  4   1 100  68 101  83 101  85 100
M  END
> <chiral flag>
0

> <version>
0

> <s_m_source_file>
/data/baiqing/PycharmProjects/Reinvent-master-3.2/result/LINK_invent/BTK/process_docking_weight1_custom_sum_contain_oxygen_bond_distance_aromatic_linkinvent_7_9_3/rearranged_h_0144.sdf

> <i_m_source_file_index>
37

> <r_mmod_Potential_Energy-OPLS-2005>
196.938537597656

> <r_mmod_Stretch_Energy-OPLS-2005>
51.0179481506348

> <r_mmod_Bend_Energy-OPLS-2005>
144.277496337891

> <r_mmod_Torsional_Energy-OPLS-2005>
311.578308105469

> <r_mmod_Improper_Torsional_Energy-OPLS-2005>
3.9988694190979

> <r_mmod_Van_der_Waal_Energy-OPLS-2005>
169.390808105469

> <r_mmod_Electrostatic_Energy-OPLS-2005>
-311.414703369141

> <r_mmod_Solvation_Energy-OPLS-2005>
-197.8671875

> <b_mmod_Minimization_Converged-OPLS-2005>
0

> <r_mmod_RMS_Derivative-OPLS-2005>
2.19269442558289

$$$$
37
                    3D
 Structure written by MMmdl.
169177  0  0  1  0            999 V2000
  -31.1482  -13.9077   20.9052 C   0  0  0  0  0  0
  -30.5605  -12.2559   19.1971 C   0  0  0  0  0  0
  -29.6090  -12.4555   18.0148 C   0  0  0  0  0  0
  -28.1488  -12.5112   18.4354 C   0  0  0  0  0  0
  -28.0310  -13.5085   19.6031 C   0  0  2  0  0  0
  -28.9041  -13.3100   20.7942 C   0  0  0  0  0  0
  -25.9689  -14.4259   20.4942 C   0  0  0  0  0  0
  -24.2532  -13.7753   21.0324 C   0  0  0  0  0  0
  -24.1143  -12.4362   21.0759 C   0  0  0  0  0  0
  -23.6886  -10.8796   21.1290 C   0  0  0  0  0  0
  -24.1837   -9.8409   22.0088 C   0  0  0  0  0  0
  -23.6237   -8.5179   22.1014 C   0  0  0  0  0  0
  -22.4804   -8.1668   21.3434 C   0  0  0  0  0  0
  -22.0300   -9.1335   20.4227 C   0  0  0  0  0  0
  -22.6254  -10.4214   20.3064 C   0  0  0  0  0  0
  -21.7547   -6.1290   22.5117 C   0  0  0  0  0  0
  -21.4517   -6.6035   23.8084 C   0  0  0  0  0  0
  -21.3799   -5.7099   24.9003 C   0  0  0  0  0  0
  -21.5974   -4.3335   24.7055 C   0  0  0  0  0  0
  -21.8716   -3.8471   23.4159 C   0  0  0  0  0  0
  -21.9400   -4.7374   22.3260 C   0  0  0  0  0  0
  -22.6856  -14.1457   21.3075 C   0  0  0  0  0  0
  -22.1768   -4.2444   21.0875 F   0  0  0  0  0  0
  -21.5495   -3.4762   25.7544 F   0  0  0  0  0  0
  -30.2486  -13.1162   20.3443 N   0  0  0  0  0  0
  -26.6882  -13.9196   20.1459 N   0  0  0  0  0  0
  -24.9984  -13.6096   20.8053 N   0  0  0  0  0  0
  -21.9705  -13.3508   22.1406 N   0  0  0  0  0  0
  -26.8701  -15.5686   20.2463 N   0  0  0  0  0  0
  -31.8431  -14.7090   20.2744 O   0  0  0  0  0  0
  -21.7884   -6.9580   21.4031 O   0  0  0  0  0  0
  -22.0979  -14.9815   20.6508 O   0  0  0  0  0  0
  -24.7279  -31.7411   23.1237 C   0  0  0  0  0  0
  -25.9694  -32.4121   23.7889 C   0  0  1  0  0  0
  -26.4672  -25.9301   20.3983 C   0  0  0  0  0  0
  -25.6080  -33.8011   24.1672 N   0  0  0  0  0  0
  -23.5347  -30.3701   21.4978 C   0  0  2  0  0  0
  -24.8634  -28.6029   20.0896 C   0  0  0  0  0  0
  -22.7812  -29.4056   22.4563 C   0  0  0  0  0  0
  -18.0315  -28.1438   22.8423 C   0  0  0  0  0  0
  -24.1478  -36.7022   23.2661 C   0  0  0  0  0  0
  -26.1077  -30.1831   21.5075 C   0  0  0  0  0  0
  -26.0137  -28.6923   20.8648 C   0  0  0  0  0  0
  -26.8204  -27.3793   20.9852 C   0  0  0  0  0  0
  -25.5202  -26.2731   19.4144 C   0  0  0  0  0  0
  -24.7230  -27.4504   19.3100 C   0  0  0  0  0  0
  -23.7829  -29.7004   20.1128 C   0  0  0  0  0  0
  -25.4158  -36.2719   24.0234 C   0  0  1  0  0  0
  -20.5953  -28.3770   23.1076 C   0  0  2  0  0  0
  -20.6760  -26.9398   22.5398 C   0  0  0  0  0  0
  -19.5748  -26.6333   21.5217 C   0  0  0  0  0  0
  -18.1939  -26.7957   22.1608 C   0  0  0  0  0  0
  -19.1591  -28.8945   23.2713 C   0  0  0  0  0  0
  -18.9497  -30.1526   23.8767 C   0  0  0  0  0  0
  -17.6484  -30.6609   24.0545 C   0  0  0  0  0  0
  -25.9206  -34.9120   23.4838 C   0  0  0  0  0  0
  -16.5368  -29.9080   23.6376 C   0  0  0  0  0  0
  -16.7290  -28.6511   23.0371 C   0  0  0  0  0  0
  -26.4692  -31.6463   25.0782 C   0  0  0  0  0  0
  -25.3549  -31.3965   26.1247 C   0  0  0  0  0  0
  -27.0730  -30.2741   24.7177 C   0  0  0  0  0  0
  -27.6057  -32.4498   25.7537 C   0  0  0  0  0  0
  -27.5548  -37.1677   24.8479 C   0  0  0  0  0  0
  -21.4446  -29.2934   22.3334 N   0  0  0  0  0  0
  -26.4245  -37.3539   23.9416 N   0  0  0  0  0  0
  -24.8316  -30.8262   22.0847 N   0  0  0  0  0  0
  -23.4122  -28.7628   23.2996 O   0  0  0  0  0  0
  -26.7659  -24.2561   20.5623 O   0  0  0  0  0  0
  -26.5896  -34.8804   22.4495 O   0  0  0  0  0  0
  -23.6246  -32.0849   23.5897 O   0  0  0  0  0  0
  -26.3948  -13.1344   22.4325 C   0  0  0  0  0  0
  -24.4763  -14.9518   18.9465 C   0  0  0  0  0  0
  -26.2993  -11.8085   20.6152 C   0  0  0  0  0  0
  -25.5487  -15.1808   22.5249 C   0  0  0  0  0  0
  -25.2295  -12.8198   18.7830 C   0  0  0  0  0  0
  -24.6899  -16.2636   20.7882 C   0  0  0  0  0  0
  -25.7543  -15.9603   23.8030 C   0  0  0  0  0  0
  -24.9807  -12.0580   17.4955 C   0  0  0  0  0  0
  -26.9822  -10.3938   20.6493 C   0  0  0  0  0  0
  -30.4934  -10.9809   22.4272 C   0  0  0  0  0  0
  -30.7075  -12.4489   22.9992 C   0  0  0  0  0  0
  -29.0192  -10.4018   22.2656 C   0  0  0  0  0  0
  -25.8715  -22.3429   20.5478 C   0  0  0  0  0  0
  -25.7404  -19.9977   20.7786 C   0  0  0  0  0  0
  -31.4110  -13.4788   22.1629 N   0  0  0  0  0  0
  -28.4754  -10.3338   20.8581 N   0  3  0  0  0  0
  -24.8445  -18.1056   20.6046 O   0  0  0  0  0  0
  -31.5791  -12.4577   18.8542 H   0  0  0  0  0  0
  -30.5804  -11.2061   19.4809 H   0  0  0  0  0  0
  -29.7552  -11.6604   17.2824 H   0  0  0  0  0  0
  -29.8816  -13.3783   17.4943 H   0  0  0  0  0  0
  -27.7873  -11.5075   18.5934 H   0  0  0  0  0  0
  -27.5911  -12.8941   17.5815 H   0  0  0  0  0  0
  -28.4724  -14.3717   19.0920 H   0  0  0  0  0  0
  -28.5725  -12.5960   21.4967 H   0  0  0  0  0  0
  -28.8375  -14.2236   21.3961 H   0  0  0  0  0  0
  -24.9647  -10.1015   22.7071 H   0  0  0  0  0  0
  -24.0331   -7.8163   22.8141 H   0  0  0  0  0  0
  -21.1822   -8.8900   19.7978 H   0  0  0  0  0  0
  -22.1902  -11.1163   19.6028 H   0  0  0  0  0  0
  -21.2749   -7.6575   23.9663 H   0  0  0  0  0  0
  -21.1631   -6.0872   25.8909 H   0  0  0  0  0  0
  -22.0265   -2.7904   23.2588 H   0  0  0  0  0  0
  -22.4148  -12.6171   22.6695 H   0  0  0  0  0  0
  -20.9797  -13.5130   22.2637 H   0  0  0  0  0  0
  -26.5430  -16.5053   20.4369 H   0  0  0  0  0  0
  -27.8334  -15.5276   19.9564 H   0  0  0  0  0  0
  -26.7829  -32.4355   23.0614 H   0  0  0  0  0  0
  -24.9985  -33.8967   24.9667 H   0  0  0  0  0  0
  -22.8850  -31.2303   21.3237 H   0  0  0  0  0  0
  -23.3787  -35.9298   23.3190 H   0  0  0  0  0  0
  -24.3528  -36.8857   22.2107 H   0  0  0  0  0  0
  -23.7183  -37.6123   23.6867 H   0  0  0  0  0  0
  -26.4384  -30.8409   20.7044 H   0  0  0  0  0  0
  -26.9387  -30.1941   22.1951 H   0  0  0  0  0  0
  -27.6297  -27.4114   21.6988 H   0  0  0  0  0  0
  -25.1943  -25.4528   18.7925 H   0  0  0  0  0  0
  -23.8948  -27.4086   18.6175 H   0  0  0  0  0  0
  -24.0787  -30.4613   19.3901 H   0  0  0  0  0  0
  -22.8473  -29.2857   19.7374 H   0  0  0  0  0  0
  -25.1367  -36.1401   25.0710 H   0  0  0  0  0  0
  -21.0024  -28.3467   24.1213 H   0  0  0  0  0  0
  -20.5659  -26.2388   23.3687 H   0  0  0  0  0  0
  -21.6608  -26.7330   22.1194 H   0  0  0  0  0  0
  -19.6894  -25.6223   21.1312 H   0  0  0  0  0  0
  -19.6736  -27.3094   20.6725 H   0  0  0  0  0  0
  -17.4207  -26.6673   21.4021 H   0  0  0  0  0  0
  -18.0305  -26.0153   22.9049 H   0  0  0  0  0  0
  -19.7970  -30.7370   24.2093 H   0  0  0  0  0  0
  -17.5032  -31.6295   24.5137 H   0  0  0  0  0  0
  -15.5366  -30.2937   23.7800 H   0  0  0  0  0  0
  -15.8680  -28.0815   22.7142 H   0  0  0  0  0  0
  -24.5680  -30.7455   25.7425 H   0  0  0  0  0  0
  -24.8807  -32.3255   26.4419 H   0  0  0  0  0  0
  -25.7451  -30.9161   27.0218 H   0  0  0  0  0  0
  -26.3451  -29.6018   24.2620 H   0  0  0  0  0  0
  -27.4299  -29.7634   25.6136 H   0  0  0  0  0  0
  -27.9420  -30.3739   24.0658 H   0  0  0  0  0  0
  -27.2584  -33.3975   26.1649 H   0  0  0  0  0  0
  -28.4009  -32.6786   25.0434 H   0  0  0  0  0  0
  -28.0576  -31.8980   26.5782 H   0  0  0  0  0  0
  -28.2486  -38.0045   24.7546 H   0  0  0  0  0  0
  -28.1123  -36.2570   24.6261 H   0  0  0  0  0  0
  -27.2289  -37.1235   25.8886 H   0  0  0  0  0  0
  -20.9805  -29.8617   21.6388 H   0  0  0  0  0  0
  -26.0025  -38.2566   24.1408 H   0  0  0  0  0  0
  -26.8546  -12.7401   23.3258 H   0  0  0  0  0  0
  -24.0975  -15.4290   18.0557 H   0  0  0  0  0  0
  -25.4470  -15.3590   24.6598 H   0  0  0  0  0  0
  -25.1591  -16.8723   23.7849 H   0  0  0  0  0  0
  -26.8027  -16.2307   23.9287 H   0  0  0  0  0  0
  -25.3431  -12.6252   16.6364 H   0  0  0  0  0  0
  -23.9091  -11.8988   17.3685 H   0  0  0  0  0  0
  -25.4555  -11.0793   17.5150 H   0  0  0  0  0  0
  -26.7493   -9.9143   19.6998 H   0  0  0  0  0  0
  -26.5671   -9.7402   21.4039 H   0  0  0  0  0  0
  -30.9483  -10.3359   23.1798 H   0  0  0  0  0  0
  -31.1171  -10.7839   21.5567 H   0  0  0  0  0  0
  -31.3356  -12.3524   23.8853 H   0  0  0  0  0  0
  -29.7754  -12.8581   23.3931 H   0  0  0  0  0  0
  -28.3369  -10.9407   22.9233 H   0  0  0  0  0  0
  -28.9999   -9.3799   22.6450 H   0  0  0  0  0  0
  -25.0892  -22.5807   21.2715 H   0  0  0  0  0  0
  -25.3560  -22.4436   19.5921 H   0  0  0  0  0  0
  -26.0151  -19.9172   21.8313 H   0  0  0  0  0  0
  -26.6571  -19.7384   20.2487 H   0  0  0  0  0  0
  -32.1301  -14.0023   22.6413 H   0  0  0  0  0  0
  -28.8979  -11.0673   20.3068 H   0  0  0  0  0  0
  -28.7848   -9.4536   20.4716 H   0  0  0  0  0  0
  1 25  1  0  0  0
  1 30  2  0  0  0
  1 85  1  0  0  0
  2  3  1  0  0  0
  2 25  1  0  0  0
  2 88  1  0  0  0
  2 89  1  0  0  0
  3  4  1  0  0  0
  3 90  1  0  0  0
  3 91  1  0  0  0
  4  5  1  0  0  0
  4 92  1  0  0  0
  4 93  1  0  0  0
  5  6  1  0  0  0
  5 26  1  0  0  0
  5 94  1  0  0  0
  6 25  1  0  0  0
  6 95  1  0  0  0
  6 96  1  0  0  0
  7  8  2  0  0  0
  7 26  1  0  0  0
  7 29  1  0  0  0
  8  9  1  0  0  0
  8 22  1  0  0  0
  9 10  1  0  0  0
  9 27  2  0  0  0
 10 11  2  0  0  0
 10 15  1  0  0  0
 11 12  1  0  0  0
 11 97  1  0  0  0
 12 13  2  0  0  0
 12 98  1  0  0  0
 13 14  1  0  0  0
 13 31  1  0  0  0
 14 15  2  0  0  0
 14 99  1  0  0  0
 15100  1  0  0  0
 16 17  2  0  0  0
 16 21  1  0  0  0
 16 31  1  0  0  0
 17 18  1  0  0  0
 17101  1  0  0  0
 18 19  2  0  0  0
 18102  1  0  0  0
 19 20  1  0  0  0
 19 24  1  0  0  0
 20 21  2  0  0  0
 20103  1  0  0  0
 21 23  1  0  0  0
 22 28  1  0  0  0
 22 32  2  0  0  0
 26 27  1  0  0  0
 28104  1  0  0  0
 28105  1  0  0  0
 29106  1  0  0  0
 29107  1  0  0  0
 33 34  1  0  0  0
 33 66  1  0  0  0
 33 70  2  0  0  0
 34 36  1  0  0  0
 34 59  1  0  0  0
 34108  1  0  0  0
 35 44  2  0  0  0
 35 45  1  0  0  0
 35 68  1  0  0  0
 36 56  1  0  0  0
 36109  1  0  0  0
 37 39  1  0  0  0
 37 47  1  0  0  0
 37 66  1  0  0  0
 37110  1  0  0  0
 38 43  2  0  0  0
 38 46  1  0  0  0
 38 47  1  0  0  0
 39 64  1  0  0  0
 39 67  2  0  0  0
 40 52  1  0  0  0
 40 53  2  0  0  0
 40 58  1  0  0  0
 41111  1  0  0  0
 41112  1  0  0  0
 41113  1  0  0  0
 41 48  1  0  0  0
 42 43  1  0  0  0
 42 66  1  0  0  0
 42114  1  0  0  0
 42115  1  0  0  0
 43 44  1  0  0  0
 44116  1  0  0  0
 45 46  2  0  0  0
 45117  1  0  0  0
 46118  1  0  0  0
 47119  1  0  0  0
 47120  1  0  0  0
 48 56  1  0  0  0
 48 65  1  0  0  0
 48121  1  0  0  0
 49 50  1  0  0  0
 49 53  1  0  0  0
 49 64  1  0  0  0
 49122  1  0  0  0
 50 51  1  0  0  0
 50123  1  0  0  0
 50124  1  0  0  0
 51 52  1  0  0  0
 51125  1  0  0  0
 51126  1  0  0  0
 52127  1  0  0  0
 52128  1  0  0  0
 53 54  1  0  0  0
 54 55  2  0  0  0
 54129  1  0  0  0
 55 57  1  0  0  0
 55130  1  0  0  0
 56 69  2  0  0  0
 57 58  2  0  0  0
 57131  1  0  0  0
 58132  1  0  0  0
 59 60  1  0  0  0
 59 61  1  0  0  0
 59 62  1  0  0  0
 60133  1  0  0  0
 60134  1  0  0  0
 60135  1  0  0  0
 61136  1  0  0  0
 61137  1  0  0  0
 61138  1  0  0  0
 62139  1  0  0  0
 62140  1  0  0  0
 62141  1  0  0  0
 63 65  1  0  0  0
 63142  1  0  0  0
 63143  1  0  0  0
 63144  1  0  0  0
 64145  1  0  0  0
 65146  1  0  0  0
 68 83  1  0  0  0
 71 73  2  0  0  0
 71 74  1  0  0  0
 71147  1  0  0  0
 72 75  2  0  0  0
 72 76  1  0  0  0
 72148  1  0  0  0
 73 75  1  0  0  0
 73 79  1  0  0  0
 74 76  2  0  0  0
 74 77  1  0  0  0
 75 78  1  0  0  0
 76 87  1  0  0  0
 77149  1  0  0  0
 77150  1  0  0  0
 77151  1  0  0  0
 78152  1  0  0  0
 78153  1  0  0  0
 78154  1  0  0  0
 79 86  1  0  0  0
 79155  1  0  0  0
 79156  1  0  0  0
 80 81  1  0  0  0
 80 82  1  0  0  0
 80157  1  0  0  0
 80158  1  0  0  0
 81 85  1  0  0  0
 81159  1  0  0  0
 81160  1  0  0  0
 82 86  1  0  0  0
 82161  1  0  0  0
 82162  1  0  0  0
 83 84  1  0  0  0
 83163  1  0  0  0
 83164  1  0  0  0
 84 87  1  0  0  0
 84165  1  0  0  0
 84166  1  0  0  0
 85167  1  0  0  0
 86168  1  0  0  0
 86169  1  0  0  0
M  CHG  1  86   1
M  ISO  4   1 100  68 101  83 101  85 100
M  END
> <chiral flag>
0

> <version>
0

> <s_m_source_file>
/data/baiqing/PycharmProjects/Reinvent-master-3.2/result/LINK_invent/BTK/process_docking_weight1_custom_sum_contain_oxygen_bond_distance_aromatic_linkinvent_7_9_3/rearranged_h_0144.sdf

> <i_m_source_file_index>
38

> <r_mmod_Potential_Energy-OPLS-2005>
23040.42578125

> <r_mmod_Stretch_Energy-OPLS-2005>
13338.771484375

> <r_mmod_Bend_Energy-OPLS-2005>
2803.5185546875

> <r_mmod_Torsional_Energy-OPLS-2005>
406.078521728516

> <r_mmod_Improper_Torsional_Energy-OPLS-2005>
21.6275997161865

> <r_mmod_Van_der_Waal_Energy-OPLS-2005>
4146.8544921875

> <r_mmod_Electrostatic_Energy-OPLS-2005>
-234.733596801758

> <r_mmod_Solvation_Energy-OPLS-2005>
-491.781951904297

> <b_mmod_Minimization_Converged-OPLS-2005>
0

> <r_mmod_RMS_Derivative-OPLS-2005>
8.74287891387939

$$$$
38
                    3D
 Structure written by MMmdl.
167176  0  0  1  0            999 V2000
  -30.6387  -14.6105   20.4837 C   0  0  0  0  0  0
  -30.4297  -12.3681   19.4525 C   0  0  0  0  0  0
  -29.5032  -12.4888   18.2224 C   0  0  0  0  0  0
  -28.0268  -12.3324   18.6370 C   0  0  0  0  0  0
  -27.6519  -13.2124   19.8593 C   0  0  2  0  0  0
  -28.6954  -13.0762   20.9909 C   0  0  0  0  0  0
  -25.2563  -13.8164   20.5669 C   0  0  0  0  0  0
  -24.1829  -13.0437   20.9193 C   0  0  0  0  0  0
  -24.6388  -11.6907   20.8747 C   0  0  0  0  0  0
  -23.9060  -10.4291   21.0409 C   0  0  0  0  0  0
  -24.3611   -9.4205   21.9191 C   0  0  0  0  0  0
  -23.6284   -8.2242   22.0761 C   0  0  0  0  0  0
  -22.4274   -8.0281   21.3547 C   0  0  0  0  0  0
  -21.9911   -9.0252   20.4654 C   0  0  0  0  0  0
  -22.7234  -10.2129   20.3059 C   0  0  0  0  0  0
  -21.6855   -6.0734   22.5283 C   0  0  0  0  0  0
  -21.4009   -6.5638   23.8212 C   0  0  0  0  0  0
  -21.3654   -5.6794   24.9178 C   0  0  0  0  0  0
  -21.6048   -4.3057   24.7229 C   0  0  0  0  0  0
  -21.8817   -3.8149   23.4349 C   0  0  0  0  0  0
  -21.9189   -4.6964   22.3407 C   0  0  0  0  0  0
  -22.7859  -13.5240   21.1859 C   0  0  0  0  0  0
  -22.1664   -4.2149   21.0985 F   0  0  0  0  0  0
  -21.5627   -3.4543   25.7739 F   0  0  0  0  0  0
  -30.0121  -13.3969   20.4229 N   0  0  0  0  0  0
  -26.2982  -12.9335   20.3303 N   0  0  0  0  0  0
  -25.9313  -11.6499   20.5767 N   0  0  0  0  0  0
  -22.0498  -12.8223   22.0403 N   0  0  0  0  0  0
  -25.4287  -15.1882   20.4047 N   0  0  0  0  0  0
  -31.8060  -14.7590   20.1126 O   0  0  0  0  0  0
  -21.6639   -6.8877   21.4243 O   0  0  0  0  0  0
  -22.3544  -14.5549   20.6714 O   0  0  0  0  0  0
  -24.6241  -31.8605   23.2016 C   0  0  0  0  0  0
  -25.9093  -32.4780   23.8336 C   0  0  1  0  0  0
  -27.2315  -27.3416   20.1108 C   0  0  0  0  0  0
  -25.5928  -33.8585   24.2277 N   0  0  0  0  0  0
  -23.4167  -30.4813   21.5433 C   0  0  2  0  0  0
  -24.8643  -28.9341   20.1119 C   0  0  0  0  0  0
  -22.7464  -29.4619   22.4942 C   0  0  0  0  0  0
  -18.0284  -28.1387   22.8468 C   0  0  0  0  0  0
  -24.1486  -36.7283   23.2643 C   0  0  0  0  0  0
  -25.9542  -30.7988   21.3659 C   0  0  0  0  0  0
  -26.0313  -29.4258   20.7107 C   0  0  0  0  0  0
  -27.2200  -28.6418   20.6955 C   0  0  0  0  0  0
  -26.0447  -26.8927   19.4930 C   0  0  0  0  0  0
  -24.8708  -27.6720   19.4953 C   0  0  0  0  0  0
  -23.6302  -29.8114   20.1597 C   0  0  0  0  0  0
  -25.4114  -36.3085   24.0336 C   0  0  1  0  0  0
  -20.5884  -28.3690   23.1293 C   0  0  2  0  0  0
  -20.6770  -26.9422   22.5412 C   0  0  0  0  0  0
  -19.5747  -26.6389   21.5207 C   0  0  0  0  0  0
  -18.1920  -26.7929   22.1609 C   0  0  0  0  0  0
  -19.1539  -28.8853   23.2870 C   0  0  0  0  0  0
  -18.9468  -30.1449   23.8899 C   0  0  0  0  0  0
  -17.6473  -30.6586   24.0564 C   0  0  0  0  0  0
  -25.9054  -34.9459   23.5107 C   0  0  0  0  0  0
  -16.5363  -29.9086   23.6334 C   0  0  0  0  0  0
  -16.7274  -28.6510   23.0342 C   0  0  0  0  0  0
  -26.4488  -31.6590   25.0701 C   0  0  0  0  0  0
  -25.3720  -31.3729   26.1431 C   0  0  0  0  0  0
  -27.0337  -30.3027   24.6124 C   0  0  0  0  0  0
  -27.6048  -32.4330   25.7477 C   0  0  0  0  0  0
  -27.5577  -37.1787   24.8468 C   0  0  0  0  0  0
  -21.4183  -29.3040   22.3688 N   0  0  0  0  0  0
  -26.4290  -37.3779   23.9416 N   0  0  0  0  0  0
  -24.6842  -31.0629   22.0952 N   0  0  0  0  0  0
  -23.4198  -28.8168   23.3021 O   0  0  0  0  0  0
  -28.3725  -26.5350   20.1089 O   0  0  0  0  0  0
  -26.5611  -34.8925   22.4662 O   0  0  0  0  0  0
  -23.5406  -32.1395   23.7352 O   0  0  0  0  0  0
  -27.8597  -20.4150   20.2810 C   0  0  0  0  0  0
  -27.8721  -21.8165   20.0442 C   0  0  0  0  0  0
  -30.2601  -20.3959   20.4048 C   0  0  0  0  0  0
  -29.0494  -19.6646   20.4630 C   0  0  0  0  0  0
  -29.0787  -22.5538   19.9773 C   0  0  0  0  0  0
  -30.2891  -21.8133   20.1588 C   0  0  0  0  0  0
  -29.2819  -25.2522   17.2074 C   0  0  0  0  0  0
  -29.6290  -23.7947   17.0151 C   0  0  0  0  0  0
  -28.6730  -24.2059   18.1134 C   0  0  0  0  0  0
  -33.8507  -22.7942   19.9091 C   0  0  0  0  0  0
  -28.9513  -18.1268   20.7649 C   0  0  0  0  0  0
  -30.1582  -17.1400   20.4979 C   0  0  0  0  0  0
  -32.7011  -21.8068   20.1167 C   0  0  0  0  0  0
  -28.2456  -25.1051   20.4597 C   0  0  0  0  0  0
  -29.0717  -24.0812   19.5777 C   0  0  1  0  0  0
  -29.8480  -15.6910   20.7476 N   0  0  0  0  0  0
  -31.4712  -22.5199   20.0653 O   0  0  0  0  0  0
  -31.4737  -12.4780   19.1535 H   0  0  0  0  0  0
  -30.3487  -11.3759   19.8995 H   0  0  0  0  0  0
  -29.7634  -11.7312   17.4815 H   0  0  0  0  0  0
  -29.6488  -13.4553   17.7365 H   0  0  0  0  0  0
  -27.8662  -11.2812   18.8794 H   0  0  0  0  0  0
  -27.3696  -12.5520   17.7950 H   0  0  0  0  0  0
  -27.6694  -14.2446   19.5089 H   0  0  0  0  0  0
  -28.6988  -12.0616   21.3909 H   0  0  0  0  0  0
  -28.4488  -13.7284   21.8300 H   0  0  0  0  0  0
  -25.2753   -9.5680   22.4772 H   0  0  0  0  0  0
  -23.9996   -7.4630   22.7478 H   0  0  0  0  0  0
  -21.0845   -8.8763   19.8953 H   0  0  0  0  0  0
  -22.3695  -10.9667   19.6165 H   0  0  0  0  0  0
  -21.2000   -7.6144   23.9716 H   0  0  0  0  0  0
  -21.1482   -6.0527   25.9078 H   0  0  0  0  0  0
  -22.0600   -2.7614   23.2854 H   0  0  0  0  0  0
  -22.4107  -11.9857   22.4747 H   0  0  0  0  0  0
  -21.1126  -13.1263   22.2644 H   0  0  0  0  0  0
  -24.6560  -15.8393   20.4924 H   0  0  0  0  0  0
  -26.2686  -15.6193   20.0411 H   0  0  0  0  0  0
  -26.7166  -32.5465   23.1091 H   0  0  0  0  0  0
  -25.0109  -33.9741   25.0444 H   0  0  0  0  0  0
  -22.7100  -31.3007   21.3961 H   0  0  0  0  0  0
  -23.3756  -35.9602   23.3307 H   0  0  0  0  0  0
  -24.3577  -36.8898   22.2052 H   0  0  0  0  0  0
  -23.7224  -37.6481   23.6662 H   0  0  0  0  0  0
  -26.0759  -31.5623   20.5964 H   0  0  0  0  0  0
  -26.8386  -30.8529   21.9895 H   0  0  0  0  0  0
  -28.1213  -29.0180   21.1584 H   0  0  0  0  0  0
  -26.0155  -25.9313   19.0010 H   0  0  0  0  0  0
  -23.9784  -27.2908   19.0195 H   0  0  0  0  0  0
  -23.7464  -30.5846   19.4001 H   0  0  0  0  0  0
  -22.7513  -29.2370   19.8596 H   0  0  0  0  0  0
  -25.1281  -36.1937   25.0824 H   0  0  0  0  0  0
  -20.9964  -28.3255   24.1417 H   0  0  0  0  0  0
  -20.5673  -26.2300   23.3604 H   0  0  0  0  0  0
  -21.6638  -26.7447   22.1208 H   0  0  0  0  0  0
  -19.6928  -25.6300   21.1232 H   0  0  0  0  0  0
  -19.6697  -27.3198   20.6741 H   0  0  0  0  0  0
  -17.4201  -26.6698   21.3997 H   0  0  0  0  0  0
  -18.0313  -26.0058   22.8999 H   0  0  0  0  0  0
  -19.7954  -30.7246   24.2275 H   0  0  0  0  0  0
  -17.5041  -31.6269   24.5161 H   0  0  0  0  0  0
  -15.5367  -30.2991   23.7664 H   0  0  0  0  0  0
  -15.8674  -28.0836   22.7055 H   0  0  0  0  0  0
  -24.5944  -30.7019   25.7769 H   0  0  0  0  0  0
  -24.8854  -32.2885   26.4793 H   0  0  0  0  0  0
  -25.8047  -30.8974   27.0245 H   0  0  0  0  0  0
  -26.2907  -29.6769   24.1167 H   0  0  0  0  0  0
  -27.4083  -29.7287   25.4606 H   0  0  0  0  0  0
  -27.8738  -30.4332   23.9302 H   0  0  0  0  0  0
  -27.2680  -33.3664   26.2000 H   0  0  0  0  0  0
  -28.3884  -32.6835   25.0315 H   0  0  0  0  0  0
  -28.0675  -31.8482   26.5435 H   0  0  0  0  0  0
  -28.2582  -38.0094   24.7522 H   0  0  0  0  0  0
  -28.1085  -36.2622   24.6286 H   0  0  0  0  0  0
  -27.2294  -37.1421   25.8871 H   0  0  0  0  0  0
  -20.9373  -29.8787   21.6911 H   0  0  0  0  0  0
  -26.0172  -38.2850   24.1438 H   0  0  0  0  0  0
  -26.9044  -19.9096   20.3197 H   0  0  0  0  0  0
  -26.9329  -22.3252   19.8820 H   0  0  0  0  0  0
  -31.1738  -19.8376   20.5490 H   0  0  0  0  0  0
  -28.6298  -25.7148   16.4690 H   0  0  0  0  0  0
  -30.0454  -25.9053   17.6259 H   0  0  0  0  0  0
  -30.6267  -23.4691   17.3053 H   0  0  0  0  0  0
  -29.2081  -23.2831   16.1511 H   0  0  0  0  0  0
  -27.6274  -23.9672   17.9285 H   0  0  0  0  0  0
  -34.8117  -22.2817   19.9532 H   0  0  0  0  0  0
  -33.8481  -23.5680   20.6771 H   0  0  0  0  0  0
  -33.7783  -23.2842   18.9380 H   0  0  0  0  0  0
  -28.0943  -17.7532   20.2033 H   0  0  0  0  0  0
  -28.6641  -18.0356   21.8133 H   0  0  0  0  0  0
  -31.0141  -17.4237   21.1119 H   0  0  0  0  0  0
  -30.4781  -17.2426   19.4602 H   0  0  0  0  0  0
  -32.8142  -21.3159   21.0851 H   0  0  0  0  0  0
  -32.7324  -21.0411   19.3382 H   0  0  0  0  0  0
  -28.5919  -25.0153   21.4900 H   0  0  0  0  0  0
  -27.2051  -24.7825   20.4888 H   0  0  0  0  0  0
  -30.1012  -24.4308   19.6460 H   0  0  0  0  0  0
  -28.9026  -15.4747   21.0290 H   0  0  0  0  0  0
  1 25  1  0  0  0
  1 30  2  0  0  0
  1 86  1  0  0  0
  2  3  1  0  0  0
  2 25  1  0  0  0
  2 88  1  0  0  0
  2 89  1  0  0  0
  3  4  1  0  0  0
  3 90  1  0  0  0
  3 91  1  0  0  0
  4  5  1  0  0  0
  4 92  1  0  0  0
  4 93  1  0  0  0
  5  6  1  0  0  0
  5 26  1  0  0  0
  5 94  1  0  0  0
  6 25  1  0  0  0
  6 95  1  0  0  0
  6 96  1  0  0  0
  7  8  2  0  0  0
  7 26  1  0  0  0
  7 29  1  0  0  0
  8  9  1  0  0  0
  8 22  1  0  0  0
  9 10  1  0  0  0
  9 27  2  0  0  0
 10 11  2  0  0  0
 10 15  1  0  0  0
 11 12  1  0  0  0
 11 97  1  0  0  0
 12 13  2  0  0  0
 12 98  1  0  0  0
 13 14  1  0  0  0
 13 31  1  0  0  0
 14 15  2  0  0  0
 14 99  1  0  0  0
 15100  1  0  0  0
 16 17  2  0  0  0
 16 21  1  0  0  0
 16 31  1  0  0  0
 17 18  1  0  0  0
 17101  1  0  0  0
 18 19  2  0  0  0
 18102  1  0  0  0
 19 20  1  0  0  0
 19 24  1  0  0  0
 20 21  2  0  0  0
 20103  1  0  0  0
 21 23  1  0  0  0
 22 28  1  0  0  0
 22 32  2  0  0  0
 26 27  1  0  0  0
 28104  1  0  0  0
 28105  1  0  0  0
 29106  1  0  0  0
 29107  1  0  0  0
 33 34  1  0  0  0
 33 66  1  0  0  0
 33 70  2  0  0  0
 34 36  1  0  0  0
 34 59  1  0  0  0
 34108  1  0  0  0
 35 44  2  0  0  0
 35 45  1  0  0  0
 35 68  1  0  0  0
 36 56  1  0  0  0
 36109  1  0  0  0
 37 39  1  0  0  0
 37 47  1  0  0  0
 37 66  1  0  0  0
 37110  1  0  0  0
 38 43  2  0  0  0
 38 46  1  0  0  0
 38 47  1  0  0  0
 39 64  1  0  0  0
 39 67  2  0  0  0
 40 52  1  0  0  0
 40 53  2  0  0  0
 40 58  1  0  0  0
 41111  1  0  0  0
 41112  1  0  0  0
 41113  1  0  0  0
 41 48  1  0  0  0
 42 43  1  0  0  0
 42 66  1  0  0  0
 42114  1  0  0  0
 42115  1  0  0  0
 43 44  1  0  0  0
 44116  1  0  0  0
 45 46  2  0  0  0
 45117  1  0  0  0
 46118  1  0  0  0
 47119  1  0  0  0
 47120  1  0  0  0
 48 56  1  0  0  0
 48 65  1  0  0  0
 48121  1  0  0  0
 49 50  1  0  0  0
 49 53  1  0  0  0
 49 64  1  0  0  0
 49122  1  0  0  0
 50 51  1  0  0  0
 50123  1  0  0  0
 50124  1  0  0  0
 51 52  1  0  0  0
 51125  1  0  0  0
 51126  1  0  0  0
 52127  1  0  0  0
 52128  1  0  0  0
 53 54  1  0  0  0
 54 55  2  0  0  0
 54129  1  0  0  0
 55 57  1  0  0  0
 55130  1  0  0  0
 56 69  2  0  0  0
 57 58  2  0  0  0
 57131  1  0  0  0
 58132  1  0  0  0
 59 60  1  0  0  0
 59 61  1  0  0  0
 59 62  1  0  0  0
 60133  1  0  0  0
 60134  1  0  0  0
 60135  1  0  0  0
 61136  1  0  0  0
 61137  1  0  0  0
 61138  1  0  0  0
 62139  1  0  0  0
 62140  1  0  0  0
 62141  1  0  0  0
 63 65  1  0  0  0
 63142  1  0  0  0
 63143  1  0  0  0
 63144  1  0  0  0
 64145  1  0  0  0
 65146  1  0  0  0
 68 84  1  0  0  0
 71 72  2  0  0  0
 71 74  1  0  0  0
 71147  1  0  0  0
 72 75  1  0  0  0
 72148  1  0  0  0
 73 74  2  0  0  0
 73 76  1  0  0  0
 73149  1  0  0  0
 74 81  1  0  0  0
 75 76  2  0  0  0
 75 85  1  0  0  0
 76 87  1  0  0  0
 77 78  1  0  0  0
 77150  1  0  0  0
 77151  1  0  0  0
 77 79  1  0  0  0
 78 79  1  0  0  0
 78152  1  0  0  0
 78153  1  0  0  0
 79 85  1  0  0  0
 79154  1  0  0  0
 80 83  1  0  0  0
 80155  1  0  0  0
 80156  1  0  0  0
 80157  1  0  0  0
 81 82  1  0  0  0
 81158  1  0  0  0
 81159  1  0  0  0
 82 86  1  0  0  0
 82160  1  0  0  0
 82161  1  0  0  0
 83 87  1  0  0  0
 83162  1  0  0  0
 83163  1  0  0  0
 84164  1  0  0  0
 84165  1  0  0  0
 84 85  1  0  0  0
 85166  1  0  0  0
 86167  1  0  0  0
M  ISO  4   1 100  68 101  84 101  86 100
M  END
> <chiral flag>
0

> <version>
0

> <s_m_source_file>
/data/baiqing/PycharmProjects/Reinvent-master-3.2/result/LINK_invent/BTK/process_docking_weight1_custom_sum_contain_oxygen_bond_distance_aromatic_linkinvent_7_9_3/rearranged_h_0144.sdf

> <i_m_source_file_index>
39

> <r_mmod_Potential_Energy-OPLS-2005>
60.6509246826172

> <r_mmod_Stretch_Energy-OPLS-2005>
72.6455078125

> <r_mmod_Bend_Energy-OPLS-2005>
128.464492797852

> <r_mmod_Torsional_Energy-OPLS-2005>
255.483093261719

> <r_mmod_Improper_Torsional_Energy-OPLS-2005>
6.08876276016235

> <r_mmod_Van_der_Waal_Energy-OPLS-2005>
137.109024047852

> <r_mmod_Electrostatic_Energy-OPLS-2005>
-368.031097412109

> <r_mmod_Solvation_Energy-OPLS-2005>
-209.699081420898

> <b_mmod_Minimization_Converged-OPLS-2005>
0

> <r_mmod_RMS_Derivative-OPLS-2005>
1.82212519645691

$$$$
39
                    3D
 Structure written by MMmdl.
177186  0  0  1  0            999 V2000
  -30.7215  -14.3845   20.6998 C   0  0  0  0  0  0
  -30.4413  -12.3212   19.3676 C   0  0  0  0  0  0
  -29.4848  -12.5301   18.1757 C   0  0  0  0  0  0
  -28.0052  -12.3828   18.5952 C   0  0  0  0  0  0
  -27.6707  -13.1675   19.8920 C   0  0  2  0  0  0
  -28.7244  -12.8302   20.9735 C   0  0  0  0  0  0
  -25.2585  -13.8005   20.5698 C   0  0  0  0  0  0
  -24.1819  -13.0346   20.9233 C   0  0  0  0  0  0
  -24.6318  -11.6804   20.8765 C   0  0  0  0  0  0
  -23.9000  -10.4197   21.0432 C   0  0  0  0  0  0
  -24.3557   -9.4110   21.9218 C   0  0  0  0  0  0
  -23.6248   -8.2144   22.0759 C   0  0  0  0  0  0
  -22.4244   -8.0205   21.3527 C   0  0  0  0  0  0
  -21.9872   -9.0179   20.4651 C   0  0  0  0  0  0
  -22.7176  -10.2061   20.3077 C   0  0  0  0  0  0
  -21.6813   -6.0692   22.5300 C   0  0  0  0  0  0
  -21.3980   -6.5612   23.8230 C   0  0  0  0  0  0
  -21.3659   -5.6772   24.9215 C   0  0  0  0  0  0
  -21.6057   -4.3033   24.7258 C   0  0  0  0  0  0
  -21.8792   -3.8117   23.4381 C   0  0  0  0  0  0
  -21.9165   -4.6929   22.3434 C   0  0  0  0  0  0
  -22.7836  -13.5198   21.1892 C   0  0  0  0  0  0
  -22.1631   -4.2107   21.1022 F   0  0  0  0  0  0
  -21.5650   -3.4526   25.7771 F   0  0  0  0  0  0
  -30.0424  -13.2291   20.4538 N   0  0  0  0  0  0
  -26.3036  -12.9129   20.3463 N   0  0  0  0  0  0
  -25.9235  -11.6312   20.5790 N   0  0  0  0  0  0
  -22.0390  -12.8248   22.0420 N   0  0  0  0  0  0
  -25.4239  -15.1731   20.4051 N   0  0  0  0  0  0
  -31.7873  -14.6582   20.1404 O   0  0  0  0  0  0
  -21.6589   -6.8822   21.4255 O   0  0  0  0  0  0
  -22.3616  -14.5528   20.6739 O   0  0  0  0  0  0
  -24.6139  -31.8665   23.2132 C   0  0  0  0  0  0
  -25.9063  -32.4808   23.8400 C   0  0  1  0  0  0
  -27.2467  -27.4860   20.0653 C   0  0  0  0  0  0
  -25.5951  -33.8612   24.2359 N   0  0  0  0  0  0
  -23.3966  -30.4954   21.5476 C   0  0  2  0  0  0
  -24.8442  -28.9635   20.1178 C   0  0  0  0  0  0
  -22.7351  -29.4684   22.4944 C   0  0  0  0  0  0
  -18.0271  -28.1302   22.8487 C   0  0  0  0  0  0
  -24.1482  -36.7314   23.2628 C   0  0  0  0  0  0
  -25.9213  -30.8536   21.3516 C   0  0  0  0  0  0
  -25.9998  -29.4906   20.7014 C   0  0  0  0  0  0
  -27.2042  -28.7587   20.6703 C   0  0  0  0  0  0
  -26.0636  -26.9505   19.5057 C   0  0  0  0  0  0
  -24.8656  -27.6891   19.5281 C   0  0  0  0  0  0
  -23.6056  -29.8272   20.1626 C   0  0  0  0  0  0
  -25.4090  -36.3100   24.0341 C   0  0  1  0  0  0
  -20.5862  -28.3620   23.1289 C   0  0  2  0  0  0
  -20.6765  -26.9383   22.5349 C   0  0  0  0  0  0
  -19.5732  -26.6352   21.5181 C   0  0  0  0  0  0
  -18.1919  -26.7864   22.1621 C   0  0  0  0  0  0
  -19.1507  -28.8779   23.2893 C   0  0  0  0  0  0
  -18.9453  -30.1390   23.8904 C   0  0  0  0  0  0
  -17.6457  -30.6557   24.0543 C   0  0  0  0  0  0
  -25.9025  -34.9468   23.5135 C   0  0  0  0  0  0
  -16.5357  -29.9052   23.6302 C   0  0  0  0  0  0
  -16.7267  -28.6457   23.0342 C   0  0  0  0  0  0
  -26.4537  -31.6545   25.0674 C   0  0  0  0  0  0
  -25.3858  -31.3640   26.1460 C   0  0  0  0  0  0
  -27.0375  -30.2994   24.5996 C   0  0  0  0  0  0
  -27.6117  -32.4256   25.7449 C   0  0  0  0  0  0
  -27.5574  -37.1812   24.8463 C   0  0  0  0  0  0
  -21.4085  -29.3045   22.3712 N   0  0  0  0  0  0
  -26.4270  -37.3777   23.9418 N   0  0  0  0  0  0
  -24.6629  -31.0845   22.0982 N   0  0  0  0  0  0
  -23.4150  -28.8225   23.2959 O   0  0  0  0  0  0
  -28.4606  -26.8351   20.0367 O   0  0  0  0  0  0
  -26.5548  -34.8939   22.4678 O   0  0  0  0  0  0
  -23.5359  -32.1398   23.7592 O   0  0  0  0  0  0
  -28.2022  -21.9460   21.4312 C   0  0  0  0  0  0
  -28.2704  -20.6543   21.9789 C   0  0  0  0  0  0
  -25.8326  -22.0384   21.9519 C   0  0  0  0  0  0
  -25.8926  -20.7519   22.5260 C   0  0  0  0  0  0
  -26.9830  -22.6589   21.4490 C   0  0  0  0  0  0
  -27.1300  -20.0638   22.5595 C   0  0  0  0  0  0
  -23.7477  -19.2573   20.7759 C   0  0  0  0  0  0
  -22.6193  -18.9729   21.7380 C   0  0  0  0  0  0
  -23.5494  -20.1368   21.9918 C   0  0  0  0  0  0
  -25.2604  -20.9050   25.4500 C   0  0  0  0  0  0
  -22.8747  -20.2292   24.9729 C   0  0  0  0  0  0
  -28.8730  -17.1749   22.4001 C   0  0  0  0  0  0
  -28.9369  -15.8317   21.6576 C   0  0  0  0  0  0
  -27.4454  -17.7526   22.2936 C   0  0  0  0  0  0
  -28.4726  -25.4146   19.9907 C   0  0  0  0  0  0
  -27.9161  -24.8311   21.2982 C   0  0  0  0  0  0
  -24.6118  -20.1390   23.0890 C   0  0  2  0  0  0
  -24.1464  -20.8617   24.3835 C   0  0  0  0  0  0
  -30.2613  -15.1955   21.6690 N   0  0  0  0  0  0
  -26.8514  -23.9422   20.9945 O   0  0  0  0  0  0
  -27.2326  -18.8437   23.1738 O   0  0  0  0  0  0
  -31.4727  -12.4789   19.0463 H   0  0  0  0  0  0
  -30.4070  -11.2860   19.7097 H   0  0  0  0  0  0
  -29.7174  -11.8233   17.3736 H   0  0  0  0  0  0
  -29.6452  -13.5271   17.7614 H   0  0  0  0  0  0
  -27.8067  -11.3213   18.7478 H   0  0  0  0  0  0
  -27.3550  -12.7011   17.7796 H   0  0  0  0  0  0
  -27.7431  -14.2237   19.6474 H   0  0  0  0  0  0
  -28.7240  -11.7520   21.1451 H   0  0  0  0  0  0
  -28.5041  -13.2163   21.9620 H   0  0  0  0  0  0
  -25.2680   -9.5587   22.4826 H   0  0  0  0  0  0
  -23.9900   -7.4527   22.7486 H   0  0  0  0  0  0
  -21.0789   -8.8727   19.8980 H   0  0  0  0  0  0
  -22.3637  -10.9625   19.6200 H   0  0  0  0  0  0
  -21.1931   -7.6111   23.9739 H   0  0  0  0  0  0
  -21.1551   -6.0516   25.9134 H   0  0  0  0  0  0
  -22.0582   -2.7584   23.2930 H   0  0  0  0  0  0
  -22.3965  -11.9969   22.4941 H   0  0  0  0  0  0
  -21.1007  -13.1351   22.2544 H   0  0  0  0  0  0
  -24.6269  -15.7962   20.4764 H   0  0  0  0  0  0
  -26.2499  -15.6207   20.0344 H   0  0  0  0  0  0
  -26.7145  -32.5549   23.1195 H   0  0  0  0  0  0
  -25.0231  -33.9739   25.0600 H   0  0  0  0  0  0
  -22.6814  -31.3085   21.4110 H   0  0  0  0  0  0
  -23.3722  -35.9661   23.3283 H   0  0  0  0  0  0
  -24.3569  -36.8916   22.2032 H   0  0  0  0  0  0
  -23.7266  -37.6546   23.6636 H   0  0  0  0  0  0
  -26.0204  -31.6248   20.5867 H   0  0  0  0  0  0
  -26.8135  -30.9089   21.9622 H   0  0  0  0  0  0
  -28.1055  -29.1749   21.1045 H   0  0  0  0  0  0
  -26.0422  -25.9789   19.0382 H   0  0  0  0  0  0
  -23.9705  -27.2696   19.0908 H   0  0  0  0  0  0
  -23.7329  -30.6034   19.4067 H   0  0  0  0  0  0
  -22.7287  -29.2542   19.8556 H   0  0  0  0  0  0
  -25.1266  -36.1948   25.0822 H   0  0  0  0  0  0
  -20.9975  -28.3130   24.1399 H   0  0  0  0  0  0
  -20.5601  -26.2292   23.3555 H   0  0  0  0  0  0
  -21.6641  -26.7362   22.1166 H   0  0  0  0  0  0
  -19.6947  -25.6273   21.1207 H   0  0  0  0  0  0
  -19.6637  -27.3145   20.6672 H   0  0  0  0  0  0
  -17.4221  -26.6621   21.4004 H   0  0  0  0  0  0
  -18.0355  -25.9980   22.8976 H   0  0  0  0  0  0
  -19.7957  -30.7178   24.2246 H   0  0  0  0  0  0
  -17.5009  -31.6247   24.5103 H   0  0  0  0  0  0
  -15.5355  -30.2977   23.7518 H   0  0  0  0  0  0
  -15.8671  -28.0771   22.7062 H   0  0  0  0  0  0
  -24.6028  -30.6967   25.7850 H   0  0  0  0  0  0
  -24.9073  -32.2796   26.4931 H   0  0  0  0  0  0
  -25.8259  -30.8835   27.0199 H   0  0  0  0  0  0
  -26.2881  -29.6674   24.1216 H   0  0  0  0  0  0
  -27.4358  -29.7286   25.4391 H   0  0  0  0  0  0
  -27.8618  -30.4300   23.8977 H   0  0  0  0  0  0
  -27.2726  -33.3527   26.2084 H   0  0  0  0  0  0
  -28.3934  -32.6837   25.0292 H   0  0  0  0  0  0
  -28.0810  -31.8348   26.5329 H   0  0  0  0  0  0
  -28.2609  -38.0100   24.7509 H   0  0  0  0  0  0
  -28.1072  -36.2640   24.6300 H   0  0  0  0  0  0
  -27.2311  -37.1478   25.8875 H   0  0  0  0  0  0
  -20.9234  -29.8874   21.7034 H   0  0  0  0  0  0
  -26.0166  -38.2848   24.1450 H   0  0  0  0  0  0
  -29.0958  -22.3739   20.9992 H   0  0  0  0  0  0
  -29.2145  -20.1293   21.9648 H   0  0  0  0  0  0
  -24.8999  -22.5858   21.9254 H   0  0  0  0  0  0
  -23.4976  -19.6828   19.8071 H   0  0  0  0  0  0
  -24.5937  -18.5717   20.7757 H   0  0  0  0  0  0
  -22.7068  -18.1003   22.3788 H   0  0  0  0  0  0
  -21.6106  -19.2063   21.4018 H   0  0  0  0  0  0
  -23.1336  -21.1203   21.7795 H   0  0  0  0  0  0
  -24.9213  -21.4065   26.3573 H   0  0  0  0  0  0
  -26.1335  -21.4592   25.0967 H   0  0  0  0  0  0
  -25.5934  -19.9000   25.7231 H   0  0  0  0  0  0
  -22.5920  -20.7045   25.9126 H   0  0  0  0  0  0
  -23.0119  -19.1626   25.1569 H   0  0  0  0  0  0
  -22.0293  -20.3449   24.2959 H   0  0  0  0  0  0
  -29.6015  -17.8735   21.9880 H   0  0  0  0  0  0
  -29.1266  -17.0378   23.4533 H   0  0  0  0  0  0
  -28.6198  -15.9809   20.6248 H   0  0  0  0  0  0
  -28.1977  -15.1979   22.1415 H   0  0  0  0  0  0
  -26.7125  -16.9941   22.5686 H   0  0  0  0  0  0
  -27.2185  -18.0164   21.2605 H   0  0  0  0  0  0
  -27.9501  -25.0319   19.1154 H   0  0  0  0  0  0
  -29.5020  -25.0852   19.8592 H   0  0  0  0  0  0
  -27.4819  -25.6152   21.9150 H   0  0  0  0  0  0
  -28.7137  -24.4067   21.9117 H   0  0  0  0  0  0
  -24.8083  -19.0956   23.3428 H   0  0  0  0  0  0
  -23.9046  -21.8968   24.1327 H   0  0  0  0  0  0
  -30.9851  -15.8161   22.0038 H   0  0  0  0  0  0
  1 25  1  0  0  0
  1 30  2  0  0  0
  1 89  1  0  0  0
  2  3  1  0  0  0
  2 25  1  0  0  0
  2 92  1  0  0  0
  2 93  1  0  0  0
  3  4  1  0  0  0
  3 94  1  0  0  0
  3 95  1  0  0  0
  4  5  1  0  0  0
  4 96  1  0  0  0
  4 97  1  0  0  0
  5  6  1  0  0  0
  5 26  1  0  0  0
  5 98  1  0  0  0
  6 25  1  0  0  0
  6 99  1  0  0  0
  6100  1  0  0  0
  7  8  2  0  0  0
  7 26  1  0  0  0
  7 29  1  0  0  0
  8  9  1  0  0  0
  8 22  1  0  0  0
  9 10  1  0  0  0
  9 27  2  0  0  0
 10 11  2  0  0  0
 10 15  1  0  0  0
 11 12  1  0  0  0
 11101  1  0  0  0
 12 13  2  0  0  0
 12102  1  0  0  0
 13 14  1  0  0  0
 13 31  1  0  0  0
 14 15  2  0  0  0
 14103  1  0  0  0
 15104  1  0  0  0
 16 17  2  0  0  0
 16 21  1  0  0  0
 16 31  1  0  0  0
 17 18  1  0  0  0
 17105  1  0  0  0
 18 19  2  0  0  0
 18106  1  0  0  0
 19 20  1  0  0  0
 19 24  1  0  0  0
 20 21  2  0  0  0
 20107  1  0  0  0
 21 23  1  0  0  0
 22 28  1  0  0  0
 22 32  2  0  0  0
 26 27  1  0  0  0
 28108  1  0  0  0
 28109  1  0  0  0
 29110  1  0  0  0
 29111  1  0  0  0
 33 34  1  0  0  0
 33 66  1  0  0  0
 33 70  2  0  0  0
 34 36  1  0  0  0
 34 59  1  0  0  0
 34112  1  0  0  0
 35 44  2  0  0  0
 35 45  1  0  0  0
 35 68  1  0  0  0
 36 56  1  0  0  0
 36113  1  0  0  0
 37 39  1  0  0  0
 37 47  1  0  0  0
 37 66  1  0  0  0
 37114  1  0  0  0
 38 43  2  0  0  0
 38 46  1  0  0  0
 38 47  1  0  0  0
 39 64  1  0  0  0
 39 67  2  0  0  0
 40 52  1  0  0  0
 40 53  2  0  0  0
 40 58  1  0  0  0
 41115  1  0  0  0
 41116  1  0  0  0
 41117  1  0  0  0
 41 48  1  0  0  0
 42 43  1  0  0  0
 42 66  1  0  0  0
 42118  1  0  0  0
 42119  1  0  0  0
 43 44  1  0  0  0
 44120  1  0  0  0
 45 46  2  0  0  0
 45121  1  0  0  0
 46122  1  0  0  0
 47123  1  0  0  0
 47124  1  0  0  0
 48 56  1  0  0  0
 48 65  1  0  0  0
 48125  1  0  0  0
 49 50  1  0  0  0
 49 53  1  0  0  0
 49 64  1  0  0  0
 49126  1  0  0  0
 50 51  1  0  0  0
 50127  1  0  0  0
 50128  1  0  0  0
 51 52  1  0  0  0
 51129  1  0  0  0
 51130  1  0  0  0
 52131  1  0  0  0
 52132  1  0  0  0
 53 54  1  0  0  0
 54 55  2  0  0  0
 54133  1  0  0  0
 55 57  1  0  0  0
 55134  1  0  0  0
 56 69  2  0  0  0
 57 58  2  0  0  0
 57135  1  0  0  0
 58136  1  0  0  0
 59 60  1  0  0  0
 59 61  1  0  0  0
 59 62  1  0  0  0
 60137  1  0  0  0
 60138  1  0  0  0
 60139  1  0  0  0
 61140  1  0  0  0
 61141  1  0  0  0
 61142  1  0  0  0
 62143  1  0  0  0
 62144  1  0  0  0
 62145  1  0  0  0
 63 65  1  0  0  0
 63146  1  0  0  0
 63147  1  0  0  0
 63148  1  0  0  0
 64149  1  0  0  0
 65150  1  0  0  0
 68 85  1  0  0  0
 71 72  2  0  0  0
 71 75  1  0  0  0
 71151  1  0  0  0
 72 76  1  0  0  0
 72152  1  0  0  0
 73 74  1  0  0  0
 73 75  2  0  0  0
 73153  1  0  0  0
 74 76  2  0  0  0
 74 87  1  0  0  0
 75 90  1  0  0  0
 76 91  1  0  0  0
 77 78  1  0  0  0
 77154  1  0  0  0
 77155  1  0  0  0
 77 79  1  0  0  0
 78 79  1  0  0  0
 78156  1  0  0  0
 78157  1  0  0  0
 79 87  1  0  0  0
 79158  1  0  0  0
 80159  1  0  0  0
 80160  1  0  0  0
 80161  1  0  0  0
 80 88  1  0  0  0
 81 88  1  0  0  0
 81162  1  0  0  0
 81163  1  0  0  0
 81164  1  0  0  0
 82 83  1  0  0  0
 82 84  1  0  0  0
 82165  1  0  0  0
 82166  1  0  0  0
 83 89  1  0  0  0
 83167  1  0  0  0
 83168  1  0  0  0
 84 91  1  0  0  0
 84169  1  0  0  0
 84170  1  0  0  0
 85 86  1  0  0  0
 85171  1  0  0  0
 85172  1  0  0  0
 86 90  1  0  0  0
 86173  1  0  0  0
 86174  1  0  0  0
 87 88  1  0  0  0
 87175  1  0  0  0
 88176  1  0  0  0
 89177  1  0  0  0
M  ISO  4   1 100  68 101  85 101  89 100
M  END
> <chiral flag>
0

> <version>
0

> <s_m_source_file>
/data/baiqing/PycharmProjects/Reinvent-master-3.2/result/LINK_invent/BTK/process_docking_weight1_custom_sum_contain_oxygen_bond_distance_aromatic_linkinvent_7_9_3/rearranged_h_0144.sdf

> <i_m_source_file_index>
40

> <r_mmod_Potential_Energy-OPLS-2005>
79.2431716918945

> <r_mmod_Stretch_Energy-OPLS-2005>
34.4797782897949

> <r_mmod_Bend_Energy-OPLS-2005>
120.536277770996

> <r_mmod_Torsional_Energy-OPLS-2005>
333.398193359375

> <r_mmod_Improper_Torsional_Energy-OPLS-2005>
6.30271577835083

> <r_mmod_Van_der_Waal_Energy-OPLS-2005>
156.001266479492

> <r_mmod_Electrostatic_Energy-OPLS-2005>
-382.427978515625

> <r_mmod_Solvation_Energy-OPLS-2005>
-200.55632019043

> <b_mmod_Minimization_Converged-OPLS-2005>
0

> <r_mmod_RMS_Derivative-OPLS-2005>
5.59969425201416

$$$$
41
                    3D
 Structure written by MMmdl.
165174  0  0  1  0            999 V2000
  -28.3069  -16.8463   21.0899 C   0  0  0  0  0  0
  -29.7845  -14.3471   19.9043 C   0  0  0  0  0  0
  -29.4599  -13.2643   18.7221 C   0  0  0  0  0  0
  -28.2237  -12.4163   19.0173 C   0  0  0  0  0  0
  -27.3937  -13.3429   19.8922 C   0  0  2  0  0  0
  -28.0554  -13.9464   21.1574 C   0  0  0  0  0  0
  -25.1049  -13.8055   20.5496 C   0  0  0  0  0  0
  -24.0782  -13.0143   20.9272 C   0  0  0  0  0  0
  -24.5700  -11.6713   20.8770 C   0  0  0  0  0  0
  -23.8680  -10.4094   21.0472 C   0  0  0  0  0  0
  -24.3400   -9.4098   21.9229 C   0  0  0  0  0  0
  -23.6184   -8.2089   22.0759 C   0  0  0  0  0  0
  -22.4168   -8.0111   21.3540 C   0  0  0  0  0  0
  -21.9713   -9.0026   20.4633 C   0  0  0  0  0  0
  -22.6931  -10.1930   20.3073 C   0  0  0  0  0  0
  -21.6798   -6.0649   22.5309 C   0  0  0  0  0  0
  -21.3970   -6.5591   23.8228 C   0  0  0  0  0  0
  -21.3645   -5.6762   24.9206 C   0  0  0  0  0  0
  -21.6044   -4.3024   24.7260 C   0  0  0  0  0  0
  -21.8824   -3.8096   23.4388 C   0  0  0  0  0  0
  -21.9177   -4.6897   22.3437 C   0  0  0  0  0  0
  -22.6959  -13.4946   21.2082 C   0  0  0  0  0  0
  -22.1652   -4.2090   21.1011 F   0  0  0  0  0  0
  -21.5640   -3.4523   25.7778 F   0  0  0  0  0  0
  -28.5968  -15.2518   20.6955 N   0  0  0  0  0  0
  -26.1224  -12.9258   20.2805 N   0  0  0  0  0  0
  -25.8500  -11.6378   20.5463 N   0  0  0  0  0  0
  -21.9752  -12.7979   22.0746 N   0  0  0  0  0  0
  -25.2577  -15.1853   20.3939 N   0  0  0  0  0  0
  -29.6098  -16.9197   20.8697 O   0  0  0  0  0  0
  -21.6553   -6.8719   21.4248 O   0  0  0  0  0  0
  -22.2737  -14.5305   20.6958 O   0  0  0  0  0  0
  -24.6610  -31.9464   23.2407 C   0  0  0  0  0  0
  -25.9419  -32.5269   23.8906 C   0  0  1  0  0  0
  -27.0662  -27.5627   19.8811 C   0  0  0  0  0  0
  -25.6235  -33.8995   24.2780 N   0  0  0  0  0  0
  -23.5944  -30.4485   21.6386 C   0  0  2  0  0  0
  -25.0191  -29.3947   19.8520 C   0  0  0  0  0  0
  -23.6101  -29.1364   22.4599 C   0  0  0  0  0  0
  -18.3314  -27.0764   23.0686 C   0  0  0  0  0  0
  -24.1505  -36.7440   23.2586 C   0  0  0  0  0  0
  -26.0777  -30.8764   21.5085 C   0  0  0  0  0  0
  -26.1092  -29.6075   20.6943 C   0  0  0  0  0  0
  -27.1514  -28.6610   20.7611 C   0  0  0  0  0  0
  -26.2797  -27.6405   18.7493 C   0  0  0  0  0  0
  -25.1855  -28.5182   18.7804 C   0  0  0  0  0  0
  -23.7964  -30.2546   20.1250 C   0  0  0  0  0  0
  -25.4102  -36.3327   24.0357 C   0  0  1  0  0  0
  -22.5222  -26.5092   22.3354 C   0  0  2  0  0  0
  -21.4692  -25.5845   20.8543 C   0  0  0  0  0  0
  -19.6711  -25.7911   20.6934 C   0  0  0  0  0  0
  -18.3836  -26.1120   21.7958 C   0  0  0  0  0  0
  -19.5758  -27.0237   23.9979 C   0  0  0  0  0  0
  -19.2167  -28.4697   24.5911 C   0  0  0  0  0  0
  -18.2036  -29.5289   24.3882 C   0  0  0  0  0  0
  -25.9061  -34.9699   23.5259 C   0  0  0  0  0  0
  -17.0834  -29.2742   23.6150 C   0  0  0  0  0  0
  -17.1785  -28.0139   22.9929 C   0  0  0  0  0  0
  -26.4595  -31.6812   25.1167 C   0  0  0  0  0  0
  -25.3675  -31.3886   26.1704 C   0  0  0  0  0  0
  -27.0640  -30.3238   24.6797 C   0  0  0  0  0  0
  -27.6120  -32.4491   25.8000 C   0  0  0  0  0  0
  -27.5604  -37.1919   24.8463 C   0  0  0  0  0  0
  -23.2123  -27.9753   21.9285 N   0  0  0  0  0  0
  -26.4317  -37.3965   23.9414 N   0  0  0  0  0  0
  -24.7706  -31.1750   22.1384 N   0  0  0  0  0  0
  -23.9474  -29.1134   23.6313 O   0  0  0  0  0  0
  -26.7775  -26.3489   20.3583 O   0  0  0  0  0  0
  -26.5436  -34.9018   22.4703 O   0  0  0  0  0  0
  -23.5629  -32.1959   23.7584 O   0  0  0  0  0  0
  -22.1087  -26.8025   24.6818 C   0  0  0  0  0  0
  -21.5474  -28.0324   23.6972 C   0  0  0  0  0  0
  -20.8216  -25.2808   23.0200 C   0  0  0  0  0  0
  -22.4827  -25.1923   24.4854 C   0  0  0  0  0  0
  -22.3319  -24.1130   23.2819 C   0  0  0  0  0  0
  -20.6718  -27.4605   22.2081 C   0  0  0  0  0  0
  -22.3784  -24.5659   27.0224 C   0  0  0  0  0  0
  -23.5018  -25.4244   27.5808 C   0  0  0  0  0  0
  -23.1616  -24.5979   25.7130 C   0  0  2  0  0  0
  -23.6621  -21.9976   22.7629 C   0  0  0  0  0  0
  -23.7874  -26.4665   19.7164 C   0  0  0  0  0  0
  -25.6390  -20.2441   21.9923 C   0  0  0  0  0  0
  -25.2409  -26.2717   20.6816 C   0  0  0  0  0  0
  -22.3036  -27.5623   19.6525 C   0  0  0  0  0  0
  -26.9302  -18.2344   21.5364 N   0  0  0  0  0  0
  -24.1705  -25.4730   26.2919 O   0  0  0  0  0  0
  -21.1184  -28.0028   20.8011 O   0  0  0  0  0  0
  -30.4418  -15.0782   19.4286 H   0  0  0  0  0  0
  -30.4524  -13.8922   20.6412 H   0  0  0  0  0  0
  -30.3302  -12.6386   18.5173 H   0  0  0  0  0  0
  -29.2731  -13.8262   17.8048 H   0  0  0  0  0  0
  -28.4964  -11.5184   19.5732 H   0  0  0  0  0  0
  -27.7058  -12.1099   18.1066 H   0  0  0  0  0  0
  -27.1747  -14.1493   19.1866 H   0  0  0  0  0  0
  -28.7316  -13.2546   21.6667 H   0  0  0  0  0  0
  -27.3293  -14.1965   21.9308 H   0  0  0  0  0  0
  -25.2548   -9.5658   22.4786 H   0  0  0  0  0  0
  -23.9927   -7.4478   22.7463 H   0  0  0  0  0  0
  -21.0647   -8.8471   19.8945 H   0  0  0  0  0  0
  -22.3367  -10.9454   19.6174 H   0  0  0  0  0  0
  -21.1931   -7.6100   23.9714 H   0  0  0  0  0  0
  -21.1478   -6.0498   25.9101 H   0  0  0  0  0  0
  -22.0615   -2.7565   23.2915 H   0  0  0  0  0  0
  -22.3418  -11.9638   22.5097 H   0  0  0  0  0  0
  -21.0400  -13.1020   22.3059 H   0  0  0  0  0  0
  -24.4723  -15.8180   20.5014 H   0  0  0  0  0  0
  -26.0507  -15.6158   19.9369 H   0  0  0  0  0  0
  -26.7649  -32.5997   23.1848 H   0  0  0  0  0  0
  -25.0600  -34.0227   25.1065 H   0  0  0  0  0  0
  -22.6599  -30.9872   21.8123 H   0  0  0  0  0  0
  -23.3788  -35.9755   23.3281 H   0  0  0  0  0  0
  -24.3634  -36.8973   22.1997 H   0  0  0  0  0  0
  -23.7225  -37.6664   23.6507 H   0  0  0  0  0  0
  -26.3340  -31.7101   20.8523 H   0  0  0  0  0  0
  -26.9038  -30.7860   22.1998 H   0  0  0  0  0  0
  -27.8561  -28.6728   21.5811 H   0  0  0  0  0  0
  -26.2795  -26.8477   18.0158 H   0  0  0  0  0  0
  -24.4591  -28.4852   17.9817 H   0  0  0  0  0  0
  -24.0556  -31.2305   19.7069 H   0  0  0  0  0  0
  -22.8570  -30.1120   19.6191 H   0  0  0  0  0  0
  -25.1240  -36.2264   25.0847 H   0  0  0  0  0  0
  -23.4545  -26.0140   22.6097 H   0  0  0  0  0  0
  -21.6302  -24.5090   20.9903 H   0  0  0  0  0  0
  -21.7090  -25.3577   19.8327 H   0  0  0  0  0  0
  -19.3488  -24.8914   20.1681 H   0  0  0  0  0  0
  -19.5238  -26.5346   19.9080 H   0  0  0  0  0  0
  -17.5452  -26.3796   21.1511 H   0  0  0  0  0  0
  -18.0601  -25.1514   22.1967 H   0  0  0  0  0  0
  -19.9307  -28.8136   25.3265 H   0  0  0  0  0  0
  -18.2755  -30.4556   24.9386 H   0  0  0  0  0  0
  -16.2653  -29.9690   23.4741 H   0  0  0  0  0  0
  -16.3866  -27.7910   22.2941 H   0  0  0  0  0  0
  -24.5878  -30.7304   25.7852 H   0  0  0  0  0  0
  -24.8845  -32.3036   26.5132 H   0  0  0  0  0  0
  -25.7820  -30.8962   27.0503 H   0  0  0  0  0  0
  -26.3579  -29.6944   24.1417 H   0  0  0  0  0  0
  -27.3856  -29.7469   25.5478 H   0  0  0  0  0  0
  -27.9518  -30.4550   24.0607 H   0  0  0  0  0  0
  -27.2742  -33.3796   26.2573 H   0  0  0  0  0  0
  -28.3967  -32.7031   25.0858 H   0  0  0  0  0  0
  -28.0729  -31.8587   26.5926 H   0  0  0  0  0  0
  -28.2630  -38.0221   24.7572 H   0  0  0  0  0  0
  -28.1107  -36.2763   24.6224 H   0  0  0  0  0  0
  -27.2324  -37.1500   25.8867 H   0  0  0  0  0  0
  -23.0436  -28.1269   20.9502 H   0  0  0  0  0  0
  -26.0245  -38.3054   24.1432 H   0  0  0  0  0  0
  -22.4374  -27.1949   25.6319 H   0  0  0  0  0  0
  -21.5912  -29.0779   23.9796 H   0  0  0  0  0  0
  -20.0864  -24.5857   22.6467 H   0  0  0  0  0  0
  -21.4152  -25.0786   26.9833 H   0  0  0  0  0  0
  -22.3095  -23.5793   27.4783 H   0  0  0  0  0  0
  -24.0993  -24.9245   28.3442 H   0  0  0  0  0  0
  -23.1684  -26.4054   27.9253 H   0  0  0  0  0  0
  -23.5823  -23.6134   25.4943 H   0  0  0  0  0  0
  -22.8457  -21.5122   22.2257 H   0  0  0  0  0  0
  -23.5745  -21.6124   23.7781 H   0  0  0  0  0  0
  -23.5766  -25.4039   19.7090 H   0  0  0  0  0  0
  -24.0671  -26.3961   18.6697 H   0  0  0  0  0  0
  -26.4772  -20.7927   22.4224 H   0  0  0  0  0  0
  -25.6139  -20.5439   20.9420 H   0  0  0  0  0  0
  -25.1644  -25.2592   21.0845 H   0  0  0  0  0  0
  -25.2177  -26.8622   21.5866 H   0  0  0  0  0  0
  -22.5223  -28.3692   18.9837 H   0  0  0  0  0  0
  -21.6778  -27.1161   18.8770 H   0  0  0  0  0  0
  -27.7530  -18.8170   21.6312 H   0  0  0  0  0  0
  1 25  1  0  0  0
  1 30  2  0  0  0
  1 85  1  0  0  0
  2  3  1  0  0  0
  2 25  1  0  0  0
  2 88  1  0  0  0
  2 89  1  0  0  0
  3  4  1  0  0  0
  3 90  1  0  0  0
  3 91  1  0  0  0
  4  5  1  0  0  0
  4 92  1  0  0  0
  4 93  1  0  0  0
  5  6  1  0  0  0
  5 26  1  0  0  0
  5 94  1  0  0  0
  6 25  1  0  0  0
  6 95  1  0  0  0
  6 96  1  0  0  0
  7  8  2  0  0  0
  7 26  1  0  0  0
  7 29  1  0  0  0
  8  9  1  0  0  0
  8 22  1  0  0  0
  9 10  1  0  0  0
  9 27  2  0  0  0
 10 11  2  0  0  0
 10 15  1  0  0  0
 11 12  1  0  0  0
 11 97  1  0  0  0
 12 13  2  0  0  0
 12 98  1  0  0  0
 13 14  1  0  0  0
 13 31  1  0  0  0
 14 15  2  0  0  0
 14 99  1  0  0  0
 15100  1  0  0  0
 16 17  2  0  0  0
 16 21  1  0  0  0
 16 31  1  0  0  0
 17 18  1  0  0  0
 17101  1  0  0  0
 18 19  2  0  0  0
 18102  1  0  0  0
 19 20  1  0  0  0
 19 24  1  0  0  0
 20 21  2  0  0  0
 20103  1  0  0  0
 21 23  1  0  0  0
 22 28  1  0  0  0
 22 32  2  0  0  0
 26 27  1  0  0  0
 28104  1  0  0  0
 28105  1  0  0  0
 29106  1  0  0  0
 29107  1  0  0  0
 33 34  1  0  0  0
 33 66  1  0  0  0
 33 70  2  0  0  0
 34 36  1  0  0  0
 34 59  1  0  0  0
 34108  1  0  0  0
 35 44  2  0  0  0
 35 45  1  0  0  0
 35 68  1  0  0  0
 36 56  1  0  0  0
 36109  1  0  0  0
 37 39  1  0  0  0
 37 47  1  0  0  0
 37 66  1  0  0  0
 37110  1  0  0  0
 38 43  2  0  0  0
 38 46  1  0  0  0
 38 47  1  0  0  0
 39 64  1  0  0  0
 39 67  2  0  0  0
 40 52  1  0  0  0
 40 53  2  0  0  0
 40 58  1  0  0  0
 41111  1  0  0  0
 41112  1  0  0  0
 41113  1  0  0  0
 41 48  1  0  0  0
 42 43  1  0  0  0
 42 66  1  0  0  0
 42114  1  0  0  0
 42115  1  0  0  0
 43 44  1  0  0  0
 44116  1  0  0  0
 45 46  2  0  0  0
 45117  1  0  0  0
 46118  1  0  0  0
 47119  1  0  0  0
 47120  1  0  0  0
 48 56  1  0  0  0
 48 65  1  0  0  0
 48121  1  0  0  0
 49 50  1  0  0  0
 49 53  1  0  0  0
 49 64  1  0  0  0
 49122  1  0  0  0
 50 51  1  0  0  0
 50123  1  0  0  0
 50124  1  0  0  0
 51 52  1  0  0  0
 51125  1  0  0  0
 51126  1  0  0  0
 52127  1  0  0  0
 52128  1  0  0  0
 53 54  1  0  0  0
 54 55  2  0  0  0
 54129  1  0  0  0
 55 57  1  0  0  0
 55130  1  0  0  0
 56 69  2  0  0  0
 57 58  2  0  0  0
 57131  1  0  0  0
 58132  1  0  0  0
 59 60  1  0  0  0
 59 61  1  0  0  0
 59 62  1  0  0  0
 60133  1  0  0  0
 60134  1  0  0  0
 60135  1  0  0  0
 61136  1  0  0  0
 61137  1  0  0  0
 61138  1  0  0  0
 62139  1  0  0  0
 62140  1  0  0  0
 62141  1  0  0  0
 63 65  1  0  0  0
 63142  1  0  0  0
 63143  1  0  0  0
 63144  1  0  0  0
 64145  1  0  0  0
 65146  1  0  0  0
 68 83  1  0  0  0
 71 72  2  0  0  0
 71 74  1  0  0  0
 71147  1  0  0  0
 72 76  1  0  0  0
 72148  1  0  0  0
 73 75  1  0  0  0
 73 76  2  0  0  0
 73149  1  0  0  0
 74 75  2  0  0  0
 74 79  1  0  0  0
 75 80  1  0  0  0
 76 87  1  0  0  0
 77 78  1  0  0  0
 77 79  1  0  0  0
 77150  1  0  0  0
 77151  1  0  0  0
 78 86  1  0  0  0
 78152  1  0  0  0
 78153  1  0  0  0
 79 86  1  0  0  0
 79154  1  0  0  0
 80 82  1  0  0  0
 80155  1  0  0  0
 80156  1  0  0  0
 81 83  1  0  0  0
 81 84  1  0  0  0
 81157  1  0  0  0
 81158  1  0  0  0
 82 85  1  0  0  0
 82159  1  0  0  0
 82160  1  0  0  0
 83161  1  0  0  0
 83162  1  0  0  0
 84 87  1  0  0  0
 84163  1  0  0  0
 84164  1  0  0  0
 85165  1  0  0  0
M  ISO  4   1 100  68 101  83 101  85 100
M  END
> <chiral flag>
0

> <version>
0

> <s_m_source_file>
/data/baiqing/PycharmProjects/Reinvent-master-3.2/result/LINK_invent/BTK/process_docking_weight1_custom_sum_contain_oxygen_bond_distance_aromatic_linkinvent_7_9_3/rearranged_h_0144.sdf

> <i_m_source_file_index>
41

> <r_mmod_Potential_Energy-OPLS-2005>
28757.923828125

> <r_mmod_Stretch_Energy-OPLS-2005>
14661.349609375

> <r_mmod_Bend_Energy-OPLS-2005>
2502.66088867188

> <r_mmod_Torsional_Energy-OPLS-2005>
771.800842285156

> <r_mmod_Improper_Torsional_Energy-OPLS-2005>
84.3115005493164

> <r_mmod_Van_der_Waal_Energy-OPLS-2005>
3687.48852539062

> <r_mmod_Electrostatic_Energy-OPLS-2005>
-381.565185546875

> <r_mmod_Solvation_Energy-OPLS-2005>
-237.007141113281

> <b_mmod_Minimization_Converged-OPLS-2005>
0

> <r_mmod_RMS_Derivative-OPLS-2005>
7.2227783203125

$$$$
42
                    3D
 Structure written by MMmdl.
169179  0  0  1  0            999 V2000
  -30.6762  -14.5492   20.5225 C   0  0  0  0  0  0
  -30.4287  -12.3170   19.4424 C   0  0  0  0  0  0
  -29.5052  -12.5068   18.2189 C   0  0  0  0  0  0
  -28.0234  -12.3662   18.6250 C   0  0  0  0  0  0
  -27.6587  -13.2150   19.8728 C   0  0  2  0  0  0
  -28.6931  -13.0275   21.0041 C   0  0  0  0  0  0
  -25.2571  -13.8178   20.5683 C   0  0  0  0  0  0
  -24.1826  -13.0447   20.9161 C   0  0  0  0  0  0
  -24.6394  -11.6913   20.8713 C   0  0  0  0  0  0
  -23.9060  -10.4297   21.0395 C   0  0  0  0  0  0
  -24.3620   -9.4216   21.9179 C   0  0  0  0  0  0
  -23.6303   -8.2246   22.0749 C   0  0  0  0  0  0
  -22.4282   -8.0278   21.3540 C   0  0  0  0  0  0
  -21.9908   -9.0248   20.4641 C   0  0  0  0  0  0
  -22.7228  -10.2133   20.3049 C   0  0  0  0  0  0
  -21.6852   -6.0735   22.5279 C   0  0  0  0  0  0
  -21.4006   -6.5642   23.8212 C   0  0  0  0  0  0
  -21.3668   -5.6793   24.9177 C   0  0  0  0  0  0
  -21.6049   -4.3056   24.7225 C   0  0  0  0  0  0
  -21.8818   -3.8145   23.4344 C   0  0  0  0  0  0
  -21.9194   -4.6961   22.3403 C   0  0  0  0  0  0
  -22.7850  -13.5242   21.1843 C   0  0  0  0  0  0
  -22.1657   -4.2144   21.0982 F   0  0  0  0  0  0
  -21.5647   -3.4541   25.7738 F   0  0  0  0  0  0
  -30.0267  -13.3018   20.4564 N   0  0  0  0  0  0
  -26.3010  -12.9363   20.3346 N   0  0  0  0  0  0
  -25.9323  -11.6508   20.5740 N   0  0  0  0  0  0
  -22.0506  -12.8232   22.0416 N   0  0  0  0  0  0
  -25.4303  -15.1896   20.4117 N   0  0  0  0  0  0
  -31.7969  -14.7746   20.0581 O   0  0  0  0  0  0
  -21.6647   -6.8873   21.4237 O   0  0  0  0  0  0
  -22.3528  -14.5550   20.6705 O   0  0  0  0  0  0
  -24.6211  -31.8651   23.2074 C   0  0  0  0  0  0
  -25.9081  -32.4807   23.8384 C   0  0  1  0  0  0
  -27.2199  -27.3735   20.1008 C   0  0  0  0  0  0
  -25.5925  -33.8609   24.2312 N   0  0  0  0  0  0
  -23.4106  -30.4913   21.5496 C   0  0  2  0  0  0
  -24.8534  -28.9562   20.1108 C   0  0  0  0  0  0
  -22.7435  -29.4662   22.4962 C   0  0  0  0  0  0
  -18.0280  -28.1386   22.8497 C   0  0  0  0  0  0
  -24.1491  -36.7307   23.2636 C   0  0  0  0  0  0
  -25.9478  -30.8106   21.3716 C   0  0  0  0  0  0
  -26.0193  -29.4431   20.7145 C   0  0  0  0  0  0
  -27.2045  -28.6605   20.7054 C   0  0  0  0  0  0
  -26.0317  -26.9297   19.4708 C   0  0  0  0  0  0
  -24.8582  -27.7029   19.4826 C   0  0  0  0  0  0
  -23.6200  -29.8298   20.1632 C   0  0  0  0  0  0
  -25.4117  -36.3104   24.0331 C   0  0  1  0  0  0
  -20.5879  -28.3689   23.1292 C   0  0  2  0  0  0
  -20.6781  -26.9417   22.5415 C   0  0  0  0  0  0
  -19.5758  -26.6391   21.5218 C   0  0  0  0  0  0
  -18.1929  -26.7933   22.1621 C   0  0  0  0  0  0
  -19.1533  -28.8852   23.2897 C   0  0  0  0  0  0
  -18.9455  -30.1454   23.8915 C   0  0  0  0  0  0
  -17.6455  -30.6592   24.0575 C   0  0  0  0  0  0
  -25.9050  -34.9469   23.5119 C   0  0  0  0  0  0
  -16.5346  -29.9095   23.6333 C   0  0  0  0  0  0
  -16.7266  -28.6510   23.0357 C   0  0  0  0  0  0
  -26.4486  -31.6599   25.0731 C   0  0  0  0  0  0
  -25.3731  -31.3711   26.1465 C   0  0  0  0  0  0
  -27.0321  -30.3032   24.6150 C   0  0  0  0  0  0
  -27.6066  -32.4317   25.7490 C   0  0  0  0  0  0
  -27.5586  -37.1808   24.8462 C   0  0  0  0  0  0
  -21.4160  -29.3051   22.3691 N   0  0  0  0  0  0
  -26.4298  -37.3793   23.9405 N   0  0  0  0  0  0
  -24.6784  -31.0709   22.1003 N   0  0  0  0  0  0
  -23.4178  -28.8203   23.3029 O   0  0  0  0  0  0
  -28.3603  -26.5739   20.1540 O   0  0  0  0  0  0
  -26.5613  -34.8922   22.4683 O   0  0  0  0  0  0
  -23.5388  -32.1428   23.7437 O   0  0  0  0  0  0
  -29.3796  -16.8074   18.9645 C   0  0  0  0  0  0
  -29.2154  -19.2301   18.9969 C   0  0  0  0  0  0
  -29.5589  -19.2526   20.3400 C   0  0  0  0  0  0
  -29.1272  -18.0198   18.2825 C   0  0  0  0  0  0
  -29.8058  -18.0326   21.0428 C   0  0  0  0  0  0
  -29.7152  -16.7821   20.3462 C   0  0  0  0  0  0
  -28.9795  -20.6194   18.4508 C   0  0  0  0  0  0
  -29.5954  -20.7023   20.8395 C   0  0  0  0  0  0
  -30.6831  -24.4653   17.3836 C   0  0  0  0  0  0
  -30.9468  -23.0333   16.9915 C   0  0  0  0  0  0
  -29.0448  -21.6017   19.6673 C   0  0  1  0  0  0
  -29.7842  -23.3642   17.9049 C   0  0  0  0  0  0
  -28.7551  -18.0149   16.8110 C   0  0  0  0  0  0
  -30.1315  -18.0532   22.5252 C   0  0  0  0  0  0
  -29.3991  -24.2349   20.2601 C   0  0  0  0  0  0
  -28.2319  -25.1688   19.7832 C   0  0  0  0  0  0
  -29.7872  -22.9774   19.3848 C   0  0  1  0  0  0
  -29.8390  -15.5506   20.9957 O   0  0  0  0  0  0
  -31.4746  -12.4295   19.1525 H   0  0  0  0  0  0
  -30.3338  -11.3064   19.8422 H   0  0  0  0  0  0
  -29.7505  -11.7793   17.4442 H   0  0  0  0  0  0
  -29.6738  -13.4897   17.7761 H   0  0  0  0  0  0
  -27.8379  -11.3114   18.8298 H   0  0  0  0  0  0
  -27.3759  -12.6330   17.7882 H   0  0  0  0  0  0
  -27.6940  -14.2586   19.5622 H   0  0  0  0  0  0
  -28.6620  -12.0062   21.3861 H   0  0  0  0  0  0
  -28.4620  -13.6718   21.8531 H   0  0  0  0  0  0
  -25.2767   -9.5698   22.4754 H   0  0  0  0  0  0
  -24.0016   -7.4641   22.7471 H   0  0  0  0  0  0
  -21.0836   -8.8750   19.8955 H   0  0  0  0  0  0
  -22.3674  -10.9667   19.6155 H   0  0  0  0  0  0
  -21.1978   -7.6146   23.9710 H   0  0  0  0  0  0
  -21.1499   -6.0527   25.9083 H   0  0  0  0  0  0
  -22.0591   -2.7605   23.2847 H   0  0  0  0  0  0
  -22.4117  -11.9880   22.4778 H   0  0  0  0  0  0
  -21.1121  -13.1233   22.2627 H   0  0  0  0  0  0
  -24.6713  -15.8513   20.5301 H   0  0  0  0  0  0
  -26.2986  -15.6287   20.1317 H   0  0  0  0  0  0
  -26.7151  -32.5489   23.1139 H   0  0  0  0  0  0
  -25.0086  -33.9768   25.0465 H   0  0  0  0  0  0
  -22.7024  -31.3113   21.4111 H   0  0  0  0  0  0
  -23.3757  -35.9637   23.3299 H   0  0  0  0  0  0
  -24.3584  -36.8927   22.2051 H   0  0  0  0  0  0
  -23.7234  -37.6506   23.6653 H   0  0  0  0  0  0
  -26.0748  -31.5746   20.6033 H   0  0  0  0  0  0
  -26.8313  -30.8575   21.9968 H   0  0  0  0  0  0
  -28.1008  -29.0273   21.1857 H   0  0  0  0  0  0
  -25.9752  -25.9788   18.9630 H   0  0  0  0  0  0
  -23.9644  -27.3274   19.0025 H   0  0  0  0  0  0
  -23.7329  -30.6080   19.4074 H   0  0  0  0  0  0
  -22.7423  -29.2549   19.8631 H   0  0  0  0  0  0
  -25.1300  -36.1971   25.0824 H   0  0  0  0  0  0
  -20.9986  -28.3269   24.1406 H   0  0  0  0  0  0
  -20.5698  -26.2299   23.3611 H   0  0  0  0  0  0
  -21.6644  -26.7462   22.1193 H   0  0  0  0  0  0
  -19.6924  -25.6304   21.1246 H   0  0  0  0  0  0
  -19.6703  -27.3209   20.6756 H   0  0  0  0  0  0
  -17.4207  -26.6694   21.4011 H   0  0  0  0  0  0
  -18.0320  -26.0061   22.9001 H   0  0  0  0  0  0
  -19.7929  -30.7274   24.2286 H   0  0  0  0  0  0
  -17.5007  -31.6270   24.5177 H   0  0  0  0  0  0
  -15.5350  -30.3010   23.7639 H   0  0  0  0  0  0
  -15.8659  -28.0834   22.7071 H   0  0  0  0  0  0
  -24.5922  -30.7044   25.7788 H   0  0  0  0  0  0
  -24.8899  -32.2861   26.4899 H   0  0  0  0  0  0
  -25.8063  -30.8884   27.0234 H   0  0  0  0  0  0
  -26.2876  -29.6786   24.1198 H   0  0  0  0  0  0
  -27.4063  -29.7283   25.4631 H   0  0  0  0  0  0
  -27.8730  -30.4333   23.9333 H   0  0  0  0  0  0
  -27.2702  -33.3618   26.2082 H   0  0  0  0  0  0
  -28.3866  -32.6871   25.0304 H   0  0  0  0  0  0
  -28.0748  -31.8429   26.5389 H   0  0  0  0  0  0
  -28.2606  -38.0105   24.7520 H   0  0  0  0  0  0
  -28.1080  -36.2638   24.6280 H   0  0  0  0  0  0
  -27.2302  -37.1451   25.8864 H   0  0  0  0  0  0
  -20.9325  -29.8765   21.6905 H   0  0  0  0  0  0
  -26.0190  -38.2869   24.1410 H   0  0  0  0  0  0
  -29.2874  -15.8770   18.4221 H   0  0  0  0  0  0
  -28.0223  -20.6833   17.9319 H   0  0  0  0  0  0
  -29.7678  -20.7937   17.7219 H   0  0  0  0  0  0
  -30.6260  -20.9614   21.0847 H   0  0  0  0  0  0
  -28.9989  -20.8198   21.7447 H   0  0  0  0  0  0
  -30.2696  -25.1316   16.6289 H   0  0  0  0  0  0
  -31.3781  -24.9291   18.0808 H   0  0  0  0  0  0
  -31.8200  -22.5491   17.4250 H   0  0  0  0  0  0
  -30.7119  -22.7389   15.9703 H   0  0  0  0  0  0
  -28.0057  -21.8285   19.9127 H   0  0  0  0  0  0
  -28.7973  -23.3178   17.4452 H   0  0  0  0  0  0
  -28.8331  -17.0156   16.3807 H   0  0  0  0  0  0
  -29.4117  -18.6763   16.2450 H   0  0  0  0  0  0
  -27.7302  -18.3619   16.6793 H   0  0  0  0  0  0
  -30.5907  -18.9960   22.8221 H   0  0  0  0  0  0
  -30.8261  -17.2534   22.7845 H   0  0  0  0  0  0
  -29.2214  -17.9170   23.1089 H   0  0  0  0  0  0
  -29.2239  -23.9297   21.2925 H   0  0  0  0  0  0
  -30.2884  -24.8640   20.3065 H   0  0  0  0  0  0
  -27.3127  -24.7438   20.1885 H   0  0  0  0  0  0
  -28.1337  -25.1511   18.6992 H   0  0  0  0  0  0
  -30.8325  -22.7792   19.6274 H   0  0  0  0  0  0
  1 25  1  0  0  0
  1 30  2  0  0  0
  1 88  1  0  0  0
  2  3  1  0  0  0
  2 25  1  0  0  0
  2 89  1  0  0  0
  2 90  1  0  0  0
  3  4  1  0  0  0
  3 91  1  0  0  0
  3 92  1  0  0  0
  4  5  1  0  0  0
  4 93  1  0  0  0
  4 94  1  0  0  0
  5  6  1  0  0  0
  5 26  1  0  0  0
  5 95  1  0  0  0
  6 25  1  0  0  0
  6 96  1  0  0  0
  6 97  1  0  0  0
  7  8  2  0  0  0
  7 26  1  0  0  0
  7 29  1  0  0  0
  8  9  1  0  0  0
  8 22  1  0  0  0
  9 10  1  0  0  0
  9 27  2  0  0  0
 10 11  2  0  0  0
 10 15  1  0  0  0
 11 12  1  0  0  0
 11 98  1  0  0  0
 12 13  2  0  0  0
 12 99  1  0  0  0
 13 14  1  0  0  0
 13 31  1  0  0  0
 14 15  2  0  0  0
 14100  1  0  0  0
 15101  1  0  0  0
 16 17  2  0  0  0
 16 21  1  0  0  0
 16 31  1  0  0  0
 17 18  1  0  0  0
 17102  1  0  0  0
 18 19  2  0  0  0
 18103  1  0  0  0
 19 20  1  0  0  0
 19 24  1  0  0  0
 20 21  2  0  0  0
 20104  1  0  0  0
 21 23  1  0  0  0
 22 28  1  0  0  0
 22 32  2  0  0  0
 26 27  1  0  0  0
 28105  1  0  0  0
 28106  1  0  0  0
 29107  1  0  0  0
 29108  1  0  0  0
 33 34  1  0  0  0
 33 66  1  0  0  0
 33 70  2  0  0  0
 34 36  1  0  0  0
 34 59  1  0  0  0
 34109  1  0  0  0
 35 44  2  0  0  0
 35 45  1  0  0  0
 35 68  1  0  0  0
 36 56  1  0  0  0
 36110  1  0  0  0
 37 39  1  0  0  0
 37 47  1  0  0  0
 37 66  1  0  0  0
 37111  1  0  0  0
 38 43  2  0  0  0
 38 46  1  0  0  0
 38 47  1  0  0  0
 39 64  1  0  0  0
 39 67  2  0  0  0
 40 52  1  0  0  0
 40 53  2  0  0  0
 40 58  1  0  0  0
 41112  1  0  0  0
 41113  1  0  0  0
 41114  1  0  0  0
 41 48  1  0  0  0
 42 43  1  0  0  0
 42 66  1  0  0  0
 42115  1  0  0  0
 42116  1  0  0  0
 43 44  1  0  0  0
 44117  1  0  0  0
 45 46  2  0  0  0
 45118  1  0  0  0
 46119  1  0  0  0
 47120  1  0  0  0
 47121  1  0  0  0
 48 56  1  0  0  0
 48 65  1  0  0  0
 48122  1  0  0  0
 49 50  1  0  0  0
 49 53  1  0  0  0
 49 64  1  0  0  0
 49123  1  0  0  0
 50 51  1  0  0  0
 50124  1  0  0  0
 50125  1  0  0  0
 51 52  1  0  0  0
 51126  1  0  0  0
 51127  1  0  0  0
 52128  1  0  0  0
 52129  1  0  0  0
 53 54  1  0  0  0
 54 55  2  0  0  0
 54130  1  0  0  0
 55 57  1  0  0  0
 55131  1  0  0  0
 56 69  2  0  0  0
 57 58  2  0  0  0
 57132  1  0  0  0
 58133  1  0  0  0
 59 60  1  0  0  0
 59 61  1  0  0  0
 59 62  1  0  0  0
 60134  1  0  0  0
 60135  1  0  0  0
 60136  1  0  0  0
 61137  1  0  0  0
 61138  1  0  0  0
 61139  1  0  0  0
 62140  1  0  0  0
 62141  1  0  0  0
 62142  1  0  0  0
 63 65  1  0  0  0
 63143  1  0  0  0
 63144  1  0  0  0
 63145  1  0  0  0
 64146  1  0  0  0
 65147  1  0  0  0
 68 86  1  0  0  0
 71 74  2  0  0  0
 71 76  1  0  0  0
 71148  1  0  0  0
 72 73  2  0  0  0
 72 74  1  0  0  0
 72 77  1  0  0  0
 73 75  1  0  0  0
 73 78  1  0  0  0
 74 83  1  0  0  0
 75 76  2  0  0  0
 75 84  1  0  0  0
 76 88  1  0  0  0
 77149  1  0  0  0
 77150  1  0  0  0
 77 81  1  0  0  0
 78 81  1  0  0  0
 78151  1  0  0  0
 78152  1  0  0  0
 79 80  1  0  0  0
 79153  1  0  0  0
 79154  1  0  0  0
 79 82  1  0  0  0
 80 82  1  0  0  0
 80155  1  0  0  0
 80156  1  0  0  0
 81 87  1  0  0  0
 81157  1  0  0  0
 82 87  1  0  0  0
 82158  1  0  0  0
 83159  1  0  0  0
 83160  1  0  0  0
 83161  1  0  0  0
 84162  1  0  0  0
 84163  1  0  0  0
 84164  1  0  0  0
 85 86  1  0  0  0
 85165  1  0  0  0
 85166  1  0  0  0
 85 87  1  0  0  0
 86167  1  0  0  0
 86168  1  0  0  0
 87169  1  0  0  0
M  ISO  4   1 100  68 101  86 101  88 100
M  END
> <chiral flag>
0

> <version>
0

> <s_m_source_file>
/data/baiqing/PycharmProjects/Reinvent-master-3.2/result/LINK_invent/BTK/process_docking_weight1_custom_sum_contain_oxygen_bond_distance_aromatic_linkinvent_7_9_3/rearranged_h_0144.sdf

> <i_m_source_file_index>
42

> <r_mmod_Potential_Energy-OPLS-2005>
142.701065063477

> <r_mmod_Stretch_Energy-OPLS-2005>
60.9740791320801

> <r_mmod_Bend_Energy-OPLS-2005>
150.702789306641

> <r_mmod_Torsional_Energy-OPLS-2005>
257.912200927734

> <r_mmod_Improper_Torsional_Energy-OPLS-2005>
4.48038864135742

> <r_mmod_Van_der_Waal_Energy-OPLS-2005>
142.576904296875

> <r_mmod_Electrostatic_Energy-OPLS-2005>
-315.016845703125

> <r_mmod_Solvation_Energy-OPLS-2005>
-184.415664672852

> <b_mmod_Minimization_Converged-OPLS-2005>
0

> <r_mmod_RMS_Derivative-OPLS-2005>
1.29442024230957

$$$$
43
                    3D
 Structure written by MMmdl.
170178  0  0  1  0            999 V2000
  -30.6994  -14.4478   20.6208 C   0  0  0  0  0  0
  -30.4262  -12.3013   19.4259 C   0  0  0  0  0  0
  -29.5011  -12.5212   18.2108 C   0  0  0  0  0  0
  -28.0208  -12.3698   18.6142 C   0  0  0  0  0  0
  -27.6654  -13.1977   19.8784 C   0  0  2  0  0  0
  -28.7009  -12.9552   21.0002 C   0  0  0  0  0  0
  -25.2613  -13.8100   20.5683 C   0  0  0  0  0  0
  -24.1835  -13.0402   20.9127 C   0  0  0  0  0  0
  -24.6372  -11.6869   20.8681 C   0  0  0  0  0  0
  -23.9030  -10.4265   21.0365 C   0  0  0  0  0  0
  -24.3589   -9.4198   21.9158 C   0  0  0  0  0  0
  -23.6284   -8.2223   22.0725 C   0  0  0  0  0  0
  -22.4266   -8.0254   21.3518 C   0  0  0  0  0  0
  -21.9895   -9.0219   20.4616 C   0  0  0  0  0  0
  -22.7191  -10.2112   20.3011 C   0  0  0  0  0  0
  -21.6856   -6.0718   22.5273 C   0  0  0  0  0  0
  -21.4006   -6.5622   23.8215 C   0  0  0  0  0  0
  -21.3665   -5.6770   24.9178 C   0  0  0  0  0  0
  -21.6047   -4.3035   24.7219 C   0  0  0  0  0  0
  -21.8821   -3.8121   23.4338 C   0  0  0  0  0  0
  -21.9202   -4.6948   22.3403 C   0  0  0  0  0  0
  -22.7872  -13.5216   21.1837 C   0  0  0  0  0  0
  -22.1670   -4.2133   21.0984 F   0  0  0  0  0  0
  -21.5644   -3.4518   25.7730 F   0  0  0  0  0  0
  -30.0396  -13.2681   20.4637 N   0  0  0  0  0  0
  -26.3037  -12.9265   20.3365 N   0  0  0  0  0  0
  -25.9297  -11.6429   20.5704 N   0  0  0  0  0  0
  -22.0518  -12.8208   22.0406 N   0  0  0  0  0  0
  -25.4434  -15.1797   20.4234 N   0  0  0  0  0  0
  -31.7798  -14.7016   20.0831 O   0  0  0  0  0  0
  -21.6623   -6.8860   21.4234 O   0  0  0  0  0  0
  -22.3559  -14.5534   20.6713 O   0  0  0  0  0  0
  -24.6120  -31.8696   23.2112 C   0  0  0  0  0  0
  -25.9007  -32.4840   23.8422 C   0  0  1  0  0  0
  -27.2374  -27.4383   20.0952 C   0  0  0  0  0  0
  -25.5849  -33.8634   24.2355 N   0  0  0  0  0  0
  -23.4010  -30.4934   21.5513 C   0  0  2  0  0  0
  -24.8485  -28.9587   20.1170 C   0  0  0  0  0  0
  -22.7407  -29.4665   22.4987 C   0  0  0  0  0  0
  -18.0265  -28.1383   22.8477 C   0  0  0  0  0  0
  -24.1474  -36.7330   23.2647 C   0  0  0  0  0  0
  -25.9287  -30.8386   21.3602 C   0  0  0  0  0  0
  -26.0078  -29.4703   20.7122 C   0  0  0  0  0  0
  -27.2053  -28.7182   20.6967 C   0  0  0  0  0  0
  -26.0576  -26.9437   19.4892 C   0  0  0  0  0  0
  -24.8688  -27.6962   19.5020 C   0  0  0  0  0  0
  -23.6099  -29.8248   20.1666 C   0  0  0  0  0  0
  -25.4097  -36.3133   24.0358 C   0  0  1  0  0  0
  -20.5856  -28.3667   23.1314 C   0  0  2  0  0  0
  -20.6751  -26.9401   22.5430 C   0  0  0  0  0  0
  -19.5745  -26.6392   21.5207 C   0  0  0  0  0  0
  -18.1913  -26.7934   22.1599 C   0  0  0  0  0  0
  -19.1513  -28.8843   23.2894 C   0  0  0  0  0  0
  -18.9445  -30.1437   23.8917 C   0  0  0  0  0  0
  -17.6447  -30.6583   24.0576 C   0  0  0  0  0  0
  -25.9024  -34.9484   23.5174 C   0  0  0  0  0  0
  -16.5339  -29.9091   23.6320 C   0  0  0  0  0  0
  -16.7254  -28.6513   23.0338 C   0  0  0  0  0  0
  -26.4461  -31.6584   25.0716 C   0  0  0  0  0  0
  -25.3752  -31.3651   26.1482 C   0  0  0  0  0  0
  -27.0282  -30.3043   24.6025 C   0  0  0  0  0  0
  -27.6063  -32.4284   25.7447 C   0  0  0  0  0  0
  -27.5592  -37.1812   24.8462 C   0  0  0  0  0  0
  -21.4133  -29.3038   22.3733 N   0  0  0  0  0  0
  -26.4291  -37.3809   23.9419 N   0  0  0  0  0  0
  -24.6665  -31.0815   22.0992 N   0  0  0  0  0  0
  -23.4186  -28.8202   23.3020 O   0  0  0  0  0  0
  -28.4172  -26.7190   20.0877 O   0  0  0  0  0  0
  -26.5617  -34.8933   22.4747 O   0  0  0  0  0  0
  -23.5322  -32.1430   23.7513 O   0  0  0  0  0  0
  -27.4623  -19.4695   20.1758 C   0  0  0  0  0  0
  -27.6949  -20.9203   19.8185 C   0  0  1  0  0  0
  -28.7910  -19.0051   20.8091 C   0  0  1  0  0  0
  -29.1780  -20.8904   19.4405 C   0  0  1  0  0  0
  -26.7646  -21.4293   18.7043 C   0  0  0  0  0  0
  -31.3853  -22.1447   19.1153 C   0  0  0  0  0  0
  -30.6275  -25.2501   21.4053 C   0  0  0  0  0  0
  -30.2142  -16.8302   21.3256 C   0  0  0  0  0  0
  -28.3149  -25.3016   20.3041 C   0  0  0  0  0  0
  -29.8724  -22.2822   19.3695 C   0  0  2  0  0  0
  -29.1324  -17.5223   20.4489 C   0  0  1  0  0  0
  -29.7101  -24.6246   20.3368 C   0  0  2  0  0  0
  -30.0302  -15.3694   21.3232 N   0  0  0  0  0  0
  -29.5907  -23.1477   20.5520 N   0  3  0  0  0  0
  -29.7650  -19.9690   20.3691 O   0  0  0  0  0  0
  -27.9321  -16.7670   20.5567 O   0  0  0  0  0  0
  -31.4718  -12.4052   19.1368 H   0  0  0  0  0  0
  -30.3230  -11.2827   19.8057 H   0  0  0  0  0  0
  -29.7507  -11.8175   17.4162 H   0  0  0  0  0  0
  -29.6653  -13.5189   17.8015 H   0  0  0  0  0  0
  -27.8328  -11.3105   18.7976 H   0  0  0  0  0  0
  -27.3722  -12.6517   17.7828 H   0  0  0  0  0  0
  -27.7194  -14.2473   19.5916 H   0  0  0  0  0  0
  -28.6749  -11.9117   21.3162 H   0  0  0  0  0  0
  -28.4468  -13.5293   21.8943 H   0  0  0  0  0  0
  -25.2734   -9.5691   22.4748 H   0  0  0  0  0  0
  -23.9995   -7.4606   22.7436 H   0  0  0  0  0  0
  -21.0827   -8.8690   19.8939 H   0  0  0  0  0  0
  -22.3604  -10.9639   19.6111 H   0  0  0  0  0  0
  -21.1969   -7.6126   23.9718 H   0  0  0  0  0  0
  -21.1509   -6.0499   25.9093 H   0  0  0  0  0  0
  -22.0605   -2.7588   23.2835 H   0  0  0  0  0  0
  -22.4066  -11.9823   22.4757 H   0  0  0  0  0  0
  -21.1138  -13.1246   22.2586 H   0  0  0  0  0  0
  -24.7229  -15.8521   20.6570 H   0  0  0  0  0  0
  -26.3813  -15.5767   20.4168 H   0  0  0  0  0  0
  -26.7060  -32.5579   23.1180 H   0  0  0  0  0  0
  -24.9936  -33.9796   25.0459 H   0  0  0  0  0  0
  -22.6889  -31.3093   21.4124 H   0  0  0  0  0  0
  -23.3746  -35.9655   23.3304 H   0  0  0  0  0  0
  -24.3586  -36.8957   22.2065 H   0  0  0  0  0  0
  -23.7202  -37.6524   23.6664 H   0  0  0  0  0  0
  -26.0329  -31.5998   20.5858 H   0  0  0  0  0  0
  -26.8198  -30.9034   21.9725 H   0  0  0  0  0  0
  -28.1013  -29.1126   21.1564 H   0  0  0  0  0  0
  -26.0390  -25.9917   18.9805 H   0  0  0  0  0  0
  -23.9812  -27.3032   19.0253 H   0  0  0  0  0  0
  -23.7147  -30.5976   19.4039 H   0  0  0  0  0  0
  -22.7356  -29.2413   19.8736 H   0  0  0  0  0  0
  -25.1264  -36.2027   25.0854 H   0  0  0  0  0  0
  -20.9947  -28.3239   24.1433 H   0  0  0  0  0  0
  -20.5608  -26.2292   23.3623 H   0  0  0  0  0  0
  -21.6634  -26.7422   22.1254 H   0  0  0  0  0  0
  -19.6921  -25.6309   21.1220 H   0  0  0  0  0  0
  -19.6709  -27.3204   20.6737 H   0  0  0  0  0  0
  -17.4205  -26.6688   21.3979 H   0  0  0  0  0  0
  -18.0297  -26.0060   22.8966 H   0  0  0  0  0  0
  -19.7928  -30.7233   24.2310 H   0  0  0  0  0  0
  -17.5014  -31.6259   24.5177 H   0  0  0  0  0  0
  -15.5339  -30.3010   23.7645 H   0  0  0  0  0  0
  -15.8641  -28.0841   22.7047 H   0  0  0  0  0  0
  -24.5911  -30.7023   25.7808 H   0  0  0  0  0  0
  -24.8958  -32.2785   26.5004 H   0  0  0  0  0  0
  -25.8124  -30.8757   27.0193 H   0  0  0  0  0  0
  -26.2791  -29.6790   24.1151 H   0  0  0  0  0  0
  -27.4169  -29.7286   25.4432 H   0  0  0  0  0  0
  -27.8574  -30.4406   23.9082 H   0  0  0  0  0  0
  -27.2691  -33.3520   26.2160 H   0  0  0  0  0  0
  -28.3771  -32.6944   25.0201 H   0  0  0  0  0  0
  -28.0847  -31.8329   26.5232 H   0  0  0  0  0  0
  -28.2606  -38.0110   24.7516 H   0  0  0  0  0  0
  -28.1083  -36.2649   24.6253 H   0  0  0  0  0  0
  -27.2334  -37.1427   25.8869 H   0  0  0  0  0  0
  -20.9299  -29.8791   21.6973 H   0  0  0  0  0  0
  -26.0201  -38.2898   24.1419 H   0  0  0  0  0  0
  -27.2445  -18.9085   19.2665 H   0  0  0  0  0  0
  -26.6166  -19.3413   20.8529 H   0  0  0  0  0  0
  -27.5460  -21.5129   20.7208 H   0  0  0  0  0  0
  -28.7093  -19.1047   21.8921 H   0  0  0  0  0  0
  -29.2689  -20.4191   18.4588 H   0  0  0  0  0  0
  -26.8540  -20.8224   17.8016 H   0  0  0  0  0  0
  -26.9988  -22.4582   18.4289 H   0  0  0  0  0  0
  -25.7206  -21.4034   19.0194 H   0  0  0  0  0  0
  -31.5764  -21.4963   18.2586 H   0  0  0  0  0  0
  -31.8970  -21.7072   19.9727 H   0  0  0  0  0  0
  -31.8514  -23.1064   18.9040 H   0  0  0  0  0  0
  -30.7268  -26.3256   21.2531 H   0  0  0  0  0  0
  -31.6337  -24.8321   21.3549 H   0  0  0  0  0  0
  -30.2486  -25.1015   22.4173 H   0  0  0  0  0  0
  -30.1130  -17.1605   22.3604 H   0  0  0  0  0  0
  -31.2169  -17.1225   21.0090 H   0  0  0  0  0  0
  -27.7878  -25.1255   21.2438 H   0  0  0  0  0  0
  -27.7327  -24.8265   19.5144 H   0  0  0  0  0  0
  -29.4390  -22.7809   18.5023 H   0  0  0  0  0  0
  -29.4423  -17.4785   19.4032 H   0  0  0  0  0  0
  -30.1820  -24.8065   19.3703 H   0  0  0  0  0  0
  -29.1313  -15.0737   21.6729 H   0  0  0  0  0  0
  -30.1918  -22.8614   21.3106 H   0  0  0  0  0  0
  -28.6474  -22.9570   20.8589 H   0  0  0  0  0  0
  -27.2606  -17.2743   20.1148 H   0  0  0  0  0  0
  1 25  1  0  0  0
  1 30  2  0  0  0
  1 83  1  0  0  0
  2  3  1  0  0  0
  2 25  1  0  0  0
  2 87  1  0  0  0
  2 88  1  0  0  0
  3  4  1  0  0  0
  3 89  1  0  0  0
  3 90  1  0  0  0
  4  5  1  0  0  0
  4 91  1  0  0  0
  4 92  1  0  0  0
  5  6  1  0  0  0
  5 26  1  0  0  0
  5 93  1  0  0  0
  6 25  1  0  0  0
  6 94  1  0  0  0
  6 95  1  0  0  0
  7  8  2  0  0  0
  7 26  1  0  0  0
  7 29  1  0  0  0
  8  9  1  0  0  0
  8 22  1  0  0  0
  9 10  1  0  0  0
  9 27  2  0  0  0
 10 11  2  0  0  0
 10 15  1  0  0  0
 11 12  1  0  0  0
 11 96  1  0  0  0
 12 13  2  0  0  0
 12 97  1  0  0  0
 13 14  1  0  0  0
 13 31  1  0  0  0
 14 15  2  0  0  0
 14 98  1  0  0  0
 15 99  1  0  0  0
 16 17  2  0  0  0
 16 21  1  0  0  0
 16 31  1  0  0  0
 17 18  1  0  0  0
 17100  1  0  0  0
 18 19  2  0  0  0
 18101  1  0  0  0
 19 20  1  0  0  0
 19 24  1  0  0  0
 20 21  2  0  0  0
 20102  1  0  0  0
 21 23  1  0  0  0
 22 28  1  0  0  0
 22 32  2  0  0  0
 26 27  1  0  0  0
 28103  1  0  0  0
 28104  1  0  0  0
 29105  1  0  0  0
 29106  1  0  0  0
 33 34  1  0  0  0
 33 66  1  0  0  0
 33 70  2  0  0  0
 34 36  1  0  0  0
 34 59  1  0  0  0
 34107  1  0  0  0
 35 44  2  0  0  0
 35 45  1  0  0  0
 35 68  1  0  0  0
 36 56  1  0  0  0
 36108  1  0  0  0
 37 39  1  0  0  0
 37 47  1  0  0  0
 37 66  1  0  0  0
 37109  1  0  0  0
 38 43  2  0  0  0
 38 46  1  0  0  0
 38 47  1  0  0  0
 39 64  1  0  0  0
 39 67  2  0  0  0
 40 52  1  0  0  0
 40 53  2  0  0  0
 40 58  1  0  0  0
 41110  1  0  0  0
 41111  1  0  0  0
 41112  1  0  0  0
 41 48  1  0  0  0
 42 43  1  0  0  0
 42 66  1  0  0  0
 42113  1  0  0  0
 42114  1  0  0  0
 43 44  1  0  0  0
 44115  1  0  0  0
 45 46  2  0  0  0
 45116  1  0  0  0
 46117  1  0  0  0
 47118  1  0  0  0
 47119  1  0  0  0
 48 56  1  0  0  0
 48 65  1  0  0  0
 48120  1  0  0  0
 49 50  1  0  0  0
 49 53  1  0  0  0
 49 64  1  0  0  0
 49121  1  0  0  0
 50 51  1  0  0  0
 50122  1  0  0  0
 50123  1  0  0  0
 51 52  1  0  0  0
 51124  1  0  0  0
 51125  1  0  0  0
 52126  1  0  0  0
 52127  1  0  0  0
 53 54  1  0  0  0
 54 55  2  0  0  0
 54128  1  0  0  0
 55 57  1  0  0  0
 55129  1  0  0  0
 56 69  2  0  0  0
 57 58  2  0  0  0
 57130  1  0  0  0
 58131  1  0  0  0
 59 60  1  0  0  0
 59 61  1  0  0  0
 59 62  1  0  0  0
 60132  1  0  0  0
 60133  1  0  0  0
 60134  1  0  0  0
 61135  1  0  0  0
 61136  1  0  0  0
 61137  1  0  0  0
 62138  1  0  0  0
 62139  1  0  0  0
 62140  1  0  0  0
 63 65  1  0  0  0
 63141  1  0  0  0
 63142  1  0  0  0
 63143  1  0  0  0
 64144  1  0  0  0
 65145  1  0  0  0
 68 79  1  0  0  0
 71 72  1  0  0  0
 71146  1  0  0  0
 71147  1  0  0  0
 71 73  1  0  0  0
 72 74  1  0  0  0
 72 75  1  0  0  0
 72148  1  0  0  0
 73 81  1  0  0  0
 73 85  1  0  0  0
 73149  1  0  0  0
 74 80  1  0  0  0
 74 85  1  0  0  0
 74150  1  0  0  0
 75151  1  0  0  0
 75152  1  0  0  0
 75153  1  0  0  0
 76154  1  0  0  0
 76155  1  0  0  0
 76156  1  0  0  0
 76 80  1  0  0  0
 77157  1  0  0  0
 77158  1  0  0  0
 77159  1  0  0  0
 77 82  1  0  0  0
 78 81  1  0  0  0
 78 83  1  0  0  0
 78160  1  0  0  0
 78161  1  0  0  0
 79 82  1  0  0  0
 79162  1  0  0  0
 79163  1  0  0  0
 80 84  1  0  0  0
 80164  1  0  0  0
 81 86  1  0  0  0
 81165  1  0  0  0
 82 84  1  0  0  0
 82166  1  0  0  0
 83167  1  0  0  0
 84168  1  0  0  0
 84169  1  0  0  0
 86170  1  0  0  0
M  CHG  1  84   1
M  ISO  4   1 100  68 101  79 101  83 100
M  END
> <chiral flag>
0

> <version>
0

> <s_m_source_file>
/data/baiqing/PycharmProjects/Reinvent-master-3.2/result/LINK_invent/BTK/process_docking_weight1_custom_sum_contain_oxygen_bond_distance_aromatic_linkinvent_7_9_3/rearranged_h_0144.sdf

> <i_m_source_file_index>
43

> <r_mmod_Potential_Energy-OPLS-2005>
-124.811470031738

> <r_mmod_Stretch_Energy-OPLS-2005>
40.5195388793945

> <r_mmod_Bend_Energy-OPLS-2005>
118.626396179199

> <r_mmod_Torsional_Energy-OPLS-2005>
308.511108398438

> <r_mmod_Improper_Torsional_Energy-OPLS-2005>
4.77498388290405

> <r_mmod_Van_der_Waal_Energy-OPLS-2005>
134.750289916992

> <r_mmod_Electrostatic_Energy-OPLS-2005>
-307.653625488281

> <r_mmod_Solvation_Energy-OPLS-2005>
-434.391632080078

> <b_mmod_Minimization_Converged-OPLS-2005>
0

> <r_mmod_RMS_Derivative-OPLS-2005>
2.59570240974426

$$$$
44
                    3D
 Structure written by MMmdl.
175185  0  0  1  0            999 V2000
  -30.6746  -14.6452   20.5079 C   0  0  0  0  0  0
  -30.4215  -12.4037   19.4571 C   0  0  0  0  0  0
  -29.4983  -12.5126   18.2243 C   0  0  0  0  0  0
  -28.0222  -12.3536   18.6369 C   0  0  0  0  0  0
  -27.6480  -13.2262   19.8661 C   0  0  2  0  0  0
  -28.6969  -13.0990   20.9938 C   0  0  0  0  0  0
  -25.2533  -13.8194   20.5707 C   0  0  0  0  0  0
  -24.1807  -13.0444   20.9178 C   0  0  0  0  0  0
  -24.6393  -11.6919   20.8749 C   0  0  0  0  0  0
  -23.9064  -10.4302   21.0407 C   0  0  0  0  0  0
  -24.3615   -9.4215   21.9184 C   0  0  0  0  0  0
  -23.6290   -8.2251   22.0751 C   0  0  0  0  0  0
  -22.4275   -8.0285   21.3538 C   0  0  0  0  0  0
  -21.9908   -9.0256   20.4636 C   0  0  0  0  0  0
  -22.7238  -10.2137   20.3051 C   0  0  0  0  0  0
  -21.6856   -6.0733   22.5279 C   0  0  0  0  0  0
  -21.4015   -6.5636   23.8206 C   0  0  0  0  0  0
  -21.3662   -5.6791   24.9172 C   0  0  0  0  0  0
  -21.6046   -4.3054   24.7224 C   0  0  0  0  0  0
  -21.8820   -3.8141   23.4349 C   0  0  0  0  0  0
  -21.9187   -4.6959   22.3403 C   0  0  0  0  0  0
  -22.7835  -13.5224   21.1845 C   0  0  0  0  0  0
  -22.1654   -4.2136   21.0986 F   0  0  0  0  0  0
  -21.5628   -3.4543   25.7741 F   0  0  0  0  0  0
  -30.0019  -13.4491   20.4166 N   0  0  0  0  0  0
  -26.2969  -12.9392   20.3373 N   0  0  0  0  0  0
  -25.9331  -11.6533   20.5803 N   0  0  0  0  0  0
  -22.0483  -12.8211   22.0396 N   0  0  0  0  0  0
  -25.4246  -15.1919   20.4122 N   0  0  0  0  0  0
  -31.8442  -14.7160   20.1153 O   0  0  0  0  0  0
  -21.6644   -6.8883   21.4242 O   0  0  0  0  0  0
  -22.3518  -14.5539   20.6710 O   0  0  0  0  0  0
  -24.6289  -31.8611   23.2082 C   0  0  0  0  0  0
  -25.9133  -32.4787   23.8398 C   0  0  1  0  0  0
  -27.2055  -27.3031   20.1065 C   0  0  0  0  0  0
  -25.5947  -33.8590   24.2317 N   0  0  0  0  0  0
  -23.4217  -30.4920   21.5515 C   0  0  2  0  0  0
  -24.8647  -28.9629   20.1062 C   0  0  0  0  0  0
  -22.7482  -29.4642   22.4935 C   0  0  0  0  0  0
  -18.0288  -28.1385   22.8488 C   0  0  0  0  0  0
  -24.1485  -36.7296   23.2636 C   0  0  0  0  0  0
  -25.9687  -30.7863   21.3853 C   0  0  0  0  0  0
  -26.0384  -29.4171   20.7207 C   0  0  0  0  0  0
  -27.2115  -28.5979   20.7191 C   0  0  0  0  0  0
  -26.0096  -26.9381   19.4333 C   0  0  0  0  0  0
  -24.8535  -27.7281   19.4535 C   0  0  0  0  0  0
  -23.6355  -29.8430   20.1622 C   0  0  0  0  0  0
  -25.4107  -36.3086   24.0332 C   0  0  1  0  0  0
  -20.5892  -28.3694   23.1269 C   0  0  2  0  0  0
  -20.6778  -26.9414   22.5400 C   0  0  0  0  0  0
  -19.5753  -26.6386   21.5204 C   0  0  0  0  0  0
  -18.1933  -26.7930   22.1623 C   0  0  0  0  0  0
  -19.1541  -28.8853   23.2877 C   0  0  0  0  0  0
  -18.9465  -30.1454   23.8897 C   0  0  0  0  0  0
  -17.6464  -30.6583   24.0566 C   0  0  0  0  0  0
  -25.9050  -34.9455   23.5119 C   0  0  0  0  0  0
  -16.5357  -29.9080   23.6333 C   0  0  0  0  0  0
  -16.7275  -28.6499   23.0356 C   0  0  0  0  0  0
  -26.4510  -31.6583   25.0760 C   0  0  0  0  0  0
  -25.3746  -31.3706   26.1485 C   0  0  0  0  0  0
  -27.0356  -30.3005   24.6218 C   0  0  0  0  0  0
  -27.6074  -32.4310   25.7529 C   0  0  0  0  0  0
  -27.5579  -37.1802   24.8462 C   0  0  0  0  0  0
  -21.4194  -29.3056   22.3666 N   0  0  0  0  0  0
  -26.4285  -37.3781   23.9414 N   0  0  0  0  0  0
  -24.6923  -31.0617   22.1047 N   0  0  0  0  0  0
  -23.4201  -28.8150   23.2990 O   0  0  0  0  0  0
  -28.2717  -26.3766   20.1961 O   0  0  0  0  0  0
  -26.5608  -34.8916   22.4680 O   0  0  0  0  0  0
  -23.5447  -32.1425   23.7395 O   0  0  0  0  0  0
  -28.0621  -22.6268   21.0297 C   0  0  0  0  0  0
  -28.5853  -21.3027   21.0900 C   0  0  0  0  0  0
  -29.9076  -23.3248   19.6689 C   0  0  0  0  0  0
  -28.6899  -23.6714   20.2969 C   0  0  0  0  0  0
  -30.4560  -22.0000   19.7280 C   0  0  0  0  0  0
  -29.7831  -20.9397   20.4269 C   0  0  0  0  0  0
  -33.4761  -22.3485   20.8520 C   0  0  0  0  0  0
  -34.2985  -22.1513   19.6027 C   0  0  0  0  0  0
  -29.4162  -17.7813   21.9989 C   0  0  0  0  0  0
  -29.2396  -16.2454   21.8561 C   0  0  0  0  0  0
  -30.2939  -17.0816   19.9169 C   0  0  0  0  0  0
  -32.8698  -22.6386   19.4961 C   0  0  0  0  0  0
  -29.5735  -18.3118   20.5746 C   0  0  2  0  0  0
  -30.3370  -21.1474   16.8853 C   0  0  0  0  0  0
  -32.8198  -21.4641   16.6240 C   0  0  0  0  0  0
  -27.8722  -24.9652   19.9422 C   0  0  0  0  0  0
  -31.7564  -21.7514   18.9488 C   0  0  2  0  0  0
  -31.5725  -21.9047   17.4111 C   0  0  0  0  0  0
  -29.9508  -15.8176   20.6423 N   0  0  0  0  0  0
  -30.3116  -19.6045   20.4585 N   0  0  0  0  0  0
  -31.4653  -12.5034   19.1545 H   0  0  0  0  0  0
  -30.3405  -11.4147   19.9112 H   0  0  0  0  0  0
  -29.7615  -11.7544   17.4864 H   0  0  0  0  0  0
  -29.6411  -13.4785   17.7362 H   0  0  0  0  0  0
  -27.8568  -11.3010   18.8693 H   0  0  0  0  0  0
  -27.3686  -12.5834   17.7943 H   0  0  0  0  0  0
  -27.6606  -14.2607   19.5230 H   0  0  0  0  0  0
  -28.7167  -12.0795   21.3821 H   0  0  0  0  0  0
  -28.4437  -13.7277   21.8457 H   0  0  0  0  0  0
  -25.2763   -9.5693   22.4757 H   0  0  0  0  0  0
  -23.9988   -7.4650   22.7485 H   0  0  0  0  0  0
  -21.0825   -8.8784   19.8951 H   0  0  0  0  0  0
  -22.3696  -10.9675   19.6160 H   0  0  0  0  0  0
  -21.2016   -7.6145   23.9704 H   0  0  0  0  0  0
  -21.1480   -6.0526   25.9070 H   0  0  0  0  0  0
  -22.0596   -2.7599   23.2860 H   0  0  0  0  0  0
  -22.4098  -11.9865   22.4775 H   0  0  0  0  0  0
  -21.1107  -13.1251   22.2616 H   0  0  0  0  0  0
  -24.6631  -15.8526   20.5249 H   0  0  0  0  0  0
  -26.2839  -15.6296   20.1052 H   0  0  0  0  0  0
  -26.7202  -32.5448   23.1145 H   0  0  0  0  0  0
  -25.0098  -33.9744   25.0464 H   0  0  0  0  0  0
  -22.7174  -31.3151   21.4159 H   0  0  0  0  0  0
  -23.3750  -35.9623   23.3277 H   0  0  0  0  0  0
  -24.3589  -36.8937   22.2057 H   0  0  0  0  0  0
  -23.7233  -37.6492   23.6666 H   0  0  0  0  0  0
  -26.1070  -31.5506   20.6195 H   0  0  0  0  0  0
  -26.8485  -30.8297   22.0156 H   0  0  0  0  0  0
  -28.1016  -28.9360   21.2309 H   0  0  0  0  0  0
  -25.9043  -26.0119   18.8907 H   0  0  0  0  0  0
  -23.9591  -27.3804   18.9543 H   0  0  0  0  0  0
  -23.7569  -30.6282   19.4153 H   0  0  0  0  0  0
  -22.7542  -29.2774   19.8541 H   0  0  0  0  0  0
  -25.1279  -36.1944   25.0825 H   0  0  0  0  0  0
  -20.9996  -28.3265   24.1384 H   0  0  0  0  0  0
  -20.5668  -26.2304   23.3603 H   0  0  0  0  0  0
  -21.6647  -26.7430   22.1199 H   0  0  0  0  0  0
  -19.6912  -25.6294   21.1237 H   0  0  0  0  0  0
  -19.6687  -27.3194   20.6735 H   0  0  0  0  0  0
  -17.4200  -26.6678   21.4027 H   0  0  0  0  0  0
  -18.0332  -26.0065   22.9015 H   0  0  0  0  0  0
  -19.7937  -30.7272   24.2265 H   0  0  0  0  0  0
  -17.5016  -31.6265   24.5165 H   0  0  0  0  0  0
  -15.5356  -30.2987   23.7649 H   0  0  0  0  0  0
  -15.8678  -28.0816   22.7079 H   0  0  0  0  0  0
  -24.5942  -30.7027   25.7817 H   0  0  0  0  0  0
  -24.8913  -32.2859   26.4912 H   0  0  0  0  0  0
  -25.8085  -30.8896   27.0262 H   0  0  0  0  0  0
  -26.2937  -29.6756   24.1235 H   0  0  0  0  0  0
  -27.4041  -29.7258   25.4727 H   0  0  0  0  0  0
  -27.8813  -30.4285   23.9459 H   0  0  0  0  0  0
  -27.2699  -33.3623   26.2090 H   0  0  0  0  0  0
  -28.3900  -32.6845   25.0363 H   0  0  0  0  0  0
  -28.0722  -31.8440   26.5464 H   0  0  0  0  0  0
  -28.2571  -38.0124   24.7536 H   0  0  0  0  0  0
  -28.1102  -36.2658   24.6241 H   0  0  0  0  0  0
  -27.2307  -37.1401   25.8867 H   0  0  0  0  0  0
  -20.9358  -29.8809   21.6912 H   0  0  0  0  0  0
  -26.0162  -38.2848   24.1437 H   0  0  0  0  0  0
  -27.1104  -22.8152   21.5056 H   0  0  0  0  0  0
  -28.0343  -20.5571   21.6445 H   0  0  0  0  0  0
  -30.3941  -24.0755   19.0629 H   0  0  0  0  0  0
  -33.7141  -23.2004   21.4859 H   0  0  0  0  0  0
  -33.1382  -21.4570   21.3780 H   0  0  0  0  0  0
  -34.5111  -21.1293   19.2951 H   0  0  0  0  0  0
  -35.0860  -22.8724   19.3931 H   0  0  0  0  0  0
  -30.3199  -17.9885   22.5744 H   0  0  0  0  0  0
  -28.5828  -18.2430   22.5300 H   0  0  0  0  0  0
  -28.1811  -16.0111   21.7378 H   0  0  0  0  0  0
  -29.5934  -15.7231   22.7466 H   0  0  0  0  0  0
  -31.3755  -17.2227   19.9593 H   0  0  0  0  0  0
  -30.0273  -16.9938   18.8620 H   0  0  0  0  0  0
  -32.7454  -23.6949   19.2647 H   0  0  0  0  0  0
  -28.5831  -18.4203   20.1284 H   0  0  0  0  0  0
  -30.2478  -21.2380   15.8023 H   0  0  0  0  0  0
  -29.4101  -21.5343   17.3089 H   0  0  0  0  0  0
  -30.3925  -20.0857   17.1282 H   0  0  0  0  0  0
  -32.6655  -21.5688   15.5492 H   0  0  0  0  0  0
  -33.0695  -20.4212   16.8222 H   0  0  0  0  0  0
  -33.6905  -22.0694   16.8771 H   0  0  0  0  0  0
  -26.9114  -24.7988   20.4325 H   0  0  0  0  0  0
  -27.7017  -24.8711   18.8691 H   0  0  0  0  0  0
  -32.0790  -20.7263   19.1171 H   0  0  0  0  0  0
  -31.4090  -22.9611   17.1906 H   0  0  0  0  0  0
  -31.2339  -19.5099   20.0482 H   0  0  0  0  0  0
  1 25  1  0  0  0
  1 30  2  0  0  0
  1 89  1  0  0  0
  2  3  1  0  0  0
  2 25  1  0  0  0
  2 91  1  0  0  0
  2 92  1  0  0  0
  3  4  1  0  0  0
  3 93  1  0  0  0
  3 94  1  0  0  0
  4  5  1  0  0  0
  4 95  1  0  0  0
  4 96  1  0  0  0
  5  6  1  0  0  0
  5 26  1  0  0  0
  5 97  1  0  0  0
  6 25  1  0  0  0
  6 98  1  0  0  0
  6 99  1  0  0  0
  7  8  2  0  0  0
  7 26  1  0  0  0
  7 29  1  0  0  0
  8  9  1  0  0  0
  8 22  1  0  0  0
  9 10  1  0  0  0
  9 27  2  0  0  0
 10 11  2  0  0  0
 10 15  1  0  0  0
 11 12  1  0  0  0
 11100  1  0  0  0
 12 13  2  0  0  0
 12101  1  0  0  0
 13 14  1  0  0  0
 13 31  1  0  0  0
 14 15  2  0  0  0
 14102  1  0  0  0
 15103  1  0  0  0
 16 17  2  0  0  0
 16 21  1  0  0  0
 16 31  1  0  0  0
 17 18  1  0  0  0
 17104  1  0  0  0
 18 19  2  0  0  0
 18105  1  0  0  0
 19 20  1  0  0  0
 19 24  1  0  0  0
 20 21  2  0  0  0
 20106  1  0  0  0
 21 23  1  0  0  0
 22 28  1  0  0  0
 22 32  2  0  0  0
 26 27  1  0  0  0
 28107  1  0  0  0
 28108  1  0  0  0
 29109  1  0  0  0
 29110  1  0  0  0
 33 34  1  0  0  0
 33 66  1  0  0  0
 33 70  2  0  0  0
 34 36  1  0  0  0
 34 59  1  0  0  0
 34111  1  0  0  0
 35 44  2  0  0  0
 35 45  1  0  0  0
 35 68  1  0  0  0
 36 56  1  0  0  0
 36112  1  0  0  0
 37 39  1  0  0  0
 37 47  1  0  0  0
 37 66  1  0  0  0
 37113  1  0  0  0
 38 43  2  0  0  0
 38 46  1  0  0  0
 38 47  1  0  0  0
 39 64  1  0  0  0
 39 67  2  0  0  0
 40 52  1  0  0  0
 40 53  2  0  0  0
 40 58  1  0  0  0
 41114  1  0  0  0
 41115  1  0  0  0
 41116  1  0  0  0
 41 48  1  0  0  0
 42 43  1  0  0  0
 42 66  1  0  0  0
 42117  1  0  0  0
 42118  1  0  0  0
 43 44  1  0  0  0
 44119  1  0  0  0
 45 46  2  0  0  0
 45120  1  0  0  0
 46121  1  0  0  0
 47122  1  0  0  0
 47123  1  0  0  0
 48 56  1  0  0  0
 48 65  1  0  0  0
 48124  1  0  0  0
 49 50  1  0  0  0
 49 53  1  0  0  0
 49 64  1  0  0  0
 49125  1  0  0  0
 50 51  1  0  0  0
 50126  1  0  0  0
 50127  1  0  0  0
 51 52  1  0  0  0
 51128  1  0  0  0
 51129  1  0  0  0
 52130  1  0  0  0
 52131  1  0  0  0
 53 54  1  0  0  0
 54 55  2  0  0  0
 54132  1  0  0  0
 55 57  1  0  0  0
 55133  1  0  0  0
 56 69  2  0  0  0
 57 58  2  0  0  0
 57134  1  0  0  0
 58135  1  0  0  0
 59 60  1  0  0  0
 59 61  1  0  0  0
 59 62  1  0  0  0
 60136  1  0  0  0
 60137  1  0  0  0
 60138  1  0  0  0
 61139  1  0  0  0
 61140  1  0  0  0
 61141  1  0  0  0
 62142  1  0  0  0
 62143  1  0  0  0
 62144  1  0  0  0
 63 65  1  0  0  0
 63145  1  0  0  0
 63146  1  0  0  0
 63147  1  0  0  0
 64148  1  0  0  0
 65149  1  0  0  0
 68 86  1  0  0  0
 71 72  2  0  0  0
 71 74  1  0  0  0
 71150  1  0  0  0
 72 76  1  0  0  0
 72151  1  0  0  0
 73 74  2  0  0  0
 73 75  1  0  0  0
 73152  1  0  0  0
 74 86  1  0  0  0
 75 76  2  0  0  0
 75 87  1  0  0  0
 76 90  1  0  0  0
 77 78  1  0  0  0
 77153  1  0  0  0
 77154  1  0  0  0
 77 82  1  0  0  0
 78 82  1  0  0  0
 78155  1  0  0  0
 78156  1  0  0  0
 79 80  1  0  0  0
 79 83  1  0  0  0
 79157  1  0  0  0
 79158  1  0  0  0
 80 89  1  0  0  0
 80159  1  0  0  0
 80160  1  0  0  0
 81 83  1  0  0  0
 81 89  1  0  0  0
 81161  1  0  0  0
 81162  1  0  0  0
 82 87  1  0  0  0
 82163  1  0  0  0
 83 90  1  0  0  0
 83164  1  0  0  0
 84165  1  0  0  0
 84166  1  0  0  0
 84167  1  0  0  0
 84 88  1  0  0  0
 85 88  1  0  0  0
 85168  1  0  0  0
 85169  1  0  0  0
 85170  1  0  0  0
 86171  1  0  0  0
 86172  1  0  0  0
 87 88  1  0  0  0
 87173  1  0  0  0
 88174  1  0  0  0
 90175  1  0  0  0
M  ISO  4   1 100  68 101  86 101  89 100
M  END
> <chiral flag>
0

> <version>
0

> <s_m_source_file>
/data/baiqing/PycharmProjects/Reinvent-master-3.2/result/LINK_invent/BTK/process_docking_weight1_custom_sum_contain_oxygen_bond_distance_aromatic_linkinvent_7_9_3/rearranged_h_0144.sdf

> <i_m_source_file_index>
44

> <r_mmod_Potential_Energy-OPLS-2005>
338.683471679688

> <r_mmod_Stretch_Energy-OPLS-2005>
83.3739700317383

> <r_mmod_Bend_Energy-OPLS-2005>
189.746688842773

> <r_mmod_Torsional_Energy-OPLS-2005>
371.145935058594

> <r_mmod_Improper_Torsional_Energy-OPLS-2005>
17.4890995025635

> <r_mmod_Van_der_Waal_Energy-OPLS-2005>
150.305511474609

> <r_mmod_Electrostatic_Energy-OPLS-2005>
-342.090057373047

> <r_mmod_Solvation_Energy-OPLS-2005>
-191.235015869141

> <b_mmod_Minimization_Converged-OPLS-2005>
0

> <r_mmod_RMS_Derivative-OPLS-2005>
1.38099837303162

$$$$
45
                    3D
 Structure written by MMmdl.
167175  0  0  1  0            999 V2000
  -30.6856  -14.4793   20.6059 C   0  0  0  0  0  0
  -30.4275  -12.3264   19.4142 C   0  0  0  0  0  0
  -29.4935  -12.5173   18.2020 C   0  0  0  0  0  0
  -28.0151  -12.3728   18.6157 C   0  0  0  0  0  0
  -27.6619  -13.2028   19.8787 C   0  0  2  0  0  0
  -28.7019  -12.9718   20.9947 C   0  0  0  0  0  0
  -25.2602  -13.8164   20.5701 C   0  0  0  0  0  0
  -24.1838  -13.0439   20.9156 C   0  0  0  0  0  0
  -24.6385  -11.6902   20.8718 C   0  0  0  0  0  0
  -23.9052  -10.4291   21.0395 C   0  0  0  0  0  0
  -24.3606   -9.4213   21.9177 C   0  0  0  0  0  0
  -23.6285   -8.2247   22.0753 C   0  0  0  0  0  0
  -22.4270   -8.0280   21.3540 C   0  0  0  0  0  0
  -21.9900   -9.0251   20.4642 C   0  0  0  0  0  0
  -22.7224  -10.2132   20.3045 C   0  0  0  0  0  0
  -21.6851   -6.0734   22.5278 C   0  0  0  0  0  0
  -21.4015   -6.5639   23.8211 C   0  0  0  0  0  0
  -21.3659   -5.6792   24.9174 C   0  0  0  0  0  0
  -21.6045   -4.3055   24.7227 C   0  0  0  0  0  0
  -21.8819   -3.8145   23.4348 C   0  0  0  0  0  0
  -21.9194   -4.6961   22.3402 C   0  0  0  0  0  0
  -22.7864  -13.5242   21.1833 C   0  0  0  0  0  0
  -22.1661   -4.2147   21.0980 F   0  0  0  0  0  0
  -21.5631   -3.4538   25.7739 F   0  0  0  0  0  0
  -30.0274  -13.2995   20.4424 N   0  0  0  0  0  0
  -26.3025  -12.9319   20.3377 N   0  0  0  0  0  0
  -25.9309  -11.6478   20.5747 N   0  0  0  0  0  0
  -22.0502  -12.8230   22.0385 N   0  0  0  0  0  0
  -25.4352  -15.1890   20.4208 N   0  0  0  0  0  0
  -31.8060  -14.6935   20.1346 O   0  0  0  0  0  0
  -21.6636   -6.8876   21.4238 O   0  0  0  0  0  0
  -22.3548  -14.5554   20.6694 O   0  0  0  0  0  0
  -24.6158  -31.8678   23.2095 C   0  0  0  0  0  0
  -25.9045  -32.4824   23.8393 C   0  0  1  0  0  0
  -27.2341  -27.4206   20.1070 C   0  0  0  0  0  0
  -25.5896  -33.8622   24.2328 N   0  0  0  0  0  0
  -23.4053  -30.4886   21.5510 C   0  0  2  0  0  0
  -24.8543  -28.9474   20.1230 C   0  0  0  0  0  0
  -22.7416  -29.4655   22.5004 C   0  0  0  0  0  0
  -18.0265  -28.1376   22.8492 C   0  0  0  0  0  0
  -24.1484  -36.7317   23.2638 C   0  0  0  0  0  0
  -25.9349  -30.8249   21.3682 C   0  0  0  0  0  0
  -26.0135  -29.4533   20.7272 C   0  0  0  0  0  0
  -27.2093  -28.6936   20.7251 C   0  0  0  0  0  0
  -26.0642  -26.9338   19.4928 C   0  0  0  0  0  0
  -24.8730  -27.6839   19.5066 C   0  0  0  0  0  0
  -23.6172  -29.8172   20.1676 C   0  0  0  0  0  0
  -25.4104  -36.3114   24.0336 C   0  0  1  0  0  0
  -20.5856  -28.3667   23.1314 C   0  0  2  0  0  0
  -20.6767  -26.9406   22.5412 C   0  0  0  0  0  0
  -19.5745  -26.6390   21.5207 C   0  0  0  0  0  0
  -18.1919  -26.7923   22.1617 C   0  0  0  0  0  0
  -19.1516  -28.8837   23.2900 C   0  0  0  0  0  0
  -18.9448  -30.1442   23.8916 C   0  0  0  0  0  0
  -17.6452  -30.6590   24.0562 C   0  0  0  0  0  0
  -25.9028  -34.9481   23.5129 C   0  0  0  0  0  0
  -16.5341  -29.9092   23.6321 C   0  0  0  0  0  0
  -16.7255  -28.6501   23.0351 C   0  0  0  0  0  0
  -26.4473  -31.6603   25.0721 C   0  0  0  0  0  0
  -25.3733  -31.3700   26.1464 C   0  0  0  0  0  0
  -27.0318  -30.3048   24.6097 C   0  0  0  0  0  0
  -27.6044  -32.4330   25.7489 C   0  0  0  0  0  0
  -27.5581  -37.1809   24.8461 C   0  0  0  0  0  0
  -21.4141  -29.3038   22.3731 N   0  0  0  0  0  0
  -26.4293  -37.3795   23.9408 N   0  0  0  0  0  0
  -24.6701  -31.0755   22.1011 N   0  0  0  0  0  0
  -23.4176  -28.8199   23.3056 O   0  0  0  0  0  0
  -28.3788  -26.6625   19.9995 O   0  0  0  0  0  0
  -26.5597  -34.8938   22.4696 O   0  0  0  0  0  0
  -23.5346  -32.1443   23.7471 O   0  0  0  0  0  0
  -27.3716  -20.7222   19.8063 C   0  0  0  0  0  0
  -27.1888  -19.3678   19.4661 C   0  0  0  0  0  0
  -29.5640  -20.1883   20.6912 C   0  0  0  0  0  0
  -29.4039  -18.8227   20.3205 C   0  0  0  0  0  0
  -28.5583  -21.1608   20.4449 C   0  0  0  0  0  0
  -28.1982  -18.4111   19.7105 C   0  0  0  0  0  0
  -28.5193  -16.0606   15.7983 C   0  0  0  0  0  0
  -30.5634  -17.8259   20.4754 C   0  0  0  0  0  0
  -28.8507  -16.6307   17.1819 C   0  0  0  0  0  0
  -27.8653  -24.7146   21.5409 C   0  0  0  0  0  0
  -30.4513  -16.7888   21.6271 C   0  0  0  0  0  0
  -27.6100  -16.7726   18.0724 C   0  0  0  0  0  0
  -28.7855  -25.9004   21.1442 C   0  0  0  0  0  0
  -27.7785  -23.4817   20.6014 C   0  0  0  0  0  0
  -29.9894  -15.4431   21.2408 N   0  0  0  0  0  0
  -28.7889  -22.4785   20.8395 O   0  0  0  0  0  0
  -28.0224  -17.0817   19.4012 O   0  0  0  0  0  0
  -31.4696  -12.4448   19.1128 H   0  0  0  0  0  0
  -30.3444  -11.3121   19.8074 H   0  0  0  0  0  0
  -29.7355  -11.7943   17.4223 H   0  0  0  0  0  0
  -29.6562  -13.5029   17.7636 H   0  0  0  0  0  0
  -27.8270  -11.3155   18.8053 H   0  0  0  0  0  0
  -27.3637  -12.6531   17.7871 H   0  0  0  0  0  0
  -27.7132  -14.2528   19.5984 H   0  0  0  0  0  0
  -28.6868  -11.9295   21.3163 H   0  0  0  0  0  0
  -28.4543  -13.5508   21.8852 H   0  0  0  0  0  0
  -25.2751   -9.5694   22.4749 H   0  0  0  0  0  0
  -23.9996   -7.4642   22.7473 H   0  0  0  0  0  0
  -21.0834   -8.8767   19.8945 H   0  0  0  0  0  0
  -22.3685  -10.9668   19.6152 H   0  0  0  0  0  0
  -21.2005   -7.6146   23.9714 H   0  0  0  0  0  0
  -21.1483   -6.0522   25.9078 H   0  0  0  0  0  0
  -22.0599   -2.7607   23.2849 H   0  0  0  0  0  0
  -22.4111  -11.9881   22.4763 H   0  0  0  0  0  0
  -21.1120  -13.1257   22.2590 H   0  0  0  0  0  0
  -24.6745  -15.8454   20.5544 H   0  0  0  0  0  0
  -26.3077  -15.6398   20.1706 H   0  0  0  0  0  0
  -26.7118  -32.5534   23.1161 H   0  0  0  0  0  0
  -25.0050  -33.9785   25.0475 H   0  0  0  0  0  0
  -22.6946  -31.3051   21.4089 H   0  0  0  0  0  0
  -23.3746  -35.9650   23.3304 H   0  0  0  0  0  0
  -24.3578  -36.8927   22.2053 H   0  0  0  0  0  0
  -23.7239  -37.6523   23.6652 H   0  0  0  0  0  0
  -26.0448  -31.5842   20.5926 H   0  0  0  0  0  0
  -26.8235  -30.8863   21.9847 H   0  0  0  0  0  0
  -28.1087  -29.0855   21.1795 H   0  0  0  0  0  0
  -26.0802  -25.9722   19.0000 H   0  0  0  0  0  0
  -23.9841  -27.2894   19.0332 H   0  0  0  0  0  0
  -23.7278  -30.5903   19.4061 H   0  0  0  0  0  0
  -22.7409  -29.2366   19.8724 H   0  0  0  0  0  0
  -25.1281  -36.1984   25.0828 H   0  0  0  0  0  0
  -20.9931  -28.3243   24.1440 H   0  0  0  0  0  0
  -20.5679  -26.2280   23.3605 H   0  0  0  0  0  0
  -21.6641  -26.7471   22.1199 H   0  0  0  0  0  0
  -19.6914  -25.6302   21.1233 H   0  0  0  0  0  0
  -19.6683  -27.3211   20.6746 H   0  0  0  0  0  0
  -17.4191  -26.6667   21.4015 H   0  0  0  0  0  0
  -18.0316  -26.0064   22.9012 H   0  0  0  0  0  0
  -19.7930  -30.7241   24.2311 H   0  0  0  0  0  0
  -17.5014  -31.6273   24.5162 H   0  0  0  0  0  0
  -15.5341  -30.3003   23.7647 H   0  0  0  0  0  0
  -15.8649  -28.0829   22.7066 H   0  0  0  0  0  0
  -24.5903  -30.7059   25.7787 H   0  0  0  0  0  0
  -24.8929  -32.2851   26.4937 H   0  0  0  0  0  0
  -25.8079  -30.8845   27.0212 H   0  0  0  0  0  0
  -26.2872  -29.6798   24.1152 H   0  0  0  0  0  0
  -27.4099  -29.7296   25.4559 H   0  0  0  0  0  0
  -27.8699  -30.4375   23.9249 H   0  0  0  0  0  0
  -27.2659  -33.3624   26.2085 H   0  0  0  0  0  0
  -28.3843  -32.6901   25.0306 H   0  0  0  0  0  0
  -28.0724  -31.8442   26.5389 H   0  0  0  0  0  0
  -28.2595  -38.0116   24.7531 H   0  0  0  0  0  0
  -28.1085  -36.2649   24.6259 H   0  0  0  0  0  0
  -27.2300  -37.1424   25.8864 H   0  0  0  0  0  0
  -20.9317  -29.8763   21.6947 H   0  0  0  0  0  0
  -26.0186  -38.2873   24.1412 H   0  0  0  0  0  0
  -26.5646  -21.3968   19.5652 H   0  0  0  0  0  0
  -26.2508  -19.0719   19.0194 H   0  0  0  0  0  0
  -30.4871  -20.5056   21.1554 H   0  0  0  0  0  0
  -29.4170  -15.9824   15.1846 H   0  0  0  0  0  0
  -27.8079  -16.6949   15.2684 H   0  0  0  0  0  0
  -28.0842  -15.0634   15.8794 H   0  0  0  0  0  0
  -31.4701  -18.4099   20.6360 H   0  0  0  0  0  0
  -30.7274  -17.3211   19.5231 H   0  0  0  0  0  0
  -29.3360  -17.6014   17.0741 H   0  0  0  0  0  0
  -29.5740  -15.9773   17.6708 H   0  0  0  0  0  0
  -26.8583  -25.1100   21.6780 H   0  0  0  0  0  0
  -28.1609  -24.3611   22.5292 H   0  0  0  0  0  0
  -29.8204  -17.1798   22.4260 H   0  0  0  0  0  0
  -31.4397  -16.6639   22.0736 H   0  0  0  0  0  0
  -27.0707  -15.8265   18.0985 H   0  0  0  0  0  0
  -26.9147  -17.4958   17.6476 H   0  0  0  0  0  0
  -29.7899  -25.5218   20.9532 H   0  0  0  0  0  0
  -28.8817  -26.5777   21.9944 H   0  0  0  0  0  0
  -27.7855  -23.7890   19.5552 H   0  0  0  0  0  0
  -26.7954  -23.0591   20.8031 H   0  0  0  0  0  0
  -29.0589  -15.1892   21.5381 H   0  0  0  0  0  0
  1 25  1  0  0  0
  1 30  2  0  0  0
  1 85  1  0  0  0
  2  3  1  0  0  0
  2 25  1  0  0  0
  2 88  1  0  0  0
  2 89  1  0  0  0
  3  4  1  0  0  0
  3 90  1  0  0  0
  3 91  1  0  0  0
  4  5  1  0  0  0
  4 92  1  0  0  0
  4 93  1  0  0  0
  5  6  1  0  0  0
  5 26  1  0  0  0
  5 94  1  0  0  0
  6 25  1  0  0  0
  6 95  1  0  0  0
  6 96  1  0  0  0
  7  8  2  0  0  0
  7 26  1  0  0  0
  7 29  1  0  0  0
  8  9  1  0  0  0
  8 22  1  0  0  0
  9 10  1  0  0  0
  9 27  2  0  0  0
 10 11  2  0  0  0
 10 15  1  0  0  0
 11 12  1  0  0  0
 11 97  1  0  0  0
 12 13  2  0  0  0
 12 98  1  0  0  0
 13 14  1  0  0  0
 13 31  1  0  0  0
 14 15  2  0  0  0
 14 99  1  0  0  0
 15100  1  0  0  0
 16 17  2  0  0  0
 16 21  1  0  0  0
 16 31  1  0  0  0
 17 18  1  0  0  0
 17101  1  0  0  0
 18 19  2  0  0  0
 18102  1  0  0  0
 19 20  1  0  0  0
 19 24  1  0  0  0
 20 21  2  0  0  0
 20103  1  0  0  0
 21 23  1  0  0  0
 22 28  1  0  0  0
 22 32  2  0  0  0
 26 27  1  0  0  0
 28104  1  0  0  0
 28105  1  0  0  0
 29106  1  0  0  0
 29107  1  0  0  0
 33 34  1  0  0  0
 33 66  1  0  0  0
 33 70  2  0  0  0
 34 36  1  0  0  0
 34 59  1  0  0  0
 34108  1  0  0  0
 35 44  2  0  0  0
 35 45  1  0  0  0
 35 68  1  0  0  0
 36 56  1  0  0  0
 36109  1  0  0  0
 37 39  1  0  0  0
 37 47  1  0  0  0
 37 66  1  0  0  0
 37110  1  0  0  0
 38 43  2  0  0  0
 38 46  1  0  0  0
 38 47  1  0  0  0
 39 64  1  0  0  0
 39 67  2  0  0  0
 40 52  1  0  0  0
 40 53  2  0  0  0
 40 58  1  0  0  0
 41111  1  0  0  0
 41112  1  0  0  0
 41113  1  0  0  0
 41 48  1  0  0  0
 42 43  1  0  0  0
 42 66  1  0  0  0
 42114  1  0  0  0
 42115  1  0  0  0
 43 44  1  0  0  0
 44116  1  0  0  0
 45 46  2  0  0  0
 45117  1  0  0  0
 46118  1  0  0  0
 47119  1  0  0  0
 47120  1  0  0  0
 48 56  1  0  0  0
 48 65  1  0  0  0
 48121  1  0  0  0
 49 50  1  0  0  0
 49 53  1  0  0  0
 49 64  1  0  0  0
 49122  1  0  0  0
 50 51  1  0  0  0
 50123  1  0  0  0
 50124  1  0  0  0
 51 52  1  0  0  0
 51125  1  0  0  0
 51126  1  0  0  0
 52127  1  0  0  0
 52128  1  0  0  0
 53 54  1  0  0  0
 54 55  2  0  0  0
 54129  1  0  0  0
 55 57  1  0  0  0
 55130  1  0  0  0
 56 69  2  0  0  0
 57 58  2  0  0  0
 57131  1  0  0  0
 58132  1  0  0  0
 59 60  1  0  0  0
 59 61  1  0  0  0
 59 62  1  0  0  0
 60133  1  0  0  0
 60134  1  0  0  0
 60135  1  0  0  0
 61136  1  0  0  0
 61137  1  0  0  0
 61138  1  0  0  0
 62139  1  0  0  0
 62140  1  0  0  0
 62141  1  0  0  0
 63 65  1  0  0  0
 63142  1  0  0  0
 63143  1  0  0  0
 63144  1  0  0  0
 64145  1  0  0  0
 65146  1  0  0  0
 68 83  1  0  0  0
 71 72  2  0  0  0
 71 75  1  0  0  0
 71147  1  0  0  0
 72 76  1  0  0  0
 72148  1  0  0  0
 73 74  1  0  0  0
 73 75  2  0  0  0
 73149  1  0  0  0
 74 76  2  0  0  0
 74 78  1  0  0  0
 75 86  1  0  0  0
 76 87  1  0  0  0
 77 79  1  0  0  0
 77150  1  0  0  0
 77151  1  0  0  0
 77152  1  0  0  0
 78 81  1  0  0  0
 78153  1  0  0  0
 78154  1  0  0  0
 79 82  1  0  0  0
 79155  1  0  0  0
 79156  1  0  0  0
 80 83  1  0  0  0
 80 84  1  0  0  0
 80157  1  0  0  0
 80158  1  0  0  0
 81 85  1  0  0  0
 81159  1  0  0  0
 81160  1  0  0  0
 82 87  1  0  0  0
 82161  1  0  0  0
 82162  1  0  0  0
 83163  1  0  0  0
 83164  1  0  0  0
 84 86  1  0  0  0
 84165  1  0  0  0
 84166  1  0  0  0
 85167  1  0  0  0
M  ISO  4   1 100  68 101  83 101  85 100
M  END
> <chiral flag>
0

> <version>
0

> <s_m_source_file>
/data/baiqing/PycharmProjects/Reinvent-master-3.2/result/LINK_invent/BTK/process_docking_weight1_custom_sum_contain_oxygen_bond_distance_aromatic_linkinvent_7_9_3/rearranged_h_0144.sdf

> <i_m_source_file_index>
45

> <r_mmod_Potential_Energy-OPLS-2005>
-60.8549385070801

> <r_mmod_Stretch_Energy-OPLS-2005>
41.5692253112793

> <r_mmod_Bend_Energy-OPLS-2005>
119.358535766602

> <r_mmod_Torsional_Energy-OPLS-2005>
254.8095703125

> <r_mmod_Improper_Torsional_Energy-OPLS-2005>
2.66543841362

> <r_mmod_Van_der_Waal_Energy-OPLS-2005>
130.9462890625

> <r_mmod_Electrostatic_Energy-OPLS-2005>
-421.326171875

> <r_mmod_Solvation_Energy-OPLS-2005>
-201.796905517578

> <b_mmod_Minimization_Converged-OPLS-2005>
0

> <r_mmod_RMS_Derivative-OPLS-2005>
0.849439918994904

$$$$
46
                    3D
 Structure written by MMmdl.
167176  0  0  1  0            999 V2000
  -30.7131  -14.5958   20.4562 C   0  0  0  0  0  0
  -30.4404  -12.3716   19.4392 C   0  0  0  0  0  0
  -29.5233  -12.4642   18.2060 C   0  0  0  0  0  0
  -28.0482  -12.2935   18.6246 C   0  0  0  0  0  0
  -27.6483  -13.2181   19.8155 C   0  0  2  0  0  0
  -28.6959  -13.1477   20.9513 C   0  0  0  0  0  0
  -25.2718  -13.8164   20.5764 C   0  0  0  0  0  0
  -24.1920  -13.0459   20.9194 C   0  0  0  0  0  0
  -24.6475  -11.6925   20.8670 C   0  0  0  0  0  0
  -23.9136  -10.4300   21.0316 C   0  0  0  0  0  0
  -24.3689   -9.4236   21.9083 C   0  0  0  0  0  0
  -23.6350   -8.2272   22.0677 C   0  0  0  0  0  0
  -22.4297   -8.0318   21.3476 C   0  0  0  0  0  0
  -21.9981   -9.0310   20.4568 C   0  0  0  0  0  0
  -22.7331  -10.2161   20.2985 C   0  0  0  0  0  0
  -21.6871   -6.0810   22.5305 C   0  0  0  0  0  0
  -21.3985   -6.5661   23.8254 C   0  0  0  0  0  0
  -21.3667   -5.6758   24.9196 C   0  0  0  0  0  0
  -21.6086   -4.3031   24.7168 C   0  0  0  0  0  0
  -21.8820   -3.8170   23.4273 C   0  0  0  0  0  0
  -21.9160   -4.7025   22.3378 C   0  0  0  0  0  0
  -22.7932  -13.5310   21.1805 C   0  0  0  0  0  0
  -22.1648   -4.2258   21.0916 F   0  0  0  0  0  0
  -21.5655   -3.4474   25.7653 F   0  0  0  0  0  0
  -30.0158  -13.4243   20.3745 N   0  0  0  0  0  0
  -26.3051  -12.9364   20.3111 N   0  0  0  0  0  0
  -25.9378  -11.6517   20.5582 N   0  0  0  0  0  0
  -22.0411  -12.8402   22.0302 N   0  0  0  0  0  0
  -25.4549  -15.1880   20.4572 N   0  0  0  0  0  0
  -31.9343  -14.6285   20.2812 O   0  0  0  0  0  0
  -21.6620   -6.8953   21.4273 O   0  0  0  0  0  0
  -22.3700  -14.5599   20.6565 O   0  0  0  0  0  0
  -24.6183  -31.8647   23.2032 C   0  0  0  0  0  0
  -25.9054  -32.4795   23.8397 C   0  0  1  0  0  0
  -27.2608  -27.4356   20.1023 C   0  0  0  0  0  0
  -25.5867  -33.8577   24.2329 N   0  0  0  0  0  0
  -23.4115  -30.4900   21.5356 C   0  0  2  0  0  0
  -24.8677  -28.9424   20.1261 C   0  0  0  0  0  0
  -22.7454  -29.4740   22.4892 C   0  0  0  0  0  0
  -18.0344  -28.1447   22.8515 C   0  0  0  0  0  0
  -24.1474  -36.7319   23.2654 C   0  0  0  0  0  0
  -25.9401  -30.8248   21.3620 C   0  0  0  0  0  0
  -26.0233  -29.4487   20.7336 C   0  0  0  0  0  0
  -27.2227  -28.6995   20.7383 C   0  0  0  0  0  0
  -26.0918  -26.9429   19.4891 C   0  0  0  0  0  0
  -24.8908  -27.6820   19.5046 C   0  0  0  0  0  0
  -23.6286  -29.8111   20.1576 C   0  0  0  0  0  0
  -25.4073  -36.3060   24.0372 C   0  0  1  0  0  0
  -20.5897  -28.3764   23.1277 C   0  0  2  0  0  0
  -20.6826  -26.9485   22.5432 C   0  0  0  0  0  0
  -19.5789  -26.6450   21.5250 C   0  0  0  0  0  0
  -18.1949  -26.8001   22.1614 C   0  0  0  0  0  0
  -19.1571  -28.8918   23.2907 C   0  0  0  0  0  0
  -18.9513  -30.1515   23.8939 C   0  0  0  0  0  0
  -17.6500  -30.6636   24.0630 C   0  0  0  0  0  0
  -25.8994  -34.9451   23.5129 C   0  0  0  0  0  0
  -16.5394  -29.9179   23.6316 C   0  0  0  0  0  0
  -16.7320  -28.6596   23.0325 C   0  0  0  0  0  0
  -26.4479  -31.6581   25.0720 C   0  0  0  0  0  0
  -25.3784  -31.3746   26.1503 C   0  0  0  0  0  0
  -27.0354  -30.3041   24.6118 C   0  0  0  0  0  0
  -27.6091  -32.4290   25.7404 C   0  0  0  0  0  0
  -27.5569  -37.1796   24.8461 C   0  0  0  0  0  0
  -21.4160  -29.3126   22.3653 N   0  0  0  0  0  0
  -26.4256  -37.3736   23.9417 N   0  0  0  0  0  0
  -24.6721  -31.0777   22.0932 N   0  0  0  0  0  0
  -23.4199  -28.8292   23.2950 O   0  0  0  0  0  0
  -28.4037  -26.6692   19.9677 O   0  0  0  0  0  0
  -26.5577  -34.8937   22.4709 O   0  0  0  0  0  0
  -23.5364  -32.1448   23.7445 O   0  0  0  0  0  0
  -29.6796  -20.1680   20.2840 C   0  0  0  0  0  0
  -30.0581  -21.8439   18.5955 C   0  0  0  0  0  0
  -29.7333  -19.1612   19.2849 C   0  0  0  0  0  0
  -29.8095  -21.5395   19.9513 C   0  0  0  0  0  0
  -29.9493  -19.6053   17.9432 C   0  0  0  0  0  0
  -30.5080  -16.6331   19.1348 C   0  0  0  0  0  0
  -29.4979  -17.6654   19.6336 C   0  0  1  0  0  0
  -29.7400  -16.9408   21.0009 C   0  0  1  0  0  0
  -29.9776  -18.6779   16.7300 C   0  0  0  0  0  0
  -28.6462  -16.6603   22.0768 C   0  0  0  0  0  0
  -29.8973  -24.9820   20.9348 C   0  0  0  0  0  0
  -27.9675  -17.8631   22.7608 C   0  0  0  0  0  0
  -29.1134  -26.3087   21.1488 C   0  0  0  0  0  0
  -29.0276  -23.7417   20.6471 C   0  0  0  0  0  0
  -30.1349  -20.9073   17.6283 N   0  0  0  0  0  0
  -29.9877  -15.7173   20.1706 N   0  0  0  0  0  0
  -27.1383  -17.3792   23.8138 O   0  0  0  0  0  0
  -29.7184  -22.5072   20.9396 O   0  0  0  0  0  0
  -31.4851  -12.4882   19.1315 H   0  0  0  0  0  0
  -30.3656  -11.3909   19.9113 H   0  0  0  0  0  0
  -29.8026  -11.6955   17.4854 H   0  0  0  0  0  0
  -29.6470  -13.4209   17.6975 H   0  0  0  0  0  0
  -27.9178  -11.2506   18.9185 H   0  0  0  0  0  0
  -27.3897  -12.4323   17.7611 H   0  0  0  0  0  0
  -27.6382  -14.2345   19.4176 H   0  0  0  0  0  0
  -28.7016  -12.1738   21.4291 H   0  0  0  0  0  0
  -28.4579  -13.8696   21.7320 H   0  0  0  0  0  0
  -25.2836   -9.5773   22.4632 H   0  0  0  0  0  0
  -24.0086   -7.4726   22.7459 H   0  0  0  0  0  0
  -21.0882   -8.8887   19.8922 H   0  0  0  0  0  0
  -22.3795  -10.9723   19.6082 H   0  0  0  0  0  0
  -21.1956   -7.6132   23.9848 H   0  0  0  0  0  0
  -21.1494   -6.0391   25.9120 H   0  0  0  0  0  0
  -22.0565   -2.7644   23.2678 H   0  0  0  0  0  0
  -22.3915  -12.0177   22.4972 H   0  0  0  0  0  0
  -21.0983  -13.1458   22.2135 H   0  0  0  0  0  0
  -24.7461  -15.8639   20.7201 H   0  0  0  0  0  0
  -26.3645  -15.6057   20.3135 H   0  0  0  0  0  0
  -26.7128  -32.5525   23.1157 H   0  0  0  0  0  0
  -24.9957  -33.9662   25.0447 H   0  0  0  0  0  0
  -22.7123  -31.3134   21.3836 H   0  0  0  0  0  0
  -23.3675  -35.9693   23.3288 H   0  0  0  0  0  0
  -24.3629  -36.8946   22.2062 H   0  0  0  0  0  0
  -23.7299  -37.6567   23.6687 H   0  0  0  0  0  0
  -26.0437  -31.5621   20.5679 H   0  0  0  0  0  0
  -26.8366  -30.9093   21.9646 H   0  0  0  0  0  0
  -28.1127  -29.1002   21.2035 H   0  0  0  0  0  0
  -26.1198  -25.9879   18.9886 H   0  0  0  0  0  0
  -24.0076  -27.2822   19.0270 H   0  0  0  0  0  0
  -23.7589  -30.5780   19.3913 H   0  0  0  0  0  0
  -22.7608  -29.2270   19.8527 H   0  0  0  0  0  0
  -25.1255  -36.1865   25.0847 H   0  0  0  0  0  0
  -21.0061  -28.3354   24.1373 H   0  0  0  0  0  0
  -20.5722  -26.2390   23.3626 H   0  0  0  0  0  0
  -21.6693  -26.7533   22.1205 H   0  0  0  0  0  0
  -19.6907  -25.6373   21.1284 H   0  0  0  0  0  0
  -19.6711  -27.3285   20.6769 H   0  0  0  0  0  0
  -17.4231  -26.6842   21.3987 H   0  0  0  0  0  0
  -18.0313  -26.0192   22.9027 H   0  0  0  0  0  0
  -19.7989  -30.7361   24.2324 H   0  0  0  0  0  0
  -17.5060  -31.6312   24.5276 H   0  0  0  0  0  0
  -15.5399  -30.3083   23.7654 H   0  0  0  0  0  0
  -15.8723  -28.0962   22.6927 H   0  0  0  0  0  0
  -24.5819  -30.7209   25.7904 H   0  0  0  0  0  0
  -24.9122  -32.2945   26.5050 H   0  0  0  0  0  0
  -25.8140  -30.8836   27.0208 H   0  0  0  0  0  0
  -26.2910  -29.6663   24.1302 H   0  0  0  0  0  0
  -27.4329  -29.7372   25.4555 H   0  0  0  0  0  0
  -27.8637  -30.4404   23.9145 H   0  0  0  0  0  0
  -27.2726  -33.3509   26.2135 H   0  0  0  0  0  0
  -28.3754  -32.6964   25.0123 H   0  0  0  0  0  0
  -28.0918  -31.8330   26.5144 H   0  0  0  0  0  0
  -28.2576  -38.0092   24.7465 H   0  0  0  0  0  0
  -28.1078  -36.2646   24.6274 H   0  0  0  0  0  0
  -27.2360  -37.1422   25.8887 H   0  0  0  0  0  0
  -20.9332  -29.8798   21.6821 H   0  0  0  0  0  0
  -26.0123  -38.2804   24.1424 H   0  0  0  0  0  0
  -29.5079  -19.9020   21.3185 H   0  0  0  0  0  0
  -30.1997  -22.8621   18.2632 H   0  0  0  0  0  0
  -31.5459  -16.9608   19.2755 H   0  0  0  0  0  0
  -30.3756  -16.2935   18.1085 H   0  0  0  0  0  0
  -28.5001  -17.4164   19.2536 H   0  0  0  0  0  0
  -30.6556  -17.3282   21.4571 H   0  0  0  0  0  0
  -29.2187  -17.8998   16.8098 H   0  0  0  0  0  0
  -30.9629  -18.2188   16.6213 H   0  0  0  0  0  0
  -29.7745  -19.2131   15.7983 H   0  0  0  0  0  0
  -29.1091  -16.0807   22.8753 H   0  0  0  0  0  0
  -27.8487  -16.0353   21.6694 H   0  0  0  0  0  0
  -30.4807  -24.7925   21.8372 H   0  0  0  0  0  0
  -30.6416  -25.1103   20.1440 H   0  0  0  0  0  0
  -27.3593  -18.4308   22.0540 H   0  0  0  0  0  0
  -28.7102  -18.5394   23.1835 H   0  0  0  0  0  0
  -29.8005  -27.1211   21.3998 H   0  0  0  0  0  0
  -28.4281  -26.1981   21.9882 H   0  0  0  0  0  0
  -28.6035  -23.7863   19.6456 H   0  0  0  0  0  0
  -28.1697  -23.7609   21.3146 H   0  0  0  0  0  0
  -26.5943  -18.0842   24.1504 H   0  0  0  0  0  0
  1 25  1  0  0  0
  1 30  2  0  0  0
  1 86  1  0  0  0
  2  3  1  0  0  0
  2 25  1  0  0  0
  2 89  1  0  0  0
  2 90  1  0  0  0
  3  4  1  0  0  0
  3 91  1  0  0  0
  3 92  1  0  0  0
  4  5  1  0  0  0
  4 93  1  0  0  0
  4 94  1  0  0  0
  5  6  1  0  0  0
  5 26  1  0  0  0
  5 95  1  0  0  0
  6 25  1  0  0  0
  6 96  1  0  0  0
  6 97  1  0  0  0
  7  8  2  0  0  0
  7 26  1  0  0  0
  7 29  1  0  0  0
  8  9  1  0  0  0
  8 22  1  0  0  0
  9 10  1  0  0  0
  9 27  2  0  0  0
 10 11  2  0  0  0
 10 15  1  0  0  0
 11 12  1  0  0  0
 11 98  1  0  0  0
 12 13  2  0  0  0
 12 99  1  0  0  0
 13 14  1  0  0  0
 13 31  1  0  0  0
 14 15  2  0  0  0
 14100  1  0  0  0
 15101  1  0  0  0
 16 17  2  0  0  0
 16 21  1  0  0  0
 16 31  1  0  0  0
 17 18  1  0  0  0
 17102  1  0  0  0
 18 19  2  0  0  0
 18103  1  0  0  0
 19 20  1  0  0  0
 19 24  1  0  0  0
 20 21  2  0  0  0
 20104  1  0  0  0
 21 23  1  0  0  0
 22 28  1  0  0  0
 22 32  2  0  0  0
 26 27  1  0  0  0
 28105  1  0  0  0
 28106  1  0  0  0
 29107  1  0  0  0
 29108  1  0  0  0
 33 34  1  0  0  0
 33 66  1  0  0  0
 33 70  2  0  0  0
 34 36  1  0  0  0
 34 59  1  0  0  0
 34109  1  0  0  0
 35 44  2  0  0  0
 35 45  1  0  0  0
 35 68  1  0  0  0
 36 56  1  0  0  0
 36110  1  0  0  0
 37 39  1  0  0  0
 37 47  1  0  0  0
 37 66  1  0  0  0
 37111  1  0  0  0
 38 43  2  0  0  0
 38 46  1  0  0  0
 38 47  1  0  0  0
 39 64  1  0  0  0
 39 67  2  0  0  0
 40 52  1  0  0  0
 40 53  2  0  0  0
 40 58  1  0  0  0
 41112  1  0  0  0
 41113  1  0  0  0
 41114  1  0  0  0
 41 48  1  0  0  0
 42 43  1  0  0  0
 42 66  1  0  0  0
 42115  1  0  0  0
 42116  1  0  0  0
 43 44  1  0  0  0
 44117  1  0  0  0
 45 46  2  0  0  0
 45118  1  0  0  0
 46119  1  0  0  0
 47120  1  0  0  0
 47121  1  0  0  0
 48 56  1  0  0  0
 48 65  1  0  0  0
 48122  1  0  0  0
 49 50  1  0  0  0
 49 53  1  0  0  0
 49 64  1  0  0  0
 49123  1  0  0  0
 50 51  1  0  0  0
 50124  1  0  0  0
 50125  1  0  0  0
 51 52  1  0  0  0
 51126  1  0  0  0
 51127  1  0  0  0
 52128  1  0  0  0
 52129  1  0  0  0
 53 54  1  0  0  0
 54 55  2  0  0  0
 54130  1  0  0  0
 55 57  1  0  0  0
 55131  1  0  0  0
 56 69  2  0  0  0
 57 58  2  0  0  0
 57132  1  0  0  0
 58133  1  0  0  0
 59 60  1  0  0  0
 59 61  1  0  0  0
 59 62  1  0  0  0
 60134  1  0  0  0
 60135  1  0  0  0
 60136  1  0  0  0
 61137  1  0  0  0
 61138  1  0  0  0
 61139  1  0  0  0
 62140  1  0  0  0
 62141  1  0  0  0
 62142  1  0  0  0
 63 65  1  0  0  0
 63143  1  0  0  0
 63144  1  0  0  0
 63145  1  0  0  0
 64146  1  0  0  0
 65147  1  0  0  0
 68 83  1  0  0  0
 71 73  2  0  0  0
 71 74  1  0  0  0
 71148  1  0  0  0
 72 74  2  0  0  0
 72 85  1  0  0  0
 72149  1  0  0  0
 73 75  1  0  0  0
 73 77  1  0  0  0
 74 88  1  0  0  0
 75 79  1  0  0  0
 75 85  2  0  0  0
 76 77  1  0  0  0
 76 86  1  0  0  0
 76150  1  0  0  0
 76151  1  0  0  0
 77 78  1  0  0  0
 77152  1  0  0  0
 78 80  1  0  0  0
 78 86  1  0  0  0
 78153  1  0  0  0
 79154  1  0  0  0
 79155  1  0  0  0
 79156  1  0  0  0
 80 82  1  0  0  0
 80157  1  0  0  0
 80158  1  0  0  0
 81 83  1  0  0  0
 81 84  1  0  0  0
 81159  1  0  0  0
 81160  1  0  0  0
 82 87  1  0  0  0
 82161  1  0  0  0
 82162  1  0  0  0
 83163  1  0  0  0
 83164  1  0  0  0
 84 88  1  0  0  0
 84165  1  0  0  0
 84166  1  0  0  0
 87167  1  0  0  0
M  ISO  4   1 100  68 101  83 101  86 100
M  END
> <chiral flag>
0

> <version>
0

> <s_m_source_file>
/data/baiqing/PycharmProjects/Reinvent-master-3.2/result/LINK_invent/BTK/process_docking_weight1_custom_sum_contain_oxygen_bond_distance_aromatic_linkinvent_7_9_3/rearranged_h_0144.sdf

> <i_m_source_file_index>
46

> <r_mmod_Potential_Energy-OPLS-2005>
34.0863876342773

> <r_mmod_Stretch_Energy-OPLS-2005>
52.0008392333984

> <r_mmod_Bend_Energy-OPLS-2005>
135.443313598633

> <r_mmod_Torsional_Energy-OPLS-2005>
309.524810791016

> <r_mmod_Improper_Torsional_Energy-OPLS-2005>
26.3746299743652

> <r_mmod_Van_der_Waal_Energy-OPLS-2005>
133.778228759766

> <r_mmod_Electrostatic_Energy-OPLS-2005>
-433.789459228516

> <r_mmod_Solvation_Energy-OPLS-2005>
-229.803070068359

> <b_mmod_Minimization_Converged-OPLS-2005>
0

> <r_mmod_RMS_Derivative-OPLS-2005>
10.3834095001221

$$$$
47
                    3D
 Structure written by MMmdl.
164173  0  0  1  0            999 V2000
  -30.7236  -14.4475   20.6108 C   0  0  0  0  0  0
  -30.4113  -12.3002   19.4364 C   0  0  0  0  0  0
  -29.4967  -12.5275   18.2170 C   0  0  0  0  0  0
  -28.0120  -12.3909   18.6139 C   0  0  0  0  0  0
  -27.6584  -13.2155   19.8803 C   0  0  2  0  0  0
  -28.6962  -12.9948   21.0039 C   0  0  0  0  0  0
  -25.2561  -13.8214   20.5743 C   0  0  0  0  0  0
  -24.1782  -13.0445   20.9190 C   0  0  0  0  0  0
  -24.6309  -11.6924   20.8665 C   0  0  0  0  0  0
  -23.8983  -10.4308   21.0316 C   0  0  0  0  0  0
  -24.3551   -9.4246   21.9121 C   0  0  0  0  0  0
  -23.6261   -8.2256   22.0723 C   0  0  0  0  0  0
  -22.4269   -8.0232   21.3509 C   0  0  0  0  0  0
  -21.9839   -9.0183   20.4625 C   0  0  0  0  0  0
  -22.7120  -10.2101   20.3003 C   0  0  0  0  0  0
  -21.6880   -6.0666   22.5243 C   0  0  0  0  0  0
  -21.4015   -6.5586   23.8153 C   0  0  0  0  0  0
  -21.3700   -5.6764   24.9146 C   0  0  0  0  0  0
  -21.6055   -4.3014   24.7199 C   0  0  0  0  0  0
  -21.8823   -3.8089   23.4332 C   0  0  0  0  0  0
  -21.9202   -4.6888   22.3377 C   0  0  0  0  0  0
  -22.7806  -13.5238   21.1841 C   0  0  0  0  0  0
  -22.1677   -4.2078   21.0963 F   0  0  0  0  0  0
  -21.5666   -3.4518   25.7734 F   0  0  0  0  0  0
  -30.0331  -13.2857   20.4618 N   0  0  0  0  0  0
  -26.2988  -12.9368   20.3375 N   0  0  0  0  0  0
  -25.9251  -11.6524   20.5732 N   0  0  0  0  0  0
  -22.0440  -12.8230   22.0430 N   0  0  0  0  0  0
  -25.4258  -15.1899   20.4185 N   0  0  0  0  0  0
  -31.8281  -14.6329   20.0940 O   0  0  0  0  0  0
  -21.6655   -6.8795   21.4197 O   0  0  0  0  0  0
  -22.3483  -14.5492   20.6639 O   0  0  0  0  0  0
  -24.6173  -31.8653   23.2049 C   0  0  0  0  0  0
  -25.9066  -32.4803   23.8355 C   0  0  1  0  0  0
  -27.2298  -27.4023   20.0981 C   0  0  0  0  0  0
  -25.5907  -33.8591   24.2290 N   0  0  0  0  0  0
  -23.4084  -30.4851   21.5439 C   0  0  2  0  0  0
  -24.8548  -28.9442   20.1135 C   0  0  0  0  0  0
  -22.7395  -29.4662   22.4928 C   0  0  0  0  0  0
  -18.0255  -28.1416   22.8470 C   0  0  0  0  0  0
  -24.1496  -36.7313   23.2629 C   0  0  0  0  0  0
  -25.9397  -30.8146   21.3691 C   0  0  0  0  0  0
  -26.0153  -29.4484   20.7139 C   0  0  0  0  0  0
  -27.2052  -28.6844   20.7003 C   0  0  0  0  0  0
  -26.0494  -26.9186   19.5011 C   0  0  0  0  0  0
  -24.8673  -27.6816   19.4975 C   0  0  0  0  0  0
  -23.6186  -29.8101   20.1598 C   0  0  0  0  0  0
  -25.4112  -36.3113   24.0332 C   0  0  1  0  0  0
  -20.5859  -28.3722   23.1280 C   0  0  2  0  0  0
  -20.6780  -26.9457   22.5385 C   0  0  0  0  0  0
  -19.5780  -26.6417   21.5178 C   0  0  0  0  0  0
  -18.1952  -26.7968   22.1595 C   0  0  0  0  0  0
  -19.1516  -28.8873   23.2892 C   0  0  0  0  0  0
  -18.9445  -30.1463   23.8950 C   0  0  0  0  0  0
  -17.6466  -30.6633   24.0568 C   0  0  0  0  0  0
  -25.9012  -34.9477   23.5106 C   0  0  0  0  0  0
  -16.5352  -29.9145   23.6335 C   0  0  0  0  0  0
  -16.7247  -28.6536   23.0375 C   0  0  0  0  0  0
  -26.4471  -31.6614   25.0707 C   0  0  0  0  0  0
  -25.3723  -31.3763   26.1456 C   0  0  0  0  0  0
  -27.0307  -30.3055   24.6124 C   0  0  0  0  0  0
  -27.6050  -32.4345   25.7477 C   0  0  0  0  0  0
  -27.5586  -37.1816   24.8442 C   0  0  0  0  0  0
  -21.4114  -29.3074   22.3650 N   0  0  0  0  0  0
  -26.4291  -37.3798   23.9390 N   0  0  0  0  0  0
  -24.6728  -31.0690   22.0979 N   0  0  0  0  0  0
  -23.4100  -28.8208   23.3019 O   0  0  0  0  0  0
  -28.4115  -26.6895   20.0209 O   0  0  0  0  0  0
  -26.5551  -34.8941   22.4648 O   0  0  0  0  0  0
  -23.5359  -32.1464   23.7414 O   0  0  0  0  0  0
  -27.8393  -21.7634   20.1678 C   0  0  0  0  0  0
  -28.3842  -20.4978   20.4765 C   0  0  0  0  0  0
  -30.0639  -22.5995   19.6906 C   0  0  0  0  0  0
  -30.6278  -21.3500   20.0407 C   0  0  0  0  0  0
  -28.6766  -22.8298   19.7699 C   0  0  0  0  0  0
  -29.7842  -20.2757   20.4285 C   0  0  0  0  0  0
  -32.9013  -20.5197   21.1023 C   0  0  0  0  0  0
  -32.8868  -22.0264   21.0337 C   0  0  0  0  0  0
  -32.1269  -21.2235   20.0033 C   0  0  0  0  0  0
  -32.6458  -21.1907   18.5704 C   0  0  0  0  0  0
  -28.1115  -24.2136   19.4251 C   0  0  0  0  0  0
  -30.6030  -16.8052   21.4168 C   0  0  0  0  0  0
  -28.4488  -25.3161   20.4704 C   0  0  0  0  0  0
  -29.5967  -17.9180   21.0361 C   0  0  0  0  0  0
  -30.0870  -15.4361   21.2617 N   0  0  0  0  0  0
  -30.3809  -19.0736   20.7509 O   0  0  0  0  0  0
  -31.4614  -12.3787   19.1456 H   0  0  0  0  0  0
  -30.2961  -11.2890   19.8277 H   0  0  0  0  0  0
  -29.7400  -11.8191   17.4241 H   0  0  0  0  0  0
  -29.6744  -13.5269   17.8140 H   0  0  0  0  0  0
  -27.8109  -11.3327   18.7881 H   0  0  0  0  0  0
  -27.3741  -12.6934   17.7801 H   0  0  0  0  0  0
  -27.7027  -14.2670   19.5927 H   0  0  0  0  0  0
  -28.6660  -11.9609   21.3544 H   0  0  0  0  0  0
  -28.4550  -13.6070   21.8718 H   0  0  0  0  0  0
  -25.2659   -9.5792   22.4718 H   0  0  0  0  0  0
  -23.9995   -7.4674   22.7435 H   0  0  0  0  0  0
  -21.0773   -8.8588   19.8959 H   0  0  0  0  0  0
  -22.3442  -10.9588   19.6125 H   0  0  0  0  0  0
  -21.1973   -7.6098   23.9623 H   0  0  0  0  0  0
  -21.1572   -6.0518   25.9051 H   0  0  0  0  0  0
  -22.0577   -2.7551   23.2839 H   0  0  0  0  0  0
  -22.4055  -11.9929   22.4899 H   0  0  0  0  0  0
  -21.1010  -13.1189   22.2542 H   0  0  0  0  0  0
  -24.6568  -15.8447   20.5201 H   0  0  0  0  0  0
  -26.2814  -15.6333   20.1044 H   0  0  0  0  0  0
  -26.7108  -32.5507   23.1087 H   0  0  0  0  0  0
  -25.0182  -33.9714   25.0538 H   0  0  0  0  0  0
  -22.7115  -31.3120   21.3980 H   0  0  0  0  0  0
  -23.3766  -35.9631   23.3290 H   0  0  0  0  0  0
  -24.3595  -36.8920   22.2037 H   0  0  0  0  0  0
  -23.7253  -37.6519   23.6647 H   0  0  0  0  0  0
  -26.0545  -31.5794   20.6005 H   0  0  0  0  0  0
  -26.8252  -30.8683   21.9916 H   0  0  0  0  0  0
  -28.1010  -29.0665   21.1659 H   0  0  0  0  0  0
  -26.0508  -25.9668   19.0021 H   0  0  0  0  0  0
  -23.9816  -27.2927   19.0139 H   0  0  0  0  0  0
  -23.7335  -30.5857   19.4016 H   0  0  0  0  0  0
  -22.7462  -29.2240   19.8618 H   0  0  0  0  0  0
  -25.1317  -36.1956   25.0823 H   0  0  0  0  0  0
  -20.9933  -28.3310   24.1417 H   0  0  0  0  0  0
  -20.5697  -26.2332   23.3567 H   0  0  0  0  0  0
  -21.6661  -26.7544   22.1193 H   0  0  0  0  0  0
  -19.6972  -25.6318   21.1260 H   0  0  0  0  0  0
  -19.6767  -27.3183   20.6673 H   0  0  0  0  0  0
  -17.4217  -26.6663   21.4003 H   0  0  0  0  0  0
  -18.0396  -26.0118   22.9009 H   0  0  0  0  0  0
  -19.7923  -30.7217   24.2400 H   0  0  0  0  0  0
  -17.5039  -31.6322   24.5165 H   0  0  0  0  0  0
  -15.5374  -30.3091   23.7625 H   0  0  0  0  0  0
  -15.8624  -28.0852   22.7150 H   0  0  0  0  0  0
  -24.5834  -30.7170   25.7785 H   0  0  0  0  0  0
  -24.8982  -32.2944   26.4955 H   0  0  0  0  0  0
  -25.8039  -30.8883   27.0207 H   0  0  0  0  0  0
  -26.2849  -29.6818   24.1150 H   0  0  0  0  0  0
  -27.4034  -29.7288   25.4602 H   0  0  0  0  0  0
  -27.8729  -30.4378   23.9311 H   0  0  0  0  0  0
  -27.2652  -33.3628   26.2105 H   0  0  0  0  0  0
  -28.3841  -32.6931   25.0283 H   0  0  0  0  0  0
  -28.0754  -31.8448   26.5365 H   0  0  0  0  0  0
  -28.2597  -38.0130   24.7534 H   0  0  0  0  0  0
  -28.1109  -36.2664   24.6250 H   0  0  0  0  0  0
  -27.2287  -37.1417   25.8838 H   0  0  0  0  0  0
  -20.9252  -29.8806   21.6894 H   0  0  0  0  0  0
  -26.0197  -38.2868   24.1421 H   0  0  0  0  0  0
  -26.7685  -21.8907   20.2303 H   0  0  0  0  0  0
  -27.6999  -19.7100   20.7567 H   0  0  0  0  0  0
  -30.7214  -23.4051   19.3890 H   0  0  0  0  0  0
  -32.3530  -20.0409   21.9123 H   0  0  0  0  0  0
  -33.8263  -20.0230   20.8262 H   0  0  0  0  0  0
  -33.7744  -22.5491   20.6961 H   0  0  0  0  0  0
  -32.3035  -22.5525   21.7835 H   0  0  0  0  0  0
  -32.1788  -20.3793   18.0138 H   0  0  0  0  0  0
  -33.7280  -21.0420   18.5430 H   0  0  0  0  0  0
  -32.4148  -22.1267   18.0609 H   0  0  0  0  0  0
  -27.0326  -24.1036   19.3238 H   0  0  0  0  0  0
  -28.4863  -24.4988   18.4427 H   0  0  0  0  0  0
  -31.4978  -16.9542   20.8096 H   0  0  0  0  0  0
  -30.9343  -16.9363   22.4483 H   0  0  0  0  0  0
  -29.4863  -25.1674   20.7799 H   0  0  0  0  0  0
  -27.8490  -25.1803   21.3726 H   0  0  0  0  0  0
  -29.0074  -17.6629   20.1515 H   0  0  0  0  0  0
  -28.9044  -18.1048   21.8590 H   0  0  0  0  0  0
  -29.1814  -15.2233   21.6586 H   0  0  0  0  0  0
  1 25  1  0  0  0
  1 30  2  0  0  0
  1 85  1  0  0  0
  2  3  1  0  0  0
  2 25  1  0  0  0
  2 87  1  0  0  0
  2 88  1  0  0  0
  3  4  1  0  0  0
  3 89  1  0  0  0
  3 90  1  0  0  0
  4  5  1  0  0  0
  4 91  1  0  0  0
  4 92  1  0  0  0
  5  6  1  0  0  0
  5 26  1  0  0  0
  5 93  1  0  0  0
  6 25  1  0  0  0
  6 94  1  0  0  0
  6 95  1  0  0  0
  7  8  2  0  0  0
  7 26  1  0  0  0
  7 29  1  0  0  0
  8  9  1  0  0  0
  8 22  1  0  0  0
  9 10  1  0  0  0
  9 27  2  0  0  0
 10 11  2  0  0  0
 10 15  1  0  0  0
 11 12  1  0  0  0
 11 96  1  0  0  0
 12 13  2  0  0  0
 12 97  1  0  0  0
 13 14  1  0  0  0
 13 31  1  0  0  0
 14 15  2  0  0  0
 14 98  1  0  0  0
 15 99  1  0  0  0
 16 17  2  0  0  0
 16 21  1  0  0  0
 16 31  1  0  0  0
 17 18  1  0  0  0
 17100  1  0  0  0
 18 19  2  0  0  0
 18101  1  0  0  0
 19 20  1  0  0  0
 19 24  1  0  0  0
 20 21  2  0  0  0
 20102  1  0  0  0
 21 23  1  0  0  0
 22 28  1  0  0  0
 22 32  2  0  0  0
 26 27  1  0  0  0
 28103  1  0  0  0
 28104  1  0  0  0
 29105  1  0  0  0
 29106  1  0  0  0
 33 34  1  0  0  0
 33 66  1  0  0  0
 33 70  2  0  0  0
 34 36  1  0  0  0
 34 59  1  0  0  0
 34107  1  0  0  0
 35 44  2  0  0  0
 35 45  1  0  0  0
 35 68  1  0  0  0
 36 56  1  0  0  0
 36108  1  0  0  0
 37 39  1  0  0  0
 37 47  1  0  0  0
 37 66  1  0  0  0
 37109  1  0  0  0
 38 43  2  0  0  0
 38 46  1  0  0  0
 38 47  1  0  0  0
 39 64  1  0  0  0
 39 67  2  0  0  0
 40 52  1  0  0  0
 40 53  2  0  0  0
 40 58  1  0  0  0
 41110  1  0  0  0
 41111  1  0  0  0
 41112  1  0  0  0
 41 48  1  0  0  0
 42 43  1  0  0  0
 42 66  1  0  0  0
 42113  1  0  0  0
 42114  1  0  0  0
 43 44  1  0  0  0
 44115  1  0  0  0
 45 46  2  0  0  0
 45116  1  0  0  0
 46117  1  0  0  0
 47118  1  0  0  0
 47119  1  0  0  0
 48 56  1  0  0  0
 48 65  1  0  0  0
 48120  1  0  0  0
 49 50  1  0  0  0
 49 53  1  0  0  0
 49 64  1  0  0  0
 49121  1  0  0  0
 50 51  1  0  0  0
 50122  1  0  0  0
 50123  1  0  0  0
 51 52  1  0  0  0
 51124  1  0  0  0
 51125  1  0  0  0
 52126  1  0  0  0
 52127  1  0  0  0
 53 54  1  0  0  0
 54 55  2  0  0  0
 54128  1  0  0  0
 55 57  1  0  0  0
 55129  1  0  0  0
 56 69  2  0  0  0
 57 58  2  0  0  0
 57130  1  0  0  0
 58131  1  0  0  0
 59 60  1  0  0  0
 59 61  1  0  0  0
 59 62  1  0  0  0
 60132  1  0  0  0
 60133  1  0  0  0
 60134  1  0  0  0
 61135  1  0  0  0
 61136  1  0  0  0
 61137  1  0  0  0
 62138  1  0  0  0
 62139  1  0  0  0
 62140  1  0  0  0
 63 65  1  0  0  0
 63141  1  0  0  0
 63142  1  0  0  0
 63143  1  0  0  0
 64144  1  0  0  0
 65145  1  0  0  0
 68 83  1  0  0  0
 71 72  2  0  0  0
 71 75  1  0  0  0
 71146  1  0  0  0
 72 76  1  0  0  0
 72147  1  0  0  0
 73 74  1  0  0  0
 73 75  2  0  0  0
 73148  1  0  0  0
 74 76  2  0  0  0
 74 79  1  0  0  0
 75 81  1  0  0  0
 76 86  1  0  0  0
 77 78  1  0  0  0
 77 79  1  0  0  0
 77149  1  0  0  0
 77150  1  0  0  0
 78 79  1  0  0  0
 78151  1  0  0  0
 78152  1  0  0  0
 79 80  1  0  0  0
 80153  1  0  0  0
 80154  1  0  0  0
 80155  1  0  0  0
 81 83  1  0  0  0
 81156  1  0  0  0
 81157  1  0  0  0
 82 84  1  0  0  0
 82 85  1  0  0  0
 82158  1  0  0  0
 82159  1  0  0  0
 83160  1  0  0  0
 83161  1  0  0  0
 84 86  1  0  0  0
 84162  1  0  0  0
 84163  1  0  0  0
 85164  1  0  0  0
M  ISO  4   1 100  68 101  83 101  85 100
M  END
> <chiral flag>
0

> <version>
0

> <s_m_source_file>
/data/baiqing/PycharmProjects/Reinvent-master-3.2/result/LINK_invent/BTK/process_docking_weight1_custom_sum_contain_oxygen_bond_distance_aromatic_linkinvent_7_9_3/rearranged_h_0144.sdf

> <i_m_source_file_index>
47

> <r_mmod_Potential_Energy-OPLS-2005>
-52.5642242431641

> <r_mmod_Stretch_Energy-OPLS-2005>
38.7594413757324

> <r_mmod_Bend_Energy-OPLS-2005>
111.915908813477

> <r_mmod_Torsional_Energy-OPLS-2005>
252.107055664062

> <r_mmod_Improper_Torsional_Energy-OPLS-2005>
2.81400227546692

> <r_mmod_Van_der_Waal_Energy-OPLS-2005>
151.901031494141

> <r_mmod_Electrostatic_Energy-OPLS-2005>
-414.941040039062

> <r_mmod_Solvation_Energy-OPLS-2005>
-207.725509643555

> <b_mmod_Minimization_Converged-OPLS-2005>
0

> <r_mmod_RMS_Derivative-OPLS-2005>
6.38037633895874

$$$$
48
                    3D
 Structure written by MMmdl.
173182  0  0  1  0            999 V2000
  -31.4183  -14.7559   20.0577 C   0  0  0  0  0  0
  -31.0304  -12.3354   19.8364 C   0  0  0  0  0  0
  -30.6669  -12.4509   18.4062 C   0  0  0  0  0  0
  -29.3743  -13.1141   18.3602 C   0  0  0  0  0  0
  -28.5111  -14.1160   19.5526 C   0  0  2  0  0  0
  -29.4560  -13.7455   20.8572 C   0  0  0  0  0  0
  -24.5760  -14.5945   20.7776 C   0  0  0  0  0  0
  -23.6451  -13.4299   21.4218 C   0  0  0  0  0  0
  -24.0153  -11.8762   20.8718 C   0  0  0  0  0  0
  -23.5666  -10.5201   21.0794 C   0  0  0  0  0  0
  -24.1902   -9.5587   21.9169 C   0  0  0  0  0  0
  -23.5953   -8.2825   22.0599 C   0  0  0  0  0  0
  -22.4044   -7.9929   21.3464 C   0  0  0  0  0  0
  -21.8820   -8.9246   20.4438 C   0  0  0  0  0  0
  -22.4682  -10.1720   20.2991 C   0  0  0  0  0  0
  -21.7036   -6.0464   22.5354 C   0  0  0  0  0  0
  -21.4121   -6.5541   23.8204 C   0  0  0  0  0  0
  -21.3679   -5.6756   24.9213 C   0  0  0  0  0  0
  -21.6047   -4.3003   24.7338 C   0  0  0  0  0  0
  -21.8827   -3.7977   23.4514 C   0  0  0  0  0  0
  -21.9271   -4.6708   22.3534 C   0  0  0  0  0  0
  -22.2734  -13.7204   21.6586 C   0  0  0  0  0  0
  -22.1720   -4.1888   21.1113 F   0  0  0  0  0  0
  -21.5561   -3.4543   25.7890 F   0  0  0  0  0  0
  -30.7381  -13.6499   20.4187 N   0  0  0  0  0  0
  -25.6896  -13.8807   19.6601 N   0  0  0  0  0  0
  -25.0921  -11.9692   19.7862 N   0  0  0  0  0  0
  -21.6288  -12.8224   22.3618 N   0  0  0  0  0  0
  -24.4641  -15.9461   20.6959 N   0  0  0  0  0  0
  -32.6146  -14.7000   19.9988 O   0  0  0  0  0  0
  -21.7006   -6.8251   21.4145 O   0  0  0  0  0  0
  -21.7847  -14.6728   21.0621 O   0  0  0  0  0  0
  -24.7076  -31.7709   23.1388 C   0  0  0  0  0  0
  -25.9567  -32.4294   23.7977 C   0  0  1  0  0  0
  -26.9155  -26.3439   20.2319 C   0  0  0  0  0  0
  -25.6057  -33.8149   24.1820 N   0  0  0  0  0  0
  -23.5260  -30.3895   21.5020 C   0  0  2  0  0  0
  -24.9210  -28.6873   20.0958 C   0  0  0  0  0  0
  -22.7802  -29.4204   22.4613 C   0  0  0  0  0  0
  -18.0332  -28.1422   22.8439 C   0  0  0  0  0  0
  -24.1492  -36.7080   23.2657 C   0  0  0  0  0  0
  -26.1135  -30.3738   21.4516 C   0  0  0  0  0  0
  -26.1120  -28.9134   20.7915 C   0  0  0  0  0  0
  -27.1075  -27.7664   20.8246 C   0  0  0  0  0  0
  -25.7606  -26.4290   19.4324 C   0  0  0  0  0  0
  -24.8089  -27.4868   19.3828 C   0  0  0  0  0  0
  -23.7754  -29.7112   20.1257 C   0  0  0  0  0  0
  -25.4155  -36.2801   24.0259 C   0  0  1  0  0  0
  -20.5976  -28.3793   23.1089 C   0  0  2  0  0  0
  -20.6789  -26.9435   22.5391 C   0  0  0  0  0  0
  -19.5771  -26.6357   21.5203 C   0  0  0  0  0  0
  -18.1953  -26.7944   22.1608 C   0  0  0  0  0  0
  -19.1603  -28.8934   23.2747 C   0  0  0  0  0  0
  -18.9518  -30.1509   23.8809 C   0  0  0  0  0  0
  -17.6513  -30.6606   24.0546 C   0  0  0  0  0  0
  -25.9163  -34.9195   23.4889 C   0  0  0  0  0  0
  -16.5397  -29.9094   23.6351 C   0  0  0  0  0  0
  -16.7315  -28.6511   23.0372 C   0  0  0  0  0  0
  -26.4648  -31.6470   25.0730 C   0  0  0  0  0  0
  -25.3645  -31.3890   26.1309 C   0  0  0  0  0  0
  -27.0632  -30.2773   24.6874 C   0  0  0  0  0  0
  -27.6032  -32.4412   25.7562 C   0  0  0  0  0  0
  -27.5550  -37.1703   24.8462 C   0  0  0  0  0  0
  -21.4435  -29.3019   22.3392 N   0  0  0  0  0  0
  -26.4249  -37.3601   23.9411 N   0  0  0  0  0  0
  -24.8135  -30.8886   22.0800 N   0  0  0  0  0  0
  -23.4175  -28.7774   23.2987 O   0  0  0  0  0  0
  -27.5992  -24.8819   20.2880 O   0  0  0  0  0  0
  -26.5825  -34.8818   22.4522 O   0  0  0  0  0  0
  -23.6065  -32.0967   23.6195 O   0  0  0  0  0  0
  -27.3503  -12.2800   19.8568 C   0  0  0  0  0  0
  -26.9463  -16.0024   19.3921 C   0  0  0  0  0  0
  -27.0874  -15.3140   20.9628 C   0  0  0  0  0  0
  -27.0307  -13.0429   18.1150 C   0  0  0  0  0  0
  -26.9912  -14.8857   17.9976 C   0  0  0  0  0  0
  -27.0952  -13.4475   21.3039 C   0  0  0  0  0  0
  -27.1066  -16.6693   21.9046 C   0  0  0  0  0  0
  -27.0982  -17.8446   19.2600 C   0  0  0  0  0  0
  -27.5623  -18.3008   21.4921 C   0  0  0  0  0  0
  -26.8832  -12.1848   16.8675 C   0  0  0  0  0  0
  -23.5877  -13.4093   19.1316 C   0  0  0  0  0  0
  -27.8496  -15.5017   16.8477 C   0  0  0  0  0  0
  -29.2395  -16.3176   17.1604 C   0  0  0  0  0  0
  -30.6432  -15.8886   17.8832 C   0  0  0  0  0  0
  -27.5662  -21.0141   20.1139 C   0  0  0  0  0  0
  -27.0479  -23.0542   20.2394 C   0  0  0  0  0  0
  -30.8171  -15.7949   19.3947 N   0  0  0  0  0  0
  -27.0163  -19.2067   20.3064 N   0  3  1  0  0  0
  -25.7518  -12.9817   21.5114 O   0  0  0  0  0  0
  -32.0921  -12.1056   19.9431 H   0  0  0  0  0  0
  -30.4985  -11.5056   20.3046 H   0  0  0  0  0  0
  -30.7431  -11.4732   17.9124 H   0  0  0  0  0  0
  -31.4355  -13.0202   17.8881 H   0  0  0  0  0  0
  -29.0132  -12.0881   18.2650 H   0  0  0  0  0  0
  -29.3422  -13.5356   17.3617 H   0  0  0  0  0  0
  -28.8484  -15.0524   19.3059 H   0  0  0  0  0  0
  -29.3049  -12.7960   21.3817 H   0  0  0  0  0  0
  -29.4291  -14.5113   21.6401 H   0  0  0  0  0  0
  -25.0835   -9.8178   22.4678 H   0  0  0  0  0  0
  -24.0394   -7.5520   22.7211 H   0  0  0  0  0  0
  -20.9994   -8.6834   19.8683 H   0  0  0  0  0  0
  -22.0199  -10.8759   19.6155 H   0  0  0  0  0  0
  -21.2156   -7.6071   23.9604 H   0  0  0  0  0  0
  -21.1451   -6.0547   25.9077 H   0  0  0  0  0  0
  -22.0541   -2.7426   23.3096 H   0  0  0  0  0  0
  -22.1129  -12.0501   22.7949 H   0  0  0  0  0  0
  -20.6369  -12.9254   22.5165 H   0  0  0  0  0  0
  -23.6429  -16.4299   21.0368 H   0  0  0  0  0  0
  -24.9539  -16.4267   19.9569 H   0  0  0  0  0  0
  -26.7645  -32.4628   23.0660 H   0  0  0  0  0  0
  -25.0102  -33.9156   24.9910 H   0  0  0  0  0  0
  -22.8670  -31.2419   21.3207 H   0  0  0  0  0  0
  -23.3781  -35.9380   23.3239 H   0  0  0  0  0  0
  -24.3548  -36.8843   22.2088 H   0  0  0  0  0  0
  -23.7225  -37.6213   23.6812 H   0  0  0  0  0  0
  -26.3715  -31.0747   20.6572 H   0  0  0  0  0  0
  -26.9550  -30.4176   22.1296 H   0  0  0  0  0  0
  -27.9932  -27.9143   21.4254 H   0  0  0  0  0  0
  -25.4961  -25.5442   18.8712 H   0  0  0  0  0  0
  -23.9193  -27.3267   18.7895 H   0  0  0  0  0  0
  -24.0129  -30.4805   19.3892 H   0  0  0  0  0  0
  -22.8577  -29.2406   19.7689 H   0  0  0  0  0  0
  -25.1373  -36.1523   25.0748 H   0  0  0  0  0  0
  -21.0052  -28.3434   24.1221 H   0  0  0  0  0  0
  -20.5622  -26.2430   23.3673 H   0  0  0  0  0  0
  -21.6651  -26.7347   22.1231 H   0  0  0  0  0  0
  -19.6928  -25.6243   21.1298 H   0  0  0  0  0  0
  -19.6714  -27.3111   20.6688 H   0  0  0  0  0  0
  -17.4218  -26.6670   21.4018 H   0  0  0  0  0  0
  -18.0352  -26.0108   22.9029 H   0  0  0  0  0  0
  -19.8001  -30.7330   24.2146 H   0  0  0  0  0  0
  -17.5075  -31.6277   24.5168 H   0  0  0  0  0  0
  -15.5397  -30.2983   23.7726 H   0  0  0  0  0  0
  -15.8705  -28.0806   22.7153 H   0  0  0  0  0  0
  -24.5859  -30.7195   25.7634 H   0  0  0  0  0  0
  -24.8813  -32.3150   26.4438 H   0  0  0  0  0  0
  -25.7775  -30.9264   27.0285 H   0  0  0  0  0  0
  -26.3381  -29.6245   24.2009 H   0  0  0  0  0  0
  -27.4052  -29.7405   25.5735 H   0  0  0  0  0  0
  -27.9375  -30.3819   24.0448 H   0  0  0  0  0  0
  -27.2514  -33.3806   26.1843 H   0  0  0  0  0  0
  -28.3998  -32.6826   25.0513 H   0  0  0  0  0  0
  -28.0532  -31.8762   26.5737 H   0  0  0  0  0  0
  -28.2504  -38.0055   24.7525 H   0  0  0  0  0  0
  -28.1105  -36.2572   24.6268 H   0  0  0  0  0  0
  -27.2266  -37.1307   25.8863 H   0  0  0  0  0  0
  -20.9750  -29.8737   21.6501 H   0  0  0  0  0  0
  -26.0041  -38.2625   24.1456 H   0  0  0  0  0  0
  -27.3906  -11.2053   19.9948 H   0  0  0  0  0  0
  -27.7414  -16.3898   22.7438 H   0  0  0  0  0  0
  -26.1277  -16.7422   22.3724 H   0  0  0  0  0  0
  -26.6062  -18.1308   18.3316 H   0  0  0  0  0  0
  -28.1571  -17.9463   19.0694 H   0  0  0  0  0  0
  -28.6423  -18.2731   21.3471 H   0  0  0  0  0  0
  -27.4333  -18.8962   22.3967 H   0  0  0  0  0  0
  -26.6797  -11.1504   17.1440 H   0  0  0  0  0  0
  -27.7790  -12.2034   16.2490 H   0  0  0  0  0  0
  -26.0497  -12.5515   16.2689 H   0  0  0  0  0  0
  -22.6370  -12.8669   19.1703 H   0  0  0  0  0  0
  -23.9411  -13.1162   18.1287 H   0  0  0  0  0  0
  -23.2466  -14.4268   18.8854 H   0  0  0  0  0  0
  -27.1848  -16.1753   16.3028 H   0  0  0  0  0  0
  -28.0655  -14.7134   16.1259 H   0  0  0  0  0  0
  -29.0203  -17.3416   17.4204 H   0  0  0  0  0  0
  -29.5845  -16.5013   16.1433 H   0  0  0  0  0  0
  -31.0273  -15.0045   17.3853 H   0  0  0  0  0  0
  -31.3712  -16.6473   17.5941 H   0  0  0  0  0  0
  -28.4545  -20.9908   20.7449 H   0  0  0  0  0  0
  -27.9804  -20.9690   19.1062 H   0  0  0  0  0  0
  -26.4121  -23.0415   21.1228 H   0  0  0  0  0  0
  -26.3302  -23.1190   19.4220 H   0  0  0  0  0  0
  -29.9823  -16.1026   19.8678 H   0  0  0  0  0  0
  -26.0279  -19.2960   20.4835 H   0  0  0  0  0  0
  1 25  1  0  0  0
  1 30  2  0  0  0
  1 87  1  0  0  0
  2  3  1  0  0  0
  2 25  1  0  0  0
  2 90  1  0  0  0
  2 91  1  0  0  0
  3  4  1  0  0  0
  3 92  1  0  0  0
  3 93  1  0  0  0
  4  5  1  0  0  0
  4 94  1  0  0  0
  4 95  1  0  0  0
  5  6  1  0  0  0
  5 26  1  0  0  0
  5 96  1  0  0  0
  6 25  1  0  0  0
  6 97  1  0  0  0
  6 98  1  0  0  0
  7  8  2  0  0  0
  7 26  1  0  0  0
  7 29  1  0  0  0
  8  9  1  0  0  0
  8 22  1  0  0  0
  9 10  1  0  0  0
  9 27  2  0  0  0
 10 11  2  0  0  0
 10 15  1  0  0  0
 11 12  1  0  0  0
 11 99  1  0  0  0
 12 13  2  0  0  0
 12100  1  0  0  0
 13 14  1  0  0  0
 13 31  1  0  0  0
 14 15  2  0  0  0
 14101  1  0  0  0
 15102  1  0  0  0
 16 17  2  0  0  0
 16 21  1  0  0  0
 16 31  1  0  0  0
 17 18  1  0  0  0
 17103  1  0  0  0
 18 19  2  0  0  0
 18104  1  0  0  0
 19 20  1  0  0  0
 19 24  1  0  0  0
 20 21  2  0  0  0
 20105  1  0  0  0
 21 23  1  0  0  0
 22 28  1  0  0  0
 22 32  2  0  0  0
 26 27  1  0  0  0
 28106  1  0  0  0
 28107  1  0  0  0
 29108  1  0  0  0
 29109  1  0  0  0
 33 34  1  0  0  0
 33 66  1  0  0  0
 33 70  2  0  0  0
 34 36  1  0  0  0
 34 59  1  0  0  0
 34110  1  0  0  0
 35 44  2  0  0  0
 35 45  1  0  0  0
 35 68  1  0  0  0
 36 56  1  0  0  0
 36111  1  0  0  0
 37 39  1  0  0  0
 37 47  1  0  0  0
 37 66  1  0  0  0
 37112  1  0  0  0
 38 43  2  0  0  0
 38 46  1  0  0  0
 38 47  1  0  0  0
 39 64  1  0  0  0
 39 67  2  0  0  0
 40 52  1  0  0  0
 40 53  2  0  0  0
 40 58  1  0  0  0
 41113  1  0  0  0
 41114  1  0  0  0
 41115  1  0  0  0
 41 48  1  0  0  0
 42 43  1  0  0  0
 42 66  1  0  0  0
 42116  1  0  0  0
 42117  1  0  0  0
 43 44  1  0  0  0
 44118  1  0  0  0
 45 46  2  0  0  0
 45119  1  0  0  0
 46120  1  0  0  0
 47121  1  0  0  0
 47122  1  0  0  0
 48 56  1  0  0  0
 48 65  1  0  0  0
 48123  1  0  0  0
 49 50  1  0  0  0
 49 53  1  0  0  0
 49 64  1  0  0  0
 49124  1  0  0  0
 50 51  1  0  0  0
 50125  1  0  0  0
 50126  1  0  0  0
 51 52  1  0  0  0
 51127  1  0  0  0
 51128  1  0  0  0
 52129  1  0  0  0
 52130  1  0  0  0
 53 54  1  0  0  0
 54 55  2  0  0  0
 54131  1  0  0  0
 55 57  1  0  0  0
 55132  1  0  0  0
 56 69  2  0  0  0
 57 58  2  0  0  0
 57133  1  0  0  0
 58134  1  0  0  0
 59 60  1  0  0  0
 59 61  1  0  0  0
 59 62  1  0  0  0
 60135  1  0  0  0
 60136  1  0  0  0
 60137  1  0  0  0
 61138  1  0  0  0
 61139  1  0  0  0
 61140  1  0  0  0
 62141  1  0  0  0
 62142  1  0  0  0
 62143  1  0  0  0
 63 65  1  0  0  0
 63144  1  0  0  0
 63145  1  0  0  0
 63146  1  0  0  0
 64147  1  0  0  0
 65148  1  0  0  0
 68 86  1  0  0  0
 71 74  2  0  0  0
 71 76  1  0  0  0
 71149  1  0  0  0
 72 73  1  0  0  0
 72 75  2  0  0  0
 72 78  1  0  0  0
 73 76  2  0  0  0
 73 77  1  0  0  0
 74 75  1  0  0  0
 74 80  1  0  0  0
 75 82  1  0  0  0
 76 89  1  0  0  0
 77 79  1  0  0  0
 77150  1  0  0  0
 77151  1  0  0  0
 78 88  1  0  0  0
 78152  1  0  0  0
 78153  1  0  0  0
 79 88  1  0  0  0
 79154  1  0  0  0
 79155  1  0  0  0
 80156  1  0  0  0
 80157  1  0  0  0
 80158  1  0  0  0
 81 89  1  0  0  0
 81159  1  0  0  0
 81160  1  0  0  0
 81161  1  0  0  0
 82 83  1  0  0  0
 82162  1  0  0  0
 82163  1  0  0  0
 83 84  1  0  0  0
 83164  1  0  0  0
 83165  1  0  0  0
 84 87  1  0  0  0
 84166  1  0  0  0
 84167  1  0  0  0
 85 86  1  0  0  0
 85168  1  0  0  0
 85169  1  0  0  0
 85 88  1  0  0  0
 86170  1  0  0  0
 86171  1  0  0  0
 87172  1  0  0  0
 88173  1  0  0  0
M  CHG  1  88   1
M  ISO  4   1 100  68 101  86 101  87 100
M  END
> <chiral flag>
0

> <version>
0

> <s_m_source_file>
/data/baiqing/PycharmProjects/Reinvent-master-3.2/result/LINK_invent/BTK/process_docking_weight1_custom_sum_contain_oxygen_bond_distance_aromatic_linkinvent_7_9_3/rearranged_h_0144.sdf

> <i_m_source_file_index>
48

> <r_mmod_Potential_Energy-OPLS-2005>
21600.68359375

> <r_mmod_Stretch_Energy-OPLS-2005>
12542.244140625

> <r_mmod_Bend_Energy-OPLS-2005>
1202.09973144531

> <r_mmod_Torsional_Energy-OPLS-2005>
661.738037109375

> <r_mmod_Improper_Torsional_Energy-OPLS-2005>
87.1611938476562

> <r_mmod_Van_der_Waal_Energy-OPLS-2005>
5212.3193359375

> <r_mmod_Electrostatic_Energy-OPLS-2005>
-271.336029052734

> <r_mmod_Solvation_Energy-OPLS-2005>
-485.199310302734

> <b_mmod_Minimization_Converged-OPLS-2005>
0

> <r_mmod_RMS_Derivative-OPLS-2005>
6.61751794815063

$$$$
49
                    3D
 Structure written by MMmdl.
174183  0  0  1  0            999 V2000
  -30.7024  -14.3739   20.6459 C   0  0  0  0  0  0
  -30.4163  -12.2705   19.3915 C   0  0  0  0  0  0
  -29.4839  -12.5151   18.1883 C   0  0  0  0  0  0
  -28.0033  -12.3772   18.6003 C   0  0  0  0  0  0
  -27.6619  -13.1889   19.8782 C   0  0  2  0  0  0
  -28.6939  -12.8940   20.9879 C   0  0  0  0  0  0
  -25.2592  -13.8132   20.5643 C   0  0  0  0  0  0
  -24.1830  -13.0434   20.9169 C   0  0  0  0  0  0
  -24.6351  -11.6895   20.8715 C   0  0  0  0  0  0
  -23.9019  -10.4288   21.0405 C   0  0  0  0  0  0
  -24.3594   -9.4202   21.9165 C   0  0  0  0  0  0
  -23.6297   -8.2224   22.0731 C   0  0  0  0  0  0
  -22.4268   -8.0274   21.3541 C   0  0  0  0  0  0
  -21.9900   -9.0230   20.4636 C   0  0  0  0  0  0
  -22.7206  -10.2119   20.3036 C   0  0  0  0  0  0
  -21.6847   -6.0728   22.5288 C   0  0  0  0  0  0
  -21.3993   -6.5628   23.8225 C   0  0  0  0  0  0
  -21.3656   -5.6770   24.9182 C   0  0  0  0  0  0
  -21.6055   -4.3026   24.7219 C   0  0  0  0  0  0
  -21.8826   -3.8132   23.4339 C   0  0  0  0  0  0
  -21.9188   -4.6960   22.3401 C   0  0  0  0  0  0
  -22.7866  -13.5252   21.1875 C   0  0  0  0  0  0
  -22.1674   -4.2151   21.0986 F   0  0  0  0  0  0
  -21.5627   -3.4498   25.7713 F   0  0  0  0  0  0
  -30.0339  -13.2079   20.4563 N   0  0  0  0  0  0
  -26.2991  -12.9267   20.3329 N   0  0  0  0  0  0
  -25.9256  -11.6439   20.5717 N   0  0  0  0  0  0
  -22.0484  -12.8222   22.0400 N   0  0  0  0  0  0
  -25.4374  -15.1849   20.4086 N   0  0  0  0  0  0
  -31.7856  -14.6082   20.0909 O   0  0  0  0  0  0
  -21.6646   -6.8870   21.4251 O   0  0  0  0  0  0
  -22.3565  -14.5577   20.6757 O   0  0  0  0  0  0
  -24.6109  -31.8695   23.2113 C   0  0  0  0  0  0
  -25.9010  -32.4837   23.8394 C   0  0  1  0  0  0
  -27.2361  -27.4568   20.0907 C   0  0  0  0  0  0
  -25.5897  -33.8635   24.2323 N   0  0  0  0  0  0
  -23.3985  -30.4918   21.5515 C   0  0  2  0  0  0
  -24.8475  -28.9558   20.1218 C   0  0  0  0  0  0
  -22.7400  -29.4657   22.5001 C   0  0  0  0  0  0
  -18.0272  -28.1387   22.8467 C   0  0  0  0  0  0
  -24.1492  -36.7296   23.2642 C   0  0  0  0  0  0
  -25.9242  -30.8398   21.3629 C   0  0  0  0  0  0
  -26.0027  -29.4700   20.7225 C   0  0  0  0  0  0
  -27.2024  -28.7242   20.7142 C   0  0  0  0  0  0
  -26.0684  -26.9537   19.4829 C   0  0  0  0  0  0
  -24.8713  -27.6930   19.5046 C   0  0  0  0  0  0
  -23.6077  -29.8214   20.1665 C   0  0  0  0  0  0
  -25.4110  -36.3118   24.0347 C   0  0  1  0  0  0
  -20.5856  -28.3660   23.1348 C   0  0  2  0  0  0
  -20.6741  -26.9394   22.5470 C   0  0  0  0  0  0
  -19.5769  -26.6404   21.5215 C   0  0  0  0  0  0
  -18.1919  -26.7960   22.1553 C   0  0  0  0  0  0
  -19.1517  -28.8839   23.2899 C   0  0  0  0  0  0
  -18.9447  -30.1435   23.8918 C   0  0  0  0  0  0
  -17.6454  -30.6582   24.0576 C   0  0  0  0  0  0
  -25.9030  -34.9492   23.5128 C   0  0  0  0  0  0
  -16.5344  -29.9086   23.6325 C   0  0  0  0  0  0
  -16.7264  -28.6513   23.0329 C   0  0  0  0  0  0
  -26.4462  -31.6609   25.0710 C   0  0  0  0  0  0
  -25.3759  -31.3827   26.1513 C   0  0  0  0  0  0
  -27.0195  -30.3007   24.6078 C   0  0  0  0  0  0
  -27.6115  -32.4296   25.7387 C   0  0  0  0  0  0
  -27.5608  -37.1790   24.8444 C   0  0  0  0  0  0
  -21.4130  -29.3011   22.3744 N   0  0  0  0  0  0
  -26.4285  -37.3813   23.9438 N   0  0  0  0  0  0
  -24.6622  -31.0813   22.1000 N   0  0  0  0  0  0
  -23.4193  -28.8198   23.3028 O   0  0  0  0  0  0
  -28.3828  -26.7103   19.9852 O   0  0  0  0  0  0
  -26.5559  -34.8943   22.4669 O   0  0  0  0  0  0
  -23.5305  -32.1426   23.7522 O   0  0  0  0  0  0
  -29.4568  -18.7849   22.3234 C   0  0  0  0  0  0
  -29.2424  -17.4136   22.0933 C   0  0  0  0  0  0
  -30.7347  -19.3445   22.1015 C   0  0  0  0  0  0
  -31.7456  -18.4671   21.6289 C   0  0  0  0  0  0
  -30.3092  -16.6170   21.6422 C   0  0  0  0  0  0
  -30.0537  -21.8466   21.7702 C   0  0  0  0  0  0
  -30.5279  -22.5620   24.0687 C   0  0  0  0  0  0
  -30.9783  -20.8159   22.4647 C   0  0  1  0  0  0
  -30.8073  -21.0635   23.9756 C   0  0  1  0  0  0
  -29.6557  -22.8865   22.8490 C   0  0  1  0  0  0
  -33.3055  -18.8772   19.6909 C   0  0  0  0  0  0
  -31.7866  -20.7400   26.3274 C   0  0  0  0  0  0
  -33.1611  -18.8559   21.2256 C   0  0  0  0  0  0
  -32.0098  -20.5912   24.8165 C   0  0  0  0  0  0
  -28.9184  -24.7975   21.3721 C   0  0  0  0  0  0
  -29.0250  -26.3294   21.1985 C   0  0  0  0  0  0
  -31.5224  -17.1566   21.4351 N   0  0  0  0  0  0
  -30.0445  -15.2482   21.4260 N   0  0  0  0  0  0
  -29.8053  -24.3102   22.4557 N   0  3  0  0  0  0
  -31.4611  -12.3745   19.0919 H   0  0  0  0  0  0
  -30.3140  -11.2433   19.7457 H   0  0  0  0  0  0
  -29.7149  -11.8122   17.3866 H   0  0  0  0  0  0
  -29.6588  -13.5126   17.7819 H   0  0  0  0  0  0
  -27.8042  -11.3173   18.7707 H   0  0  0  0  0  0
  -27.3507  -12.6743   17.7786 H   0  0  0  0  0  0
  -27.7320  -14.2465   19.6197 H   0  0  0  0  0  0
  -28.6562  -11.8350   21.2540 H   0  0  0  0  0  0
  -28.4452  -13.4207   21.9091 H   0  0  0  0  0  0
  -25.2754   -9.5670   22.4715 H   0  0  0  0  0  0
  -24.0025   -7.4598   22.7410 H   0  0  0  0  0  0
  -21.0835   -8.8726   19.8939 H   0  0  0  0  0  0
  -22.3674  -10.9635   19.6111 H   0  0  0  0  0  0
  -21.1978   -7.6126   23.9727 H   0  0  0  0  0  0
  -21.1474   -6.0486   25.9088 H   0  0  0  0  0  0
  -22.0602   -2.7591   23.2816 H   0  0  0  0  0  0
  -22.4079  -11.9862   22.4763 H   0  0  0  0  0  0
  -21.1092  -13.1241   22.2580 H   0  0  0  0  0  0
  -24.6725  -15.8431   20.5131 H   0  0  0  0  0  0
  -26.2953  -15.6200   20.0893 H   0  0  0  0  0  0
  -26.7086  -32.5567   23.1170 H   0  0  0  0  0  0
  -25.0110  -33.9802   25.0513 H   0  0  0  0  0  0
  -22.6852  -31.3072   21.4136 H   0  0  0  0  0  0
  -23.3818  -35.9564   23.3220 H   0  0  0  0  0  0
  -24.3622  -36.8981   22.2081 H   0  0  0  0  0  0
  -23.7164  -37.6445   23.6692 H   0  0  0  0  0  0
  -26.0298  -31.6034   20.5907 H   0  0  0  0  0  0
  -26.8143  -30.8989   21.9762 H   0  0  0  0  0  0
  -28.0997  -29.1299   21.1619 H   0  0  0  0  0  0
  -26.0881  -25.9918   18.9895 H   0  0  0  0  0  0
  -23.9825  -27.2944   19.0339 H   0  0  0  0  0  0
  -23.7155  -30.5928   19.4035 H   0  0  0  0  0  0
  -22.7333  -29.2370   19.8751 H   0  0  0  0  0  0
  -25.1299  -36.1966   25.0842 H   0  0  0  0  0  0
  -20.9953  -28.3237   24.1470 H   0  0  0  0  0  0
  -20.5609  -26.2277   23.3651 H   0  0  0  0  0  0
  -21.6626  -26.7416   22.1319 H   0  0  0  0  0  0
  -19.6937  -25.6327   21.1230 H   0  0  0  0  0  0
  -19.6783  -27.3220   20.6758 H   0  0  0  0  0  0
  -17.4254  -26.6803   21.3876 H   0  0  0  0  0  0
  -18.0224  -26.0065   22.8897 H   0  0  0  0  0  0
  -19.7923  -30.7225   24.2322 H   0  0  0  0  0  0
  -17.5019  -31.6255   24.5196 H   0  0  0  0  0  0
  -15.5349  -30.2987   23.7659 H   0  0  0  0  0  0
  -15.8664  -28.0855   22.7001 H   0  0  0  0  0  0
  -24.5904  -30.7151   25.7953 H   0  0  0  0  0  0
  -24.8964  -32.3026   26.4872 H   0  0  0  0  0  0
  -25.8136  -30.9118   27.0327 H   0  0  0  0  0  0
  -26.2655  -29.6799   24.1211 H   0  0  0  0  0  0
  -27.3998  -29.7237   25.4523 H   0  0  0  0  0  0
  -27.8523  -30.4251   23.9148 H   0  0  0  0  0  0
  -27.2829  -33.3669   26.1894 H   0  0  0  0  0  0
  -28.3916  -32.6718   25.0155 H   0  0  0  0  0  0
  -28.0774  -31.8434   26.5323 H   0  0  0  0  0  0
  -28.2632  -38.0081   24.7486 H   0  0  0  0  0  0
  -28.1081  -36.2616   24.6223 H   0  0  0  0  0  0
  -27.2359  -37.1404   25.8853 H   0  0  0  0  0  0
  -20.9293  -29.8702   21.6938 H   0  0  0  0  0  0
  -26.0179  -38.2892   24.1472 H   0  0  0  0  0  0
  -28.6417  -19.3972   22.6813 H   0  0  0  0  0  0
  -28.2603  -16.9938   22.2654 H   0  0  0  0  0  0
  -29.1455  -21.3792   21.3855 H   0  0  0  0  0  0
  -30.5570  -22.2944   20.9119 H   0  0  0  0  0  0
  -31.4700  -23.1099   24.0214 H   0  0  0  0  0  0
  -30.0364  -22.8330   25.0049 H   0  0  0  0  0  0
  -31.9909  -21.1135   22.2007 H   0  0  0  0  0  0
  -29.9095  -20.5500   24.3225 H   0  0  0  0  0  0
  -28.6136  -22.7092   23.1261 H   0  0  0  0  0  0
  -34.3192  -19.1400   19.3890 H   0  0  0  0  0  0
  -32.6169  -19.5897   19.2348 H   0  0  0  0  0  0
  -33.0855  -17.8940   19.2657 H   0  0  0  0  0  0
  -32.6424  -20.3590   26.8866 H   0  0  0  0  0  0
  -30.9045  -20.1882   26.6551 H   0  0  0  0  0  0
  -31.6507  -21.7843   26.6093 H   0  0  0  0  0  0
  -33.8384  -18.0979   21.6263 H   0  0  0  0  0  0
  -33.5006  -19.7863   21.6739 H   0  0  0  0  0  0
  -32.9109  -21.1332   24.5246 H   0  0  0  0  0  0
  -32.2083  -19.5415   24.5938 H   0  0  0  0  0  0
  -29.1890  -24.3002   20.4395 H   0  0  0  0  0  0
  -27.8851  -24.5259   21.5884 H   0  0  0  0  0  0
  -30.0706  -26.6269   21.1195 H   0  0  0  0  0  0
  -28.6162  -26.8418   22.0711 H   0  0  0  0  0  0
  -29.1678  -14.9081   21.7863 H   0  0  0  0  0  0
  -30.7659  -24.4882   22.2029 H   0  0  0  0  0  0
  -29.6108  -24.8590   23.2795 H   0  0  0  0  0  0
  1 25  1  0  0  0
  1 30  2  0  0  0
  1 88  1  0  0  0
  2  3  1  0  0  0
  2 25  1  0  0  0
  2 90  1  0  0  0
  2 91  1  0  0  0
  3  4  1  0  0  0
  3 92  1  0  0  0
  3 93  1  0  0  0
  4  5  1  0  0  0
  4 94  1  0  0  0
  4 95  1  0  0  0
  5  6  1  0  0  0
  5 26  1  0  0  0
  5 96  1  0  0  0
  6 25  1  0  0  0
  6 97  1  0  0  0
  6 98  1  0  0  0
  7  8  2  0  0  0
  7 26  1  0  0  0
  7 29  1  0  0  0
  8  9  1  0  0  0
  8 22  1  0  0  0
  9 10  1  0  0  0
  9 27  2  0  0  0
 10 11  2  0  0  0
 10 15  1  0  0  0
 11 12  1  0  0  0
 11 99  1  0  0  0
 12 13  2  0  0  0
 12100  1  0  0  0
 13 14  1  0  0  0
 13 31  1  0  0  0
 14 15  2  0  0  0
 14101  1  0  0  0
 15102  1  0  0  0
 16 17  2  0  0  0
 16 21  1  0  0  0
 16 31  1  0  0  0
 17 18  1  0  0  0
 17103  1  0  0  0
 18 19  2  0  0  0
 18104  1  0  0  0
 19 20  1  0  0  0
 19 24  1  0  0  0
 20 21  2  0  0  0
 20105  1  0  0  0
 21 23  1  0  0  0
 22 28  1  0  0  0
 22 32  2  0  0  0
 26 27  1  0  0  0
 28106  1  0  0  0
 28107  1  0  0  0
 29108  1  0  0  0
 29109  1  0  0  0
 33 34  1  0  0  0
 33 66  1  0  0  0
 33 70  2  0  0  0
 34 36  1  0  0  0
 34 59  1  0  0  0
 34110  1  0  0  0
 35 44  2  0  0  0
 35 45  1  0  0  0
 35 68  1  0  0  0
 36 56  1  0  0  0
 36111  1  0  0  0
 37 39  1  0  0  0
 37 47  1  0  0  0
 37 66  1  0  0  0
 37112  1  0  0  0
 38 43  2  0  0  0
 38 46  1  0  0  0
 38 47  1  0  0  0
 39 64  1  0  0  0
 39 67  2  0  0  0
 40 52  1  0  0  0
 40 53  2  0  0  0
 40 58  1  0  0  0
 41113  1  0  0  0
 41114  1  0  0  0
 41115  1  0  0  0
 41 48  1  0  0  0
 42 43  1  0  0  0
 42 66  1  0  0  0
 42116  1  0  0  0
 42117  1  0  0  0
 43 44  1  0  0  0
 44118  1  0  0  0
 45 46  2  0  0  0
 45119  1  0  0  0
 46120  1  0  0  0
 47121  1  0  0  0
 47122  1  0  0  0
 48 56  1  0  0  0
 48 65  1  0  0  0
 48123  1  0  0  0
 49 50  1  0  0  0
 49 53  1  0  0  0
 49 64  1  0  0  0
 49124  1  0  0  0
 50 51  1  0  0  0
 50125  1  0  0  0
 50126  1  0  0  0
 51 52  1  0  0  0
 51127  1  0  0  0
 51128  1  0  0  0
 52129  1  0  0  0
 52130  1  0  0  0
 53 54  1  0  0  0
 54 55  2  0  0  0
 54131  1  0  0  0
 55 57  1  0  0  0
 55132  1  0  0  0
 56 69  2  0  0  0
 57 58  2  0  0  0
 57133  1  0  0  0
 58134  1  0  0  0
 59 60  1  0  0  0
 59 61  1  0  0  0
 59 62  1  0  0  0
 60135  1  0  0  0
 60136  1  0  0  0
 60137  1  0  0  0
 61138  1  0  0  0
 61139  1  0  0  0
 61140  1  0  0  0
 62141  1  0  0  0
 62142  1  0  0  0
 62143  1  0  0  0
 63 65  1  0  0  0
 63144  1  0  0  0
 63145  1  0  0  0
 63146  1  0  0  0
 64147  1  0  0  0
 65148  1  0  0  0
 68 86  1  0  0  0
 71 72  2  0  0  0
 71 73  1  0  0  0
 71149  1  0  0  0
 72 75  1  0  0  0
 72150  1  0  0  0
 73 74  2  0  0  0
 73 78  1  0  0  0
 74 83  1  0  0  0
 74 87  1  0  0  0
 75 87  2  0  0  0
 75 88  1  0  0  0
 76 78  1  0  0  0
 76 80  1  0  0  0
 76151  1  0  0  0
 76152  1  0  0  0
 77 79  1  0  0  0
 77 80  1  0  0  0
 77153  1  0  0  0
 77154  1  0  0  0
 78 79  1  0  0  0
 78155  1  0  0  0
 79 84  1  0  0  0
 79156  1  0  0  0
 80 89  1  0  0  0
 80157  1  0  0  0
 81 83  1  0  0  0
 81158  1  0  0  0
 81159  1  0  0  0
 81160  1  0  0  0
 82 84  1  0  0  0
 82161  1  0  0  0
 82162  1  0  0  0
 82163  1  0  0  0
 83164  1  0  0  0
 83165  1  0  0  0
 84166  1  0  0  0
 84167  1  0  0  0
 85 86  1  0  0  0
 85 89  1  0  0  0
 85168  1  0  0  0
 85169  1  0  0  0
 86170  1  0  0  0
 86171  1  0  0  0
 88172  1  0  0  0
 89173  1  0  0  0
 89174  1  0  0  0
M  CHG  1  89   1
M  ISO  4   1 100  68 101  86 101  88 100
M  END
> <chiral flag>
0

> <version>
0

> <s_m_source_file>
/data/baiqing/PycharmProjects/Reinvent-master-3.2/result/LINK_invent/BTK/process_docking_weight1_custom_sum_contain_oxygen_bond_distance_aromatic_linkinvent_7_9_3/rearranged_h_0144.sdf

> <i_m_source_file_index>
49

> <r_mmod_Potential_Energy-OPLS-2005>
-262.383270263672

> <r_mmod_Stretch_Energy-OPLS-2005>
33.6360397338867

> <r_mmod_Bend_Energy-OPLS-2005>
130.897262573242

> <r_mmod_Torsional_Energy-OPLS-2005>
271.715576171875

> <r_mmod_Improper_Torsional_Energy-OPLS-2005>
2.81633162498474

> <r_mmod_Van_der_Waal_Energy-OPLS-2005>
153.820037841797

> <r_mmod_Electrostatic_Energy-OPLS-2005>
-391.881622314453

> <r_mmod_Solvation_Energy-OPLS-2005>
-471.544281005859

> <b_mmod_Minimization_Converged-OPLS-2005>
0

> <r_mmod_RMS_Derivative-OPLS-2005>
3.29361152648926

$$$$
50
                    3D
 Structure written by MMmdl.
183192  0  0  1  0            999 V2000
  -30.7051  -14.4582   20.2438 C   0  0  0  0  0  0
  -30.4064  -12.2151   19.4603 C   0  0  0  0  0  0
  -29.4821  -12.3371   18.2260 C   0  0  0  0  0  0
  -28.0016  -12.2902   18.6416 C   0  0  0  0  0  0
  -27.6480  -13.2033   19.8476 C   0  0  2  0  0  0
  -28.7091  -13.1037   20.9726 C   0  0  0  0  0  0
  -25.2565  -13.8133   20.5712 C   0  0  0  0  0  0
  -24.1814  -13.0423   20.9229 C   0  0  0  0  0  0
  -24.6382  -11.6879   20.8803 C   0  0  0  0  0  0
  -23.9050  -10.4259   21.0425 C   0  0  0  0  0  0
  -24.3594   -9.4162   21.9196 C   0  0  0  0  0  0
  -23.6258   -8.2201   22.0732 C   0  0  0  0  0  0
  -22.4227   -8.0267   21.3531 C   0  0  0  0  0  0
  -21.9892   -9.0241   20.4610 C   0  0  0  0  0  0
  -22.7231  -10.2108   20.3042 C   0  0  0  0  0  0
  -21.6816   -6.0720   22.5286 C   0  0  0  0  0  0
  -21.3999   -6.5625   23.8227 C   0  0  0  0  0  0
  -21.3659   -5.6761   24.9188 C   0  0  0  0  0  0
  -21.6056   -4.3027   24.7209 C   0  0  0  0  0  0
  -21.8811   -3.8134   23.4332 C   0  0  0  0  0  0
  -21.9170   -4.6952   22.3393 C   0  0  0  0  0  0
  -22.7832  -13.5205   21.1863 C   0  0  0  0  0  0
  -22.1630   -4.2143   21.0966 F   0  0  0  0  0  0
  -21.5619   -3.4522   25.7724 F   0  0  0  0  0  0
  -30.0485  -13.2864   20.3884 N   0  0  0  0  0  0
  -26.2984  -12.9307   20.3363 N   0  0  0  0  0  0
  -25.9309  -11.6475   20.5875 N   0  0  0  0  0  0
  -22.0494  -12.8186   22.0420 N   0  0  0  0  0  0
  -25.4267  -15.1874   20.4094 N   0  0  0  0  0  0
  -31.9142  -14.6049   20.3868 O   0  0  0  0  0  0
  -21.6596   -6.8854   21.4239 O   0  0  0  0  0  0
  -22.3495  -14.5501   20.6687 O   0  0  0  0  0  0
  -24.6027  -31.8741   23.2153 C   0  0  0  0  0  0
  -25.8953  -32.4859   23.8424 C   0  0  1  0  0  0
  -27.2629  -27.5136   20.0920 C   0  0  0  0  0  0
  -25.5851  -33.8672   24.2356 N   0  0  0  0  0  0
  -23.3869  -30.4947   21.5530 C   0  0  2  0  0  0
  -24.8382  -28.9669   20.1153 C   0  0  0  0  0  0
  -22.7355  -29.4676   22.5041 C   0  0  0  0  0  0
  -18.0238  -28.1385   22.8506 C   0  0  0  0  0  0
  -24.1469  -36.7296   23.2626 C   0  0  0  0  0  0
  -25.9018  -30.8671   21.3525 C   0  0  0  0  0  0
  -25.9844  -29.5030   20.7096 C   0  0  0  0  0  0
  -27.1916  -28.7871   20.7034 C   0  0  0  0  0  0
  -26.0993  -26.9761   19.5026 C   0  0  0  0  0  0
  -24.8875  -27.6972   19.5086 C   0  0  0  0  0  0
  -23.5903  -29.8194   20.1672 C   0  0  0  0  0  0
  -25.4073  -36.3148   24.0367 C   0  0  1  0  0  0
  -20.5836  -28.3641   23.1360 C   0  0  2  0  0  0
  -20.6741  -26.9392   22.5430 C   0  0  0  0  0  0
  -19.5718  -26.6392   21.5233 C   0  0  0  0  0  0
  -18.1894  -26.7942   22.1624 C   0  0  0  0  0  0
  -19.1496  -28.8823   23.2939 C   0  0  0  0  0  0
  -18.9429  -30.1437   23.8927 C   0  0  0  0  0  0
  -17.6440  -30.6593   24.0565 C   0  0  0  0  0  0
  -25.9014  -34.9513   23.5158 C   0  0  0  0  0  0
  -16.5330  -29.9092   23.6339 C   0  0  0  0  0  0
  -16.7233  -28.6518   23.0344 C   0  0  0  0  0  0
  -26.4419  -31.6617   25.0730 C   0  0  0  0  0  0
  -25.3720  -31.3664   26.1496 C   0  0  0  0  0  0
  -27.0236  -30.3097   24.5995 C   0  0  0  0  0  0
  -27.6002  -32.4336   25.7475 C   0  0  0  0  0  0
  -27.5613  -37.1755   24.8416 C   0  0  0  0  0  0
  -21.4084  -29.3017   22.3781 N   0  0  0  0  0  0
  -26.4234  -37.3856   23.9509 N   0  0  0  0  0  0
  -24.6485  -31.0916   22.1006 N   0  0  0  0  0  0
  -23.4168  -28.8232   23.3057 O   0  0  0  0  0  0
  -28.4215  -26.7762   20.0232 O   0  0  0  0  0  0
  -26.5578  -34.8958   22.4721 O   0  0  0  0  0  0
  -23.5253  -32.1456   23.7609 O   0  0  0  0  0  0
  -30.6791  -22.0043   19.5910 C   0  0  0  0  0  0
  -31.0460  -23.1350   20.3324 C   0  0  0  0  0  0
  -28.7110  -23.8052   20.4435 C   0  0  0  0  0  0
  -29.3255  -21.7523   19.2660 C   0  0  0  0  0  0
  -28.3349  -22.6897   19.6659 C   0  0  0  0  0  0
  -30.0626  -24.0369   20.7646 C   0  0  0  0  0  0
  -29.6255  -18.8927   16.8189 C   0  0  0  0  0  0
  -28.9830  -20.4663   18.5083 C   0  0  1  0  0  0
  -29.5928  -20.4017   17.1044 C   0  0  2  0  0  0
  -29.5296  -19.1908   19.2004 C   0  0  1  0  0  0
  -26.8758  -22.5511   19.2576 C   0  0  0  0  0  0
  -28.8346  -21.2237   16.0451 C   0  0  0  0  0  0
  -28.4089  -19.4517   21.5133 C   0  0  0  0  0  0
  -31.8777  -15.1287   17.5202 C   0  0  0  0  0  0
  -30.9570  -17.3566   18.3030 C   0  0  0  0  0  0
  -29.5484  -27.2568   20.7546 C   0  0  0  0  0  0
  -30.7105  -26.2697   20.6515 C   0  0  0  0  0  0
  -28.6314  -18.5579   20.2884 C   0  0  1  0  0  0
  -30.6508  -15.8590   18.1248 C   0  0  2  0  0  0
  -30.0694  -15.2250   19.3386 N   0  0  0  0  0  0
  -29.7395  -18.1974   18.1300 N   0  3  2  0  0  0
  -27.3926  -18.1418   19.7326 O   0  0  0  0  0  0
  -30.4428  -25.1407   21.4748 O   0  0  0  0  0  0
  -31.4565  -12.2670   19.1684 H   0  0  0  0  0  0
  -30.2801  -11.2492   19.9515 H   0  0  0  0  0  0
  -29.6893  -11.5137   17.5408 H   0  0  0  0  0  0
  -29.6815  -13.2406   17.6543 H   0  0  0  0  0  0
  -27.7914  -11.2516   18.8977 H   0  0  0  0  0  0
  -27.3611  -12.5166   17.7876 H   0  0  0  0  0  0
  -27.6449  -14.2219   19.4705 H   0  0  0  0  0  0
  -28.6544  -12.1327   21.4649 H   0  0  0  0  0  0
  -28.5245  -13.8507   21.7473 H   0  0  0  0  0  0
  -25.2720   -9.5597   22.4795 H   0  0  0  0  0  0
  -23.9942   -7.4563   22.7447 H   0  0  0  0  0  0
  -21.0843   -8.8765   19.8895 H   0  0  0  0  0  0
  -22.3722  -10.9651   19.6142 H   0  0  0  0  0  0
  -21.1991   -7.6131   23.9749 H   0  0  0  0  0  0
  -21.1467   -6.0472   25.9096 H   0  0  0  0  0  0
  -22.0574   -2.7582   23.2821 H   0  0  0  0  0  0
  -22.4047  -11.9795   22.4755 H   0  0  0  0  0  0
  -21.1122  -13.1203   22.2635 H   0  0  0  0  0  0
  -24.6662  -15.8448   20.5400 H   0  0  0  0  0  0
  -26.2860  -15.6407   20.1281 H   0  0  0  0  0  0
  -26.7034  -32.5604   23.1212 H   0  0  0  0  0  0
  -25.0051  -33.9851   25.0537 H   0  0  0  0  0  0
  -22.6708  -31.3079   21.4175 H   0  0  0  0  0  0
  -23.3836  -35.9506   23.3115 H   0  0  0  0  0  0
  -24.3639  -36.9076   22.2082 H   0  0  0  0  0  0
  -23.7059  -37.6380   23.6733 H   0  0  0  0  0  0
  -25.9937  -31.6322   20.5799 H   0  0  0  0  0  0
  -26.7961  -30.9356   21.9599 H   0  0  0  0  0  0
  -28.0545  -29.2480   21.1603 H   0  0  0  0  0  0
  -26.1389  -26.0056   19.0294 H   0  0  0  0  0  0
  -24.0086  -27.2794   19.0383 H   0  0  0  0  0  0
  -23.6803  -30.5920   19.4032 H   0  0  0  0  0  0
  -22.7200  -29.2263   19.8821 H   0  0  0  0  0  0
  -25.1226  -36.1973   25.0850 H   0  0  0  0  0  0
  -20.9905  -28.3188   24.1487 H   0  0  0  0  0  0
  -20.5665  -26.2236   23.3597 H   0  0  0  0  0  0
  -21.6604  -26.7469   22.1198 H   0  0  0  0  0  0
  -19.6868  -25.6316   21.1232 H   0  0  0  0  0  0
  -19.6667  -27.3222   20.6787 H   0  0  0  0  0  0
  -17.4177  -26.6708   21.4015 H   0  0  0  0  0  0
  -18.0259  -26.0075   22.8992 H   0  0  0  0  0  0
  -19.7910  -30.7241   24.2290 H   0  0  0  0  0  0
  -17.5003  -31.6284   24.5151 H   0  0  0  0  0  0
  -15.5329  -30.2996   23.7674 H   0  0  0  0  0  0
  -15.8634  -28.0854   22.7042 H   0  0  0  0  0  0
  -24.5860  -30.7056   25.7822 H   0  0  0  0  0  0
  -24.8945  -32.2792   26.5071 H   0  0  0  0  0  0
  -25.8107  -30.8733   27.0176 H   0  0  0  0  0  0
  -26.2742  -29.6895   24.1060 H   0  0  0  0  0  0
  -27.4076  -29.7292   25.4387 H   0  0  0  0  0  0
  -27.8537  -30.4483   23.9068 H   0  0  0  0  0  0
  -27.2645  -33.3671   26.1995 H   0  0  0  0  0  0
  -28.3829  -32.6825   25.0305 H   0  0  0  0  0  0
  -28.0616  -31.8483   26.5431 H   0  0  0  0  0  0
  -28.2398  -38.0281   24.7880 H   0  0  0  0  0  0
  -28.1355  -36.2882   24.5713 H   0  0  0  0  0  0
  -27.2433  -37.0727   25.8805 H   0  0  0  0  0  0
  -20.9220  -29.8711   21.7000 H   0  0  0  0  0  0
  -26.0118  -38.2871   24.1745 H   0  0  0  0  0  0
  -31.4642  -21.3293   19.2789 H   0  0  0  0  0  0
  -32.0865  -23.3074   20.5673 H   0  0  0  0  0  0
  -27.9591  -24.5040   20.7784 H   0  0  0  0  0  0
  -30.4112  -18.6378   16.1064 H   0  0  0  0  0  0
  -28.6824  -18.5842   16.3652 H   0  0  0  0  0  0
  -27.9040  -20.3559   18.4070 H   0  0  0  0  0  0
  -30.6264  -20.7537   17.1402 H   0  0  0  0  0  0
  -30.4984  -19.4172   19.6455 H   0  0  0  0  0  0
  -26.2942  -23.4252   19.5539 H   0  0  0  0  0  0
  -26.4130  -21.6766   19.7133 H   0  0  0  0  0  0
  -26.7873  -22.4655   18.1736 H   0  0  0  0  0  0
  -27.8109  -20.8697   15.9133 H   0  0  0  0  0  0
  -29.3309  -21.1717   15.0749 H   0  0  0  0  0  0
  -28.7826  -22.2766   16.3280 H   0  0  0  0  0  0
  -29.3657  -19.7809   21.9198 H   0  0  0  0  0  0
  -27.8898  -18.9172   22.3092 H   0  0  0  0  0  0
  -27.8328  -20.3465   21.2804 H   0  0  0  0  0  0
  -32.0533  -15.4510   16.4924 H   0  0  0  0  0  0
  -31.7648  -14.0459   17.4939 H   0  0  0  0  0  0
  -32.7880  -15.3509   18.0777 H   0  0  0  0  0  0
  -31.7131  -17.6726   17.5823 H   0  0  0  0  0  0
  -31.4256  -17.5060   19.2747 H   0  0  0  0  0  0
  -29.8698  -28.2146   20.3434 H   0  0  0  0  0  0
  -29.2981  -27.4033   21.8067 H   0  0  0  0  0  0
  -31.6186  -26.7436   21.0233 H   0  0  0  0  0  0
  -30.9097  -26.0086   19.6096 H   0  0  0  0  0  0
  -29.1283  -17.6531   20.6446 H   0  0  0  0  0  0
  -29.8754  -15.7636   17.3612 H   0  0  0  0  0  0
  -29.1007  -14.9586   19.2403 H   0  0  0  0  0  0
  -28.9315  -17.5933   18.2178 H   0  0  0  0  0  0
  -26.7840  -18.8731   19.7630 H   0  0  0  0  0  0
  1 25  1  0  0  0
  1 30  2  0  0  0
  1 90  1  0  0  0
  2  3  1  0  0  0
  2 25  1  0  0  0
  2 94  1  0  0  0
  2 95  1  0  0  0
  3  4  1  0  0  0
  3 96  1  0  0  0
  3 97  1  0  0  0
  4  5  1  0  0  0
  4 98  1  0  0  0
  4 99  1  0  0  0
  5  6  1  0  0  0
  5 26  1  0  0  0
  5100  1  0  0  0
  6 25  1  0  0  0
  6101  1  0  0  0
  6102  1  0  0  0
  7  8  2  0  0  0
  7 26  1  0  0  0
  7 29  1  0  0  0
  8  9  1  0  0  0
  8 22  1  0  0  0
  9 10  1  0  0  0
  9 27  2  0  0  0
 10 11  2  0  0  0
 10 15  1  0  0  0
 11 12  1  0  0  0
 11103  1  0  0  0
 12 13  2  0  0  0
 12104  1  0  0  0
 13 14  1  0  0  0
 13 31  1  0  0  0
 14 15  2  0  0  0
 14105  1  0  0  0
 15106  1  0  0  0
 16 17  2  0  0  0
 16 21  1  0  0  0
 16 31  1  0  0  0
 17 18  1  0  0  0
 17107  1  0  0  0
 18 19  2  0  0  0
 18108  1  0  0  0
 19 20  1  0  0  0
 19 24  1  0  0  0
 20 21  2  0  0  0
 20109  1  0  0  0
 21 23  1  0  0  0
 22 28  1  0  0  0
 22 32  2  0  0  0
 26 27  1  0  0  0
 28110  1  0  0  0
 28111  1  0  0  0
 29112  1  0  0  0
 29113  1  0  0  0
 33 34  1  0  0  0
 33 66  1  0  0  0
 33 70  2  0  0  0
 34 36  1  0  0  0
 34 59  1  0  0  0
 34114  1  0  0  0
 35 44  2  0  0  0
 35 45  1  0  0  0
 35 68  1  0  0  0
 36 56  1  0  0  0
 36115  1  0  0  0
 37 39  1  0  0  0
 37 47  1  0  0  0
 37 66  1  0  0  0
 37116  1  0  0  0
 38 43  2  0  0  0
 38 46  1  0  0  0
 38 47  1  0  0  0
 39 64  1  0  0  0
 39 67  2  0  0  0
 40 52  1  0  0  0
 40 53  2  0  0  0
 40 58  1  0  0  0
 41117  1  0  0  0
 41118  1  0  0  0
 41119  1  0  0  0
 41 48  1  0  0  0
 42 43  1  0  0  0
 42 66  1  0  0  0
 42120  1  0  0  0
 42121  1  0  0  0
 43 44  1  0  0  0
 44122  1  0  0  0
 45 46  2  0  0  0
 45123  1  0  0  0
 46124  1  0  0  0
 47125  1  0  0  0
 47126  1  0  0  0
 48 56  1  0  0  0
 48 65  1  0  0  0
 48127  1  0  0  0
 49 50  1  0  0  0
 49 53  1  0  0  0
 49 64  1  0  0  0
 49128  1  0  0  0
 50 51  1  0  0  0
 50129  1  0  0  0
 50130  1  0  0  0
 51 52  1  0  0  0
 51131  1  0  0  0
 51132  1  0  0  0
 52133  1  0  0  0
 52134  1  0  0  0
 53 54  1  0  0  0
 54 55  2  0  0  0
 54135  1  0  0  0
 55 57  1  0  0  0
 55136  1  0  0  0
 56 69  2  0  0  0
 57 58  2  0  0  0
 57137  1  0  0  0
 58138  1  0  0  0
 59 60  1  0  0  0
 59 61  1  0  0  0
 59 62  1  0  0  0
 60139  1  0  0  0
 60140  1  0  0  0
 60141  1  0  0  0
 61142  1  0  0  0
 61143  1  0  0  0
 61144  1  0  0  0
 62145  1  0  0  0
 62146  1  0  0  0
 62147  1  0  0  0
 63 65  1  0  0  0
 63148  1  0  0  0
 63149  1  0  0  0
 63150  1  0  0  0
 64151  1  0  0  0
 65152  1  0  0  0
 68 86  1  0  0  0
 71 72  2  0  0  0
 71 74  1  0  0  0
 71153  1  0  0  0
 72 76  1  0  0  0
 72154  1  0  0  0
 73 75  1  0  0  0
 73 76  2  0  0  0
 73155  1  0  0  0
 74 75  2  0  0  0
 74 78  1  0  0  0
 75 81  1  0  0  0
 76 93  1  0  0  0
 77 79  1  0  0  0
 77 91  1  0  0  0
 77156  1  0  0  0
 77157  1  0  0  0
 78 79  1  0  0  0
 78 80  1  0  0  0
 78158  1  0  0  0
 79 82  1  0  0  0
 79159  1  0  0  0
 80 88  1  0  0  0
 80 91  1  0  0  0
 80160  1  0  0  0
 81161  1  0  0  0
 81162  1  0  0  0
 81163  1  0  0  0
 82164  1  0  0  0
 82165  1  0  0  0
 82166  1  0  0  0
 83167  1  0  0  0
 83168  1  0  0  0
 83169  1  0  0  0
 83 88  1  0  0  0
 84170  1  0  0  0
 84171  1  0  0  0
 84172  1  0  0  0
 84 89  1  0  0  0
 85 89  1  0  0  0
 85173  1  0  0  0
 85174  1  0  0  0
 85 91  1  0  0  0
 86 87  1  0  0  0
 86175  1  0  0  0
 86176  1  0  0  0
 87 93  1  0  0  0
 87177  1  0  0  0
 87178  1  0  0  0
 88 92  1  0  0  0
 88179  1  0  0  0
 89 90  1  0  0  0
 89180  1  0  0  0
 90181  1  0  0  0
 91182  1  0  0  0
 92183  1  0  0  0
M  CHG  1  91   1
M  ISO  4   1 100  68 101  86 101  90 100
M  END
> <chiral flag>
0

> <version>
0

> <s_m_source_file>
/data/baiqing/PycharmProjects/Reinvent-master-3.2/result/LINK_invent/BTK/process_docking_weight1_custom_sum_contain_oxygen_bond_distance_aromatic_linkinvent_7_9_3/rearranged_h_0144.sdf

> <i_m_source_file_index>
50

> <r_mmod_Potential_Energy-OPLS-2005>
48.2026824951172

> <r_mmod_Stretch_Energy-OPLS-2005>
36.1598281860352

> <r_mmod_Bend_Energy-OPLS-2005>
133.192291259766

> <r_mmod_Torsional_Energy-OPLS-2005>
408.124267578125

> <r_mmod_Improper_Torsional_Energy-OPLS-2005>
24.4886569976807

> <r_mmod_Van_der_Waal_Energy-OPLS-2005>
151.53596496582

> <r_mmod_Electrostatic_Energy-OPLS-2005>
-319.633758544922

> <r_mmod_Solvation_Energy-OPLS-2005>
-433.028076171875

> <b_mmod_Minimization_Converged-OPLS-2005>
0

> <r_mmod_RMS_Derivative-OPLS-2005>
3.93128967285156

$$$$
51
                    3D
 Structure written by MMmdl.
176185  0  0  1  0            999 V2000
  -30.6964  -14.4702   20.5688 C   0  0  0  0  0  0
  -30.4271  -12.3030   19.4263 C   0  0  0  0  0  0
  -29.4971  -12.5059   18.2112 C   0  0  0  0  0  0
  -28.0157  -12.3729   18.6199 C   0  0  0  0  0  0
  -27.6638  -13.2065   19.8800 C   0  0  2  0  0  0
  -28.7051  -12.9806   20.9996 C   0  0  0  0  0  0
  -25.2604  -13.8163   20.5685 C   0  0  0  0  0  0
  -24.1848  -13.0441   20.9182 C   0  0  0  0  0  0
  -24.6406  -11.6908   20.8753 C   0  0  0  0  0  0
  -23.9073  -10.4293   21.0413 C   0  0  0  0  0  0
  -24.3624   -9.4206   21.9191 C   0  0  0  0  0  0
  -23.6306   -8.2240   22.0749 C   0  0  0  0  0  0
  -22.4290   -8.0280   21.3540 C   0  0  0  0  0  0
  -21.9929   -9.0250   20.4640 C   0  0  0  0  0  0
  -22.7255  -10.2137   20.3054 C   0  0  0  0  0  0
  -21.6858   -6.0744   22.5278 C   0  0  0  0  0  0
  -21.4008   -6.5648   23.8210 C   0  0  0  0  0  0
  -21.3661   -5.6795   24.9169 C   0  0  0  0  0  0
  -21.6038   -4.3056   24.7217 C   0  0  0  0  0  0
  -21.8818   -3.8152   23.4336 C   0  0  0  0  0  0
  -21.9196   -4.6975   22.3399 C   0  0  0  0  0  0
  -22.7862  -13.5240   21.1845 C   0  0  0  0  0  0
  -22.1656   -4.2163   21.0975 F   0  0  0  0  0  0
  -21.5646   -3.4540   25.7733 F   0  0  0  0  0  0
  -30.0358  -13.2858   20.4474 N   0  0  0  0  0  0
  -26.3048  -12.9328   20.3411 N   0  0  0  0  0  0
  -25.9338  -11.6494   20.5805 N   0  0  0  0  0  0
  -22.0490  -12.8232   22.0388 N   0  0  0  0  0  0
  -25.4352  -15.1870   20.4046 N   0  0  0  0  0  0
  -31.8283  -14.6532   20.1088 O   0  0  0  0  0  0
  -21.6642   -6.8887   21.4241 O   0  0  0  0  0  0
  -22.3549  -14.5552   20.6706 O   0  0  0  0  0  0
  -24.6163  -31.8674   23.2120 C   0  0  0  0  0  0
  -25.9058  -32.4819   23.8401 C   0  0  1  0  0  0
  -27.2249  -27.4175   20.1041 C   0  0  0  0  0  0
  -25.5913  -33.8619   24.2350 N   0  0  0  0  0  0
  -23.4045  -30.4921   21.5547 C   0  0  2  0  0  0
  -24.8498  -28.9629   20.1133 C   0  0  0  0  0  0
  -22.7416  -29.4657   22.5023 C   0  0  0  0  0  0
  -18.0268  -28.1382   22.8489 C   0  0  0  0  0  0
  -24.1480  -36.7295   23.2638 C   0  0  0  0  0  0
  -25.9351  -30.8286   21.3682 C   0  0  0  0  0  0
  -26.0121  -29.4623   20.7151 C   0  0  0  0  0  0
  -27.2037  -28.6976   20.7082 C   0  0  0  0  0  0
  -26.0490  -26.9511   19.4732 C   0  0  0  0  0  0
  -24.8644  -27.7067   19.4876 C   0  0  0  0  0  0
  -23.6122  -29.8303   20.1665 C   0  0  0  0  0  0
  -25.4107  -36.3116   24.0345 C   0  0  1  0  0  0
  -20.5861  -28.3666   23.1332 C   0  0  2  0  0  0
  -20.6786  -26.9405   22.5428 C   0  0  0  0  0  0
  -19.5764  -26.6391   21.5221 C   0  0  0  0  0  0
  -18.1924  -26.7927   22.1609 C   0  0  0  0  0  0
  -19.1516  -28.8840   23.2907 C   0  0  0  0  0  0
  -18.9446  -30.1449   23.8921 C   0  0  0  0  0  0
  -17.6447  -30.6594   24.0567 C   0  0  0  0  0  0
  -25.9035  -34.9480   23.5144 C   0  0  0  0  0  0
  -16.5332  -29.9094   23.6336 C   0  0  0  0  0  0
  -16.7258  -28.6509   23.0354 C   0  0  0  0  0  0
  -26.4486  -31.6574   25.0717 C   0  0  0  0  0  0
  -25.3738  -31.3654   26.1442 C   0  0  0  0  0  0
  -27.0326  -30.3019   24.6075 C   0  0  0  0  0  0
  -27.6088  -32.4262   25.7470 C   0  0  0  0  0  0
  -27.5585  -37.1806   24.8471 C   0  0  0  0  0  0
  -21.4145  -29.3024   22.3739 N   0  0  0  0  0  0
  -26.4292  -37.3791   23.9409 N   0  0  0  0  0  0
  -24.6703  -31.0761   22.1029 N   0  0  0  0  0  0
  -23.4180  -28.8202   23.3064 O   0  0  0  0  0  0
  -28.3649  -26.6348   20.1241 O   0  0  0  0  0  0
  -26.5599  -34.8929   22.4705 O   0  0  0  0  0  0
  -23.5350  -32.1451   23.7496 O   0  0  0  0  0  0
  -30.8707  -22.2475   24.2154 C   0  0  0  0  0  0
  -30.6670  -21.8033   21.4616 C   0  0  0  0  0  0
  -31.0797  -20.9427   23.7194 C   0  0  0  0  0  0
  -30.6188  -23.3332   23.3607 C   0  0  0  0  0  0
  -31.0075  -20.7122   22.3099 C   0  0  0  0  0  0
  -30.4910  -23.1188   21.9731 C   0  0  0  0  0  0
  -31.4398  -19.8863   24.7314 C   0  0  0  0  0  0
  -30.7209  -17.2371   22.5363 C   0  0  0  0  0  0
  -30.4437  -17.8466   20.1234 C   0  0  0  0  0  0
  -29.8291  -15.9972   22.3092 C   0  0  0  0  0  0
  -29.5732  -16.5783   19.9551 C   0  0  0  0  0  0
  -30.4154  -18.4029   21.5636 C   0  0  0  0  0  0
  -31.6727  -27.0055   24.2070 C   0  0  0  0  0  0
  -30.5215  -24.7343   23.9481 C   0  0  0  0  0  0
  -31.7832  -25.5718   23.6753 C   0  0  0  0  0  0
  -28.1707  -25.3041   20.6636 C   0  0  0  0  0  0
  -29.2337  -24.2546   20.2500 C   0  0  0  0  0  0
  -29.9191  -15.5246   20.9238 N   0  0  0  0  0  0
  -30.6272  -19.8051   25.7797 N   0  0  0  0  0  0
  -31.3910  -19.4879   21.7148 N   0  0  0  0  0  0
  -32.4216  -19.1542   24.6037 O   0  0  0  0  0  0
  -30.3244  -24.2316   21.1697 O   0  0  0  0  0  0
  -31.4706  -12.4088   19.1245 H   0  0  0  0  0  0
  -30.3307  -11.2900   19.8238 H   0  0  0  0  0  0
  -29.7366  -11.7819   17.4315 H   0  0  0  0  0  0
  -29.6700  -13.4907   17.7746 H   0  0  0  0  0  0
  -27.8169  -11.3175   18.8087 H   0  0  0  0  0  0
  -27.3712  -12.6593   17.7879 H   0  0  0  0  0  0
  -27.7074  -14.2564   19.5893 H   0  0  0  0  0  0
  -28.6821  -11.9449   21.3403 H   0  0  0  0  0  0
  -28.4702  -13.5824   21.8781 H   0  0  0  0  0  0
  -25.2750   -9.5691   22.4785 H   0  0  0  0  0  0
  -24.0015   -7.4629   22.7463 H   0  0  0  0  0  0
  -21.0864   -8.8760   19.8941 H   0  0  0  0  0  0
  -22.3702  -10.9675   19.6166 H   0  0  0  0  0  0
  -21.1980   -7.6150   23.9722 H   0  0  0  0  0  0
  -21.1494   -6.0518   25.9077 H   0  0  0  0  0  0
  -22.0605   -2.7616   23.2829 H   0  0  0  0  0  0
  -22.4083  -11.9874   22.4763 H   0  0  0  0  0  0
  -21.1093  -13.1245   22.2558 H   0  0  0  0  0  0
  -24.6788  -15.8536   20.5160 H   0  0  0  0  0  0
  -26.3009  -15.6169   20.1042 H   0  0  0  0  0  0
  -26.7126  -32.5529   23.1166 H   0  0  0  0  0  0
  -25.0075  -33.9779   25.0502 H   0  0  0  0  0  0
  -22.6938  -31.3097   21.4189 H   0  0  0  0  0  0
  -23.3762  -35.9609   23.3288 H   0  0  0  0  0  0
  -24.3585  -36.8927   22.2058 H   0  0  0  0  0  0
  -23.7208  -37.6486   23.6651 H   0  0  0  0  0  0
  -26.0471  -31.5924   20.5980 H   0  0  0  0  0  0
  -26.8237  -30.8818   21.9851 H   0  0  0  0  0  0
  -28.0974  -29.0744   21.1859 H   0  0  0  0  0  0
  -26.0359  -26.0000   18.9610 H   0  0  0  0  0  0
  -23.9739  -27.3217   19.0083 H   0  0  0  0  0  0
  -23.7213  -30.6095   19.4114 H   0  0  0  0  0  0
  -22.7348  -29.2528   19.8684 H   0  0  0  0  0  0
  -25.1282  -36.1985   25.0841 H   0  0  0  0  0  0
  -20.9935  -28.3233   24.1461 H   0  0  0  0  0  0
  -20.5711  -26.2266   23.3614 H   0  0  0  0  0  0
  -21.6654  -26.7489   22.1187 H   0  0  0  0  0  0
  -19.6932  -25.6308   21.1235 H   0  0  0  0  0  0
  -19.6712  -27.3236   20.6779 H   0  0  0  0  0  0
  -17.4207  -26.6698   21.3988 H   0  0  0  0  0  0
  -18.0307  -26.0060   22.8991 H   0  0  0  0  0  0
  -19.7925  -30.7260   24.2298 H   0  0  0  0  0  0
  -17.5004  -31.6279   24.5158 H   0  0  0  0  0  0
  -15.5340  -30.3003   23.7663 H   0  0  0  0  0  0
  -15.8646  -28.0839   22.7074 H   0  0  0  0  0  0
  -24.5976  -30.6935   25.7761 H   0  0  0  0  0  0
  -24.8846  -32.2784   26.4844 H   0  0  0  0  0  0
  -25.8079  -30.8857   27.0222 H   0  0  0  0  0  0
  -26.2876  -29.6767   24.1139 H   0  0  0  0  0  0
  -27.4136  -29.7255   25.4520 H   0  0  0  0  0  0
  -27.8684  -30.4348   23.9207 H   0  0  0  0  0  0
  -27.2767  -33.3597   26.2016 H   0  0  0  0  0  0
  -28.3914  -32.6739   25.0290 H   0  0  0  0  0  0
  -28.0712  -31.8373   26.5401 H   0  0  0  0  0  0
  -28.2600  -38.0102   24.7529 H   0  0  0  0  0  0
  -28.1085  -36.2643   24.6273 H   0  0  0  0  0  0
  -27.2298  -37.1432   25.8872 H   0  0  0  0  0  0
  -20.9330  -29.8696   21.6904 H   0  0  0  0  0  0
  -26.0188  -38.2875   24.1410 H   0  0  0  0  0  0
  -30.9671  -22.4295   25.2769 H   0  0  0  0  0  0
  -30.6297  -21.6457   20.3925 H   0  0  0  0  0  0
  -31.7666  -16.9378   22.4386 H   0  0  0  0  0  0
  -30.5857  -17.5561   23.5662 H   0  0  0  0  0  0
  -30.1077  -18.6101   19.4200 H   0  0  0  0  0  0
  -31.4699  -17.6067   19.8389 H   0  0  0  0  0  0
  -28.7904  -16.2434   22.5328 H   0  0  0  0  0  0
  -30.1106  -15.2075   23.0087 H   0  0  0  0  0  0
  -29.6699  -16.1986   18.9363 H   0  0  0  0  0  0
  -28.5195  -16.8314   20.0779 H   0  0  0  0  0  0
  -29.4150  -18.7861   21.7734 H   0  0  0  0  0  0
  -32.5553  -27.5867   23.9372 H   0  0  0  0  0  0
  -31.5846  -27.0211   25.2939 H   0  0  0  0  0  0
  -30.8008  -27.5122   23.7894 H   0  0  0  0  0  0
  -30.3522  -24.6684   25.0237 H   0  0  0  0  0  0
  -29.6416  -25.2305   23.5386 H   0  0  0  0  0  0
  -32.6529  -25.0817   24.1159 H   0  0  0  0  0  0
  -31.9712  -25.6132   22.6025 H   0  0  0  0  0  0
  -28.1084  -25.3660   21.7504 H   0  0  0  0  0  0
  -27.2152  -24.8840   20.3554 H   0  0  0  0  0  0
  -29.6035  -24.4583   19.2451 H   0  0  0  0  0  0
  -28.7546  -23.2746   20.2042 H   0  0  0  0  0  0
  -29.8225  -20.4123   25.8373 H   0  0  0  0  0  0
  -30.7972  -19.1351   26.5165 H   0  0  0  0  0  0
  -32.2289  -19.1270   22.1658 H   0  0  0  0  0  0
  1 25  1  0  0  0
  1 30  2  0  0  0
  1 88  1  0  0  0
  2  3  1  0  0  0
  2 25  1  0  0  0
  2 93  1  0  0  0
  2 94  1  0  0  0
  3  4  1  0  0  0
  3 95  1  0  0  0
  3 96  1  0  0  0
  4  5  1  0  0  0
  4 97  1  0  0  0
  4 98  1  0  0  0
  5  6  1  0  0  0
  5 26  1  0  0  0
  5 99  1  0  0  0
  6 25  1  0  0  0
  6100  1  0  0  0
  6101  1  0  0  0
  7  8  2  0  0  0
  7 26  1  0  0  0
  7 29  1  0  0  0
  8  9  1  0  0  0
  8 22  1  0  0  0
  9 10  1  0  0  0
  9 27  2  0  0  0
 10 11  2  0  0  0
 10 15  1  0  0  0
 11 12  1  0  0  0
 11102  1  0  0  0
 12 13  2  0  0  0
 12103  1  0  0  0
 13 14  1  0  0  0
 13 31  1  0  0  0
 14 15  2  0  0  0
 14104  1  0  0  0
 15105  1  0  0  0
 16 17  2  0  0  0
 16 21  1  0  0  0
 16 31  1  0  0  0
 17 18  1  0  0  0
 17106  1  0  0  0
 18 19  2  0  0  0
 18107  1  0  0  0
 19 20  1  0  0  0
 19 24  1  0  0  0
 20 21  2  0  0  0
 20108  1  0  0  0
 21 23  1  0  0  0
 22 28  1  0  0  0
 22 32  2  0  0  0
 26 27  1  0  0  0
 28109  1  0  0  0
 28110  1  0  0  0
 29111  1  0  0  0
 29112  1  0  0  0
 33 34  1  0  0  0
 33 66  1  0  0  0
 33 70  2  0  0  0
 34 36  1  0  0  0
 34 59  1  0  0  0
 34113  1  0  0  0
 35 44  2  0  0  0
 35 45  1  0  0  0
 35 68  1  0  0  0
 36 56  1  0  0  0
 36114  1  0  0  0
 37 39  1  0  0  0
 37 47  1  0  0  0
 37 66  1  0  0  0
 37115  1  0  0  0
 38 43  2  0  0  0
 38 46  1  0  0  0
 38 47  1  0  0  0
 39 64  1  0  0  0
 39 67  2  0  0  0
 40 52  1  0  0  0
 40 53  2  0  0  0
 40 58  1  0  0  0
 41116  1  0  0  0
 41117  1  0  0  0
 41118  1  0  0  0
 41 48  1  0  0  0
 42 43  1  0  0  0
 42 66  1  0  0  0
 42119  1  0  0  0
 42120  1  0  0  0
 43 44  1  0  0  0
 44121  1  0  0  0
 45 46  2  0  0  0
 45122  1  0  0  0
 46123  1  0  0  0
 47124  1  0  0  0
 47125  1  0  0  0
 48 56  1  0  0  0
 48 65  1  0  0  0
 48126  1  0  0  0
 49 50  1  0  0  0
 49 53  1  0  0  0
 49 64  1  0  0  0
 49127  1  0  0  0
 50 51  1  0  0  0
 50128  1  0  0  0
 50129  1  0  0  0
 51 52  1  0  0  0
 51130  1  0  0  0
 51131  1  0  0  0
 52132  1  0  0  0
 52133  1  0  0  0
 53 54  1  0  0  0
 54 55  2  0  0  0
 54134  1  0  0  0
 55 57  1  0  0  0
 55135  1  0  0  0
 56 69  2  0  0  0
 57 58  2  0  0  0
 57136  1  0  0  0
 58137  1  0  0  0
 59 60  1  0  0  0
 59 61  1  0  0  0
 59 62  1  0  0  0
 60138  1  0  0  0
 60139  1  0  0  0
 60140  1  0  0  0
 61141  1  0  0  0
 61142  1  0  0  0
 61143  1  0  0  0
 62144  1  0  0  0
 62145  1  0  0  0
 62146  1  0  0  0
 63 65  1  0  0  0
 63147  1  0  0  0
 63148  1  0  0  0
 63149  1  0  0  0
 64150  1  0  0  0
 65151  1  0  0  0
 68 86  1  0  0  0
 71 73  2  0  0  0
 71 74  1  0  0  0
 71152  1  0  0  0
 72 75  2  0  0  0
 72 76  1  0  0  0
 72153  1  0  0  0
 73 75  1  0  0  0
 73 77  1  0  0  0
 74 76  2  0  0  0
 74 84  1  0  0  0
 75 90  1  0  0  0
 76 92  1  0  0  0
 77 89  1  0  0  0
 77 91  2  0  0  0
 78 80  1  0  0  0
 78 82  1  0  0  0
 78154  1  0  0  0
 78155  1  0  0  0
 79 81  1  0  0  0
 79 82  1  0  0  0
 79156  1  0  0  0
 79157  1  0  0  0
 80 88  1  0  0  0
 80158  1  0  0  0
 80159  1  0  0  0
 81 88  1  0  0  0
 81160  1  0  0  0
 81161  1  0  0  0
 82 90  1  0  0  0
 82162  1  0  0  0
 83 85  1  0  0  0
 83163  1  0  0  0
 83164  1  0  0  0
 83165  1  0  0  0
 84 85  1  0  0  0
 84166  1  0  0  0
 84167  1  0  0  0
 85168  1  0  0  0
 85169  1  0  0  0
 86 87  1  0  0  0
 86170  1  0  0  0
 86171  1  0  0  0
 87 92  1  0  0  0
 87172  1  0  0  0
 87173  1  0  0  0
 89174  1  0  0  0
 89175  1  0  0  0
 90176  1  0  0  0
M  ISO  4   1 100  68 101  86 101  88 100
M  END
> <chiral flag>
0

> <version>
0

> <s_m_source_file>
/data/baiqing/PycharmProjects/Reinvent-master-3.2/result/LINK_invent/BTK/process_docking_weight1_custom_sum_contain_oxygen_bond_distance_aromatic_linkinvent_7_9_3/rearranged_h_0144.sdf

> <i_m_source_file_index>
51

> <r_mmod_Potential_Energy-OPLS-2005>
178.441146850586

> <r_mmod_Stretch_Energy-OPLS-2005>
44.1133575439453

> <r_mmod_Bend_Energy-OPLS-2005>
109.915229797363

> <r_mmod_Torsional_Energy-OPLS-2005>
402.693054199219

> <r_mmod_Improper_Torsional_Energy-OPLS-2005>
15.8835878372192

> <r_mmod_Van_der_Waal_Energy-OPLS-2005>
148.82405090332

> <r_mmod_Electrostatic_Energy-OPLS-2005>
-318.164978027344

> <r_mmod_Solvation_Energy-OPLS-2005>
-239.450393676758

> <b_mmod_Minimization_Converged-OPLS-2005>
0

> <r_mmod_RMS_Derivative-OPLS-2005>
2.32598447799683

$$$$
52
                    3D
 Structure written by MMmdl.
167176  0  0  1  0            999 V2000
  -30.7523  -14.3792   20.7273 C   0  0  0  0  0  0
  -30.4171  -12.3212   19.3924 C   0  0  0  0  0  0
  -29.4820  -12.5448   18.1905 C   0  0  0  0  0  0
  -28.0075  -12.3844   18.6050 C   0  0  0  0  0  0
  -27.6606  -13.2046   19.8764 C   0  0  2  0  0  0
  -28.6935  -12.9447   20.9922 C   0  0  0  0  0  0
  -25.2544  -13.8163   20.5653 C   0  0  0  0  0  0
  -24.1829  -13.0428   20.9216 C   0  0  0  0  0  0
  -24.6378  -11.6897   20.8751 C   0  0  0  0  0  0
  -23.9035  -10.4276   21.0401 C   0  0  0  0  0  0
  -24.3588   -9.4208   21.9191 C   0  0  0  0  0  0
  -23.6285   -8.2238   22.0762 C   0  0  0  0  0  0
  -22.4275   -8.0270   21.3532 C   0  0  0  0  0  0
  -21.9896   -9.0234   20.4632 C   0  0  0  0  0  0
  -22.7206  -10.2116   20.3044 C   0  0  0  0  0  0
  -21.6834   -6.0729   22.5269 C   0  0  0  0  0  0
  -21.3970   -6.5626   23.8203 C   0  0  0  0  0  0
  -21.3671   -5.6792   24.9187 C   0  0  0  0  0  0
  -21.6063   -4.3066   24.7231 C   0  0  0  0  0  0
  -21.8801   -3.8144   23.4356 C   0  0  0  0  0  0
  -21.9169   -4.6955   22.3406 C   0  0  0  0  0  0
  -22.7848  -13.5231   21.1854 C   0  0  0  0  0  0
  -22.1642   -4.2142   21.0994 F   0  0  0  0  0  0
  -21.5672   -3.4564   25.7749 F   0  0  0  0  0  0
  -30.0351  -13.2572   20.4606 N   0  0  0  0  0  0
  -26.2988  -12.9336   20.3323 N   0  0  0  0  0  0
  -25.9285  -11.6492   20.5714 N   0  0  0  0  0  0
  -22.0444  -12.8217   22.0360 N   0  0  0  0  0  0
  -25.4136  -15.1891   20.3917 N   0  0  0  0  0  0
  -31.7896  -14.6768   20.1236 O   0  0  0  0  0  0
  -21.6625   -6.8881   21.4229 O   0  0  0  0  0  0
  -22.3582  -14.5586   20.6728 O   0  0  0  0  0  0
  -24.6151  -31.8684   23.2104 C   0  0  0  0  0  0
  -25.9072  -32.4809   23.8379 C   0  0  1  0  0  0
  -27.2258  -27.4294   20.0853 C   0  0  0  0  0  0
  -25.5936  -33.8601   24.2333 N   0  0  0  0  0  0
  -23.3983  -30.4944   21.5524 C   0  0  2  0  0  0
  -24.8413  -28.9653   20.1119 C   0  0  0  0  0  0
  -22.7366  -29.4683   22.4996 C   0  0  0  0  0  0
  -18.0267  -28.1351   22.8481 C   0  0  0  0  0  0
  -24.1478  -36.7278   23.2614 C   0  0  0  0  0  0
  -25.9278  -30.8340   21.3585 C   0  0  0  0  0  0
  -26.0036  -29.4670   20.7094 C   0  0  0  0  0  0
  -27.1964  -28.7063   20.6952 C   0  0  0  0  0  0
  -26.0406  -26.9519   19.4745 C   0  0  0  0  0  0
  -24.8563  -27.7076   19.4894 C   0  0  0  0  0  0
  -23.6024  -29.8290   20.1659 C   0  0  0  0  0  0
  -25.4088  -36.3084   24.0338 C   0  0  1  0  0  0
  -20.5854  -28.3657   23.1301 C   0  0  2  0  0  0
  -20.6763  -26.9396   22.5404 C   0  0  0  0  0  0
  -19.5766  -26.6387   21.5169 C   0  0  0  0  0  0
  -18.1930  -26.7920   22.1562 C   0  0  0  0  0  0
  -19.1507  -28.8821   23.2894 C   0  0  0  0  0  0
  -18.9452  -30.1424   23.8920 C   0  0  0  0  0  0
  -17.6462  -30.6571   24.0555 C   0  0  0  0  0  0
  -25.9048  -34.9459   23.5139 C   0  0  0  0  0  0
  -16.5353  -29.9073   23.6319 C   0  0  0  0  0  0
  -16.7262  -28.6482   23.0349 C   0  0  0  0  0  0
  -26.4502  -31.6550   25.0670 C   0  0  0  0  0  0
  -25.3768  -31.3599   26.1400 C   0  0  0  0  0  0
  -27.0333  -30.3015   24.5970 C   0  0  0  0  0  0
  -27.6078  -32.4232   25.7468 C   0  0  0  0  0  0
  -27.5605  -37.1752   24.8423 C   0  0  0  0  0  0
  -21.4104  -29.3041   22.3721 N   0  0  0  0  0  0
  -26.4245  -37.3807   23.9469 N   0  0  0  0  0  0
  -24.6666  -31.0791   22.0995 N   0  0  0  0  0  0
  -23.4143  -28.8208   23.3019 O   0  0  0  0  0  0
  -28.3966  -26.6892   20.1079 O   0  0  0  0  0  0
  -26.5576  -34.8928   22.4671 O   0  0  0  0  0  0
  -23.5352  -32.1434   23.7525 O   0  0  0  0  0  0
  -30.9850  -20.1001   20.3648 C   0  0  0  0  0  0
  -30.9223  -21.4000   19.8274 C   0  0  0  0  0  0
  -28.5647  -21.5181   20.3904 C   0  0  0  0  0  0
  -28.6096  -20.2028   20.9196 C   0  0  0  0  0  0
  -29.8359  -19.4808   20.9113 C   0  0  0  0  0  0
  -29.7143  -22.1199   19.8340 C   0  0  0  0  0  0
  -26.0377  -19.5410   20.7195 C   0  0  0  0  0  0
  -27.3466  -19.6096   21.4893 C   0  0  1  0  0  0
  -26.8176  -18.2802   20.9947 C   0  0  1  0  0  0
  -30.3238  -16.4313   23.8335 C   0  0  0  0  0  0
  -31.1550  -17.4630   21.6248 C   0  0  0  0  0  0
  -28.3047  -25.3004   19.7462 C   0  0  0  0  0  0
  -29.5840  -24.5017   20.0583 C   0  0  0  0  0  0
  -30.9960  -16.1758   22.4699 C   0  0  2  0  0  0
  -29.8888  -18.1695   21.4302 N   0  0  0  0  0  0
  -30.2926  -15.1076   21.7582 N   0  0  0  0  0  0
  -26.3146  -17.4773   22.0450 O   0  0  0  0  0  0
  -29.6648  -23.3480   19.2159 O   0  0  0  0  0  0
  -31.4588  -12.4454   19.0885 H   0  0  0  0  0  0
  -30.3374  -11.2943   19.7538 H   0  0  0  0  0  0
  -29.7252  -11.8449   17.3907 H   0  0  0  0  0  0
  -29.6398  -13.5433   17.7804 H   0  0  0  0  0  0
  -27.8231  -11.3230   18.7817 H   0  0  0  0  0  0
  -27.3528  -12.6745   17.7825 H   0  0  0  0  0  0
  -27.7190  -14.2606   19.6107 H   0  0  0  0  0  0
  -28.6623  -11.8954   21.2903 H   0  0  0  0  0  0
  -28.4228  -13.5039   21.8880 H   0  0  0  0  0  0
  -25.2716   -9.5703   22.4783 H   0  0  0  0  0  0
  -23.9980   -7.4628   22.7482 H   0  0  0  0  0  0
  -21.0837   -8.8730   19.8941 H   0  0  0  0  0  0
  -22.3667  -10.9655   19.6163 H   0  0  0  0  0  0
  -21.1913   -7.6124   23.9716 H   0  0  0  0  0  0
  -21.1541   -6.0522   25.9097 H   0  0  0  0  0  0
  -22.0575   -2.7614   23.2851 H   0  0  0  0  0  0
  -22.3990  -11.9815   22.4685 H   0  0  0  0  0  0
  -21.1055  -13.1265   22.2546 H   0  0  0  0  0  0
  -24.5321  -15.6732   20.2447 H   0  0  0  0  0  0
  -26.1121  -15.4693   19.7150 H   0  0  0  0  0  0
  -26.7131  -32.5542   23.1135 H   0  0  0  0  0  0
  -25.0170  -33.9783   25.0547 H   0  0  0  0  0  0
  -22.6871  -31.3115   21.4137 H   0  0  0  0  0  0
  -23.3822  -35.9519   23.3080 H   0  0  0  0  0  0
  -24.3620  -36.9094   22.2075 H   0  0  0  0  0  0
  -23.7129  -37.6368   23.6763 H   0  0  0  0  0  0
  -26.0264  -31.5972   20.5842 H   0  0  0  0  0  0
  -26.8213  -30.8976   21.9673 H   0  0  0  0  0  0
  -28.0917  -29.0919   21.1609 H   0  0  0  0  0  0
  -25.9988  -25.9940   18.9759 H   0  0  0  0  0  0
  -23.9624  -27.3222   19.0165 H   0  0  0  0  0  0
  -23.6995  -30.6025   19.4031 H   0  0  0  0  0  0
  -22.7269  -29.2442   19.8766 H   0  0  0  0  0  0
  -25.1245  -36.1901   25.0826 H   0  0  0  0  0  0
  -20.9950  -28.3228   24.1424 H   0  0  0  0  0  0
  -20.5627  -26.2267   23.3578 H   0  0  0  0  0  0
  -21.6645  -26.7409   22.1245 H   0  0  0  0  0  0
  -19.6941  -25.6298   21.1212 H   0  0  0  0  0  0
  -19.6747  -27.3189   20.6696 H   0  0  0  0  0  0
  -17.4217  -26.6699   21.3937 H   0  0  0  0  0  0
  -18.0311  -26.0014   22.8902 H   0  0  0  0  0  0
  -19.7927  -30.7223   24.2318 H   0  0  0  0  0  0
  -17.5017  -31.6254   24.5151 H   0  0  0  0  0  0
  -15.5356  -30.2987   23.7640 H   0  0  0  0  0  0
  -15.8651  -28.0810   22.7082 H   0  0  0  0  0  0
  -24.6063  -30.6793   25.7741 H   0  0  0  0  0  0
  -24.8807  -32.2712   26.4726 H   0  0  0  0  0  0
  -25.8166  -30.8901   27.0210 H   0  0  0  0  0  0
  -26.2835  -29.6759   24.1103 H   0  0  0  0  0  0
  -27.4236  -29.7242   25.4365 H   0  0  0  0  0  0
  -27.8604  -30.4341   23.8989 H   0  0  0  0  0  0
  -27.2758  -33.3626   26.1891 H   0  0  0  0  0  0
  -28.4000  -32.6608   25.0357 H   0  0  0  0  0  0
  -28.0568  -31.8390   26.5509 H   0  0  0  0  0  0
  -28.2426  -38.0234   24.7754 H   0  0  0  0  0  0
  -28.1311  -36.2800   24.5893 H   0  0  0  0  0  0
  -27.2388  -37.0963   25.8820 H   0  0  0  0  0  0
  -20.9243  -29.8785   21.6978 H   0  0  0  0  0  0
  -26.0107  -38.2835   24.1637 H   0  0  0  0  0  0
  -31.9362  -19.5891   20.3304 H   0  0  0  0  0  0
  -31.8107  -21.8384   19.3983 H   0  0  0  0  0  0
  -27.6267  -22.0553   20.3820 H   0  0  0  0  0  0
  -26.0179  -19.8774   19.6844 H   0  0  0  0  0  0
  -25.1125  -19.6906   21.2723 H   0  0  0  0  0  0
  -27.2775  -19.8383   22.5519 H   0  0  0  0  0  0
  -27.3171  -17.7523   20.1828 H   0  0  0  0  0  0
  -30.8285  -17.2348   24.3753 H   0  0  0  0  0  0
  -30.3654  -15.5427   24.4694 H   0  0  0  0  0  0
  -29.2758  -16.7140   23.7282 H   0  0  0  0  0  0
  -31.6084  -17.2322   20.6585 H   0  0  0  0  0  0
  -31.8556  -18.1224   22.1416 H   0  0  0  0  0  0
  -27.4711  -24.8139   20.2552 H   0  0  0  0  0  0
  -28.1148  -25.2470   18.6746 H   0  0  0  0  0  0
  -29.6486  -24.2566   21.1198 H   0  0  0  0  0  0
  -30.4531  -25.1180   19.8266 H   0  0  0  0  0  0
  -31.9988  -15.7985   22.6836 H   0  0  0  0  0  0
  -29.0714  -17.7866   21.8999 H   0  0  0  0  0  0
  -29.4319  -14.7817   22.1708 H   0  0  0  0  0  0
  -25.9470  -16.6843   21.6448 H   0  0  0  0  0  0
  1 25  1  0  0  0
  1 30  2  0  0  0
  1 86  1  0  0  0
  2  3  1  0  0  0
  2 25  1  0  0  0
  2 89  1  0  0  0
  2 90  1  0  0  0
  3  4  1  0  0  0
  3 91  1  0  0  0
  3 92  1  0  0  0
  4  5  1  0  0  0
  4 93  1  0  0  0
  4 94  1  0  0  0
  5  6  1  0  0  0
  5 26  1  0  0  0
  5 95  1  0  0  0
  6 25  1  0  0  0
  6 96  1  0  0  0
  6 97  1  0  0  0
  7  8  2  0  0  0
  7 26  1  0  0  0
  7 29  1  0  0  0
  8  9  1  0  0  0
  8 22  1  0  0  0
  9 10  1  0  0  0
  9 27  2  0  0  0
 10 11  2  0  0  0
 10 15  1  0  0  0
 11 12  1  0  0  0
 11 98  1  0  0  0
 12 13  2  0  0  0
 12 99  1  0  0  0
 13 14  1  0  0  0
 13 31  1  0  0  0
 14 15  2  0  0  0
 14100  1  0  0  0
 15101  1  0  0  0
 16 17  2  0  0  0
 16 21  1  0  0  0
 16 31  1  0  0  0
 17 18  1  0  0  0
 17102  1  0  0  0
 18 19  2  0  0  0
 18103  1  0  0  0
 19 20  1  0  0  0
 19 24  1  0  0  0
 20 21  2  0  0  0
 20104  1  0  0  0
 21 23  1  0  0  0
 22 28  1  0  0  0
 22 32  2  0  0  0
 26 27  1  0  0  0
 28105  1  0  0  0
 28106  1  0  0  0
 29107  1  0  0  0
 29108  1  0  0  0
 33 34  1  0  0  0
 33 66  1  0  0  0
 33 70  2  0  0  0
 34 36  1  0  0  0
 34 59  1  0  0  0
 34109  1  0  0  0
 35 44  2  0  0  0
 35 45  1  0  0  0
 35 68  1  0  0  0
 36 56  1  0  0  0
 36110  1  0  0  0
 37 39  1  0  0  0
 37 47  1  0  0  0
 37 66  1  0  0  0
 37111  1  0  0  0
 38 43  2  0  0  0
 38 46  1  0  0  0
 38 47  1  0  0  0
 39 64  1  0  0  0
 39 67  2  0  0  0
 40 52  1  0  0  0
 40 53  2  0  0  0
 40 58  1  0  0  0
 41112  1  0  0  0
 41113  1  0  0  0
 41114  1  0  0  0
 41 48  1  0  0  0
 42 43  1  0  0  0
 42 66  1  0  0  0
 42115  1  0  0  0
 42116  1  0  0  0
 43 44  1  0  0  0
 44117  1  0  0  0
 45 46  2  0  0  0
 45118  1  0  0  0
 46119  1  0  0  0
 47120  1  0  0  0
 47121  1  0  0  0
 48 56  1  0  0  0
 48 65  1  0  0  0
 48122  1  0  0  0
 49 50  1  0  0  0
 49 53  1  0  0  0
 49 64  1  0  0  0
 49123  1  0  0  0
 50 51  1  0  0  0
 50124  1  0  0  0
 50125  1  0  0  0
 51 52  1  0  0  0
 51126  1  0  0  0
 51127  1  0  0  0
 52128  1  0  0  0
 52129  1  0  0  0
 53 54  1  0  0  0
 54 55  2  0  0  0
 54130  1  0  0  0
 55 57  1  0  0  0
 55131  1  0  0  0
 56 69  2  0  0  0
 57 58  2  0  0  0
 57132  1  0  0  0
 58133  1  0  0  0
 59 60  1  0  0  0
 59 61  1  0  0  0
 59 62  1  0  0  0
 60134  1  0  0  0
 60135  1  0  0  0
 60136  1  0  0  0
 61137  1  0  0  0
 61138  1  0  0  0
 61139  1  0  0  0
 62140  1  0  0  0
 62141  1  0  0  0
 62142  1  0  0  0
 63 65  1  0  0  0
 63143  1  0  0  0
 63144  1  0  0  0
 63145  1  0  0  0
 64146  1  0  0  0
 65147  1  0  0  0
 68 82  1  0  0  0
 71 72  2  0  0  0
 71 75  1  0  0  0
 71148  1  0  0  0
 72 76  1  0  0  0
 72149  1  0  0  0
 73 74  1  0  0  0
 73 76  2  0  0  0
 73150  1  0  0  0
 74 75  2  0  0  0
 74 78  1  0  0  0
 75 85  1  0  0  0
 76 88  1  0  0  0
 77 78  1  0  0  0
 77 79  1  0  0  0
 77151  1  0  0  0
 77152  1  0  0  0
 78 79  1  0  0  0
 78153  1  0  0  0
 79 87  1  0  0  0
 79154  1  0  0  0
 80155  1  0  0  0
 80156  1  0  0  0
 80157  1  0  0  0
 80 84  1  0  0  0
 81 84  1  0  0  0
 81 85  1  0  0  0
 81158  1  0  0  0
 81159  1  0  0  0
 82 83  1  0  0  0
 82160  1  0  0  0
 82161  1  0  0  0
 83 88  1  0  0  0
 83162  1  0  0  0
 83163  1  0  0  0
 84 86  1  0  0  0
 84164  1  0  0  0
 85165  1  0  0  0
 86166  1  0  0  0
 87167  1  0  0  0
M  ISO  4   1 100  68 101  82 101  86 100
M  END
> <chiral flag>
0

> <version>
0

> <s_m_source_file>
/data/baiqing/PycharmProjects/Reinvent-master-3.2/result/LINK_invent/BTK/process_docking_weight1_custom_sum_contain_oxygen_bond_distance_aromatic_linkinvent_7_9_3/rearranged_h_0144.sdf

> <i_m_source_file_index>
52

> <r_mmod_Potential_Energy-OPLS-2005>
-141.770919799805

> <r_mmod_Stretch_Energy-OPLS-2005>
38.2825927734375

> <r_mmod_Bend_Energy-OPLS-2005>
107.793479919434

> <r_mmod_Torsional_Energy-OPLS-2005>
270.279327392578

> <r_mmod_Improper_Torsional_Energy-OPLS-2005>
7.90846252441406

> <r_mmod_Van_der_Waal_Energy-OPLS-2005>
154.08642578125

> <r_mmod_Electrostatic_Energy-OPLS-2005>
-514.072326660156

> <r_mmod_Solvation_Energy-OPLS-2005>
-216.397537231445

> <b_mmod_Minimization_Converged-OPLS-2005>
0

> <r_mmod_RMS_Derivative-OPLS-2005>
3.5298182964325

$$$$
53
                    3D
 Structure written by MMmdl.
176185  0  0  1  0            999 V2000
  -30.6658  -14.7285   20.4521 C   0  0  0  0  0  0
  -30.4130  -12.4406   19.4868 C   0  0  0  0  0  0
  -29.5002  -12.4787   18.2440 C   0  0  0  0  0  0
  -28.0365  -12.2824   18.6752 C   0  0  0  0  0  0
  -27.6322  -13.2157   19.8457 C   0  0  2  0  0  0
  -28.6783  -13.2163   20.9831 C   0  0  0  0  0  0
  -25.2529  -13.8167   20.5739 C   0  0  0  0  0  0
  -24.1786  -13.0435   20.9223 C   0  0  0  0  0  0
  -24.6350  -11.6909   20.8783 C   0  0  0  0  0  0
  -23.9018  -10.4289   21.0430 C   0  0  0  0  0  0
  -24.3570   -9.4211   21.9212 C   0  0  0  0  0  0
  -23.6258   -8.2240   22.0772 C   0  0  0  0  0  0
  -22.4251   -8.0271   21.3544 C   0  0  0  0  0  0
  -21.9887   -9.0239   20.4639 C   0  0  0  0  0  0
  -22.7201  -10.2132   20.3062 C   0  0  0  0  0  0
  -21.6852   -6.0719   22.5275 C   0  0  0  0  0  0
  -21.4006   -6.5624   23.8205 C   0  0  0  0  0  0
  -21.3670   -5.6782   24.9172 C   0  0  0  0  0  0
  -21.6047   -4.3047   24.7224 C   0  0  0  0  0  0
  -21.8819   -3.8132   23.4348 C   0  0  0  0  0  0
  -21.9185   -4.6944   22.3399 C   0  0  0  0  0  0
  -22.7822  -13.5265   21.1844 C   0  0  0  0  0  0
  -22.1659   -4.2132   21.0980 F   0  0  0  0  0  0
  -21.5637   -3.4533   25.7739 F   0  0  0  0  0  0
  -29.9800  -13.5353   20.3889 N   0  0  0  0  0  0
  -26.2895  -12.9313   20.3317 N   0  0  0  0  0  0
  -25.9275  -11.6476   20.5806 N   0  0  0  0  0  0
  -22.0428  -12.8275   22.0384 N   0  0  0  0  0  0
  -25.4293  -15.1876   20.4172 N   0  0  0  0  0  0
  -31.8597  -14.7420   20.1343 O   0  0  0  0  0  0
  -21.6635   -6.8863   21.4235 O   0  0  0  0  0  0
  -22.3547  -14.5586   20.6699 O   0  0  0  0  0  0
  -24.6257  -31.8577   23.1971 C   0  0  0  0  0  0
  -25.9089  -32.4787   23.8326 C   0  0  1  0  0  0
  -27.2137  -27.2752   20.1174 C   0  0  0  0  0  0
  -25.5887  -33.8580   24.2232 N   0  0  0  0  0  0
  -23.4225  -30.4730   21.5436 C   0  0  2  0  0  0
  -24.8682  -28.9217   20.1053 C   0  0  0  0  0  0
  -22.7503  -29.4561   22.4955 C   0  0  0  0  0  0
  -18.0288  -28.1373   22.8486 C   0  0  0  0  0  0
  -24.1494  -36.7302   23.2637 C   0  0  0  0  0  0
  -25.9638  -30.7670   21.3788 C   0  0  0  0  0  0
  -26.0337  -29.3910   20.7220 C   0  0  0  0  0  0
  -27.2052  -28.5741   20.7247 C   0  0  0  0  0  0
  -26.0300  -26.8720   19.4595 C   0  0  0  0  0  0
  -24.8703  -27.6721   19.4639 C   0  0  0  0  0  0
  -23.6357  -29.8010   20.1612 C   0  0  0  0  0  0
  -25.4124  -36.3067   24.0295 C   0  0  1  0  0  0
  -20.5889  -28.3655   23.1304 C   0  0  2  0  0  0
  -20.6787  -26.9389   22.5389 C   0  0  0  0  0  0
  -19.5742  -26.6366   21.5216 C   0  0  0  0  0  0
  -18.1929  -26.7913   22.1641 C   0  0  0  0  0  0
  -19.1542  -28.8833   23.2880 C   0  0  0  0  0  0
  -18.9468  -30.1443   23.8877 C   0  0  0  0  0  0
  -17.6466  -30.6575   24.0556 C   0  0  0  0  0  0
  -25.9039  -34.9441   23.5057 C   0  0  0  0  0  0
  -16.5349  -29.9056   23.6357 C   0  0  0  0  0  0
  -16.7272  -28.6488   23.0343 C   0  0  0  0  0  0
  -26.4455  -31.6634   25.0733 C   0  0  0  0  0  0
  -25.3639  -31.3733   26.1420 C   0  0  0  0  0  0
  -27.0380  -30.3090   24.6197 C   0  0  0  0  0  0
  -27.5957  -32.4435   25.7546 C   0  0  0  0  0  0
  -27.5574  -37.1800   24.8458 C   0  0  0  0  0  0
  -21.4204  -29.3026   22.3737 N   0  0  0  0  0  0
  -26.4303  -37.3755   23.9377 N   0  0  0  0  0  0
  -24.6902  -31.0512   22.0973 N   0  0  0  0  0  0
  -23.4231  -28.8099   23.3028 O   0  0  0  0  0  0
  -28.3340  -26.4259   20.2032 O   0  0  0  0  0  0
  -26.5646  -34.8925   22.4649 O   0  0  0  0  0  0
  -23.5405  -32.1418   23.7244 O   0  0  0  0  0  0
  -26.7281  -23.9733   21.2784 C   0  0  0  0  0  0
  -28.4833  -22.4512   20.5492 C   0  0  0  0  0  0
  -27.9058  -23.7897   20.5430 C   0  0  0  0  0  0
  -26.1396  -22.9418   22.0312 C   0  0  0  0  0  0
  -26.8191  -21.6950   22.1875 C   0  0  0  0  0  0
  -27.9599  -21.3790   21.3768 C   0  0  0  0  0  0
  -30.0947  -18.2947   21.9000 C   0  0  0  0  0  0
  -28.4641  -17.9584   20.1518 C   0  0  0  0  0  0
  -30.8454  -16.9909   21.4211 C   0  0  0  0  0  0
  -29.2923  -16.6898   19.6808 C   0  0  0  0  0  0
  -29.2771  -19.1026   20.8395 C   0  0  0  0  0  0
  -23.7933  -23.9256   21.6656 C   0  0  0  0  0  0
  -24.8715  -23.9899   23.9637 C   0  0  0  0  0  0
  -27.3747  -20.2406   24.2788 C   0  0  0  0  0  0
  -25.5129  -19.5329   22.6517 C   0  0  0  0  0  0
  -28.3977  -25.0223   19.6793 C   0  0  0  0  0  0
  -24.7579  -23.2207   22.6398 C   0  0  0  0  0  0
  -26.3126  -20.6952   23.2565 C   0  0  0  0  0  0
  -30.0253  -15.9387   20.7463 N   0  0  0  0  0  0
  -28.4280  -20.0495   21.5851 O   0  0  0  0  0  0
  -31.4602  -12.5206   19.1903 H   0  0  0  0  0  0
  -30.3248  -11.4797   19.9968 H   0  0  0  0  0  0
  -29.7902  -11.6950   17.5425 H   0  0  0  0  0  0
  -29.6151  -13.4268   17.7168 H   0  0  0  0  0  0
  -27.9359  -11.2443   18.9934 H   0  0  0  0  0  0
  -27.3618  -12.4052   17.8276 H   0  0  0  0  0  0
  -27.5970  -14.2106   19.4166 H   0  0  0  0  0  0
  -28.7147  -12.2478   21.4837 H   0  0  0  0  0  0
  -28.4131  -13.9504   21.7461 H   0  0  0  0  0  0
  -25.2700   -9.5722   22.4808 H   0  0  0  0  0  0
  -23.9954   -7.4661   22.7521 H   0  0  0  0  0  0
  -21.0819   -8.8759   19.8945 H   0  0  0  0  0  0
  -22.3648  -10.9675   19.6177 H   0  0  0  0  0  0
  -21.1994   -7.6136   23.9705 H   0  0  0  0  0  0
  -21.1497   -6.0516   25.9080 H   0  0  0  0  0  0
  -22.0584   -2.7593   23.2853 H   0  0  0  0  0  0
  -22.3977  -11.9888   22.4731 H   0  0  0  0  0  0
  -21.1071  -13.1372   22.2589 H   0  0  0  0  0  0
  -24.6725  -15.8503   20.5422 H   0  0  0  0  0  0
  -26.2974  -15.6215   20.1311 H   0  0  0  0  0  0
  -26.7143  -32.5431   23.1062 H   0  0  0  0  0  0
  -24.9975  -33.9735   25.0336 H   0  0  0  0  0  0
  -22.7134  -31.2899   21.3971 H   0  0  0  0  0  0
  -23.3748  -35.9650   23.3289 H   0  0  0  0  0  0
  -24.3552  -36.8964   22.2053 H   0  0  0  0  0  0
  -23.7290  -37.6497   23.6709 H   0  0  0  0  0  0
  -26.0944  -31.5230   20.6038 H   0  0  0  0  0  0
  -26.8468  -30.8256   22.0047 H   0  0  0  0  0  0
  -28.0983  -28.9188   21.2278 H   0  0  0  0  0  0
  -25.9657  -25.9151   18.9649 H   0  0  0  0  0  0
  -23.9766  -27.3114   18.9721 H   0  0  0  0  0  0
  -23.7386  -30.5719   19.3972 H   0  0  0  0  0  0
  -22.7596  -29.2162   19.8761 H   0  0  0  0  0  0
  -25.1319  -36.1905   25.0790 H   0  0  0  0  0  0
  -20.9964  -28.3207   24.1428 H   0  0  0  0  0  0
  -20.5728  -26.2250   23.3565 H   0  0  0  0  0  0
  -21.6642  -26.7421   22.1148 H   0  0  0  0  0  0
  -19.6884  -25.6280   21.1233 H   0  0  0  0  0  0
  -19.6667  -27.3191   20.6756 H   0  0  0  0  0  0
  -17.4191  -26.6670   21.4041 H   0  0  0  0  0  0
  -18.0290  -26.0067   22.9041 H   0  0  0  0  0  0
  -19.7938  -30.7270   24.2230 H   0  0  0  0  0  0
  -17.5011  -31.6257   24.5153 H   0  0  0  0  0  0
  -15.5338  -30.2924   23.7707 H   0  0  0  0  0  0
  -15.8688  -28.0801   22.7031 H   0  0  0  0  0  0
  -24.5749  -30.7229   25.7632 H   0  0  0  0  0  0
  -24.8907  -32.2897   26.4952 H   0  0  0  0  0  0
  -25.7885  -30.8740   27.0135 H   0  0  0  0  0  0
  -26.3012  -29.6822   24.1174 H   0  0  0  0  0  0
  -27.4061  -29.7361   25.4709 H   0  0  0  0  0  0
  -27.8855  -30.4428   23.9478 H   0  0  0  0  0  0
  -27.2498  -33.3721   26.2108 H   0  0  0  0  0  0
  -28.3785  -32.7060   25.0416 H   0  0  0  0  0  0
  -28.0636  -31.8612   26.5495 H   0  0  0  0  0  0
  -28.2543  -38.0134   24.7536 H   0  0  0  0  0  0
  -28.1116  -36.2655   24.6286 H   0  0  0  0  0  0
  -27.2253  -37.1432   25.8844 H   0  0  0  0  0  0
  -20.9382  -29.8804   21.7003 H   0  0  0  0  0  0
  -26.0174  -38.2821   24.1386 H   0  0  0  0  0  0
  -26.2433  -24.9365   21.2423 H   0  0  0  0  0  0
  -29.3536  -22.2623   19.9385 H   0  0  0  0  0  0
  -30.8135  -18.9661   22.3733 H   0  0  0  0  0  0
  -29.4153  -17.9906   22.6972 H   0  0  0  0  0  0
  -27.7032  -17.6077   20.8490 H   0  0  0  0  0  0
  -27.9166  -18.3767   19.3069 H   0  0  0  0  0  0
  -31.3375  -16.5425   22.2869 H   0  0  0  0  0  0
  -31.6538  -17.2897   20.7504 H   0  0  0  0  0  0
  -30.0147  -17.0072   18.9266 H   0  0  0  0  0  0
  -28.6252  -16.0179   19.1504 H   0  0  0  0  0  0
  -29.9324  -19.6143   20.1352 H   0  0  0  0  0  0
  -23.7474  -23.4025   20.7099 H   0  0  0  0  0  0
  -24.0639  -24.9641   21.4708 H   0  0  0  0  0  0
  -22.7833  -23.9332   22.0738 H   0  0  0  0  0  0
  -25.4894  -23.4532   24.6848 H   0  0  0  0  0  0
  -23.8894  -24.1365   24.4134 H   0  0  0  0  0  0
  -25.3187  -24.9751   23.8165 H   0  0  0  0  0  0
  -27.8522  -21.1007   24.7489 H   0  0  0  0  0  0
  -28.1594  -19.6173   23.8594 H   0  0  0  0  0  0
  -26.9126  -19.6539   25.0745 H   0  0  0  0  0  0
  -26.0838  -18.9980   21.8963 H   0  0  0  0  0  0
  -24.5957  -19.8866   22.1776 H   0  0  0  0  0  0
  -25.2271  -18.8164   23.4229 H   0  0  0  0  0  0
  -27.9153  -24.9668   18.7040 H   0  0  0  0  0  0
  -29.4495  -24.8378   19.4600 H   0  0  0  0  0  0
  -24.2538  -22.2746   22.8241 H   0  0  0  0  0  0
  -25.6257  -21.2100   23.9232 H   0  0  0  0  0  0
  1 25  1  0  0  0
  1 30  2  0  0  0
  1 89  1  0  0  0
  2  3  1  0  0  0
  2 25  1  0  0  0
  2 91  1  0  0  0
  2 92  1  0  0  0
  3  4  1  0  0  0
  3 93  1  0  0  0
  3 94  1  0  0  0
  4  5  1  0  0  0
  4 95  1  0  0  0
  4 96  1  0  0  0
  5  6  1  0  0  0
  5 26  1  0  0  0
  5 97  1  0  0  0
  6 25  1  0  0  0
  6 98  1  0  0  0
  6 99  1  0  0  0
  7  8  2  0  0  0
  7 26  1  0  0  0
  7 29  1  0  0  0
  8  9  1  0  0  0
  8 22  1  0  0  0
  9 10  1  0  0  0
  9 27  2  0  0  0
 10 11  2  0  0  0
 10 15  1  0  0  0
 11 12  1  0  0  0
 11100  1  0  0  0
 12 13  2  0  0  0
 12101  1  0  0  0
 13 14  1  0  0  0
 13 31  1  0  0  0
 14 15  2  0  0  0
 14102  1  0  0  0
 15103  1  0  0  0
 16 17  2  0  0  0
 16 21  1  0  0  0
 16 31  1  0  0  0
 17 18  1  0  0  0
 17104  1  0  0  0
 18 19  2  0  0  0
 18105  1  0  0  0
 19 20  1  0  0  0
 19 24  1  0  0  0
 20 21  2  0  0  0
 20106  1  0  0  0
 21 23  1  0  0  0
 22 28  1  0  0  0
 22 32  2  0  0  0
 26 27  1  0  0  0
 28107  1  0  0  0
 28108  1  0  0  0
 29109  1  0  0  0
 29110  1  0  0  0
 33 34  1  0  0  0
 33 66  1  0  0  0
 33 70  2  0  0  0
 34 36  1  0  0  0
 34 59  1  0  0  0
 34111  1  0  0  0
 35 44  2  0  0  0
 35 45  1  0  0  0
 35 68  1  0  0  0
 36 56  1  0  0  0
 36112  1  0  0  0
 37 39  1  0  0  0
 37 47  1  0  0  0
 37 66  1  0  0  0
 37113  1  0  0  0
 38 43  2  0  0  0
 38 46  1  0  0  0
 38 47  1  0  0  0
 39 64  1  0  0  0
 39 67  2  0  0  0
 40 52  1  0  0  0
 40 53  2  0  0  0
 40 58  1  0  0  0
 41114  1  0  0  0
 41115  1  0  0  0
 41116  1  0  0  0
 41 48  1  0  0  0
 42 43  1  0  0  0
 42 66  1  0  0  0
 42117  1  0  0  0
 42118  1  0  0  0
 43 44  1  0  0  0
 44119  1  0  0  0
 45 46  2  0  0  0
 45120  1  0  0  0
 46121  1  0  0  0
 47122  1  0  0  0
 47123  1  0  0  0
 48 56  1  0  0  0
 48 65  1  0  0  0
 48124  1  0  0  0
 49 50  1  0  0  0
 49 53  1  0  0  0
 49 64  1  0  0  0
 49125  1  0  0  0
 50 51  1  0  0  0
 50126  1  0  0  0
 50127  1  0  0  0
 51 52  1  0  0  0
 51128  1  0  0  0
 51129  1  0  0  0
 52130  1  0  0  0
 52131  1  0  0  0
 53 54  1  0  0  0
 54 55  2  0  0  0
 54132  1  0  0  0
 55 57  1  0  0  0
 55133  1  0  0  0
 56 69  2  0  0  0
 57 58  2  0  0  0
 57134  1  0  0  0
 58135  1  0  0  0
 59 60  1  0  0  0
 59 61  1  0  0  0
 59 62  1  0  0  0
 60136  1  0  0  0
 60137  1  0  0  0
 60138  1  0  0  0
 61139  1  0  0  0
 61140  1  0  0  0
 61141  1  0  0  0
 62142  1  0  0  0
 62143  1  0  0  0
 62144  1  0  0  0
 63 65  1  0  0  0
 63145  1  0  0  0
 63146  1  0  0  0
 63147  1  0  0  0
 64148  1  0  0  0
 65149  1  0  0  0
 68 86  1  0  0  0
 71 73  2  0  0  0
 71 74  1  0  0  0
 71150  1  0  0  0
 72 73  1  0  0  0
 72 76  2  0  0  0
 72151  1  0  0  0
 73 86  1  0  0  0
 74 75  2  0  0  0
 74 87  1  0  0  0
 75 76  1  0  0  0
 75 88  1  0  0  0
 76 90  1  0  0  0
 77 79  1  0  0  0
 77 81  1  0  0  0
 77152  1  0  0  0
 77153  1  0  0  0
 78 80  1  0  0  0
 78 81  1  0  0  0
 78154  1  0  0  0
 78155  1  0  0  0
 79 89  1  0  0  0
 79156  1  0  0  0
 79157  1  0  0  0
 80 89  1  0  0  0
 80158  1  0  0  0
 80159  1  0  0  0
 81 90  1  0  0  0
 81160  1  0  0  0
 82161  1  0  0  0
 82162  1  0  0  0
 82163  1  0  0  0
 82 87  1  0  0  0
 83 87  1  0  0  0
 83164  1  0  0  0
 83165  1  0  0  0
 83166  1  0  0  0
 84167  1  0  0  0
 84168  1  0  0  0
 84169  1  0  0  0
 84 88  1  0  0  0
 85 88  1  0  0  0
 85170  1  0  0  0
 85171  1  0  0  0
 85172  1  0  0  0
 86173  1  0  0  0
 86174  1  0  0  0
 87175  1  0  0  0
 88176  1  0  0  0
M  ISO  4   1 100  68 101  86 101  89 100
M  END
> <chiral flag>
0

> <version>
0

> <s_m_source_file>
/data/baiqing/PycharmProjects/Reinvent-master-3.2/result/LINK_invent/BTK/process_docking_weight1_custom_sum_contain_oxygen_bond_distance_aromatic_linkinvent_7_9_3/rearranged_h_0144.sdf

> <i_m_source_file_index>
53

> <r_mmod_Potential_Energy-OPLS-2005>
436.486389160156

> <r_mmod_Stretch_Energy-OPLS-2005>
113.751136779785

> <r_mmod_Bend_Energy-OPLS-2005>
263.349822998047

> <r_mmod_Torsional_Energy-OPLS-2005>
331.489227294922

> <r_mmod_Improper_Torsional_Energy-OPLS-2005>
8.20651626586914

> <r_mmod_Van_der_Waal_Energy-OPLS-2005>
139.676467895508

> <r_mmod_Electrostatic_Energy-OPLS-2005>
-314.016815185547

> <r_mmod_Solvation_Energy-OPLS-2005>
-187.485412597656

> <b_mmod_Minimization_Converged-OPLS-2005>
0

> <r_mmod_RMS_Derivative-OPLS-2005>
2.99433612823486

$$$$
54
                    3D
 Structure written by MMmdl.
176185  0  0  1  0            999 V2000
  -30.7234  -14.4422   20.5947 C   0  0  0  0  0  0
  -30.4145  -12.2970   19.4205 C   0  0  0  0  0  0
  -29.4917  -12.5118   18.2049 C   0  0  0  0  0  0
  -28.0128  -12.3756   18.6159 C   0  0  0  0  0  0
  -27.6624  -13.2094   19.8785 C   0  0  2  0  0  0
  -28.7015  -12.9837   20.9993 C   0  0  0  0  0  0
  -25.2587  -13.8171   20.5679 C   0  0  0  0  0  0
  -24.1836  -13.0441   20.9172 C   0  0  0  0  0  0
  -24.6397  -11.6911   20.8744 C   0  0  0  0  0  0
  -23.9071  -10.4290   21.0414 C   0  0  0  0  0  0
  -24.3622   -9.4204   21.9196 C   0  0  0  0  0  0
  -23.6291   -8.2243   22.0764 C   0  0  0  0  0  0
  -22.4278   -8.0282   21.3546 C   0  0  0  0  0  0
  -21.9914   -9.0257   20.4647 C   0  0  0  0  0  0
  -22.7251  -10.2132   20.3057 C   0  0  0  0  0  0
  -21.6848   -6.0743   22.5283 C   0  0  0  0  0  0
  -21.4012   -6.5645   23.8219 C   0  0  0  0  0  0
  -21.3659   -5.6792   24.9178 C   0  0  0  0  0  0
  -21.6044   -4.3058   24.7225 C   0  0  0  0  0  0
  -21.8814   -3.8156   23.4342 C   0  0  0  0  0  0
  -21.9188   -4.6973   22.3404 C   0  0  0  0  0  0
  -22.7856  -13.5241   21.1839 C   0  0  0  0  0  0
  -22.1657   -4.2166   21.0979 F   0  0  0  0  0  0
  -21.5629   -3.4541   25.7732 F   0  0  0  0  0  0
  -30.0342  -13.2790   20.4482 N   0  0  0  0  0  0
  -26.3025  -12.9348   20.3378 N   0  0  0  0  0  0
  -25.9328  -11.6504   20.5781 N   0  0  0  0  0  0
  -22.0489  -12.8238   22.0387 N   0  0  0  0  0  0
  -25.4299  -15.1896   20.4100 N   0  0  0  0  0  0
  -31.8269  -14.6300   20.0756 O   0  0  0  0  0  0
  -21.6638   -6.8891   21.4246 O   0  0  0  0  0  0
  -22.3545  -14.5557   20.6702 O   0  0  0  0  0  0
  -24.6138  -31.8684   23.2106 C   0  0  0  0  0  0
  -25.9037  -32.4825   23.8404 C   0  0  1  0  0  0
  -27.2345  -27.4526   20.0955 C   0  0  0  0  0  0
  -25.5897  -33.8621   24.2340 N   0  0  0  0  0  0
  -23.4023  -30.4899   21.5500 C   0  0  2  0  0  0
  -24.8521  -28.9608   20.1090 C   0  0  0  0  0  0
  -22.7419  -29.4645   22.4999 C   0  0  0  0  0  0
  -18.0271  -28.1383   22.8499 C   0  0  0  0  0  0
  -24.1494  -36.7293   23.2646 C   0  0  0  0  0  0
  -25.9283  -30.8395   21.3623 C   0  0  0  0  0  0
  -26.0077  -29.4745   20.7116 C   0  0  0  0  0  0
  -27.2042  -28.7245   20.7103 C   0  0  0  0  0  0
  -26.0717  -26.9528   19.4797 C   0  0  0  0  0  0
  -24.8774  -27.6976   19.4906 C   0  0  0  0  0  0
  -23.6103  -29.8212   20.1640 C   0  0  0  0  0  0
  -25.4117  -36.3110   24.0355 C   0  0  1  0  0  0
  -20.5863  -28.3657   23.1338 C   0  0  2  0  0  0
  -20.6770  -26.9395   22.5421 C   0  0  0  0  0  0
  -19.5734  -26.6373   21.5239 C   0  0  0  0  0  0
  -18.1906  -26.7929   22.1629 C   0  0  0  0  0  0
  -19.1528  -28.8837   23.2907 C   0  0  0  0  0  0
  -18.9456  -30.1445   23.8917 C   0  0  0  0  0  0
  -17.6460  -30.6591   24.0573 C   0  0  0  0  0  0
  -25.9040  -34.9475   23.5141 C   0  0  0  0  0  0
  -16.5345  -29.9098   23.6342 C   0  0  0  0  0  0
  -16.7261  -28.6512   23.0362 C   0  0  0  0  0  0
  -26.4471  -31.6598   25.0722 C   0  0  0  0  0  0
  -25.3735  -31.3684   26.1464 C   0  0  0  0  0  0
  -27.0317  -30.3068   24.6048 C   0  0  0  0  0  0
  -27.6035  -32.4323   25.7493 C   0  0  0  0  0  0
  -27.5591  -37.1796   24.8474 C   0  0  0  0  0  0
  -21.4146  -29.3026   22.3755 N   0  0  0  0  0  0
  -26.4301  -37.3792   23.9424 N   0  0  0  0  0  0
  -24.6659  -31.0800   22.0992 N   0  0  0  0  0  0
  -23.4199  -28.8197   23.3046 O   0  0  0  0  0  0
  -28.3506  -26.6535   20.1281 O   0  0  0  0  0  0
  -26.5579  -34.8915   22.4689 O   0  0  0  0  0  0
  -23.5329  -32.1424   23.7499 O   0  0  0  0  0  0
  -30.4387  -24.4979   20.7783 C   0  0  0  0  0  0
  -28.6511  -23.7026   22.2102 C   0  0  0  0  0  0
  -29.2272  -24.7386   21.4480 C   0  0  0  0  0  0
  -31.1192  -23.2710   20.9371 C   0  0  0  0  0  0
  -30.5788  -22.2509   21.7738 C   0  0  0  0  0  0
  -29.3047  -22.4525   22.3710 C   0  0  0  0  0  0
  -29.8118  -17.8539   20.5922 C   0  0  0  0  0  0
  -30.5723  -17.2790   22.8647 C   0  0  0  0  0  0
  -30.4807  -19.2492   20.7031 C   0  0  0  0  0  0
  -31.2783  -18.6462   22.9812 C   0  0  0  0  0  0
  -30.5945  -16.8097   21.4085 C   0  0  1  0  0  0
  -32.4605  -23.1153   20.2360 C   0  0  0  0  0  0
  -26.9781  -20.1869   24.1324 C   0  0  0  0  0  0
  -32.1015  -21.3314   23.5241 C   0  0  0  0  0  0
  -28.5923  -26.1264   21.4353 C   0  0  0  0  0  0
  -27.4357  -21.5436   23.5967 C   0  0  0  0  0  0
  -31.4300  -21.0223   22.1655 C   0  0  1  0  0  0
  -30.0871  -15.4333   21.2496 N   0  0  0  0  0  0
  -30.6890  -19.7139   22.1099 N   0  3  1  0  0  0
  -28.7725  -21.4192   23.1182 O   0  0  0  0  0  0
  -31.4612  -12.3826   19.1233 H   0  0  0  0  0  0
  -30.3004  -11.2844   19.8114 H   0  0  0  0  0  0
  -29.7283  -11.7921   17.4204 H   0  0  0  0  0  0
  -29.6648  -13.4999   17.7758 H   0  0  0  0  0  0
  -27.8199  -11.3191   18.8046 H   0  0  0  0  0  0
  -27.3627  -12.6585   17.7869 H   0  0  0  0  0  0
  -27.7090  -14.2596   19.5897 H   0  0  0  0  0  0
  -28.6716  -11.9470   21.3382 H   0  0  0  0  0  0
  -28.4640  -13.5822   21.8795 H   0  0  0  0  0  0
  -25.2765   -9.5678   22.4774 H   0  0  0  0  0  0
  -24.0002   -7.4634   22.7482 H   0  0  0  0  0  0
  -21.0859   -8.8777   19.8947 H   0  0  0  0  0  0
  -22.3725  -10.9673   19.6161 H   0  0  0  0  0  0
  -21.2003   -7.6152   23.9730 H   0  0  0  0  0  0
  -21.1486   -6.0521   25.9081 H   0  0  0  0  0  0
  -22.0593   -2.7616   23.2836 H   0  0  0  0  0  0
  -22.4068  -11.9877   22.4765 H   0  0  0  0  0  0
  -21.1113  -13.1289   22.2603 H   0  0  0  0  0  0
  -24.6642  -15.8449   20.5223 H   0  0  0  0  0  0
  -26.2827  -15.6295   20.0885 H   0  0  0  0  0  0
  -26.7110  -32.5559   23.1172 H   0  0  0  0  0  0
  -25.0116  -33.9788   25.0529 H   0  0  0  0  0  0
  -22.6891  -31.3056   21.4096 H   0  0  0  0  0  0
  -23.3776  -35.9603   23.3303 H   0  0  0  0  0  0
  -24.3603  -36.8908   22.2060 H   0  0  0  0  0  0
  -23.7215  -37.6485   23.6655 H   0  0  0  0  0  0
  -26.0360  -31.6057   20.5934 H   0  0  0  0  0  0
  -26.8176  -30.8939   21.9781 H   0  0  0  0  0  0
  -28.0953  -29.1097   21.1854 H   0  0  0  0  0  0
  -26.0859  -25.9755   19.0172 H   0  0  0  0  0  0
  -23.9888  -27.2943   19.0255 H   0  0  0  0  0  0
  -23.7101  -30.5947   19.4019 H   0  0  0  0  0  0
  -22.7374  -29.2351   19.8711 H   0  0  0  0  0  0
  -25.1293  -36.1982   25.0849 H   0  0  0  0  0  0
  -20.9930  -28.3209   24.1468 H   0  0  0  0  0  0
  -20.5714  -26.2254   23.3606 H   0  0  0  0  0  0
  -21.6634  -26.7461   22.1185 H   0  0  0  0  0  0
  -19.6900  -25.6287   21.1254 H   0  0  0  0  0  0
  -19.6691  -27.3205   20.6789 H   0  0  0  0  0  0
  -17.4190  -26.6713   21.4014 H   0  0  0  0  0  0
  -18.0270  -26.0058   22.9006 H   0  0  0  0  0  0
  -19.7935  -30.7257   24.2280 H   0  0  0  0  0  0
  -17.5020  -31.6280   24.5150 H   0  0  0  0  0  0
  -15.5351  -30.3009   23.7659 H   0  0  0  0  0  0
  -15.8653  -28.0843   22.7080 H   0  0  0  0  0  0
  -24.5914  -30.7028   25.7796 H   0  0  0  0  0  0
  -24.8909  -32.2825   26.4927 H   0  0  0  0  0  0
  -25.8072  -30.8840   27.0217 H   0  0  0  0  0  0
  -26.2848  -29.6825   24.1119 H   0  0  0  0  0  0
  -27.4177  -29.7301   25.4463 H   0  0  0  0  0  0
  -27.8638  -30.4459   23.9138 H   0  0  0  0  0  0
  -27.2650  -33.3621   26.2079 H   0  0  0  0  0  0
  -28.3835  -32.6890   25.0310 H   0  0  0  0  0  0
  -28.0705  -31.8446   26.5403 H   0  0  0  0  0  0
  -28.2582  -38.0118   24.7553 H   0  0  0  0  0  0
  -28.1112  -36.2646   24.6265 H   0  0  0  0  0  0
  -27.2300  -37.1393   25.8874 H   0  0  0  0  0  0
  -20.9310  -29.8753   21.6982 H   0  0  0  0  0  0
  -26.0200  -38.2874   24.1434 H   0  0  0  0  0  0
  -30.8711  -25.2914   20.1822 H   0  0  0  0  0  0
  -27.7158  -23.9091   22.7074 H   0  0  0  0  0  0
  -29.7764  -17.5588   19.5417 H   0  0  0  0  0  0
  -28.7760  -17.9106   20.9316 H   0  0  0  0  0  0
  -29.5493  -17.3516   23.2365 H   0  0  0  0  0  0
  -31.0841  -16.5567   23.5019 H   0  0  0  0  0  0
  -29.8811  -19.9838   20.1639 H   0  0  0  0  0  0
  -31.4446  -19.2095   20.1927 H   0  0  0  0  0  0
  -32.3335  -18.5230   22.7306 H   0  0  0  0  0  0
  -31.2334  -18.9458   24.0281 H   0  0  0  0  0  0
  -31.6343  -16.8419   21.0769 H   0  0  0  0  0  0
  -32.6978  -23.9886   19.6275 H   0  0  0  0  0  0
  -32.4491  -22.2522   19.5696 H   0  0  0  0  0  0
  -33.2675  -22.9936   20.9591 H   0  0  0  0  0  0
  -25.9536  -20.2466   24.4998 H   0  0  0  0  0  0
  -27.6102  -19.8509   24.9540 H   0  0  0  0  0  0
  -27.0044  -19.4274   23.3511 H   0  0  0  0  0  0
  -32.6076  -22.2965   23.4870 H   0  0  0  0  0  0
  -32.8669  -20.6036   23.7925 H   0  0  0  0  0  0
  -31.3729  -21.3801   24.3336 H   0  0  0  0  0  0
  -29.2544  -26.8099   21.9684 H   0  0  0  0  0  0
  -27.6693  -26.0861   22.0201 H   0  0  0  0  0  0
  -27.3842  -22.2910   24.3903 H   0  0  0  0  0  0
  -26.7608  -21.8492   22.7958 H   0  0  0  0  0  0
  -32.2544  -20.9126   21.4629 H   0  0  0  0  0  0
  -29.1753  -15.2168   21.6243 H   0  0  0  0  0  0
  -29.7775  -19.9326   22.4932 H   0  0  0  0  0  0
  1 25  1  0  0  0
  1 30  2  0  0  0
  1 88  1  0  0  0
  2  3  1  0  0  0
  2 25  1  0  0  0
  2 91  1  0  0  0
  2 92  1  0  0  0
  3  4  1  0  0  0
  3 93  1  0  0  0
  3 94  1  0  0  0
  4  5  1  0  0  0
  4 95  1  0  0  0
  4 96  1  0  0  0
  5  6  1  0  0  0
  5 26  1  0  0  0
  5 97  1  0  0  0
  6 25  1  0  0  0
  6 98  1  0  0  0
  6 99  1  0  0  0
  7  8  2  0  0  0
  7 26  1  0  0  0
  7 29  1  0  0  0
  8  9  1  0  0  0
  8 22  1  0  0  0
  9 10  1  0  0  0
  9 27  2  0  0  0
 10 11  2  0  0  0
 10 15  1  0  0  0
 11 12  1  0  0  0
 11100  1  0  0  0
 12 13  2  0  0  0
 12101  1  0  0  0
 13 14  1  0  0  0
 13 31  1  0  0  0
 14 15  2  0  0  0
 14102  1  0  0  0
 15103  1  0  0  0
 16 17  2  0  0  0
 16 21  1  0  0  0
 16 31  1  0  0  0
 17 18  1  0  0  0
 17104  1  0  0  0
 18 19  2  0  0  0
 18105  1  0  0  0
 19 20  1  0  0  0
 19 24  1  0  0  0
 20 21  2  0  0  0
 20106  1  0  0  0
 21 23  1  0  0  0
 22 28  1  0  0  0
 22 32  2  0  0  0
 26 27  1  0  0  0
 28107  1  0  0  0
 28108  1  0  0  0
 29109  1  0  0  0
 29110  1  0  0  0
 33 34  1  0  0  0
 33 66  1  0  0  0
 33 70  2  0  0  0
 34 36  1  0  0  0
 34 59  1  0  0  0
 34111  1  0  0  0
 35 44  2  0  0  0
 35 45  1  0  0  0
 35 68  1  0  0  0
 36 56  1  0  0  0
 36112  1  0  0  0
 37 39  1  0  0  0
 37 47  1  0  0  0
 37 66  1  0  0  0
 37113  1  0  0  0
 38 43  2  0  0  0
 38 46  1  0  0  0
 38 47  1  0  0  0
 39 64  1  0  0  0
 39 67  2  0  0  0
 40 52  1  0  0  0
 40 53  2  0  0  0
 40 58  1  0  0  0
 41114  1  0  0  0
 41115  1  0  0  0
 41116  1  0  0  0
 41 48  1  0  0  0
 42 43  1  0  0  0
 42 66  1  0  0  0
 42117  1  0  0  0
 42118  1  0  0  0
 43 44  1  0  0  0
 44119  1  0  0  0
 45 46  2  0  0  0
 45120  1  0  0  0
 46121  1  0  0  0
 47122  1  0  0  0
 47123  1  0  0  0
 48 56  1  0  0  0
 48 65  1  0  0  0
 48124  1  0  0  0
 49 50  1  0  0  0
 49 53  1  0  0  0
 49 64  1  0  0  0
 49125  1  0  0  0
 50 51  1  0  0  0
 50126  1  0  0  0
 50127  1  0  0  0
 51 52  1  0  0  0
 51128  1  0  0  0
 51129  1  0  0  0
 52130  1  0  0  0
 52131  1  0  0  0
 53 54  1  0  0  0
 54 55  2  0  0  0
 54132  1  0  0  0
 55 57  1  0  0  0
 55133  1  0  0  0
 56 69  2  0  0  0
 57 58  2  0  0  0
 57134  1  0  0  0
 58135  1  0  0  0
 59 60  1  0  0  0
 59 61  1  0  0  0
 59 62  1  0  0  0
 60136  1  0  0  0
 60137  1  0  0  0
 60138  1  0  0  0
 61139  1  0  0  0
 61140  1  0  0  0
 61141  1  0  0  0
 62142  1  0  0  0
 62143  1  0  0  0
 62144  1  0  0  0
 63 65  1  0  0  0
 63145  1  0  0  0
 63146  1  0  0  0
 63147  1  0  0  0
 64148  1  0  0  0
 65149  1  0  0  0
 68 85  1  0  0  0
 71 73  2  0  0  0
 71 74  1  0  0  0
 71150  1  0  0  0
 72 73  1  0  0  0
 72 76  2  0  0  0
 72151  1  0  0  0
 73 85  1  0  0  0
 74 75  2  0  0  0
 74 82  1  0  0  0
 75 76  1  0  0  0
 75 87  1  0  0  0
 76 90  1  0  0  0
 77 79  1  0  0  0
 77 81  1  0  0  0
 77152  1  0  0  0
 77153  1  0  0  0
 78 80  1  0  0  0
 78 81  1  0  0  0
 78154  1  0  0  0
 78155  1  0  0  0
 79156  1  0  0  0
 79157  1  0  0  0
 79 89  1  0  0  0
 80 89  1  0  0  0
 80158  1  0  0  0
 80159  1  0  0  0
 81 88  1  0  0  0
 81160  1  0  0  0
 82161  1  0  0  0
 82162  1  0  0  0
 82163  1  0  0  0
 83 86  1  0  0  0
 83164  1  0  0  0
 83165  1  0  0  0
 83166  1  0  0  0
 84167  1  0  0  0
 84168  1  0  0  0
 84169  1  0  0  0
 84 87  1  0  0  0
 85170  1  0  0  0
 85171  1  0  0  0
 86 90  1  0  0  0
 86172  1  0  0  0
 86173  1  0  0  0
 87 89  1  0  0  0
 87174  1  0  0  0
 88175  1  0  0  0
 89176  1  0  0  0
M  CHG  1  89   1
M  ISO  4   1 100  68 101  85 101  88 100
M  END
> <chiral flag>
0

> <version>
0

> <s_m_source_file>
/data/baiqing/PycharmProjects/Reinvent-master-3.2/result/LINK_invent/BTK/process_docking_weight1_custom_sum_contain_oxygen_bond_distance_aromatic_linkinvent_7_9_3/rearranged_h_0144.sdf

> <i_m_source_file_index>
54

> <r_mmod_Potential_Energy-OPLS-2005>
-104.387313842773

> <r_mmod_Stretch_Energy-OPLS-2005>
42.3435287475586

> <r_mmod_Bend_Energy-OPLS-2005>
107.411628723145

> <r_mmod_Torsional_Energy-OPLS-2005>
265.308898925781

> <r_mmod_Improper_Torsional_Energy-OPLS-2005>
3.52872014045715

> <r_mmod_Van_der_Waal_Energy-OPLS-2005>
168.292816162109

> <r_mmod_Electrostatic_Energy-OPLS-2005>
-297.477996826172

> <r_mmod_Solvation_Energy-OPLS-2005>
-405.129760742188

> <b_mmod_Minimization_Converged-OPLS-2005>
0

> <r_mmod_RMS_Derivative-OPLS-2005>
1.79332339763641

$$$$
55
                    3D
 Structure written by MMmdl.
176185  0  0  1  0            999 V2000
  -30.6621  -14.7240   20.4391 C   0  0  0  0  0  0
  -30.4188  -12.4390   19.4734 C   0  0  0  0  0  0
  -29.5056  -12.4925   18.2317 C   0  0  0  0  0  0
  -28.0332  -12.3242   18.6513 C   0  0  0  0  0  0
  -27.6393  -13.2364   19.8450 C   0  0  2  0  0  0
  -28.6868  -13.2021   20.9776 C   0  0  0  0  0  0
  -25.2523  -13.8205   20.5720 C   0  0  0  0  0  0
  -24.1805  -13.0451   20.9203 C   0  0  0  0  0  0
  -24.6395  -11.6923   20.8748 C   0  0  0  0  0  0
  -23.9065  -10.4292   21.0406 C   0  0  0  0  0  0
  -24.3609   -9.4207   21.9183 C   0  0  0  0  0  0
  -23.6282   -8.2241   22.0752 C   0  0  0  0  0  0
  -22.4263   -8.0274   21.3541 C   0  0  0  0  0  0
  -21.9896   -9.0256   20.4651 C   0  0  0  0  0  0
  -22.7233  -10.2135   20.3059 C   0  0  0  0  0  0
  -21.6851   -6.0724   22.5279 C   0  0  0  0  0  0
  -21.4018   -6.5632   23.8213 C   0  0  0  0  0  0
  -21.3662   -5.6782   24.9177 C   0  0  0  0  0  0
  -21.6046   -4.3047   24.7228 C   0  0  0  0  0  0
  -21.8818   -3.8138   23.4348 C   0  0  0  0  0  0
  -21.9190   -4.6950   22.3406 C   0  0  0  0  0  0
  -22.7828  -13.5237   21.1856 C   0  0  0  0  0  0
  -22.1664   -4.2135   21.0982 F   0  0  0  0  0  0
  -21.5623   -3.4533   25.7742 F   0  0  0  0  0  0
  -29.9820  -13.5285   20.3755 N   0  0  0  0  0  0
  -26.2941  -12.9425   20.3289 N   0  0  0  0  0  0
  -25.9326  -11.6553   20.5752 N   0  0  0  0  0  0
  -22.0472  -12.8227   22.0422 N   0  0  0  0  0  0
  -25.4236  -15.1935   20.4188 N   0  0  0  0  0  0
  -31.8676  -14.7318   20.1732 O   0  0  0  0  0  0
  -21.6635   -6.8867   21.4238 O   0  0  0  0  0  0
  -22.3508  -14.5538   20.6692 O   0  0  0  0  0  0
  -24.6314  -31.8562   23.2002 C   0  0  0  0  0  0
  -25.9137  -32.4752   23.8347 C   0  0  1  0  0  0
  -27.2162  -27.2695   20.1224 C   0  0  0  0  0  0
  -25.5941  -33.8558   24.2273 N   0  0  0  0  0  0
  -23.4295  -30.4797   21.5421 C   0  0  2  0  0  0
  -24.8778  -28.9324   20.1060 C   0  0  0  0  0  0
  -22.7510  -29.4604   22.4901 C   0  0  0  0  0  0
  -18.0295  -28.1391   22.8476 C   0  0  0  0  0  0
  -24.1489  -36.7282   23.2640 C   0  0  0  0  0  0
  -25.9755  -30.7692   21.3815 C   0  0  0  0  0  0
  -26.0497  -29.3940   20.7210 C   0  0  0  0  0  0
  -27.2260  -28.5745   20.7207 C   0  0  0  0  0  0
  -26.0314  -26.8899   19.4563 C   0  0  0  0  0  0
  -24.8739  -27.6884   19.4602 C   0  0  0  0  0  0
  -23.6486  -29.8186   20.1565 C   0  0  0  0  0  0
  -25.4109  -36.3070   24.0337 C   0  0  1  0  0  0
  -20.5899  -28.3699   23.1258 C   0  0  2  0  0  0
  -20.6776  -26.9413   22.5403 C   0  0  0  0  0  0
  -19.5759  -26.6384   21.5201 C   0  0  0  0  0  0
  -18.1943  -26.7933   22.1616 C   0  0  0  0  0  0
  -19.1548  -28.8861   23.2866 C   0  0  0  0  0  0
  -18.9466  -30.1462   23.8883 C   0  0  0  0  0  0
  -17.6465  -30.6589   24.0555 C   0  0  0  0  0  0
  -25.9061  -34.9436   23.5108 C   0  0  0  0  0  0
  -16.5358  -29.9085   23.6327 C   0  0  0  0  0  0
  -16.7282  -28.6504   23.0348 C   0  0  0  0  0  0
  -26.4503  -31.6572   25.0735 C   0  0  0  0  0  0
  -25.3729  -31.3732   26.1462 C   0  0  0  0  0  0
  -27.0332  -30.2978   24.6227 C   0  0  0  0  0  0
  -27.6082  -32.4290   25.7488 C   0  0  0  0  0  0
  -27.5585  -37.1790   24.8459 C   0  0  0  0  0  0
  -21.4214  -29.3052   22.3643 N   0  0  0  0  0  0
  -26.4280  -37.3770   23.9419 N   0  0  0  0  0  0
  -24.6973  -31.0531   22.0972 N   0  0  0  0  0  0
  -23.4214  -28.8139   23.2993 O   0  0  0  0  0  0
  -28.2672  -26.3251   20.1701 O   0  0  0  0  0  0
  -26.5620  -34.8911   22.4672 O   0  0  0  0  0  0
  -23.5459  -32.1377   23.7297 O   0  0  0  0  0  0
  -28.8207  -21.4000   19.3474 C   0  0  0  0  0  0
  -29.1279  -22.8887   21.6713 C   0  0  0  0  0  0
  -29.2968  -20.6828   20.4887 C   0  0  0  0  0  0
  -28.4801  -22.8037   19.3718 C   0  0  0  0  0  0
  -28.5922  -23.5938   20.5579 C   0  0  0  0  0  0
  -29.4819  -21.4977   21.6432 C   0  0  0  0  0  0
  -29.0718  -18.1581   21.5170 C   0  0  0  0  0  0
  -29.6353  -18.3027   19.1892 C   0  0  0  0  0  0
  -29.7534  -16.7276   21.6353 C   0  0  0  0  0  0
  -30.3152  -16.8739   19.2677 C   0  0  0  0  0  0
  -29.7365  -19.1343   20.4951 C   0  0  0  0  0  0
  -27.9426  -23.4477   18.1079 C   0  0  0  0  0  0
  -33.1309  -19.1006   23.1076 C   0  0  0  0  0  0
  -30.4996  -20.5386   25.6461 C   0  0  0  0  0  0
  -27.8867  -25.0116   20.7907 C   0  0  0  0  0  0
  -31.9624  -19.1683   24.1009 C   0  0  0  0  0  0
  -31.0957  -21.4958   23.3830 C   0  0  0  0  0  0
  -31.5690  -20.5961   24.5424 C   0  0  1  0  0  0
  -29.9603  -15.9352   20.3877 N   0  0  0  0  0  0
  -29.9695  -20.8851   22.7686 O   0  0  0  0  0  0
  -31.4646  -12.5288   19.1733 H   0  0  0  0  0  0
  -30.3362  -11.4721   19.9726 H   0  0  0  0  0  0
  -29.7842  -11.7106   17.5238 H   0  0  0  0  0  0
  -29.6374  -13.4432   17.7126 H   0  0  0  0  0  0
  -27.8931  -11.2781   18.9262 H   0  0  0  0  0  0
  -27.3720  -12.5053   17.8029 H   0  0  0  0  0  0
  -27.6258  -14.2530   19.4513 H   0  0  0  0  0  0
  -28.7206  -12.2233   21.4576 H   0  0  0  0  0  0
  -28.4310  -13.9212   21.7560 H   0  0  0  0  0  0
  -25.2752   -9.5684   22.4759 H   0  0  0  0  0  0
  -23.9993   -7.4622   22.7466 H   0  0  0  0  0  0
  -21.0818   -8.8778   19.8960 H   0  0  0  0  0  0
  -22.3688  -10.9666   19.6165 H   0  0  0  0  0  0
  -21.2015   -7.6141   23.9714 H   0  0  0  0  0  0
  -21.1491   -6.0516   25.9080 H   0  0  0  0  0  0
  -22.0593   -2.7598   23.2850 H   0  0  0  0  0  0
  -22.4081  -11.9898   22.4820 H   0  0  0  0  0  0
  -21.1106  -13.1281   22.2641 H   0  0  0  0  0  0
  -24.6624  -15.8518   20.5461 H   0  0  0  0  0  0
  -26.2886  -15.6361   20.1331 H   0  0  0  0  0  0
  -26.7204  -32.5407   23.1088 H   0  0  0  0  0  0
  -25.0089  -33.9688   25.0419 H   0  0  0  0  0  0
  -22.7262  -31.3024   21.3987 H   0  0  0  0  0  0
  -23.3759  -35.9610   23.3282 H   0  0  0  0  0  0
  -24.3584  -36.8917   22.2060 H   0  0  0  0  0  0
  -23.7230  -37.6479   23.6660 H   0  0  0  0  0  0
  -26.1174  -31.5312   20.6139 H   0  0  0  0  0  0
  -26.8511  -30.8156   22.0171 H   0  0  0  0  0  0
  -28.1189  -28.9173   21.2235 H   0  0  0  0  0  0
  -25.9847  -25.9400   18.9432 H   0  0  0  0  0  0
  -23.9816  -27.3370   18.9602 H   0  0  0  0  0  0
  -23.7733  -30.5976   19.4030 H   0  0  0  0  0  0
  -22.7673  -29.2528   19.8509 H   0  0  0  0  0  0
  -25.1287  -36.1920   25.0830 H   0  0  0  0  0  0
  -21.0000  -28.3278   24.1375 H   0  0  0  0  0  0
  -20.5659  -26.2315   23.3612 H   0  0  0  0  0  0
  -21.6650  -26.7428   22.1210 H   0  0  0  0  0  0
  -19.6922  -25.6294   21.1240 H   0  0  0  0  0  0
  -19.6705  -27.3177   20.6717 H   0  0  0  0  0  0
  -17.4217  -26.6668   21.4019 H   0  0  0  0  0  0
  -18.0352  -26.0079   22.9016 H   0  0  0  0  0  0
  -19.7945  -30.7273   24.2250 H   0  0  0  0  0  0
  -17.5024  -31.6263   24.5168 H   0  0  0  0  0  0
  -15.5356  -30.2978   23.7666 H   0  0  0  0  0  0
  -15.8689  -28.0822   22.7056 H   0  0  0  0  0  0
  -24.5900  -30.7085   25.7790 H   0  0  0  0  0  0
  -24.8922  -32.2902   26.4880 H   0  0  0  0  0  0
  -25.8046  -30.8913   27.0244 H   0  0  0  0  0  0
  -26.2908  -29.6728   24.1250 H   0  0  0  0  0  0
  -27.3993  -29.7245   25.4754 H   0  0  0  0  0  0
  -27.8801  -30.4228   23.9477 H   0  0  0  0  0  0
  -27.2729  -33.3609   26.2045 H   0  0  0  0  0  0
  -28.3894  -32.6808   25.0307 H   0  0  0  0  0  0
  -28.0740  -31.8418   26.5409 H   0  0  0  0  0  0
  -28.2587  -38.0108   24.7534 H   0  0  0  0  0  0
  -28.1101  -36.2638   24.6237 H   0  0  0  0  0  0
  -27.2317  -37.1390   25.8868 H   0  0  0  0  0  0
  -20.9399  -29.8779   21.6850 H   0  0  0  0  0  0
  -26.0167  -38.2847   24.1430 H   0  0  0  0  0  0
  -28.7024  -20.8591   18.4186 H   0  0  0  0  0  0
  -29.2017  -23.4211   22.6082 H   0  0  0  0  0  0
  -29.0684  -18.6069   22.5083 H   0  0  0  0  0  0
  -28.0186  -18.0368   21.2618 H   0  0  0  0  0  0
  -28.5878  -18.1938   18.9032 H   0  0  0  0  0  0
  -30.1055  -18.8568   18.3758 H   0  0  0  0  0  0
  -29.1794  -16.1235   22.3387 H   0  0  0  0  0  0
  -30.7341  -16.8602   22.0964 H   0  0  0  0  0  0
  -31.3929  -17.0426   19.2953 H   0  0  0  0  0  0
  -30.1275  -16.3520   18.3274 H   0  0  0  0  0  0
  -30.7957  -19.1783   20.7539 H   0  0  0  0  0  0
  -28.2213  -22.8773   17.2213 H   0  0  0  0  0  0
  -28.3458  -24.4539   17.9874 H   0  0  0  0  0  0
  -26.8554  -23.5177   18.1455 H   0  0  0  0  0  0
  -33.3990  -18.0634   22.9021 H   0  0  0  0  0  0
  -34.0176  -19.5993   23.5007 H   0  0  0  0  0  0
  -32.8781  -19.5614   22.1530 H   0  0  0  0  0  0
  -30.8428  -19.9601   26.5041 H   0  0  0  0  0  0
  -29.5803  -20.0766   25.2828 H   0  0  0  0  0  0
  -30.2462  -21.5373   26.0028 H   0  0  0  0  0  0
  -27.9290  -25.2019   21.8640 H   0  0  0  0  0  0
  -26.8344  -24.7941   20.6178 H   0  0  0  0  0  0
  -32.2347  -18.5887   24.9841 H   0  0  0  0  0  0
  -31.0985  -18.6617   23.6728 H   0  0  0  0  0  0
  -31.8924  -21.6352   22.6497 H   0  0  0  0  0  0
  -30.8457  -22.4839   23.7712 H   0  0  0  0  0  0
  -32.4539  -21.0645   24.9768 H   0  0  0  0  0  0
  1 25  1  0  0  0
  1 30  2  0  0  0
  1 89  1  0  0  0
  2  3  1  0  0  0
  2 25  1  0  0  0
  2 91  1  0  0  0
  2 92  1  0  0  0
  3  4  1  0  0  0
  3 93  1  0  0  0
  3 94  1  0  0  0
  4  5  1  0  0  0
  4 95  1  0  0  0
  4 96  1  0  0  0
  5  6  1  0  0  0
  5 26  1  0  0  0
  5 97  1  0  0  0
  6 25  1  0  0  0
  6 98  1  0  0  0
  6 99  1  0  0  0
  7  8  2  0  0  0
  7 26  1  0  0  0
  7 29  1  0  0  0
  8  9  1  0  0  0
  8 22  1  0  0  0
  9 10  1  0  0  0
  9 27  2  0  0  0
 10 11  2  0  0  0
 10 15  1  0  0  0
 11 12  1  0  0  0
 11100  1  0  0  0
 12 13  2  0  0  0
 12101  1  0  0  0
 13 14  1  0  0  0
 13 31  1  0  0  0
 14 15  2  0  0  0
 14102  1  0  0  0
 15103  1  0  0  0
 16 17  2  0  0  0
 16 21  1  0  0  0
 16 31  1  0  0  0
 17 18  1  0  0  0
 17104  1  0  0  0
 18 19  2  0  0  0
 18105  1  0  0  0
 19 20  1  0  0  0
 19 24  1  0  0  0
 20 21  2  0  0  0
 20106  1  0  0  0
 21 23  1  0  0  0
 22 28  1  0  0  0
 22 32  2  0  0  0
 26 27  1  0  0  0
 28107  1  0  0  0
 28108  1  0  0  0
 29109  1  0  0  0
 29110  1  0  0  0
 33 34  1  0  0  0
 33 66  1  0  0  0
 33 70  2  0  0  0
 34 36  1  0  0  0
 34 59  1  0  0  0
 34111  1  0  0  0
 35 44  2  0  0  0
 35 45  1  0  0  0
 35 68  1  0  0  0
 36 56  1  0  0  0
 36112  1  0  0  0
 37 39  1  0  0  0
 37 47  1  0  0  0
 37 66  1  0  0  0
 37113  1  0  0  0
 38 43  2  0  0  0
 38 46  1  0  0  0
 38 47  1  0  0  0
 39 64  1  0  0  0
 39 67  2  0  0  0
 40 52  1  0  0  0
 40 53  2  0  0  0
 40 58  1  0  0  0
 41114  1  0  0  0
 41115  1  0  0  0
 41116  1  0  0  0
 41 48  1  0  0  0
 42 43  1  0  0  0
 42 66  1  0  0  0
 42117  1  0  0  0
 42118  1  0  0  0
 43 44  1  0  0  0
 44119  1  0  0  0
 45 46  2  0  0  0
 45120  1  0  0  0
 46121  1  0  0  0
 47122  1  0  0  0
 47123  1  0  0  0
 48 56  1  0  0  0
 48 65  1  0  0  0
 48124  1  0  0  0
 49 50  1  0  0  0
 49 53  1  0  0  0
 49 64  1  0  0  0
 49125  1  0  0  0
 50 51  1  0  0  0
 50126  1  0  0  0
 50127  1  0  0  0
 51 52  1  0  0  0
 51128  1  0  0  0
 51129  1  0  0  0
 52130  1  0  0  0
 52131  1  0  0  0
 53 54  1  0  0  0
 54 55  2  0  0  0
 54132  1  0  0  0
 55 57  1  0  0  0
 55133  1  0  0  0
 56 69  2  0  0  0
 57 58  2  0  0  0
 57134  1  0  0  0
 58135  1  0  0  0
 59 60  1  0  0  0
 59 61  1  0  0  0
 59 62  1  0  0  0
 60136  1  0  0  0
 60137  1  0  0  0
 60138  1  0  0  0
 61139  1  0  0  0
 61140  1  0  0  0
 61141  1  0  0  0
 62142  1  0  0  0
 62143  1  0  0  0
 62144  1  0  0  0
 63 65  1  0  0  0
 63145  1  0  0  0
 63146  1  0  0  0
 63147  1  0  0  0
 64148  1  0  0  0
 65149  1  0  0  0
 68 85  1  0  0  0
 71 73  2  0  0  0
 71 74  1  0  0  0
 71150  1  0  0  0
 72 75  1  0  0  0
 72 76  2  0  0  0
 72151  1  0  0  0
 73 76  1  0  0  0
 73 81  1  0  0  0
 74 75  2  0  0  0
 74 82  1  0  0  0
 75 85  1  0  0  0
 76 90  1  0  0  0
 77 79  1  0  0  0
 77 81  1  0  0  0
 77152  1  0  0  0
 77153  1  0  0  0
 78 80  1  0  0  0
 78 81  1  0  0  0
 78154  1  0  0  0
 78155  1  0  0  0
 79 89  1  0  0  0
 79156  1  0  0  0
 79157  1  0  0  0
 80 89  1  0  0  0
 80158  1  0  0  0
 80159  1  0  0  0
 81160  1  0  0  0
 82161  1  0  0  0
 82162  1  0  0  0
 82163  1  0  0  0
 83 86  1  0  0  0
 83164  1  0  0  0
 83165  1  0  0  0
 83166  1  0  0  0
 84167  1  0  0  0
 84168  1  0  0  0
 84169  1  0  0  0
 84 88  1  0  0  0
 85170  1  0  0  0
 85171  1  0  0  0
 86 88  1  0  0  0
 86172  1  0  0  0
 86173  1  0  0  0
 87 88  1  0  0  0
 87 90  1  0  0  0
 87174  1  0  0  0
 87175  1  0  0  0
 88176  1  0  0  0
M  ISO  4   1 100  68 101  85 101  89 100
M  END
> <chiral flag>
0

> <version>
0

> <s_m_source_file>
/data/baiqing/PycharmProjects/Reinvent-master-3.2/result/LINK_invent/BTK/process_docking_weight1_custom_sum_contain_oxygen_bond_distance_aromatic_linkinvent_7_9_3/rearranged_h_0144.sdf

> <i_m_source_file_index>
55

> <r_mmod_Potential_Energy-OPLS-2005>
470.688079833984

> <r_mmod_Stretch_Energy-OPLS-2005>
115.505981445312

> <r_mmod_Bend_Energy-OPLS-2005>
197.261779785156

> <r_mmod_Torsional_Energy-OPLS-2005>
384.995635986328

> <r_mmod_Improper_Torsional_Energy-OPLS-2005>
18.3099250793457

> <r_mmod_Van_der_Waal_Energy-OPLS-2005>
135.560775756836

> <r_mmod_Electrostatic_Energy-OPLS-2005>
-285.969970703125

> <r_mmod_Solvation_Energy-OPLS-2005>
-182.84211730957

> <b_mmod_Minimization_Converged-OPLS-2005>
0

> <r_mmod_RMS_Derivative-OPLS-2005>
1.61735999584198

$$$$
56
                    3D
 Structure written by MMmdl.
160169  0  0  1  0            999 V2000
  -30.5501  -14.9738   20.4095 C   0  0  0  0  0  0
  -30.4374  -12.6051   19.4987 C   0  0  0  0  0  0
  -29.5125  -12.5229   18.2617 C   0  0  0  0  0  0
  -28.0455  -12.3175   18.6815 C   0  0  0  0  0  0
  -27.6274  -13.2584   19.8418 C   0  0  2  0  0  0
  -28.6753  -13.3063   20.9750 C   0  0  0  0  0  0
  -25.2439  -13.8270   20.5758 C   0  0  0  0  0  0
  -24.1763  -13.0465   20.9264 C   0  0  0  0  0  0
  -24.6435  -11.6969   20.8811 C   0  0  0  0  0  0
  -23.9150  -10.4312   21.0444 C   0  0  0  0  0  0
  -24.3690   -9.4204   21.9204 C   0  0  0  0  0  0
  -23.6327   -8.2258   22.0771 C   0  0  0  0  0  0
  -22.4297   -8.0321   21.3577 C   0  0  0  0  0  0
  -21.9970   -9.0305   20.4676 C   0  0  0  0  0  0
  -22.7339  -10.2161   20.3081 C   0  0  0  0  0  0
  -21.6857   -6.0766   22.5287 C   0  0  0  0  0  0
  -21.4031   -6.5665   23.8221 C   0  0  0  0  0  0
  -21.3649   -5.6811   24.9177 C   0  0  0  0  0  0
  -21.6036   -4.3071   24.7224 C   0  0  0  0  0  0
  -21.8800   -3.8172   23.4345 C   0  0  0  0  0  0
  -21.9191   -4.6989   22.3403 C   0  0  0  0  0  0
  -22.7774  -13.5203   21.1880 C   0  0  0  0  0  0
  -22.1648   -4.2179   21.0980 F   0  0  0  0  0  0
  -21.5612   -3.4552   25.7734 F   0  0  0  0  0  0
  -29.9463  -13.7160   20.3648 N   0  0  0  0  0  0
  -26.2887  -12.9538   20.3316 N   0  0  0  0  0  0
  -25.9376  -11.6659   20.5843 N   0  0  0  0  0  0
  -22.0479  -12.8158   22.0457 N   0  0  0  0  0  0
  -25.4016  -15.2006   20.4147 N   0  0  0  0  0  0
  -31.7578  -15.0201   20.1496 O   0  0  0  0  0  0
  -21.6658   -6.8913   21.4253 O   0  0  0  0  0  0
  -22.3428  -14.5493   20.6722 O   0  0  0  0  0  0
  -24.6386  -31.8451   23.1891 C   0  0  0  0  0  0
  -25.9148  -32.4742   23.8275 C   0  0  1  0  0  0
  -27.1936  -27.1097   20.1664 C   0  0  0  0  0  0
  -25.5922  -33.8555   24.2175 N   0  0  0  0  0  0
  -23.4448  -30.4692   21.5308 C   0  0  2  0  0  0
  -24.8957  -28.8955   20.1096 C   0  0  0  0  0  0
  -22.7567  -29.4516   22.4750 C   0  0  0  0  0  0
  -18.0320  -28.1406   22.8495 C   0  0  0  0  0  0
  -24.1478  -36.7284   23.2650 C   0  0  0  0  0  0
  -26.0043  -30.7128   21.3908 C   0  0  0  0  0  0
  -26.0705  -29.3175   20.7424 C   0  0  0  0  0  0
  -27.2221  -28.4402   20.7588 C   0  0  0  0  0  0
  -25.9974  -26.8000   19.4850 C   0  0  0  0  0  0
  -24.8707  -27.6504   19.4641 C   0  0  0  0  0  0
  -23.6806  -29.8105   20.1455 C   0  0  0  0  0  0
  -25.4109  -36.3066   24.0315 C   0  0  1  0  0  0
  -20.5944  -28.3720   23.1234 C   0  0  2  0  0  0
  -20.6807  -26.9416   22.5405 C   0  0  0  0  0  0
  -19.5772  -26.6356   21.5242 C   0  0  0  0  0  0
  -18.1945  -26.7948   22.1640 C   0  0  0  0  0  0
  -19.1583  -28.8873   23.2880 C   0  0  0  0  0  0
  -18.9509  -30.1474   23.8911 C   0  0  0  0  0  0
  -17.6514  -30.6607   24.0580 C   0  0  0  0  0  0
  -25.9044  -34.9456   23.5044 C   0  0  0  0  0  0
  -16.5399  -29.9116   23.6348 C   0  0  0  0  0  0
  -16.7312  -28.6537   23.0357 C   0  0  0  0  0  0
  -26.4479  -31.6638   25.0731 C   0  0  0  0  0  0
  -25.3637  -31.3878   26.1416 C   0  0  0  0  0  0
  -27.0347  -30.3046   24.6287 C   0  0  0  0  0  0
  -27.6008  -32.4407   25.7513 C   0  0  0  0  0  0
  -27.5565  -37.1795   24.8461 C   0  0  0  0  0  0
  -21.4246  -29.3087   22.3599 N   0  0  0  0  0  0
  -26.4272  -37.3775   23.9418 N   0  0  0  0  0  0
  -24.7166  -31.0303   22.0936 N   0  0  0  0  0  0
  -23.4251  -28.7992   23.2814 O   0  0  0  0  0  0
  -28.2283  -26.0948   20.1641 O   0  0  0  0  0  0
  -26.5625  -34.8941   22.4629 O   0  0  0  0  0  0
  -23.5492  -32.1307   23.7076 O   0  0  0  0  0  0
  -28.8389  -23.4646   20.1026 C   0  0  0  0  0  0
  -27.6639  -22.0644   21.6596 C   0  0  0  0  0  0
  -28.6561  -22.0852   20.6458 C   0  0  0  0  0  0
  -28.0402  -24.6615   20.4937 C   0  0  0  0  0  0
  -26.8243  -23.1924   21.8697 C   0  0  0  0  0  0
  -27.6555  -21.2217   24.1256 C   0  0  0  0  0  0
  -28.7502  -20.4534   23.4455 C   0  0  0  0  0  0
  -27.5481  -20.9243   22.6387 C   0  0  0  0  0  0
  -25.1245  -24.2074   23.2347 C   0  0  0  0  0  0
  -29.5517  -20.7090   20.3146 C   0  0  0  0  0  0
  -29.1237  -19.0547   20.4313 C   0  0  0  0  0  0
  -30.1818  -17.7183   20.4791 C   0  0  0  0  0  0
  -27.0093  -24.4229   21.3271 N   0  0  0  0  0  0
  -29.7883  -16.1750   20.5362 N   0  0  0  0  0  0
  -25.7580  -23.0393   22.7325 O   0  0  0  0  0  0
  -31.4666  -12.7612   19.1730 H   0  0  0  0  0  0
  -30.4470  -11.6668   20.0523 H   0  0  0  0  0  0
  -29.8272  -11.7117   17.6032 H   0  0  0  0  0  0
  -29.5916  -13.4435   17.6797 H   0  0  0  0  0  0
  -27.9237  -11.2753   18.9829 H   0  0  0  0  0  0
  -27.3839  -12.4638   17.8271 H   0  0  0  0  0  0
  -27.5856  -14.2563   19.4032 H   0  0  0  0  0  0
  -28.7761  -12.3438   21.4785 H   0  0  0  0  0  0
  -28.3787  -14.0278   21.7382 H   0  0  0  0  0  0
  -25.2839   -9.5638   22.4785 H   0  0  0  0  0  0
  -24.0021   -7.4640   22.7499 H   0  0  0  0  0  0
  -21.0898   -8.8868   19.8980 H   0  0  0  0  0  0
  -22.3841  -10.9717   19.6187 H   0  0  0  0  0  0
  -21.2045   -7.6180   23.9730 H   0  0  0  0  0  0
  -21.1472   -6.0544   25.9071 H   0  0  0  0  0  0
  -22.0585   -2.7640   23.2834 H   0  0  0  0  0  0
  -22.4154  -11.9791   22.4746 H   0  0  0  0  0  0
  -21.1104  -13.1124   22.2770 H   0  0  0  0  0  0
  -24.6286  -15.8414   20.5502 H   0  0  0  0  0  0
  -26.2260  -15.6566   20.0479 H   0  0  0  0  0  0
  -26.7217  -32.5341   23.0998 H   0  0  0  0  0  0
  -25.0174  -33.9747   25.0386 H   0  0  0  0  0  0
  -22.7504  -31.2989   21.3779 H   0  0  0  0  0  0
  -23.3758  -35.9607   23.3273 H   0  0  0  0  0  0
  -24.3568  -36.8935   22.2072 H   0  0  0  0  0  0
  -23.7205  -37.6460   23.6697 H   0  0  0  0  0  0
  -26.1503  -31.4584   20.6093 H   0  0  0  0  0  0
  -26.8815  -30.7783   22.0220 H   0  0  0  0  0  0
  -28.1166  -28.7593   21.2754 H   0  0  0  0  0  0
  -25.9194  -25.8423   18.9893 H   0  0  0  0  0  0
  -23.9781  -27.3242   18.9505 H   0  0  0  0  0  0
  -23.8452  -30.5989   19.4110 H   0  0  0  0  0  0
  -22.7935  -29.2753   19.8027 H   0  0  0  0  0  0
  -25.1291  -36.1902   25.0809 H   0  0  0  0  0  0
  -21.0106  -28.3320   24.1325 H   0  0  0  0  0  0
  -20.5718  -26.2334   23.3633 H   0  0  0  0  0  0
  -21.6664  -26.7388   22.1192 H   0  0  0  0  0  0
  -19.6933  -25.6249   21.1313 H   0  0  0  0  0  0
  -19.6738  -27.3146   20.6759 H   0  0  0  0  0  0
  -17.4224  -26.6733   21.4027 H   0  0  0  0  0  0
  -18.0299  -26.0087   22.9020 H   0  0  0  0  0  0
  -19.7996  -30.7274   24.2270 H   0  0  0  0  0  0
  -17.5089  -31.6298   24.5157 H   0  0  0  0  0  0
  -15.5413  -30.3056   23.7639 H   0  0  0  0  0  0
  -15.8705  -28.0884   22.7050 H   0  0  0  0  0  0
  -24.5825  -30.7246   25.7707 H   0  0  0  0  0  0
  -24.8857  -32.3117   26.4707 H   0  0  0  0  0  0
  -25.7894  -30.9115   27.0271 H   0  0  0  0  0  0
  -26.2979  -29.6800   24.1246 H   0  0  0  0  0  0
  -27.3943  -29.7316   25.4841 H   0  0  0  0  0  0
  -27.8874  -30.4320   23.9620 H   0  0  0  0  0  0
  -27.2615  -33.3757   26.1980 H   0  0  0  0  0  0
  -28.3880  -32.6884   25.0382 H   0  0  0  0  0  0
  -28.0611  -31.8601   26.5507 H   0  0  0  0  0  0
  -28.2529  -38.0130   24.7502 H   0  0  0  0  0  0
  -28.1082  -36.2656   24.6253 H   0  0  0  0  0  0
  -27.2288  -37.1379   25.8860 H   0  0  0  0  0  0
  -20.9352  -29.8987   21.6999 H   0  0  0  0  0  0
  -26.0125  -38.2826   24.1503 H   0  0  0  0  0  0
  -29.6391  -23.6269   19.3960 H   0  0  0  0  0  0
  -27.9066  -22.2353   24.4363 H   0  0  0  0  0  0
  -27.0222  -20.6664   24.8131 H   0  0  0  0  0  0
  -28.8292  -19.4006   23.7138 H   0  0  0  0  0  0
  -29.6991  -20.9648   23.2950 H   0  0  0  0  0  0
  -26.8025  -20.1918   22.3337 H   0  0  0  0  0  0
  -24.3274  -23.9325   23.9269 H   0  0  0  0  0  0
  -24.6829  -24.8186   22.4450 H   0  0  0  0  0  0
  -25.8603  -24.7974   23.7846 H   0  0  0  0  0  0
  -30.4616  -20.8295   20.9021 H   0  0  0  0  0  0
  -29.8856  -20.8447   19.2858 H   0  0  0  0  0  0
  -28.4350  -18.8766   19.6067 H   0  0  0  0  0  0
  -28.5053  -18.9263   21.3124 H   0  0  0  0  0  0
  -30.8014  -17.8686   21.3650 H   0  0  0  0  0  0
  -30.8787  -17.8181   19.6484 H   0  0  0  0  0  0
  -28.8085  -15.9992   20.6985 H   0  0  0  0  0  0
  1 25  1  0  0  0
  1 30  2  0  0  0
  1 84  1  0  0  0
  2  3  1  0  0  0
  2 25  1  0  0  0
  2 86  1  0  0  0
  2 87  1  0  0  0
  3  4  1  0  0  0
  3 88  1  0  0  0
  3 89  1  0  0  0
  4  5  1  0  0  0
  4 90  1  0  0  0
  4 91  1  0  0  0
  5  6  1  0  0  0
  5 26  1  0  0  0
  5 92  1  0  0  0
  6 25  1  0  0  0
  6 93  1  0  0  0
  6 94  1  0  0  0
  7  8  2  0  0  0
  7 26  1  0  0  0
  7 29  1  0  0  0
  8  9  1  0  0  0
  8 22  1  0  0  0
  9 10  1  0  0  0
  9 27  2  0  0  0
 10 11  2  0  0  0
 10 15  1  0  0  0
 11 12  1  0  0  0
 11 95  1  0  0  0
 12 13  2  0  0  0
 12 96  1  0  0  0
 13 14  1  0  0  0
 13 31  1  0  0  0
 14 15  2  0  0  0
 14 97  1  0  0  0
 15 98  1  0  0  0
 16 17  2  0  0  0
 16 21  1  0  0  0
 16 31  1  0  0  0
 17 18  1  0  0  0
 17 99  1  0  0  0
 18 19  2  0  0  0
 18100  1  0  0  0
 19 20  1  0  0  0
 19 24  1  0  0  0
 20 21  2  0  0  0
 20101  1  0  0  0
 21 23  1  0  0  0
 22 28  1  0  0  0
 22 32  2  0  0  0
 26 27  1  0  0  0
 28102  1  0  0  0
 28103  1  0  0  0
 29104  1  0  0  0
 29105  1  0  0  0
 33 34  1  0  0  0
 33 66  1  0  0  0
 33 70  2  0  0  0
 34 36  1  0  0  0
 34 59  1  0  0  0
 34106  1  0  0  0
 35 44  2  0  0  0
 35 45  1  0  0  0
 35 68  1  0  0  0
 36 56  1  0  0  0
 36107  1  0  0  0
 37 39  1  0  0  0
 37 47  1  0  0  0
 37 66  1  0  0  0
 37108  1  0  0  0
 38 43  2  0  0  0
 38 46  1  0  0  0
 38 47  1  0  0  0
 39 64  1  0  0  0
 39 67  2  0  0  0
 40 52  1  0  0  0
 40 53  2  0  0  0
 40 58  1  0  0  0
 41109  1  0  0  0
 41110  1  0  0  0
 41111  1  0  0  0
 41 48  1  0  0  0
 42 43  1  0  0  0
 42 66  1  0  0  0
 42112  1  0  0  0
 42113  1  0  0  0
 43 44  1  0  0  0
 44114  1  0  0  0
 45 46  2  0  0  0
 45115  1  0  0  0
 46116  1  0  0  0
 47117  1  0  0  0
 47118  1  0  0  0
 48 56  1  0  0  0
 48 65  1  0  0  0
 48119  1  0  0  0
 49 50  1  0  0  0
 49 53  1  0  0  0
 49 64  1  0  0  0
 49120  1  0  0  0
 50 51  1  0  0  0
 50121  1  0  0  0
 50122  1  0  0  0
 51 52  1  0  0  0
 51123  1  0  0  0
 51124  1  0  0  0
 52125  1  0  0  0
 52126  1  0  0  0
 53 54  1  0  0  0
 54 55  2  0  0  0
 54127  1  0  0  0
 55 57  1  0  0  0
 55128  1  0  0  0
 56 69  2  0  0  0
 57 58  2  0  0  0
 57129  1  0  0  0
 58130  1  0  0  0
 59 60  1  0  0  0
 59 61  1  0  0  0
 59 62  1  0  0  0
 60131  1  0  0  0
 60132  1  0  0  0
 60133  1  0  0  0
 61134  1  0  0  0
 61135  1  0  0  0
 61136  1  0  0  0
 62137  1  0  0  0
 62138  1  0  0  0
 62139  1  0  0  0
 63 65  1  0  0  0
 63140  1  0  0  0
 63141  1  0  0  0
 63142  1  0  0  0
 64143  1  0  0  0
 65144  1  0  0  0
 68 74  1  0  0  0
 71 73  2  0  0  0
 71 74  1  0  0  0
 71145  1  0  0  0
 72 73  1  0  0  0
 72 75  2  0  0  0
 72 78  1  0  0  0
 73 80  1  0  0  0
 74 83  2  0  0  0
 75 83  1  0  0  0
 75 85  1  0  0  0
 76 77  1  0  0  0
 76 78  1  0  0  0
 76146  1  0  0  0
 76147  1  0  0  0
 77 78  1  0  0  0
 77148  1  0  0  0
 77149  1  0  0  0
 78150  1  0  0  0
 79 85  1  0  0  0
 79151  1  0  0  0
 79152  1  0  0  0
 79153  1  0  0  0
 80 81  1  0  0  0
 80154  1  0  0  0
 80155  1  0  0  0
 81 82  1  0  0  0
 81156  1  0  0  0
 81157  1  0  0  0
 82 84  1  0  0  0
 82158  1  0  0  0
 82159  1  0  0  0
 84160  1  0  0  0
M  ISO  4   1 100  68 101  74 101  84 100
M  END
> <chiral flag>
0

> <version>
0

> <s_m_source_file>
/data/baiqing/PycharmProjects/Reinvent-master-3.2/result/LINK_invent/BTK/process_docking_weight1_custom_sum_contain_oxygen_bond_distance_aromatic_linkinvent_7_9_3/rearranged_h_0144.sdf

> <i_m_source_file_index>
56

> <r_mmod_Potential_Energy-OPLS-2005>
420.959014892578

> <r_mmod_Stretch_Energy-OPLS-2005>
285.586822509766

> <r_mmod_Bend_Energy-OPLS-2005>
261.419860839844

> <r_mmod_Torsional_Energy-OPLS-2005>
241.04167175293

> <r_mmod_Improper_Torsional_Energy-OPLS-2005>
5.28009366989136

> <r_mmod_Van_der_Waal_Energy-OPLS-2005>
140.262710571289

> <r_mmod_Electrostatic_Energy-OPLS-2005>
-512.215393066406

> <r_mmod_Solvation_Energy-OPLS-2005>
-214.508682250977

> <b_mmod_Minimization_Converged-OPLS-2005>
0

> <r_mmod_RMS_Derivative-OPLS-2005>
5.23370313644409

$$$$
57
                    3D
 Structure written by MMmdl.
173182  0  0  1  0            999 V2000
  -30.6734  -14.3883   20.5188 C   0  0  0  0  0  0
  -30.4249  -12.2327   19.4389 C   0  0  0  0  0  0
  -29.5005  -12.4364   18.2227 C   0  0  0  0  0  0
  -28.0257  -12.2483   18.6460 C   0  0  0  0  0  0
  -27.6360  -13.1129   19.8654 C   0  0  2  0  0  0
  -28.6801  -12.9236   20.9946 C   0  0  0  0  0  0
  -25.2391  -13.7791   20.5625 C   0  0  0  0  0  0
  -24.1679  -13.0233   20.9249 C   0  0  0  0  0  0
  -24.6142  -11.6654   20.8807 C   0  0  0  0  0  0
  -23.8852  -10.4100   21.0461 C   0  0  0  0  0  0
  -24.3442   -9.4030   21.9237 C   0  0  0  0  0  0
  -23.6163   -8.2065   22.0790 C   0  0  0  0  0  0
  -22.4167   -8.0112   21.3528 C   0  0  0  0  0  0
  -21.9745   -9.0080   20.4648 C   0  0  0  0  0  0
  -22.7047  -10.1962   20.3079 C   0  0  0  0  0  0
  -21.6790   -6.0645   22.5275 C   0  0  0  0  0  0
  -21.3985   -6.5588   23.8197 C   0  0  0  0  0  0
  -21.3656   -5.6760   24.9172 C   0  0  0  0  0  0
  -21.6040   -4.3020   24.7235 C   0  0  0  0  0  0
  -21.8822   -3.8089   23.4361 C   0  0  0  0  0  0
  -21.9170   -4.6892   22.3407 C   0  0  0  0  0  0
  -22.7719  -13.5081   21.1928 C   0  0  0  0  0  0
  -22.1643   -4.2074   21.0991 F   0  0  0  0  0  0
  -21.5636   -3.4522   25.7764 F   0  0  0  0  0  0
  -30.0309  -13.2022   20.4594 N   0  0  0  0  0  0
  -26.2766  -12.8821   20.3230 N   0  0  0  0  0  0
  -25.9014  -11.6094   20.5787 N   0  0  0  0  0  0
  -22.0325  -12.8171   22.0470 N   0  0  0  0  0  0
  -25.3912  -15.1570   20.3983 N   0  0  0  0  0  0
  -31.8074  -14.6014   20.0910 O   0  0  0  0  0  0
  -21.6540   -6.8732   21.4215 O   0  0  0  0  0  0
  -22.3501  -14.5405   20.6684 O   0  0  0  0  0  0
  -24.6113  -31.8877   23.2275 C   0  0  0  0  0  0
  -25.9009  -32.4937   23.8581 C   0  0  1  0  0  0
  -27.2001  -27.5129   20.0469 C   0  0  0  0  0  0
  -25.5909  -33.8738   24.2529 N   0  0  0  0  0  0
  -23.3888  -30.5334   21.5680 C   0  0  2  0  0  0
  -24.8271  -29.0424   20.0930 C   0  0  0  0  0  0
  -22.7333  -29.4808   22.4918 C   0  0  0  0  0  0
  -18.0288  -28.1190   22.8571 C   0  0  0  0  0  0
  -24.1475  -36.7329   23.2653 C   0  0  0  0  0  0
  -25.9237  -30.8666   21.3813 C   0  0  0  0  0  0
  -25.9886  -29.5216   20.7075 C   0  0  0  0  0  0
  -27.1757  -28.7629   20.6926 C   0  0  0  0  0  0
  -26.0387  -27.0952   19.3347 C   0  0  0  0  0  0
  -24.8478  -27.8275   19.4033 C   0  0  0  0  0  0
  -23.5926  -29.9084   20.1694 C   0  0  0  0  0  0
  -25.4081  -36.3201   24.0415 C   0  0  1  0  0  0
  -20.5930  -28.3636   23.1249 C   0  0  2  0  0  0
  -20.6892  -26.9351   22.5250 C   0  0  0  0  0  0
  -19.5706  -26.6255   21.5247 C   0  0  0  0  0  0
  -18.1926  -26.7777   22.1669 C   0  0  0  0  0  0
  -19.1561  -28.8722   23.2859 C   0  0  0  0  0  0
  -18.9500  -30.1354   23.8851 C   0  0  0  0  0  0
  -17.6523  -30.6570   24.0441 C   0  0  0  0  0  0
  -25.9006  -34.9557   23.5233 C   0  0  0  0  0  0
  -16.5376  -29.9030   23.6216 C   0  0  0  0  0  0
  -16.7281  -28.6315   23.0494 C   0  0  0  0  0  0
  -26.4433  -31.6640   25.0833 C   0  0  0  0  0  0
  -25.3686  -31.3639   26.1522 C   0  0  0  0  0  0
  -27.0273  -30.3129   24.6132 C   0  0  0  0  0  0
  -27.6112  -32.4281   25.7509 C   0  0  0  0  0  0
  -27.5599  -37.1855   24.8508 C   0  0  0  0  0  0
  -21.4103  -29.3080   22.3608 N   0  0  0  0  0  0
  -26.4328  -37.3850   23.9438 N   0  0  0  0  0  0
  -24.6600  -31.1067   22.1159 N   0  0  0  0  0  0
  -23.4132  -28.8356   23.2971 O   0  0  0  0  0  0
  -28.2545  -26.6438   20.2721 O   0  0  0  0  0  0
  -26.5575  -34.8999   22.4798 O   0  0  0  0  0  0
  -23.5364  -32.1649   23.7736 O   0  0  0  0  0  0
  -27.6334  -18.3896   21.1615 C   0  0  0  0  0  0
  -26.9263  -20.8852   20.1369 C   0  0  0  0  0  0
  -27.1938  -20.7486   21.5368 C   0  0  0  0  0  0
  -27.4637  -19.4649   22.0548 C   0  0  0  0  0  0
  -27.2621  -19.8601   19.2410 C   0  0  0  0  0  0
  -27.6193  -18.6125   19.7558 C   0  0  0  0  0  0
  -26.2942  -22.1413   19.5575 C   0  0  0  0  0  0
  -27.2491  -22.0054   22.4311 C   0  0  0  0  0  0
  -25.9880  -23.1173   20.6672 C   0  0  0  0  0  0
  -27.5788  -19.1957   23.5480 C   0  0  0  0  0  0
  -27.2852  -20.1255   17.7320 C   0  0  0  0  0  0
  -29.1077  -24.5295   22.5647 C   0  0  0  0  0  0
  -29.7901  -16.5578   19.9112 C   0  0  0  0  0  0
  -28.4082  -16.4528   19.2660 C   0  0  0  0  0  0
  -27.6519  -25.4121   20.6786 C   0  0  0  0  0  0
  -28.3036  -24.1866   21.3088 C   0  0  2  0  0  0
  -29.8635  -15.3953   20.7799 N   0  0  0  0  0  0
  -27.2281  -23.1354   21.4821 N   0  3  1  0  0  0
  -27.9360  -17.6774   18.8050 O   0  0  0  0  0  0
  -31.4741  -12.3239   19.1494 H   0  0  0  0  0  0
  -30.3133  -11.2292   19.8518 H   0  0  0  0  0  0
  -29.7550  -11.7135   17.4455 H   0  0  0  0  0  0
  -29.6665  -13.4210   17.7852 H   0  0  0  0  0  0
  -27.8958  -11.1929   18.8964 H   0  0  0  0  0  0
  -27.3639  -12.4449   17.8030 H   0  0  0  0  0  0
  -27.6239  -14.1129   19.4885 H   0  0  0  0  0  0
  -28.6356  -11.8968   21.3700 H   0  0  0  0  0  0
  -28.4421  -13.5521   21.8488 H   0  0  0  0  0  0
  -25.2594   -9.5522   22.4786 H   0  0  0  0  0  0
  -23.9853   -7.4473   22.7548 H   0  0  0  0  0  0
  -21.0635   -8.8591   19.8973 H   0  0  0  0  0  0
  -22.3541  -10.9499   19.6159 H   0  0  0  0  0  0
  -21.1977   -7.6099   23.9669 H   0  0  0  0  0  0
  -21.1503   -6.0511   25.9069 H   0  0  0  0  0  0
  -22.0620   -2.7552   23.2903 H   0  0  0  0  0  0
  -22.3881  -11.9814   22.4870 H   0  0  0  0  0  0
  -21.0993  -13.1332   22.2689 H   0  0  0  0  0  0
  -24.5965  -15.7840   20.4705 H   0  0  0  0  0  0
  -26.1831  -15.5873   19.9530 H   0  0  0  0  0  0
  -26.7060  -32.5673   23.1366 H   0  0  0  0  0  0
  -24.9983  -33.9923   25.0619 H   0  0  0  0  0  0
  -22.6754  -31.3506   21.4611 H   0  0  0  0  0  0
  -23.3775  -35.9632   23.3343 H   0  0  0  0  0  0
  -24.3578  -36.8899   22.2076 H   0  0  0  0  0  0
  -23.7166  -37.6553   23.6568 H   0  0  0  0  0  0
  -26.0486  -31.6287   20.6094 H   0  0  0  0  0  0
  -26.8024  -30.8914   22.0172 H   0  0  0  0  0  0
  -28.0404  -29.1075   21.2340 H   0  0  0  0  0  0
  -25.9850  -26.1908   18.7465 H   0  0  0  0  0  0
  -23.9630  -27.4958   18.8815 H   0  0  0  0  0  0
  -23.6813  -30.7156   19.4371 H   0  0  0  0  0  0
  -22.7153  -29.3461   19.8585 H   0  0  0  0  0  0
  -25.1231  -36.2145   25.0931 H   0  0  0  0  0  0
  -21.0028  -28.3447   24.1428 H   0  0  0  0  0  0
  -20.5944  -26.2105   23.3352 H   0  0  0  0  0  0
  -21.6767  -26.7413   22.0937 H   0  0  0  0  0  0
  -19.6854  -25.5992   21.1732 H   0  0  0  0  0  0
  -19.6507  -27.2908   20.6622 H   0  0  0  0  0  0
  -17.4164  -26.6382   21.4117 H   0  0  0  0  0  0
  -18.0356  -25.9832   22.8953 H   0  0  0  0  0  0
  -19.7923  -30.7230   24.2307 H   0  0  0  0  0  0
  -17.5088  -31.6258   24.5058 H   0  0  0  0  0  0
  -15.5397  -30.3063   23.7320 H   0  0  0  0  0  0
  -15.8672  -28.0581   22.7311 H   0  0  0  0  0  0
  -24.5898  -30.6964   25.7757 H   0  0  0  0  0  0
  -24.8774  -32.2760   26.5002 H   0  0  0  0  0  0
  -25.8001  -30.8756   27.0266 H   0  0  0  0  0  0
  -26.2845  -29.6865   24.1171 H   0  0  0  0  0  0
  -27.4123  -29.7351   25.4546 H   0  0  0  0  0  0
  -27.8619  -30.4558   23.9234 H   0  0  0  0  0  0
  -27.2889  -33.3611   26.2142 H   0  0  0  0  0  0
  -28.3835  -32.6801   25.0199 H   0  0  0  0  0  0
  -28.0826  -31.8317   26.5353 H   0  0  0  0  0  0
  -28.2703  -38.0087   24.7530 H   0  0  0  0  0  0
  -28.1025  -36.2650   24.6329 H   0  0  0  0  0  0
  -27.2334  -37.1491   25.8925 H   0  0  0  0  0  0
  -20.9174  -29.8776   21.6822 H   0  0  0  0  0  0
  -26.0243  -38.2977   24.1342 H   0  0  0  0  0  0
  -27.8551  -17.4152   21.5857 H   0  0  0  0  0  0
  -25.3631  -21.8812   19.0442 H   0  0  0  0  0  0
  -26.9363  -22.6136   18.8112 H   0  0  0  0  0  0
  -28.1613  -21.9853   23.0259 H   0  0  0  0  0  0
  -26.3921  -22.0343   23.1203 H   0  0  0  0  0  0
  -25.1537  -22.7288   21.2474 H   0  0  0  0  0  0
  -25.6173  -24.0473   20.2498 H   0  0  0  0  0  0
  -27.3916  -20.0697   24.1752 H   0  0  0  0  0  0
  -28.5684  -18.8245   23.8147 H   0  0  0  0  0  0
  -26.8455  -18.4401   23.8355 H   0  0  0  0  0  0
  -27.6626  -21.1128   17.4662 H   0  0  0  0  0  0
  -26.2726  -20.0307   17.3488 H   0  0  0  0  0  0
  -27.9327  -19.4379   17.1882 H   0  0  0  0  0  0
  -29.7110  -25.4259   22.3941 H   0  0  0  0  0  0
  -29.7985  -23.7227   22.8184 H   0  0  0  0  0  0
  -28.4485  -24.7232   23.4125 H   0  0  0  0  0  0
  -29.9180  -17.4508   20.5332 H   0  0  0  0  0  0
  -30.5216  -16.5772   19.0990 H   0  0  0  0  0  0
  -27.6882  -16.0732   19.9836 H   0  0  0  0  0  0
  -28.4049  -15.7465   18.4354 H   0  0  0  0  0  0
  -26.7929  -25.6349   21.3241 H   0  0  0  0  0  0
  -27.3485  -25.0332   19.7094 H   0  0  0  0  0  0
  -29.0035  -23.7832   20.5744 H   0  0  0  0  0  0
  -28.9769  -15.0885   21.1548 H   0  0  0  0  0  0
  -27.6843  -22.5390   20.8081 H   0  0  0  0  0  0
  1 25  1  0  0  0
  1 30  2  0  0  0
  1 87  1  0  0  0
  2  3  1  0  0  0
  2 25  1  0  0  0
  2 90  1  0  0  0
  2 91  1  0  0  0
  3  4  1  0  0  0
  3 92  1  0  0  0
  3 93  1  0  0  0
  4  5  1  0  0  0
  4 94  1  0  0  0
  4 95  1  0  0  0
  5  6  1  0  0  0
  5 26  1  0  0  0
  5 96  1  0  0  0
  6 25  1  0  0  0
  6 97  1  0  0  0
  6 98  1  0  0  0
  7  8  2  0  0  0
  7 26  1  0  0  0
  7 29  1  0  0  0
  8  9  1  0  0  0
  8 22  1  0  0  0
  9 10  1  0  0  0
  9 27  2  0  0  0
 10 11  2  0  0  0
 10 15  1  0  0  0
 11 12  1  0  0  0
 11 99  1  0  0  0
 12 13  2  0  0  0
 12100  1  0  0  0
 13 14  1  0  0  0
 13 31  1  0  0  0
 14 15  2  0  0  0
 14101  1  0  0  0
 15102  1  0  0  0
 16 17  2  0  0  0
 16 21  1  0  0  0
 16 31  1  0  0  0
 17 18  1  0  0  0
 17103  1  0  0  0
 18 19  2  0  0  0
 18104  1  0  0  0
 19 20  1  0  0  0
 19 24  1  0  0  0
 20 21  2  0  0  0
 20105  1  0  0  0
 21 23  1  0  0  0
 22 28  1  0  0  0
 22 32  2  0  0  0
 26 27  1  0  0  0
 28106  1  0  0  0
 28107  1  0  0  0
 29108  1  0  0  0
 29109  1  0  0  0
 33 34  1  0  0  0
 33 66  1  0  0  0
 33 70  2  0  0  0
 34 36  1  0  0  0
 34 59  1  0  0  0
 34110  1  0  0  0
 35 44  2  0  0  0
 35 45  1  0  0  0
 35 68  1  0  0  0
 36 56  1  0  0  0
 36111  1  0  0  0
 37 39  1  0  0  0
 37 47  1  0  0  0
 37 66  1  0  0  0
 37112  1  0  0  0
 38 43  2  0  0  0
 38 46  1  0  0  0
 38 47  1  0  0  0
 39 64  1  0  0  0
 39 67  2  0  0  0
 40 52  1  0  0  0
 40 53  2  0  0  0
 40 58  1  0  0  0
 41113  1  0  0  0
 41114  1  0  0  0
 41115  1  0  0  0
 41 48  1  0  0  0
 42 43  1  0  0  0
 42 66  1  0  0  0
 42116  1  0  0  0
 42117  1  0  0  0
 43 44  1  0  0  0
 44118  1  0  0  0
 45 46  2  0  0  0
 45119  1  0  0  0
 46120  1  0  0  0
 47121  1  0  0  0
 47122  1  0  0  0
 48 56  1  0  0  0
 48 65  1  0  0  0
 48123  1  0  0  0
 49 50  1  0  0  0
 49 53  1  0  0  0
 49 64  1  0  0  0
 49124  1  0  0  0
 50 51  1  0  0  0
 50125  1  0  0  0
 50126  1  0  0  0
 51 52  1  0  0  0
 51127  1  0  0  0
 51128  1  0  0  0
 52129  1  0  0  0
 52130  1  0  0  0
 53 54  1  0  0  0
 54 55  2  0  0  0
 54131  1  0  0  0
 55 57  1  0  0  0
 55132  1  0  0  0
 56 69  2  0  0  0
 57 58  2  0  0  0
 57133  1  0  0  0
 58134  1  0  0  0
 59 60  1  0  0  0
 59 61  1  0  0  0
 59 62  1  0  0  0
 60135  1  0  0  0
 60136  1  0  0  0
 60137  1  0  0  0
 61138  1  0  0  0
 61139  1  0  0  0
 61140  1  0  0  0
 62141  1  0  0  0
 62142  1  0  0  0
 62143  1  0  0  0
 63 65  1  0  0  0
 63144  1  0  0  0
 63145  1  0  0  0
 63146  1  0  0  0
 64147  1  0  0  0
 65148  1  0  0  0
 68 85  1  0  0  0
 71 74  2  0  0  0
 71 76  1  0  0  0
 71149  1  0  0  0
 72 73  2  0  0  0
 72 75  1  0  0  0
 72 77  1  0  0  0
 73 74  1  0  0  0
 73 78  1  0  0  0
 74 80  1  0  0  0
 75 76  2  0  0  0
 75 81  1  0  0  0
 76 89  1  0  0  0
 77 79  1  0  0  0
 77150  1  0  0  0
 77151  1  0  0  0
 78152  1  0  0  0
 78153  1  0  0  0
 78 88  1  0  0  0
 79 88  1  0  0  0
 79154  1  0  0  0
 79155  1  0  0  0
 80156  1  0  0  0
 80157  1  0  0  0
 80158  1  0  0  0
 81159  1  0  0  0
 81160  1  0  0  0
 81161  1  0  0  0
 82162  1  0  0  0
 82163  1  0  0  0
 82164  1  0  0  0
 82 86  1  0  0  0
 83 84  1  0  0  0
 83 87  1  0  0  0
 83165  1  0  0  0
 83166  1  0  0  0
 84 89  1  0  0  0
 84167  1  0  0  0
 84168  1  0  0  0
 85 86  1  0  0  0
 85169  1  0  0  0
 85170  1  0  0  0
 86 88  1  0  0  0
 86171  1  0  0  0
 87172  1  0  0  0
 88173  1  0  0  0
M  CHG  1  88   1
M  ISO  4   1 100  68 101  85 101  87 100
M  END
> <chiral flag>
0

> <version>
0

> <s_m_source_file>
/data/baiqing/PycharmProjects/Reinvent-master-3.2/result/LINK_invent/BTK/process_docking_weight1_custom_sum_contain_oxygen_bond_distance_aromatic_linkinvent_7_9_3/rearranged_h_0144.sdf

> <i_m_source_file_index>
57

> <r_mmod_Potential_Energy-OPLS-2005>
151.290466308594

> <r_mmod_Stretch_Energy-OPLS-2005>
40.870044708252

> <r_mmod_Bend_Energy-OPLS-2005>
243.227569580078

> <r_mmod_Torsional_Energy-OPLS-2005>
307.365386962891

> <r_mmod_Improper_Torsional_Energy-OPLS-2005>
13.5034255981445

> <r_mmod_Van_der_Waal_Energy-OPLS-2005>
247.253433227539

> <r_mmod_Electrostatic_Energy-OPLS-2005>
-325.539428710938

> <r_mmod_Solvation_Energy-OPLS-2005>
-413.091400146484

> <b_mmod_Minimization_Converged-OPLS-2005>
0

> <r_mmod_RMS_Derivative-OPLS-2005>
14.8501577377319

$$$$
58
                    3D
 Structure written by MMmdl.
155164  0  0  1  0            999 V2000
  -30.6576  -14.6517   20.4584 C   0  0  0  0  0  0
  -30.4198  -12.3942   19.4638 C   0  0  0  0  0  0
  -29.5057  -12.4995   18.2248 C   0  0  0  0  0  0
  -28.0277  -12.3437   18.6333 C   0  0  0  0  0  0
  -27.6450  -13.2287   19.8504 C   0  0  2  0  0  0
  -28.6889  -13.1371   20.9851 C   0  0  0  0  0  0
  -25.2538  -13.8196   20.5686 C   0  0  0  0  0  0
  -24.1815  -13.0449   20.9187 C   0  0  0  0  0  0
  -24.6393  -11.6921   20.8722 C   0  0  0  0  0  0
  -23.9069  -10.4297   21.0393 C   0  0  0  0  0  0
  -24.3620   -9.4215   21.9175 C   0  0  0  0  0  0
  -23.6296   -8.2247   22.0744 C   0  0  0  0  0  0
  -22.4279   -8.0281   21.3537 C   0  0  0  0  0  0
  -21.9912   -9.0251   20.4636 C   0  0  0  0  0  0
  -22.7237  -10.2132   20.3044 C   0  0  0  0  0  0
  -21.6862   -6.0735   22.5272 C   0  0  0  0  0  0
  -21.4013   -6.5643   23.8204 C   0  0  0  0  0  0
  -21.3660   -5.6795   24.9169 C   0  0  0  0  0  0
  -21.6043   -4.3056   24.7218 C   0  0  0  0  0  0
  -21.8824   -3.8146   23.4342 C   0  0  0  0  0  0
  -21.9195   -4.6961   22.3399 C   0  0  0  0  0  0
  -22.7839  -13.5232   21.1849 C   0  0  0  0  0  0
  -22.1668   -4.2145   21.0975 F   0  0  0  0  0  0
  -21.5628   -3.4540   25.7732 F   0  0  0  0  0  0
  -29.9986  -13.4522   20.4049 N   0  0  0  0  0  0
  -26.2958  -12.9400   20.3270 N   0  0  0  0  0  0
  -25.9324  -11.6542   20.5722 N   0  0  0  0  0  0
  -22.0485  -12.8221   22.0405 N   0  0  0  0  0  0
  -25.4254  -15.1913   20.4105 N   0  0  0  0  0  0
  -31.8522  -14.7190   20.1615 O   0  0  0  0  0  0
  -21.6648   -6.8874   21.4232 O   0  0  0  0  0  0
  -22.3523  -14.5533   20.6691 O   0  0  0  0  0  0
  -24.6266  -31.8582   23.2035 C   0  0  0  0  0  0
  -25.9126  -32.4757   23.8359 C   0  0  1  0  0  0
  -27.2190  -27.3170   20.1300 C   0  0  0  0  0  0
  -25.5958  -33.8564   24.2293 N   0  0  0  0  0  0
  -23.4209  -30.4818   21.5439 C   0  0  2  0  0  0
  -24.8689  -28.9342   20.1124 C   0  0  0  0  0  0
  -22.7472  -29.4626   22.4937 C   0  0  0  0  0  0
  -18.0282  -28.1383   22.8482 C   0  0  0  0  0  0
  -24.1497  -36.7274   23.2641 C   0  0  0  0  0  0
  -25.9618  -30.7898   21.3745 C   0  0  0  0  0  0
  -26.0366  -29.4165   20.7186 C   0  0  0  0  0  0
  -27.2194  -28.6198   20.7160 C   0  0  0  0  0  0
  -26.0346  -26.8848   19.4993 C   0  0  0  0  0  0
  -24.8691  -27.6743   19.4929 C   0  0  0  0  0  0
  -23.6362  -29.8129   20.1607 C   0  0  0  0  0  0
  -25.4119  -36.3066   24.0336 C   0  0  1  0  0  0
  -20.5880  -28.3690   23.1284 C   0  0  2  0  0  0
  -20.6775  -26.9414   22.5413 C   0  0  0  0  0  0
  -19.5762  -26.6383   21.5214 C   0  0  0  0  0  0
  -18.1936  -26.7936   22.1608 C   0  0  0  0  0  0
  -19.1532  -28.8859   23.2877 C   0  0  0  0  0  0
  -18.9449  -30.1459   23.8897 C   0  0  0  0  0  0
  -17.6450  -30.6590   24.0558 C   0  0  0  0  0  0
  -25.9061  -34.9436   23.5108 C   0  0  0  0  0  0
  -16.5339  -29.9087   23.6337 C   0  0  0  0  0  0
  -16.7264  -28.6499   23.0366 C   0  0  0  0  0  0
  -26.4514  -31.6565   25.0723 C   0  0  0  0  0  0
  -25.3752  -31.3670   26.1447 C   0  0  0  0  0  0
  -27.0361  -30.2993   24.6183 C   0  0  0  0  0  0
  -27.6100  -32.4282   25.7474 C   0  0  0  0  0  0
  -27.5584  -37.1781   24.8457 C   0  0  0  0  0  0
  -21.4187  -29.3041   22.3672 N   0  0  0  0  0  0
  -26.4284  -37.3770   23.9421 N   0  0  0  0  0  0
  -24.6885  -31.0607   22.0974 N   0  0  0  0  0  0
  -23.4195  -28.8175   23.3028 O   0  0  0  0  0  0
  -28.3178  -26.4510   20.1524 O   0  0  0  0  0  0
  -26.5608  -34.8904   22.4659 O   0  0  0  0  0  0
  -23.5430  -32.1373   23.7370 O   0  0  0  0  0  0
  -29.0754  -18.9590   21.7081 C   0  0  0  0  0  0
  -28.6512  -20.3224   21.8154 C   0  0  0  0  0  0
  -29.4623  -20.8220   19.5933 C   0  0  0  0  0  0
  -29.7100  -18.5182   20.5278 C   0  0  0  0  0  0
  -29.8695  -19.4566   19.4947 C   0  0  0  0  0  0
  -28.8471  -21.2944   20.7872 C   0  0  0  0  0  0
  -30.5806  -18.8312   18.3231 C   0  0  0  0  0  0
  -30.7103  -17.3297   18.6926 C   0  0  0  0  0  0
  -30.4452  -17.1778   20.2167 C   0  0  2  0  0  0
  -28.1032  -25.1267   20.7856 C   0  0  0  0  0  0
  -28.6710  -23.7681   20.1630 C   0  0  0  0  0  0
  -29.9211  -15.8075   20.5793 N   0  0  0  0  0  0
  -28.4231  -22.6167   21.0388 O   0  0  0  0  0  0
  -31.4669  -12.4868   19.1705 H   0  0  0  0  0  0
  -30.3288  -11.4121   19.9292 H   0  0  0  0  0  0
  -29.7745  -11.7374   17.4919 H   0  0  0  0  0  0
  -29.6534  -13.4635   17.7343 H   0  0  0  0  0  0
  -27.8628  -11.2930   18.8734 H   0  0  0  0  0  0
  -27.3774  -12.5665   17.7865 H   0  0  0  0  0  0
  -27.6477  -14.2557   19.4849 H   0  0  0  0  0  0
  -28.7009  -12.1386   21.4235 H   0  0  0  0  0  0
  -28.4446  -13.8258   21.7954 H   0  0  0  0  0  0
  -25.2764   -9.5703   22.4757 H   0  0  0  0  0  0
  -24.0007   -7.4648   22.7474 H   0  0  0  0  0  0
  -21.0840   -8.8762   19.8952 H   0  0  0  0  0  0
  -22.3684  -10.9667   19.6154 H   0  0  0  0  0  0
  -21.2003   -7.6152   23.9706 H   0  0  0  0  0  0
  -21.1478   -6.0525   25.9072 H   0  0  0  0  0  0
  -22.0602   -2.7606   23.2840 H   0  0  0  0  0  0
  -22.4114  -11.9889   22.4784 H   0  0  0  0  0  0
  -21.1095  -13.1235   22.2597 H   0  0  0  0  0  0
  -24.6606  -15.8490   20.5163 H   0  0  0  0  0  0
  -26.2779  -15.6281   20.0839 H   0  0  0  0  0  0
  -26.7198  -32.5424   23.1115 H   0  0  0  0  0  0
  -25.0151  -33.9702   25.0473 H   0  0  0  0  0  0
  -22.7159  -31.3030   21.3989 H   0  0  0  0  0  0
  -23.3771  -35.9594   23.3265 H   0  0  0  0  0  0
  -24.3600  -36.8921   22.2063 H   0  0  0  0  0  0
  -23.7238  -37.6461   23.6680 H   0  0  0  0  0  0
  -26.0947  -31.5534   20.6071 H   0  0  0  0  0  0
  -26.8428  -30.8368   22.0033 H   0  0  0  0  0  0
  -28.1164  -28.9808   21.1989 H   0  0  0  0  0  0
  -26.0014  -25.9152   19.0221 H   0  0  0  0  0  0
  -23.9742  -27.3003   19.0145 H   0  0  0  0  0  0
  -23.7534  -30.5861   19.4012 H   0  0  0  0  0  0
  -22.7579  -29.2383   19.8588 H   0  0  0  0  0  0
  -25.1302  -36.1900   25.0828 H   0  0  0  0  0  0
  -20.9954  -28.3255   24.1415 H   0  0  0  0  0  0
  -20.5684  -26.2295   23.3607 H   0  0  0  0  0  0
  -21.6643  -26.7462   22.1200 H   0  0  0  0  0  0
  -19.6924  -25.6296   21.1248 H   0  0  0  0  0  0
  -19.6714  -27.3193   20.6743 H   0  0  0  0  0  0
  -17.4213  -26.6696   21.3999 H   0  0  0  0  0  0
  -18.0321  -26.0071   22.8991 H   0  0  0  0  0  0
  -19.7924  -30.7274   24.2273 H   0  0  0  0  0  0
  -17.5006  -31.6282   24.5146 H   0  0  0  0  0  0
  -15.5342  -30.2989   23.7687 H   0  0  0  0  0  0
  -15.8653  -28.0820   22.7106 H   0  0  0  0  0  0
  -24.6006  -30.6925   25.7772 H   0  0  0  0  0  0
  -24.8848  -32.2799   26.4834 H   0  0  0  0  0  0
  -25.8104  -30.8901   27.0239 H   0  0  0  0  0  0
  -26.2921  -29.6717   24.1269 H   0  0  0  0  0  0
  -27.4108  -29.7286   25.4689 H   0  0  0  0  0  0
  -27.8773  -30.4267   23.9369 H   0  0  0  0  0  0
  -27.2769  -33.3615   26.2023 H   0  0  0  0  0  0
  -28.3929  -32.6770   25.0295 H   0  0  0  0  0  0
  -28.0753  -31.8405   26.5397 H   0  0  0  0  0  0
  -28.2564  -38.0113   24.7557 H   0  0  0  0  0  0
  -28.1108  -36.2650   24.6211 H   0  0  0  0  0  0
  -27.2303  -37.1326   25.8853 H   0  0  0  0  0  0
  -20.9373  -29.8718   21.6837 H   0  0  0  0  0  0
  -26.0149  -38.2827   24.1459 H   0  0  0  0  0  0
  -28.9490  -18.2814   22.5411 H   0  0  0  0  0  0
  -28.1818  -20.6379   22.7361 H   0  0  0  0  0  0
  -29.6419  -21.4977   18.7692 H   0  0  0  0  0  0
  -31.5637  -19.2915   18.2146 H   0  0  0  0  0  0
  -30.0291  -18.9795   17.3937 H   0  0  0  0  0  0
  -31.6597  -16.8974   18.3744 H   0  0  0  0  0  0
  -29.9268  -16.7957   18.1531 H   0  0  0  0  0  0
  -31.4019  -17.2844   20.7313 H   0  0  0  0  0  0
  -28.5516  -25.2210   21.7755 H   0  0  0  0  0  0
  -27.0437  -24.9695   20.9907 H   0  0  0  0  0  0
  -29.7447  -23.8610   19.9954 H   0  0  0  0  0  0
  -28.2117  -23.5866   19.1906 H   0  0  0  0  0  0
  -28.9365  -15.7199   20.7778 H   0  0  0  0  0  0
  1 25  1  0  0  0
  1 30  2  0  0  0
  1 82  1  0  0  0
  2  3  1  0  0  0
  2 25  1  0  0  0
  2 84  1  0  0  0
  2 85  1  0  0  0
  3  4  1  0  0  0
  3 86  1  0  0  0
  3 87  1  0  0  0
  4  5  1  0  0  0
  4 88  1  0  0  0
  4 89  1  0  0  0
  5  6  1  0  0  0
  5 26  1  0  0  0
  5 90  1  0  0  0
  6 25  1  0  0  0
  6 91  1  0  0  0
  6 92  1  0  0  0
  7  8  2  0  0  0
  7 26  1  0  0  0
  7 29  1  0  0  0
  8  9  1  0  0  0
  8 22  1  0  0  0
  9 10  1  0  0  0
  9 27  2  0  0  0
 10 11  2  0  0  0
 10 15  1  0  0  0
 11 12  1  0  0  0
 11 93  1  0  0  0
 12 13  2  0  0  0
 12 94  1  0  0  0
 13 14  1  0  0  0
 13 31  1  0  0  0
 14 15  2  0  0  0
 14 95  1  0  0  0
 15 96  1  0  0  0
 16 17  2  0  0  0
 16 21  1  0  0  0
 16 31  1  0  0  0
 17 18  1  0  0  0
 17 97  1  0  0  0
 18 19  2  0  0  0
 18 98  1  0  0  0
 19 20  1  0  0  0
 19 24  1  0  0  0
 20 21  2  0  0  0
 20 99  1  0  0  0
 21 23  1  0  0  0
 22 28  1  0  0  0
 22 32  2  0  0  0
 26 27  1  0  0  0
 28100  1  0  0  0
 28101  1  0  0  0
 29102  1  0  0  0
 29103  1  0  0  0
 33 34  1  0  0  0
 33 66  1  0  0  0
 33 70  2  0  0  0
 34 36  1  0  0  0
 34 59  1  0  0  0
 34104  1  0  0  0
 35 44  2  0  0  0
 35 45  1  0  0  0
 35 68  1  0  0  0
 36 56  1  0  0  0
 36105  1  0  0  0
 37 39  1  0  0  0
 37 47  1  0  0  0
 37 66  1  0  0  0
 37106  1  0  0  0
 38 43  2  0  0  0
 38 46  1  0  0  0
 38 47  1  0  0  0
 39 64  1  0  0  0
 39 67  2  0  0  0
 40 52  1  0  0  0
 40 53  2  0  0  0
 40 58  1  0  0  0
 41107  1  0  0  0
 41108  1  0  0  0
 41109  1  0  0  0
 41 48  1  0  0  0
 42 43  1  0  0  0
 42 66  1  0  0  0
 42110  1  0  0  0
 42111  1  0  0  0
 43 44  1  0  0  0
 44112  1  0  0  0
 45 46  2  0  0  0
 45113  1  0  0  0
 46114  1  0  0  0
 47115  1  0  0  0
 47116  1  0  0  0
 48 56  1  0  0  0
 48 65  1  0  0  0
 48117  1  0  0  0
 49 50  1  0  0  0
 49 53  1  0  0  0
 49 64  1  0  0  0
 49118  1  0  0  0
 50 51  1  0  0  0
 50119  1  0  0  0
 50120  1  0  0  0
 51 52  1  0  0  0
 51121  1  0  0  0
 51122  1  0  0  0
 52123  1  0  0  0
 52124  1  0  0  0
 53 54  1  0  0  0
 54 55  2  0  0  0
 54125  1  0  0  0
 55 57  1  0  0  0
 55126  1  0  0  0
 56 69  2  0  0  0
 57 58  2  0  0  0
 57127  1  0  0  0
 58128  1  0  0  0
 59 60  1  0  0  0
 59 61  1  0  0  0
 59 62  1  0  0  0
 60129  1  0  0  0
 60130  1  0  0  0
 60131  1  0  0  0
 61132  1  0  0  0
 61133  1  0  0  0
 61134  1  0  0  0
 62135  1  0  0  0
 62136  1  0  0  0
 62137  1  0  0  0
 63 65  1  0  0  0
 63138  1  0  0  0
 63139  1  0  0  0
 63140  1  0  0  0
 64141  1  0  0  0
 65142  1  0  0  0
 68 80  1  0  0  0
 71 72  2  0  0  0
 71 74  1  0  0  0
 71143  1  0  0  0
 72 76  1  0  0  0
 72144  1  0  0  0
 73 75  1  0  0  0
 73 76  2  0  0  0
 73145  1  0  0  0
 74 75  2  0  0  0
 74 79  1  0  0  0
 75 77  1  0  0  0
 76 83  1  0  0  0
 77 78  1  0  0  0
 77146  1  0  0  0
 77147  1  0  0  0
 78 79  1  0  0  0
 78148  1  0  0  0
 78149  1  0  0  0
 79 82  1  0  0  0
 79150  1  0  0  0
 80 81  1  0  0  0
 80151  1  0  0  0
 80152  1  0  0  0
 81 83  1  0  0  0
 81153  1  0  0  0
 81154  1  0  0  0
 82155  1  0  0  0
M  ISO  4   1 100  68 101  80 101  82 100
M  END
> <chiral flag>
0

> <version>
0

> <s_m_source_file>
/data/baiqing/PycharmProjects/Reinvent-master-3.2/result/LINK_invent/BTK/process_docking_weight1_custom_sum_contain_oxygen_bond_distance_aromatic_linkinvent_7_9_3/rearranged_h_0144.sdf

> <i_m_source_file_index>
58

> <r_mmod_Potential_Energy-OPLS-2005>
84.5839462280273

> <r_mmod_Stretch_Energy-OPLS-2005>
77.5341415405273

> <r_mmod_Bend_Energy-OPLS-2005>
194.992935180664

> <r_mmod_Torsional_Energy-OPLS-2005>
232.002319335938

> <r_mmod_Improper_Torsional_Energy-OPLS-2005>
7.23947811126709

> <r_mmod_Van_der_Waal_Energy-OPLS-2005>
134.633163452148

> <r_mmod_Electrostatic_Energy-OPLS-2005>
-408.263305664062

> <r_mmod_Solvation_Energy-OPLS-2005>
-208.907348632812

> <b_mmod_Minimization_Converged-OPLS-2005>
0

> <r_mmod_RMS_Derivative-OPLS-2005>
1.76954221725464

$$$$
59
                    3D
 Structure written by MMmdl.
168177  0  0  1  0            999 V2000
  -30.7195  -14.5192   20.5159 C   0  0  0  0  0  0
  -30.4121  -12.3280   19.4314 C   0  0  0  0  0  0
  -29.4942  -12.5048   18.2056 C   0  0  0  0  0  0
  -28.0129  -12.3765   18.6118 C   0  0  0  0  0  0
  -27.6546  -13.2263   19.8651 C   0  0  2  0  0  0
  -28.7046  -13.0661   20.9903 C   0  0  0  0  0  0
  -25.2537  -13.8189   20.5624 C   0  0  0  0  0  0
  -24.1845  -13.0428   20.9192 C   0  0  0  0  0  0
  -24.6458  -11.6926   20.8780 C   0  0  0  0  0  0
  -23.9133  -10.4304   21.0445 C   0  0  0  0  0  0
  -24.3687   -9.4229   21.9207 C   0  0  0  0  0  0
  -23.6361   -8.2265   22.0756 C   0  0  0  0  0  0
  -22.4339   -8.0288   21.3547 C   0  0  0  0  0  0
  -21.9968   -9.0247   20.4631 C   0  0  0  0  0  0
  -22.7312  -10.2134   20.3073 C   0  0  0  0  0  0
  -21.6860   -6.0765   22.5292 C   0  0  0  0  0  0
  -21.3993   -6.5655   23.8227 C   0  0  0  0  0  0
  -21.3669   -5.6778   24.9178 C   0  0  0  0  0  0
  -21.6072   -4.3043   24.7218 C   0  0  0  0  0  0
  -21.8818   -3.8157   23.4328 C   0  0  0  0  0  0
  -21.9197   -4.6994   22.3400 C   0  0  0  0  0  0
  -22.7851  -13.5195   21.1855 C   0  0  0  0  0  0
  -22.1656   -4.2182   21.0972 F   0  0  0  0  0  0
  -21.5673   -3.4519   25.7726 F   0  0  0  0  0  0
  -30.0234  -13.3506   20.4156 N   0  0  0  0  0  0
  -26.3020  -12.9418   20.3348 N   0  0  0  0  0  0
  -25.9394  -11.6564   20.5817 N   0  0  0  0  0  0
  -22.0531  -12.8160   22.0413 N   0  0  0  0  0  0
  -25.4126  -15.1886   20.3933 N   0  0  0  0  0  0
  -31.8826  -14.6262   20.1272 O   0  0  0  0  0  0
  -21.6674   -6.8924   21.4248 O   0  0  0  0  0  0
  -22.3519  -14.5496   20.6715 O   0  0  0  0  0  0
  -24.6194  -31.8702   23.2137 C   0  0  0  0  0  0
  -25.9093  -32.4829   23.8411 C   0  0  1  0  0  0
  -27.2120  -27.4068   20.0786 C   0  0  0  0  0  0
  -25.5978  -33.8636   24.2363 N   0  0  0  0  0  0
  -23.4054  -30.4981   21.5569 C   0  0  2  0  0  0
  -24.8427  -28.9711   20.1107 C   0  0  0  0  0  0
  -22.7421  -29.4685   22.5019 C   0  0  0  0  0  0
  -18.0284  -28.1381   22.8500 C   0  0  0  0  0  0
  -24.1480  -36.7279   23.2638 C   0  0  0  0  0  0
  -25.9381  -30.8234   21.3730 C   0  0  0  0  0  0
  -26.0091  -29.4577   20.7164 C   0  0  0  0  0  0
  -27.1951  -28.6809   20.7053 C   0  0  0  0  0  0
  -26.0237  -26.9610   19.4463 C   0  0  0  0  0  0
  -24.8471  -27.7250   19.4737 C   0  0  0  0  0  0
  -23.6081  -29.8402   20.1682 C   0  0  0  0  0  0
  -25.4118  -36.3107   24.0338 C   0  0  1  0  0  0
  -20.5877  -28.3670   23.1328 C   0  0  2  0  0  0
  -20.6774  -26.9413   22.5437 C   0  0  0  0  0  0
  -19.5757  -26.6390   21.5240 C   0  0  0  0  0  0
  -18.1911  -26.7956   22.1592 C   0  0  0  0  0  0
  -19.1529  -28.8844   23.2920 C   0  0  0  0  0  0
  -18.9439  -30.1449   23.8911 C   0  0  0  0  0  0
  -17.6443  -30.6578   24.0560 C   0  0  0  0  0  0
  -25.9055  -34.9473   23.5121 C   0  0  0  0  0  0
  -16.5330  -29.9070   23.6341 C   0  0  0  0  0  0
  -16.7265  -28.6491   23.0350 C   0  0  0  0  0  0
  -26.4506  -31.6587   25.0727 C   0  0  0  0  0  0
  -25.3726  -31.3681   26.1421 C   0  0  0  0  0  0
  -27.0395  -30.3043   24.6122 C   0  0  0  0  0  0
  -27.6076  -32.4285   25.7518 C   0  0  0  0  0  0
  -27.5596  -37.1819   24.8463 C   0  0  0  0  0  0
  -21.4149  -29.3040   22.3730 N   0  0  0  0  0  0
  -26.4306  -37.3787   23.9407 N   0  0  0  0  0  0
  -24.6728  -31.0757   22.1066 N   0  0  0  0  0  0
  -23.4186  -28.8221   23.3067 O   0  0  0  0  0  0
  -28.3618  -26.6294   20.1076 O   0  0  0  0  0  0
  -26.5563  -34.8911   22.4652 O   0  0  0  0  0  0
  -23.5374  -32.1496   23.7500 O   0  0  0  0  0  0
  -27.5499  -22.5028   22.6587 C   0  0  0  0  0  0
  -29.4257  -21.4648   21.5248 C   0  0  0  0  0  0
  -27.1576  -21.2552   23.1847 C   0  0  0  0  0  0
  -27.9322  -20.0874   22.9213 C   0  0  0  0  0  0
  -28.6947  -22.6332   21.8560 C   0  0  0  0  0  0
  -29.0573  -20.1927   22.0448 C   0  0  0  0  0  0
  -29.1508  -18.6132   25.7936 C   0  0  0  0  0  0
  -28.4746  -17.2755   25.6181 C   0  0  0  0  0  0
  -28.7540  -18.1379   24.4082 C   0  0  0  0  0  0
  -25.9291  -21.2319   24.0834 C   0  0  0  0  0  0
  -30.6364  -16.9881   20.9204 C   0  0  0  0  0  0
  -29.6497  -18.1949   20.7894 C   0  0  0  0  0  0
  -28.2180  -25.2426   19.7223 C   0  0  0  0  0  0
  -29.3365  -24.2886   20.2023 C   0  0  0  0  0  0
  -27.5903  -18.7750   23.6580 C   0  0  2  0  0  0
  -30.0347  -15.6266   20.8766 N   0  0  0  0  0  0
  -29.1052  -23.9207   21.5620 O   0  0  0  0  0  0
  -29.9191  -19.1282   21.8466 O   0  0  0  0  0  0
  -26.8104  -17.5814   22.5874 Cl  0  0  0  0  0  0
  -31.4605  -12.4004   19.1349 H   0  0  0  0  0  0
  -30.2939  -11.3300   19.8530 H   0  0  0  0  0  0
  -29.7405  -11.7726   17.4350 H   0  0  0  0  0  0
  -29.6658  -13.4855   17.7614 H   0  0  0  0  0  0
  -27.8103  -11.3218   18.7978 H   0  0  0  0  0  0
  -27.3722  -12.6592   17.7758 H   0  0  0  0  0  0
  -27.6763  -14.2717   19.5522 H   0  0  0  0  0  0
  -28.6866  -12.0527   21.3970 H   0  0  0  0  0  0
  -28.4817  -13.7278   21.8289 H   0  0  0  0  0  0
  -25.2867   -9.5710   22.4759 H   0  0  0  0  0  0
  -24.0100   -7.4649   22.7458 H   0  0  0  0  0  0
  -21.0923   -8.8753   19.8911 H   0  0  0  0  0  0
  -22.3798  -10.9654   19.6174 H   0  0  0  0  0  0
  -21.1924   -7.6154   23.9750 H   0  0  0  0  0  0
  -21.1508   -6.0496   25.9094 H   0  0  0  0  0  0
  -22.0587   -2.7612   23.2797 H   0  0  0  0  0  0
  -22.4134  -11.9786   22.4759 H   0  0  0  0  0  0
  -21.1128  -13.1127   22.2598 H   0  0  0  0  0  0
  -24.6429  -15.8335   20.5410 H   0  0  0  0  0  0
  -26.2668  -15.6538   20.1187 H   0  0  0  0  0  0
  -26.7176  -32.5522   23.1183 H   0  0  0  0  0  0
  -25.0253  -33.9821   25.0593 H   0  0  0  0  0  0
  -22.6964  -31.3180   21.4249 H   0  0  0  0  0  0
  -23.3786  -35.9566   23.3271 H   0  0  0  0  0  0
  -24.3581  -36.8898   22.2058 H   0  0  0  0  0  0
  -23.7164  -37.6456   23.6650 H   0  0  0  0  0  0
  -26.0529  -31.5900   20.6059 H   0  0  0  0  0  0
  -26.8253  -30.8728   21.9923 H   0  0  0  0  0  0
  -28.0863  -29.0451   21.1965 H   0  0  0  0  0  0
  -25.9625  -26.0235   18.9115 H   0  0  0  0  0  0
  -23.9553  -27.3561   18.9839 H   0  0  0  0  0  0
  -23.7057  -30.6173   19.4079 H   0  0  0  0  0  0
  -22.7314  -29.2563   19.8801 H   0  0  0  0  0  0
  -25.1297  -36.1989   25.0831 H   0  0  0  0  0  0
  -20.9954  -28.3216   24.1453 H   0  0  0  0  0  0
  -20.5679  -26.2279   23.3623 H   0  0  0  0  0  0
  -21.6638  -26.7452   22.1210 H   0  0  0  0  0  0
  -19.6893  -25.6307   21.1260 H   0  0  0  0  0  0
  -19.6713  -27.3199   20.6778 H   0  0  0  0  0  0
  -17.4237  -26.6795   21.3939 H   0  0  0  0  0  0
  -18.0198  -26.0066   22.8916 H   0  0  0  0  0  0
  -19.7921  -30.7279   24.2239 H   0  0  0  0  0  0
  -17.4997  -31.6266   24.5142 H   0  0  0  0  0  0
  -15.5328  -30.2945   23.7685 H   0  0  0  0  0  0
  -15.8685  -28.0819   22.7035 H   0  0  0  0  0  0
  -24.6017  -30.6902   25.7731 H   0  0  0  0  0  0
  -24.8784  -32.2816   26.4731 H   0  0  0  0  0  0
  -25.8042  -30.8982   27.0261 H   0  0  0  0  0  0
  -26.2994  -29.6763   24.1153 H   0  0  0  0  0  0
  -27.4178  -29.7295   25.4587 H   0  0  0  0  0  0
  -27.8776  -30.4391   23.9282 H   0  0  0  0  0  0
  -27.2729  -33.3588   26.2104 H   0  0  0  0  0  0
  -28.3908  -32.6818   25.0365 H   0  0  0  0  0  0
  -28.0711  -31.8395   26.5443 H   0  0  0  0  0  0
  -28.2598  -38.0137   24.7543 H   0  0  0  0  0  0
  -28.1107  -36.2679   24.6237 H   0  0  0  0  0  0
  -27.2318  -37.1342   25.8861 H   0  0  0  0  0  0
  -20.9298  -29.8798   21.6996 H   0  0  0  0  0  0
  -26.0198  -38.2857   24.1432 H   0  0  0  0  0  0
  -26.9888  -23.3922   22.9142 H   0  0  0  0  0  0
  -30.3314  -21.5526   20.9411 H   0  0  0  0  0  0
  -30.2088  -18.6048   26.0517 H   0  0  0  0  0  0
  -28.5782  -19.4274   26.2342 H   0  0  0  0  0  0
  -27.4372  -17.1776   25.9383 H   0  0  0  0  0  0
  -29.0795  -16.3787   25.7401 H   0  0  0  0  0  0
  -29.5680  -17.7847   23.7815 H   0  0  0  0  0  0
  -25.3637  -22.1628   24.0154 H   0  0  0  0  0  0
  -26.2313  -21.1046   25.1249 H   0  0  0  0  0  0
  -25.2485  -20.4221   23.8097 H   0  0  0  0  0  0
  -31.1820  -17.0716   21.8648 H   0  0  0  0  0  0
  -31.3974  -17.0994   20.1400 H   0  0  0  0  0  0
  -28.6143  -17.8660   20.7718 H   0  0  0  0  0  0
  -29.8081  -18.7046   19.8359 H   0  0  0  0  0  0
  -27.2800  -24.8252   20.0942 H   0  0  0  0  0  0
  -28.1693  -25.2071   18.6325 H   0  0  0  0  0  0
  -30.3195  -24.7519   20.0967 H   0  0  0  0  0  0
  -29.3423  -23.4006   19.5660 H   0  0  0  0  0  0
  -26.8340  -18.9645   24.4159 H   0  0  0  0  0  0
  -29.0618  -15.5249   21.1265 H   0  0  0  0  0  0
  1 25  1  0  0  0
  1 30  2  0  0  0
  1 86  1  0  0  0
  2  3  1  0  0  0
  2 25  1  0  0  0
  2 90  1  0  0  0
  2 91  1  0  0  0
  3  4  1  0  0  0
  3 92  1  0  0  0
  3 93  1  0  0  0
  4  5  1  0  0  0
  4 94  1  0  0  0
  4 95  1  0  0  0
  5  6  1  0  0  0
  5 26  1  0  0  0
  5 96  1  0  0  0
  6 25  1  0  0  0
  6 97  1  0  0  0
  6 98  1  0  0  0
  7  8  2  0  0  0
  7 26  1  0  0  0
  7 29  1  0  0  0
  8  9  1  0  0  0
  8 22  1  0  0  0
  9 10  1  0  0  0
  9 27  2  0  0  0
 10 11  2  0  0  0
 10 15  1  0  0  0
 11 12  1  0  0  0
 11 99  1  0  0  0
 12 13  2  0  0  0
 12100  1  0  0  0
 13 14  1  0  0  0
 13 31  1  0  0  0
 14 15  2  0  0  0
 14101  1  0  0  0
 15102  1  0  0  0
 16 17  2  0  0  0
 16 21  1  0  0  0
 16 31  1  0  0  0
 17 18  1  0  0  0
 17103  1  0  0  0
 18 19  2  0  0  0
 18104  1  0  0  0
 19 20  1  0  0  0
 19 24  1  0  0  0
 20 21  2  0  0  0
 20105  1  0  0  0
 21 23  1  0  0  0
 22 28  1  0  0  0
 22 32  2  0  0  0
 26 27  1  0  0  0
 28106  1  0  0  0
 28107  1  0  0  0
 29108  1  0  0  0
 29109  1  0  0  0
 33 34  1  0  0  0
 33 66  1  0  0  0
 33 70  2  0  0  0
 34 36  1  0  0  0
 34 59  1  0  0  0
 34110  1  0  0  0
 35 44  2  0  0  0
 35 45  1  0  0  0
 35 68  1  0  0  0
 36 56  1  0  0  0
 36111  1  0  0  0
 37 39  1  0  0  0
 37 47  1  0  0  0
 37 66  1  0  0  0
 37112  1  0  0  0
 38 43  2  0  0  0
 38 46  1  0  0  0
 38 47  1  0  0  0
 39 64  1  0  0  0
 39 67  2  0  0  0
 40 52  1  0  0  0
 40 53  2  0  0  0
 40 58  1  0  0  0
 41113  1  0  0  0
 41114  1  0  0  0
 41115  1  0  0  0
 41 48  1  0  0  0
 42 43  1  0  0  0
 42 66  1  0  0  0
 42116  1  0  0  0
 42117  1  0  0  0
 43 44  1  0  0  0
 44118  1  0  0  0
 45 46  2  0  0  0
 45119  1  0  0  0
 46120  1  0  0  0
 47121  1  0  0  0
 47122  1  0  0  0
 48 56  1  0  0  0
 48 65  1  0  0  0
 48123  1  0  0  0
 49 50  1  0  0  0
 49 53  1  0  0  0
 49 64  1  0  0  0
 49124  1  0  0  0
 50 51  1  0  0  0
 50125  1  0  0  0
 50126  1  0  0  0
 51 52  1  0  0  0
 51127  1  0  0  0
 51128  1  0  0  0
 52129  1  0  0  0
 52130  1  0  0  0
 53 54  1  0  0  0
 54 55  2  0  0  0
 54131  1  0  0  0
 55 57  1  0  0  0
 55132  1  0  0  0
 56 69  2  0  0  0
 57 58  2  0  0  0
 57133  1  0  0  0
 58134  1  0  0  0
 59 60  1  0  0  0
 59 61  1  0  0  0
 59 62  1  0  0  0
 60135  1  0  0  0
 60136  1  0  0  0
 60137  1  0  0  0
 61138  1  0  0  0
 61139  1  0  0  0
 61140  1  0  0  0
 62141  1  0  0  0
 62142  1  0  0  0
 62143  1  0  0  0
 63 65  1  0  0  0
 63144  1  0  0  0
 63145  1  0  0  0
 63146  1  0  0  0
 64147  1  0  0  0
 65148  1  0  0  0
 68 83  1  0  0  0
 71 73  2  0  0  0
 71 75  1  0  0  0
 71149  1  0  0  0
 72 75  2  0  0  0
 72 76  1  0  0  0
 72150  1  0  0  0
 73 74  1  0  0  0
 73 80  1  0  0  0
 74 76  2  0  0  0
 74 85  1  0  0  0
 75 87  1  0  0  0
 76 88  1  0  0  0
 77 78  1  0  0  0
 77151  1  0  0  0
 77152  1  0  0  0
 77 79  1  0  0  0
 78 79  1  0  0  0
 78153  1  0  0  0
 78154  1  0  0  0
 79 85  1  0  0  0
 79155  1  0  0  0
 80156  1  0  0  0
 80157  1  0  0  0
 80158  1  0  0  0
 81 82  1  0  0  0
 81 86  1  0  0  0
 81159  1  0  0  0
 81160  1  0  0  0
 82 88  1  0  0  0
 82161  1  0  0  0
 82162  1  0  0  0
 83 84  1  0  0  0
 83163  1  0  0  0
 83164  1  0  0  0
 84 87  1  0  0  0
 84165  1  0  0  0
 84166  1  0  0  0
 85 89  1  0  0  0
 85167  1  0  0  0
 86168  1  0  0  0
M  ISO  4   1 100  68 101  83 101  86 100
M  END
> <chiral flag>
0

> <version>
0

> <s_m_source_file>
/data/baiqing/PycharmProjects/Reinvent-master-3.2/result/LINK_invent/BTK/process_docking_weight1_custom_sum_contain_oxygen_bond_distance_aromatic_linkinvent_7_9_3/rearranged_h_0144.sdf

> <i_m_source_file_index>
59

> <r_mmod_Potential_Energy-OPLS-2005>
65.3821258544922

> <r_mmod_Stretch_Energy-OPLS-2005>
47.2307205200195

> <r_mmod_Bend_Energy-OPLS-2005>
118.022338867188

> <r_mmod_Torsional_Energy-OPLS-2005>
303.313598632812

> <r_mmod_Improper_Torsional_Energy-OPLS-2005>
5.78902530670166

> <r_mmod_Van_der_Waal_Energy-OPLS-2005>
153.304183959961

> <r_mmod_Electrostatic_Energy-OPLS-2005>
-382.779724121094

> <r_mmod_Solvation_Energy-OPLS-2005>
-202.64289855957

> <b_mmod_Minimization_Converged-OPLS-2005>
0

> <r_mmod_RMS_Derivative-OPLS-2005>
4.16330194473267

$$$$
60
                    3D
 Structure written by MMmdl.
167176  0  0  1  0            999 V2000
  -30.7256  -14.3985   20.5652 C   0  0  0  0  0  0
  -30.4179  -12.2555   19.4134 C   0  0  0  0  0  0
  -29.4949  -12.5024   18.2035 C   0  0  0  0  0  0
  -28.0107  -12.3796   18.6068 C   0  0  0  0  0  0
  -27.6652  -13.1961   19.8817 C   0  0  2  0  0  0
  -28.7079  -12.9535   20.9980 C   0  0  0  0  0  0
  -25.2594  -13.8120   20.5696 C   0  0  0  0  0  0
  -24.1825  -13.0407   20.9204 C   0  0  0  0  0  0
  -24.6376  -11.6887   20.8758 C   0  0  0  0  0  0
  -23.9039  -10.4281   21.0421 C   0  0  0  0  0  0
  -24.3603   -9.4200   21.9184 C   0  0  0  0  0  0
  -23.6294   -8.2231   22.0745 C   0  0  0  0  0  0
  -22.4271   -8.0276   21.3543 C   0  0  0  0  0  0
  -21.9909   -9.0246   20.4638 C   0  0  0  0  0  0
  -22.7219  -10.2138   20.3063 C   0  0  0  0  0  0
  -21.6859   -6.0735   22.5283 C   0  0  0  0  0  0
  -21.4012   -6.5641   23.8216 C   0  0  0  0  0  0
  -21.3661   -5.6799   24.9183 C   0  0  0  0  0  0
  -21.6063   -4.3062   24.7236 C   0  0  0  0  0  0
  -21.8826   -3.8141   23.4355 C   0  0  0  0  0  0
  -21.9182   -4.6958   22.3408 C   0  0  0  0  0  0
  -22.7841  -13.5214   21.1864 C   0  0  0  0  0  0
  -22.1647   -4.2138   21.0993 F   0  0  0  0  0  0
  -21.5639   -3.4553   25.7749 F   0  0  0  0  0  0
  -30.0478  -13.2294   20.4461 N   0  0  0  0  0  0
  -26.3039  -12.9272   20.3422 N   0  0  0  0  0  0
  -25.9303  -11.6446   20.5790 N   0  0  0  0  0  0
  -22.0491  -12.8198   22.0435 N   0  0  0  0  0  0
  -25.4297  -15.1827   20.4062 N   0  0  0  0  0  0
  -31.8657  -14.5805   20.1262 O   0  0  0  0  0  0
  -21.6641   -6.8870   21.4237 O   0  0  0  0  0  0
  -22.3512  -14.5504   20.6695 O   0  0  0  0  0  0
  -24.6015  -31.8735   23.2142 C   0  0  0  0  0  0
  -25.8948  -32.4857   23.8423 C   0  0  1  0  0  0
  -27.2754  -27.5089   20.1077 C   0  0  0  0  0  0
  -25.5847  -33.8654   24.2357 N   0  0  0  0  0  0
  -23.3868  -30.4929   21.5482 C   0  0  2  0  0  0
  -24.8424  -28.9598   20.1176 C   0  0  0  0  0  0
  -22.7343  -29.4675   22.5006 C   0  0  0  0  0  0
  -18.0265  -28.1375   22.8493 C   0  0  0  0  0  0
  -24.1483  -36.7328   23.2639 C   0  0  0  0  0  0
  -25.9003  -30.8656   21.3527 C   0  0  0  0  0  0
  -25.9849  -29.4974   20.7172 C   0  0  0  0  0  0
  -27.1885  -28.7770   20.7296 C   0  0  0  0  0  0
  -26.1137  -26.9721   19.5101 C   0  0  0  0  0  0
  -24.8968  -27.6877   19.5165 C   0  0  0  0  0  0
  -23.5965  -29.8150   20.1634 C   0  0  0  0  0  0
  -25.4101  -36.3129   24.0342 C   0  0  1  0  0  0
  -20.5842  -28.3643   23.1345 C   0  0  2  0  0  0
  -20.6745  -26.9390   22.5423 C   0  0  0  0  0  0
  -19.5734  -26.6388   21.5204 C   0  0  0  0  0  0
  -18.1909  -26.7930   22.1610 C   0  0  0  0  0  0
  -19.1508  -28.8826   23.2925 C   0  0  0  0  0  0
  -18.9446  -30.1441   23.8923 C   0  0  0  0  0  0
  -17.6450  -30.6587   24.0572 C   0  0  0  0  0  0
  -25.9022  -34.9494   23.5149 C   0  0  0  0  0  0
  -16.5342  -29.9093   23.6322 C   0  0  0  0  0  0
  -16.7254  -28.6512   23.0332 C   0  0  0  0  0  0
  -26.4433  -31.6616   25.0711 C   0  0  0  0  0  0
  -25.3733  -31.3684   26.1483 C   0  0  0  0  0  0
  -27.0267  -30.3086   24.6007 C   0  0  0  0  0  0
  -27.6036  -32.4325   25.7450 C   0  0  0  0  0  0
  -27.5585  -37.1809   24.8459 C   0  0  0  0  0  0
  -21.4087  -29.3014   22.3747 N   0  0  0  0  0  0
  -26.4293  -37.3806   23.9414 N   0  0  0  0  0  0
  -24.6464  -31.0915   22.0987 N   0  0  0  0  0  0
  -23.4154  -28.8241   23.3035 O   0  0  0  0  0  0
  -28.4462  -26.7805   20.0413 O   0  0  0  0  0  0
  -26.5595  -34.8931   22.4717 O   0  0  0  0  0  0
  -23.5233  -32.1459   23.7584 O   0  0  0  0  0  0
  -32.1953  -22.9261   18.6348 C   0  0  0  0  0  0
  -31.4381  -21.8205   19.0563 C   0  0  0  0  0  0
  -32.0752  -24.1543   19.3075 C   0  0  0  0  0  0
  -30.5801  -21.9259   20.1734 C   0  0  0  0  0  0
  -31.1889  -24.2831   20.4021 C   0  0  0  0  0  0
  -30.4659  -23.1598   20.8552 C   0  0  0  0  0  0
  -30.4848  -17.3971   22.2934 C   0  0  0  0  0  0
  -30.3497  -17.6850   19.8164 C   0  0  0  0  0  0
  -29.7910  -16.0200   22.1666 C   0  0  0  0  0  0
  -29.5881  -16.3613   19.7081 C   0  0  0  0  0  0
  -30.0208  -18.3398   21.1686 C   0  0  0  0  0  0
  -29.7647  -20.7134   20.5830 C   0  0  0  0  0  0
  -29.6145  -27.3835   20.6110 C   0  0  0  0  0  0
  -30.8876  -26.6289   20.2329 C   0  0  0  0  0  0
  -29.9341  -15.4579   20.8158 N   0  0  0  0  0  0
  -30.5930  -19.6955   21.2645 N   0  3  0  0  0  0
  -31.0061  -25.4753   21.0563 O   0  0  0  0  0  0
  -29.4241  -23.3331   22.2287 Cl  0  0  0  0  0  0
  -31.4654  -12.3356   19.1167 H   0  0  0  0  0  0
  -30.2932  -11.2397   19.7922 H   0  0  0  0  0  0
  -29.7301  -11.8025   17.4009 H   0  0  0  0  0  0
  -29.6825  -13.4981   17.8001 H   0  0  0  0  0  0
  -27.7926  -11.3248   18.7703 H   0  0  0  0  0  0
  -27.3698  -12.6927   17.7812 H   0  0  0  0  0  0
  -27.7113  -14.2463   19.6014 H   0  0  0  0  0  0
  -28.6610  -11.9197   21.3444 H   0  0  0  0  0  0
  -28.4849  -13.5640   21.8731 H   0  0  0  0  0  0
  -25.2754   -9.5702   22.4738 H   0  0  0  0  0  0
  -24.0039   -7.4634   22.7462 H   0  0  0  0  0  0
  -21.0858   -8.8758   19.8914 H   0  0  0  0  0  0
  -22.3681  -10.9684   19.6174 H   0  0  0  0  0  0
  -21.1999   -7.6141   23.9729 H   0  0  0  0  0  0
  -21.1485   -6.0519   25.9092 H   0  0  0  0  0  0
  -22.0599   -2.7594   23.2877 H   0  0  0  0  0  0
  -22.4105  -11.9852   22.4800 H   0  0  0  0  0  0
  -21.1097  -13.1190   22.2650 H   0  0  0  0  0  0
  -24.6571  -15.8342   20.4961 H   0  0  0  0  0  0
  -26.2840  -15.6181   20.0838 H   0  0  0  0  0  0
  -26.7026  -32.5624   23.1217 H   0  0  0  0  0  0
  -24.9983  -33.9839   25.0485 H   0  0  0  0  0  0
  -22.6704  -31.3048   21.4056 H   0  0  0  0  0  0
  -23.3739  -35.9668   23.3312 H   0  0  0  0  0  0
  -24.3576  -36.8931   22.2052 H   0  0  0  0  0  0
  -23.7245  -37.6539   23.6645 H   0  0  0  0  0  0
  -25.9892  -31.6263   20.5752 H   0  0  0  0  0  0
  -26.7938  -30.9389   21.9591 H   0  0  0  0  0  0
  -28.0365  -29.2352   21.2163 H   0  0  0  0  0  0
  -26.1601  -26.0043   19.0307 H   0  0  0  0  0  0
  -24.0190  -27.2596   19.0524 H   0  0  0  0  0  0
  -23.7000  -30.5865   19.3995 H   0  0  0  0  0  0
  -22.7247  -29.2267   19.8698 H   0  0  0  0  0  0
  -25.1278  -36.1999   25.0837 H   0  0  0  0  0  0
  -20.9951  -28.3201   24.1460 H   0  0  0  0  0  0
  -20.5628  -26.2254   23.3603 H   0  0  0  0  0  0
  -21.6626  -26.7425   22.1232 H   0  0  0  0  0  0
  -19.6898  -25.6300   21.1230 H   0  0  0  0  0  0
  -19.6694  -27.3206   20.6743 H   0  0  0  0  0  0
  -17.4189  -26.6687   21.4006 H   0  0  0  0  0  0
  -18.0312  -26.0070   22.9003 H   0  0  0  0  0  0
  -19.7917  -30.7252   24.2301 H   0  0  0  0  0  0
  -17.5001  -31.6267   24.5169 H   0  0  0  0  0  0
  -15.5338  -30.3000   23.7636 H   0  0  0  0  0  0
  -15.8652  -28.0848   22.7012 H   0  0  0  0  0  0
  -24.5878  -30.7071   25.7805 H   0  0  0  0  0  0
  -24.8953  -32.2834   26.4999 H   0  0  0  0  0  0
  -25.8103  -30.8790   27.0198 H   0  0  0  0  0  0
  -26.2784  -29.6843   24.1113 H   0  0  0  0  0  0
  -27.4148  -29.7314   25.4410 H   0  0  0  0  0  0
  -27.8560  -30.4452   23.9062 H   0  0  0  0  0  0
  -27.2674  -33.3604   26.2092 H   0  0  0  0  0  0
  -28.3800  -32.6927   25.0242 H   0  0  0  0  0  0
  -28.0763  -31.8418   26.5310 H   0  0  0  0  0  0
  -28.2592  -38.0115   24.7526 H   0  0  0  0  0  0
  -28.1093  -36.2652   24.6257 H   0  0  0  0  0  0
  -27.2312  -37.1427   25.8863 H   0  0  0  0  0  0
  -20.9227  -29.8737   21.6983 H   0  0  0  0  0  0
  -26.0187  -38.2881   24.1428 H   0  0  0  0  0  0
  -32.8630  -22.8355   17.7882 H   0  0  0  0  0  0
  -31.5215  -20.8901   18.5100 H   0  0  0  0  0  0
  -32.6654  -24.9935   18.9676 H   0  0  0  0  0  0
  -31.5695  -17.2764   22.2589 H   0  0  0  0  0  0
  -30.2590  -17.8263   23.2686 H   0  0  0  0  0  0
  -30.0866  -18.3260   18.9747 H   0  0  0  0  0  0
  -31.4231  -17.5047   19.7316 H   0  0  0  0  0  0
  -28.7255  -16.1194   22.3780 H   0  0  0  0  0  0
  -30.1892  -15.3359   22.9196 H   0  0  0  0  0  0
  -29.7951  -15.9032   18.7392 H   0  0  0  0  0  0
  -28.5140  -16.5466   19.7191 H   0  0  0  0  0  0
  -28.9367  -18.4402   21.2641 H   0  0  0  0  0  0
  -29.3095  -20.3118   19.6766 H   0  0  0  0  0  0
  -28.9235  -20.9745   21.2228 H   0  0  0  0  0  0
  -29.7405  -28.3926   20.2169 H   0  0  0  0  0  0
  -29.5193  -27.4561   21.6967 H   0  0  0  0  0  0
  -31.7567  -27.2601   20.4224 H   0  0  0  0  0  0
  -30.8670  -26.4290   19.1604 H   0  0  0  0  0  0
  -31.5208  -19.6977   20.8751 H   0  0  0  0  0  0
  -30.6709  -19.9596   22.2331 H   0  0  0  0  0  0
  1 25  1  0  0  0
  1 30  2  0  0  0
  1 85  1  0  0  0
  2  3  1  0  0  0
  2 25  1  0  0  0
  2 89  1  0  0  0
  2 90  1  0  0  0
  3  4  1  0  0  0
  3 91  1  0  0  0
  3 92  1  0  0  0
  4  5  1  0  0  0
  4 93  1  0  0  0
  4 94  1  0  0  0
  5  6  1  0  0  0
  5 26  1  0  0  0
  5 95  1  0  0  0
  6 25  1  0  0  0
  6 96  1  0  0  0
  6 97  1  0  0  0
  7  8  2  0  0  0
  7 26  1  0  0  0
  7 29  1  0  0  0
  8  9  1  0  0  0
  8 22  1  0  0  0
  9 10  1  0  0  0
  9 27  2  0  0  0
 10 11  2  0  0  0
 10 15  1  0  0  0
 11 12  1  0  0  0
 11 98  1  0  0  0
 12 13  2  0  0  0
 12 99  1  0  0  0
 13 14  1  0  0  0
 13 31  1  0  0  0
 14 15  2  0  0  0
 14100  1  0  0  0
 15101  1  0  0  0
 16 17  2  0  0  0
 16 21  1  0  0  0
 16 31  1  0  0  0
 17 18  1  0  0  0
 17102  1  0  0  0
 18 19  2  0  0  0
 18103  1  0  0  0
 19 20  1  0  0  0
 19 24  1  0  0  0
 20 21  2  0  0  0
 20104  1  0  0  0
 21 23  1  0  0  0
 22 28  1  0  0  0
 22 32  2  0  0  0
 26 27  1  0  0  0
 28105  1  0  0  0
 28106  1  0  0  0
 29107  1  0  0  0
 29108  1  0  0  0
 33 34  1  0  0  0
 33 66  1  0  0  0
 33 70  2  0  0  0
 34 36  1  0  0  0
 34 59  1  0  0  0
 34109  1  0  0  0
 35 44  2  0  0  0
 35 45  1  0  0  0
 35 68  1  0  0  0
 36 56  1  0  0  0
 36110  1  0  0  0
 37 39  1  0  0  0
 37 47  1  0  0  0
 37 66  1  0  0  0
 37111  1  0  0  0
 38 43  2  0  0  0
 38 46  1  0  0  0
 38 47  1  0  0  0
 39 64  1  0  0  0
 39 67  2  0  0  0
 40 52  1  0  0  0
 40 53  2  0  0  0
 40 58  1  0  0  0
 41112  1  0  0  0
 41113  1  0  0  0
 41114  1  0  0  0
 41 48  1  0  0  0
 42 43  1  0  0  0
 42 66  1  0  0  0
 42115  1  0  0  0
 42116  1  0  0  0
 43 44  1  0  0  0
 44117  1  0  0  0
 45 46  2  0  0  0
 45118  1  0  0  0
 46119  1  0  0  0
 47120  1  0  0  0
 47121  1  0  0  0
 48 56  1  0  0  0
 48 65  1  0  0  0
 48122  1  0  0  0
 49 50  1  0  0  0
 49 53  1  0  0  0
 49 64  1  0  0  0
 49123  1  0  0  0
 50 51  1  0  0  0
 50124  1  0  0  0
 50125  1  0  0  0
 51 52  1  0  0  0
 51126  1  0  0  0
 51127  1  0  0  0
 52128  1  0  0  0
 52129  1  0  0  0
 53 54  1  0  0  0
 54 55  2  0  0  0
 54130  1  0  0  0
 55 57  1  0  0  0
 55131  1  0  0  0
 56 69  2  0  0  0
 57 58  2  0  0  0
 57132  1  0  0  0
 58133  1  0  0  0
 59 60  1  0  0  0
 59 61  1  0  0  0
 59 62  1  0  0  0
 60134  1  0  0  0
 60135  1  0  0  0
 60136  1  0  0  0
 61137  1  0  0  0
 61138  1  0  0  0
 61139  1  0  0  0
 62140  1  0  0  0
 62141  1  0  0  0
 62142  1  0  0  0
 63 65  1  0  0  0
 63143  1  0  0  0
 63144  1  0  0  0
 63145  1  0  0  0
 64146  1  0  0  0
 65147  1  0  0  0
 68 83  1  0  0  0
 71 72  2  0  0  0
 71 73  1  0  0  0
 71148  1  0  0  0
 72 74  1  0  0  0
 72149  1  0  0  0
 73 75  2  0  0  0
 73150  1  0  0  0
 74 76  2  0  0  0
 74 82  1  0  0  0
 75 76  1  0  0  0
 75 87  1  0  0  0
 76 88  1  0  0  0
 77 79  1  0  0  0
 77 81  1  0  0  0
 77151  1  0  0  0
 77152  1  0  0  0
 78 80  1  0  0  0
 78 81  1  0  0  0
 78153  1  0  0  0
 78154  1  0  0  0
 79 85  1  0  0  0
 79155  1  0  0  0
 79156  1  0  0  0
 80 85  1  0  0  0
 80157  1  0  0  0
 80158  1  0  0  0
 81 86  1  0  0  0
 81159  1  0  0  0
 82 86  1  0  0  0
 82160  1  0  0  0
 82161  1  0  0  0
 83 84  1  0  0  0
 83162  1  0  0  0
 83163  1  0  0  0
 84 87  1  0  0  0
 84164  1  0  0  0
 84165  1  0  0  0
 86166  1  0  0  0
 86167  1  0  0  0
M  CHG  1  86   1
M  ISO  4   1 100  68 101  83 101  85 100
M  END
> <chiral flag>
0

> <version>
0

> <s_m_source_file>
/data/baiqing/PycharmProjects/Reinvent-master-3.2/result/LINK_invent/BTK/process_docking_weight1_custom_sum_contain_oxygen_bond_distance_aromatic_linkinvent_7_9_3/rearranged_h_0144.sdf

> <i_m_source_file_index>
60

> <r_mmod_Potential_Energy-OPLS-2005>
8.43135452270508

> <r_mmod_Stretch_Energy-OPLS-2005>
33.6324844360352

> <r_mmod_Bend_Energy-OPLS-2005>
96.8848114013672

> <r_mmod_Torsional_Energy-OPLS-2005>
333.091979980469

> <r_mmod_Improper_Torsional_Energy-OPLS-2005>
12.4942827224731

> <r_mmod_Van_der_Waal_Energy-OPLS-2005>
166.633819580078

> <r_mmod_Electrostatic_Energy-OPLS-2005>
-191.643463134766

> <r_mmod_Solvation_Energy-OPLS-2005>
-451.705535888672

> <b_mmod_Minimization_Converged-OPLS-2005>
0

> <r_mmod_RMS_Derivative-OPLS-2005>
2.48330688476562

$$$$
61
                    3D
 Structure written by MMmdl.
169178  0  0  1  0            999 V2000
  -30.7282  -14.5248   20.5579 C   0  0  0  0  0  0
  -30.4505  -12.3431   19.4297 C   0  0  0  0  0  0
  -29.5085  -12.5281   18.2197 C   0  0  0  0  0  0
  -28.0366  -12.3696   18.6405 C   0  0  0  0  0  0
  -27.6792  -13.2188   19.8874 C   0  0  2  0  0  0
  -28.7283  -13.0445   21.0130 C   0  0  0  0  0  0
  -25.2678  -13.8223   20.5727 C   0  0  0  0  0  0
  -24.1923  -13.0495   20.9122 C   0  0  0  0  0  0
  -24.6503  -11.6971   20.8728 C   0  0  0  0  0  0
  -23.9157  -10.4374   21.0387 C   0  0  0  0  0  0
  -24.3686   -9.4288   21.9169 C   0  0  0  0  0  0
  -23.6359   -8.2309   22.0725 C   0  0  0  0  0  0
  -22.4328   -8.0364   21.3521 C   0  0  0  0  0  0
  -21.9985   -9.0359   20.4600 C   0  0  0  0  0  0
  -22.7333  -10.2243   20.3033 C   0  0  0  0  0  0
  -21.6895   -6.0790   22.5282 C   0  0  0  0  0  0
  -21.4048   -6.5665   23.8216 C   0  0  0  0  0  0
  -21.3665   -5.6814   24.9172 C   0  0  0  0  0  0
  -21.6050   -4.3067   24.7231 C   0  0  0  0  0  0
  -21.8838   -3.8177   23.4345 C   0  0  0  0  0  0
  -21.9211   -4.7003   22.3413 C   0  0  0  0  0  0
  -22.7930  -13.5205   21.1886 C   0  0  0  0  0  0
  -22.1687   -4.2216   21.0985 F   0  0  0  0  0  0
  -21.5645   -3.4536   25.7720 F   0  0  0  0  0  0
  -30.0665  -13.3352   20.4512 N   0  0  0  0  0  0
  -26.3158  -12.9437   20.3442 N   0  0  0  0  0  0
  -25.9442  -11.6588   20.5766 N   0  0  0  0  0  0
  -22.0601  -12.8174   22.0413 N   0  0  0  0  0  0
  -25.4498  -15.1987   20.4298 N   0  0  0  0  0  0
  -31.8270  -14.7369   20.0372 O   0  0  0  0  0  0
  -21.6719   -6.8949   21.4222 O   0  0  0  0  0  0
  -22.3542  -14.5503   20.6743 O   0  0  0  0  0  0
  -24.6146  -31.8670   23.2092 C   0  0  0  0  0  0
  -25.9040  -32.4811   23.8394 C   0  0  1  0  0  0
  -27.2488  -27.4231   20.1103 C   0  0  0  0  0  0
  -25.5889  -33.8614   24.2334 N   0  0  0  0  0  0
  -23.4079  -30.4878   21.5470 C   0  0  2  0  0  0
  -24.8598  -28.9492   20.1224 C   0  0  0  0  0  0
  -22.7430  -29.4665   22.4986 C   0  0  0  0  0  0
  -18.0280  -28.1403   22.8523 C   0  0  0  0  0  0
  -24.1497  -36.7316   23.2645 C   0  0  0  0  0  0
  -25.9373  -30.8280   21.3720 C   0  0  0  0  0  0
  -26.0176  -29.4621   20.7200 C   0  0  0  0  0  0
  -27.2157  -28.7079   20.7033 C   0  0  0  0  0  0
  -26.0727  -26.9249   19.5083 C   0  0  0  0  0  0
  -24.8835  -27.6810   19.5109 C   0  0  0  0  0  0
  -23.6170  -29.8136   20.1636 C   0  0  0  0  0  0
  -25.4100  -36.3109   24.0340 C   0  0  1  0  0  0
  -20.5889  -28.3669   23.1312 C   0  0  2  0  0  0
  -20.6762  -26.9403   22.5435 C   0  0  0  0  0  0
  -19.5728  -26.6407   21.5245 C   0  0  0  0  0  0
  -18.1919  -26.7942   22.1663 C   0  0  0  0  0  0
  -19.1541  -28.8839   23.2916 C   0  0  0  0  0  0
  -18.9432  -30.1464   23.8905 C   0  0  0  0  0  0
  -17.6429  -30.6561   24.0564 C   0  0  0  0  0  0
  -25.9015  -34.9456   23.5151 C   0  0  0  0  0  0
  -16.5320  -29.9063   23.6349 C   0  0  0  0  0  0
  -16.7268  -28.6512   23.0305 C   0  0  0  0  0  0
  -26.4434  -31.6625   25.0760 C   0  0  0  0  0  0
  -25.3674  -31.3742   26.1497 C   0  0  0  0  0  0
  -27.0310  -30.3080   24.6198 C   0  0  0  0  0  0
  -27.6029  -32.4344   25.7490 C   0  0  0  0  0  0
  -27.5595  -37.1819   24.8461 C   0  0  0  0  0  0
  -21.4146  -29.3007   22.3686 N   0  0  0  0  0  0
  -26.4311  -37.3775   23.9409 N   0  0  0  0  0  0
  -24.6703  -31.0769   22.0996 N   0  0  0  0  0  0
  -23.4195  -28.8269   23.3067 O   0  0  0  0  0  0
  -28.4163  -26.6825   20.0857 O   0  0  0  0  0  0
  -26.5564  -34.8904   22.4694 O   0  0  0  0  0  0
  -23.5332  -32.1406   23.7479 O   0  0  0  0  0  0
  -30.6575  -20.2190   20.3586 C   0  0  0  0  0  0
  -28.0182  -20.8518   19.9600 C   0  0  0  0  0  0
  -29.7755  -19.1812   19.9720 C   0  0  0  0  0  0
  -28.5049  -19.5955   19.5066 C   0  0  0  0  0  0
  -28.9813  -21.8254   20.3031 C   0  0  0  0  0  0
  -25.2705  -20.7550   20.0211 C   0  0  0  0  0  0
  -25.7219  -22.1536   20.3826 C   0  0  0  0  0  0
  -26.6531  -20.9931   20.6095 C   0  0  0  0  0  0
  -29.1492  -19.2459   17.1010 C   0  0  0  0  0  0
  -26.7254  -19.4690   17.6031 C   0  0  0  0  0  0
  -30.1847  -17.6858   19.8987 C   0  0  0  0  0  0
  -30.3727  -16.9478   21.2507 C   0  0  0  0  0  0
  -28.3883  -25.4561   20.8444 C   0  0  0  0  0  0
  -29.1334  -24.2580   20.1995 C   0  0  0  0  0  0
  -28.0573  -18.9857   18.1643 C   0  0  0  0  0  0
  -30.2987  -21.5294   20.4107 N   0  0  0  0  0  0
  -30.0558  -15.5085   21.1822 N   0  0  0  0  0  0
  -28.5612  -23.0627   20.7498 O   0  0  0  0  0  0
  -31.4889  -12.4534   19.1033 H   0  0  0  0  0  0
  -30.3740  -11.3323   19.8391 H   0  0  0  0  0  0
  -29.7608  -11.8292   17.4206 H   0  0  0  0  0  0
  -29.6624  -13.5221   17.7984 H   0  0  0  0  0  0
  -27.8505  -11.3129   18.8434 H   0  0  0  0  0  0
  -27.3841  -12.6477   17.8136 H   0  0  0  0  0  0
  -27.7169  -14.2690   19.5874 H   0  0  0  0  0  0
  -28.7015  -12.0397   21.4393 H   0  0  0  0  0  0
  -28.4642  -13.7105   21.8345 H   0  0  0  0  0  0
  -25.2827   -9.5829   22.4734 H   0  0  0  0  0  0
  -24.0140   -7.4726   22.7440 H   0  0  0  0  0  0
  -21.0936   -8.8906   19.8898 H   0  0  0  0  0  0
  -22.3784  -10.9834   19.6172 H   0  0  0  0  0  0
  -21.2047   -7.6176   23.9727 H   0  0  0  0  0  0
  -21.1429   -6.0531   25.9072 H   0  0  0  0  0  0
  -22.0578   -2.7633   23.2829 H   0  0  0  0  0  0
  -22.4187  -11.9740   22.4739 H   0  0  0  0  0  0
  -21.1199  -13.1232   22.2587 H   0  0  0  0  0  0
  -24.6850  -15.8553   20.5353 H   0  0  0  0  0  0
  -26.3120  -15.6451   20.1470 H   0  0  0  0  0  0
  -26.7125  -32.5509   23.1161 H   0  0  0  0  0  0
  -25.0026  -33.9762   25.0473 H   0  0  0  0  0  0
  -22.6987  -31.3041   21.4067 H   0  0  0  0  0  0
  -23.3768  -35.9663   23.3321 H   0  0  0  0  0  0
  -24.3584  -36.8904   22.2071 H   0  0  0  0  0  0
  -23.7270  -37.6528   23.6631 H   0  0  0  0  0  0
  -26.0664  -31.6012   20.6131 H   0  0  0  0  0  0
  -26.8171  -30.8669   22.0014 H   0  0  0  0  0  0
  -28.1145  -29.1039   21.1557 H   0  0  0  0  0  0
  -26.0757  -25.9506   19.0406 H   0  0  0  0  0  0
  -23.9943  -27.2776   19.0483 H   0  0  0  0  0  0
  -23.7201  -30.5882   19.3999 H   0  0  0  0  0  0
  -22.7435  -29.2257   19.8770 H   0  0  0  0  0  0
  -25.1312  -36.1969   25.0844 H   0  0  0  0  0  0
  -21.0007  -28.3221   24.1422 H   0  0  0  0  0  0
  -20.5697  -26.2264   23.3634 H   0  0  0  0  0  0
  -21.6598  -26.7445   22.1175 H   0  0  0  0  0  0
  -19.6828  -25.6333   21.1205 H   0  0  0  0  0  0
  -19.6659  -27.3269   20.6831 H   0  0  0  0  0  0
  -17.4185  -26.6749   21.4069 H   0  0  0  0  0  0
  -18.0238  -26.0063   22.9057 H   0  0  0  0  0  0
  -19.7852  -30.7340   24.2251 H   0  0  0  0  0  0
  -17.4937  -31.6251   24.5169 H   0  0  0  0  0  0
  -15.5311  -30.2927   23.7601 H   0  0  0  0  0  0
  -15.8726  -28.0805   22.6913 H   0  0  0  0  0  0
  -24.5790  -30.7166   25.7818 H   0  0  0  0  0  0
  -24.8914  -32.2914   26.5008 H   0  0  0  0  0  0
  -25.7961  -30.8842   27.0248 H   0  0  0  0  0  0
  -26.2907  -29.6819   24.1207 H   0  0  0  0  0  0
  -27.4055  -29.7337   25.4688 H   0  0  0  0  0  0
  -27.8741  -30.4470   23.9406 H   0  0  0  0  0  0
  -27.2671  -33.3614   26.2143 H   0  0  0  0  0  0
  -28.3746  -32.6948   25.0238 H   0  0  0  0  0  0
  -28.0784  -31.8430   26.5324 H   0  0  0  0  0  0
  -28.2617  -38.0112   24.7482 H   0  0  0  0  0  0
  -28.1081  -36.2642   24.6313 H   0  0  0  0  0  0
  -27.2296  -37.1482   25.8855 H   0  0  0  0  0  0
  -20.9281  -29.8630   21.6868 H   0  0  0  0  0  0
  -26.0214  -38.2873   24.1352 H   0  0  0  0  0  0
  -31.6869  -20.0034   20.5988 H   0  0  0  0  0  0
  -25.0154  -20.7033   18.9697 H   0  0  0  0  0  0
  -24.5902  -20.2060   20.6723 H   0  0  0  0  0  0
  -25.2469  -22.6168   21.2421 H   0  0  0  0  0  0
  -25.9350  -22.8199   19.5477 H   0  0  0  0  0  0
  -26.7789  -20.7097   21.6556 H   0  0  0  0  0  0
  -29.3343  -20.3201   17.0098 H   0  0  0  0  0  0
  -28.8599  -18.8777   16.1176 H   0  0  0  0  0  0
  -30.0947  -18.7548   17.3409 H   0  0  0  0  0  0
  -25.9056  -18.9898   18.1313 H   0  0  0  0  0  0
  -26.6084  -19.1843   16.5572 H   0  0  0  0  0  0
  -26.6489  -20.5532   17.6488 H   0  0  0  0  0  0
  -31.0763  -17.5542   19.2819 H   0  0  0  0  0  0
  -29.4034  -17.1358   19.3878 H   0  0  0  0  0  0
  -29.6755  -17.3619   21.9845 H   0  0  0  0  0  0
  -31.3773  -17.1041   21.6402 H   0  0  0  0  0  0
  -28.8189  -25.6456   21.8303 H   0  0  0  0  0  0
  -27.3539  -25.1572   21.0331 H   0  0  0  0  0  0
  -30.2117  -24.3235   20.3708 H   0  0  0  0  0  0
  -28.9740  -24.2524   19.1206 H   0  0  0  0  0  0
  -27.9314  -17.9132   18.2791 H   0  0  0  0  0  0
  -29.1698  -15.2427   21.5847 H   0  0  0  0  0  0
  1 25  1  0  0  0
  1 30  2  0  0  0
  1 87  1  0  0  0
  2  3  1  0  0  0
  2 25  1  0  0  0
  2 89  1  0  0  0
  2 90  1  0  0  0
  3  4  1  0  0  0
  3 91  1  0  0  0
  3 92  1  0  0  0
  4  5  1  0  0  0
  4 93  1  0  0  0
  4 94  1  0  0  0
  5  6  1  0  0  0
  5 26  1  0  0  0
  5 95  1  0  0  0
  6 25  1  0  0  0
  6 96  1  0  0  0
  6 97  1  0  0  0
  7  8  2  0  0  0
  7 26  1  0  0  0
  7 29  1  0  0  0
  8  9  1  0  0  0
  8 22  1  0  0  0
  9 10  1  0  0  0
  9 27  2  0  0  0
 10 11  2  0  0  0
 10 15  1  0  0  0
 11 12  1  0  0  0
 11 98  1  0  0  0
 12 13  2  0  0  0
 12 99  1  0  0  0
 13 14  1  0  0  0
 13 31  1  0  0  0
 14 15  2  0  0  0
 14100  1  0  0  0
 15101  1  0  0  0
 16 17  2  0  0  0
 16 21  1  0  0  0
 16 31  1  0  0  0
 17 18  1  0  0  0
 17102  1  0  0  0
 18 19  2  0  0  0
 18103  1  0  0  0
 19 20  1  0  0  0
 19 24  1  0  0  0
 20 21  2  0  0  0
 20104  1  0  0  0
 21 23  1  0  0  0
 22 28  1  0  0  0
 22 32  2  0  0  0
 26 27  1  0  0  0
 28105  1  0  0  0
 28106  1  0  0  0
 29107  1  0  0  0
 29108  1  0  0  0
 33 34  1  0  0  0
 33 66  1  0  0  0
 33 70  2  0  0  0
 34 36  1  0  0  0
 34 59  1  0  0  0
 34109  1  0  0  0
 35 44  2  0  0  0
 35 45  1  0  0  0
 35 68  1  0  0  0
 36 56  1  0  0  0
 36110  1  0  0  0
 37 39  1  0  0  0
 37 47  1  0  0  0
 37 66  1  0  0  0
 37111  1  0  0  0
 38 43  2  0  0  0
 38 46  1  0  0  0
 38 47  1  0  0  0
 39 64  1  0  0  0
 39 67  2  0  0  0
 40 52  1  0  0  0
 40 53  2  0  0  0
 40 58  1  0  0  0
 41112  1  0  0  0
 41113  1  0  0  0
 41114  1  0  0  0
 41 48  1  0  0  0
 42 43  1  0  0  0
 42 66  1  0  0  0
 42115  1  0  0  0
 42116  1  0  0  0
 43 44  1  0  0  0
 44117  1  0  0  0
 45 46  2  0  0  0
 45118  1  0  0  0
 46119  1  0  0  0
 47120  1  0  0  0
 47121  1  0  0  0
 48 56  1  0  0  0
 48 65  1  0  0  0
 48122  1  0  0  0
 49 50  1  0  0  0
 49 53  1  0  0  0
 49 64  1  0  0  0
 49123  1  0  0  0
 50 51  1  0  0  0
 50124  1  0  0  0
 50125  1  0  0  0
 51 52  1  0  0  0
 51126  1  0  0  0
 51127  1  0  0  0
 52128  1  0  0  0
 52129  1  0  0  0
 53 54  1  0  0  0
 54 55  2  0  0  0
 54130  1  0  0  0
 55 57  1  0  0  0
 55131  1  0  0  0
 56 69  2  0  0  0
 57 58  2  0  0  0
 57132  1  0  0  0
 58133  1  0  0  0
 59 60  1  0  0  0
 59 61  1  0  0  0
 59 62  1  0  0  0
 60134  1  0  0  0
 60135  1  0  0  0
 60136  1  0  0  0
 61137  1  0  0  0
 61138  1  0  0  0
 61139  1  0  0  0
 62140  1  0  0  0
 62141  1  0  0  0
 62142  1  0  0  0
 63 65  1  0  0  0
 63143  1  0  0  0
 63144  1  0  0  0
 63145  1  0  0  0
 64146  1  0  0  0
 65147  1  0  0  0
 68 83  1  0  0  0
 71 73  2  0  0  0
 71 86  1  0  0  0
 71148  1  0  0  0
 72 74  2  0  0  0
 72 75  1  0  0  0
 72 78  1  0  0  0
 73 74  1  0  0  0
 73 81  1  0  0  0
 74 85  1  0  0  0
 75 86  2  0  0  0
 75 88  1  0  0  0
 76 77  1  0  0  0
 76 78  1  0  0  0
 76149  1  0  0  0
 76150  1  0  0  0
 77 78  1  0  0  0
 77151  1  0  0  0
 77152  1  0  0  0
 78153  1  0  0  0
 79154  1  0  0  0
 79155  1  0  0  0
 79156  1  0  0  0
 79 85  1  0  0  0
 80 85  1  0  0  0
 80157  1  0  0  0
 80158  1  0  0  0
 80159  1  0  0  0
 81 82  1  0  0  0
 81160  1  0  0  0
 81161  1  0  0  0
 82 87  1  0  0  0
 82162  1  0  0  0
 82163  1  0  0  0
 83 84  1  0  0  0
 83164  1  0  0  0
 83165  1  0  0  0
 84 88  1  0  0  0
 84166  1  0  0  0
 84167  1  0  0  0
 85168  1  0  0  0
 87169  1  0  0  0
M  ISO  4   1 100  68 101  83 101  87 100
M  END
> <chiral flag>
0

> <version>
0

> <s_m_source_file>
/data/baiqing/PycharmProjects/Reinvent-master-3.2/result/LINK_invent/BTK/process_docking_weight1_custom_sum_contain_oxygen_bond_distance_aromatic_linkinvent_7_9_3/rearranged_h_0144.sdf

> <i_m_source_file_index>
61

> <r_mmod_Potential_Energy-OPLS-2005>
-34.499870300293

> <r_mmod_Stretch_Energy-OPLS-2005>
46.005313873291

> <r_mmod_Bend_Energy-OPLS-2005>
135.557357788086

> <r_mmod_Torsional_Energy-OPLS-2005>
405.693389892578

> <r_mmod_Improper_Torsional_Energy-OPLS-2005>
16.6888809204102

> <r_mmod_Van_der_Waal_Energy-OPLS-2005>
163.671585083008

> <r_mmod_Electrostatic_Energy-OPLS-2005>
-605.140441894531

> <r_mmod_Solvation_Energy-OPLS-2005>
-214.583709716797

> <b_mmod_Minimization_Converged-OPLS-2005>
0

> <r_mmod_RMS_Derivative-OPLS-2005>
8.83925628662109

$$$$
62
                    3D
 Structure written by MMmdl.
176185  0  0  1  0            999 V2000
  -30.7341  -14.3726   20.6683 C   0  0  0  0  0  0
  -30.4235  -12.2853   19.3936 C   0  0  0  0  0  0
  -29.4878  -12.5240   18.1921 C   0  0  0  0  0  0
  -28.0103  -12.3796   18.6058 C   0  0  0  0  0  0
  -27.6686  -13.1933   19.8810 C   0  0  2  0  0  0
  -28.7044  -12.9153   20.9938 C   0  0  0  0  0  0
  -25.2636  -13.8139   20.5648 C   0  0  0  0  0  0
  -24.1884  -13.0450   20.9229 C   0  0  0  0  0  0
  -24.6396  -11.6901   20.8761 C   0  0  0  0  0  0
  -23.9045  -10.4297   21.0419 C   0  0  0  0  0  0
  -24.3603   -9.4208   21.9187 C   0  0  0  0  0  0
  -23.6286   -8.2240   22.0752 C   0  0  0  0  0  0
  -22.4270   -8.0278   21.3539 C   0  0  0  0  0  0
  -21.9899   -9.0255   20.4646 C   0  0  0  0  0  0
  -22.7221  -10.2140   20.3064 C   0  0  0  0  0  0
  -21.6853   -6.0733   22.5274 C   0  0  0  0  0  0
  -21.4013   -6.5636   23.8208 C   0  0  0  0  0  0
  -21.3657   -5.6791   24.9170 C   0  0  0  0  0  0
  -21.6047   -4.3054   24.7224 C   0  0  0  0  0  0
  -21.8818   -3.8142   23.4344 C   0  0  0  0  0  0
  -21.9194   -4.6960   22.3400 C   0  0  0  0  0  0
  -22.7909  -13.5268   21.1864 C   0  0  0  0  0  0
  -22.1663   -4.2146   21.0979 F   0  0  0  0  0  0
  -21.5630   -3.4537   25.7736 F   0  0  0  0  0  0
  -30.0478  -13.2202   20.4629 N   0  0  0  0  0  0
  -26.3045  -12.9276   20.3335 N   0  0  0  0  0  0
  -25.9306  -11.6456   20.5744 N   0  0  0  0  0  0
  -22.0506  -12.8269   22.0391 N   0  0  0  0  0  0
  -25.4407  -15.1839   20.3857 N   0  0  0  0  0  0
  -31.7619  -14.6745   20.0541 O   0  0  0  0  0  0
  -21.6637   -6.8872   21.4234 O   0  0  0  0  0  0
  -22.3640  -14.5587   20.6695 O   0  0  0  0  0  0
  -24.6089  -31.8709   23.2128 C   0  0  0  0  0  0
  -25.8997  -32.4843   23.8420 C   0  0  1  0  0  0
  -27.2391  -27.4670   20.0951 C   0  0  0  0  0  0
  -25.5874  -33.8644   24.2355 N   0  0  0  0  0  0
  -23.3950  -30.4924   21.5535 C   0  0  2  0  0  0
  -24.8452  -28.9583   20.1180 C   0  0  0  0  0  0
  -22.7380  -29.4648   22.5021 C   0  0  0  0  0  0
  -18.0251  -28.1354   22.8512 C   0  0  0  0  0  0
  -24.1481  -36.7330   23.2635 C   0  0  0  0  0  0
  -25.9191  -30.8432   21.3628 C   0  0  0  0  0  0
  -25.9992  -29.4765   20.7202 C   0  0  0  0  0  0
  -27.1998  -28.7351   20.7134 C   0  0  0  0  0  0
  -26.0774  -26.9567   19.4859 C   0  0  0  0  0  0
  -24.8777  -27.6948   19.4999 C   0  0  0  0  0  0
  -23.6040  -29.8206   20.1678 C   0  0  0  0  0  0
  -25.4098  -36.3130   24.0345 C   0  0  1  0  0  0
  -20.5837  -28.3631   23.1347 C   0  0  2  0  0  0
  -20.6726  -26.9375   22.5422 C   0  0  0  0  0  0
  -19.5699  -26.6363   21.5216 C   0  0  0  0  0  0
  -18.1886  -26.7905   22.1640 C   0  0  0  0  0  0
  -19.1501  -28.8815   23.2928 C   0  0  0  0  0  0
  -18.9434  -30.1427   23.8927 C   0  0  0  0  0  0
  -17.6436  -30.6568   24.0570 C   0  0  0  0  0  0
  -25.9018  -34.9489   23.5147 C   0  0  0  0  0  0
  -16.5324  -29.9073   23.6322 C   0  0  0  0  0  0
  -16.7247  -28.6487   23.0358 C   0  0  0  0  0  0
  -26.4441  -31.6602   25.0728 C   0  0  0  0  0  0
  -25.3719  -31.3695   26.1495 C   0  0  0  0  0  0
  -27.0266  -30.3052   24.6054 C   0  0  0  0  0  0
  -27.6035  -32.4310   25.7469 C   0  0  0  0  0  0
  -27.5580  -37.1821   24.8462 C   0  0  0  0  0  0
  -21.4109  -29.3025   22.3786 N   0  0  0  0  0  0
  -26.4286  -37.3816   23.9415 N   0  0  0  0  0  0
  -24.6586  -31.0835   22.1017 N   0  0  0  0  0  0
  -23.4183  -28.8176   23.3023 O   0  0  0  0  0  0
  -28.3990  -26.7381   20.0241 O   0  0  0  0  0  0
  -26.5582  -34.8932   22.4706 O   0  0  0  0  0  0
  -23.5291  -32.1441   23.7550 O   0  0  0  0  0  0
  -27.3679  -20.6219   21.3348 C   0  0  0  0  0  0
  -27.6886  -21.9905   21.4037 C   0  0  0  0  0  0
  -28.7725  -20.4000   19.3645 C   0  0  0  0  0  0
  -27.9125  -19.8179   20.3152 C   0  0  0  0  0  0
  -29.1064  -21.7715   19.4261 C   0  0  0  0  0  0
  -28.5663  -22.5827   20.4596 C   0  0  0  0  0  0
  -29.6918  -23.6768   16.1322 C   0  0  0  0  0  0
  -28.3242  -23.3950   16.7062 C   0  0  0  0  0  0
  -29.5144  -23.5328   17.6274 C   0  0  0  0  0  0
  -31.4637  -22.5900   18.9519 C   0  0  0  0  0  0
  -30.4900  -16.8334   23.3817 C   0  0  0  0  0  0
  -27.5840  -18.3314   20.2434 C   0  0  0  0  0  0
  -29.8557  -17.5963   21.0110 C   0  0  0  0  0  0
  -28.8625  -26.1991   21.2611 C   0  0  0  0  0  0
  -28.3203  -24.7737   21.4598 C   0  0  0  0  0  0
  -30.0688  -22.3237   18.3704 C   0  0  2  0  0  0
  -30.6171  -16.5607   21.8733 C   0  0  2  0  0  0
  -30.1847  -15.1933   21.5750 N   0  0  0  0  0  0
  -28.3858  -17.5233   21.1873 N   0  3  0  0  0  0
  -28.9345  -23.9109   20.5063 O   0  0  0  0  0  0
  -31.4661  -12.3971   19.0893 H   0  0  0  0  0  0
  -30.3306  -11.2586   19.7512 H   0  0  0  0  0  0
  -29.7207  -11.8236   17.3890 H   0  0  0  0  0  0
  -29.6591  -13.5217   17.7852 H   0  0  0  0  0  0
  -27.8143  -11.3203   18.7786 H   0  0  0  0  0  0
  -27.3591  -12.6784   17.7832 H   0  0  0  0  0  0
  -27.7343  -14.2490   19.6184 H   0  0  0  0  0  0
  -28.6682  -11.8638   21.2837 H   0  0  0  0  0  0
  -28.4496  -13.4640   21.9006 H   0  0  0  0  0  0
  -25.2748   -9.5686   22.4756 H   0  0  0  0  0  0
  -24.0001   -7.4628   22.7466 H   0  0  0  0  0  0
  -21.0830   -8.8764   19.8953 H   0  0  0  0  0  0
  -22.3669  -10.9677   19.6176 H   0  0  0  0  0  0
  -21.2001   -7.6143   23.9709 H   0  0  0  0  0  0
  -21.1483   -6.0520   25.9075 H   0  0  0  0  0  0
  -22.0601   -2.7604   23.2843 H   0  0  0  0  0  0
  -22.4091  -11.9919   22.4783 H   0  0  0  0  0  0
  -21.1122  -13.1309   22.2568 H   0  0  0  0  0  0
  -24.5781  -15.7180   20.3610 H   0  0  0  0  0  0
  -26.0470  -15.4362   19.6167 H   0  0  0  0  0  0
  -26.7073  -32.5572   23.1198 H   0  0  0  0  0  0
  -25.0050  -33.9819   25.0518 H   0  0  0  0  0  0
  -22.6802  -31.3072   21.4155 H   0  0  0  0  0  0
  -23.3738  -35.9666   23.3301 H   0  0  0  0  0  0
  -24.3577  -36.8934   22.2047 H   0  0  0  0  0  0
  -23.7232  -37.6538   23.6644 H   0  0  0  0  0  0
  -26.0181  -31.6043   20.5873 H   0  0  0  0  0  0
  -26.8117  -30.9050   21.9736 H   0  0  0  0  0  0
  -28.0938  -29.1395   21.1677 H   0  0  0  0  0  0
  -26.1056  -25.9914   18.9997 H   0  0  0  0  0  0
  -23.9930  -27.2937   19.0250 H   0  0  0  0  0  0
  -23.7064  -30.5930   19.4053 H   0  0  0  0  0  0
  -22.7310  -29.2333   19.8775 H   0  0  0  0  0  0
  -25.1269  -36.2010   25.0841 H   0  0  0  0  0  0
  -20.9927  -28.3173   24.1467 H   0  0  0  0  0  0
  -20.5583  -26.2244   23.3604 H   0  0  0  0  0  0
  -21.6603  -26.7381   22.1241 H   0  0  0  0  0  0
  -19.6835  -25.6277   21.1232 H   0  0  0  0  0  0
  -19.6632  -27.3187   20.6761 H   0  0  0  0  0  0
  -17.4151  -26.6681   21.4041 H   0  0  0  0  0  0
  -18.0282  -26.0024   22.9019 H   0  0  0  0  0  0
  -19.7911  -30.7238   24.2304 H   0  0  0  0  0  0
  -17.4991  -31.6256   24.5160 H   0  0  0  0  0  0
  -15.5329  -30.2988   23.7609 H   0  0  0  0  0  0
  -15.8650  -28.0808   22.7060 H   0  0  0  0  0  0
  -24.5878  -30.7054   25.7835 H   0  0  0  0  0  0
  -24.8923  -32.2854   26.4975 H   0  0  0  0  0  0
  -25.8083  -30.8843   27.0239 H   0  0  0  0  0  0
  -26.2797  -29.6829   24.1103 H   0  0  0  0  0  0
  -27.4055  -29.7269   25.4494 H   0  0  0  0  0  0
  -27.8630  -30.4391   23.9178 H   0  0  0  0  0  0
  -27.2663  -33.3604   26.2074 H   0  0  0  0  0  0
  -28.3814  -32.6877   25.0263 H   0  0  0  0  0  0
  -28.0728  -31.8412   26.5355 H   0  0  0  0  0  0
  -28.2606  -38.0113   24.7527 H   0  0  0  0  0  0
  -28.1072  -36.2657   24.6268 H   0  0  0  0  0  0
  -27.2309  -37.1441   25.8865 H   0  0  0  0  0  0
  -20.9239  -29.8848   21.7115 H   0  0  0  0  0  0
  -26.0183  -38.2893   24.1434 H   0  0  0  0  0  0
  -26.6992  -20.1957   22.0708 H   0  0  0  0  0  0
  -27.2472  -22.5648   22.2045 H   0  0  0  0  0  0
  -29.1880  -19.7824   18.5802 H   0  0  0  0  0  0
  -29.8779  -24.6758   15.7426 H   0  0  0  0  0  0
  -30.1849  -22.8706   15.5919 H   0  0  0  0  0  0
  -27.9090  -22.3988   16.5673 H   0  0  0  0  0  0
  -27.5980  -24.2063   16.7058 H   0  0  0  0  0  0
  -29.5541  -24.4605   18.1953 H   0  0  0  0  0  0
  -31.4371  -23.3597   19.7229 H   0  0  0  0  0  0
  -32.1564  -22.9193   18.1764 H   0  0  0  0  0  0
  -31.8751  -21.6859   19.4017 H   0  0  0  0  0  0
  -30.8099  -17.8472   23.6253 H   0  0  0  0  0  0
  -31.1188  -16.1518   23.9556 H   0  0  0  0  0  0
  -29.4672  -16.7132   23.7395 H   0  0  0  0  0  0
  -27.7313  -17.9654   19.2258 H   0  0  0  0  0  0
  -26.5253  -18.1895   20.4642 H   0  0  0  0  0  0
  -30.0952  -17.4309   19.9588 H   0  0  0  0  0  0
  -30.2075  -18.6015   21.2493 H   0  0  0  0  0  0
  -29.9534  -26.1856   21.2541 H   0  0  0  0  0  0
  -28.5694  -26.8238   22.1074 H   0  0  0  0  0  0
  -27.2340  -24.7640   21.3603 H   0  0  0  0  0  0
  -28.5678  -24.4349   22.4673 H   0  0  0  0  0  0
  -30.1985  -21.5428   17.6205 H   0  0  0  0  0  0
  -31.6778  -16.6589   21.6305 H   0  0  0  0  0  0
  -29.4163  -14.8062   22.1028 H   0  0  0  0  0  0
  -28.0929  -16.5668   21.0855 H   0  0  0  0  0  0
  -28.1509  -17.8148   22.1219 H   0  0  0  0  0  0
  1 25  1  0  0  0
  1 30  2  0  0  0
  1 88  1  0  0  0
  2  3  1  0  0  0
  2 25  1  0  0  0
  2 91  1  0  0  0
  2 92  1  0  0  0
  3  4  1  0  0  0
  3 93  1  0  0  0
  3 94  1  0  0  0
  4  5  1  0  0  0
  4 95  1  0  0  0
  4 96  1  0  0  0
  5  6  1  0  0  0
  5 26  1  0  0  0
  5 97  1  0  0  0
  6 25  1  0  0  0
  6 98  1  0  0  0
  6 99  1  0  0  0
  7  8  2  0  0  0
  7 26  1  0  0  0
  7 29  1  0  0  0
  8  9  1  0  0  0
  8 22  1  0  0  0
  9 10  1  0  0  0
  9 27  2  0  0  0
 10 11  2  0  0  0
 10 15  1  0  0  0
 11 12  1  0  0  0
 11100  1  0  0  0
 12 13  2  0  0  0
 12101  1  0  0  0
 13 14  1  0  0  0
 13 31  1  0  0  0
 14 15  2  0  0  0
 14102  1  0  0  0
 15103  1  0  0  0
 16 17  2  0  0  0
 16 21  1  0  0  0
 16 31  1  0  0  0
 17 18  1  0  0  0
 17104  1  0  0  0
 18 19  2  0  0  0
 18105  1  0  0  0
 19 20  1  0  0  0
 19 24  1  0  0  0
 20 21  2  0  0  0
 20106  1  0  0  0
 21 23  1  0  0  0
 22 28  1  0  0  0
 22 32  2  0  0  0
 26 27  1  0  0  0
 28107  1  0  0  0
 28108  1  0  0  0
 29109  1  0  0  0
 29110  1  0  0  0
 33 34  1  0  0  0
 33 66  1  0  0  0
 33 70  2  0  0  0
 34 36  1  0  0  0
 34 59  1  0  0  0
 34111  1  0  0  0
 35 44  2  0  0  0
 35 45  1  0  0  0
 35 68  1  0  0  0
 36 56  1  0  0  0
 36112  1  0  0  0
 37 39  1  0  0  0
 37 47  1  0  0  0
 37 66  1  0  0  0
 37113  1  0  0  0
 38 43  2  0  0  0
 38 46  1  0  0  0
 38 47  1  0  0  0
 39 64  1  0  0  0
 39 67  2  0  0  0
 40 52  1  0  0  0
 40 53  2  0  0  0
 40 58  1  0  0  0
 41114  1  0  0  0
 41115  1  0  0  0
 41116  1  0  0  0
 41 48  1  0  0  0
 42 43  1  0  0  0
 42 66  1  0  0  0
 42117  1  0  0  0
 42118  1  0  0  0
 43 44  1  0  0  0
 44119  1  0  0  0
 45 46  2  0  0  0
 45120  1  0  0  0
 46121  1  0  0  0
 47122  1  0  0  0
 47123  1  0  0  0
 48 56  1  0  0  0
 48 65  1  0  0  0
 48124  1  0  0  0
 49 50  1  0  0  0
 49 53  1  0  0  0
 49 64  1  0  0  0
 49125  1  0  0  0
 50 51  1  0  0  0
 50126  1  0  0  0
 50127  1  0  0  0
 51 52  1  0  0  0
 51128  1  0  0  0
 51129  1  0  0  0
 52130  1  0  0  0
 52131  1  0  0  0
 53 54  1  0  0  0
 54 55  2  0  0  0
 54132  1  0  0  0
 55 57  1  0  0  0
 55133  1  0  0  0
 56 69  2  0  0  0
 57 58  2  0  0  0
 57134  1  0  0  0
 58135  1  0  0  0
 59 60  1  0  0  0
 59 61  1  0  0  0
 59 62  1  0  0  0
 60136  1  0  0  0
 60137  1  0  0  0
 60138  1  0  0  0
 61139  1  0  0  0
 61140  1  0  0  0
 61141  1  0  0  0
 62142  1  0  0  0
 62143  1  0  0  0
 62144  1  0  0  0
 63 65  1  0  0  0
 63145  1  0  0  0
 63146  1  0  0  0
 63147  1  0  0  0
 64148  1  0  0  0
 65149  1  0  0  0
 68 84  1  0  0  0
 71 72  2  0  0  0
 71 74  1  0  0  0
 71150  1  0  0  0
 72 76  1  0  0  0
 72151  1  0  0  0
 73 74  2  0  0  0
 73 75  1  0  0  0
 73152  1  0  0  0
 74 82  1  0  0  0
 75 76  2  0  0  0
 75 86  1  0  0  0
 76 90  1  0  0  0
 77 78  1  0  0  0
 77153  1  0  0  0
 77154  1  0  0  0
 77 79  1  0  0  0
 78 79  1  0  0  0
 78155  1  0  0  0
 78156  1  0  0  0
 79 86  1  0  0  0
 79157  1  0  0  0
 80158  1  0  0  0
 80159  1  0  0  0
 80160  1  0  0  0
 80 86  1  0  0  0
 81161  1  0  0  0
 81162  1  0  0  0
 81163  1  0  0  0
 81 87  1  0  0  0
 82 89  1  0  0  0
 82164  1  0  0  0
 82165  1  0  0  0
 83 87  1  0  0  0
 83 89  1  0  0  0
 83166  1  0  0  0
 83167  1  0  0  0
 84 85  1  0  0  0
 84168  1  0  0  0
 84169  1  0  0  0
 85 90  1  0  0  0
 85170  1  0  0  0
 85171  1  0  0  0
 86172  1  0  0  0
 87 88  1  0  0  0
 87173  1  0  0  0
 88174  1  0  0  0
 89175  1  0  0  0
 89176  1  0  0  0
M  CHG  1  89   1
M  ISO  4   1 100  68 101  84 101  88 100
M  END
> <chiral flag>
0

> <version>
0

> <s_m_source_file>
/data/baiqing/PycharmProjects/Reinvent-master-3.2/result/LINK_invent/BTK/process_docking_weight1_custom_sum_contain_oxygen_bond_distance_aromatic_linkinvent_7_9_3/rearranged_h_0144.sdf

> <i_m_source_file_index>
62

> <r_mmod_Potential_Energy-OPLS-2005>
-258.704132080078

> <r_mmod_Stretch_Energy-OPLS-2005>
34.18994140625

> <r_mmod_Bend_Energy-OPLS-2005>
90.9790115356445

> <r_mmod_Torsional_Energy-OPLS-2005>
291.909118652344

> <r_mmod_Improper_Torsional_Energy-OPLS-2005>
6.92890357971191

> <r_mmod_Van_der_Waal_Energy-OPLS-2005>
142.097869873047

> <r_mmod_Electrostatic_Energy-OPLS-2005>
-369.633850097656

> <r_mmod_Solvation_Energy-OPLS-2005>
-461.451934814453

> <b_mmod_Minimization_Converged-OPLS-2005>
0

> <r_mmod_RMS_Derivative-OPLS-2005>
1.61793828010559

$$$$
63
                    3D
 Structure written by MMmdl.
167176  0  0  1  0            999 V2000
  -30.6946  -14.4670   20.5791 C   0  0  0  0  0  0
  -30.4231  -12.3046   19.4243 C   0  0  0  0  0  0
  -29.4965  -12.4977   18.2071 C   0  0  0  0  0  0
  -28.0181  -12.3577   18.6206 C   0  0  0  0  0  0
  -27.6610  -13.2029   19.8728 C   0  0  2  0  0  0
  -28.6995  -12.9868   20.9956 C   0  0  0  0  0  0
  -25.2590  -13.8147   20.5680 C   0  0  0  0  0  0
  -24.1847  -13.0447   20.9195 C   0  0  0  0  0  0
  -24.6388  -11.6903   20.8747 C   0  0  0  0  0  0
  -23.9049  -10.4307   21.0412 C   0  0  0  0  0  0
  -24.3602   -9.4220   21.9188 C   0  0  0  0  0  0
  -23.6289   -8.2249   22.0749 C   0  0  0  0  0  0
  -22.4272   -8.0287   21.3535 C   0  0  0  0  0  0
  -21.9906   -9.0257   20.4637 C   0  0  0  0  0  0
  -22.7223  -10.2148   20.3058 C   0  0  0  0  0  0
  -21.6856   -6.0744   22.5285 C   0  0  0  0  0  0
  -21.4013   -6.5643   23.8220 C   0  0  0  0  0  0
  -21.3657   -5.6792   24.9180 C   0  0  0  0  0  0
  -21.6045   -4.3053   24.7228 C   0  0  0  0  0  0
  -21.8819   -3.8153   23.4345 C   0  0  0  0  0  0
  -21.9194   -4.6973   22.3406 C   0  0  0  0  0  0
  -22.7870  -13.5253   21.1875 C   0  0  0  0  0  0
  -22.1664   -4.2162   21.0979 F   0  0  0  0  0  0
  -21.5628   -3.4536   25.7736 F   0  0  0  0  0  0
  -30.0289  -13.2898   20.4424 N   0  0  0  0  0  0
  -26.3014  -12.9319   20.3346 N   0  0  0  0  0  0
  -25.9308  -11.6485   20.5751 N   0  0  0  0  0  0
  -22.0487  -12.8244   22.0414 N   0  0  0  0  0  0
  -25.4316  -15.1874   20.4082 N   0  0  0  0  0  0
  -31.8193  -14.6566   20.1055 O   0  0  0  0  0  0
  -21.6634   -6.8884   21.4242 O   0  0  0  0  0  0
  -22.3567  -14.5572   20.6743 O   0  0  0  0  0  0
  -24.6173  -31.8692   23.2094 C   0  0  0  0  0  0
  -25.9060  -32.4830   23.8405 C   0  0  1  0  0  0
  -27.2384  -27.4513   20.0571 C   0  0  0  0  0  0
  -25.5940  -33.8624   24.2373 N   0  0  0  0  0  0
  -23.4034  -30.4970   21.5471 C   0  0  2  0  0  0
  -24.8455  -28.9508   20.1301 C   0  0  0  0  0  0
  -22.7382  -29.4709   22.4949 C   0  0  0  0  0  0
  -18.0272  -28.1344   22.8455 C   0  0  0  0  0  0
  -24.1502  -36.7326   23.2653 C   0  0  0  0  0  0
  -25.9355  -30.8319   21.3655 C   0  0  0  0  0  0
  -26.0094  -29.4641   20.7169 C   0  0  0  0  0  0
  -27.2066  -28.7124   20.6929 C   0  0  0  0  0  0
  -26.0433  -26.9354   19.5018 C   0  0  0  0  0  0
  -24.8509  -27.6753   19.5429 C   0  0  0  0  0  0
  -23.6158  -29.8262   20.1648 C   0  0  0  0  0  0
  -25.4110  -36.3138   24.0396 C   0  0  1  0  0  0
  -20.5861  -28.3656   23.1276 C   0  0  2  0  0  0
  -20.6764  -26.9385   22.5395 C   0  0  0  0  0  0
  -19.5744  -26.6355   21.5197 C   0  0  0  0  0  0
  -18.1912  -26.7882   22.1601 C   0  0  0  0  0  0
  -19.1525  -28.8804   23.2868 C   0  0  0  0  0  0
  -18.9478  -30.1396   23.8894 C   0  0  0  0  0  0
  -17.6490  -30.6543   24.0566 C   0  0  0  0  0  0
  -25.9041  -34.9498   23.5179 C   0  0  0  0  0  0
  -16.5368  -29.9067   23.6314 C   0  0  0  0  0  0
  -16.7275  -28.6491   23.0319 C   0  0  0  0  0  0
  -26.4494  -31.6598   25.0718 C   0  0  0  0  0  0
  -25.3782  -31.3745   26.1488 C   0  0  0  0  0  0
  -27.0348  -30.3049   24.6100 C   0  0  0  0  0  0
  -27.6041  -32.4320   25.7496 C   0  0  0  0  0  0
  -27.5593  -37.1828   24.8469 C   0  0  0  0  0  0
  -21.4102  -29.3083   22.3697 N   0  0  0  0  0  0
  -26.4310  -37.3805   23.9416 N   0  0  0  0  0  0
  -24.6698  -31.0809   22.0994 N   0  0  0  0  0  0
  -23.4130  -28.8223   23.2984 O   0  0  0  0  0  0
  -28.4253  -26.7554   19.9675 O   0  0  0  0  0  0
  -26.5563  -34.8956   22.4715 O   0  0  0  0  0  0
  -23.5369  -32.1454   23.7488 O   0  0  0  0  0  0
  -26.7332  -21.9756   20.0087 C   0  0  0  0  0  0
  -29.0163  -21.2628   20.3286 C   0  0  0  0  0  0
  -28.0766  -22.3167   20.2570 C   0  0  0  0  0  0
  -26.3908  -20.6241   19.8253 C   0  0  0  0  0  0
  -28.5768  -19.9359   20.1563 C   0  0  0  0  0  0
  -29.8936  -25.2784   18.6494 C   0  0  0  0  0  0
  -28.6763  -24.4325   19.0210 C   0  0  2  0  0  0
  -28.5508  -25.9299   18.8030 C   0  0  1  0  0  0
  -24.9767  -20.2259   19.4633 C   0  0  0  0  0  0
  -29.6543  -24.0140   21.3518 C   0  0  0  0  0  0
  -31.2020  -17.0483   22.5978 C   0  0  0  0  0  0
  -29.2522  -17.8652   21.1746 C   0  0  0  0  0  0
  -28.4695  -23.7905   20.3971 C   0  0  2  0  0  0
  -30.4375  -16.8647   21.2780 C   0  0  2  0  0  0
  -27.2936  -19.6229   19.9008 N   0  0  0  0  0  0
  -29.4884  -18.8794   20.1502 N   0  0  0  0  0  0
  -29.9968  -15.4670   21.1508 N   0  0  0  0  0  0
  -31.4686  -12.4063   19.1258 H   0  0  0  0  0  0
  -30.3263  -11.2943   19.8245 H   0  0  0  0  0  0
  -29.7377  -11.7672   17.4339 H   0  0  0  0  0  0
  -29.6665  -13.4788   17.7623 H   0  0  0  0  0  0
  -27.8350  -11.3028   18.8258 H   0  0  0  0  0  0
  -27.3674  -12.6229   17.7867 H   0  0  0  0  0  0
  -27.7058  -14.2493   19.5709 H   0  0  0  0  0  0
  -28.6765  -11.9542   21.3476 H   0  0  0  0  0  0
  -28.4595  -13.5942   21.8693 H   0  0  0  0  0  0
  -25.2746   -9.5714   22.4760 H   0  0  0  0  0  0
  -24.0014   -7.4643   22.7465 H   0  0  0  0  0  0
  -21.0846   -8.8773   19.8930 H   0  0  0  0  0  0
  -22.3678  -10.9691   19.6175 H   0  0  0  0  0  0
  -21.1999   -7.6150   23.9734 H   0  0  0  0  0  0
  -21.1478   -6.0513   25.9084 H   0  0  0  0  0  0
  -22.0596   -2.7616   23.2840 H   0  0  0  0  0  0
  -22.4069  -11.9895   22.4802 H   0  0  0  0  0  0
  -21.1100  -13.1283   22.2598 H   0  0  0  0  0  0
  -24.6628  -15.8407   20.5101 H   0  0  0  0  0  0
  -26.2812  -15.6263   20.0763 H   0  0  0  0  0  0
  -26.7114  -32.5557   23.1160 H   0  0  0  0  0  0
  -25.0205  -33.9761   25.0600 H   0  0  0  0  0  0
  -22.6984  -31.3188   21.3982 H   0  0  0  0  0  0
  -23.3779  -35.9643   23.3306 H   0  0  0  0  0  0
  -24.3631  -36.8910   22.2063 H   0  0  0  0  0  0
  -23.7228  -37.6549   23.6615 H   0  0  0  0  0  0
  -26.0531  -31.5959   20.5953 H   0  0  0  0  0  0
  -26.8234  -30.8820   21.9852 H   0  0  0  0  0  0
  -28.1123  -29.1054   21.1346 H   0  0  0  0  0  0
  -26.0174  -25.9642   19.0272 H   0  0  0  0  0  0
  -23.9499  -27.2526   19.1218 H   0  0  0  0  0  0
  -23.7474  -30.5969   19.4036 H   0  0  0  0  0  0
  -22.7361  -29.2582   19.8557 H   0  0  0  0  0  0
  -25.1264  -36.2066   25.0904 H   0  0  0  0  0  0
  -20.9979  -28.3243   24.1395 H   0  0  0  0  0  0
  -20.5688  -26.2280   23.3601 H   0  0  0  0  0  0
  -21.6630  -26.7444   22.1187 H   0  0  0  0  0  0
  -19.6947  -25.6290   21.1186 H   0  0  0  0  0  0
  -19.6661  -27.3200   20.6745 H   0  0  0  0  0  0
  -17.4194  -26.6638   21.3986 H   0  0  0  0  0  0
  -18.0296  -26.0025   22.9000 H   0  0  0  0  0  0
  -19.7994  -30.7160   24.2268 H   0  0  0  0  0  0
  -17.5095  -31.6234   24.5148 H   0  0  0  0  0  0
  -15.5382  -30.2985   23.7631 H   0  0  0  0  0  0
  -15.8676  -28.0828   22.6998 H   0  0  0  0  0  0
  -24.5917  -30.7105   25.7886 H   0  0  0  0  0  0
  -24.9022  -32.2922   26.4939 H   0  0  0  0  0  0
  -25.8170  -30.8936   27.0238 H   0  0  0  0  0  0
  -26.2904  -29.6767   24.1191 H   0  0  0  0  0  0
  -27.4171  -29.7315   25.4556 H   0  0  0  0  0  0
  -27.8701  -30.4372   23.9225 H   0  0  0  0  0  0
  -27.2618  -33.3592   26.2102 H   0  0  0  0  0  0
  -28.3851  -32.6923   25.0345 H   0  0  0  0  0  0
  -28.0705  -31.8437   26.5413 H   0  0  0  0  0  0
  -28.2618  -38.0116   24.7516 H   0  0  0  0  0  0
  -28.1078  -36.2652   24.6277 H   0  0  0  0  0  0
  -27.2307  -37.1456   25.8871 H   0  0  0  0  0  0
  -20.9240  -29.8916   21.7035 H   0  0  0  0  0  0
  -26.0240  -38.2925   24.1344 H   0  0  0  0  0  0
  -25.9754  -22.7434   19.9265 H   0  0  0  0  0  0
  -30.0638  -21.4699   20.4864 H   0  0  0  0  0  0
  -30.2745  -25.2008   17.6321 H   0  0  0  0  0  0
  -30.6496  -25.5142   19.3957 H   0  0  0  0  0  0
  -28.2331  -23.8507   18.2133 H   0  0  0  0  0  0
  -28.0889  -26.3174   17.8955 H   0  0  0  0  0  0
  -24.2485  -20.7974   20.0384 H   0  0  0  0  0  0
  -24.7973  -19.1638   19.6364 H   0  0  0  0  0  0
  -24.8062  -20.4255   18.4050 H   0  0  0  0  0  0
  -29.4909  -23.5164   22.3065 H   0  0  0  0  0  0
  -29.7927  -25.0775   21.5500 H   0  0  0  0  0  0
  -30.5833  -23.6346   20.9266 H   0  0  0  0  0  0
  -31.5804  -18.0672   22.6875 H   0  0  0  0  0  0
  -32.0587  -16.3752   22.6529 H   0  0  0  0  0  0
  -30.5687  -16.8526   23.4643 H   0  0  0  0  0  0
  -29.0898  -18.3646   22.1339 H   0  0  0  0  0  0
  -28.3193  -17.3481   20.9417 H   0  0  0  0  0  0
  -27.6101  -24.2857   20.8517 H   0  0  0  0  0  0
  -31.1390  -17.0713   20.4651 H   0  0  0  0  0  0
  -29.4670  -18.4260   19.2433 H   0  0  0  0  0  0
  -29.0653  -15.2400   21.4647 H   0  0  0  0  0  0
  1 25  1  0  0  0
  1 30  2  0  0  0
  1 87  1  0  0  0
  2  3  1  0  0  0
  2 25  1  0  0  0
  2 88  1  0  0  0
  2 89  1  0  0  0
  3  4  1  0  0  0
  3 90  1  0  0  0
  3 91  1  0  0  0
  4  5  1  0  0  0
  4 92  1  0  0  0
  4 93  1  0  0  0
  5  6  1  0  0  0
  5 26  1  0  0  0
  5 94  1  0  0  0
  6 25  1  0  0  0
  6 95  1  0  0  0
  6 96  1  0  0  0
  7  8  2  0  0  0
  7 26  1  0  0  0
  7 29  1  0  0  0
  8  9  1  0  0  0
  8 22  1  0  0  0
  9 10  1  0  0  0
  9 27  2  0  0  0
 10 11  2  0  0  0
 10 15  1  0  0  0
 11 12  1  0  0  0
 11 97  1  0  0  0
 12 13  2  0  0  0
 12 98  1  0  0  0
 13 14  1  0  0  0
 13 31  1  0  0  0
 14 15  2  0  0  0
 14 99  1  0  0  0
 15100  1  0  0  0
 16 17  2  0  0  0
 16 21  1  0  0  0
 16 31  1  0  0  0
 17 18  1  0  0  0
 17101  1  0  0  0
 18 19  2  0  0  0
 18102  1  0  0  0
 19 20  1  0  0  0
 19 24  1  0  0  0
 20 21  2  0  0  0
 20103  1  0  0  0
 21 23  1  0  0  0
 22 28  1  0  0  0
 22 32  2  0  0  0
 26 27  1  0  0  0
 28104  1  0  0  0
 28105  1  0  0  0
 29106  1  0  0  0
 29107  1  0  0  0
 33 34  1  0  0  0
 33 66  1  0  0  0
 33 70  2  0  0  0
 34 36  1  0  0  0
 34 59  1  0  0  0
 34108  1  0  0  0
 35 44  2  0  0  0
 35 45  1  0  0  0
 35 68  1  0  0  0
 36 56  1  0  0  0
 36109  1  0  0  0
 37 39  1  0  0  0
 37 47  1  0  0  0
 37 66  1  0  0  0
 37110  1  0  0  0
 38 43  2  0  0  0
 38 46  1  0  0  0
 38 47  1  0  0  0
 39 64  1  0  0  0
 39 67  2  0  0  0
 40 52  1  0  0  0
 40 53  2  0  0  0
 40 58  1  0  0  0
 41111  1  0  0  0
 41112  1  0  0  0
 41113  1  0  0  0
 41 48  1  0  0  0
 42 43  1  0  0  0
 42 66  1  0  0  0
 42114  1  0  0  0
 42115  1  0  0  0
 43 44  1  0  0  0
 44116  1  0  0  0
 45 46  2  0  0  0
 45117  1  0  0  0
 46118  1  0  0  0
 47119  1  0  0  0
 47120  1  0  0  0
 48 56  1  0  0  0
 48 65  1  0  0  0
 48121  1  0  0  0
 49 50  1  0  0  0
 49 53  1  0  0  0
 49 64  1  0  0  0
 49122  1  0  0  0
 50 51  1  0  0  0
 50123  1  0  0  0
 50124  1  0  0  0
 51 52  1  0  0  0
 51125  1  0  0  0
 51126  1  0  0  0
 52127  1  0  0  0
 52128  1  0  0  0
 53 54  1  0  0  0
 54 55  2  0  0  0
 54129  1  0  0  0
 55 57  1  0  0  0
 55130  1  0  0  0
 56 69  2  0  0  0
 57 58  2  0  0  0
 57131  1  0  0  0
 58132  1  0  0  0
 59 60  1  0  0  0
 59 61  1  0  0  0
 59 62  1  0  0  0
 60133  1  0  0  0
 60134  1  0  0  0
 60135  1  0  0  0
 61136  1  0  0  0
 61137  1  0  0  0
 61138  1  0  0  0
 62139  1  0  0  0
 62140  1  0  0  0
 62141  1  0  0  0
 63 65  1  0  0  0
 63142  1  0  0  0
 63143  1  0  0  0
 63144  1  0  0  0
 64145  1  0  0  0
 65146  1  0  0  0
 68 78  1  0  0  0
 71 73  2  0  0  0
 71 74  1  0  0  0
 71147  1  0  0  0
 72 73  1  0  0  0
 72 75  2  0  0  0
 72148  1  0  0  0
 73 83  1  0  0  0
 74 79  1  0  0  0
 74 85  2  0  0  0
 75 85  1  0  0  0
 75 86  1  0  0  0
 76 78  1  0  0  0
 76149  1  0  0  0
 76150  1  0  0  0
 76 77  1  0  0  0
 77 78  1  0  0  0
 77 83  1  0  0  0
 77151  1  0  0  0
 78152  1  0  0  0
 79153  1  0  0  0
 79154  1  0  0  0
 79155  1  0  0  0
 80156  1  0  0  0
 80157  1  0  0  0
 80158  1  0  0  0
 80 83  1  0  0  0
 81159  1  0  0  0
 81160  1  0  0  0
 81161  1  0  0  0
 81 84  1  0  0  0
 82 84  1  0  0  0
 82 86  1  0  0  0
 82162  1  0  0  0
 82163  1  0  0  0
 83164  1  0  0  0
 84 87  1  0  0  0
 84165  1  0  0  0
 86166  1  0  0  0
 87167  1  0  0  0
M  ISO  4   1 100  68 101  78 101  87 100
M  END
> <chiral flag>
0

> <version>
0

> <s_m_source_file>
/data/baiqing/PycharmProjects/Reinvent-master-3.2/result/LINK_invent/BTK/process_docking_weight1_custom_sum_contain_oxygen_bond_distance_aromatic_linkinvent_7_9_3/rearranged_h_0144.sdf

> <i_m_source_file_index>
63

> <r_mmod_Potential_Energy-OPLS-2005>
-318.889739990234

> <r_mmod_Stretch_Energy-OPLS-2005>
35.041576385498

> <r_mmod_Bend_Energy-OPLS-2005>
98.6272659301758

> <r_mmod_Torsional_Energy-OPLS-2005>
282.184204101562

> <r_mmod_Improper_Torsional_Energy-OPLS-2005>
9.39331531524658

> <r_mmod_Van_der_Waal_Energy-OPLS-2005>
160.340347290039

> <r_mmod_Electrostatic_Energy-OPLS-2005>
-699.606750488281

> <r_mmod_Solvation_Energy-OPLS-2005>
-217.196975708008

> <b_mmod_Minimization_Converged-OPLS-2005>
0

> <r_mmod_RMS_Derivative-OPLS-2005>
3.38252687454224

$$$$
64
                    3D
 Structure written by MMmdl.
163172  0  0  1  0            999 V2000
  -30.6565  -14.6696   20.4866 C   0  0  0  0  0  0
  -30.4219  -12.4151   19.4565 C   0  0  0  0  0  0
  -29.4992  -12.4999   18.2232 C   0  0  0  0  0  0
  -28.0254  -12.3361   18.6407 C   0  0  0  0  0  0
  -27.6423  -13.2285   19.8520 C   0  0  2  0  0  0
  -28.6889  -13.1414   20.9835 C   0  0  0  0  0  0
  -25.2513  -13.8195   20.5698 C   0  0  0  0  0  0
  -24.1801  -13.0441   20.9206 C   0  0  0  0  0  0
  -24.6389  -11.6917   20.8750 C   0  0  0  0  0  0
  -23.9066  -10.4292   21.0409 C   0  0  0  0  0  0
  -24.3616   -9.4208   21.9188 C   0  0  0  0  0  0
  -23.6293   -8.2243   22.0755 C   0  0  0  0  0  0
  -22.4278   -8.0279   21.3541 C   0  0  0  0  0  0
  -21.9912   -9.0252   20.4646 C   0  0  0  0  0  0
  -22.7238  -10.2133   20.3058 C   0  0  0  0  0  0
  -21.6854   -6.0734   22.5278 C   0  0  0  0  0  0
  -21.4015   -6.5639   23.8212 C   0  0  0  0  0  0
  -21.3659   -5.6793   24.9174 C   0  0  0  0  0  0
  -21.6044   -4.3055   24.7224 C   0  0  0  0  0  0
  -21.8818   -3.8146   23.4347 C   0  0  0  0  0  0
  -21.9194   -4.6962   22.3401 C   0  0  0  0  0  0
  -22.7822  -13.5224   21.1866 C   0  0  0  0  0  0
  -22.1662   -4.2147   21.0980 F   0  0  0  0  0  0
  -21.5628   -3.4541   25.7738 F   0  0  0  0  0  0
  -29.9933  -13.4718   20.3973 N   0  0  0  0  0  0
  -26.2939  -12.9398   20.3296 N   0  0  0  0  0  0
  -25.9319  -11.6542   20.5766 N   0  0  0  0  0  0
  -22.0472  -12.8206   22.0418 N   0  0  0  0  0  0
  -25.4201  -15.1919   20.4110 N   0  0  0  0  0  0
  -31.8445  -14.7442   20.1651 O   0  0  0  0  0  0
  -21.6642   -6.8877   21.4240 O   0  0  0  0  0  0
  -22.3505  -14.5532   20.6719 O   0  0  0  0  0  0
  -24.6278  -31.8579   23.1999 C   0  0  0  0  0  0
  -25.9120  -32.4766   23.8335 C   0  0  1  0  0  0
  -27.2234  -27.2992   20.1166 C   0  0  0  0  0  0
  -25.5938  -33.8567   24.2268 N   0  0  0  0  0  0
  -23.4214  -30.4821   21.5427 C   0  0  2  0  0  0
  -24.8670  -28.9318   20.1113 C   0  0  0  0  0  0
  -22.7481  -29.4620   22.4921 C   0  0  0  0  0  0
  -18.0294  -28.1379   22.8482 C   0  0  0  0  0  0
  -24.1492  -36.7284   23.2640 C   0  0  0  0  0  0
  -25.9639  -30.7836   21.3720 C   0  0  0  0  0  0
  -26.0369  -29.4080   20.7155 C   0  0  0  0  0  0
  -27.2159  -28.6031   20.7085 C   0  0  0  0  0  0
  -26.0243  -26.8740   19.4993 C   0  0  0  0  0  0
  -24.8637  -27.6711   19.4956 C   0  0  0  0  0  0
  -23.6371  -29.8154   20.1586 C   0  0  0  0  0  0
  -25.4116  -36.3072   24.0329 C   0  0  1  0  0  0
  -20.5893  -28.3687   23.1276 C   0  0  2  0  0  0
  -20.6783  -26.9410   22.5405 C   0  0  0  0  0  0
  -19.5759  -26.6380   21.5210 C   0  0  0  0  0  0
  -18.1937  -26.7920   22.1619 C   0  0  0  0  0  0
  -19.1545  -28.8850   23.2875 C   0  0  0  0  0  0
  -18.9470  -30.1455   23.8891 C   0  0  0  0  0  0
  -17.6469  -30.6580   24.0566 C   0  0  0  0  0  0
  -25.9056  -34.9445   23.5094 C   0  0  0  0  0  0
  -16.5362  -29.9079   23.6332 C   0  0  0  0  0  0
  -16.7280  -28.6500   23.0345 C   0  0  0  0  0  0
  -26.4500  -31.6578   25.0709 C   0  0  0  0  0  0
  -25.3729  -31.3721   26.1437 C   0  0  0  0  0  0
  -27.0344  -30.3001   24.6161 C   0  0  0  0  0  0
  -27.6059  -32.4311   25.7480 C   0  0  0  0  0  0
  -27.5578  -37.1800   24.8466 C   0  0  0  0  0  0
  -21.4194  -29.3047   22.3672 N   0  0  0  0  0  0
  -26.4289  -37.3770   23.9411 N   0  0  0  0  0  0
  -24.6901  -31.0584   22.0951 N   0  0  0  0  0  0
  -23.4203  -28.8160   23.3001 O   0  0  0  0  0  0
  -28.3509  -26.4582   20.1693 O   0  0  0  0  0  0
  -26.5622  -34.8921   22.4660 O   0  0  0  0  0  0
  -23.5439  -32.1380   23.7325 O   0  0  0  0  0  0
  -28.7181  -19.1084   21.0933 C   0  0  0  0  0  0
  -30.7407  -19.4741   19.8809 C   0  0  0  0  0  0
  -29.1543  -21.3943   20.1241 C   0  0  0  0  0  0
  -29.9428  -18.5697   20.6252 C   0  0  0  0  0  0
  -28.3283  -20.4705   20.8494 C   0  0  0  0  0  0
  -30.3746  -20.8353   19.6185 C   0  0  0  0  0  0
  -27.7136  -23.8711   20.4916 C   0  0  0  0  0  0
  -29.5805  -24.1893   19.6985 C   0  0  0  0  0  0
  -28.6997  -22.8875   19.7568 C   0  0  1  0  0  0
  -28.2912  -25.0637   19.6574 C   0  0  2  0  0  0
  -26.9781  -20.9127   21.3826 C   0  0  0  0  0  0
  -32.4850  -21.0062   18.0806 C   0  0  0  0  0  0
  -31.3057  -21.7092   18.7740 C   0  0  0  0  0  0
  -30.5443  -17.1701   21.0636 C   0  0  0  0  0  0
  -29.9432  -15.8140   20.7697 N   0  0  0  0  0  0
  -31.4649  -12.5213   19.1537 H   0  0  0  0  0  0
  -30.3469  -11.4343   19.9287 H   0  0  0  0  0  0
  -29.7690  -11.7335   17.4957 H   0  0  0  0  0  0
  -29.6358  -13.4598   17.7226 H   0  0  0  0  0  0
  -27.8722  -11.2861   18.8926 H   0  0  0  0  0  0
  -27.3673  -12.5433   17.7960 H   0  0  0  0  0  0
  -27.6440  -14.2546   19.4833 H   0  0  0  0  0  0
  -28.7107  -12.1410   21.4177 H   0  0  0  0  0  0
  -28.4368  -13.8223   21.7980 H   0  0  0  0  0  0
  -25.2761   -9.5688   22.4763 H   0  0  0  0  0  0
  -24.0003   -7.4636   22.7475 H   0  0  0  0  0  0
  -21.0843   -8.8768   19.8952 H   0  0  0  0  0  0
  -22.3694  -10.9671   19.6167 H   0  0  0  0  0  0
  -21.2009   -7.6147   23.9712 H   0  0  0  0  0  0
  -21.1481   -6.0526   25.9076 H   0  0  0  0  0  0
  -22.0599   -2.7608   23.2848 H   0  0  0  0  0  0
  -22.4096  -11.9864   22.4792 H   0  0  0  0  0  0
  -21.1092  -13.1224   22.2636 H   0  0  0  0  0  0
  -24.6498  -15.8433   20.5162 H   0  0  0  0  0  0
  -26.2643  -15.6321   20.0680 H   0  0  0  0  0  0
  -26.7184  -32.5425   23.1076 H   0  0  0  0  0  0
  -25.0110  -33.9706   25.0431 H   0  0  0  0  0  0
  -22.7162  -31.3033   21.3982 H   0  0  0  0  0  0
  -23.3756  -35.9615   23.3296 H   0  0  0  0  0  0
  -24.3585  -36.8902   22.2055 H   0  0  0  0  0  0
  -23.7243  -37.6485   23.6663 H   0  0  0  0  0  0
  -26.0955  -31.5445   20.6016 H   0  0  0  0  0  0
  -26.8442  -30.8335   22.0013 H   0  0  0  0  0  0
  -28.1142  -28.9649   21.1885 H   0  0  0  0  0  0
  -25.9462  -25.9050   19.0309 H   0  0  0  0  0  0
  -23.9639  -27.2969   19.0265 H   0  0  0  0  0  0
  -23.7593  -30.5912   19.4017 H   0  0  0  0  0  0
  -22.7558  -29.2473   19.8548 H   0  0  0  0  0  0
  -25.1294  -36.1916   25.0820 H   0  0  0  0  0  0
  -20.9991  -28.3261   24.1393 H   0  0  0  0  0  0
  -20.5683  -26.2297   23.3604 H   0  0  0  0  0  0
  -21.6651  -26.7428   22.1203 H   0  0  0  0  0  0
  -19.6924  -25.6290   21.1241 H   0  0  0  0  0  0
  -19.6699  -27.3196   20.6744 H   0  0  0  0  0  0
  -17.4207  -26.6674   21.4020 H   0  0  0  0  0  0
  -18.0334  -26.0054   22.9005 H   0  0  0  0  0  0
  -19.7949  -30.7277   24.2250 H   0  0  0  0  0  0
  -17.5025  -31.6259   24.5168 H   0  0  0  0  0  0
  -15.5366  -30.2986   23.7655 H   0  0  0  0  0  0
  -15.8677  -28.0828   22.7050 H   0  0  0  0  0  0
  -24.5915  -30.7053   25.7770 H   0  0  0  0  0  0
  -24.8915  -32.2893   26.4843 H   0  0  0  0  0  0
  -25.8055  -30.8919   27.0222 H   0  0  0  0  0  0
  -26.2920  -29.6745   24.1194 H   0  0  0  0  0  0
  -27.4060  -29.7255   25.4656 H   0  0  0  0  0  0
  -27.8775  -30.4289   23.9368 H   0  0  0  0  0  0
  -27.2677  -33.3625   26.2031 H   0  0  0  0  0  0
  -28.3889  -32.6839   25.0318 H   0  0  0  0  0  0
  -28.0703  -31.8446   26.5418 H   0  0  0  0  0  0
  -28.2592  -38.0102   24.7509 H   0  0  0  0  0  0
  -28.1077  -36.2630   24.6289 H   0  0  0  0  0  0
  -27.2298  -37.1440   25.8870 H   0  0  0  0  0  0
  -20.9375  -29.8772   21.6883 H   0  0  0  0  0  0
  -26.0164  -38.2841   24.1414 H   0  0  0  0  0  0
  -28.0765  -18.4713   21.6872 H   0  0  0  0  0  0
  -31.6892  -19.0986   19.5281 H   0  0  0  0  0  0
  -27.9175  -23.9657   21.5602 H   0  0  0  0  0  0
  -26.6569  -23.6715   20.3160 H   0  0  0  0  0  0
  -30.2019  -24.2952   18.8099 H   0  0  0  0  0  0
  -30.1734  -24.3451   20.6028 H   0  0  0  0  0  0
  -28.2897  -22.7396   18.7549 H   0  0  0  0  0  0
  -27.9104  -25.0595   18.6338 H   0  0  0  0  0  0
  -26.4378  -20.0863   21.8458 H   0  0  0  0  0  0
  -26.3542  -21.2962   20.5756 H   0  0  0  0  0  0
  -27.0972  -21.6897   22.1371 H   0  0  0  0  0  0
  -33.0404  -21.7158   17.4670 H   0  0  0  0  0  0
  -32.1453  -20.2052   17.4233 H   0  0  0  0  0  0
  -33.1895  -20.5903   18.8011 H   0  0  0  0  0  0
  -31.7047  -22.4974   19.4125 H   0  0  0  0  0  0
  -30.7101  -22.1902   17.9983 H   0  0  0  0  0  0
  -30.6296  -17.2182   22.1498 H   0  0  0  0  0  0
  -31.5802  -17.1623   20.7216 H   0  0  0  0  0  0
  -28.9550  -15.7064   20.9376 H   0  0  0  0  0  0
  1 25  1  0  0  0
  1 30  2  0  0  0
  1 85  1  0  0  0
  2  3  1  0  0  0
  2 25  1  0  0  0
  2 86  1  0  0  0
  2 87  1  0  0  0
  3  4  1  0  0  0
  3 88  1  0  0  0
  3 89  1  0  0  0
  4  5  1  0  0  0
  4 90  1  0  0  0
  4 91  1  0  0  0
  5  6  1  0  0  0
  5 26  1  0  0  0
  5 92  1  0  0  0
  6 25  1  0  0  0
  6 93  1  0  0  0
  6 94  1  0  0  0
  7  8  2  0  0  0
  7 26  1  0  0  0
  7 29  1  0  0  0
  8  9  1  0  0  0
  8 22  1  0  0  0
  9 10  1  0  0  0
  9 27  2  0  0  0
 10 11  2  0  0  0
 10 15  1  0  0  0
 11 12  1  0  0  0
 11 95  1  0  0  0
 12 13  2  0  0  0
 12 96  1  0  0  0
 13 14  1  0  0  0
 13 31  1  0  0  0
 14 15  2  0  0  0
 14 97  1  0  0  0
 15 98  1  0  0  0
 16 17  2  0  0  0
 16 21  1  0  0  0
 16 31  1  0  0  0
 17 18  1  0  0  0
 17 99  1  0  0  0
 18 19  2  0  0  0
 18100  1  0  0  0
 19 20  1  0  0  0
 19 24  1  0  0  0
 20 21  2  0  0  0
 20101  1  0  0  0
 21 23  1  0  0  0
 22 28  1  0  0  0
 22 32  2  0  0  0
 26 27  1  0  0  0
 28102  1  0  0  0
 28103  1  0  0  0
 29104  1  0  0  0
 29105  1  0  0  0
 33 34  1  0  0  0
 33 66  1  0  0  0
 33 70  2  0  0  0
 34 36  1  0  0  0
 34 59  1  0  0  0
 34106  1  0  0  0
 35 44  2  0  0  0
 35 45  1  0  0  0
 35 68  1  0  0  0
 36 56  1  0  0  0
 36107  1  0  0  0
 37 39  1  0  0  0
 37 47  1  0  0  0
 37 66  1  0  0  0
 37108  1  0  0  0
 38 43  2  0  0  0
 38 46  1  0  0  0
 38 47  1  0  0  0
 39 64  1  0  0  0
 39 67  2  0  0  0
 40 52  1  0  0  0
 40 53  2  0  0  0
 40 58  1  0  0  0
 41109  1  0  0  0
 41110  1  0  0  0
 41111  1  0  0  0
 41 48  1  0  0  0
 42 43  1  0  0  0
 42 66  1  0  0  0
 42112  1  0  0  0
 42113  1  0  0  0
 43 44  1  0  0  0
 44114  1  0  0  0
 45 46  2  0  0  0
 45115  1  0  0  0
 46116  1  0  0  0
 47117  1  0  0  0
 47118  1  0  0  0
 48 56  1  0  0  0
 48 65  1  0  0  0
 48119  1  0  0  0
 49 50  1  0  0  0
 49 53  1  0  0  0
 49 64  1  0  0  0
 49120  1  0  0  0
 50 51  1  0  0  0
 50121  1  0  0  0
 50122  1  0  0  0
 51 52  1  0  0  0
 51123  1  0  0  0
 51124  1  0  0  0
 52125  1  0  0  0
 52126  1  0  0  0
 53 54  1  0  0  0
 54 55  2  0  0  0
 54127  1  0  0  0
 55 57  1  0  0  0
 55128  1  0  0  0
 56 69  2  0  0  0
 57 58  2  0  0  0
 57129  1  0  0  0
 58130  1  0  0  0
 59 60  1  0  0  0
 59 61  1  0  0  0
 59 62  1  0  0  0
 60131  1  0  0  0
 60132  1  0  0  0
 60133  1  0  0  0
 61134  1  0  0  0
 61135  1  0  0  0
 61136  1  0  0  0
 62137  1  0  0  0
 62138  1  0  0  0
 62139  1  0  0  0
 63 65  1  0  0  0
 63140  1  0  0  0
 63141  1  0  0  0
 63142  1  0  0  0
 64143  1  0  0  0
 65144  1  0  0  0
 68 80  1  0  0  0
 71 74  2  0  0  0
 71 75  1  0  0  0
 71145  1  0  0  0
 72 74  1  0  0  0
 72 76  2  0  0  0
 72146  1  0  0  0
 73 75  2  0  0  0
 73 76  1  0  0  0
 73 79  1  0  0  0
 74 84  1  0  0  0
 75 81  1  0  0  0
 76 83  1  0  0  0
 77 79  1  0  0  0
 77 80  1  0  0  0
 77147  1  0  0  0
 77148  1  0  0  0
 78 79  1  0  0  0
 78 80  1  0  0  0
 78149  1  0  0  0
 78150  1  0  0  0
 79151  1  0  0  0
 80152  1  0  0  0
 81153  1  0  0  0
 81154  1  0  0  0
 81155  1  0  0  0
 82 83  1  0  0  0
 82156  1  0  0  0
 82157  1  0  0  0
 82158  1  0  0  0
 83159  1  0  0  0
 83160  1  0  0  0
 84 85  1  0  0  0
 84161  1  0  0  0
 84162  1  0  0  0
 85163  1  0  0  0
M  ISO  4   1 100  68 101  80 101  85 100
M  END
> <chiral flag>
0

> <version>
0

> <s_m_source_file>
/data/baiqing/PycharmProjects/Reinvent-master-3.2/result/LINK_invent/BTK/process_docking_weight1_custom_sum_contain_oxygen_bond_distance_aromatic_linkinvent_7_9_3/rearranged_h_0144.sdf

> <i_m_source_file_index>
64

> <r_mmod_Potential_Energy-OPLS-2005>
67.2718887329102

> <r_mmod_Stretch_Energy-OPLS-2005>
93.781852722168

> <r_mmod_Bend_Energy-OPLS-2005>
193.627288818359

> <r_mmod_Torsional_Energy-OPLS-2005>
209.465286254883

> <r_mmod_Improper_Torsional_Energy-OPLS-2005>
5.41719150543213

> <r_mmod_Van_der_Waal_Energy-OPLS-2005>
154.140426635742

> <r_mmod_Electrostatic_Energy-OPLS-2005>
-441.532836914062

> <r_mmod_Solvation_Energy-OPLS-2005>
-206.882110595703

> <b_mmod_Minimization_Converged-OPLS-2005>
0

> <r_mmod_RMS_Derivative-OPLS-2005>
0.724655270576477

$$$$
65
                    3D
 Structure written by MMmdl.
165174  0  0  1  0            999 V2000
  -30.5667  -15.0472   20.4144 C   0  0  0  0  0  0
  -30.4091  -12.6692   19.5173 C   0  0  0  0  0  0
  -29.5174  -12.5216   18.2680 C   0  0  0  0  0  0
  -28.0444  -12.3290   18.6737 C   0  0  0  0  0  0
  -27.6064  -13.2780   19.8225 C   0  0  2  0  0  0
  -28.6430  -13.3899   20.9547 C   0  0  0  0  0  0
  -25.2335  -13.8258   20.5635 C   0  0  0  0  0  0
  -24.1691  -13.0451   20.9237 C   0  0  0  0  0  0
  -24.6367  -11.6974   20.8773 C   0  0  0  0  0  0
  -23.9074  -10.4323   21.0403 C   0  0  0  0  0  0
  -24.3623   -9.4243   21.9184 C   0  0  0  0  0  0
  -23.6304   -8.2255   22.0724 C   0  0  0  0  0  0
  -22.4280   -8.0286   21.3532 C   0  0  0  0  0  0
  -21.9939   -9.0256   20.4628 C   0  0  0  0  0  0
  -22.7248  -10.2149   20.3057 C   0  0  0  0  0  0
  -21.6861   -6.0730   22.5272 C   0  0  0  0  0  0
  -21.4018   -6.5628   23.8215 C   0  0  0  0  0  0
  -21.3668   -5.6770   24.9172 C   0  0  0  0  0  0
  -21.6052   -4.3039   24.7211 C   0  0  0  0  0  0
  -21.8822   -3.8142   23.4329 C   0  0  0  0  0  0
  -21.9207   -4.6964   22.3394 C   0  0  0  0  0  0
  -22.7730  -13.5251   21.1895 C   0  0  0  0  0  0
  -22.1672   -4.2153   21.0973 F   0  0  0  0  0  0
  -21.5644   -3.4522   25.7726 F   0  0  0  0  0  0
  -29.8845  -13.8266   20.3139 N   0  0  0  0  0  0
  -26.2777  -12.9561   20.3240 N   0  0  0  0  0  0
  -25.9313  -11.6671   20.5775 N   0  0  0  0  0  0
  -22.0370  -12.8233   22.0445 N   0  0  0  0  0  0
  -25.3932  -15.1921   20.3959 N   0  0  0  0  0  0
  -31.7936  -14.9427   20.3097 O   0  0  0  0  0  0
  -21.6656   -6.8868   21.4227 O   0  0  0  0  0  0
  -22.3453  -14.5569   20.6765 O   0  0  0  0  0  0
  -24.6467  -31.8409   23.1864 C   0  0  0  0  0  0
  -25.9217  -32.4686   23.8271 C   0  0  1  0  0  0
  -27.2047  -27.0797   20.1908 C   0  0  0  0  0  0
  -25.5967  -33.8489   24.2184 N   0  0  0  0  0  0
  -23.4535  -30.4604   21.5277 C   0  0  2  0  0  0
  -24.9051  -28.8819   20.1077 C   0  0  0  0  0  0
  -22.7612  -29.4503   22.4792 C   0  0  0  0  0  0
  -18.0343  -28.1375   22.8502 C   0  0  0  0  0  0
  -24.1470  -36.7227   23.2651 C   0  0  0  0  0  0
  -26.0131  -30.6973   21.3990 C   0  0  0  0  0  0
  -26.0799  -29.3035   20.7451 C   0  0  0  0  0  0
  -27.2284  -28.4189   20.7696 C   0  0  0  0  0  0
  -26.0172  -26.7825   19.4899 C   0  0  0  0  0  0
  -24.8929  -27.6388   19.4572 C   0  0  0  0  0  0
  -23.6876  -29.7958   20.1438 C   0  0  0  0  0  0
  -25.4108  -36.3015   24.0322 C   0  0  1  0  0  0
  -20.5966  -28.3689   23.1227 C   0  0  2  0  0  0
  -20.6792  -26.9374   22.5412 C   0  0  0  0  0  0
  -19.5754  -26.6352   21.5236 C   0  0  0  0  0  0
  -18.1942  -26.7930   22.1638 C   0  0  0  0  0  0
  -19.1605  -28.8857   23.2865 C   0  0  0  0  0  0
  -18.9506  -30.1470   23.8853 C   0  0  0  0  0  0
  -17.6491  -30.6564   24.0556 C   0  0  0  0  0  0
  -25.9065  -34.9396   23.5044 C   0  0  0  0  0  0
  -16.5385  -29.9043   23.6329 C   0  0  0  0  0  0
  -16.7321  -28.6471   23.0355 C   0  0  0  0  0  0
  -26.4522  -31.6593   25.0729 C   0  0  0  0  0  0
  -25.3700  -31.3842   26.1441 C   0  0  0  0  0  0
  -27.0390  -30.2967   24.6379 C   0  0  0  0  0  0
  -27.6040  -32.4397   25.7484 C   0  0  0  0  0  0
  -27.5566  -37.1778   24.8471 C   0  0  0  0  0  0
  -21.4296  -29.3019   22.3574 N   0  0  0  0  0  0
  -26.4251  -37.3756   23.9451 N   0  0  0  0  0  0
  -24.7236  -31.0258   22.0894 N   0  0  0  0  0  0
  -23.4261  -28.8062   23.2946 O   0  0  0  0  0  0
  -28.2422  -26.0613   20.2430 O   0  0  0  0  0  0
  -26.5644  -34.8899   22.4606 O   0  0  0  0  0  0
  -23.5574  -32.1258   23.7050 O   0  0  0  0  0  0
  -27.5010  -19.7087   21.4132 C   0  0  0  0  0  0
  -29.5110  -19.0127   20.3942 C   0  0  0  0  0  0
  -28.7026  -20.2014   20.8377 C   0  0  0  0  0  0
  -27.2139  -18.3363   21.5948 C   0  0  0  0  0  0
  -29.2086  -17.5536   20.6268 C   0  0  0  0  0  0
  -27.9935  -24.1275   21.9714 C   0  0  0  0  0  0
  -28.0720  -22.5587   22.0492 C   0  0  0  0  0  0
  -28.7076  -23.1209   19.9029 C   0  0  0  0  0  0
  -27.9657  -24.5190   20.4873 C   0  0  2  0  0  0
  -29.0368  -21.8833   20.9871 C   0  0  1  0  0  0
  -25.8906  -17.9619   22.2413 C   0  0  0  0  0  0
  -31.6214  -21.4891   20.4909 C   0  0  0  0  0  0
  -31.0044  -23.3841   22.0327 C   0  0  0  0  0  0
  -30.5462  -22.0087   21.4800 C   0  0  0  0  0  0
  -28.0308  -17.3100   21.2413 N   0  0  0  0  0  0
  -30.0683  -16.3739   20.1268 N   0  0  0  0  0  0
  -31.4421  -12.8143   19.2008 H   0  0  0  0  0  0
  -30.4107  -11.7507   20.1077 H   0  0  0  0  0  0
  -29.8510  -11.6757   17.6663 H   0  0  0  0  0  0
  -29.6205  -13.4066   17.6390 H   0  0  0  0  0  0
  -27.9246  -11.2913   18.9866 H   0  0  0  0  0  0
  -27.3985  -12.4586   17.8032 H   0  0  0  0  0  0
  -27.5441  -14.2684   19.3678 H   0  0  0  0  0  0
  -28.7654  -12.4461   21.4874 H   0  0  0  0  0  0
  -28.3261  -14.1303   21.6920 H   0  0  0  0  0  0
  -25.2743   -9.5743   22.4797 H   0  0  0  0  0  0
  -24.0010   -7.4666   22.7453 H   0  0  0  0  0  0
  -21.0858   -8.8787   19.8944 H   0  0  0  0  0  0
  -22.3670  -10.9700   19.6192 H   0  0  0  0  0  0
  -21.1974   -7.6137   23.9727 H   0  0  0  0  0  0
  -21.1506   -6.0484   25.9070 H   0  0  0  0  0  0
  -22.0591   -2.7597   23.2827 H   0  0  0  0  0  0
  -22.3932  -11.9895   22.4877 H   0  0  0  0  0  0
  -21.0967  -13.1275   22.2573 H   0  0  0  0  0  0
  -24.6251  -15.8445   20.4857 H   0  0  0  0  0  0
  -26.2763  -15.6473   20.1834 H   0  0  0  0  0  0
  -26.7265  -32.5251   23.0987 H   0  0  0  0  0  0
  -25.0220  -33.9630   25.0409 H   0  0  0  0  0  0
  -22.7559  -31.2853   21.3715 H   0  0  0  0  0  0
  -23.3761  -35.9532   23.3279 H   0  0  0  0  0  0
  -24.3572  -36.8876   22.2074 H   0  0  0  0  0  0
  -23.7174  -37.6394   23.6693 H   0  0  0  0  0  0
  -26.1875  -31.4500   20.6297 H   0  0  0  0  0  0
  -26.8759  -30.7407   22.0513 H   0  0  0  0  0  0
  -28.1169  -28.7321   21.3000 H   0  0  0  0  0  0
  -25.9382  -25.8455   18.9590 H   0  0  0  0  0  0
  -24.0101  -27.3196   18.9232 H   0  0  0  0  0  0
  -23.8404  -30.5740   19.3924 H   0  0  0  0  0  0
  -22.7967  -29.2498   19.8234 H   0  0  0  0  0  0
  -25.1298  -36.1827   25.0817 H   0  0  0  0  0  0
  -21.0106  -28.3254   24.1336 H   0  0  0  0  0  0
  -20.5673  -26.2294   23.3641 H   0  0  0  0  0  0
  -21.6642  -26.7328   22.1218 H   0  0  0  0  0  0
  -19.6871  -25.6263   21.1256 H   0  0  0  0  0  0
  -19.6678  -27.3163   20.6775 H   0  0  0  0  0  0
  -17.4232  -26.6759   21.4011 H   0  0  0  0  0  0
  -18.0252  -26.0061   22.8997 H   0  0  0  0  0  0
  -19.7968  -30.7330   24.2167 H   0  0  0  0  0  0
  -17.5016  -31.6240   24.5158 H   0  0  0  0  0  0
  -15.5369  -30.2915   23.7660 H   0  0  0  0  0  0
  -15.8744  -28.0766   22.7058 H   0  0  0  0  0  0
  -24.5914  -30.7118   25.7836 H   0  0  0  0  0  0
  -24.8847  -32.3033   26.4721 H   0  0  0  0  0  0
  -25.7997  -30.9169   27.0309 H   0  0  0  0  0  0
  -26.3016  -29.6689   24.1362 H   0  0  0  0  0  0
  -27.3939  -29.7299   25.5006 H   0  0  0  0  0  0
  -27.8952  -30.4199   23.9747 H   0  0  0  0  0  0
  -27.2639  -33.3770   26.1911 H   0  0  0  0  0  0
  -28.3897  -32.6863   25.0326 H   0  0  0  0  0  0
  -28.0645  -31.8627   26.5519 H   0  0  0  0  0  0
  -28.2592  -38.0078   24.7544 H   0  0  0  0  0  0
  -28.1056  -36.2615   24.6237 H   0  0  0  0  0  0
  -27.2315  -37.1356   25.8885 H   0  0  0  0  0  0
  -20.9475  -29.8758   21.6790 H   0  0  0  0  0  0
  -26.0102  -38.2805   24.1500 H   0  0  0  0  0  0
  -26.7420  -20.3700   21.7927 H   0  0  0  0  0  0
  -30.4143  -19.2041   19.8395 H   0  0  0  0  0  0
  -28.8241  -24.6063   22.4792 H   0  0  0  0  0  0
  -27.1058  -24.5055   22.4809 H   0  0  0  0  0  0
  -27.0502  -22.3100   21.7731 H   0  0  0  0  0  0
  -28.2185  -22.1908   23.0656 H   0  0  0  0  0  0
  -29.6236  -23.3916   19.3793 H   0  0  0  0  0  0
  -28.0574  -22.7027   19.1348 H   0  0  0  0  0  0
  -26.9224  -24.3814   20.2060 H   0  0  0  0  0  0
  -25.0772  -18.0715   21.5248 H   0  0  0  0  0  0
  -25.6739  -18.6165   23.0875 H   0  0  0  0  0  0
  -25.8861  -16.9328   22.6029 H   0  0  0  0  0  0
  -31.8169  -20.4297   20.6525 H   0  0  0  0  0  0
  -32.5998  -21.9409   20.6589 H   0  0  0  0  0  0
  -31.3541  -21.6473   19.4438 H   0  0  0  0  0  0
  -30.6320  -23.5242   23.0475 H   0  0  0  0  0  0
  -30.6836  -24.2275   21.4196 H   0  0  0  0  0  0
  -32.0892  -23.4664   22.1094 H   0  0  0  0  0  0
  -30.6283  -21.3493   22.3457 H   0  0  0  0  0  0
  -30.8729  -16.8003   19.6989 H   0  0  0  0  0  0
  1 25  1  0  0  0
  1 30  2  0  0  0
  1 86  1  0  0  0
  2  3  1  0  0  0
  2 25  1  0  0  0
  2 87  1  0  0  0
  2 88  1  0  0  0
  3  4  1  0  0  0
  3 89  1  0  0  0
  3 90  1  0  0  0
  4  5  1  0  0  0
  4 91  1  0  0  0
  4 92  1  0  0  0
  5  6  1  0  0  0
  5 26  1  0  0  0
  5 93  1  0  0  0
  6 25  1  0  0  0
  6 94  1  0  0  0
  6 95  1  0  0  0
  7  8  2  0  0  0
  7 26  1  0  0  0
  7 29  1  0  0  0
  8  9  1  0  0  0
  8 22  1  0  0  0
  9 10  1  0  0  0
  9 27  2  0  0  0
 10 11  2  0  0  0
 10 15  1  0  0  0
 11 12  1  0  0  0
 11 96  1  0  0  0
 12 13  2  0  0  0
 12 97  1  0  0  0
 13 14  1  0  0  0
 13 31  1  0  0  0
 14 15  2  0  0  0
 14 98  1  0  0  0
 15 99  1  0  0  0
 16 17  2  0  0  0
 16 21  1  0  0  0
 16 31  1  0  0  0
 17 18  1  0  0  0
 17100  1  0  0  0
 18 19  2  0  0  0
 18101  1  0  0  0
 19 20  1  0  0  0
 19 24  1  0  0  0
 20 21  2  0  0  0
 20102  1  0  0  0
 21 23  1  0  0  0
 22 28  1  0  0  0
 22 32  2  0  0  0
 26 27  1  0  0  0
 28103  1  0  0  0
 28104  1  0  0  0
 29105  1  0  0  0
 29106  1  0  0  0
 33 34  1  0  0  0
 33 66  1  0  0  0
 33 70  2  0  0  0
 34 36  1  0  0  0
 34 59  1  0  0  0
 34107  1  0  0  0
 35 44  2  0  0  0
 35 45  1  0  0  0
 35 68  1  0  0  0
 36 56  1  0  0  0
 36108  1  0  0  0
 37 39  1  0  0  0
 37 47  1  0  0  0
 37 66  1  0  0  0
 37109  1  0  0  0
 38 43  2  0  0  0
 38 46  1  0  0  0
 38 47  1  0  0  0
 39 64  1  0  0  0
 39 67  2  0  0  0
 40 52  1  0  0  0
 40 53  2  0  0  0
 40 58  1  0  0  0
 41110  1  0  0  0
 41111  1  0  0  0
 41112  1  0  0  0
 41 48  1  0  0  0
 42 43  1  0  0  0
 42 66  1  0  0  0
 42113  1  0  0  0
 42114  1  0  0  0
 43 44  1  0  0  0
 44115  1  0  0  0
 45 46  2  0  0  0
 45116  1  0  0  0
 46117  1  0  0  0
 47118  1  0  0  0
 47119  1  0  0  0
 48 56  1  0  0  0
 48 65  1  0  0  0
 48120  1  0  0  0
 49 50  1  0  0  0
 49 53  1  0  0  0
 49 64  1  0  0  0
 49121  1  0  0  0
 50 51  1  0  0  0
 50122  1  0  0  0
 50123  1  0  0  0
 51 52  1  0  0  0
 51124  1  0  0  0
 51125  1  0  0  0
 52126  1  0  0  0
 52127  1  0  0  0
 53 54  1  0  0  0
 54 55  2  0  0  0
 54128  1  0  0  0
 55 57  1  0  0  0
 55129  1  0  0  0
 56 69  2  0  0  0
 57 58  2  0  0  0
 57130  1  0  0  0
 58131  1  0  0  0
 59 60  1  0  0  0
 59 61  1  0  0  0
 59 62  1  0  0  0
 60132  1  0  0  0
 60133  1  0  0  0
 60134  1  0  0  0
 61135  1  0  0  0
 61136  1  0  0  0
 61137  1  0  0  0
 62138  1  0  0  0
 62139  1  0  0  0
 62140  1  0  0  0
 63 65  1  0  0  0
 63141  1  0  0  0
 63142  1  0  0  0
 63143  1  0  0  0
 64144  1  0  0  0
 65145  1  0  0  0
 68 79  1  0  0  0
 71 73  2  0  0  0
 71 74  1  0  0  0
 71146  1  0  0  0
 72 73  1  0  0  0
 72 75  2  0  0  0
 72147  1  0  0  0
 73 80  1  0  0  0
 74 81  1  0  0  0
 74 85  2  0  0  0
 75 85  1  0  0  0
 75 86  1  0  0  0
 76 77  1  0  0  0
 76 79  1  0  0  0
 76148  1  0  0  0
 76149  1  0  0  0
 77 80  1  0  0  0
 77150  1  0  0  0
 77151  1  0  0  0
 78 79  1  0  0  0
 78 80  1  0  0  0
 78152  1  0  0  0
 78153  1  0  0  0
 79154  1  0  0  0
 80 84  1  0  0  0
 81155  1  0  0  0
 81156  1  0  0  0
 81157  1  0  0  0
 82158  1  0  0  0
 82159  1  0  0  0
 82160  1  0  0  0
 82 84  1  0  0  0
 83 84  1  0  0  0
 83161  1  0  0  0
 83162  1  0  0  0
 83163  1  0  0  0
 84164  1  0  0  0
 86165  1  0  0  0
M  ISO  4   1 100  68 101  79 101  86 100
M  END
> <chiral flag>
0

> <version>
0

> <s_m_source_file>
/data/baiqing/PycharmProjects/Reinvent-master-3.2/result/LINK_invent/BTK/process_docking_weight1_custom_sum_contain_oxygen_bond_distance_aromatic_linkinvent_7_9_3/rearranged_h_0144.sdf

> <i_m_source_file_index>
65

> <r_mmod_Potential_Energy-OPLS-2005>
789.461853027344

> <r_mmod_Stretch_Energy-OPLS-2005>
336.92724609375

> <r_mmod_Bend_Energy-OPLS-2005>
442.318359375

> <r_mmod_Torsional_Energy-OPLS-2005>
334.138153076172

> <r_mmod_Improper_Torsional_Energy-OPLS-2005>
22.1016407012939

> <r_mmod_Van_der_Waal_Energy-OPLS-2005>
150.027328491211

> <r_mmod_Electrostatic_Energy-OPLS-2005>
-574.463684082031

> <r_mmod_Solvation_Energy-OPLS-2005>
-187.690414428711

> <b_mmod_Minimization_Converged-OPLS-2005>
0

> <r_mmod_RMS_Derivative-OPLS-2005>
5.57371473312378

$$$$
66
                    3D
 Structure written by MMmdl.
164172  0  0  1  0            999 V2000
  -30.7350  -14.4250   20.6392 C   0  0  0  0  0  0
  -30.4248  -12.3080   19.4051 C   0  0  0  0  0  0
  -29.4927  -12.5297   18.1976 C   0  0  0  0  0  0
  -28.0136  -12.3927   18.6142 C   0  0  0  0  0  0
  -27.6672  -13.2110   19.8862 C   0  0  2  0  0  0
  -28.7104  -12.9590   20.9967 C   0  0  0  0  0  0
  -25.2579  -13.8175   20.5677 C   0  0  0  0  0  0
  -24.1842  -13.0441   20.9206 C   0  0  0  0  0  0
  -24.6433  -11.6921   20.8775 C   0  0  0  0  0  0
  -23.9116  -10.4296   21.0423 C   0  0  0  0  0  0
  -24.3664   -9.4218   21.9195 C   0  0  0  0  0  0
  -23.6324   -8.2267   22.0750 C   0  0  0  0  0  0
  -22.4290   -8.0317   21.3549 C   0  0  0  0  0  0
  -21.9952   -9.0298   20.4648 C   0  0  0  0  0  0
  -22.7302  -10.2159   20.3066 C   0  0  0  0  0  0
  -21.6858   -6.0770   22.5293 C   0  0  0  0  0  0
  -21.4019   -6.5656   23.8234 C   0  0  0  0  0  0
  -21.3654   -5.6797   24.9191 C   0  0  0  0  0  0
  -21.6046   -4.3064   24.7249 C   0  0  0  0  0  0
  -21.8818   -3.8172   23.4364 C   0  0  0  0  0  0
  -21.9177   -4.6988   22.3405 C   0  0  0  0  0  0
  -22.7862  -13.5224   21.1838 C   0  0  0  0  0  0
  -22.1626   -4.2180   21.0980 F   0  0  0  0  0  0
  -21.5645   -3.4535   25.7758 F   0  0  0  0  0  0
  -30.0445  -13.2702   20.4492 N   0  0  0  0  0  0
  -26.3053  -12.9359   20.3435 N   0  0  0  0  0  0
  -25.9365  -11.6510   20.5837 N   0  0  0  0  0  0
  -22.0504  -12.8219   22.0422 N   0  0  0  0  0  0
  -25.4198  -15.1896   20.4030 N   0  0  0  0  0  0
  -31.8140  -14.6727   20.0963 O   0  0  0  0  0  0
  -21.6628   -6.8927   21.4259 O   0  0  0  0  0  0
  -22.3543  -14.5496   20.6634 O   0  0  0  0  0  0
  -24.6151  -31.8690   23.2112 C   0  0  0  0  0  0
  -25.9035  -32.4838   23.8394 C   0  0  1  0  0  0
  -27.2274  -27.4323   20.0773 C   0  0  0  0  0  0
  -25.5900  -33.8634   24.2329 N   0  0  0  0  0  0
  -23.4017  -30.4932   21.5555 C   0  0  2  0  0  0
  -24.8428  -28.9625   20.1210 C   0  0  0  0  0  0
  -22.7414  -29.4651   22.5026 C   0  0  0  0  0  0
  -18.0271  -28.1384   22.8494 C   0  0  0  0  0  0
  -24.1489  -36.7325   23.2634 C   0  0  0  0  0  0
  -25.9319  -30.8335   21.3606 C   0  0  0  0  0  0
  -26.0077  -29.4668   20.7107 C   0  0  0  0  0  0
  -27.2024  -28.7092   20.6874 C   0  0  0  0  0  0
  -26.0291  -26.9401   19.5011 C   0  0  0  0  0  0
  -24.8469  -27.6960   19.5203 C   0  0  0  0  0  0
  -23.6072  -29.8293   20.1707 C   0  0  0  0  0  0
  -25.4111  -36.3118   24.0330 C   0  0  1  0  0  0
  -20.5859  -28.3645   23.1349 C   0  0  2  0  0  0
  -20.6763  -26.9387   22.5431 C   0  0  0  0  0  0
  -19.5752  -26.6389   21.5217 C   0  0  0  0  0  0
  -18.1923  -26.7936   22.1608 C   0  0  0  0  0  0
  -19.1519  -28.8834   23.2918 C   0  0  0  0  0  0
  -18.9444  -30.1441   23.8924 C   0  0  0  0  0  0
  -17.6449  -30.6586   24.0566 C   0  0  0  0  0  0
  -25.9037  -34.9485   23.5124 C   0  0  0  0  0  0
  -16.5338  -29.9085   23.6333 C   0  0  0  0  0  0
  -16.7262  -28.6506   23.0342 C   0  0  0  0  0  0
  -26.4474  -31.6611   25.0714 C   0  0  0  0  0  0
  -25.3747  -31.3701   26.1467 C   0  0  0  0  0  0
  -27.0282  -30.3063   24.6041 C   0  0  0  0  0  0
  -27.6065  -32.4314   25.7466 C   0  0  0  0  0  0
  -27.5590  -37.1815   24.8462 C   0  0  0  0  0  0
  -21.4139  -29.3021   22.3771 N   0  0  0  0  0  0
  -26.4302  -37.3800   23.9408 N   0  0  0  0  0  0
  -24.6691  -31.0782   22.1015 N   0  0  0  0  0  0
  -23.4192  -28.8178   23.3044 O   0  0  0  0  0  0
  -28.4080  -26.7073   20.0628 O   0  0  0  0  0  0
  -26.5597  -34.8934   22.4683 O   0  0  0  0  0  0
  -23.5345  -32.1434   23.7516 O   0  0  0  0  0  0
  -32.6089  -21.4564   19.6414 C   0  0  0  0  0  0
  -31.6654  -22.5004   19.6188 C   0  0  0  0  0  0
  -30.1608  -21.1407   20.9552 C   0  0  0  0  0  0
  -32.3531  -20.2539   20.3351 C   0  0  0  0  0  0
  -30.4246  -22.3565   20.2838 C   0  0  0  0  0  0
  -31.1019  -20.0845   20.9822 C   0  0  0  0  0  0
  -34.6770  -19.7277   21.1835 C   0  0  0  0  0  0
  -33.8533  -18.6793   19.0271 C   0  0  0  0  0  0
  -30.7123  -16.5756   21.9271 C   0  0  0  0  0  0
  -30.4504  -17.7852   21.0019 C   0  0  0  0  0  0
  -28.3417  -25.3568   19.5748 C   0  0  0  0  0  0
  -29.6728  -24.5868   19.6688 C   0  0  0  0  0  0
  -33.4546  -19.1965   20.4171 C   0  0  0  0  0  0
  -30.1458  -15.3117   21.4503 N   0  0  0  0  0  0
  -29.4476  -23.3335   20.3247 O   0  0  0  0  0  0
  -30.8157  -18.9619   21.7254 O   0  0  0  0  0  0
  -31.4692  -12.4129   19.1052 H   0  0  0  0  0  0
  -30.3324  -11.2894   19.7838 H   0  0  0  0  0  0
  -29.7256  -11.8169   17.4063 H   0  0  0  0  0  0
  -29.6711  -13.5216   17.7791 H   0  0  0  0  0  0
  -27.8162  -11.3339   18.7877 H   0  0  0  0  0  0
  -27.3637  -12.6895   17.7910 H   0  0  0  0  0  0
  -27.7190  -14.2680   19.6213 H   0  0  0  0  0  0
  -28.6866  -11.9127   21.3057 H   0  0  0  0  0  0
  -28.4662  -13.5227   21.8978 H   0  0  0  0  0  0
  -25.2818   -9.5686   22.4767 H   0  0  0  0  0  0
  -24.0037   -7.4659   22.7462 H   0  0  0  0  0  0
  -21.0893   -8.8868   19.8931 H   0  0  0  0  0  0
  -22.3817  -10.9714   19.6183 H   0  0  0  0  0  0
  -21.1996   -7.6157   23.9754 H   0  0  0  0  0  0
  -21.1459   -6.0518   25.9087 H   0  0  0  0  0  0
  -22.0582   -2.7633   23.2865 H   0  0  0  0  0  0
  -22.4127  -11.9874   22.4799 H   0  0  0  0  0  0
  -21.1105  -13.1223   22.2586 H   0  0  0  0  0  0
  -24.6391  -15.8318   20.4842 H   0  0  0  0  0  0
  -26.2589  -15.6280   20.0438 H   0  0  0  0  0  0
  -26.7108  -32.5548   23.1161 H   0  0  0  0  0  0
  -25.0057  -33.9793   25.0480 H   0  0  0  0  0  0
  -22.6899  -31.3102   21.4183 H   0  0  0  0  0  0
  -23.3751  -35.9662   23.3304 H   0  0  0  0  0  0
  -24.3593  -36.8936   22.2052 H   0  0  0  0  0  0
  -23.7252  -37.6533   23.6648 H   0  0  0  0  0  0
  -26.0328  -31.5943   20.5851 H   0  0  0  0  0  0
  -26.8254  -30.8972   21.9693 H   0  0  0  0  0  0
  -28.1046  -29.0977   21.1391 H   0  0  0  0  0  0
  -25.9675  -25.9712   19.0301 H   0  0  0  0  0  0
  -23.9471  -27.2940   19.0761 H   0  0  0  0  0  0
  -23.7199  -30.6037   19.4111 H   0  0  0  0  0  0
  -22.7311  -29.2508   19.8724 H   0  0  0  0  0  0
  -25.1295  -36.1987   25.0826 H   0  0  0  0  0  0
  -20.9938  -28.3194   24.1470 H   0  0  0  0  0  0
  -20.5668  -26.2238   23.3603 H   0  0  0  0  0  0
  -21.6638  -26.7439   22.1224 H   0  0  0  0  0  0
  -19.6909  -25.6304   21.1236 H   0  0  0  0  0  0
  -19.6720  -27.3214   20.6764 H   0  0  0  0  0  0
  -17.4202  -26.6708   21.3992 H   0  0  0  0  0  0
  -18.0297  -26.0071   22.8988 H   0  0  0  0  0  0
  -19.7911  -30.7256   24.2311 H   0  0  0  0  0  0
  -17.4992  -31.6268   24.5153 H   0  0  0  0  0  0
  -15.5338  -30.2984   23.7654 H   0  0  0  0  0  0
  -15.8657  -28.0838   22.7038 H   0  0  0  0  0  0
  -24.5939  -30.7020   25.7807 H   0  0  0  0  0  0
  -24.8902  -32.2840   26.4909 H   0  0  0  0  0  0
  -25.8106  -30.8886   27.0223 H   0  0  0  0  0  0
  -26.2781  -29.6844   24.1128 H   0  0  0  0  0  0
  -27.4116  -29.7281   25.4453 H   0  0  0  0  0  0
  -27.8594  -30.4413   23.9117 H   0  0  0  0  0  0
  -27.2708  -33.3602   26.2087 H   0  0  0  0  0  0
  -28.3845  -32.6891   25.0270 H   0  0  0  0  0  0
  -28.0763  -31.8405   26.5339 H   0  0  0  0  0  0
  -28.2612  -38.0107   24.7506 H   0  0  0  0  0  0
  -28.1080  -36.2637   24.6287 H   0  0  0  0  0  0
  -27.2306  -37.1471   25.8864 H   0  0  0  0  0  0
  -20.9296  -29.8759   21.7011 H   0  0  0  0  0  0
  -26.0193  -38.2876   24.1417 H   0  0  0  0  0  0
  -33.5555  -21.5969   19.1380 H   0  0  0  0  0  0
  -31.9320  -23.4052   19.0923 H   0  0  0  0  0  0
  -29.2206  -21.0211   21.4764 H   0  0  0  0  0  0
  -34.3915  -20.0954   22.1697 H   0  0  0  0  0  0
  -35.1652  -20.5464   20.6546 H   0  0  0  0  0  0
  -35.4240  -18.9453   21.3253 H   0  0  0  0  0  0
  -32.9800  -18.3785   18.4457 H   0  0  0  0  0  0
  -34.5065  -17.8084   19.1074 H   0  0  0  0  0  0
  -34.3864  -19.4385   18.4545 H   0  0  0  0  0  0
  -30.2666  -16.7727   22.9031 H   0  0  0  0  0  0
  -31.7830  -16.4621   22.1056 H   0  0  0  0  0  0
  -29.3932  -17.8476   20.7420 H   0  0  0  0  0  0
  -31.0080  -17.6855   20.0694 H   0  0  0  0  0  0
  -27.5877  -24.8141   20.1481 H   0  0  0  0  0  0
  -28.0183  -25.3515   18.5321 H   0  0  0  0  0  0
  -30.4169  -25.1622   20.2205 H   0  0  0  0  0  0
  -30.0482  -24.4392   18.6546 H   0  0  0  0  0  0
  -33.0872  -18.3405   20.9821 H   0  0  0  0  0  0
  -29.2518  -15.0377   21.8285 H   0  0  0  0  0  0
  1 25  1  0  0  0
  1 30  2  0  0  0
  1 84  1  0  0  0
  2  3  1  0  0  0
  2 25  1  0  0  0
  2 87  1  0  0  0
  2 88  1  0  0  0
  3  4  1  0  0  0
  3 89  1  0  0  0
  3 90  1  0  0  0
  4  5  1  0  0  0
  4 91  1  0  0  0
  4 92  1  0  0  0
  5  6  1  0  0  0
  5 26  1  0  0  0
  5 93  1  0  0  0
  6 25  1  0  0  0
  6 94  1  0  0  0
  6 95  1  0  0  0
  7  8  2  0  0  0
  7 26  1  0  0  0
  7 29  1  0  0  0
  8  9  1  0  0  0
  8 22  1  0  0  0
  9 10  1  0  0  0
  9 27  2  0  0  0
 10 11  2  0  0  0
 10 15  1  0  0  0
 11 12  1  0  0  0
 11 96  1  0  0  0
 12 13  2  0  0  0
 12 97  1  0  0  0
 13 14  1  0  0  0
 13 31  1  0  0  0
 14 15  2  0  0  0
 14 98  1  0  0  0
 15 99  1  0  0  0
 16 17  2  0  0  0
 16 21  1  0  0  0
 16 31  1  0  0  0
 17 18  1  0  0  0
 17100  1  0  0  0
 18 19  2  0  0  0
 18101  1  0  0  0
 19 20  1  0  0  0
 19 24  1  0  0  0
 20 21  2  0  0  0
 20102  1  0  0  0
 21 23  1  0  0  0
 22 28  1  0  0  0
 22 32  2  0  0  0
 26 27  1  0  0  0
 28103  1  0  0  0
 28104  1  0  0  0
 29105  1  0  0  0
 29106  1  0  0  0
 33 34  1  0  0  0
 33 66  1  0  0  0
 33 70  2  0  0  0
 34 36  1  0  0  0
 34 59  1  0  0  0
 34107  1  0  0  0
 35 44  2  0  0  0
 35 45  1  0  0  0
 35 68  1  0  0  0
 36 56  1  0  0  0
 36108  1  0  0  0
 37 39  1  0  0  0
 37 47  1  0  0  0
 37 66  1  0  0  0
 37109  1  0  0  0
 38 43  2  0  0  0
 38 46  1  0  0  0
 38 47  1  0  0  0
 39 64  1  0  0  0
 39 67  2  0  0  0
 40 52  1  0  0  0
 40 53  2  0  0  0
 40 58  1  0  0  0
 41110  1  0  0  0
 41111  1  0  0  0
 41112  1  0  0  0
 41 48  1  0  0  0
 42 43  1  0  0  0
 42 66  1  0  0  0
 42113  1  0  0  0
 42114  1  0  0  0
 43 44  1  0  0  0
 44115  1  0  0  0
 45 46  2  0  0  0
 45116  1  0  0  0
 46117  1  0  0  0
 47118  1  0  0  0
 47119  1  0  0  0
 48 56  1  0  0  0
 48 65  1  0  0  0
 48120  1  0  0  0
 49 50  1  0  0  0
 49 53  1  0  0  0
 49 64  1  0  0  0
 49121  1  0  0  0
 50 51  1  0  0  0
 50122  1  0  0  0
 50123  1  0  0  0
 51 52  1  0  0  0
 51124  1  0  0  0
 51125  1  0  0  0
 52126  1  0  0  0
 52127  1  0  0  0
 53 54  1  0  0  0
 54 55  2  0  0  0
 54128  1  0  0  0
 55 57  1  0  0  0
 55129  1  0  0  0
 56 69  2  0  0  0
 57 58  2  0  0  0
 57130  1  0  0  0
 58131  1  0  0  0
 59 60  1  0  0  0
 59 61  1  0  0  0
 59 62  1  0  0  0
 60132  1  0  0  0
 60133  1  0  0  0
 60134  1  0  0  0
 61135  1  0  0  0
 61136  1  0  0  0
 61137  1  0  0  0
 62138  1  0  0  0
 62139  1  0  0  0
 62140  1  0  0  0
 63 65  1  0  0  0
 63141  1  0  0  0
 63142  1  0  0  0
 63143  1  0  0  0
 64144  1  0  0  0
 65145  1  0  0  0
 68 81  1  0  0  0
 71 72  2  0  0  0
 71 74  1  0  0  0
 71146  1  0  0  0
 72 75  1  0  0  0
 72147  1  0  0  0
 73 75  2  0  0  0
 73 76  1  0  0  0
 73148  1  0  0  0
 74 76  2  0  0  0
 74 83  1  0  0  0
 75 85  1  0  0  0
 76 86  1  0  0  0
 77149  1  0  0  0
 77150  1  0  0  0
 77151  1  0  0  0
 77 83  1  0  0  0
 78 83  1  0  0  0
 78152  1  0  0  0
 78153  1  0  0  0
 78154  1  0  0  0
 79 80  1  0  0  0
 79 84  1  0  0  0
 79155  1  0  0  0
 79156  1  0  0  0
 80 86  1  0  0  0
 80157  1  0  0  0
 80158  1  0  0  0
 81 82  1  0  0  0
 81159  1  0  0  0
 81160  1  0  0  0
 82 85  1  0  0  0
 82161  1  0  0  0
 82162  1  0  0  0
 83163  1  0  0  0
 84164  1  0  0  0
M  ISO  4   1 100  68 101  81 101  84 100
M  END
> <chiral flag>
0

> <version>
0

> <s_m_source_file>
/data/baiqing/PycharmProjects/Reinvent-master-3.2/result/LINK_invent/BTK/process_docking_weight1_custom_sum_contain_oxygen_bond_distance_aromatic_linkinvent_7_9_3/rearranged_h_0144.sdf

> <i_m_source_file_index>
66

> <r_mmod_Potential_Energy-OPLS-2005>
-95.5149688720703

> <r_mmod_Stretch_Energy-OPLS-2005>
36.9090423583984

> <r_mmod_Bend_Energy-OPLS-2005>
104.655715942383

> <r_mmod_Torsional_Energy-OPLS-2005>
221.119445800781

> <r_mmod_Improper_Torsional_Energy-OPLS-2005>
2.41360950469971

> <r_mmod_Van_der_Waal_Energy-OPLS-2005>
162.733795166016

> <r_mmod_Electrostatic_Energy-OPLS-2005>
-423.242034912109

> <r_mmod_Solvation_Energy-OPLS-2005>
-209.716491699219

> <b_mmod_Minimization_Converged-OPLS-2005>
0

> <r_mmod_RMS_Derivative-OPLS-2005>
2.93628287315369

$$$$
67
                    3D
 Structure written by MMmdl.
172181  0  0  1  0            999 V2000
  -30.7289  -14.4955   20.3122 C   0  0  0  0  0  0
  -30.4041  -12.2823   19.3703 C   0  0  0  0  0  0
  -29.4307  -12.3978   18.1707 C   0  0  0  0  0  0
  -27.9757  -12.2749   18.6399 C   0  0  0  0  0  0
  -27.6485  -13.1981   19.8434 C   0  0  2  0  0  0
  -28.7278  -13.0991   20.9485 C   0  0  0  0  0  0
  -25.2587  -13.8157   20.5740 C   0  0  0  0  0  0
  -24.1837  -13.0470   20.9219 C   0  0  0  0  0  0
  -24.6332  -11.6907   20.8797 C   0  0  0  0  0  0
  -23.8985  -10.4303   21.0445 C   0  0  0  0  0  0
  -24.3528   -9.4217   21.9220 C   0  0  0  0  0  0
  -23.6213   -8.2245   22.0769 C   0  0  0  0  0  0
  -22.4208   -8.0276   21.3534 C   0  0  0  0  0  0
  -21.9855   -9.0251   20.4625 C   0  0  0  0  0  0
  -22.7173  -10.2137   20.3071 C   0  0  0  0  0  0
  -21.6840   -6.0704   22.5244 C   0  0  0  0  0  0
  -21.4017   -6.5629   23.8178 C   0  0  0  0  0  0
  -21.3615   -5.6778   24.9139 C   0  0  0  0  0  0
  -21.6024   -4.3052   24.7181 C   0  0  0  0  0  0
  -21.8839   -3.8129   23.4318 C   0  0  0  0  0  0
  -21.9178   -4.6948   22.3364 C   0  0  0  0  0  0
  -22.7848  -13.5276   21.1839 C   0  0  0  0  0  0
  -22.1679   -4.2131   21.0946 F   0  0  0  0  0  0
  -21.5604   -3.4545   25.7707 F   0  0  0  0  0  0
  -30.0362  -13.3298   20.3284 N   0  0  0  0  0  0
  -26.3014  -12.9307   20.3427 N   0  0  0  0  0  0
  -25.9273  -11.6473   20.5914 N   0  0  0  0  0  0
  -22.0479  -12.8273   22.0373 N   0  0  0  0  0  0
  -25.4321  -15.1859   20.4065 N   0  0  0  0  0  0
  -31.9466  -14.5422   20.4760 O   0  0  0  0  0  0
  -21.6600   -6.8850   21.4204 O   0  0  0  0  0  0
  -22.3554  -14.5573   20.6648 O   0  0  0  0  0  0
  -24.6102  -31.8701   23.2140 C   0  0  0  0  0  0
  -25.9018  -32.4816   23.8429 C   0  0  1  0  0  0
  -27.2414  -27.4557   20.1179 C   0  0  0  0  0  0
  -25.5876  -33.8609   24.2350 N   0  0  0  0  0  0
  -23.4010  -30.4924   21.5504 C   0  0  2  0  0  0
  -24.8529  -28.9620   20.1143 C   0  0  0  0  0  0
  -22.7398  -29.4669   22.4987 C   0  0  0  0  0  0
  -18.0263  -28.1388   22.8512 C   0  0  0  0  0  0
  -24.1472  -36.7319   23.2644 C   0  0  0  0  0  0
  -25.9279  -30.8407   21.3714 C   0  0  0  0  0  0
  -26.0068  -29.4772   20.7208 C   0  0  0  0  0  0
  -27.2053  -28.7305   20.7275 C   0  0  0  0  0  0
  -26.0841  -26.9628   19.4859 C   0  0  0  0  0  0
  -24.8860  -27.7015   19.4905 C   0  0  0  0  0  0
  -23.6114  -29.8230   20.1651 C   0  0  0  0  0  0
  -25.4079  -36.3120   24.0352 C   0  0  1  0  0  0
  -20.5867  -28.3667   23.1311 C   0  0  2  0  0  0
  -20.6750  -26.9390   22.5422 C   0  0  0  0  0  0
  -19.5718  -26.6378   21.5223 C   0  0  0  0  0  0
  -18.1901  -26.7937   22.1635 C   0  0  0  0  0  0
  -19.1526  -28.8849   23.2901 C   0  0  0  0  0  0
  -18.9444  -30.1477   23.8892 C   0  0  0  0  0  0
  -17.6440  -30.6603   24.0569 C   0  0  0  0  0  0
  -25.9013  -34.9467   23.5159 C   0  0  0  0  0  0
  -16.5329  -29.9098   23.6339 C   0  0  0  0  0  0
  -16.7239  -28.6509   23.0361 C   0  0  0  0  0  0
  -26.4460  -31.6598   25.0743 C   0  0  0  0  0  0
  -25.3749  -31.3690   26.1505 C   0  0  0  0  0  0
  -27.0316  -30.3051   24.6147 C   0  0  0  0  0  0
  -27.6036  -32.4323   25.7489 C   0  0  0  0  0  0
  -27.5577  -37.1807   24.8465 C   0  0  0  0  0  0
  -21.4132  -29.3055   22.3724 N   0  0  0  0  0  0
  -26.4292  -37.3780   23.9406 N   0  0  0  0  0  0
  -24.6635  -31.0825   22.1036 N   0  0  0  0  0  0
  -23.4175  -28.8200   23.3002 O   0  0  0  0  0  0
  -28.3610  -26.6612   20.1042 O   0  0  0  0  0  0
  -26.5580  -34.8909   22.4716 O   0  0  0  0  0  0
  -23.5289  -32.1439   23.7530 O   0  0  0  0  0  0
  -30.2739  -16.4004   17.2289 C   0  0  0  0  0  0
  -29.6520  -17.3797   18.2079 C   0  0  0  0  0  0
  -26.3831  -21.5602   21.7545 C   0  0  0  0  0  0
  -31.0310  -15.4664   18.1518 C   0  0  0  0  0  0
  -27.8837  -21.6175   22.0005 C   0  0  1  0  0  0
  -27.3023  -20.6661   20.9600 C   0  0  1  0  0  0
  -29.8761  -16.7824   19.6247 C   0  0  1  0  0  0
  -30.2926  -22.2290   21.9779 C   0  0  0  0  0  0
  -28.6941  -17.1191   20.5750 C   0  0  0  0  0  0
  -28.6784  -18.6437   20.8800 C   0  0  0  0  0  0
  -29.5935  -25.0749   21.4507 C   0  0  0  0  0  0
  -29.0516  -26.5170   21.3494 C   0  0  0  0  0  0
  -28.8942  -22.6527   21.4829 C   0  0  2  0  0  0
  -30.2264  -15.3632   19.3909 N   0  0  0  0  0  0
  -27.3807  -19.2209   21.3154 N   0  3  0  0  0  0
  -28.5674  -24.0623   21.8455 N   0  3  0  0  0  0
  -31.4372  -12.3788   19.0232 H   0  0  0  0  0  0
  -30.3268  -11.2976   19.8360 H   0  0  0  0  0  0
  -29.6510  -11.6301   17.4295 H   0  0  0  0  0  0
  -29.5131  -13.3442   17.6463 H   0  0  0  0  0  0
  -27.8195  -11.2329   18.9217 H   0  0  0  0  0  0
  -27.2875  -12.4718   17.8146 H   0  0  0  0  0  0
  -27.6597  -14.2178   19.4546 H   0  0  0  0  0  0
  -28.7183  -12.1143   21.4185 H   0  0  0  0  0  0
  -28.5373  -13.8245   21.7412 H   0  0  0  0  0  0
  -25.2673   -9.5729   22.4789 H   0  0  0  0  0  0
  -23.9907   -7.4661   22.7514 H   0  0  0  0  0  0
  -21.0800   -8.8748   19.8902 H   0  0  0  0  0  0
  -22.3635  -10.9658   19.6166 H   0  0  0  0  0  0
  -21.2057   -7.6154   23.9697 H   0  0  0  0  0  0
  -21.1404   -6.0500   25.9034 H   0  0  0  0  0  0
  -22.0655   -2.7597   23.2800 H   0  0  0  0  0  0
  -22.4102  -11.9919   22.4719 H   0  0  0  0  0  0
  -21.1110  -13.1315   22.2565 H   0  0  0  0  0  0
  -24.6554  -15.8332   20.4735 H   0  0  0  0  0  0
  -26.2740  -15.5994   20.0315 H   0  0  0  0  0  0
  -26.7093  -32.5553   23.1214 H   0  0  0  0  0  0
  -25.0049  -33.9779   25.0510 H   0  0  0  0  0  0
  -22.6906  -31.3107   21.4106 H   0  0  0  0  0  0
  -23.3742  -35.9662   23.3339 H   0  0  0  0  0  0
  -24.3567  -36.8892   22.2067 H   0  0  0  0  0  0
  -23.7258  -37.6522   23.6648 H   0  0  0  0  0  0
  -26.0512  -31.6063   20.6052 H   0  0  0  0  0  0
  -26.8116  -30.8867   21.9951 H   0  0  0  0  0  0
  -28.0918  -29.1356   21.1940 H   0  0  0  0  0  0
  -26.1093  -25.9970   19.0018 H   0  0  0  0  0  0
  -24.0036  -27.3020   19.0088 H   0  0  0  0  0  0
  -23.7143  -30.5972   19.4052 H   0  0  0  0  0  0
  -22.7383  -29.2371   19.8733 H   0  0  0  0  0  0
  -25.1274  -36.1984   25.0858 H   0  0  0  0  0  0
  -20.9961  -28.3244   24.1429 H   0  0  0  0  0  0
  -20.5638  -26.2275   23.3630 H   0  0  0  0  0  0
  -21.6613  -26.7435   22.1209 H   0  0  0  0  0  0
  -19.6858  -25.6285   21.1262 H   0  0  0  0  0  0
  -19.6650  -27.3166   20.6750 H   0  0  0  0  0  0
  -17.4178  -26.6734   21.4024 H   0  0  0  0  0  0
  -18.0246  -26.0065   22.9013 H   0  0  0  0  0  0
  -19.7926  -30.7301   24.2219 H   0  0  0  0  0  0
  -17.5004  -31.6276   24.5178 H   0  0  0  0  0  0
  -15.5336  -30.2990   23.7660 H   0  0  0  0  0  0
  -15.8652  -28.0815   22.7079 H   0  0  0  0  0  0
  -24.5845  -30.7111   25.7836 H   0  0  0  0  0  0
  -24.9007  -32.2852   26.5074 H   0  0  0  0  0  0
  -25.8103  -30.8748   27.0216 H   0  0  0  0  0  0
  -26.2880  -29.6764   24.1250 H   0  0  0  0  0  0
  -27.4128  -29.7332   25.4614 H   0  0  0  0  0  0
  -27.8676  -30.4375   23.9303 H   0  0  0  0  0  0
  -27.2672  -33.3631   26.2071 H   0  0  0  0  0  0
  -28.3816  -32.6863   25.0294 H   0  0  0  0  0  0
  -28.0728  -31.8456   26.5393 H   0  0  0  0  0  0
  -28.2593  -38.0101   24.7527 H   0  0  0  0  0  0
  -28.1094  -36.2654   24.6304 H   0  0  0  0  0  0
  -27.2317  -37.1444   25.8867 H   0  0  0  0  0  0
  -20.9282  -29.8815   21.6996 H   0  0  0  0  0  0
  -26.0206  -38.2860   24.1393 H   0  0  0  0  0  0
  -30.9327  -16.8749   16.5009 H   0  0  0  0  0  0
  -29.4999  -15.8525   16.6855 H   0  0  0  0  0  0
  -28.5914  -17.4969   17.9756 H   0  0  0  0  0  0
  -30.1185  -18.3626   18.1200 H   0  0  0  0  0  0
  -25.9262  -22.4035   21.2406 H   0  0  0  0  0  0
  -25.7707  -21.1150   22.5393 H   0  0  0  0  0  0
  -32.0088  -15.9129   18.3707 H   0  0  0  0  0  0
  -31.2555  -14.5160   17.6685 H   0  0  0  0  0  0
  -28.1490  -21.2091   22.9754 H   0  0  0  0  0  0
  -27.3938  -20.8663   19.8925 H   0  0  0  0  0  0
  -30.7757  -17.2406   20.0481 H   0  0  0  0  0  0
  -30.5032  -21.1977   21.6936 H   0  0  0  0  0  0
  -30.3561  -22.2832   23.0663 H   0  0  0  0  0  0
  -31.0894  -22.8415   21.5611 H   0  0  0  0  0  0
  -28.7646  -16.5600   21.5097 H   0  0  0  0  0  0
  -27.7616  -16.8164   20.0990 H   0  0  0  0  0  0
  -28.9668  -19.1836   19.9785 H   0  0  0  0  0  0
  -29.4452  -18.8902   21.6145 H   0  0  0  0  0  0
  -30.3931  -25.0547   22.1927 H   0  0  0  0  0  0
  -30.0481  -24.8058   20.4954 H   0  0  0  0  0  0
  -29.8840  -27.2215   21.3527 H   0  0  0  0  0  0
  -28.4356  -26.7537   22.2188 H   0  0  0  0  0  0
  -28.8959  -22.6071   20.3919 H   0  0  0  0  0  0
  -26.6399  -18.7505   20.8219 H   0  0  0  0  0  0
  -27.2322  -19.0528   22.2974 H   0  0  0  0  0  0
  -27.7074  -24.3056   21.3760 H   0  0  0  0  0  0
  -28.3953  -24.1290   22.8380 H   0  0  0  0  0  0
  1 25  1  0  0  0
  1 30  2  0  0  0
  1 84  1  0  0  0
  2  3  1  0  0  0
  2 25  1  0  0  0
  2 87  1  0  0  0
  2 88  1  0  0  0
  3  4  1  0  0  0
  3 89  1  0  0  0
  3 90  1  0  0  0
  4  5  1  0  0  0
  4 91  1  0  0  0
  4 92  1  0  0  0
  5  6  1  0  0  0
  5 26  1  0  0  0
  5 93  1  0  0  0
  6 25  1  0  0  0
  6 94  1  0  0  0
  6 95  1  0  0  0
  7  8  2  0  0  0
  7 26  1  0  0  0
  7 29  1  0  0  0
  8  9  1  0  0  0
  8 22  1  0  0  0
  9 10  1  0  0  0
  9 27  2  0  0  0
 10 11  2  0  0  0
 10 15  1  0  0  0
 11 12  1  0  0  0
 11 96  1  0  0  0
 12 13  2  0  0  0
 12 97  1  0  0  0
 13 14  1  0  0  0
 13 31  1  0  0  0
 14 15  2  0  0  0
 14 98  1  0  0  0
 15 99  1  0  0  0
 16 17  2  0  0  0
 16 21  1  0  0  0
 16 31  1  0  0  0
 17 18  1  0  0  0
 17100  1  0  0  0
 18 19  2  0  0  0
 18101  1  0  0  0
 19 20  1  0  0  0
 19 24  1  0  0  0
 20 21  2  0  0  0
 20102  1  0  0  0
 21 23  1  0  0  0
 22 28  1  0  0  0
 22 32  2  0  0  0
 26 27  1  0  0  0
 28103  1  0  0  0
 28104  1  0  0  0
 29105  1  0  0  0
 29106  1  0  0  0
 33 34  1  0  0  0
 33 66  1  0  0  0
 33 70  2  0  0  0
 34 36  1  0  0  0
 34 59  1  0  0  0
 34107  1  0  0  0
 35 44  2  0  0  0
 35 45  1  0  0  0
 35 68  1  0  0  0
 36 56  1  0  0  0
 36108  1  0  0  0
 37 39  1  0  0  0
 37 47  1  0  0  0
 37 66  1  0  0  0
 37109  1  0  0  0
 38 43  2  0  0  0
 38 46  1  0  0  0
 38 47  1  0  0  0
 39 64  1  0  0  0
 39 67  2  0  0  0
 40 52  1  0  0  0
 40 53  2  0  0  0
 40 58  1  0  0  0
 41110  1  0  0  0
 41111  1  0  0  0
 41112  1  0  0  0
 41 48  1  0  0  0
 42 43  1  0  0  0
 42 66  1  0  0  0
 42113  1  0  0  0
 42114  1  0  0  0
 43 44  1  0  0  0
 44115  1  0  0  0
 45 46  2  0  0  0
 45116  1  0  0  0
 46117  1  0  0  0
 47118  1  0  0  0
 47119  1  0  0  0
 48 56  1  0  0  0
 48 65  1  0  0  0
 48120  1  0  0  0
 49 50  1  0  0  0
 49 53  1  0  0  0
 49 64  1  0  0  0
 49121  1  0  0  0
 50 51  1  0  0  0
 50122  1  0  0  0
 50123  1  0  0  0
 51 52  1  0  0  0
 51124  1  0  0  0
 51125  1  0  0  0
 52126  1  0  0  0
 52127  1  0  0  0
 53 54  1  0  0  0
 54 55  2  0  0  0
 54128  1  0  0  0
 55 57  1  0  0  0
 55129  1  0  0  0
 56 69  2  0  0  0
 57 58  2  0  0  0
 57130  1  0  0  0
 58131  1  0  0  0
 59 60  1  0  0  0
 59 61  1  0  0  0
 59 62  1  0  0  0
 60132  1  0  0  0
 60133  1  0  0  0
 60134  1  0  0  0
 61135  1  0  0  0
 61136  1  0  0  0
 61137  1  0  0  0
 62138  1  0  0  0
 62139  1  0  0  0
 62140  1  0  0  0
 63 65  1  0  0  0
 63141  1  0  0  0
 63142  1  0  0  0
 63143  1  0  0  0
 64144  1  0  0  0
 65145  1  0  0  0
 68 82  1  0  0  0
 71 72  1  0  0  0
 71 74  1  0  0  0
 71146  1  0  0  0
 71147  1  0  0  0
 72 77  1  0  0  0
 72148  1  0  0  0
 72149  1  0  0  0
 73 76  1  0  0  0
 73150  1  0  0  0
 73151  1  0  0  0
 73 75  1  0  0  0
 74 84  1  0  0  0
 74152  1  0  0  0
 74153  1  0  0  0
 75 76  1  0  0  0
 75 83  1  0  0  0
 75154  1  0  0  0
 76 85  1  0  0  0
 76155  1  0  0  0
 77 79  1  0  0  0
 77 84  1  0  0  0
 77156  1  0  0  0
 78157  1  0  0  0
 78158  1  0  0  0
 78159  1  0  0  0
 78 83  1  0  0  0
 79 80  1  0  0  0
 79160  1  0  0  0
 79161  1  0  0  0
 80 85  1  0  0  0
 80162  1  0  0  0
 80163  1  0  0  0
 81 82  1  0  0  0
 81 86  1  0  0  0
 81164  1  0  0  0
 81165  1  0  0  0
 82166  1  0  0  0
 82167  1  0  0  0
 83 86  1  0  0  0
 83168  1  0  0  0
 85169  1  0  0  0
 85170  1  0  0  0
 86171  1  0  0  0
 86172  1  0  0  0
M  CHG  2  85   1  86   1
M  ISO  4   1 100  68 101  82 101  84 100
M  END
> <chiral flag>
0

> <version>
0

> <s_m_source_file>
/data/baiqing/PycharmProjects/Reinvent-master-3.2/result/LINK_invent/BTK/process_docking_weight1_custom_sum_contain_oxygen_bond_distance_aromatic_linkinvent_7_9_3/rearranged_h_0144.sdf

> <i_m_source_file_index>
67

> <r_mmod_Potential_Energy-OPLS-2005>
121.913177490234

> <r_mmod_Stretch_Energy-OPLS-2005>
39.7646369934082

> <r_mmod_Bend_Energy-OPLS-2005>
164.156723022461

> <r_mmod_Torsional_Energy-OPLS-2005>
465.416076660156

> <r_mmod_Improper_Torsional_Energy-OPLS-2005>
35.2312622070312

> <r_mmod_Van_der_Waal_Energy-OPLS-2005>
124.559783935547

> <r_mmod_Electrostatic_Energy-OPLS-2005>
184.648345947266

> <r_mmod_Solvation_Energy-OPLS-2005>
-945.837341308594

> <b_mmod_Minimization_Converged-OPLS-2005>
0

> <r_mmod_RMS_Derivative-OPLS-2005>
5.26886940002441

$$$$
68
                    3D
 Structure written by MMmdl.
162170  0  0  1  0            999 V2000
  -30.7572  -14.3857   20.6592 C   0  0  0  0  0  0
  -30.4121  -12.2952   19.3943 C   0  0  0  0  0  0
  -29.4812  -12.5258   18.1897 C   0  0  0  0  0  0
  -28.0064  -12.3779   18.6084 C   0  0  0  0  0  0
  -27.6617  -13.2048   19.8754 C   0  0  2  0  0  0
  -28.7002  -12.9559   20.9901 C   0  0  0  0  0  0
  -25.2581  -13.8156   20.5664 C   0  0  0  0  0  0
  -24.1828  -13.0434   20.9170 C   0  0  0  0  0  0
  -24.6379  -11.6903   20.8718 C   0  0  0  0  0  0
  -23.9043  -10.4287   21.0395 C   0  0  0  0  0  0
  -24.3596   -9.4209   21.9184 C   0  0  0  0  0  0
  -23.6280   -8.2240   22.0757 C   0  0  0  0  0  0
  -22.4265   -8.0272   21.3539 C   0  0  0  0  0  0
  -21.9895   -9.0239   20.4637 C   0  0  0  0  0  0
  -22.7218  -10.2122   20.3044 C   0  0  0  0  0  0
  -21.6851   -6.0730   22.5273 C   0  0  0  0  0  0
  -21.4013   -6.5634   23.8205 C   0  0  0  0  0  0
  -21.3662   -5.6785   24.9169 C   0  0  0  0  0  0
  -21.6046   -4.3052   24.7220 C   0  0  0  0  0  0
  -21.8821   -3.8144   23.4342 C   0  0  0  0  0  0
  -21.9191   -4.6957   22.3399 C   0  0  0  0  0  0
  -22.7851  -13.5234   21.1845 C   0  0  0  0  0  0
  -22.1661   -4.2144   21.0978 F   0  0  0  0  0  0
  -21.5631   -3.4538   25.7737 F   0  0  0  0  0  0
  -30.0397  -13.2510   20.4480 N   0  0  0  0  0  0
  -26.3017  -12.9324   20.3353 N   0  0  0  0  0  0
  -25.9302  -11.6484   20.5738 N   0  0  0  0  0  0
  -22.0479  -12.8214   22.0384 N   0  0  0  0  0  0
  -25.4304  -15.1874   20.4085 N   0  0  0  0  0  0
  -31.8124  -14.6370   20.0697 O   0  0  0  0  0  0
  -21.6631   -6.8869   21.4236 O   0  0  0  0  0  0
  -22.3541  -14.5553   20.6713 O   0  0  0  0  0  0
  -24.6106  -31.8686   23.2114 C   0  0  0  0  0  0
  -25.9000  -32.4817   23.8406 C   0  0  1  0  0  0
  -27.2401  -27.4526   20.0765 C   0  0  0  0  0  0
  -25.5856  -33.8616   24.2321 N   0  0  0  0  0  0
  -23.3961  -30.4917   21.5539 C   0  0  2  0  0  0
  -24.8411  -28.9578   20.1180 C   0  0  0  0  0  0
  -22.7365  -29.4665   22.5038 C   0  0  0  0  0  0
  -18.0249  -28.1370   22.8495 C   0  0  0  0  0  0
  -24.1481  -36.7330   23.2645 C   0  0  0  0  0  0
  -25.9236  -30.8359   21.3634 C   0  0  0  0  0  0
  -25.9991  -29.4702   20.7136 C   0  0  0  0  0  0
  -27.1962  -28.7207   20.6980 C   0  0  0  0  0  0
  -26.0566  -26.9471   19.4868 C   0  0  0  0  0  0
  -24.8630  -27.6925   19.5072 C   0  0  0  0  0  0
  -23.6003  -29.8216   20.1701 C   0  0  0  0  0  0
  -25.4097  -36.3106   24.0335 C   0  0  1  0  0  0
  -20.5827  -28.3644   23.1349 C   0  0  2  0  0  0
  -20.6736  -26.9388   22.5422 C   0  0  0  0  0  0
  -19.5720  -26.6379   21.5205 C   0  0  0  0  0  0
  -18.1895  -26.7914   22.1617 C   0  0  0  0  0  0
  -19.1493  -28.8829   23.2923 C   0  0  0  0  0  0
  -18.9426  -30.1441   23.8920 C   0  0  0  0  0  0
  -17.6424  -30.6579   24.0567 C   0  0  0  0  0  0
  -25.9020  -34.9471   23.5135 C   0  0  0  0  0  0
  -16.5320  -29.9076   23.6341 C   0  0  0  0  0  0
  -16.7239  -28.6496   23.0354 C   0  0  0  0  0  0
  -26.4428  -31.6596   25.0730 C   0  0  0  0  0  0
  -25.3692  -31.3633   26.1475 C   0  0  0  0  0  0
  -27.0294  -30.3059   24.6090 C   0  0  0  0  0  0
  -27.5994  -32.4334   25.7478 C   0  0  0  0  0  0
  -27.5572  -37.1814   24.8456 C   0  0  0  0  0  0
  -21.4095  -29.3022   22.3770 N   0  0  0  0  0  0
  -26.4285  -37.3787   23.9401 N   0  0  0  0  0  0
  -24.6616  -31.0794   22.1011 N   0  0  0  0  0  0
  -23.4146  -28.8221   23.3082 O   0  0  0  0  0  0
  -28.4404  -26.7702   20.0760 O   0  0  0  0  0  0
  -26.5605  -34.8923   22.4713 O   0  0  0  0  0  0
  -23.5306  -32.1440   23.7529 O   0  0  0  0  0  0
  -28.3865  -20.1876   21.3854 C   0  0  0  0  0  0
  -30.5499  -20.3772   20.2985 C   0  0  0  0  0  0
  -28.2264  -21.5892   21.3376 C   0  0  0  0  0  0
  -30.3983  -21.7809   20.2369 C   0  0  0  0  0  0
  -29.5460  -19.5691   20.8790 C   0  0  0  0  0  0
  -29.2348  -22.3979   20.7538 C   0  0  0  0  0  0
  -26.9731  -22.1932   21.9443 C   0  0  0  0  0  0
  -31.4864  -22.6255   19.5977 C   0  0  0  0  0  0
  -30.9828  -17.5895   21.1557 C   0  0  0  0  0  0
  -30.9538  -16.3898   22.1220 C   0  0  0  0  0  0
  -28.6116  -25.6280   19.2294 C   0  0  0  0  0  0
  -28.1253  -24.3107   19.8701 C   0  0  0  0  0  0
  -29.6584  -18.1727   20.9724 N   0  0  0  0  0  0
  -30.2611  -15.2206   21.5812 N   0  0  0  0  0  0
  -29.1448  -23.7718   20.7124 O   0  0  0  0  0  0
  -31.4554  -12.3913   19.0894 H   0  0  0  0  0  0
  -30.3071  -11.2742   19.7657 H   0  0  0  0  0  0
  -29.7153  -11.8218   17.3900 H   0  0  0  0  0  0
  -29.6489  -13.5223   17.7787 H   0  0  0  0  0  0
  -27.8190  -11.3196   18.7955 H   0  0  0  0  0  0
  -27.3502  -12.6604   17.7838 H   0  0  0  0  0  0
  -27.7163  -14.2574   19.5979 H   0  0  0  0  0  0
  -28.6631  -11.9128   21.3093 H   0  0  0  0  0  0
  -28.4488  -13.5351   21.8786 H   0  0  0  0  0  0
  -25.2738   -9.5694   22.4761 H   0  0  0  0  0  0
  -23.9989   -7.4638   22.7481 H   0  0  0  0  0  0
  -21.0831   -8.8753   19.8941 H   0  0  0  0  0  0
  -22.3680  -10.9655   19.6147 H   0  0  0  0  0  0
  -21.2005   -7.6140   23.9708 H   0  0  0  0  0  0
  -21.1487   -6.0517   25.9068 H   0  0  0  0  0  0
  -22.0599   -2.7607   23.2843 H   0  0  0  0  0  0
  -22.4077  -11.9850   22.4742 H   0  0  0  0  0  0
  -21.1096  -13.1240   22.2583 H   0  0  0  0  0  0
  -24.6650  -15.8452   20.5096 H   0  0  0  0  0  0
  -26.2902  -15.6230   20.0989 H   0  0  0  0  0  0
  -26.7072  -32.5510   23.1172 H   0  0  0  0  0  0
  -24.9919  -33.9772   25.0408 H   0  0  0  0  0  0
  -22.6852  -31.3090   21.4165 H   0  0  0  0  0  0
  -23.3719  -35.9678   23.3296 H   0  0  0  0  0  0
  -24.3585  -36.8968   22.2062 H   0  0  0  0  0  0
  -23.7276  -37.6544   23.6677 H   0  0  0  0  0  0
  -26.0310  -31.5994   20.5914 H   0  0  0  0  0  0
  -26.8123  -30.8915   21.9785 H   0  0  0  0  0  0
  -28.0937  -29.1182   21.1513 H   0  0  0  0  0  0
  -26.0295  -25.9813   19.0065 H   0  0  0  0  0  0
  -23.9700  -27.2882   19.0503 H   0  0  0  0  0  0
  -23.6989  -30.5925   19.4063 H   0  0  0  0  0  0
  -22.7248  -29.2360   19.8847 H   0  0  0  0  0  0
  -25.1281  -36.1953   25.0829 H   0  0  0  0  0  0
  -20.9914  -28.3186   24.1471 H   0  0  0  0  0  0
  -20.5609  -26.2247   23.3597 H   0  0  0  0  0  0
  -21.6615  -26.7424   22.1234 H   0  0  0  0  0  0
  -19.6881  -25.6285   21.1237 H   0  0  0  0  0  0
  -19.6664  -27.3194   20.6734 H   0  0  0  0  0  0
  -17.4162  -26.6670   21.4017 H   0  0  0  0  0  0
  -18.0309  -26.0042   22.9008 H   0  0  0  0  0  0
  -19.7897  -30.7261   24.2287 H   0  0  0  0  0  0
  -17.4975  -31.6256   24.5169 H   0  0  0  0  0  0
  -15.5324  -30.2984   23.7652 H   0  0  0  0  0  0
  -15.8636  -28.0834   22.7053 H   0  0  0  0  0  0
  -24.5923  -30.6918   25.7803 H   0  0  0  0  0  0
  -24.8796  -32.2737   26.4936 H   0  0  0  0  0  0
  -25.8075  -30.8812   27.0229 H   0  0  0  0  0  0
  -26.2857  -29.6796   24.1144 H   0  0  0  0  0  0
  -27.4102  -29.7304   25.4543 H   0  0  0  0  0  0
  -27.8654  -30.4421   23.9226 H   0  0  0  0  0  0
  -27.2625  -33.3661   26.2019 H   0  0  0  0  0  0
  -28.3799  -32.6863   25.0286 H   0  0  0  0  0  0
  -28.0655  -31.8479   26.5413 H   0  0  0  0  0  0
  -28.2573  -38.0121   24.7507 H   0  0  0  0  0  0
  -28.1092  -36.2658   24.6275 H   0  0  0  0  0  0
  -27.2299  -37.1469   25.8862 H   0  0  0  0  0  0
  -20.9242  -29.8767   21.7019 H   0  0  0  0  0  0
  -26.0161  -38.2864   24.1373 H   0  0  0  0  0  0
  -27.6122  -19.5838   21.8376 H   0  0  0  0  0  0
  -31.4433  -19.9269   19.8894 H   0  0  0  0  0  0
  -26.5325  -21.5230   22.6831 H   0  0  0  0  0  0
  -26.2276  -22.3712   21.1694 H   0  0  0  0  0  0
  -27.1907  -23.1365   22.4451 H   0  0  0  0  0  0
  -32.3214  -22.0138   19.2538 H   0  0  0  0  0  0
  -31.8739  -23.3566   20.3074 H   0  0  0  0  0  0
  -31.0900  -23.1656   18.7369 H   0  0  0  0  0  0
  -31.4030  -17.3069   20.1898 H   0  0  0  0  0  0
  -31.6585  -18.3344   21.5804 H   0  0  0  0  0  0
  -30.4920  -16.6738   23.0684 H   0  0  0  0  0  0
  -31.9787  -16.1049   22.3676 H   0  0  0  0  0  0
  -28.1259  -25.7928   18.2676 H   0  0  0  0  0  0
  -29.6729  -25.5399   18.9949 H   0  0  0  0  0  0
  -27.8938  -23.6036   19.0714 H   0  0  0  0  0  0
  -27.2055  -24.4715   20.4304 H   0  0  0  0  0  0
  -28.8937  -17.6803   21.4249 H   0  0  0  0  0  0
  -29.3901  -14.9547   22.0149 H   0  0  0  0  0  0
  1 25  1  0  0  0
  1 30  2  0  0  0
  1 84  1  0  0  0
  2  3  1  0  0  0
  2 25  1  0  0  0
  2 86  1  0  0  0
  2 87  1  0  0  0
  3  4  1  0  0  0
  3 88  1  0  0  0
  3 89  1  0  0  0
  4  5  1  0  0  0
  4 90  1  0  0  0
  4 91  1  0  0  0
  5  6  1  0  0  0
  5 26  1  0  0  0
  5 92  1  0  0  0
  6 25  1  0  0  0
  6 93  1  0  0  0
  6 94  1  0  0  0
  7  8  2  0  0  0
  7 26  1  0  0  0
  7 29  1  0  0  0
  8  9  1  0  0  0
  8 22  1  0  0  0
  9 10  1  0  0  0
  9 27  2  0  0  0
 10 11  2  0  0  0
 10 15  1  0  0  0
 11 12  1  0  0  0
 11 95  1  0  0  0
 12 13  2  0  0  0
 12 96  1  0  0  0
 13 14  1  0  0  0
 13 31  1  0  0  0
 14 15  2  0  0  0
 14 97  1  0  0  0
 15 98  1  0  0  0
 16 17  2  0  0  0
 16 21  1  0  0  0
 16 31  1  0  0  0
 17 18  1  0  0  0
 17 99  1  0  0  0
 18 19  2  0  0  0
 18100  1  0  0  0
 19 20  1  0  0  0
 19 24  1  0  0  0
 20 21  2  0  0  0
 20101  1  0  0  0
 21 23  1  0  0  0
 22 28  1  0  0  0
 22 32  2  0  0  0
 26 27  1  0  0  0
 28102  1  0  0  0
 28103  1  0  0  0
 29104  1  0  0  0
 29105  1  0  0  0
 33 34  1  0  0  0
 33 66  1  0  0  0
 33 70  2  0  0  0
 34 36  1  0  0  0
 34 59  1  0  0  0
 34106  1  0  0  0
 35 44  2  0  0  0
 35 45  1  0  0  0
 35 68  1  0  0  0
 36 56  1  0  0  0
 36107  1  0  0  0
 37 39  1  0  0  0
 37 47  1  0  0  0
 37 66  1  0  0  0
 37108  1  0  0  0
 38 43  2  0  0  0
 38 46  1  0  0  0
 38 47  1  0  0  0
 39 64  1  0  0  0
 39 67  2  0  0  0
 40 52  1  0  0  0
 40 53  2  0  0  0
 40 58  1  0  0  0
 41109  1  0  0  0
 41110  1  0  0  0
 41111  1  0  0  0
 41 48  1  0  0  0
 42 43  1  0  0  0
 42 66  1  0  0  0
 42112  1  0  0  0
 42113  1  0  0  0
 43 44  1  0  0  0
 44114  1  0  0  0
 45 46  2  0  0  0
 45115  1  0  0  0
 46116  1  0  0  0
 47117  1  0  0  0
 47118  1  0  0  0
 48 56  1  0  0  0
 48 65  1  0  0  0
 48119  1  0  0  0
 49 50  1  0  0  0
 49 53  1  0  0  0
 49 64  1  0  0  0
 49120  1  0  0  0
 50 51  1  0  0  0
 50121  1  0  0  0
 50122  1  0  0  0
 51 52  1  0  0  0
 51123  1  0  0  0
 51124  1  0  0  0
 52125  1  0  0  0
 52126  1  0  0  0
 53 54  1  0  0  0
 54 55  2  0  0  0
 54127  1  0  0  0
 55 57  1  0  0  0
 55128  1  0  0  0
 56 69  2  0  0  0
 57 58  2  0  0  0
 57129  1  0  0  0
 58130  1  0  0  0
 59 60  1  0  0  0
 59 61  1  0  0  0
 59 62  1  0  0  0
 60131  1  0  0  0
 60132  1  0  0  0
 60133  1  0  0  0
 61134  1  0  0  0
 61135  1  0  0  0
 61136  1  0  0  0
 62137  1  0  0  0
 62138  1  0  0  0
 62139  1  0  0  0
 63 65  1  0  0  0
 63140  1  0  0  0
 63141  1  0  0  0
 63142  1  0  0  0
 64143  1  0  0  0
 65144  1  0  0  0
 68 81  1  0  0  0
 71 73  2  0  0  0
 71 75  1  0  0  0
 71145  1  0  0  0
 72 74  1  0  0  0
 72 75  2  0  0  0
 72146  1  0  0  0
 73 76  1  0  0  0
 73 77  1  0  0  0
 74 76  2  0  0  0
 74 78  1  0  0  0
 75 83  1  0  0  0
 76 85  1  0  0  0
 77147  1  0  0  0
 77148  1  0  0  0
 77149  1  0  0  0
 78150  1  0  0  0
 78151  1  0  0  0
 78152  1  0  0  0
 79 80  1  0  0  0
 79 83  1  0  0  0
 79153  1  0  0  0
 79154  1  0  0  0
 80 84  1  0  0  0
 80155  1  0  0  0
 80156  1  0  0  0
 81 82  1  0  0  0
 81157  1  0  0  0
 81158  1  0  0  0
 82 85  1  0  0  0
 82159  1  0  0  0
 82160  1  0  0  0
 83161  1  0  0  0
 84162  1  0  0  0
M  ISO  4   1 100  68 101  81 101  84 100
M  END
> <chiral flag>
0

> <version>
0

> <s_m_source_file>
/data/baiqing/PycharmProjects/Reinvent-master-3.2/result/LINK_invent/BTK/process_docking_weight1_custom_sum_contain_oxygen_bond_distance_aromatic_linkinvent_7_9_3/rearranged_h_0144.sdf

> <i_m_source_file_index>
68

> <r_mmod_Potential_Energy-OPLS-2005>
-163.783599853516

> <r_mmod_Stretch_Energy-OPLS-2005>
34.073844909668

> <r_mmod_Bend_Energy-OPLS-2005>
101.602882385254

> <r_mmod_Torsional_Energy-OPLS-2005>
221.857788085938

> <r_mmod_Improper_Torsional_Energy-OPLS-2005>
4.54649448394775

> <r_mmod_Van_der_Waal_Energy-OPLS-2005>
159.165924072266

> <r_mmod_Electrostatic_Energy-OPLS-2005>
-468.851806640625

> <r_mmod_Solvation_Energy-OPLS-2005>
-224.130081176758

> <b_mmod_Minimization_Converged-OPLS-2005>
0

> <r_mmod_RMS_Derivative-OPLS-2005>
1.82134282588959

$$$$
69
                    3D
 Structure written by MMmdl.
179188  0  0  1  0            999 V2000
  -30.8184  -14.4005   20.2974 C   0  0  0  0  0  0
  -30.4111  -12.1983   19.4053 C   0  0  0  0  0  0
  -29.4801  -12.3652   18.1866 C   0  0  0  0  0  0
  -28.0068  -12.3143   18.6271 C   0  0  0  0  0  0
  -27.6710  -13.2151   19.8481 C   0  0  2  0  0  0
  -28.7440  -13.0910   20.9557 C   0  0  0  0  0  0
  -25.2650  -13.8239   20.5700 C   0  0  0  0  0  0
  -24.1878  -13.0534   20.9152 C   0  0  0  0  0  0
  -24.6413  -11.6991   20.8697 C   0  0  0  0  0  0
  -23.9027  -10.4399   21.0365 C   0  0  0  0  0  0
  -24.3617   -9.4344   21.9169 C   0  0  0  0  0  0
  -23.6349   -8.2357   22.0744 C   0  0  0  0  0  0
  -22.4336   -8.0329   21.3535 C   0  0  0  0  0  0
  -21.9909   -9.0299   20.4648 C   0  0  0  0  0  0
  -22.7186  -10.2215   20.3041 C   0  0  0  0  0  0
  -21.6950   -6.0711   22.5209 C   0  0  0  0  0  0
  -21.4062   -6.5599   23.8132 C   0  0  0  0  0  0
  -21.3686   -5.6766   24.9098 C   0  0  0  0  0  0
  -21.6063   -4.3034   24.7161 C   0  0  0  0  0  0
  -21.8866   -3.8103   23.4291 C   0  0  0  0  0  0
  -21.9265   -4.6930   22.3327 C   0  0  0  0  0  0
  -22.7880  -13.5301   21.1815 C   0  0  0  0  0  0
  -22.1728   -4.2075   21.0926 F   0  0  0  0  0  0
  -21.5640   -3.4536   25.7693 F   0  0  0  0  0  0
  -30.0694  -13.2748   20.3360 N   0  0  0  0  0  0
  -26.3134  -12.9435   20.3370 N   0  0  0  0  0  0
  -25.9368  -11.6597   20.5802 N   0  0  0  0  0  0
  -22.0542  -12.8325   22.0362 N   0  0  0  0  0  0
  -25.4347  -15.1958   20.4112 N   0  0  0  0  0  0
  -32.0137  -14.4149   20.5597 O   0  0  0  0  0  0
  -21.6752   -6.8894   21.4188 O   0  0  0  0  0  0
  -22.3525  -14.5601   20.6647 O   0  0  0  0  0  0
  -24.6111  -31.8753   23.2137 C   0  0  0  0  0  0
  -25.9068  -32.4831   23.8383 C   0  0  1  0  0  0
  -27.1978  -27.4757   20.0696 C   0  0  0  0  0  0
  -25.5975  -33.8627   24.2280 N   0  0  0  0  0  0
  -23.3857  -30.5088   21.5563 C   0  0  2  0  0  0
  -24.8211  -29.0004   20.0983 C   0  0  0  0  0  0
  -22.7364  -29.4710   22.4989 C   0  0  0  0  0  0
  -18.0252  -28.1390   22.8445 C   0  0  0  0  0  0
  -24.1493  -36.7296   23.2625 C   0  0  0  0  0  0
  -25.9133  -30.8569   21.3587 C   0  0  0  0  0  0
  -25.9851  -29.5052   20.6893 C   0  0  0  0  0  0
  -27.1783  -28.7502   20.6703 C   0  0  0  0  0  0
  -26.0114  -26.9872   19.4738 C   0  0  0  0  0  0
  -24.8279  -27.7406   19.4837 C   0  0  0  0  0  0
  -23.5824  -29.8599   20.1627 C   0  0  0  0  0  0
  -25.4116  -36.3076   24.0294 C   0  0  1  0  0  0
  -20.5850  -28.3644   23.1285 C   0  0  2  0  0  0
  -20.6784  -26.9408   22.5403 C   0  0  0  0  0  0
  -19.5777  -26.6406   21.5186 C   0  0  0  0  0  0
  -18.1921  -26.7909   22.1599 C   0  0  0  0  0  0
  -19.1515  -28.8824   23.2863 C   0  0  0  0  0  0
  -18.9484  -30.1443   23.8863 C   0  0  0  0  0  0
  -17.6489  -30.6598   24.0554 C   0  0  0  0  0  0
  -25.9057  -34.9471   23.5059 C   0  0  0  0  0  0
  -16.5368  -29.9117   23.6352 C   0  0  0  0  0  0
  -16.7251  -28.6569   23.0292 C   0  0  0  0  0  0
  -26.4484  -31.6575   25.0703 C   0  0  0  0  0  0
  -25.3754  -31.3707   26.1452 C   0  0  0  0  0  0
  -27.0286  -30.3006   24.6056 C   0  0  0  0  0  0
  -27.6031  -32.4288   25.7484 C   0  0  0  0  0  0
  -27.5545  -37.1807   24.8446 C   0  0  0  0  0  0
  -21.4085  -29.3044   22.3714 N   0  0  0  0  0  0
  -26.4261  -37.3820   23.9393 N   0  0  0  0  0  0
  -24.6567  -31.0897   22.1010 N   0  0  0  0  0  0
  -23.4160  -28.8240   23.3008 O   0  0  0  0  0  0
  -28.3519  -26.7171   20.1096 O   0  0  0  0  0  0
  -26.5627  -34.8932   22.4611 O   0  0  0  0  0  0
  -23.5351  -32.1493   23.7598 O   0  0  0  0  0  0
  -32.4874  -16.3624   18.2440 C   0  0  0  0  0  0
  -32.0015  -17.5297   19.1223 C   0  0  0  0  0  0
  -29.1156  -24.6766   21.3280 C   0  0  0  0  0  0
  -28.1362  -24.3932   19.2036 C   0  0  0  0  0  0
  -31.3943  -15.2723   18.0830 C   0  0  0  0  0  0
  -29.7224  -16.4289   19.4772 C   0  0  0  0  0  0
  -30.4773  -17.6878   18.9265 C   0  0  1  0  0  0
  -28.6672  -23.1955   21.2884 C   0  0  2  0  0  0
  -28.0333  -23.0187   19.8734 C   0  0  2  0  0  0
  -28.1055  -25.3401   20.4031 C   0  0  1  0  0  0
  -27.1462  -21.4669   22.5481 C   0  0  0  0  0  0
  -29.6474  -19.0876   20.9079 C   0  0  0  0  0  0
  -27.6868  -22.9058   22.4576 C   0  0  0  0  0  0
  -27.9236  -20.7473   18.9296 C   0  0  0  0  0  0
  -29.9120  -19.0530   19.3910 C   0  0  2  0  0  0
  -28.7497  -19.5404   18.4631 C   0  0  1  0  0  0
  -30.4816  -15.1944   19.2538 N   0  0  0  0  0  0
  -28.7149  -21.9793   19.0761 N   0  3  0  0  0  0
  -27.7838  -18.5214   18.2667 O   0  0  0  0  0  0
  -31.4624  -12.2107   19.1091 H   0  0  0  0  0  0
  -30.2549  -11.2261   19.8758 H   0  0  0  0  0  0
  -29.6680  -11.5639   17.4695 H   0  0  0  0  0  0
  -29.6644  -13.2918   17.6506 H   0  0  0  0  0  0
  -27.7943  -11.2771   18.8812 H   0  0  0  0  0  0
  -27.3556  -12.5590   17.7871 H   0  0  0  0  0  0
  -27.6941  -14.2446   19.4991 H   0  0  0  0  0  0
  -28.6808  -12.1113   21.4314 H   0  0  0  0  0  0
  -28.5840  -13.8357   21.7370 H   0  0  0  0  0  0
  -25.2793   -9.5897   22.4719 H   0  0  0  0  0  0
  -24.0134   -7.4769   22.7464 H   0  0  0  0  0  0
  -21.0839   -8.8764   19.8953 H   0  0  0  0  0  0
  -22.3611  -10.9733   19.6127 H   0  0  0  0  0  0
  -21.2034   -7.6114   23.9592 H   0  0  0  0  0  0
  -21.1451   -6.0477   25.8984 H   0  0  0  0  0  0
  -22.0626   -2.7550   23.2786 H   0  0  0  0  0  0
  -22.4218  -12.0021   22.4780 H   0  0  0  0  0  0
  -21.1092  -13.1220   22.2485 H   0  0  0  0  0  0
  -24.6677  -15.8548   20.5188 H   0  0  0  0  0  0
  -26.2997  -15.6399   20.1233 H   0  0  0  0  0  0
  -26.7126  -32.5510   23.1135 H   0  0  0  0  0  0
  -25.0116  -33.9837   25.0406 H   0  0  0  0  0  0
  -22.6725  -31.3288   21.4349 H   0  0  0  0  0  0
  -23.3723  -35.9669   23.3296 H   0  0  0  0  0  0
  -24.3552  -36.8937   22.2039 H   0  0  0  0  0  0
  -23.7277  -37.6521   23.6646 H   0  0  0  0  0  0
  -26.0316  -31.6338   20.6050 H   0  0  0  0  0  0
  -26.8030  -30.8886   21.9766 H   0  0  0  0  0  0
  -28.0745  -29.1347   21.1336 H   0  0  0  0  0  0
  -25.9561  -26.0181   19.0049 H   0  0  0  0  0  0
  -23.9290  -27.3516   19.0208 H   0  0  0  0  0  0
  -23.6690  -30.6435   19.4050 H   0  0  0  0  0  0
  -22.7047  -29.2806   19.8689 H   0  0  0  0  0  0
  -25.1305  -36.1895   25.0792 H   0  0  0  0  0  0
  -20.9935  -28.3258   24.1409 H   0  0  0  0  0  0
  -20.5659  -26.2307   23.3603 H   0  0  0  0  0  0
  -21.6642  -26.7471   22.1225 H   0  0  0  0  0  0
  -19.6967  -25.6323   21.1216 H   0  0  0  0  0  0
  -19.6687  -27.3220   20.6712 H   0  0  0  0  0  0
  -17.4203  -26.6553   21.4015 H   0  0  0  0  0  0
  -18.0361  -26.0046   22.9015 H   0  0  0  0  0  0
  -19.7976  -30.7249   24.2164 H   0  0  0  0  0  0
  -17.5100  -31.6265   24.5197 H   0  0  0  0  0  0
  -15.5379  -30.3063   23.7730 H   0  0  0  0  0  0
  -15.8612  -28.0968   22.6939 H   0  0  0  0  0  0
  -24.5952  -30.7024   25.7787 H   0  0  0  0  0  0
  -24.8962  -32.2928   26.4797 H   0  0  0  0  0  0
  -25.8205  -30.8959   27.0203 H   0  0  0  0  0  0
  -26.2855  -29.6788   24.1100 H   0  0  0  0  0  0
  -27.4013  -29.7211   25.4483 H   0  0  0  0  0  0
  -27.8673  -30.4213   23.9201 H   0  0  0  0  0  0
  -27.2598  -33.3551   26.2052 H   0  0  0  0  0  0
  -28.3901  -32.6885   25.0397 H   0  0  0  0  0  0
  -28.0604  -31.8397   26.5440 H   0  0  0  0  0  0
  -28.2596  -38.0085   24.7511 H   0  0  0  0  0  0
  -28.1016  -36.2627   24.6249 H   0  0  0  0  0  0
  -27.2248  -37.1436   25.8853 H   0  0  0  0  0  0
  -20.9230  -29.8783   21.6933 H   0  0  0  0  0  0
  -26.0089  -38.2858   24.1502 H   0  0  0  0  0  0
  -33.4068  -15.9342   18.6475 H   0  0  0  0  0  0
  -32.7494  -16.7404   17.2565 H   0  0  0  0  0  0
  -32.5539  -18.4371   18.8786 H   0  0  0  0  0  0
  -32.2193  -17.3289   20.1736 H   0  0  0  0  0  0
  -30.1264  -24.8014   20.9327 H   0  0  0  0  0  0
  -29.1126  -25.0925   22.3349 H   0  0  0  0  0  0
  -27.3550  -24.5413   18.4587 H   0  0  0  0  0  0
  -29.0911  -24.5005   18.6886 H   0  0  0  0  0  0
  -31.8613  -14.3037   17.8823 H   0  0  0  0  0  0
  -30.7806  -15.4814   17.2033 H   0  0  0  0  0  0
  -29.5066  -16.5082   20.5421 H   0  0  0  0  0  0
  -28.7597  -16.3121   18.9858 H   0  0  0  0  0  0
  -30.3502  -17.6870   17.8397 H   0  0  0  0  0  0
  -29.5431  -22.5546   21.3989 H   0  0  0  0  0  0
  -26.9710  -22.7759   19.9650 H   0  0  0  0  0  0
  -27.1488  -25.2494   20.9211 H   0  0  0  0  0  0
  -26.6623  -21.3040   23.5122 H   0  0  0  0  0  0
  -27.9254  -20.7183   22.4677 H   0  0  0  0  0  0
  -26.3966  -21.2593   21.7799 H   0  0  0  0  0  0
  -28.7600  -18.5234   21.2029 H   0  0  0  0  0  0
  -29.5412  -20.1116   21.2568 H   0  0  0  0  0  0
  -30.4957  -18.6788   21.4583 H   0  0  0  0  0  0
  -26.8287  -23.5777   22.4186 H   0  0  0  0  0  0
  -28.1981  -23.1462   23.3967 H   0  0  0  0  0  0
  -27.4311  -20.5002   19.8686 H   0  0  0  0  0  0
  -27.1225  -20.9525   18.2134 H   0  0  0  0  0  0
  -30.7143  -19.7779   19.2454 H   0  0  0  0  0  0
  -29.1982  -19.7891   17.4958 H   0  0  0  0  0  0
  -29.6052  -21.7644   19.4965 H   0  0  0  0  0  0
  -28.8875  -22.3477   18.1570 H   0  0  0  0  0  0
  -28.1821  -17.8106   17.7761 H   0  0  0  0  0  0
  1 25  1  0  0  0
  1 30  2  0  0  0
  1 87  1  0  0  0
  2  3  1  0  0  0
  2 25  1  0  0  0
  2 90  1  0  0  0
  2 91  1  0  0  0
  3  4  1  0  0  0
  3 92  1  0  0  0
  3 93  1  0  0  0
  4  5  1  0  0  0
  4 94  1  0  0  0
  4 95  1  0  0  0
  5  6  1  0  0  0
  5 26  1  0  0  0
  5 96  1  0  0  0
  6 25  1  0  0  0
  6 97  1  0  0  0
  6 98  1  0  0  0
  7  8  2  0  0  0
  7 26  1  0  0  0
  7 29  1  0  0  0
  8  9  1  0  0  0
  8 22  1  0  0  0
  9 10  1  0  0  0
  9 27  2  0  0  0
 10 11  2  0  0  0
 10 15  1  0  0  0
 11 12  1  0  0  0
 11 99  1  0  0  0
 12 13  2  0  0  0
 12100  1  0  0  0
 13 14  1  0  0  0
 13 31  1  0  0  0
 14 15  2  0  0  0
 14101  1  0  0  0
 15102  1  0  0  0
 16 17  2  0  0  0
 16 21  1  0  0  0
 16 31  1  0  0  0
 17 18  1  0  0  0
 17103  1  0  0  0
 18 19  2  0  0  0
 18104  1  0  0  0
 19 20  1  0  0  0
 19 24  1  0  0  0
 20 21  2  0  0  0
 20105  1  0  0  0
 21 23  1  0  0  0
 22 28  1  0  0  0
 22 32  2  0  0  0
 26 27  1  0  0  0
 28106  1  0  0  0
 28107  1  0  0  0
 29108  1  0  0  0
 29109  1  0  0  0
 33 34  1  0  0  0
 33 66  1  0  0  0
 33 70  2  0  0  0
 34 36  1  0  0  0
 34 59  1  0  0  0
 34110  1  0  0  0
 35 44  2  0  0  0
 35 45  1  0  0  0
 35 68  1  0  0  0
 36 56  1  0  0  0
 36111  1  0  0  0
 37 39  1  0  0  0
 37 47  1  0  0  0
 37 66  1  0  0  0
 37112  1  0  0  0
 38 43  2  0  0  0
 38 46  1  0  0  0
 38 47  1  0  0  0
 39 64  1  0  0  0
 39 67  2  0  0  0
 40 52  1  0  0  0
 40 53  2  0  0  0
 40 58  1  0  0  0
 41113  1  0  0  0
 41114  1  0  0  0
 41115  1  0  0  0
 41 48  1  0  0  0
 42 43  1  0  0  0
 42 66  1  0  0  0
 42116  1  0  0  0
 42117  1  0  0  0
 43 44  1  0  0  0
 44118  1  0  0  0
 45 46  2  0  0  0
 45119  1  0  0  0
 46120  1  0  0  0
 47121  1  0  0  0
 47122  1  0  0  0
 48 56  1  0  0  0
 48 65  1  0  0  0
 48123  1  0  0  0
 49 50  1  0  0  0
 49 53  1  0  0  0
 49 64  1  0  0  0
 49124  1  0  0  0
 50 51  1  0  0  0
 50125  1  0  0  0
 50126  1  0  0  0
 51 52  1  0  0  0
 51127  1  0  0  0
 51128  1  0  0  0
 52129  1  0  0  0
 52130  1  0  0  0
 53 54  1  0  0  0
 54 55  2  0  0  0
 54131  1  0  0  0
 55 57  1  0  0  0
 55132  1  0  0  0
 56 69  2  0  0  0
 57 58  2  0  0  0
 57133  1  0  0  0
 58134  1  0  0  0
 59 60  1  0  0  0
 59 61  1  0  0  0
 59 62  1  0  0  0
 60135  1  0  0  0
 60136  1  0  0  0
 60137  1  0  0  0
 61138  1  0  0  0
 61139  1  0  0  0
 61140  1  0  0  0
 62141  1  0  0  0
 62142  1  0  0  0
 62143  1  0  0  0
 63 65  1  0  0  0
 63144  1  0  0  0
 63145  1  0  0  0
 63146  1  0  0  0
 64147  1  0  0  0
 65148  1  0  0  0
 68 80  1  0  0  0
 71 72  1  0  0  0
 71 75  1  0  0  0
 71149  1  0  0  0
 71150  1  0  0  0
 72151  1  0  0  0
 72152  1  0  0  0
 72 77  1  0  0  0
 73 78  1  0  0  0
 73 80  1  0  0  0
 73153  1  0  0  0
 73154  1  0  0  0
 74 79  1  0  0  0
 74 80  1  0  0  0
 74155  1  0  0  0
 74156  1  0  0  0
 75 87  1  0  0  0
 75157  1  0  0  0
 75158  1  0  0  0
 76 77  1  0  0  0
 76 87  1  0  0  0
 76159  1  0  0  0
 76160  1  0  0  0
 77 85  1  0  0  0
 77161  1  0  0  0
 78 79  1  0  0  0
 78 83  1  0  0  0
 78162  1  0  0  0
 79 88  1  0  0  0
 79163  1  0  0  0
 80164  1  0  0  0
 81 83  1  0  0  0
 81165  1  0  0  0
 81166  1  0  0  0
 81167  1  0  0  0
 82168  1  0  0  0
 82169  1  0  0  0
 82170  1  0  0  0
 82 85  1  0  0  0
 83171  1  0  0  0
 83172  1  0  0  0
 84 86  1  0  0  0
 84 88  1  0  0  0
 84173  1  0  0  0
 84174  1  0  0  0
 85 86  1  0  0  0
 85175  1  0  0  0
 86 89  1  0  0  0
 86176  1  0  0  0
 88177  1  0  0  0
 88178  1  0  0  0
 89179  1  0  0  0
M  CHG  1  88   1
M  ISO  4   1 100  68 101  80 101  87 100
M  END
> <chiral flag>
0

> <version>
0

> <s_m_source_file>
/data/baiqing/PycharmProjects/Reinvent-master-3.2/result/LINK_invent/BTK/process_docking_weight1_custom_sum_contain_oxygen_bond_distance_aromatic_linkinvent_7_9_3/rearranged_h_0144.sdf

> <i_m_source_file_index>
69

> <r_mmod_Potential_Energy-OPLS-2005>
273.705413818359

> <r_mmod_Stretch_Energy-OPLS-2005>
40.2829780578613

> <r_mmod_Bend_Energy-OPLS-2005>
160.584945678711

> <r_mmod_Torsional_Energy-OPLS-2005>
470.7353515625

> <r_mmod_Improper_Torsional_Energy-OPLS-2005>
33.5915222167969

> <r_mmod_Van_der_Waal_Energy-OPLS-2005>
160.96940612793

> <r_mmod_Electrostatic_Energy-OPLS-2005>
-211.506744384766

> <r_mmod_Solvation_Energy-OPLS-2005>
-451.100830078125

> <b_mmod_Minimization_Converged-OPLS-2005>
0

> <r_mmod_RMS_Derivative-OPLS-2005>
8.24001598358154

$$$$
70
                    3D
 Structure written by MMmdl.
167176  0  0  1  0            999 V2000
  -30.6869  -14.4299   20.5347 C   0  0  0  0  0  0
  -30.4254  -12.2664   19.4103 C   0  0  0  0  0  0
  -29.4955  -12.4823   18.1955 C   0  0  0  0  0  0
  -28.0114  -12.3679   18.6013 C   0  0  0  0  0  0
  -27.6655  -13.1918   19.8691 C   0  0  2  0  0  0
  -28.7062  -12.9582   20.9892 C   0  0  0  0  0  0
  -25.2640  -13.8113   20.5698 C   0  0  0  0  0  0
  -24.1839  -13.0412   20.9152 C   0  0  0  0  0  0
  -24.6380  -11.6885   20.8701 C   0  0  0  0  0  0
  -23.9066  -10.4238   21.0420 C   0  0  0  0  0  0
  -24.3639   -9.4140   21.9177 C   0  0  0  0  0  0
  -23.6296   -8.2172   22.0750 C   0  0  0  0  0  0
  -22.4255   -8.0244   21.3556 C   0  0  0  0  0  0
  -21.9866   -9.0248   20.4677 C   0  0  0  0  0  0
  -22.7224  -10.2109   20.3085 C   0  0  0  0  0  0
  -21.6842   -6.0721   22.5308 C   0  0  0  0  0  0
  -21.4014   -6.5641   23.8226 C   0  0  0  0  0  0
  -21.3660   -5.6804   24.9182 C   0  0  0  0  0  0
  -21.6034   -4.3068   24.7227 C   0  0  0  0  0  0
  -21.8836   -3.8153   23.4341 C   0  0  0  0  0  0
  -21.9190   -4.6958   22.3403 C   0  0  0  0  0  0
  -22.7875  -13.5274   21.1778 C   0  0  0  0  0  0
  -22.1679   -4.2166   21.0975 F   0  0  0  0  0  0
  -21.5592   -3.4552   25.7717 F   0  0  0  0  0  0
  -30.0433  -13.2420   20.4377 N   0  0  0  0  0  0
  -26.3043  -12.9261   20.3342 N   0  0  0  0  0  0
  -25.9317  -11.6419   20.5761 N   0  0  0  0  0  0
  -22.0359  -12.8174   22.0115 N   0  0  0  0  0  0
  -25.4391  -15.1830   20.4153 N   0  0  0  0  0  0
  -31.8285  -14.6361   20.1097 O   0  0  0  0  0  0
  -21.6575   -6.8883   21.4291 O   0  0  0  0  0  0
  -22.3640  -14.5674   20.6772 O   0  0  0  0  0  0
  -24.6160  -31.8716   23.2084 C   0  0  0  0  0  0
  -25.9061  -32.4844   23.8363 C   0  0  1  0  0  0
  -27.2390  -27.4542   20.0995 C   0  0  0  0  0  0
  -25.5905  -33.8624   24.2325 N   0  0  0  0  0  0
  -23.4020  -30.4908   21.5470 C   0  0  2  0  0  0
  -24.8501  -28.9492   20.1167 C   0  0  0  0  0  0
  -22.7393  -29.4696   22.4997 C   0  0  0  0  0  0
  -18.0258  -28.1401   22.8485 C   0  0  0  0  0  0
  -24.1491  -36.7333   23.2613 C   0  0  0  0  0  0
  -25.9238  -30.8467   21.3450 C   0  0  0  0  0  0
  -26.0092  -29.4745   20.7051 C   0  0  0  0  0  0
  -27.2110  -28.7323   20.6957 C   0  0  0  0  0  0
  -26.0710  -26.9340   19.5105 C   0  0  0  0  0  0
  -24.8749  -27.6779   19.5148 C   0  0  0  0  0  0
  -23.6128  -29.8174   20.1620 C   0  0  0  0  0  0
  -25.4088  -36.3113   24.0344 C   0  0  1  0  0  0
  -20.5853  -28.3698   23.1316 C   0  0  2  0  0  0
  -20.6734  -26.9440   22.5394 C   0  0  0  0  0  0
  -19.5722  -26.6409   21.5179 C   0  0  0  0  0  0
  -18.1905  -26.7950   22.1600 C   0  0  0  0  0  0
  -19.1511  -28.8858   23.2909 C   0  0  0  0  0  0
  -18.9453  -30.1454   23.8953 C   0  0  0  0  0  0
  -17.6456  -30.6602   24.0603 C   0  0  0  0  0  0
  -25.9017  -34.9472   23.5124 C   0  0  0  0  0  0
  -16.5344  -29.9130   23.6305 C   0  0  0  0  0  0
  -16.7250  -28.6541   23.0327 C   0  0  0  0  0  0
  -26.4488  -31.6604   25.0672 C   0  0  0  0  0  0
  -25.3756  -31.3733   26.1448 C   0  0  0  0  0  0
  -27.0247  -30.3025   24.5954 C   0  0  0  0  0  0
  -27.6071  -32.4288   25.7450 C   0  0  0  0  0  0
  -27.5568  -37.1814   24.8452 C   0  0  0  0  0  0
  -21.4113  -29.3094   22.3759 N   0  0  0  0  0  0
  -26.4285  -37.3775   23.9404 N   0  0  0  0  0  0
  -24.6678  -31.0817   22.0962 N   0  0  0  0  0  0
  -23.4180  -28.8165   23.2977 O   0  0  0  0  0  0
  -28.3957  -26.7181   20.0836 O   0  0  0  0  0  0
  -26.5568  -34.8959   22.4680 O   0  0  0  0  0  0
  -23.5363  -32.1478   23.7502 O   0  0  0  0  0  0
  -26.5737  -19.6774   20.6763 C   0  0  0  0  0  0
  -25.8030  -21.9821   20.8526 C   0  0  0  0  0  0
  -28.0630  -21.5096   20.0964 C   0  0  0  0  0  0
  -25.5430  -20.6013   20.9656 C   0  0  0  0  0  0
  -27.8519  -20.1145   20.2488 C   0  0  0  0  0  0
  -27.0601  -22.4503   20.4268 C   0  0  0  0  0  0
  -23.3850  -19.1811   20.5173 C   0  0  0  0  0  0
  -22.9342  -20.6136   20.7021 C   0  0  0  0  0  0
  -24.1851  -20.1202   21.3914 C   0  0  0  0  0  0
  -28.8781  -17.7417   20.6687 C   0  0  0  0  0  0
  -30.1187  -16.8337   20.4766 C   0  0  0  0  0  0
  -28.4824  -25.7546   21.1356 C   0  0  0  0  0  0
  -28.5605  -24.3085   20.6178 C   0  0  0  0  0  0
  -28.9735  -19.1098   19.9112 C   0  0  2  0  0  0
  -29.8813  -15.4461   20.8740 N   0  0  0  0  0  0
  -30.3084  -19.7204   20.0923 N   0  3  0  0  0  0
  -27.2451  -23.8149   20.3548 O   0  0  0  0  0  0
  -31.4709  -12.3603   19.1099 H   0  0  0  0  0  0
  -30.3242  -11.2532   19.7987 H   0  0  0  0  0  0
  -29.7172  -11.7509   17.4179 H   0  0  0  0  0  0
  -29.6831  -13.4650   17.7566 H   0  0  0  0  0  0
  -27.7822  -11.3139   18.7624 H   0  0  0  0  0  0
  -27.3806  -12.6804   17.7659 H   0  0  0  0  0  0
  -27.7150  -14.2389   19.5764 H   0  0  0  0  0  0
  -28.6752  -11.9255   21.3323 H   0  0  0  0  0  0
  -28.4798  -13.5626   21.8682 H   0  0  0  0  0  0
  -25.2779   -9.5554   22.4776 H   0  0  0  0  0  0
  -24.0000   -7.4583   22.7504 H   0  0  0  0  0  0
  -21.0720   -8.8770   19.9096 H   0  0  0  0  0  0
  -22.3621  -10.9657   19.6221 H   0  0  0  0  0  0
  -21.2041   -7.6167   23.9697 H   0  0  0  0  0  0
  -21.1474   -6.0554   25.9080 H   0  0  0  0  0  0
  -22.0627   -2.7606   23.2846 H   0  0  0  0  0  0
  -22.3704  -11.9594   22.4223 H   0  0  0  0  0  0
  -21.0903  -13.1164   22.2009 H   0  0  0  0  0  0
  -24.6971  -15.8499   20.5959 H   0  0  0  0  0  0
  -26.2810  -15.6125   20.0571 H   0  0  0  0  0  0
  -26.7120  -32.5639   23.1135 H   0  0  0  0  0  0
  -25.0150  -33.9733   25.0537 H   0  0  0  0  0  0
  -22.6934  -31.3102   21.4027 H   0  0  0  0  0  0
  -23.3731  -35.9685   23.3276 H   0  0  0  0  0  0
  -24.3574  -36.8940   22.2016 H   0  0  0  0  0  0
  -23.7266  -37.6548   23.6630 H   0  0  0  0  0  0
  -25.9925  -31.6027   20.5617 H   0  0  0  0  0  0
  -26.8261  -30.9405   21.9390 H   0  0  0  0  0  0
  -28.1112  -29.1297   21.1443 H   0  0  0  0  0  0
  -26.0965  -25.9561   19.0492 H   0  0  0  0  0  0
  -23.9848  -27.2666   19.0582 H   0  0  0  0  0  0
  -23.7286  -30.5948   19.4046 H   0  0  0  0  0  0
  -22.7387  -29.2371   19.8586 H   0  0  0  0  0  0
  -25.1242  -36.1960   25.0831 H   0  0  0  0  0  0
  -20.9955  -28.3294   24.1440 H   0  0  0  0  0  0
  -20.5579  -26.2340   23.3596 H   0  0  0  0  0  0
  -21.6618  -26.7474   22.1224 H   0  0  0  0  0  0
  -19.6901  -25.6313   21.1224 H   0  0  0  0  0  0
  -19.6635  -27.3223   20.6715 H   0  0  0  0  0  0
  -17.4141  -26.6692   21.4032 H   0  0  0  0  0  0
  -18.0360  -26.0093   22.9003 H   0  0  0  0  0  0
  -19.7929  -30.7244   24.2370 H   0  0  0  0  0  0
  -17.5012  -31.6286   24.5199 H   0  0  0  0  0  0
  -15.5355  -30.3061   23.7585 H   0  0  0  0  0  0
  -15.8653  -28.0890   22.7003 H   0  0  0  0  0  0
  -24.5927  -30.7040   25.7847 H   0  0  0  0  0  0
  -24.8933  -32.2899   26.4856 H   0  0  0  0  0  0
  -25.8162  -30.8972   27.0213 H   0  0  0  0  0  0
  -26.2745  -29.6855   24.0976 H   0  0  0  0  0  0
  -27.3992  -29.7181   25.4361 H   0  0  0  0  0  0
  -27.8605  -30.4295   23.9069 H   0  0  0  0  0  0
  -27.2688  -33.3588   26.2005 H   0  0  0  0  0  0
  -28.3924  -32.6812   25.0324 H   0  0  0  0  0  0
  -28.0647  -31.8381   26.5378 H   0  0  0  0  0  0
  -28.2586  -38.0108   24.7499 H   0  0  0  0  0  0
  -28.1084  -36.2646   24.6294 H   0  0  0  0  0  0
  -27.2314  -37.1507   25.8866 H   0  0  0  0  0  0
  -20.9292  -29.8911   21.7037 H   0  0  0  0  0  0
  -26.0195  -38.2850   24.1441 H   0  0  0  0  0  0
  -26.3548  -18.6218   20.7696 H   0  0  0  0  0  0
  -25.0305  -22.6958   21.1040 H   0  0  0  0  0  0
  -29.0072  -21.8676   19.7149 H   0  0  0  0  0  0
  -23.7811  -18.9111   19.5395 H   0  0  0  0  0  0
  -22.7782  -18.4167   20.9985 H   0  0  0  0  0  0
  -22.0338  -20.7670   21.2947 H   0  0  0  0  0  0
  -23.0444  -21.2796   19.8449 H   0  0  0  0  0  0
  -24.1390  -19.9662   22.4700 H   0  0  0  0  0  0
  -28.7176  -17.9070   21.7382 H   0  0  0  0  0  0
  -27.9955  -17.2028   20.3150 H   0  0  0  0  0  0
  -30.9729  -17.2084   21.0408 H   0  0  0  0  0  0
  -30.4070  -16.8399   19.4218 H   0  0  0  0  0  0
  -29.3940  -25.9756   21.6861 H   0  0  0  0  0  0
  -27.6709  -25.8330   21.8635 H   0  0  0  0  0  0
  -29.0245  -23.7161   21.4115 H   0  0  0  0  0  0
  -29.2068  -24.2361   19.7409 H   0  0  0  0  0  0
  -28.8722  -18.8998   18.8418 H   0  0  0  0  0  0
  -28.9516  -15.1831   21.1698 H   0  0  0  0  0  0
  -30.4573  -20.0289   21.0390 H   0  0  0  0  0  0
  -30.4001  -20.5130   19.4821 H   0  0  0  0  0  0
  -31.0305  -19.0719   19.8415 H   0  0  0  0  0  0
  1 25  1  0  0  0
  1 30  2  0  0  0
  1 85  1  0  0  0
  2  3  1  0  0  0
  2 25  1  0  0  0
  2 88  1  0  0  0
  2 89  1  0  0  0
  3  4  1  0  0  0
  3 90  1  0  0  0
  3 91  1  0  0  0
  4  5  1  0  0  0
  4 92  1  0  0  0
  4 93  1  0  0  0
  5  6  1  0  0  0
  5 26  1  0  0  0
  5 94  1  0  0  0
  6 25  1  0  0  0
  6 95  1  0  0  0
  6 96  1  0  0  0
  7  8  2  0  0  0
  7 26  1  0  0  0
  7 29  1  0  0  0
  8  9  1  0  0  0
  8 22  1  0  0  0
  9 10  1  0  0  0
  9 27  2  0  0  0
 10 11  2  0  0  0
 10 15  1  0  0  0
 11 12  1  0  0  0
 11 97  1  0  0  0
 12 13  2  0  0  0
 12 98  1  0  0  0
 13 14  1  0  0  0
 13 31  1  0  0  0
 14 15  2  0  0  0
 14 99  1  0  0  0
 15100  1  0  0  0
 16 17  2  0  0  0
 16 21  1  0  0  0
 16 31  1  0  0  0
 17 18  1  0  0  0
 17101  1  0  0  0
 18 19  2  0  0  0
 18102  1  0  0  0
 19 20  1  0  0  0
 19 24  1  0  0  0
 20 21  2  0  0  0
 20103  1  0  0  0
 21 23  1  0  0  0
 22 28  1  0  0  0
 22 32  2  0  0  0
 26 27  1  0  0  0
 28104  1  0  0  0
 28105  1  0  0  0
 29106  1  0  0  0
 29107  1  0  0  0
 33 34  1  0  0  0
 33 66  1  0  0  0
 33 70  2  0  0  0
 34 36  1  0  0  0
 34 59  1  0  0  0
 34108  1  0  0  0
 35 44  2  0  0  0
 35 45  1  0  0  0
 35 68  1  0  0  0
 36 56  1  0  0  0
 36109  1  0  0  0
 37 39  1  0  0  0
 37 47  1  0  0  0
 37 66  1  0  0  0
 37110  1  0  0  0
 38 43  2  0  0  0
 38 46  1  0  0  0
 38 47  1  0  0  0
 39 64  1  0  0  0
 39 67  2  0  0  0
 40 52  1  0  0  0
 40 53  2  0  0  0
 40 58  1  0  0  0
 41111  1  0  0  0
 41112  1  0  0  0
 41113  1  0  0  0
 41 48  1  0  0  0
 42 43  1  0  0  0
 42 66  1  0  0  0
 42114  1  0  0  0
 42115  1  0  0  0
 43 44  1  0  0  0
 44116  1  0  0  0
 45 46  2  0  0  0
 45117  1  0  0  0
 46118  1  0  0  0
 47119  1  0  0  0
 47120  1  0  0  0
 48 56  1  0  0  0
 48 65  1  0  0  0
 48121  1  0  0  0
 49 50  1  0  0  0
 49 53  1  0  0  0
 49 64  1  0  0  0
 49122  1  0  0  0
 50 51  1  0  0  0
 50123  1  0  0  0
 50124  1  0  0  0
 51 52  1  0  0  0
 51125  1  0  0  0
 51126  1  0  0  0
 52127  1  0  0  0
 52128  1  0  0  0
 53 54  1  0  0  0
 54 55  2  0  0  0
 54129  1  0  0  0
 55 57  1  0  0  0
 55130  1  0  0  0
 56 69  2  0  0  0
 57 58  2  0  0  0
 57131  1  0  0  0
 58132  1  0  0  0
 59 60  1  0  0  0
 59 61  1  0  0  0
 59 62  1  0  0  0
 60133  1  0  0  0
 60134  1  0  0  0
 60135  1  0  0  0
 61136  1  0  0  0
 61137  1  0  0  0
 61138  1  0  0  0
 62139  1  0  0  0
 62140  1  0  0  0
 62141  1  0  0  0
 63 65  1  0  0  0
 63142  1  0  0  0
 63143  1  0  0  0
 63144  1  0  0  0
 64145  1  0  0  0
 65146  1  0  0  0
 68 82  1  0  0  0
 71 74  2  0  0  0
 71 75  1  0  0  0
 71147  1  0  0  0
 72 74  1  0  0  0
 72 76  2  0  0  0
 72148  1  0  0  0
 73 75  2  0  0  0
 73 76  1  0  0  0
 73149  1  0  0  0
 74 79  1  0  0  0
 75 84  1  0  0  0
 76 87  1  0  0  0
 77 78  1  0  0  0
 77 79  1  0  0  0
 77150  1  0  0  0
 77151  1  0  0  0
 78 79  1  0  0  0
 78152  1  0  0  0
 78153  1  0  0  0
 79154  1  0  0  0
 80 81  1  0  0  0
 80 84  1  0  0  0
 80155  1  0  0  0
 80156  1  0  0  0
 81 85  1  0  0  0
 81157  1  0  0  0
 81158  1  0  0  0
 82 83  1  0  0  0
 82159  1  0  0  0
 82160  1  0  0  0
 83 87  1  0  0  0
 83161  1  0  0  0
 83162  1  0  0  0
 84 86  1  0  0  0
 84163  1  0  0  0
 85164  1  0  0  0
 86165  1  0  0  0
 86166  1  0  0  0
 86167  1  0  0  0
M  CHG  1  86   1
M  ISO  4   1 100  68 101  82 101  85 100
M  END
> <chiral flag>
0

> <version>
0

> <s_m_source_file>
/data/baiqing/PycharmProjects/Reinvent-master-3.2/result/LINK_invent/BTK/process_docking_weight1_custom_sum_contain_oxygen_bond_distance_aromatic_linkinvent_7_9_3/rearranged_h_0144.sdf

> <i_m_source_file_index>
70

> <r_mmod_Potential_Energy-OPLS-2005>
-277.883178710938

> <r_mmod_Stretch_Energy-OPLS-2005>
37.4757804870605

> <r_mmod_Bend_Energy-OPLS-2005>
92.1130599975586

> <r_mmod_Torsional_Energy-OPLS-2005>
277.199951171875

> <r_mmod_Improper_Torsional_Energy-OPLS-2005>
7.49465990066528

> <r_mmod_Van_der_Waal_Energy-OPLS-2005>
150.127700805664

> <r_mmod_Electrostatic_Energy-OPLS-2005>
-338.200927734375

> <r_mmod_Solvation_Energy-OPLS-2005>
-514.843688964844

> <b_mmod_Minimization_Converged-OPLS-2005>
0

> <r_mmod_RMS_Derivative-OPLS-2005>
6.52068948745728

$$$$
71
                    3D
 Structure written by MMmdl.
179188  0  0  1  0            999 V2000
  -30.7940  -14.5409   20.3381 C   0  0  0  0  0  0
  -30.3890  -12.3152   19.4259 C   0  0  0  0  0  0
  -29.4598  -12.4022   18.2016 C   0  0  0  0  0  0
  -27.9998  -12.2227   18.6526 C   0  0  0  0  0  0
  -27.6122  -13.1656   19.8163 C   0  0  2  0  0  0
  -28.6914  -13.2133   20.9283 C   0  0  0  0  0  0
  -25.2522  -13.8063   20.5790 C   0  0  0  0  0  0
  -24.1781  -13.0407   20.9343 C   0  0  0  0  0  0
  -24.6289  -11.6859   20.8908 C   0  0  0  0  0  0
  -23.8979  -10.4285   21.0502 C   0  0  0  0  0  0
  -24.3562   -9.4194   21.9248 C   0  0  0  0  0  0
  -23.6257   -8.2224   22.0756 C   0  0  0  0  0  0
  -22.4254   -8.0283   21.3526 C   0  0  0  0  0  0
  -21.9884   -9.0270   20.4645 C   0  0  0  0  0  0
  -22.7190  -10.2154   20.3097 C   0  0  0  0  0  0
  -21.6866   -6.0736   22.5252 C   0  0  0  0  0  0
  -21.4023   -6.5649   23.8179 C   0  0  0  0  0  0
  -21.3649   -5.6802   24.9146 C   0  0  0  0  0  0
  -21.6038   -4.3060   24.7194 C   0  0  0  0  0  0
  -21.8830   -3.8151   23.4320 C   0  0  0  0  0  0
  -21.9196   -4.6967   22.3375 C   0  0  0  0  0  0
  -22.7812  -13.5230   21.1952 C   0  0  0  0  0  0
  -22.1674   -4.2148   21.0954 F   0  0  0  0  0  0
  -21.5603   -3.4545   25.7702 F   0  0  0  0  0  0
  -30.0126  -13.4217   20.3176 N   0  0  0  0  0  0
  -26.2828  -12.9096   20.3343 N   0  0  0  0  0  0
  -25.9181  -11.6337   20.5936 N   0  0  0  0  0  0
  -22.0443  -12.8220   22.0481 N   0  0  0  0  0  0
  -25.4251  -15.1787   20.4110 N   0  0  0  0  0  0
  -32.0106  -14.4303   20.4252 O   0  0  0  0  0  0
  -21.6630   -6.8875   21.4210 O   0  0  0  0  0  0
  -22.3535  -14.5540   20.6763 O   0  0  0  0  0  0
  -24.6095  -31.8709   23.2154 C   0  0  0  0  0  0
  -25.9009  -32.4838   23.8421 C   0  0  1  0  0  0
  -27.2373  -27.4707   20.0786 C   0  0  0  0  0  0
  -25.5890  -33.8639   24.2344 N   0  0  0  0  0  0
  -23.3945  -30.4961   21.5541 C   0  0  2  0  0  0
  -24.8393  -28.9644   20.1171 C   0  0  0  0  0  0
  -22.7379  -29.4674   22.5015 C   0  0  0  0  0  0
  -18.0262  -28.1381   22.8485 C   0  0  0  0  0  0
  -24.1484  -36.7319   23.2643 C   0  0  0  0  0  0
  -25.9208  -30.8424   21.3664 C   0  0  0  0  0  0
  -25.9955  -29.4787   20.7156 C   0  0  0  0  0  0
  -27.1913  -28.7330   20.7056 C   0  0  0  0  0  0
  -26.0557  -26.9504   19.5004 C   0  0  0  0  0  0
  -24.8611  -27.6953   19.5134 C   0  0  0  0  0  0
  -23.5999  -29.8288   20.1677 C   0  0  0  0  0  0
  -25.4109  -36.3125   24.0344 C   0  0  1  0  0  0
  -20.5844  -28.3655   23.1342 C   0  0  2  0  0  0
  -20.6740  -26.9386   22.5463 C   0  0  0  0  0  0
  -19.5752  -26.6376   21.5226 C   0  0  0  0  0  0
  -18.1907  -26.7947   22.1582 C   0  0  0  0  0  0
  -19.1506  -28.8835   23.2913 C   0  0  0  0  0  0
  -18.9439  -30.1442   23.8921 C   0  0  0  0  0  0
  -17.6442  -30.6583   24.0576 C   0  0  0  0  0  0
  -25.9032  -34.9486   23.5139 C   0  0  0  0  0  0
  -16.5334  -29.9090   23.6324 C   0  0  0  0  0  0
  -16.7253  -28.6509   23.0341 C   0  0  0  0  0  0
  -26.4448  -31.6623   25.0741 C   0  0  0  0  0  0
  -25.3711  -31.3732   26.1484 C   0  0  0  0  0  0
  -27.0287  -30.3068   24.6131 C   0  0  0  0  0  0
  -27.6032  -32.4347   25.7485 C   0  0  0  0  0  0
  -27.5597  -37.1801   24.8449 C   0  0  0  0  0  0
  -21.4115  -29.3016   22.3737 N   0  0  0  0  0  0
  -26.4296  -37.3809   23.9414 N   0  0  0  0  0  0
  -24.6594  -31.0841   22.1036 N   0  0  0  0  0  0
  -23.4168  -28.8217   23.3044 O   0  0  0  0  0  0
  -28.4386  -26.8000   20.0656 O   0  0  0  0  0  0
  -26.5592  -34.8930   22.4698 O   0  0  0  0  0  0
  -23.5296  -32.1456   23.7570 O   0  0  0  0  0  0
  -29.9338  -24.0111   20.0216 C   0  0  0  0  0  0
  -27.8264  -23.5918   18.9070 C   0  0  0  0  0  0
  -28.8157  -24.4945   19.3239 C   0  0  0  0  0  0
  -30.1151  -22.6285   20.2444 C   0  0  0  0  0  0
  -27.9674  -22.2088   19.1397 C   0  0  0  0  0  0
  -29.1232  -21.6951   19.8078 C   0  0  0  0  0  0
  -28.3082  -18.8860   22.9218 C   0  0  0  0  0  0
  -29.2423  -20.0008   22.4655 C   0  0  0  0  0  0
  -29.0106  -17.6249   22.4249 C   0  0  0  0  0  0
  -29.8825  -19.4849   21.1567 C   0  0  2  0  0  0
  -31.4321  -22.2183   20.8852 C   0  0  0  0  0  0
  -26.8747  -21.3075   18.5769 C   0  0  0  0  0  0
  -30.1096  -19.7828   18.5926 C   0  0  0  0  0  0
  -28.9334  -16.0964   19.2540 C   0  0  0  0  0  0
  -31.2442  -16.0741   18.4463 C   0  0  0  0  0  0
  -28.7303  -25.9637   18.9501 C   0  0  0  0  0  0
  -30.7827  -17.1304   20.7114 C   0  0  0  0  0  0
  -29.3212  -20.1604   19.8568 C   0  0  2  0  0  0
  -30.3846  -15.9468   19.7457 C   0  0  0  0  0  0
  -29.6440  -18.0048   21.1406 N   0  3  1  0  0  0
  -31.4326  -12.3601   19.1115 H   0  0  0  0  0  0
  -30.2671  -11.3579   19.9377 H   0  0  0  0  0  0
  -29.7140  -11.6266   17.4769 H   0  0  0  0  0  0
  -29.5861  -13.3546   17.6870 H   0  0  0  0  0  0
  -27.8872  -11.1868   18.9765 H   0  0  0  0  0  0
  -27.3157  -12.3495   17.8124 H   0  0  0  0  0  0
  -27.5024  -14.1117   19.3261 H   0  0  0  0  0  0
  -28.6979  -12.2789   21.4907 H   0  0  0  0  0  0
  -28.4756  -14.0051   21.6464 H   0  0  0  0  0  0
  -25.2697   -9.5677   22.4837 H   0  0  0  0  0  0
  -23.9979   -7.4601   22.7456 H   0  0  0  0  0  0
  -21.0826   -8.8813   19.8926 H   0  0  0  0  0  0
  -22.3684  -10.9721   19.6223 H   0  0  0  0  0  0
  -21.2053   -7.6162   23.9673 H   0  0  0  0  0  0
  -21.1447   -6.0534   25.9035 H   0  0  0  0  0  0
  -22.0618   -2.7619   23.2808 H   0  0  0  0  0  0
  -22.4060  -11.9863   22.4835 H   0  0  0  0  0  0
  -21.1045  -13.1221   22.2679 H   0  0  0  0  0  0
  -24.6516  -15.8245   20.5242 H   0  0  0  0  0  0
  -26.2411  -15.6113   20.0041 H   0  0  0  0  0  0
  -26.7075  -32.5560   23.1185 H   0  0  0  0  0  0
  -25.0058  -33.9820   25.0498 H   0  0  0  0  0  0
  -22.6807  -31.3116   21.4198 H   0  0  0  0  0  0
  -23.3776  -35.9620   23.3269 H   0  0  0  0  0  0
  -24.3582  -36.8979   22.2069 H   0  0  0  0  0  0
  -23.7195  -37.6489   23.6689 H   0  0  0  0  0  0
  -26.0328  -31.6114   20.6006 H   0  0  0  0  0  0
  -26.8080  -30.8922   21.9863 H   0  0  0  0  0  0
  -28.0859  -29.1322   21.1621 H   0  0  0  0  0  0
  -26.0395  -25.9731   19.0423 H   0  0  0  0  0  0
  -23.9674  -27.2900   19.0589 H   0  0  0  0  0  0
  -23.7012  -30.6043   19.4077 H   0  0  0  0  0  0
  -22.7244  -29.2455   19.8764 H   0  0  0  0  0  0
  -25.1287  -36.1992   25.0835 H   0  0  0  0  0  0
  -20.9941  -28.3237   24.1466 H   0  0  0  0  0  0
  -20.5610  -26.2272   23.3654 H   0  0  0  0  0  0
  -21.6623  -26.7410   22.1294 H   0  0  0  0  0  0
  -19.6915  -25.6288   21.1254 H   0  0  0  0  0  0
  -19.6741  -27.3181   20.6759 H   0  0  0  0  0  0
  -17.4225  -26.6773   21.3925 H   0  0  0  0  0  0
  -18.0224  -26.0053   22.8922 H   0  0  0  0  0  0
  -19.7917  -30.7247   24.2302 H   0  0  0  0  0  0
  -17.5003  -31.6261   24.5187 H   0  0  0  0  0  0
  -15.5334  -30.3001   23.7645 H   0  0  0  0  0  0
  -15.8652  -28.0843   22.7036 H   0  0  0  0  0  0
  -24.5998  -30.6915   25.7873 H   0  0  0  0  0  0
  -24.8741  -32.2865   26.4771 H   0  0  0  0  0  0
  -25.8086  -30.9099   27.0340 H   0  0  0  0  0  0
  -26.2844  -29.6833   24.1166 H   0  0  0  0  0  0
  -27.4024  -29.7305   25.4608 H   0  0  0  0  0  0
  -27.8688  -30.4382   23.9308 H   0  0  0  0  0  0
  -27.2651  -33.3623   26.2126 H   0  0  0  0  0  0
  -28.3796  -32.6959   25.0278 H   0  0  0  0  0  0
  -28.0765  -31.8444   26.5348 H   0  0  0  0  0  0
  -28.2608  -38.0108   24.7528 H   0  0  0  0  0  0
  -28.1099  -36.2645   24.6222 H   0  0  0  0  0  0
  -27.2331  -37.1397   25.8855 H   0  0  0  0  0  0
  -20.9265  -29.8734   21.6960 H   0  0  0  0  0  0
  -26.0195  -38.2881   24.1458 H   0  0  0  0  0  0
  -30.6902  -24.7169   20.3353 H   0  0  0  0  0  0
  -26.9712  -23.9615   18.3587 H   0  0  0  0  0  0
  -27.3334  -18.9930   22.4440 H   0  0  0  0  0  0
  -28.1515  -18.8825   24.0010 H   0  0  0  0  0  0
  -30.0199  -20.1331   23.2202 H   0  0  0  0  0  0
  -28.7317  -20.9591   22.3668 H   0  0  0  0  0  0
  -28.3226  -16.7866   22.3095 H   0  0  0  0  0  0
  -29.7691  -17.3309   23.1523 H   0  0  0  0  0  0
  -30.9538  -19.6597   21.2355 H   0  0  0  0  0  0
  -32.1057  -23.0698   20.9840 H   0  0  0  0  0  0
  -31.9563  -21.4816   20.2782 H   0  0  0  0  0  0
  -31.2799  -21.8270   21.8897 H   0  0  0  0  0  0
  -26.1507  -21.8698   17.9867 H   0  0  0  0  0  0
  -26.3264  -20.8163   19.3808 H   0  0  0  0  0  0
  -27.2904  -20.5480   17.9148 H   0  0  0  0  0  0
  -29.6369  -20.1922   17.6988 H   0  0  0  0  0  0
  -30.1569  -18.7146   18.4496 H   0  0  0  0  0  0
  -31.1296  -20.1616   18.6190 H   0  0  0  0  0  0
  -28.7340  -17.0833   18.8400 H   0  0  0  0  0  0
  -28.2090  -15.9373   20.0494 H   0  0  0  0  0  0
  -28.7493  -15.4293   18.4136 H   0  0  0  0  0  0
  -30.9288  -16.8828   17.7931 H   0  0  0  0  0  0
  -31.1855  -15.1721   17.8360 H   0  0  0  0  0  0
  -32.3021  -16.2389   18.6589 H   0  0  0  0  0  0
  -28.0603  -26.1096   18.1012 H   0  0  0  0  0  0
  -29.7081  -26.2677   18.5739 H   0  0  0  0  0  0
  -31.5107  -17.7629   20.2007 H   0  0  0  0  0  0
  -31.3260  -16.7714   21.5866 H   0  0  0  0  0  0
  -28.3360  -19.7104   19.7660 H   0  0  0  0  0  0
  -28.9340  -17.8707   20.4360 H   0  0  0  0  0  0
  1 25  1  0  0  0
  1 30  2  0  0  0
  1 89  1  0  0  0
  2  3  1  0  0  0
  2 25  1  0  0  0
  2 91  1  0  0  0
  2 92  1  0  0  0
  3  4  1  0  0  0
  3 93  1  0  0  0
  3 94  1  0  0  0
  4  5  1  0  0  0
  4 95  1  0  0  0
  4 96  1  0  0  0
  5  6  1  0  0  0
  5 26  1  0  0  0
  5 97  1  0  0  0
  6 25  1  0  0  0
  6 98  1  0  0  0
  6 99  1  0  0  0
  7  8  2  0  0  0
  7 26  1  0  0  0
  7 29  1  0  0  0
  8  9  1  0  0  0
  8 22  1  0  0  0
  9 10  1  0  0  0
  9 27  2  0  0  0
 10 11  2  0  0  0
 10 15  1  0  0  0
 11 12  1  0  0  0
 11100  1  0  0  0
 12 13  2  0  0  0
 12101  1  0  0  0
 13 14  1  0  0  0
 13 31  1  0  0  0
 14 15  2  0  0  0
 14102  1  0  0  0
 15103  1  0  0  0
 16 17  2  0  0  0
 16 21  1  0  0  0
 16 31  1  0  0  0
 17 18  1  0  0  0
 17104  1  0  0  0
 18 19  2  0  0  0
 18105  1  0  0  0
 19 20  1  0  0  0
 19 24  1  0  0  0
 20 21  2  0  0  0
 20106  1  0  0  0
 21 23  1  0  0  0
 22 28  1  0  0  0
 22 32  2  0  0  0
 26 27  1  0  0  0
 28107  1  0  0  0
 28108  1  0  0  0
 29109  1  0  0  0
 29110  1  0  0  0
 33 34  1  0  0  0
 33 66  1  0  0  0
 33 70  2  0  0  0
 34 36  1  0  0  0
 34 59  1  0  0  0
 34111  1  0  0  0
 35 44  2  0  0  0
 35 45  1  0  0  0
 35 68  1  0  0  0
 36 56  1  0  0  0
 36112  1  0  0  0
 37 39  1  0  0  0
 37 47  1  0  0  0
 37 66  1  0  0  0
 37113  1  0  0  0
 38 43  2  0  0  0
 38 46  1  0  0  0
 38 47  1  0  0  0
 39 64  1  0  0  0
 39 67  2  0  0  0
 40 52  1  0  0  0
 40 53  2  0  0  0
 40 58  1  0  0  0
 41114  1  0  0  0
 41115  1  0  0  0
 41116  1  0  0  0
 41 48  1  0  0  0
 42 43  1  0  0  0
 42 66  1  0  0  0
 42117  1  0  0  0
 42118  1  0  0  0
 43 44  1  0  0  0
 44119  1  0  0  0
 45 46  2  0  0  0
 45120  1  0  0  0
 46121  1  0  0  0
 47122  1  0  0  0
 47123  1  0  0  0
 48 56  1  0  0  0
 48 65  1  0  0  0
 48124  1  0  0  0
 49 50  1  0  0  0
 49 53  1  0  0  0
 49 64  1  0  0  0
 49125  1  0  0  0
 50 51  1  0  0  0
 50126  1  0  0  0
 50127  1  0  0  0
 51 52  1  0  0  0
 51128  1  0  0  0
 51129  1  0  0  0
 52130  1  0  0  0
 52131  1  0  0  0
 53 54  1  0  0  0
 54 55  2  0  0  0
 54132  1  0  0  0
 55 57  1  0  0  0
 55133  1  0  0  0
 56 69  2  0  0  0
 57 58  2  0  0  0
 57134  1  0  0  0
 58135  1  0  0  0
 59 60  1  0  0  0
 59 61  1  0  0  0
 59 62  1  0  0  0
 60136  1  0  0  0
 60137  1  0  0  0
 60138  1  0  0  0
 61139  1  0  0  0
 61140  1  0  0  0
 61141  1  0  0  0
 62142  1  0  0  0
 62143  1  0  0  0
 62144  1  0  0  0
 63 65  1  0  0  0
 63145  1  0  0  0
 63146  1  0  0  0
 63147  1  0  0  0
 64148  1  0  0  0
 65149  1  0  0  0
 68 86  1  0  0  0
 71 73  2  0  0  0
 71 74  1  0  0  0
 71150  1  0  0  0
 72 73  1  0  0  0
 72 75  2  0  0  0
 72151  1  0  0  0
 73 86  1  0  0  0
 74 76  2  0  0  0
 74 81  1  0  0  0
 75 76  1  0  0  0
 75 82  1  0  0  0
 76 88  1  0  0  0
 77 78  1  0  0  0
 77 79  1  0  0  0
 77152  1  0  0  0
 77153  1  0  0  0
 78154  1  0  0  0
 78155  1  0  0  0
 78 80  1  0  0  0
 79 90  1  0  0  0
 79156  1  0  0  0
 79157  1  0  0  0
 80 88  1  0  0  0
 80 90  1  0  0  0
 80158  1  0  0  0
 81159  1  0  0  0
 81160  1  0  0  0
 81161  1  0  0  0
 82162  1  0  0  0
 82163  1  0  0  0
 82164  1  0  0  0
 83165  1  0  0  0
 83166  1  0  0  0
 83167  1  0  0  0
 83 88  1  0  0  0
 84168  1  0  0  0
 84169  1  0  0  0
 84170  1  0  0  0
 84 89  1  0  0  0
 85 89  1  0  0  0
 85171  1  0  0  0
 85172  1  0  0  0
 85173  1  0  0  0
 86174  1  0  0  0
 86175  1  0  0  0
 87 89  1  0  0  0
 87176  1  0  0  0
 87177  1  0  0  0
 87 90  1  0  0  0
 88178  1  0  0  0
 90179  1  0  0  0
M  CHG  1  90   1
M  ISO  4   1 100  68 101  86 101  89 100
M  END
> <chiral flag>
0

> <version>
0

> <s_m_source_file>
/data/baiqing/PycharmProjects/Reinvent-master-3.2/result/LINK_invent/BTK/process_docking_weight1_custom_sum_contain_oxygen_bond_distance_aromatic_linkinvent_7_9_3/rearranged_h_0144.sdf

> <i_m_source_file_index>
71

> <r_mmod_Potential_Energy-OPLS-2005>
204.014633178711

> <r_mmod_Stretch_Energy-OPLS-2005>
48.874267578125

> <r_mmod_Bend_Energy-OPLS-2005>
170.674835205078

> <r_mmod_Torsional_Energy-OPLS-2005>
347.067291259766

> <r_mmod_Improper_Torsional_Energy-OPLS-2005>
15.4642667770386

> <r_mmod_Van_der_Waal_Energy-OPLS-2005>
173.864776611328

> <r_mmod_Electrostatic_Energy-OPLS-2005>
-207.827178955078

> <r_mmod_Solvation_Energy-OPLS-2005>
-411.202239990234

> <b_mmod_Minimization_Converged-OPLS-2005>
0

> <r_mmod_RMS_Derivative-OPLS-2005>
2.37430739402771

$$$$
72
                    3D
 Structure written by MMmdl.
182191  0  0  1  0            999 V2000
  -30.6618  -14.5823   20.5357 C   0  0  0  0  0  0
  -30.4335  -12.3686   19.4364 C   0  0  0  0  0  0
  -29.4992  -12.5072   18.2158 C   0  0  0  0  0  0
  -28.0242  -12.3483   18.6343 C   0  0  0  0  0  0
  -27.6554  -13.2138   19.8679 C   0  0  2  0  0  0
  -28.7032  -13.0492   20.9918 C   0  0  0  0  0  0
  -25.2570  -13.8160   20.5691 C   0  0  0  0  0  0
  -24.1850  -13.0434   20.9201 C   0  0  0  0  0  0
  -24.6414  -11.6903   20.8757 C   0  0  0  0  0  0
  -23.9071  -10.4294   21.0419 C   0  0  0  0  0  0
  -24.3620   -9.4212   21.9197 C   0  0  0  0  0  0
  -23.6305   -8.2246   22.0757 C   0  0  0  0  0  0
  -22.4283   -8.0287   21.3543 C   0  0  0  0  0  0
  -21.9921   -9.0259   20.4648 C   0  0  0  0  0  0
  -22.7245  -10.2144   20.3072 C   0  0  0  0  0  0
  -21.6861   -6.0748   22.5289 C   0  0  0  0  0  0
  -21.4014   -6.5642   23.8220 C   0  0  0  0  0  0
  -21.3664   -5.6793   24.9182 C   0  0  0  0  0  0
  -21.6046   -4.3059   24.7231 C   0  0  0  0  0  0
  -21.8820   -3.8154   23.4347 C   0  0  0  0  0  0
  -21.9194   -4.6973   22.3410 C   0  0  0  0  0  0
  -22.7864  -13.5225   21.1865 C   0  0  0  0  0  0
  -22.1660   -4.2159   21.0984 F   0  0  0  0  0  0
  -21.5633   -3.4541   25.7745 F   0  0  0  0  0  0
  -30.0203  -13.3814   20.4238 N   0  0  0  0  0  0
  -26.3004  -12.9338   20.3363 N   0  0  0  0  0  0
  -25.9339  -11.6485   20.5787 N   0  0  0  0  0  0
  -22.0514  -12.8209   22.0417 N   0  0  0  0  0  0
  -25.4274  -15.1879   20.4059 N   0  0  0  0  0  0
  -31.8208  -14.7493   20.1486 O   0  0  0  0  0  0
  -21.6645   -6.8887   21.4247 O   0  0  0  0  0  0
  -22.3553  -14.5543   20.6734 O   0  0  0  0  0  0
  -24.6254  -31.8617   23.2075 C   0  0  0  0  0  0
  -25.9117  -32.4777   23.8389 C   0  0  1  0  0  0
  -27.2228  -27.3573   20.1064 C   0  0  0  0  0  0
  -25.5941  -33.8579   24.2302 N   0  0  0  0  0  0
  -23.4167  -30.4899   21.5484 C   0  0  2  0  0  0
  -24.8599  -28.9551   20.1089 C   0  0  0  0  0  0
  -22.7457  -29.4648   22.4938 C   0  0  0  0  0  0
  -18.0283  -28.1386   22.8473 C   0  0  0  0  0  0
  -24.1485  -36.7310   23.2637 C   0  0  0  0  0  0
  -25.9558  -30.8041   21.3737 C   0  0  0  0  0  0
  -26.0290  -29.4377   20.7118 C   0  0  0  0  0  0
  -27.2146  -28.6508   20.7029 C   0  0  0  0  0  0
  -26.0324  -26.9278   19.4698 C   0  0  0  0  0  0
  -24.8617  -27.7031   19.4800 C   0  0  0  0  0  0
  -23.6269  -29.8288   20.1621 C   0  0  0  0  0  0
  -25.4104  -36.3087   24.0327 C   0  0  1  0  0  0
  -20.5879  -28.3696   23.1256 C   0  0  2  0  0  0
  -20.6766  -26.9417   22.5395 C   0  0  0  0  0  0
  -19.5747  -26.6383   21.5190 C   0  0  0  0  0  0
  -18.1929  -26.7928   22.1601 C   0  0  0  0  0  0
  -19.1535  -28.8855   23.2864 C   0  0  0  0  0  0
  -18.9461  -30.1450   23.8895 C   0  0  0  0  0  0
  -17.6464  -30.6588   24.0561 C   0  0  0  0  0  0
  -25.9048  -34.9447   23.5110 C   0  0  0  0  0  0
  -16.5355  -29.9087   23.6340 C   0  0  0  0  0  0
  -16.7268  -28.6504   23.0359 C   0  0  0  0  0  0
  -26.4520  -31.6588   25.0756 C   0  0  0  0  0  0
  -25.3767  -31.3728   26.1495 C   0  0  0  0  0  0
  -27.0366  -30.3000   24.6221 C   0  0  0  0  0  0
  -27.6086  -32.4327   25.7528 C   0  0  0  0  0  0
  -27.5579  -37.1799   24.8455 C   0  0  0  0  0  0
  -21.4174  -29.3059   22.3665 N   0  0  0  0  0  0
  -26.4282  -37.3776   23.9411 N   0  0  0  0  0  0
  -24.6850  -31.0663   22.1007 N   0  0  0  0  0  0
  -23.4187  -28.8174   23.3008 O   0  0  0  0  0  0
  -28.3381  -26.5132   20.1785 O   0  0  0  0  0  0
  -26.5602  -34.8910   22.4667 O   0  0  0  0  0  0
  -23.5426  -32.1394   23.7428 O   0  0  0  0  0  0
  -29.7582  -23.8426   17.4228 C   0  0  0  0  0  0
  -30.0017  -24.5946   16.2588 C   0  0  0  0  0  0
  -31.5782  -25.9744   17.4792 C   0  0  0  0  0  0
  -30.4341  -24.1317   18.6312 C   0  0  0  0  0  0
  -31.3340  -25.2330   18.6558 C   0  0  0  0  0  0
  -30.9229  -25.6577   16.2666 C   0  0  0  0  0  0
  -32.2880  -20.8505   19.6590 C   0  0  0  0  0  0
  -31.1205  -21.1652   18.7176 C   0  0  0  0  0  0
  -31.6452  -20.6289   21.0357 C   0  0  0  0  0  0
  -30.0102  -21.7081   19.6409 C   0  0  2  0  0  0
  -32.0395  -25.6697   19.9315 C   0  0  0  0  0  0
  -28.7778  -17.7295   19.2803 C   0  0  0  0  0  0
  -32.1064  -27.3503   15.0356 C   0  0  0  0  0  0
  -29.0237  -24.0040   20.7426 C   0  0  0  0  0  0
  -30.2717  -17.0396   21.2783 C   0  0  0  0  0  0
  -29.3711  -19.5653   20.9730 C   0  0  0  0  0  0
  -28.0570  -25.0734   20.0962 C   0  0  0  0  0  0
  -30.1465  -23.2944   19.8934 C   0  0  2  0  0  0
  -29.8516  -18.2060   20.2793 C   0  0  2  0  0  0
  -29.8969  -15.6251   20.9572 N   0  0  0  0  0  0
  -30.1892  -20.8383   20.8603 N   0  3  1  0  0  0
  -31.1141  -26.3306   15.0797 O   0  0  0  0  0  0
  -31.4749  -12.4864   19.1324 H   0  0  0  0  0  0
  -30.3593  -11.3695   19.8679 H   0  0  0  0  0  0
  -29.7553  -11.7654   17.4582 H   0  0  0  0  0  0
  -29.6445  -13.4832   17.7481 H   0  0  0  0  0  0
  -27.8602  -11.2943   18.8607 H   0  0  0  0  0  0
  -27.3653  -12.5858   17.7981 H   0  0  0  0  0  0
  -27.6779  -14.2524   19.5370 H   0  0  0  0  0  0
  -28.7088  -12.0238   21.3629 H   0  0  0  0  0  0
  -28.4560  -13.6716   21.8534 H   0  0  0  0  0  0
  -25.2765   -9.5691   22.4767 H   0  0  0  0  0  0
  -24.0029   -7.4635   22.7463 H   0  0  0  0  0  0
  -21.0864   -8.8772   19.8941 H   0  0  0  0  0  0
  -22.3706  -10.9685   19.6185 H   0  0  0  0  0  0
  -21.1999   -7.6151   23.9726 H   0  0  0  0  0  0
  -21.1483   -6.0524   25.9084 H   0  0  0  0  0  0
  -22.0595   -2.7615   23.2848 H   0  0  0  0  0  0
  -22.4118  -11.9842   22.4774 H   0  0  0  0  0  0
  -21.1139  -13.1241   22.2647 H   0  0  0  0  0  0
  -24.6578  -15.8396   20.5098 H   0  0  0  0  0  0
  -26.2686  -15.6211   20.0497 H   0  0  0  0  0  0
  -26.7195  -32.5442   23.1154 H   0  0  0  0  0  0
  -25.0132  -33.9743   25.0475 H   0  0  0  0  0  0
  -22.7098  -31.3099   21.4081 H   0  0  0  0  0  0
  -23.3744  -35.9647   23.3286 H   0  0  0  0  0  0
  -24.3588  -36.8948   22.2059 H   0  0  0  0  0  0
  -23.7243  -37.6510   23.6665 H   0  0  0  0  0  0
  -26.0858  -31.5705   20.6083 H   0  0  0  0  0  0
  -26.8380  -30.8466   22.0022 H   0  0  0  0  0  0
  -28.1111  -29.0147   21.1857 H   0  0  0  0  0  0
  -25.9711  -25.9730   18.9685 H   0  0  0  0  0  0
  -23.9678  -27.3296   19.0005 H   0  0  0  0  0  0
  -23.7379  -30.6059   19.4050 H   0  0  0  0  0  0
  -22.7484  -29.2534   19.8654 H   0  0  0  0  0  0
  -25.1279  -36.1946   25.0820 H   0  0  0  0  0  0
  -20.9972  -28.3284   24.1367 H   0  0  0  0  0  0
  -20.5639  -26.2323   23.3604 H   0  0  0  0  0  0
  -21.6640  -26.7428   22.1201 H   0  0  0  0  0  0
  -19.6919  -25.6287   21.1238 H   0  0  0  0  0  0
  -19.6693  -27.3176   20.6704 H   0  0  0  0  0  0
  -17.4193  -26.6668   21.4009 H   0  0  0  0  0  0
  -18.0341  -26.0063   22.8991 H   0  0  0  0  0  0
  -19.7945  -30.7257   24.2270 H   0  0  0  0  0  0
  -17.5027  -31.6262   24.5169 H   0  0  0  0  0  0
  -15.5359  -30.2991   23.7662 H   0  0  0  0  0  0
  -15.8665  -28.0815   22.7094 H   0  0  0  0  0  0
  -24.5952  -30.7052   25.7851 H   0  0  0  0  0  0
  -24.8957  -32.2895   26.4916 H   0  0  0  0  0  0
  -25.8122  -30.8936   27.0272 H   0  0  0  0  0  0
  -26.2949  -29.6736   24.1252 H   0  0  0  0  0  0
  -27.4060  -29.7266   25.4737 H   0  0  0  0  0  0
  -27.8816  -30.4281   23.9450 H   0  0  0  0  0  0
  -27.2699  -33.3613   26.2138 H   0  0  0  0  0  0
  -28.3894  -32.6914   25.0364 H   0  0  0  0  0  0
  -28.0762  -31.8435   26.5432 H   0  0  0  0  0  0
  -28.2579  -38.0112   24.7510 H   0  0  0  0  0  0
  -28.1091  -36.2643   24.6257 H   0  0  0  0  0  0
  -27.2299  -37.1417   25.8857 H   0  0  0  0  0  0
  -20.9355  -29.8804   21.6887 H   0  0  0  0  0  0
  -26.0168  -38.2849   24.1424 H   0  0  0  0  0  0
  -29.0353  -23.0407   17.3767 H   0  0  0  0  0  0
  -29.4734  -24.3530   15.3473 H   0  0  0  0  0  0
  -32.2697  -26.8026   17.5305 H   0  0  0  0  0  0
  -32.9789  -21.6937   19.7057 H   0  0  0  0  0  0
  -32.8568  -19.9820   19.3251 H   0  0  0  0  0  0
  -30.7695  -20.2439   18.2528 H   0  0  0  0  0  0
  -31.4206  -21.8169   17.8990 H   0  0  0  0  0  0
  -32.0207  -21.3738   21.7383 H   0  0  0  0  0  0
  -31.8916  -19.6548   21.4601 H   0  0  0  0  0  0
  -29.0348  -21.5219   19.1900 H   0  0  0  0  0  0
  -32.7809  -24.9312   20.2367 H   0  0  0  0  0  0
  -31.3252  -25.8113   20.7431 H   0  0  0  0  0  0
  -32.5600  -26.6187   19.7978 H   0  0  0  0  0  0
  -29.1394  -16.9025   18.6672 H   0  0  0  0  0  0
  -28.4886  -18.5320   18.5976 H   0  0  0  0  0  0
  -27.8773  -17.3915   19.7946 H   0  0  0  0  0  0
  -31.8825  -28.1615   15.7294 H   0  0  0  0  0  0
  -32.1408  -27.7763   14.0326 H   0  0  0  0  0  0
  -33.0995  -26.9545   15.2545 H   0  0  0  0  0  0
  -28.4000  -23.2128   21.1586 H   0  0  0  0  0  0
  -29.4816  -24.4641   21.6184 H   0  0  0  0  0  0
  -29.8168  -17.2330   22.2505 H   0  0  0  0  0  0
  -31.3459  -17.0931   21.4635 H   0  0  0  0  0  0
  -29.2705  -19.3806   22.0425 H   0  0  0  0  0  0
  -28.3513  -19.8009   20.6651 H   0  0  0  0  0  0
  -27.1231  -24.9120   20.6388 H   0  0  0  0  0  0
  -27.8354  -24.7987   19.0657 H   0  0  0  0  0  0
  -31.0520  -23.3664   20.4936 H   0  0  0  0  0  0
  -30.7306  -18.4166   19.6725 H   0  0  0  0  0  0
  -28.9520  -15.3659   21.1955 H   0  0  0  0  0  0
  -29.8758  -21.3893   21.6460 H   0  0  0  0  0  0
  1 25  1  0  0  0
  1 30  2  0  0  0
  1 90  1  0  0  0
  2  3  1  0  0  0
  2 25  1  0  0  0
  2 93  1  0  0  0
  2 94  1  0  0  0
  3  4  1  0  0  0
  3 95  1  0  0  0
  3 96  1  0  0  0
  4  5  1  0  0  0
  4 97  1  0  0  0
  4 98  1  0  0  0
  5  6  1  0  0  0
  5 26  1  0  0  0
  5 99  1  0  0  0
  6 25  1  0  0  0
  6100  1  0  0  0
  6101  1  0  0  0
  7  8  2  0  0  0
  7 26  1  0  0  0
  7 29  1  0  0  0
  8  9  1  0  0  0
  8 22  1  0  0  0
  9 10  1  0  0  0
  9 27  2  0  0  0
 10 11  2  0  0  0
 10 15  1  0  0  0
 11 12  1  0  0  0
 11102  1  0  0  0
 12 13  2  0  0  0
 12103  1  0  0  0
 13 14  1  0  0  0
 13 31  1  0  0  0
 14 15  2  0  0  0
 14104  1  0  0  0
 15105  1  0  0  0
 16 17  2  0  0  0
 16 21  1  0  0  0
 16 31  1  0  0  0
 17 18  1  0  0  0
 17106  1  0  0  0
 18 19  2  0  0  0
 18107  1  0  0  0
 19 20  1  0  0  0
 19 24  1  0  0  0
 20 21  2  0  0  0
 20108  1  0  0  0
 21 23  1  0  0  0
 22 28  1  0  0  0
 22 32  2  0  0  0
 26 27  1  0  0  0
 28109  1  0  0  0
 28110  1  0  0  0
 29111  1  0  0  0
 29112  1  0  0  0
 33 34  1  0  0  0
 33 66  1  0  0  0
 33 70  2  0  0  0
 34 36  1  0  0  0
 34 59  1  0  0  0
 34113  1  0  0  0
 35 44  2  0  0  0
 35 45  1  0  0  0
 35 68  1  0  0  0
 36 56  1  0  0  0
 36114  1  0  0  0
 37 39  1  0  0  0
 37 47  1  0  0  0
 37 66  1  0  0  0
 37115  1  0  0  0
 38 43  2  0  0  0
 38 46  1  0  0  0
 38 47  1  0  0  0
 39 64  1  0  0  0
 39 67  2  0  0  0
 40 52  1  0  0  0
 40 53  2  0  0  0
 40 58  1  0  0  0
 41116  1  0  0  0
 41117  1  0  0  0
 41118  1  0  0  0
 41 48  1  0  0  0
 42 43  1  0  0  0
 42 66  1  0  0  0
 42119  1  0  0  0
 42120  1  0  0  0
 43 44  1  0  0  0
 44121  1  0  0  0
 45 46  2  0  0  0
 45122  1  0  0  0
 46123  1  0  0  0
 47124  1  0  0  0
 47125  1  0  0  0
 48 56  1  0  0  0
 48 65  1  0  0  0
 48126  1  0  0  0
 49 50  1  0  0  0
 49 53  1  0  0  0
 49 64  1  0  0  0
 49127  1  0  0  0
 50 51  1  0  0  0
 50128  1  0  0  0
 50129  1  0  0  0
 51 52  1  0  0  0
 51130  1  0  0  0
 51131  1  0  0  0
 52132  1  0  0  0
 52133  1  0  0  0
 53 54  1  0  0  0
 54 55  2  0  0  0
 54134  1  0  0  0
 55 57  1  0  0  0
 55135  1  0  0  0
 56 69  2  0  0  0
 57 58  2  0  0  0
 57136  1  0  0  0
 58137  1  0  0  0
 59 60  1  0  0  0
 59 61  1  0  0  0
 59 62  1  0  0  0
 60138  1  0  0  0
 60139  1  0  0  0
 60140  1  0  0  0
 61141  1  0  0  0
 61142  1  0  0  0
 61143  1  0  0  0
 62144  1  0  0  0
 62145  1  0  0  0
 62146  1  0  0  0
 63 65  1  0  0  0
 63147  1  0  0  0
 63148  1  0  0  0
 63149  1  0  0  0
 64150  1  0  0  0
 65151  1  0  0  0
 68 87  1  0  0  0
 71 72  2  0  0  0
 71 74  1  0  0  0
 71152  1  0  0  0
 72 76  1  0  0  0
 72153  1  0  0  0
 73 75  1  0  0  0
 73 76  2  0  0  0
 73154  1  0  0  0
 74 75  2  0  0  0
 74 88  1  0  0  0
 75 81  1  0  0  0
 76 92  1  0  0  0
 77 78  1  0  0  0
 77 79  1  0  0  0
 77155  1  0  0  0
 77156  1  0  0  0
 78157  1  0  0  0
 78158  1  0  0  0
 78 80  1  0  0  0
 79 91  1  0  0  0
 79159  1  0  0  0
 79160  1  0  0  0
 80 88  1  0  0  0
 80 91  1  0  0  0
 80161  1  0  0  0
 81162  1  0  0  0
 81163  1  0  0  0
 81164  1  0  0  0
 82165  1  0  0  0
 82166  1  0  0  0
 82167  1  0  0  0
 82 89  1  0  0  0
 83 92  1  0  0  0
 83168  1  0  0  0
 83169  1  0  0  0
 83170  1  0  0  0
 84 87  1  0  0  0
 84171  1  0  0  0
 84172  1  0  0  0
 84 88  1  0  0  0
 85 89  1  0  0  0
 85 90  1  0  0  0
 85173  1  0  0  0
 85174  1  0  0  0
 86 89  1  0  0  0
 86175  1  0  0  0
 86176  1  0  0  0
 86 91  1  0  0  0
 87177  1  0  0  0
 87178  1  0  0  0
 88179  1  0  0  0
 89180  1  0  0  0
 90181  1  0  0  0
 91182  1  0  0  0
M  CHG  1  91   1
M  ISO  4   1 100  68 101  87 101  90 100
M  END
> <chiral flag>
0

> <version>
0

> <s_m_source_file>
/data/baiqing/PycharmProjects/Reinvent-master-3.2/result/LINK_invent/BTK/process_docking_weight1_custom_sum_contain_oxygen_bond_distance_aromatic_linkinvent_7_9_3/rearranged_h_0144.sdf

> <i_m_source_file_index>
72

> <r_mmod_Potential_Energy-OPLS-2005>
79.824104309082

> <r_mmod_Stretch_Energy-OPLS-2005>
77.8507919311523

> <r_mmod_Bend_Energy-OPLS-2005>
188.569946289062

> <r_mmod_Torsional_Energy-OPLS-2005>
340.781951904297

> <r_mmod_Improper_Torsional_Energy-OPLS-2005>
3.61467337608337

> <r_mmod_Van_der_Waal_Energy-OPLS-2005>
155.625274658203

> <r_mmod_Electrostatic_Energy-OPLS-2005>
-261.315063476562

> <r_mmod_Solvation_Energy-OPLS-2005>
-461.047943115234

> <b_mmod_Minimization_Converged-OPLS-2005>
0

> <r_mmod_RMS_Derivative-OPLS-2005>
2.22891855239868

$$$$
73
                    3D
 Structure written by MMmdl.
166176  0  0  1  0            999 V2000
  -30.7106  -14.6984   20.4754 C   0  0  0  0  0  0
  -30.4094  -12.4443   19.4545 C   0  0  0  0  0  0
  -29.4896  -12.4995   18.2200 C   0  0  0  0  0  0
  -28.0189  -12.3368   18.6447 C   0  0  0  0  0  0
  -27.6368  -13.2394   19.8502 C   0  0  2  0  0  0
  -28.6930  -13.1800   20.9748 C   0  0  0  0  0  0
  -25.2492  -13.8222   20.5737 C   0  0  0  0  0  0
  -24.1786  -13.0453   20.9219 C   0  0  0  0  0  0
  -24.6390  -11.6934   20.8764 C   0  0  0  0  0  0
  -23.9071  -10.4300   21.0410 C   0  0  0  0  0  0
  -24.3622   -9.4211   21.9186 C   0  0  0  0  0  0
  -23.6297   -8.2245   22.0751 C   0  0  0  0  0  0
  -22.4276   -8.0284   21.3545 C   0  0  0  0  0  0
  -21.9915   -9.0257   20.4649 C   0  0  0  0  0  0
  -22.7244  -10.2138   20.3059 C   0  0  0  0  0  0
  -21.6853   -6.0736   22.5278 C   0  0  0  0  0  0
  -21.4014   -6.5639   23.8214 C   0  0  0  0  0  0
  -21.3659   -5.6792   24.9175 C   0  0  0  0  0  0
  -21.6043   -4.3053   24.7224 C   0  0  0  0  0  0
  -21.8817   -3.8147   23.4346 C   0  0  0  0  0  0
  -21.9193   -4.6966   22.3402 C   0  0  0  0  0  0
  -22.7805  -13.5226   21.1864 C   0  0  0  0  0  0
  -22.1661   -4.2147   21.0982 F   0  0  0  0  0  0
  -21.5629   -3.4539   25.7739 F   0  0  0  0  0  0
  -29.9773  -13.5361   20.3619 N   0  0  0  0  0  0
  -26.2927  -12.9448   20.3348 N   0  0  0  0  0  0
  -25.9328  -11.6577   20.5799 N   0  0  0  0  0  0
  -22.0455  -12.8221   22.0430 N   0  0  0  0  0  0
  -25.4180  -15.1945   20.4163 N   0  0  0  0  0  0
  -31.9199  -14.6248   20.2367 O   0  0  0  0  0  0
  -21.6642   -6.8880   21.4241 O   0  0  0  0  0  0
  -22.3490  -14.5529   20.6707 O   0  0  0  0  0  0
  -24.6325  -31.8587   23.2047 C   0  0  0  0  0  0
  -25.9157  -32.4769   23.8378 C   0  0  1  0  0  0
  -27.1972  -27.2625   20.1116 C   0  0  0  0  0  0
  -25.5958  -33.8574   24.2286 N   0  0  0  0  0  0
  -23.4272  -30.4894   21.5493 C   0  0  2  0  0  0
  -24.8695  -28.9551   20.1065 C   0  0  0  0  0  0
  -22.7510  -29.4629   22.4913 C   0  0  0  0  0  0
  -18.0297  -28.1389   22.8479 C   0  0  0  0  0  0
  -24.1491  -36.7287   23.2635 C   0  0  0  0  0  0
  -25.9785  -30.7695   21.3909 C   0  0  0  0  0  0
  -26.0462  -29.3978   20.7242 C   0  0  0  0  0  0
  -27.2134  -28.5629   20.7240 C   0  0  0  0  0  0
  -25.9971  -26.9186   19.4363 C   0  0  0  0  0  0
  -24.8504  -27.7219   19.4529 C   0  0  0  0  0  0
  -23.6438  -29.8414   20.1607 C   0  0  0  0  0  0
  -25.4114  -36.3076   24.0325 C   0  0  1  0  0  0
  -20.5903  -28.3704   23.1256 C   0  0  2  0  0  0
  -20.6785  -26.9421   22.5401 C   0  0  0  0  0  0
  -19.5759  -26.6383   21.5208 C   0  0  0  0  0  0
  -18.1940  -26.7931   22.1621 C   0  0  0  0  0  0
  -19.1552  -28.8864   23.2861 C   0  0  0  0  0  0
  -18.9469  -30.1462   23.8886 C   0  0  0  0  0  0
  -17.6468  -30.6587   24.0562 C   0  0  0  0  0  0
  -25.9061  -34.9446   23.5102 C   0  0  0  0  0  0
  -16.5359  -29.9082   23.6336 C   0  0  0  0  0  0
  -16.7281  -28.6504   23.0349 C   0  0  0  0  0  0
  -26.4506  -31.6585   25.0767 C   0  0  0  0  0  0
  -25.3712  -31.3759   26.1475 C   0  0  0  0  0  0
  -27.0342  -30.2984   24.6286 C   0  0  0  0  0  0
  -27.6065  -32.4320   25.7539 C   0  0  0  0  0  0
  -27.5581  -37.1796   24.8458 C   0  0  0  0  0  0
  -21.4220  -29.3051   22.3645 N   0  0  0  0  0  0
  -26.4286  -37.3775   23.9413 N   0  0  0  0  0  0
  -24.6986  -31.0560   22.1036 N   0  0  0  0  0  0
  -23.4212  -28.8147   23.2993 O   0  0  0  0  0  0
  -28.2469  -26.3062   20.1966 O   0  0  0  0  0  0
  -26.5623  -34.8913   22.4665 O   0  0  0  0  0  0
  -23.5473  -32.1419   23.7332 O   0  0  0  0  0  0
  -29.3672  -21.3292   19.2631 C   0  0  0  0  0  0
  -29.0378  -22.7088   19.0902 C   0  0  0  0  0  0
  -28.5971  -22.9027   21.4306 C   0  0  0  0  0  0
  -29.3122  -20.6669   20.5225 C   0  0  0  0  0  0
  -28.6176  -23.5439   20.1610 C   0  0  0  0  0  0
  -28.9414  -21.5137   21.6197 C   0  0  0  0  0  0
  -27.5192  -22.1478   24.6894 C   0  0  0  0  0  0
  -28.4146  -21.1538   25.3942 C   0  0  0  0  0  0
  -28.6543  -18.0742   21.1027 C   0  0  0  0  0  0
  -30.3702  -18.4480   19.4626 C   0  0  0  0  0  0
  -29.1553  -16.5785   21.3504 C   0  0  0  0  0  0
  -30.9750  -17.0339   19.7506 C   0  0  0  0  0  0
  -29.7341  -19.1283   20.6935 C   0  0  0  0  0  0
  -28.8527  -21.7720   24.0903 C   0  0  0  0  0  0
  -27.8492  -24.8979   19.8555 C   0  0  0  0  0  0
  -30.1228  -15.9726   20.3837 N   0  0  0  0  0  0
  -28.8971  -20.9396   22.8994 N   0  0  0  0  0  0
  -31.4502  -12.5305   19.1378 H   0  0  0  0  0  0
  -30.3347  -11.4755   19.9512 H   0  0  0  0  0  0
  -29.7623  -11.7194   17.5080 H   0  0  0  0  0  0
  -29.6208  -13.4504   17.7010 H   0  0  0  0  0  0
  -27.8714  -11.2886   18.9077 H   0  0  0  0  0  0
  -27.3562  -12.5320   17.8007 H   0  0  0  0  0  0
  -27.6280  -14.2610   19.4697 H   0  0  0  0  0  0
  -28.7386  -12.1796   21.4074 H   0  0  0  0  0  0
  -28.4442  -13.8443   21.8004 H   0  0  0  0  0  0
  -25.2760   -9.5690   22.4768 H   0  0  0  0  0  0
  -24.0005   -7.4634   22.7467 H   0  0  0  0  0  0
  -21.0843   -8.8780   19.8956 H   0  0  0  0  0  0
  -22.3696  -10.9681   19.6174 H   0  0  0  0  0  0
  -21.2007   -7.6147   23.9719 H   0  0  0  0  0  0
  -21.1483   -6.0521   25.9080 H   0  0  0  0  0  0
  -22.0597   -2.7608   23.2846 H   0  0  0  0  0  0
  -22.4073  -11.9889   22.4824 H   0  0  0  0  0  0
  -21.1072  -13.1247   22.2634 H   0  0  0  0  0  0
  -24.6531  -15.8499   20.5331 H   0  0  0  0  0  0
  -26.2754  -15.6366   20.1107 H   0  0  0  0  0  0
  -26.7228  -32.5409   23.1123 H   0  0  0  0  0  0
  -25.0100  -33.9720   25.0427 H   0  0  0  0  0  0
  -22.7234  -31.3129   21.4122 H   0  0  0  0  0  0
  -23.3757  -35.9614   23.3285 H   0  0  0  0  0  0
  -24.3590  -36.8921   22.2054 H   0  0  0  0  0  0
  -23.7233  -37.6480   23.6666 H   0  0  0  0  0  0
  -26.1266  -31.5346   20.6274 H   0  0  0  0  0  0
  -26.8529  -30.8068   22.0291 H   0  0  0  0  0  0
  -28.1058  -28.8902   21.2391 H   0  0  0  0  0  0
  -25.8744  -25.9957   18.8927 H   0  0  0  0  0  0
  -23.9543  -27.3825   18.9516 H   0  0  0  0  0  0
  -23.7717  -30.6261   19.4141 H   0  0  0  0  0  0
  -22.7601  -29.2818   19.8488 H   0  0  0  0  0  0
  -25.1291  -36.1924   25.0815 H   0  0  0  0  0  0
  -20.9992  -28.3279   24.1378 H   0  0  0  0  0  0
  -20.5683  -26.2317   23.3608 H   0  0  0  0  0  0
  -21.6652  -26.7444   22.1195 H   0  0  0  0  0  0
  -19.6922  -25.6289   21.1250 H   0  0  0  0  0  0
  -19.6698  -27.3183   20.6730 H   0  0  0  0  0  0
  -17.4208  -26.6675   21.4024 H   0  0  0  0  0  0
  -18.0343  -26.0076   22.9022 H   0  0  0  0  0  0
  -19.7944  -30.7281   24.2249 H   0  0  0  0  0  0
  -17.5021  -31.6266   24.5166 H   0  0  0  0  0  0
  -15.5357  -30.2978   23.7672 H   0  0  0  0  0  0
  -15.8682  -28.0821   22.7064 H   0  0  0  0  0  0
  -24.5897  -30.7096   25.7803 H   0  0  0  0  0  0
  -24.8896  -32.2938   26.4856 H   0  0  0  0  0  0
  -25.8007  -30.8967   27.0281 H   0  0  0  0  0  0
  -26.2935  -29.6736   24.1279 H   0  0  0  0  0  0
  -27.3949  -29.7248   25.4834 H   0  0  0  0  0  0
  -27.8857  -30.4225   23.9592 H   0  0  0  0  0  0
  -27.2678  -33.3623   26.2114 H   0  0  0  0  0  0
  -28.3883  -32.6868   25.0371 H   0  0  0  0  0  0
  -28.0727  -31.8446   26.5460 H   0  0  0  0  0  0
  -28.2577  -38.0112   24.7523 H   0  0  0  0  0  0
  -28.1098  -36.2644   24.6253 H   0  0  0  0  0  0
  -27.2310  -37.1403   25.8862 H   0  0  0  0  0  0
  -20.9401  -29.8792   21.6872 H   0  0  0  0  0  0
  -26.0163  -38.2846   24.1422 H   0  0  0  0  0  0
  -29.6494  -20.7719   18.3822 H   0  0  0  0  0  0
  -29.0367  -23.1080   18.0848 H   0  0  0  0  0  0
  -28.2345  -23.4854   22.2646 H   0  0  0  0  0  0
  -27.4276  -23.1377   25.1331 H   0  0  0  0  0  0
  -26.6157  -21.7641   24.2181 H   0  0  0  0  0  0
  -28.1028  -20.1104   25.3927 H   0  0  0  0  0  0
  -28.9117  -21.4890   26.3032 H   0  0  0  0  0  0
  -28.1405  -18.4117   22.0030 H   0  0  0  0  0  0
  -27.8841  -18.0562   20.3303 H   0  0  0  0  0  0
  -29.6385  -18.3719   18.6570 H   0  0  0  0  0  0
  -31.1730  -19.0800   19.0807 H   0  0  0  0  0  0
  -28.2685  -15.9515   21.4098 H   0  0  0  0  0  0
  -29.6219  -16.5300   22.3358 H   0  0  0  0  0  0
  -31.8486  -17.1805   20.3891 H   0  0  0  0  0  0
  -31.3612  -16.6530   18.8029 H   0  0  0  0  0  0
  -30.4945  -19.1365   21.4760 H   0  0  0  0  0  0
  -29.6627  -22.5001   24.1225 H   0  0  0  0  0  0
  -26.8850  -24.7053   20.3290 H   0  0  0  0  0  0
  -27.6801  -24.8828   18.7781 H   0  0  0  0  0  0
  -29.2115  -19.9793   23.0008 H   0  0  0  0  0  0
  1 25  1  0  0  0
  1 30  2  0  0  0
  1 86  1  0  0  0
  2  3  1  0  0  0
  2 25  1  0  0  0
  2 88  1  0  0  0
  2 89  1  0  0  0
  3  4  1  0  0  0
  3 90  1  0  0  0
  3 91  1  0  0  0
  4  5  1  0  0  0
  4 92  1  0  0  0
  4 93  1  0  0  0
  5  6  1  0  0  0
  5 26  1  0  0  0
  5 94  1  0  0  0
  6 25  1  0  0  0
  6 95  1  0  0  0
  6 96  1  0  0  0
  7  8  2  0  0  0
  7 26  1  0  0  0
  7 29  1  0  0  0
  8  9  1  0  0  0
  8 22  1  0  0  0
  9 10  1  0  0  0
  9 27  2  0  0  0
 10 11  2  0  0  0
 10 15  1  0  0  0
 11 12  1  0  0  0
 11 97  1  0  0  0
 12 13  2  0  0  0
 12 98  1  0  0  0
 13 14  1  0  0  0
 13 31  1  0  0  0
 14 15  2  0  0  0
 14 99  1  0  0  0
 15100  1  0  0  0
 16 17  2  0  0  0
 16 21  1  0  0  0
 16 31  1  0  0  0
 17 18  1  0  0  0
 17101  1  0  0  0
 18 19  2  0  0  0
 18102  1  0  0  0
 19 20  1  0  0  0
 19 24  1  0  0  0
 20 21  2  0  0  0
 20103  1  0  0  0
 21 23  1  0  0  0
 22 28  1  0  0  0
 22 32  2  0  0  0
 26 27  1  0  0  0
 28104  1  0  0  0
 28105  1  0  0  0
 29106  1  0  0  0
 29107  1  0  0  0
 33 34  1  0  0  0
 33 66  1  0  0  0
 33 70  2  0  0  0
 34 36  1  0  0  0
 34 59  1  0  0  0
 34108  1  0  0  0
 35 44  2  0  0  0
 35 45  1  0  0  0
 35 68  1  0  0  0
 36 56  1  0  0  0
 36109  1  0  0  0
 37 39  1  0  0  0
 37 47  1  0  0  0
 37 66  1  0  0  0
 37110  1  0  0  0
 38 43  2  0  0  0
 38 46  1  0  0  0
 38 47  1  0  0  0
 39 64  1  0  0  0
 39 67  2  0  0  0
 40 52  1  0  0  0
 40 53  2  0  0  0
 40 58  1  0  0  0
 41111  1  0  0  0
 41112  1  0  0  0
 41113  1  0  0  0
 41 48  1  0  0  0
 42 43  1  0  0  0
 42 66  1  0  0  0
 42114  1  0  0  0
 42115  1  0  0  0
 43 44  1  0  0  0
 44116  1  0  0  0
 45 46  2  0  0  0
 45117  1  0  0  0
 46118  1  0  0  0
 47119  1  0  0  0
 47120  1  0  0  0
 48 56  1  0  0  0
 48 65  1  0  0  0
 48121  1  0  0  0
 49 50  1  0  0  0
 49 53  1  0  0  0
 49 64  1  0  0  0
 49122  1  0  0  0
 50 51  1  0  0  0
 50123  1  0  0  0
 50124  1  0  0  0
 51 52  1  0  0  0
 51125  1  0  0  0
 51126  1  0  0  0
 52127  1  0  0  0
 52128  1  0  0  0
 53 54  1  0  0  0
 54 55  2  0  0  0
 54129  1  0  0  0
 55 57  1  0  0  0
 55130  1  0  0  0
 56 69  2  0  0  0
 57 58  2  0  0  0
 57131  1  0  0  0
 58132  1  0  0  0
 59 60  1  0  0  0
 59 61  1  0  0  0
 59 62  1  0  0  0
 60133  1  0  0  0
 60134  1  0  0  0
 60135  1  0  0  0
 61136  1  0  0  0
 61137  1  0  0  0
 61138  1  0  0  0
 62139  1  0  0  0
 62140  1  0  0  0
 62141  1  0  0  0
 63 65  1  0  0  0
 63142  1  0  0  0
 63143  1  0  0  0
 63144  1  0  0  0
 64145  1  0  0  0
 65146  1  0  0  0
 68 85  1  0  0  0
 71 72  2  0  0  0
 71 74  1  0  0  0
 71147  1  0  0  0
 72 75  1  0  0  0
 72148  1  0  0  0
 73 75  2  0  0  0
 73 76  1  0  0  0
 73149  1  0  0  0
 74 76  2  0  0  0
 74 83  1  0  0  0
 75 85  1  0  0  0
 76 87  1  0  0  0
 77 78  1  0  0  0
 77 84  1  0  0  0
 77150  1  0  0  0
 77151  1  0  0  0
 78 84  1  0  0  0
 78152  1  0  0  0
 78153  1  0  0  0
 79 81  1  0  0  0
 79 83  1  0  0  0
 79154  1  0  0  0
 79155  1  0  0  0
 80 82  1  0  0  0
 80 83  1  0  0  0
 80156  1  0  0  0
 80157  1  0  0  0
 81 86  1  0  0  0
 81158  1  0  0  0
 81159  1  0  0  0
 82 86  1  0  0  0
 82160  1  0  0  0
 82161  1  0  0  0
 83162  1  0  0  0
 84 87  1  0  0  0
 84163  1  0  0  0
 85164  1  0  0  0
 85165  1  0  0  0
 87166  1  0  0  0
M  ISO  4   1 100  68 101  85 101  86 100
M  END
> <chiral flag>
0

> <version>
0

> <s_m_source_file>
/data/baiqing/PycharmProjects/Reinvent-master-3.2/result/LINK_invent/BTK/process_docking_weight1_custom_sum_contain_oxygen_bond_distance_aromatic_linkinvent_7_9_3/rearranged_h_0144.sdf

> <i_m_source_file_index>
73

> <r_mmod_Potential_Energy-OPLS-2005>
461.766204833984

> <r_mmod_Stretch_Energy-OPLS-2005>
112.607086181641

> <r_mmod_Bend_Energy-OPLS-2005>
214.305160522461

> <r_mmod_Torsional_Energy-OPLS-2005>
352.803405761719

> <r_mmod_Improper_Torsional_Energy-OPLS-2005>
21.4064121246338

> <r_mmod_Van_der_Waal_Energy-OPLS-2005>
166.744369506836

> <r_mmod_Electrostatic_Energy-OPLS-2005>
-294.2392578125

> <r_mmod_Solvation_Energy-OPLS-2005>
-202.483993530273

> <b_mmod_Minimization_Converged-OPLS-2005>
0

> <r_mmod_RMS_Derivative-OPLS-2005>
0.677089810371399

$$$$
74
                    3D
 Structure written by MMmdl.
169178  0  0  1  0            999 V2000
  -30.7298  -14.3887   20.5768 C   0  0  0  0  0  0
  -30.4165  -12.2631   19.3898 C   0  0  0  0  0  0
  -29.4820  -12.5020   18.1861 C   0  0  0  0  0  0
  -28.0023  -12.3874   18.6014 C   0  0  0  0  0  0
  -27.6650  -13.2015   19.8810 C   0  0  2  0  0  0
  -28.7138  -12.9358   20.9858 C   0  0  0  0  0  0
  -25.2578  -13.8098   20.5715 C   0  0  0  0  0  0
  -24.1826  -13.0404   20.9168 C   0  0  0  0  0  0
  -24.6348  -11.6857   20.8685 C   0  0  0  0  0  0
  -23.9002  -10.4254   21.0387 C   0  0  0  0  0  0
  -24.3559   -9.4185   21.9191 C   0  0  0  0  0  0
  -23.6267   -8.2201   22.0745 C   0  0  0  0  0  0
  -22.4250   -8.0211   21.3542 C   0  0  0  0  0  0
  -21.9876   -9.0169   20.4639 C   0  0  0  0  0  0
  -22.7158  -10.2078   20.3059 C   0  0  0  0  0  0
  -21.6839   -6.0684   22.5262 C   0  0  0  0  0  0
  -21.3990   -6.5598   23.8185 C   0  0  0  0  0  0
  -21.3689   -5.6777   24.9173 C   0  0  0  0  0  0
  -21.6074   -4.3033   24.7251 C   0  0  0  0  0  0
  -21.8822   -3.8105   23.4368 C   0  0  0  0  0  0
  -21.9181   -4.6911   22.3416 C   0  0  0  0  0  0
  -22.7845  -13.5197   21.1859 C   0  0  0  0  0  0
  -22.1641   -4.2090   21.1003 F   0  0  0  0  0  0
  -21.5668   -3.4525   25.7780 F   0  0  0  0  0  0
  -30.0473  -13.2264   20.4315 N   0  0  0  0  0  0
  -26.3038  -12.9285   20.3411 N   0  0  0  0  0  0
  -25.9297  -11.6435   20.5762 N   0  0  0  0  0  0
  -22.0485  -12.8169   22.0352 N   0  0  0  0  0  0
  -25.4270  -15.1830   20.4211 N   0  0  0  0  0  0
  -31.8607  -14.5872   20.1291 O   0  0  0  0  0  0
  -21.6618   -6.8811   21.4212 O   0  0  0  0  0  0
  -22.3548  -14.5545   20.6740 O   0  0  0  0  0  0
  -24.6126  -31.8743   23.2125 C   0  0  0  0  0  0
  -25.9033  -32.4860   23.8429 C   0  0  1  0  0  0
  -27.2354  -27.4558   20.0670 C   0  0  0  0  0  0
  -25.5855  -33.8645   24.2346 N   0  0  0  0  0  0
  -23.3966  -30.4932   21.5571 C   0  0  2  0  0  0
  -24.8446  -28.9636   20.1236 C   0  0  0  0  0  0
  -22.7389  -29.4675   22.5061 C   0  0  0  0  0  0
  -18.0267  -28.1370   22.8430 C   0  0  0  0  0  0
  -24.1457  -36.7361   23.2613 C   0  0  0  0  0  0
  -25.9224  -30.8449   21.3576 C   0  0  0  0  0  0
  -26.0035  -29.4722   20.7218 C   0  0  0  0  0  0
  -27.2000  -28.7186   20.7002 C   0  0  0  0  0  0
  -26.0568  -26.9818   19.4372 C   0  0  0  0  0  0
  -24.8651  -27.7185   19.4809 C   0  0  0  0  0  0
  -23.6089  -29.8291   20.1730 C   0  0  0  0  0  0
  -25.4075  -36.3144   24.0320 C   0  0  1  0  0  0
  -20.5859  -28.3629   23.1294 C   0  0  2  0  0  0
  -20.6781  -26.9426   22.5241 C   0  0  0  0  0  0
  -19.5696  -26.6321   21.5130 C   0  0  0  0  0  0
  -18.1869  -26.7888   22.1578 C   0  0  0  0  0  0
  -19.1505  -28.8813   23.2854 C   0  0  0  0  0  0
  -18.9422  -30.1393   23.8951 C   0  0  0  0  0  0
  -17.6441  -30.6577   24.0590 C   0  0  0  0  0  0
  -25.8998  -34.9493   23.5136 C   0  0  0  0  0  0
  -16.5335  -29.9085   23.6287 C   0  0  0  0  0  0
  -16.7270  -28.6498   23.0326 C   0  0  0  0  0  0
  -26.4442  -31.6634   25.0750 C   0  0  0  0  0  0
  -25.3706  -31.3745   26.1502 C   0  0  0  0  0  0
  -27.0232  -30.3087   24.6043 C   0  0  0  0  0  0
  -27.6007  -32.4333   25.7547 C   0  0  0  0  0  0
  -27.5562  -37.1856   24.8464 C   0  0  0  0  0  0
  -21.4136  -29.3080   22.3838 N   0  0  0  0  0  0
  -26.4266  -37.3836   23.9412 N   0  0  0  0  0  0
  -24.6623  -31.0861   22.1009 N   0  0  0  0  0  0
  -23.4174  -28.8209   23.3089 O   0  0  0  0  0  0
  -28.4179  -26.7436   20.0769 O   0  0  0  0  0  0
  -26.5597  -34.8967   22.4709 O   0  0  0  0  0  0
  -23.5322  -32.1459   23.7527 O   0  0  0  0  0  0
  -28.0512  -17.6356   22.0309 C   0  0  0  0  0  0
  -30.3075  -18.4969   21.9265 C   0  0  0  0  0  0
  -28.4114  -20.0280   21.5443 C   0  0  0  0  0  0
  -29.4307  -17.4177   22.1136 C   0  0  0  0  0  0
  -27.5400  -18.9141   21.7466 C   0  0  0  0  0  0
  -29.8243  -19.7932   21.6443 C   0  0  0  0  0  0
  -27.6053  -21.3966   19.5799 C   0  0  0  0  0  0
  -28.6083  -22.4379   19.0707 C   0  0  0  0  0  0
  -28.3993  -22.7016   21.4443 C   0  0  0  0  0  0
  -27.7525  -21.3549   21.1060 C   0  0  2  0  0  0
  -26.0288  -19.0141   21.6065 C   0  0  0  0  0  0
  -30.9035  -20.8408   21.4008 C   0  0  0  0  0  0
  -29.9495  -16.0016   22.2437 C   0  0  0  0  0  0
  -29.5300  -24.5393   20.1548 C   0  0  0  0  0  0
  -28.3555  -25.3877   19.6330 C   0  0  0  0  0  0
  -29.9685  -15.4255   20.9141 N   0  0  0  0  0  0
  -29.2050  -23.0901   20.2660 N   0  3  2  0  0  0
  -31.4576  -12.3576   19.0785 H   0  0  0  0  0  0
  -30.3042  -11.2425   19.7693 H   0  0  0  0  0  0
  -29.6916  -11.7790   17.3956 H   0  0  0  0  0  0
  -29.6732  -13.4881   17.7567 H   0  0  0  0  0  0
  -27.7826  -11.3312   18.7644 H   0  0  0  0  0  0
  -27.3559  -12.7068   17.7818 H   0  0  0  0  0  0
  -27.7181  -14.2559   19.6106 H   0  0  0  0  0  0
  -28.6780  -11.8934   21.3083 H   0  0  0  0  0  0
  -28.4928  -13.5281   21.8717 H   0  0  0  0  0  0
  -25.2700   -9.5652   22.4769 H   0  0  0  0  0  0
  -23.9980   -7.4589   22.7468 H   0  0  0  0  0  0
  -21.0800   -8.8634   19.8958 H   0  0  0  0  0  0
  -22.3578  -10.9599   19.6165 H   0  0  0  0  0  0
  -21.1917   -7.6095   23.9661 H   0  0  0  0  0  0
  -21.1554   -6.0524   25.9087 H   0  0  0  0  0  0
  -22.0586   -2.7552   23.2901 H   0  0  0  0  0  0
  -22.4124  -11.9894   22.4849 H   0  0  0  0  0  0
  -21.1107  -13.1183   22.2561 H   0  0  0  0  0  0
  -24.6678  -15.8418   20.5559 H   0  0  0  0  0  0
  -26.2999  -15.6189   20.1564 H   0  0  0  0  0  0
  -26.7139  -32.5659   23.1249 H   0  0  0  0  0  0
  -25.0041  -33.9824   25.0525 H   0  0  0  0  0  0
  -22.6771  -31.3007   21.4193 H   0  0  0  0  0  0
  -23.3701  -35.9718   23.3297 H   0  0  0  0  0  0
  -24.3506  -36.8973   22.2015 H   0  0  0  0  0  0
  -23.7258  -37.6577   23.6646 H   0  0  0  0  0  0
  -26.0100  -31.5915   20.5646 H   0  0  0  0  0  0
  -26.8144  -30.9204   21.9656 H   0  0  0  0  0  0
  -28.1004  -29.1010   21.1607 H   0  0  0  0  0  0
  -26.0222  -26.0631   18.8726 H   0  0  0  0  0  0
  -23.9852  -27.3324   18.9857 H   0  0  0  0  0  0
  -23.7285  -30.5978   19.4101 H   0  0  0  0  0  0
  -22.7317  -29.2563   19.8715 H   0  0  0  0  0  0
  -25.1261  -36.1992   25.0815 H   0  0  0  0  0  0
  -20.9921  -28.3127   24.1432 H   0  0  0  0  0  0
  -20.5890  -26.2185   23.3367 H   0  0  0  0  0  0
  -21.6583  -26.7589   22.0795 H   0  0  0  0  0  0
  -19.6869  -25.6202   21.1229 H   0  0  0  0  0  0
  -19.6570  -27.3049   20.6565 H   0  0  0  0  0  0
  -17.4139  -26.6597   21.3945 H   0  0  0  0  0  0
  -18.0190  -26.0057   22.8984 H   0  0  0  0  0  0
  -19.7901  -30.7179   24.2413 H   0  0  0  0  0  0
  -17.4983  -31.6251   24.5198 H   0  0  0  0  0  0
  -15.5332  -30.2981   23.7578 H   0  0  0  0  0  0
  -15.8664  -28.0790   22.7094 H   0  0  0  0  0  0
  -24.5887  -30.7062   25.7878 H   0  0  0  0  0  0
  -24.8890  -32.2916   26.4911 H   0  0  0  0  0  0
  -25.8036  -30.8977   27.0306 H   0  0  0  0  0  0
  -26.2741  -29.6931   24.1038 H   0  0  0  0  0  0
  -27.3983  -29.7217   25.4434 H   0  0  0  0  0  0
  -27.8593  -30.4426   23.9165 H   0  0  0  0  0  0
  -27.2598  -33.3627   26.2120 H   0  0  0  0  0  0
  -28.3843  -32.6896   25.0405 H   0  0  0  0  0  0
  -28.0651  -31.8477   26.5505 H   0  0  0  0  0  0
  -28.2607  -38.0133   24.7489 H   0  0  0  0  0  0
  -28.1037  -36.2666   24.6316 H   0  0  0  0  0  0
  -27.2282  -37.1541   25.8872 H   0  0  0  0  0  0
  -20.9411  -29.8802   21.7012 H   0  0  0  0  0  0
  -26.0140  -38.2891   24.1493 H   0  0  0  0  0  0
  -27.3803  -16.7946   22.1364 H   0  0  0  0  0  0
  -31.3726  -18.3119   21.9472 H   0  0  0  0  0  0
  -27.7728  -20.4198   19.1242 H   0  0  0  0  0  0
  -26.5943  -21.7012   19.3082 H   0  0  0  0  0  0
  -28.0911  -23.1293   18.4083 H   0  0  0  0  0  0
  -29.3995  -21.9710   18.4797 H   0  0  0  0  0  0
  -28.9409  -22.7104   22.3895 H   0  0  0  0  0  0
  -27.5919  -23.4259   21.5649 H   0  0  0  0  0  0
  -26.7705  -21.4190   21.5762 H   0  0  0  0  0  0
  -25.5688  -18.0289   21.6902 H   0  0  0  0  0  0
  -25.7359  -19.4204   20.6396 H   0  0  0  0  0  0
  -25.6129  -19.6327   22.3985 H   0  0  0  0  0  0
  -31.8978  -20.4159   21.5360 H   0  0  0  0  0  0
  -30.8491  -21.6729   22.1007 H   0  0  0  0  0  0
  -30.8826  -21.1872   20.3700 H   0  0  0  0  0  0
  -29.2895  -15.4183   22.8886 H   0  0  0  0  0  0
  -30.9392  -15.9858   22.7051 H   0  0  0  0  0  0
  -29.8450  -24.9008   21.1368 H   0  0  0  0  0  0
  -30.3856  -24.6481   19.4868 H   0  0  0  0  0  0
  -27.4328  -24.9163   19.9720 H   0  0  0  0  0  0
  -28.3393  -25.3761   18.5431 H   0  0  0  0  0  0
  -30.0517  -16.1724   20.2422 H   0  0  0  0  0  0
  -30.0838  -22.6084   20.3933 H   0  0  0  0  0  0
  1 25  1  0  0  0
  1 30  2  0  0  0
  1 86  1  0  0  0
  2  3  1  0  0  0
  2 25  1  0  0  0
  2 88  1  0  0  0
  2 89  1  0  0  0
  3  4  1  0  0  0
  3 90  1  0  0  0
  3 91  1  0  0  0
  4  5  1  0  0  0
  4 92  1  0  0  0
  4 93  1  0  0  0
  5  6  1  0  0  0
  5 26  1  0  0  0
  5 94  1  0  0  0
  6 25  1  0  0  0
  6 95  1  0  0  0
  6 96  1  0  0  0
  7  8  2  0  0  0
  7 26  1  0  0  0
  7 29  1  0  0  0
  8  9  1  0  0  0
  8 22  1  0  0  0
  9 10  1  0  0  0
  9 27  2  0  0  0
 10 11  2  0  0  0
 10 15  1  0  0  0
 11 12  1  0  0  0
 11 97  1  0  0  0
 12 13  2  0  0  0
 12 98  1  0  0  0
 13 14  1  0  0  0
 13 31  1  0  0  0
 14 15  2  0  0  0
 14 99  1  0  0  0
 15100  1  0  0  0
 16 17  2  0  0  0
 16 21  1  0  0  0
 16 31  1  0  0  0
 17 18  1  0  0  0
 17101  1  0  0  0
 18 19  2  0  0  0
 18102  1  0  0  0
 19 20  1  0  0  0
 19 24  1  0  0  0
 20 21  2  0  0  0
 20103  1  0  0  0
 21 23  1  0  0  0
 22 28  1  0  0  0
 22 32  2  0  0  0
 26 27  1  0  0  0
 28104  1  0  0  0
 28105  1  0  0  0
 29106  1  0  0  0
 29107  1  0  0  0
 33 34  1  0  0  0
 33 66  1  0  0  0
 33 70  2  0  0  0
 34 36  1  0  0  0
 34 59  1  0  0  0
 34108  1  0  0  0
 35 44  2  0  0  0
 35 45  1  0  0  0
 35 68  1  0  0  0
 36 56  1  0  0  0
 36109  1  0  0  0
 37 39  1  0  0  0
 37 47  1  0  0  0
 37 66  1  0  0  0
 37110  1  0  0  0
 38 43  2  0  0  0
 38 46  1  0  0  0
 38 47  1  0  0  0
 39 64  1  0  0  0
 39 67  2  0  0  0
 40 52  1  0  0  0
 40 53  2  0  0  0
 40 58  1  0  0  0
 41111  1  0  0  0
 41112  1  0  0  0
 41113  1  0  0  0
 41 48  1  0  0  0
 42 43  1  0  0  0
 42 66  1  0  0  0
 42114  1  0  0  0
 42115  1  0  0  0
 43 44  1  0  0  0
 44116  1  0  0  0
 45 46  2  0  0  0
 45117  1  0  0  0
 46118  1  0  0  0
 47119  1  0  0  0
 47120  1  0  0  0
 48 56  1  0  0  0
 48 65  1  0  0  0
 48121  1  0  0  0
 49 50  1  0  0  0
 49 53  1  0  0  0
 49 64  1  0  0  0
 49122  1  0  0  0
 50 51  1  0  0  0
 50123  1  0  0  0
 50124  1  0  0  0
 51 52  1  0  0  0
 51125  1  0  0  0
 51126  1  0  0  0
 52127  1  0  0  0
 52128  1  0  0  0
 53 54  1  0  0  0
 54 55  2  0  0  0
 54129  1  0  0  0
 55 57  1  0  0  0
 55130  1  0  0  0
 56 69  2  0  0  0
 57 58  2  0  0  0
 57131  1  0  0  0
 58132  1  0  0  0
 59 60  1  0  0  0
 59 61  1  0  0  0
 59 62  1  0  0  0
 60133  1  0  0  0
 60134  1  0  0  0
 60135  1  0  0  0
 61136  1  0  0  0
 61137  1  0  0  0
 61138  1  0  0  0
 62139  1  0  0  0
 62140  1  0  0  0
 62141  1  0  0  0
 63 65  1  0  0  0
 63142  1  0  0  0
 63143  1  0  0  0
 63144  1  0  0  0
 64145  1  0  0  0
 65146  1  0  0  0
 68 85  1  0  0  0
 71 74  2  0  0  0
 71 75  1  0  0  0
 71147  1  0  0  0
 72 74  1  0  0  0
 72 76  2  0  0  0
 72148  1  0  0  0
 73 75  2  0  0  0
 73 76  1  0  0  0
 73 80  1  0  0  0
 74 83  1  0  0  0
 75 81  1  0  0  0
 76 82  1  0  0  0
 77 78  1  0  0  0
 77 80  1  0  0  0
 77149  1  0  0  0
 77150  1  0  0  0
 78 87  1  0  0  0
 78151  1  0  0  0
 78152  1  0  0  0
 79 80  1  0  0  0
 79 87  1  0  0  0
 79153  1  0  0  0
 79154  1  0  0  0
 80155  1  0  0  0
 81156  1  0  0  0
 81157  1  0  0  0
 81158  1  0  0  0
 82159  1  0  0  0
 82160  1  0  0  0
 82161  1  0  0  0
 83 86  1  0  0  0
 83162  1  0  0  0
 83163  1  0  0  0
 84 85  1  0  0  0
 84164  1  0  0  0
 84165  1  0  0  0
 84 87  1  0  0  0
 85166  1  0  0  0
 85167  1  0  0  0
 86168  1  0  0  0
 87169  1  0  0  0
M  CHG  1  87   1
M  ISO  4   1 100  68 101  85 101  86 100
M  END
> <chiral flag>
0

> <version>
0

> <s_m_source_file>
/data/baiqing/PycharmProjects/Reinvent-master-3.2/result/LINK_invent/BTK/process_docking_weight1_custom_sum_contain_oxygen_bond_distance_aromatic_linkinvent_7_9_3/rearranged_h_0144.sdf

> <i_m_source_file_index>
74

> <r_mmod_Potential_Energy-OPLS-2005>
-3.83790922164917

> <r_mmod_Stretch_Energy-OPLS-2005>
37.676456451416

> <r_mmod_Bend_Energy-OPLS-2005>
141.748596191406

> <r_mmod_Torsional_Energy-OPLS-2005>
365.752838134766

> <r_mmod_Improper_Torsional_Energy-OPLS-2005>
14.8515672683716

> <r_mmod_Van_der_Waal_Energy-OPLS-2005>
167.108367919922

> <r_mmod_Electrostatic_Energy-OPLS-2005>
-321.403839111328

> <r_mmod_Solvation_Energy-OPLS-2005>
-420.682647705078

> <b_mmod_Minimization_Converged-OPLS-2005>
0

> <r_mmod_RMS_Derivative-OPLS-2005>
6.53033924102783

$$$$
75
                    3D
 Structure written by MMmdl.
157166  0  0  1  0            999 V2000
  -30.4842  -15.0132   20.4033 C   0  0  0  0  0  0
  -30.4510  -12.6359   19.4745 C   0  0  0  0  0  0
  -29.5197  -12.5272   18.2438 C   0  0  0  0  0  0
  -28.0558  -12.3017   18.6731 C   0  0  0  0  0  0
  -27.6239  -13.2436   19.8264 C   0  0  2  0  0  0
  -28.6732  -13.2906   20.9542 C   0  0  0  0  0  0
  -25.2448  -13.8191   20.5709 C   0  0  0  0  0  0
  -24.1770  -13.0421   20.9240 C   0  0  0  0  0  0
  -24.6393  -11.6910   20.8765 C   0  0  0  0  0  0
  -23.9077  -10.4285   21.0413 C   0  0  0  0  0  0
  -24.3626   -9.4202   21.9192 C   0  0  0  0  0  0
  -23.6298   -8.2237   22.0758 C   0  0  0  0  0  0
  -22.4279   -8.0278   21.3547 C   0  0  0  0  0  0
  -21.9918   -9.0254   20.4649 C   0  0  0  0  0  0
  -22.7249  -10.2133   20.3060 C   0  0  0  0  0  0
  -21.6854   -6.0736   22.5280 C   0  0  0  0  0  0
  -21.4013   -6.5639   23.8212 C   0  0  0  0  0  0
  -21.3657   -5.6791   24.9173 C   0  0  0  0  0  0
  -21.6040   -4.3052   24.7225 C   0  0  0  0  0  0
  -21.8822   -3.8148   23.4344 C   0  0  0  0  0  0
  -21.9195   -4.6964   22.3401 C   0  0  0  0  0  0
  -22.7793  -13.5199   21.1898 C   0  0  0  0  0  0
  -22.1662   -4.2149   21.0979 F   0  0  0  0  0  0
  -21.5630   -3.4538   25.7737 F   0  0  0  0  0  0
  -29.9293  -13.7335   20.3347 N   0  0  0  0  0  0
  -26.2866  -12.9416   20.3213 N   0  0  0  0  0  0
  -25.9319  -11.6555   20.5735 N   0  0  0  0  0  0
  -22.0444  -12.8180   22.0450 N   0  0  0  0  0  0
  -25.4085  -15.1916   20.4128 N   0  0  0  0  0  0
  -31.7091  -15.1037   20.2676 O   0  0  0  0  0  0
  -21.6638   -6.8881   21.4241 O   0  0  0  0  0  0
  -22.3475  -14.5504   20.6742 O   0  0  0  0  0  0
  -24.6471  -31.8402   23.1827 C   0  0  0  0  0  0
  -25.9223  -32.4676   23.8244 C   0  0  1  0  0  0
  -27.2222  -27.0957   20.1657 C   0  0  0  0  0  0
  -25.5958  -33.8484   24.2166 N   0  0  0  0  0  0
  -23.4535  -30.4563   21.5291 C   0  0  2  0  0  0
  -24.9031  -28.8663   20.1213 C   0  0  0  0  0  0
  -22.7588  -29.4528   22.4844 C   0  0  0  0  0  0
  -18.0306  -28.1397   22.8475 C   0  0  0  0  0  0
  -24.1491  -36.7243   23.2647 C   0  0  0  0  0  0
  -26.0126  -30.7019   21.3854 C   0  0  0  0  0  0
  -26.0840  -29.3053   20.7353 C   0  0  0  0  0  0
  -27.2471  -28.4400   20.7301 C   0  0  0  0  0  0
  -26.0113  -26.7572   19.5301 C   0  0  0  0  0  0
  -24.8815  -27.6059   19.5030 C   0  0  0  0  0  0
  -23.6830  -29.7766   20.1537 C   0  0  0  0  0  0
  -25.4123  -36.3020   24.0317 C   0  0  1  0  0  0
  -20.5923  -28.3722   23.1230 C   0  0  2  0  0  0
  -20.6787  -26.9423   22.5406 C   0  0  0  0  0  0
  -19.5761  -26.6377   21.5214 C   0  0  0  0  0  0
  -18.1940  -26.7938   22.1619 C   0  0  0  0  0  0
  -19.1567  -28.8882   23.2844 C   0  0  0  0  0  0
  -18.9481  -30.1475   23.8867 C   0  0  0  0  0  0
  -17.6476  -30.6593   24.0557 C   0  0  0  0  0  0
  -25.9078  -34.9396   23.5055 C   0  0  0  0  0  0
  -16.5367  -29.9084   23.6336 C   0  0  0  0  0  0
  -16.7290  -28.6505   23.0356 C   0  0  0  0  0  0
  -26.4524  -31.6558   25.0702 C   0  0  0  0  0  0
  -25.3702  -31.3757   26.1394 C   0  0  0  0  0  0
  -27.0395  -30.2952   24.6308 C   0  0  0  0  0  0
  -27.6055  -32.4331   25.7488 C   0  0  0  0  0  0
  -27.5566  -37.1776   24.8468 C   0  0  0  0  0  0
  -21.4276  -29.3048   22.3603 N   0  0  0  0  0  0
  -26.4279  -37.3736   23.9408 N   0  0  0  0  0  0
  -24.7249  -31.0222   22.0879 N   0  0  0  0  0  0
  -23.4221  -28.8077   23.3009 O   0  0  0  0  0  0
  -28.2938  -26.1229   20.1028 O   0  0  0  0  0  0
  -26.5670  -34.8907   22.4639 O   0  0  0  0  0  0
  -23.5580  -32.1293   23.7015 O   0  0  0  0  0  0
  -27.2159  -21.6726   18.4563 C   0  0  0  0  0  0
  -27.4168  -22.9542   19.0132 C   0  0  0  0  0  0
  -29.0675  -21.9333   20.4623 C   0  0  0  0  0  0
  -27.9084  -20.5035   18.8698 C   0  0  0  0  0  0
  -28.3324  -23.1816   20.0533 C   0  0  0  0  0  0
  -28.9007  -20.5516   19.8902 C   0  0  0  0  0  0
  -26.2175  -18.8754   17.6502 C   0  0  0  0  0  0
  -26.8390  -18.0984   18.7827 C   0  0  0  0  0  0
  -27.6108  -19.2230   18.1323 C   0  0  0  0  0  0
  -29.8334  -19.1641   20.0671 C   0  0  0  0  0  0
  -28.2824  -24.6938   20.7574 C   0  0  0  0  0  0
  -29.5213  -17.6884   20.8592 C   0  0  0  0  0  0
  -29.6204  -16.1561   20.3880 N   0  0  0  0  0  0
  -31.4730  -12.8362   19.1493 H   0  0  0  0  0  0
  -30.4857  -11.6946   20.0252 H   0  0  0  0  0  0
  -29.8480  -11.7166   17.5922 H   0  0  0  0  0  0
  -29.5876  -13.4414   17.6519 H   0  0  0  0  0  0
  -27.9671  -11.2642   18.9973 H   0  0  0  0  0  0
  -27.3860  -12.4118   17.8192 H   0  0  0  0  0  0
  -27.5765  -14.2386   19.3835 H   0  0  0  0  0  0
  -28.7868  -12.3166   21.4326 H   0  0  0  0  0  0
  -28.3667  -13.9886   21.7353 H   0  0  0  0  0  0
  -25.2776   -9.5672   22.4763 H   0  0  0  0  0  0
  -24.0007   -7.4626   22.7474 H   0  0  0  0  0  0
  -21.0855   -8.8775   19.8950 H   0  0  0  0  0  0
  -22.3716  -10.9673   19.6165 H   0  0  0  0  0  0
  -21.2002   -7.6148   23.9717 H   0  0  0  0  0  0
  -21.1472   -6.0519   25.9076 H   0  0  0  0  0  0
  -22.0602   -2.7610   23.2843 H   0  0  0  0  0  0
  -22.4072  -11.9841   22.4826 H   0  0  0  0  0  0
  -21.1066  -13.1197   22.2671 H   0  0  0  0  0  0
  -24.6309  -15.8340   20.5177 H   0  0  0  0  0  0
  -26.2390  -15.6372   20.0512 H   0  0  0  0  0  0
  -26.7295  -32.5264   23.0975 H   0  0  0  0  0  0
  -25.0088  -33.9604   25.0298 H   0  0  0  0  0  0
  -22.7582  -31.2827   21.3672 H   0  0  0  0  0  0
  -23.3763  -35.9567   23.3304 H   0  0  0  0  0  0
  -24.3569  -36.8877   22.2064 H   0  0  0  0  0  0
  -23.7243  -37.6434   23.6688 H   0  0  0  0  0  0
  -26.1721  -31.4513   20.6083 H   0  0  0  0  0  0
  -26.8827  -30.7561   22.0286 H   0  0  0  0  0  0
  -28.1571  -28.7851   21.1992 H   0  0  0  0  0  0
  -25.9292  -25.7941   19.0482 H   0  0  0  0  0  0
  -23.9803  -27.2634   19.0131 H   0  0  0  0  0  0
  -23.8264  -30.5465   19.3947 H   0  0  0  0  0  0
  -22.7966  -29.2218   19.8404 H   0  0  0  0  0  0
  -25.1314  -36.1838   25.0809 H   0  0  0  0  0  0
  -21.0007  -28.3308   24.1353 H   0  0  0  0  0  0
  -20.5679  -26.2337   23.3628 H   0  0  0  0  0  0
  -21.6649  -26.7425   22.1197 H   0  0  0  0  0  0
  -19.6929  -25.6284   21.1255 H   0  0  0  0  0  0
  -19.6696  -27.3177   20.6741 H   0  0  0  0  0  0
  -17.4208  -26.6682   21.4025 H   0  0  0  0  0  0
  -18.0334  -26.0093   22.9030 H   0  0  0  0  0  0
  -19.7957  -30.7296   24.2222 H   0  0  0  0  0  0
  -17.5031  -31.6268   24.5163 H   0  0  0  0  0  0
  -15.5367  -30.2973   23.7682 H   0  0  0  0  0  0
  -15.8689  -28.0810   22.7093 H   0  0  0  0  0  0
  -24.5887  -30.7102   25.7710 H   0  0  0  0  0  0
  -24.8889  -32.2948   26.4755 H   0  0  0  0  0  0
  -25.7980  -30.8966   27.0213 H   0  0  0  0  0  0
  -26.3021  -29.6666   24.1312 H   0  0  0  0  0  0
  -27.4001  -29.7259   25.4886 H   0  0  0  0  0  0
  -27.8928  -30.4186   23.9636 H   0  0  0  0  0  0
  -27.2654  -33.3671   26.1973 H   0  0  0  0  0  0
  -28.3909  -32.6828   25.0341 H   0  0  0  0  0  0
  -28.0676  -31.8516   26.5474 H   0  0  0  0  0  0
  -28.2580  -38.0073   24.7499 H   0  0  0  0  0  0
  -28.1064  -36.2603   24.6312 H   0  0  0  0  0  0
  -27.2285  -37.1435   25.8872 H   0  0  0  0  0  0
  -20.9497  -29.8755   21.6765 H   0  0  0  0  0  0
  -26.0144  -38.2804   24.1411 H   0  0  0  0  0  0
  -26.4909  -21.5945   17.6575 H   0  0  0  0  0  0
  -26.8199  -23.7772   18.6484 H   0  0  0  0  0  0
  -29.8014  -22.0477   21.2478 H   0  0  0  0  0  0
  -25.3898  -19.5337   17.9062 H   0  0  0  0  0  0
  -26.1283  -18.3643   16.6933 H   0  0  0  0  0  0
  -27.1502  -17.0789   18.5661 H   0  0  0  0  0  0
  -26.4296  -18.2662   19.7768 H   0  0  0  0  0  0
  -28.4295  -18.9631   17.4626 H   0  0  0  0  0  0
  -30.7577  -19.5321   20.5130 H   0  0  0  0  0  0
  -30.1530  -18.8997   19.0588 H   0  0  0  0  0  0
  -29.1230  -24.7056   21.4510 H   0  0  0  0  0  0
  -27.4038  -24.6746   21.4027 H   0  0  0  0  0  0
  -28.4831  -17.7712   21.1824 H   0  0  0  0  0  0
  -30.0667  -17.7299   21.8020 H   0  0  0  0  0  0
  -28.6875  -15.8097   20.2284 H   0  0  0  0  0  0
  1 25  1  0  0  0
  1 30  2  0  0  0
  1 83  1  0  0  0
  2  3  1  0  0  0
  2 25  1  0  0  0
  2 84  1  0  0  0
  2 85  1  0  0  0
  3  4  1  0  0  0
  3 86  1  0  0  0
  3 87  1  0  0  0
  4  5  1  0  0  0
  4 88  1  0  0  0
  4 89  1  0  0  0
  5  6  1  0  0  0
  5 26  1  0  0  0
  5 90  1  0  0  0
  6 25  1  0  0  0
  6 91  1  0  0  0
  6 92  1  0  0  0
  7  8  2  0  0  0
  7 26  1  0  0  0
  7 29  1  0  0  0
  8  9  1  0  0  0
  8 22  1  0  0  0
  9 10  1  0  0  0
  9 27  2  0  0  0
 10 11  2  0  0  0
 10 15  1  0  0  0
 11 12  1  0  0  0
 11 93  1  0  0  0
 12 13  2  0  0  0
 12 94  1  0  0  0
 13 14  1  0  0  0
 13 31  1  0  0  0
 14 15  2  0  0  0
 14 95  1  0  0  0
 15 96  1  0  0  0
 16 17  2  0  0  0
 16 21  1  0  0  0
 16 31  1  0  0  0
 17 18  1  0  0  0
 17 97  1  0  0  0
 18 19  2  0  0  0
 18 98  1  0  0  0
 19 20  1  0  0  0
 19 24  1  0  0  0
 20 21  2  0  0  0
 20 99  1  0  0  0
 21 23  1  0  0  0
 22 28  1  0  0  0
 22 32  2  0  0  0
 26 27  1  0  0  0
 28100  1  0  0  0
 28101  1  0  0  0
 29102  1  0  0  0
 29103  1  0  0  0
 33 34  1  0  0  0
 33 66  1  0  0  0
 33 70  2  0  0  0
 34 36  1  0  0  0
 34 59  1  0  0  0
 34104  1  0  0  0
 35 44  2  0  0  0
 35 45  1  0  0  0
 35 68  1  0  0  0
 36 56  1  0  0  0
 36105  1  0  0  0
 37 39  1  0  0  0
 37 47  1  0  0  0
 37 66  1  0  0  0
 37106  1  0  0  0
 38 43  2  0  0  0
 38 46  1  0  0  0
 38 47  1  0  0  0
 39 64  1  0  0  0
 39 67  2  0  0  0
 40 52  1  0  0  0
 40 53  2  0  0  0
 40 58  1  0  0  0
 41107  1  0  0  0
 41108  1  0  0  0
 41109  1  0  0  0
 41 48  1  0  0  0
 42 43  1  0  0  0
 42 66  1  0  0  0
 42110  1  0  0  0
 42111  1  0  0  0
 43 44  1  0  0  0
 44112  1  0  0  0
 45 46  2  0  0  0
 45113  1  0  0  0
 46114  1  0  0  0
 47115  1  0  0  0
 47116  1  0  0  0
 48 56  1  0  0  0
 48 65  1  0  0  0
 48117  1  0  0  0
 49 50  1  0  0  0
 49 53  1  0  0  0
 49 64  1  0  0  0
 49118  1  0  0  0
 50 51  1  0  0  0
 50119  1  0  0  0
 50120  1  0  0  0
 51 52  1  0  0  0
 51121  1  0  0  0
 51122  1  0  0  0
 52123  1  0  0  0
 52124  1  0  0  0
 53 54  1  0  0  0
 54 55  2  0  0  0
 54125  1  0  0  0
 55 57  1  0  0  0
 55126  1  0  0  0
 56 69  2  0  0  0
 57 58  2  0  0  0
 57127  1  0  0  0
 58128  1  0  0  0
 59 60  1  0  0  0
 59 61  1  0  0  0
 59 62  1  0  0  0
 60129  1  0  0  0
 60130  1  0  0  0
 60131  1  0  0  0
 61132  1  0  0  0
 61133  1  0  0  0
 61134  1  0  0  0
 62135  1  0  0  0
 62136  1  0  0  0
 62137  1  0  0  0
 63 65  1  0  0  0
 63138  1  0  0  0
 63139  1  0  0  0
 63140  1  0  0  0
 64141  1  0  0  0
 65142  1  0  0  0
 68 81  1  0  0  0
 71 72  2  0  0  0
 71 74  1  0  0  0
 71143  1  0  0  0
 72 75  1  0  0  0
 72144  1  0  0  0
 73 75  2  0  0  0
 73 76  1  0  0  0
 73145  1  0  0  0
 74 76  2  0  0  0
 74 79  1  0  0  0
 75 81  1  0  0  0
 76 80  1  0  0  0
 77 78  1  0  0  0
 77 79  1  0  0  0
 77146  1  0  0  0
 77147  1  0  0  0
 78 79  1  0  0  0
 78148  1  0  0  0
 78149  1  0  0  0
 79150  1  0  0  0
 80 82  1  0  0  0
 80151  1  0  0  0
 80152  1  0  0  0
 81153  1  0  0  0
 81154  1  0  0  0
 82 83  1  0  0  0
 82155  1  0  0  0
 82156  1  0  0  0
 83157  1  0  0  0
M  ISO  4   1 100  68 101  81 101  83 100
M  END
> <chiral flag>
0

> <version>
0

> <s_m_source_file>
/data/baiqing/PycharmProjects/Reinvent-master-3.2/result/LINK_invent/BTK/process_docking_weight1_custom_sum_contain_oxygen_bond_distance_aromatic_linkinvent_7_9_3/rearranged_h_0144.sdf

> <i_m_source_file_index>
75

> <r_mmod_Potential_Energy-OPLS-2005>
736.347473144531

> <r_mmod_Stretch_Energy-OPLS-2005>
308.291381835938

> <r_mmod_Bend_Energy-OPLS-2005>
339.576202392578

> <r_mmod_Torsional_Energy-OPLS-2005>
303.621337890625

> <r_mmod_Improper_Torsional_Energy-OPLS-2005>
8.67787742614746

> <r_mmod_Van_der_Waal_Energy-OPLS-2005>
115.799324035645

> <r_mmod_Electrostatic_Energy-OPLS-2005>
-365.52099609375

> <r_mmod_Solvation_Energy-OPLS-2005>
-209.317596435547

> <b_mmod_Minimization_Converged-OPLS-2005>
0

> <r_mmod_RMS_Derivative-OPLS-2005>
1.23184728622437

$$$$
76
                    3D
 Structure written by MMmdl.
185195  0  0  1  0            999 V2000
  -30.8580  -14.3359   20.6883 C   0  0  0  0  0  0
  -30.3899  -12.2716   19.4329 C   0  0  0  0  0  0
  -29.4867  -12.5157   18.2114 C   0  0  0  0  0  0
  -28.0134  -12.3626   18.6154 C   0  0  0  0  0  0
  -27.6596  -13.2119   19.8603 C   0  0  2  0  0  0
  -28.6874  -13.0308   20.9975 C   0  0  0  0  0  0
  -25.2579  -13.8192   20.5643 C   0  0  0  0  0  0
  -24.1831  -13.0452   20.9151 C   0  0  0  0  0  0
  -24.6389  -11.6929   20.8712 C   0  0  0  0  0  0
  -23.9053  -10.4301   21.0393 C   0  0  0  0  0  0
  -24.3612   -9.4230   21.9178 C   0  0  0  0  0  0
  -23.6292   -8.2262   22.0759 C   0  0  0  0  0  0
  -22.4273   -8.0289   21.3544 C   0  0  0  0  0  0
  -21.9901   -9.0261   20.4644 C   0  0  0  0  0  0
  -22.7226  -10.2143   20.3047 C   0  0  0  0  0  0
  -21.6857   -6.0737   22.5283 C   0  0  0  0  0  0
  -21.4013   -6.5641   23.8219 C   0  0  0  0  0  0
  -21.3661   -5.6790   24.9176 C   0  0  0  0  0  0
  -21.6045   -4.3051   24.7223 C   0  0  0  0  0  0
  -21.8824   -3.8144   23.4341 C   0  0  0  0  0  0
  -21.9194   -4.6964   22.3405 C   0  0  0  0  0  0
  -22.7867  -13.5254   21.1836 C   0  0  0  0  0  0
  -22.1661   -4.2152   21.0980 F   0  0  0  0  0  0
  -21.5626   -3.4537   25.7734 F   0  0  0  0  0  0
  -30.0533  -13.2522   20.4831 N   0  0  0  0  0  0
  -26.3007  -12.9367   20.3263 N   0  0  0  0  0  0
  -25.9310  -11.6525   20.5710 N   0  0  0  0  0  0
  -22.0493  -12.8245   22.0399 N   0  0  0  0  0  0
  -25.4310  -15.1902   20.4088 N   0  0  0  0  0  0
  -31.8111  -14.5738   19.9368 O   0  0  0  0  0  0
  -21.6646   -6.8882   21.4242 O   0  0  0  0  0  0
  -22.3550  -14.5554   20.6694 O   0  0  0  0  0  0
  -24.6129  -31.8711   23.2133 C   0  0  0  0  0  0
  -25.9019  -32.4846   23.8440 C   0  0  1  0  0  0
  -27.2256  -27.4391   20.1059 C   0  0  0  0  0  0
  -25.5872  -33.8645   24.2379 N   0  0  0  0  0  0
  -23.4003  -30.4957   21.5572 C   0  0  2  0  0  0
  -24.8445  -28.9616   20.1220 C   0  0  0  0  0  0
  -22.7415  -29.4677   22.5039 C   0  0  0  0  0  0
  -18.0276  -28.1372   22.8499 C   0  0  0  0  0  0
  -24.1486  -36.7315   23.2639 C   0  0  0  0  0  0
  -25.9272  -30.8409   21.3638 C   0  0  0  0  0  0
  -26.0057  -29.4739   20.7146 C   0  0  0  0  0  0
  -27.2008  -28.7201   20.7013 C   0  0  0  0  0  0
  -26.0504  -26.9492   19.4919 C   0  0  0  0  0  0
  -24.8610  -27.7004   19.5050 C   0  0  0  0  0  0
  -23.6057  -29.8256   20.1737 C   0  0  0  0  0  0
  -25.4100  -36.3137   24.0365 C   0  0  1  0  0  0
  -20.5856  -28.3672   23.1324 C   0  0  2  0  0  0
  -20.6780  -26.9425   22.5380 C   0  0  0  0  0  0
  -19.5758  -26.6360   21.5208 C   0  0  0  0  0  0
  -18.1930  -26.7924   22.1618 C   0  0  0  0  0  0
  -19.1514  -28.8841   23.2908 C   0  0  0  0  0  0
  -18.9445  -30.1442   23.8919 C   0  0  0  0  0  0
  -17.6441  -30.6577   24.0577 C   0  0  0  0  0  0
  -25.9026  -34.9500   23.5174 C   0  0  0  0  0  0
  -16.5342  -29.9066   23.6324 C   0  0  0  0  0  0
  -16.7261  -28.6489   23.0344 C   0  0  0  0  0  0
  -26.4452  -31.6603   25.0740 C   0  0  0  0  0  0
  -25.3697  -31.3672   26.1463 C   0  0  0  0  0  0
  -27.0277  -30.3061   24.6072 C   0  0  0  0  0  0
  -27.6064  -32.4290   25.7463 C   0  0  0  0  0  0
  -27.5605  -37.1790   24.8464 C   0  0  0  0  0  0
  -21.4141  -29.3060   22.3772 N   0  0  0  0  0  0
  -26.4299  -37.3810   23.9429 N   0  0  0  0  0  0
  -24.6656  -31.0812   22.1044 N   0  0  0  0  0  0
  -23.4188  -28.8123   23.3009 O   0  0  0  0  0  0
  -28.3873  -26.6980   20.1204 O   0  0  0  0  0  0
  -26.5597  -34.8953   22.4736 O   0  0  0  0  0  0
  -23.5315  -32.1471   23.7509 O   0  0  0  0  0  0
  -28.3257  -21.0004   24.5606 C   0  0  0  0  0  0
  -27.6567  -20.5027   22.2906 C   0  0  0  0  0  0
  -28.1225  -22.3787   24.3303 C   0  0  0  0  0  0
  -27.6667  -22.8455   23.0579 C   0  0  0  0  0  0
  -27.4526  -21.8753   22.0354 C   0  0  0  0  0  0
  -28.0943  -20.0489   23.5466 C   0  0  0  0  0  0
  -30.4425  -17.5796   22.4133 C   0  0  0  0  0  0
  -29.4955  -15.7389   23.8629 C   0  0  0  0  0  0
  -31.2528  -16.5136   21.6722 C   0  0  0  0  0  0
  -30.4105  -14.7469   23.1074 C   0  0  0  0  0  0
  -24.7516  -23.5523   23.0574 C   0  0  0  0  0  0
  -24.9732  -25.6056   23.2403 C   0  0  0  0  0  0
  -30.1141  -17.1524   23.8531 C   0  0  0  0  0  0
  -25.7935  -24.5375   22.5124 C   0  0  1  0  0  0
  -28.3737  -23.3101   25.5088 C   0  0  0  0  0  0
  -23.0482  -24.6471   24.4924 C   0  0  0  0  0  0
  -29.2907  -18.2345   24.5799 C   0  0  0  0  0  0
  -28.2924  -25.2559   22.1155 C   0  0  0  0  0  0
  -28.2694  -25.3358   20.5688 C   0  0  0  0  0  0
  -27.2800  -24.3360   22.8615 C   0  0  2  0  0  0
  -30.5961  -15.1890   21.7140 N   0  0  0  0  0  0
  -26.9854  -22.2208   20.7675 N   0  0  0  0  0  0
  -23.8436  -24.6779   23.2483 N   0  3  2  0  0  0
  -28.2277  -18.6893   23.7394 O   0  0  0  0  0  0
  -31.4404  -12.3053   19.1372 H   0  0  0  0  0  0
  -30.2349  -11.2624   19.8179 H   0  0  0  0  0  0
  -29.7295  -11.8121   17.4137 H   0  0  0  0  0  0
  -29.6628  -13.5140   17.8081 H   0  0  0  0  0  0
  -27.8298  -11.3075   18.8189 H   0  0  0  0  0  0
  -27.3622  -12.6269   17.7823 H   0  0  0  0  0  0
  -27.6998  -14.2553   19.5485 H   0  0  0  0  0  0
  -28.6211  -12.0302   21.4286 H   0  0  0  0  0  0
  -28.4073  -13.7259   21.7864 H   0  0  0  0  0  0
  -25.2757   -9.5720   22.4750 H   0  0  0  0  0  0
  -24.0009   -7.4661   22.7487 H   0  0  0  0  0  0
  -21.0833   -8.8767   19.8953 H   0  0  0  0  0  0
  -22.3672  -10.9677   19.6154 H   0  0  0  0  0  0
  -21.2007   -7.6153   23.9721 H   0  0  0  0  0  0
  -21.1475   -6.0518   25.9081 H   0  0  0  0  0  0
  -22.0596   -2.7607   23.2845 H   0  0  0  0  0  0
  -22.4107  -11.9903   22.4778 H   0  0  0  0  0  0
  -21.1127  -13.1292   22.2606 H   0  0  0  0  0  0
  -24.6708  -15.8512   20.5279 H   0  0  0  0  0  0
  -26.2975  -15.6284   20.1208 H   0  0  0  0  0  0
  -26.7082  -32.5616   23.1197 H   0  0  0  0  0  0
  -24.9994  -33.9801   25.0511 H   0  0  0  0  0  0
  -22.6878  -31.3120   21.4189 H   0  0  0  0  0  0
  -23.3782  -35.9608   23.3264 H   0  0  0  0  0  0
  -24.3578  -36.8956   22.2057 H   0  0  0  0  0  0
  -23.7210  -37.6498   23.6672 H   0  0  0  0  0  0
  -26.0316  -31.6024   20.5891 H   0  0  0  0  0  0
  -26.8176  -30.8998   21.9797 H   0  0  0  0  0  0
  -28.0974  -29.1076   21.1653 H   0  0  0  0  0  0
  -26.0430  -25.9936   18.9904 H   0  0  0  0  0  0
  -23.9680  -27.3072   19.0371 H   0  0  0  0  0  0
  -23.7107  -30.5981   19.4109 H   0  0  0  0  0  0
  -22.7299  -29.2410   19.8868 H   0  0  0  0  0  0
  -25.1265  -36.2005   25.0857 H   0  0  0  0  0  0
  -20.9954  -28.3232   24.1447 H   0  0  0  0  0  0
  -20.5735  -26.2278   23.3546 H   0  0  0  0  0  0
  -21.6619  -26.7573   22.1088 H   0  0  0  0  0  0
  -19.6909  -25.6249   21.1282 H   0  0  0  0  0  0
  -19.6704  -27.3133   20.6712 H   0  0  0  0  0  0
  -17.4213  -26.6683   21.4008 H   0  0  0  0  0  0
  -18.0304  -26.0069   22.9017 H   0  0  0  0  0  0
  -19.7915  -30.7240   24.2330 H   0  0  0  0  0  0
  -17.4995  -31.6268   24.5159 H   0  0  0  0  0  0
  -15.5339  -30.2969   23.7648 H   0  0  0  0  0  0
  -15.8669  -28.0812   22.7051 H   0  0  0  0  0  0
  -24.5919  -30.6975   25.7770 H   0  0  0  0  0  0
  -24.8801  -32.2784   26.4909 H   0  0  0  0  0  0
  -25.8013  -30.8852   27.0240 H   0  0  0  0  0  0
  -26.2824  -29.6796   24.1152 H   0  0  0  0  0  0
  -27.4108  -29.7317   25.4515 H   0  0  0  0  0  0
  -27.8622  -30.4402   23.9184 H   0  0  0  0  0  0
  -27.2766  -33.3617   26.2051 H   0  0  0  0  0  0
  -28.3838  -32.6779   25.0227 H   0  0  0  0  0  0
  -28.0768  -31.8395   26.5343 H   0  0  0  0  0  0
  -28.2581  -38.0134   24.7586 H   0  0  0  0  0  0
  -28.1148  -36.2669   24.6190 H   0  0  0  0  0  0
  -27.2329  -37.1312   25.8866 H   0  0  0  0  0  0
  -20.9310  -29.8826   21.7026 H   0  0  0  0  0  0
  -26.0211  -38.2889   24.1444 H   0  0  0  0  0  0
  -28.6282  -20.6697   25.5446 H   0  0  0  0  0  0
  -27.4657  -19.7701   21.5195 H   0  0  0  0  0  0
  -29.5267  -17.7694   21.8528 H   0  0  0  0  0  0
  -30.9975  -18.5178   22.4230 H   0  0  0  0  0  0
  -29.3639  -15.3994   24.8919 H   0  0  0  0  0  0
  -28.5026  -15.7556   23.4109 H   0  0  0  0  0  0
  -32.2550  -16.4321   22.0984 H   0  0  0  0  0  0
  -31.3846  -16.8703   20.6475 H   0  0  0  0  0  0
  -30.0269  -13.7303   23.1891 H   0  0  0  0  0  0
  -31.3892  -14.7060   23.5902 H   0  0  0  0  0  0
  -25.0513  -23.0771   23.9936 H   0  0  0  0  0  0
  -24.3959  -22.8178   22.3329 H   0  0  0  0  0  0
  -24.7935  -26.5126   22.6628 H   0  0  0  0  0  0
  -25.3390  -25.8343   24.2418 H   0  0  0  0  0  0
  -31.0592  -17.0709   24.3937 H   0  0  0  0  0  0
  -25.6303  -24.6236   21.4380 H   0  0  0  0  0  0
  -28.8318  -22.7824   26.3462 H   0  0  0  0  0  0
  -27.4375  -23.7362   25.8717 H   0  0  0  0  0  0
  -29.0485  -24.1210   25.2327 H   0  0  0  0  0  0
  -22.2363  -23.9257   24.4082 H   0  0  0  0  0  0
  -22.6181  -25.6282   24.6929 H   0  0  0  0  0  0
  -23.6604  -24.3672   25.3509 H   0  0  0  0  0  0
  -29.9802  -19.0393   24.8360 H   0  0  0  0  0  0
  -28.8855  -17.8559   25.5176 H   0  0  0  0  0  0
  -28.1033  -26.2656   22.4827 H   0  0  0  0  0  0
  -29.3061  -25.0347   22.4549 H   0  0  0  0  0  0
  -27.4082  -24.8302   20.1437 H   0  0  0  0  0  0
  -29.1275  -24.7882   20.1783 H   0  0  0  0  0  0
  -27.3446  -24.7621   23.8558 H   0  0  0  0  0  0
  -27.0151  -21.5471   20.0085 H   0  0  0  0  0  0
  -26.9474  -23.1853   20.4687 H   0  0  0  0  0  0
  -23.2673  -24.8063   22.4305 H   0  0  0  0  0  0
  1 25  1  0  0  0
  1 30  2  0  0  0
  1 91  1  0  0  0
  2  3  1  0  0  0
  2 25  1  0  0  0
  2 95  1  0  0  0
  2 96  1  0  0  0
  3  4  1  0  0  0
  3 97  1  0  0  0
  3 98  1  0  0  0
  4  5  1  0  0  0
  4 99  1  0  0  0
  4100  1  0  0  0
  5  6  1  0  0  0
  5 26  1  0  0  0
  5101  1  0  0  0
  6 25  1  0  0  0
  6102  1  0  0  0
  6103  1  0  0  0
  7  8  2  0  0  0
  7 26  1  0  0  0
  7 29  1  0  0  0
  8  9  1  0  0  0
  8 22  1  0  0  0
  9 10  1  0  0  0
  9 27  2  0  0  0
 10 11  2  0  0  0
 10 15  1  0  0  0
 11 12  1  0  0  0
 11104  1  0  0  0
 12 13  2  0  0  0
 12105  1  0  0  0
 13 14  1  0  0  0
 13 31  1  0  0  0
 14 15  2  0  0  0
 14106  1  0  0  0
 15107  1  0  0  0
 16 17  2  0  0  0
 16 21  1  0  0  0
 16 31  1  0  0  0
 17 18  1  0  0  0
 17108  1  0  0  0
 18 19  2  0  0  0
 18109  1  0  0  0
 19 20  1  0  0  0
 19 24  1  0  0  0
 20 21  2  0  0  0
 20110  1  0  0  0
 21 23  1  0  0  0
 22 28  1  0  0  0
 22 32  2  0  0  0
 26 27  1  0  0  0
 28111  1  0  0  0
 28112  1  0  0  0
 29113  1  0  0  0
 29114  1  0  0  0
 33 34  1  0  0  0
 33 66  1  0  0  0
 33 70  2  0  0  0
 34 36  1  0  0  0
 34 59  1  0  0  0
 34115  1  0  0  0
 35 44  2  0  0  0
 35 45  1  0  0  0
 35 68  1  0  0  0
 36 56  1  0  0  0
 36116  1  0  0  0
 37 39  1  0  0  0
 37 47  1  0  0  0
 37 66  1  0  0  0
 37117  1  0  0  0
 38 43  2  0  0  0
 38 46  1  0  0  0
 38 47  1  0  0  0
 39 64  1  0  0  0
 39 67  2  0  0  0
 40 52  1  0  0  0
 40 53  2  0  0  0
 40 58  1  0  0  0
 41118  1  0  0  0
 41119  1  0  0  0
 41120  1  0  0  0
 41 48  1  0  0  0
 42 43  1  0  0  0
 42 66  1  0  0  0
 42121  1  0  0  0
 42122  1  0  0  0
 43 44  1  0  0  0
 44123  1  0  0  0
 45 46  2  0  0  0
 45124  1  0  0  0
 46125  1  0  0  0
 47126  1  0  0  0
 47127  1  0  0  0
 48 56  1  0  0  0
 48 65  1  0  0  0
 48128  1  0  0  0
 49 50  1  0  0  0
 49 53  1  0  0  0
 49 64  1  0  0  0
 49129  1  0  0  0
 50 51  1  0  0  0
 50130  1  0  0  0
 50131  1  0  0  0
 51 52  1  0  0  0
 51132  1  0  0  0
 51133  1  0  0  0
 52134  1  0  0  0
 52135  1  0  0  0
 53 54  1  0  0  0
 54 55  2  0  0  0
 54136  1  0  0  0
 55 57  1  0  0  0
 55137  1  0  0  0
 56 69  2  0  0  0
 57 58  2  0  0  0
 57138  1  0  0  0
 58139  1  0  0  0
 59 60  1  0  0  0
 59 61  1  0  0  0
 59 62  1  0  0  0
 60140  1  0  0  0
 60141  1  0  0  0
 60142  1  0  0  0
 61143  1  0  0  0
 61144  1  0  0  0
 61145  1  0  0  0
 62146  1  0  0  0
 62147  1  0  0  0
 62148  1  0  0  0
 63 65  1  0  0  0
 63149  1  0  0  0
 63150  1  0  0  0
 63151  1  0  0  0
 64152  1  0  0  0
 65153  1  0  0  0
 68 89  1  0  0  0
 71 73  2  0  0  0
 71 76  1  0  0  0
 71154  1  0  0  0
 72 75  1  0  0  0
 72 76  2  0  0  0
 72155  1  0  0  0
 73 74  1  0  0  0
 73 85  1  0  0  0
 74 75  2  0  0  0
 74 90  1  0  0  0
 75 92  1  0  0  0
 76 94  1  0  0  0
 77 79  1  0  0  0
 77 83  1  0  0  0
 77156  1  0  0  0
 77157  1  0  0  0
 78 80  1  0  0  0
 78 83  1  0  0  0
 78158  1  0  0  0
 78159  1  0  0  0
 79 91  1  0  0  0
 79160  1  0  0  0
 79161  1  0  0  0
 80 91  1  0  0  0
 80162  1  0  0  0
 80163  1  0  0  0
 81 93  1  0  0  0
 81164  1  0  0  0
 81165  1  0  0  0
 81 84  1  0  0  0
 82 84  1  0  0  0
 82 93  1  0  0  0
 82166  1  0  0  0
 82167  1  0  0  0
 83 87  1  0  0  0
 83168  1  0  0  0
 84 90  1  0  0  0
 84169  1  0  0  0
 85170  1  0  0  0
 85171  1  0  0  0
 85172  1  0  0  0
 86173  1  0  0  0
 86174  1  0  0  0
 86175  1  0  0  0
 86 93  1  0  0  0
 87 94  1  0  0  0
 87176  1  0  0  0
 87177  1  0  0  0
 88 89  1  0  0  0
 88178  1  0  0  0
 88179  1  0  0  0
 88 90  1  0  0  0
 89180  1  0  0  0
 89181  1  0  0  0
 90182  1  0  0  0
 92183  1  0  0  0
 92184  1  0  0  0
 93185  1  0  0  0
M  CHG  1  93   1
M  ISO  4   1 100  68 101  89 101  91 100
M  END
> <chiral flag>
0

> <version>
0

> <s_m_source_file>
/data/baiqing/PycharmProjects/Reinvent-master-3.2/result/LINK_invent/BTK/process_docking_weight1_custom_sum_contain_oxygen_bond_distance_aromatic_linkinvent_7_9_3/rearranged_h_0144.sdf

> <i_m_source_file_index>
76

> <r_mmod_Potential_Energy-OPLS-2005>
100.880462646484

> <r_mmod_Stretch_Energy-OPLS-2005>
44.8894996643066

> <r_mmod_Bend_Energy-OPLS-2005>
154.19172668457

> <r_mmod_Torsional_Energy-OPLS-2005>
374.741790771484

> <r_mmod_Improper_Torsional_Energy-OPLS-2005>
6.57158708572388

> <r_mmod_Van_der_Waal_Energy-OPLS-2005>
159.557830810547

> <r_mmod_Electrostatic_Energy-OPLS-2005>
-237.258834838867

> <r_mmod_Solvation_Energy-OPLS-2005>
-414.804443359375

> <b_mmod_Minimization_Converged-OPLS-2005>
0

> <r_mmod_RMS_Derivative-OPLS-2005>
2.41426634788513

$$$$
77
                    3D
 Structure written by MMmdl.
167177  0  0  1  0            999 V2000
  -30.4699  -14.8220   20.5497 C   0  0  0  0  0  0
  -30.4601  -12.5478   19.4223 C   0  0  0  0  0  0
  -29.5017  -12.5441   18.2024 C   0  0  0  0  0  0
  -28.0145  -12.3785   18.6020 C   0  0  0  0  0  0
  -27.6309  -13.2228   19.8485 C   0  0  2  0  0  0
  -28.6819  -12.9971   20.9450 C   0  0  0  0  0  0
  -25.2429  -13.8201   20.5764 C   0  0  0  0  0  0
  -24.1726  -13.0401   20.9304 C   0  0  0  0  0  0
  -24.6296  -11.6882   20.8703 C   0  0  0  0  0  0
  -23.9004  -10.4246   21.0407 C   0  0  0  0  0  0
  -24.3619   -9.4196   21.9169 C   0  0  0  0  0  0
  -23.6328   -8.2203   22.0736 C   0  0  0  0  0  0
  -22.4298   -8.0281   21.3533 C   0  0  0  0  0  0
  -21.9894   -9.0258   20.4684 C   0  0  0  0  0  0
  -22.7167  -10.2139   20.3099 C   0  0  0  0  0  0
  -21.6815   -6.0770   22.5306 C   0  0  0  0  0  0
  -21.4003   -6.5681   23.8262 C   0  0  0  0  0  0
  -21.3652   -5.6870   24.9257 C   0  0  0  0  0  0
  -21.6035   -4.3135   24.7340 C   0  0  0  0  0  0
  -21.8731   -3.8196   23.4459 C   0  0  0  0  0  0
  -21.9119   -4.6985   22.3496 C   0  0  0  0  0  0
  -22.7738  -13.5197   21.1931 C   0  0  0  0  0  0
  -22.1547   -4.2143   21.1086 F   0  0  0  0  0  0
  -21.5610   -3.4613   25.7847 F   0  0  0  0  0  0
  -29.9446  -13.5370   20.4080 N   0  0  0  0  0  0
  -26.2787  -12.9348   20.3173 N   0  0  0  0  0  0
  -25.9162  -11.6481   20.5481 N   0  0  0  0  0  0
  -22.0363  -12.8134   22.0491 N   0  0  0  0  0  0
  -25.4173  -15.1913   20.4330 N   0  0  0  0  0  0
  -31.6447  -14.9989   20.2039 O   0  0  0  0  0  0
  -21.6630   -6.8908   21.4264 O   0  0  0  0  0  0
  -22.3470  -14.5523   20.6808 O   0  0  0  0  0  0
  -24.6407  -31.8452   23.1874 C   0  0  0  0  0  0
  -25.9190  -32.4705   23.8265 C   0  0  1  0  0  0
  -27.2248  -27.1641   20.1463 C   0  0  0  0  0  0
  -25.5987  -33.8517   24.2220 N   0  0  0  0  0  0
  -23.4430  -30.4690   21.5280 C   0  0  2  0  0  0
  -24.8930  -28.8893   20.1069 C   0  0  0  0  0  0
  -22.7534  -29.4643   22.4817 C   0  0  0  0  0  0
  -18.0320  -28.1419   22.8460 C   0  0  0  0  0  0
  -24.1502  -36.7278   23.2638 C   0  0  0  0  0  0
  -25.9927  -30.7255   21.3790 C   0  0  0  0  0  0
  -26.0663  -29.3379   20.7270 C   0  0  0  0  0  0
  -27.2325  -28.4927   20.7269 C   0  0  0  0  0  0
  -26.0254  -26.8044   19.4911 C   0  0  0  0  0  0
  -24.8869  -27.6393   19.4689 C   0  0  0  0  0  0
  -23.6656  -29.7861   20.1503 C   0  0  0  0  0  0
  -25.4126  -36.3051   24.0325 C   0  0  1  0  0  0
  -20.5915  -28.3792   23.1173 C   0  0  2  0  0  0
  -20.6806  -26.9490   22.5375 C   0  0  0  0  0  0
  -19.5792  -26.6417   21.5184 C   0  0  0  0  0  0
  -18.1965  -26.7955   22.1605 C   0  0  0  0  0  0
  -19.1567  -28.8909   23.2821 C   0  0  0  0  0  0
  -18.9502  -30.1476   23.8882 C   0  0  0  0  0  0
  -17.6507  -30.6597   24.0580 C   0  0  0  0  0  0
  -25.9077  -34.9426   23.5080 C   0  0  0  0  0  0
  -16.5392  -29.9102   23.6339 C   0  0  0  0  0  0
  -16.7308  -28.6530   23.0334 C   0  0  0  0  0  0
  -26.4535  -31.6546   25.0680 C   0  0  0  0  0  0
  -25.3735  -31.3721   26.1381 C   0  0  0  0  0  0
  -27.0394  -30.2950   24.6233 C   0  0  0  0  0  0
  -27.6091  -32.4265   25.7457 C   0  0  0  0  0  0
  -27.5588  -37.1801   24.8474 C   0  0  0  0  0  0
  -21.4222  -29.3149   22.3553 N   0  0  0  0  0  0
  -26.4308  -37.3744   23.9398 N   0  0  0  0  0  0
  -24.7121  -31.0350   22.0876 N   0  0  0  0  0  0
  -23.4181  -28.8210   23.2965 O   0  0  0  0  0  0
  -28.3076  -26.2223   20.1525 O   0  0  0  0  0  0
  -26.5630  -34.8926   22.4633 O   0  0  0  0  0  0
  -23.5555  -32.1287   23.7186 O   0  0  0  0  0  0
  -29.5855  -21.4102   21.3648 C   0  0  0  0  0  0
  -28.6782  -20.7677   19.2958 C   0  0  0  0  0  0
  -29.8736  -20.0342   21.6854 C   0  0  0  0  0  0
  -29.5828  -18.9232   20.8016 C   0  0  0  0  0  0
  -28.9916  -21.8742   20.1657 C   0  0  0  0  0  0
  -28.9653  -19.3650   19.5857 C   0  0  0  0  0  0
  -31.5326  -18.9473   23.6763 C   0  0  0  0  0  0
  -32.0481  -20.1477   22.9467 C   0  0  0  0  0  0
  -28.9241  -17.1836   22.4343 C   0  0  0  0  0  0
  -28.8645  -15.7170   22.1555 C   0  0  0  0  0  0
  -30.5532  -19.9383   23.0351 C   0  0  0  0  0  0
  -29.9193  -17.3979   21.3033 C   0  0  2  0  0  0
  -27.1603  -17.9298   18.5312 C   0  0  0  0  0  0
  -28.9594  -23.4635   19.7506 C   0  0  0  0  0  0
  -28.6381  -18.3252   18.5375 C   0  0  0  0  0  0
  -28.1080  -24.7149   20.4459 C   0  0  0  0  0  0
  -29.6118  -15.9085   20.8973 N   0  0  0  0  0  0
  -31.4735  -12.7902   19.1029 H   0  0  0  0  0  0
  -30.5310  -11.5581   19.8708 H   0  0  0  0  0  0
  -29.7880  -11.7399   17.5208 H   0  0  0  0  0  0
  -29.6170  -13.4759   17.6455 H   0  0  0  0  0  0
  -27.8464  -11.3260   18.8198 H   0  0  0  0  0  0
  -27.3598  -12.6083   17.7507 H   0  0  0  0  0  0
  -27.6501  -14.2717   19.5468 H   0  0  0  0  0  0
  -28.7762  -11.9260   21.1396 H   0  0  0  0  0  0
  -28.3620  -13.3712   21.9128 H   0  0  0  0  0  0
  -25.2747   -9.5692   22.4791 H   0  0  0  0  0  0
  -23.9940   -7.4589   22.7500 H   0  0  0  0  0  0
  -21.0712   -8.8824   19.9158 H   0  0  0  0  0  0
  -22.3560  -10.9722   19.6329 H   0  0  0  0  0  0
  -21.1993   -7.6184   23.9812 H   0  0  0  0  0  0
  -21.1557   -6.0622   25.9171 H   0  0  0  0  0  0
  -22.0500   -2.7638   23.2979 H   0  0  0  0  0  0
  -22.3925  -11.9795   22.4891 H   0  0  0  0  0  0
  -21.0944  -13.1122   22.2578 H   0  0  0  0  0  0
  -24.6727  -15.8662   20.5799 H   0  0  0  0  0  0
  -26.2895  -15.6293   20.1686 H   0  0  0  0  0  0
  -26.7266  -32.5314   23.1008 H   0  0  0  0  0  0
  -25.0131  -33.9604   25.0377 H   0  0  0  0  0  0
  -22.7494  -31.2974   21.3720 H   0  0  0  0  0  0
  -23.3756  -35.9616   23.3280 H   0  0  0  0  0  0
  -24.3627  -36.8905   22.2063 H   0  0  0  0  0  0
  -23.7265  -37.6490   23.6659 H   0  0  0  0  0  0
  -26.1376  -31.4742   20.6007 H   0  0  0  0  0  0
  -26.8641  -30.7874   22.0162 H   0  0  0  0  0  0
  -28.1249  -28.8401   21.2255 H   0  0  0  0  0  0
  -25.9472  -25.8445   18.9940 H   0  0  0  0  0  0
  -23.9961  -27.3001   18.9556 H   0  0  0  0  0  0
  -23.7970  -30.5493   19.3841 H   0  0  0  0  0  0
  -22.7728  -29.2270   19.8563 H   0  0  0  0  0  0
  -25.1309  -36.1902   25.0821 H   0  0  0  0  0  0
  -21.0056  -28.3429   24.1270 H   0  0  0  0  0  0
  -20.5707  -26.2426   23.3607 H   0  0  0  0  0  0
  -21.6659  -26.7484   22.1177 H   0  0  0  0  0  0
  -19.6968  -25.6325   21.1213 H   0  0  0  0  0  0
  -19.6699  -27.3201   20.6685 H   0  0  0  0  0  0
  -17.4224  -26.6666   21.4016 H   0  0  0  0  0  0
  -18.0417  -26.0077   22.9000 H   0  0  0  0  0  0
  -19.7980  -30.7281   24.2238 H   0  0  0  0  0  0
  -17.5075  -31.6270   24.5207 H   0  0  0  0  0  0
  -15.5393  -30.3026   23.7667 H   0  0  0  0  0  0
  -15.8701  -28.0870   22.7034 H   0  0  0  0  0  0
  -24.5961  -30.7005   25.7737 H   0  0  0  0  0  0
  -24.8848  -32.2872   26.4720 H   0  0  0  0  0  0
  -25.8036  -30.8988   27.0207 H   0  0  0  0  0  0
  -26.3016  -29.6662   24.1231 H   0  0  0  0  0  0
  -27.4023  -29.7276   25.4818 H   0  0  0  0  0  0
  -27.8910  -30.4205   23.9533 H   0  0  0  0  0  0
  -27.2747  -33.3609   26.1960 H   0  0  0  0  0  0
  -28.3941  -32.6709   25.0296 H   0  0  0  0  0  0
  -28.0680  -31.8385   26.5409 H   0  0  0  0  0  0
  -28.2607  -38.0091   24.7489 H   0  0  0  0  0  0
  -28.1079  -36.2624   24.6331 H   0  0  0  0  0  0
  -27.2302  -37.1484   25.8874 H   0  0  0  0  0  0
  -20.9450  -29.8853   21.6703 H   0  0  0  0  0  0
  -26.0189  -38.2831   24.1340 H   0  0  0  0  0  0
  -29.8752  -22.1601   22.0851 H   0  0  0  0  0  0
  -28.2194  -21.0024   18.3465 H   0  0  0  0  0  0
  -31.6282  -18.9881   24.7579 H   0  0  0  0  0  0
  -31.8010  -17.9833   23.2716 H   0  0  0  0  0  0
  -32.5219  -19.9282   21.9915 H   0  0  0  0  0  0
  -32.4661  -20.9808   23.4965 H   0  0  0  0  0  0
  -29.2688  -17.4660   23.4268 H   0  0  0  0  0  0
  -27.9479  -17.6342   22.2207 H   0  0  0  0  0  0
  -29.3914  -15.1291   22.9107 H   0  0  0  0  0  0
  -27.8329  -15.3876   22.0520 H   0  0  0  0  0  0
  -29.9860  -20.5350   23.7514 H   0  0  0  0  0  0
  -30.9618  -17.3970   21.5783 H   0  0  0  0  0  0
  -26.9909  -17.1634   17.7750 H   0  0  0  0  0  0
  -26.5142  -18.7761   18.3023 H   0  0  0  0  0  0
  -26.8473  -17.5181   19.4888 H   0  0  0  0  0  0
  -28.7781  -23.4903   18.6725 H   0  0  0  0  0  0
  -30.0070  -23.7480   19.8527 H   0  0  0  0  0  0
  -29.2460  -17.4373   18.7131 H   0  0  0  0  0  0
  -28.9448  -18.6953   17.5570 H   0  0  0  0  0  0
  -28.3197  -24.6440   21.5115 H   0  0  0  0  0  0
  -27.0474  -24.4778   20.3476 H   0  0  0  0  0  0
  1 25  1  0  0  0
  1 30  2  0  0  0
  1 87  1  0  0  0
  2  3  1  0  0  0
  2 25  1  0  0  0
  2 88  1  0  0  0
  2 89  1  0  0  0
  3  4  1  0  0  0
  3 90  1  0  0  0
  3 91  1  0  0  0
  4  5  1  0  0  0
  4 92  1  0  0  0
  4 93  1  0  0  0
  5  6  1  0  0  0
  5 26  1  0  0  0
  5 94  1  0  0  0
  6 25  1  0  0  0
  6 95  1  0  0  0
  6 96  1  0  0  0
  7  8  2  0  0  0
  7 26  1  0  0  0
  7 29  1  0  0  0
  8  9  1  0  0  0
  8 22  1  0  0  0
  9 10  1  0  0  0
  9 27  2  0  0  0
 10 11  2  0  0  0
 10 15  1  0  0  0
 11 12  1  0  0  0
 11 97  1  0  0  0
 12 13  2  0  0  0
 12 98  1  0  0  0
 13 14  1  0  0  0
 13 31  1  0  0  0
 14 15  2  0  0  0
 14 99  1  0  0  0
 15100  1  0  0  0
 16 17  2  0  0  0
 16 21  1  0  0  0
 16 31  1  0  0  0
 17 18  1  0  0  0
 17101  1  0  0  0
 18 19  2  0  0  0
 18102  1  0  0  0
 19 20  1  0  0  0
 19 24  1  0  0  0
 20 21  2  0  0  0
 20103  1  0  0  0
 21 23  1  0  0  0
 22 28  1  0  0  0
 22 32  2  0  0  0
 26 27  1  0  0  0
 28104  1  0  0  0
 28105  1  0  0  0
 29106  1  0  0  0
 29107  1  0  0  0
 33 34  1  0  0  0
 33 66  1  0  0  0
 33 70  2  0  0  0
 34 36  1  0  0  0
 34 59  1  0  0  0
 34108  1  0  0  0
 35 44  2  0  0  0
 35 45  1  0  0  0
 35 68  1  0  0  0
 36 56  1  0  0  0
 36109  1  0  0  0
 37 39  1  0  0  0
 37 47  1  0  0  0
 37 66  1  0  0  0
 37110  1  0  0  0
 38 43  2  0  0  0
 38 46  1  0  0  0
 38 47  1  0  0  0
 39 64  1  0  0  0
 39 67  2  0  0  0
 40 52  1  0  0  0
 40 53  2  0  0  0
 40 58  1  0  0  0
 41111  1  0  0  0
 41112  1  0  0  0
 41113  1  0  0  0
 41 48  1  0  0  0
 42 43  1  0  0  0
 42 66  1  0  0  0
 42114  1  0  0  0
 42115  1  0  0  0
 43 44  1  0  0  0
 44116  1  0  0  0
 45 46  2  0  0  0
 45117  1  0  0  0
 46118  1  0  0  0
 47119  1  0  0  0
 47120  1  0  0  0
 48 56  1  0  0  0
 48 65  1  0  0  0
 48121  1  0  0  0
 49 50  1  0  0  0
 49 53  1  0  0  0
 49 64  1  0  0  0
 49122  1  0  0  0
 50 51  1  0  0  0
 50123  1  0  0  0
 50124  1  0  0  0
 51 52  1  0  0  0
 51125  1  0  0  0
 51126  1  0  0  0
 52127  1  0  0  0
 52128  1  0  0  0
 53 54  1  0  0  0
 54 55  2  0  0  0
 54129  1  0  0  0
 55 57  1  0  0  0
 55130  1  0  0  0
 56 69  2  0  0  0
 57 58  2  0  0  0
 57131  1  0  0  0
 58132  1  0  0  0
 59 60  1  0  0  0
 59 61  1  0  0  0
 59 62  1  0  0  0
 60133  1  0  0  0
 60134  1  0  0  0
 60135  1  0  0  0
 61136  1  0  0  0
 61137  1  0  0  0
 61138  1  0  0  0
 62139  1  0  0  0
 62140  1  0  0  0
 62141  1  0  0  0
 63 65  1  0  0  0
 63142  1  0  0  0
 63143  1  0  0  0
 63144  1  0  0  0
 64145  1  0  0  0
 65146  1  0  0  0
 68 86  1  0  0  0
 71 73  2  0  0  0
 71 75  1  0  0  0
 71147  1  0  0  0
 72 75  2  0  0  0
 72 76  1  0  0  0
 72148  1  0  0  0
 73 74  1  0  0  0
 73 81  1  0  0  0
 74 76  2  0  0  0
 74 82  1  0  0  0
 75 84  1  0  0  0
 76 85  1  0  0  0
 77 78  1  0  0  0
 77 81  1  0  0  0
 77149  1  0  0  0
 77150  1  0  0  0
 78 81  1  0  0  0
 78151  1  0  0  0
 78152  1  0  0  0
 79 80  1  0  0  0
 79 82  1  0  0  0
 79153  1  0  0  0
 79154  1  0  0  0
 80 87  1  0  0  0
 80155  1  0  0  0
 80156  1  0  0  0
 81157  1  0  0  0
 82 87  1  0  0  0
 82158  1  0  0  0
 83 85  1  0  0  0
 83159  1  0  0  0
 83160  1  0  0  0
 83161  1  0  0  0
 84 86  1  0  0  0
 84162  1  0  0  0
 84163  1  0  0  0
 85164  1  0  0  0
 85165  1  0  0  0
 86166  1  0  0  0
 86167  1  0  0  0
M  ISO  4   1 100  68 101  86 101  87 100
M  END
> <chiral flag>
0

> <version>
0

> <s_m_source_file>
/data/baiqing/PycharmProjects/Reinvent-master-3.2/result/LINK_invent/BTK/process_docking_weight1_custom_sum_contain_oxygen_bond_distance_aromatic_linkinvent_7_9_3/rearranged_h_0144.sdf

> <i_m_source_file_index>
77

> <r_mmod_Potential_Energy-OPLS-2005>
629.032531738281

> <r_mmod_Stretch_Energy-OPLS-2005>
216.169952392578

> <r_mmod_Bend_Energy-OPLS-2005>
354.92724609375

> <r_mmod_Torsional_Energy-OPLS-2005>
303.528289794922

> <r_mmod_Improper_Torsional_Energy-OPLS-2005>
12.7032098770142

> <r_mmod_Van_der_Waal_Energy-OPLS-2005>
145.076644897461

> <r_mmod_Electrostatic_Energy-OPLS-2005>
-349.262664794922

> <r_mmod_Solvation_Energy-OPLS-2005>
-190.77766418457

> <b_mmod_Minimization_Converged-OPLS-2005>
0

> <r_mmod_RMS_Derivative-OPLS-2005>
10.1244678497314

$$$$
78
                    3D
 Structure written by MMmdl.
183192  0  0  1  0            999 V2000
  -29.8304  -16.7999   20.2466 C   0  0  0  0  0  0
  -30.2825  -13.9856   19.5166 C   0  0  0  0  0  0
  -29.5826  -13.0427   18.4373 C   0  0  0  0  0  0
  -28.2629  -12.4400   18.9238 C   0  0  0  0  0  0
  -27.5725  -13.4748   19.8217 C   0  0  2  0  0  0
  -28.4886  -14.2579   20.8473 C   0  0  0  0  0  0
  -25.2095  -13.8584   20.5971 C   0  0  0  0  0  0
  -24.1684  -13.0483   20.9384 C   0  0  0  0  0  0
  -24.6646  -11.7079   20.8766 C   0  0  0  0  0  0
  -23.9370  -10.4341   21.0335 C   0  0  0  0  0  0
  -24.3845   -9.4240   21.9133 C   0  0  0  0  0  0
  -23.6433   -8.2315   22.0749 C   0  0  0  0  0  0
  -22.4396   -8.0372   21.3553 C   0  0  0  0  0  0
  -22.0091   -9.0363   20.4642 C   0  0  0  0  0  0
  -22.7509  -10.2192   20.3004 C   0  0  0  0  0  0
  -21.6904   -6.0804   22.5278 C   0  0  0  0  0  0
  -21.4044   -6.5680   23.8222 C   0  0  0  0  0  0
  -21.3671   -5.6818   24.9168 C   0  0  0  0  0  0
  -21.6038   -4.3084   24.7208 C   0  0  0  0  0  0
  -21.8810   -3.8190   23.4327 C   0  0  0  0  0  0
  -21.9198   -4.7015   22.3387 C   0  0  0  0  0  0
  -22.7635  -13.5057   21.1981 C   0  0  0  0  0  0
  -22.1673   -4.2205   21.0966 F   0  0  0  0  0  0
  -21.5625   -3.4552   25.7714 F   0  0  0  0  0  0
  -29.4458  -15.2322   20.1258 N   0  0  0  0  0  0
  -26.2825  -13.0298   20.3515 N   0  0  0  0  0  0
  -25.9678  -11.7163   20.5692 N   0  0  0  0  0  0
  -22.0394  -12.7940   22.0536 N   0  0  0  0  0  0
  -25.3238  -15.2359   20.4402 N   0  0  0  0  0  0
  -31.0833  -16.5535   20.2226 O   0  0  0  0  0  0
  -21.6713   -6.8990   21.4258 O   0  0  0  0  0  0
  -22.3196  -14.5306   20.6800 O   0  0  0  0  0  0
  -24.7464  -31.7083   23.0959 C   0  0  0  0  0  0
  -25.9660  -32.4048   23.7744 C   0  0  1  0  0  0
  -27.3140  -25.9526   20.2297 C   0  0  0  0  0  0
  -25.5924  -33.7937   24.1487 N   0  0  0  0  0  0
  -23.6150  -30.2735   21.4620 C   0  0  2  0  0  0
  -25.0996  -28.4699   20.1310 C   0  0  0  0  0  0
  -22.8071  -29.3785   22.4474 C   0  0  0  0  0  0
  -18.0402  -28.1500   22.8416 C   0  0  0  0  0  0
  -24.1439  -36.6933   23.2695 C   0  0  0  0  0  0
  -26.2163  -30.1819   21.4936 C   0  0  0  0  0  0
  -26.2876  -28.6687   20.8428 C   0  0  0  0  0  0
  -27.3185  -27.4600   20.8721 C   0  0  0  0  0  0
  -26.0725  -26.1713   19.4835 C   0  0  0  0  0  0
  -25.0764  -27.2471   19.4287 C   0  0  0  0  0  0
  -23.9170  -29.5014   20.1301 C   0  0  0  0  0  0
  -25.4128  -36.2621   24.0217 C   0  0  1  0  0  0
  -20.6065  -28.3845   23.1050 C   0  0  2  0  0  0
  -20.6815  -26.9414   22.5491 C   0  0  0  0  0  0
  -19.5793  -26.6344   21.5295 C   0  0  0  0  0  0
  -18.1966  -26.7985   22.1658 C   0  0  0  0  0  0
  -19.1682  -28.9011   23.2712 C   0  0  0  0  0  0
  -18.9580  -30.1587   23.8753 C   0  0  0  0  0  0
  -17.6559  -30.6652   24.0542 C   0  0  0  0  0  0
  -25.9161  -34.9060   23.4744 C   0  0  0  0  0  0
  -16.5445  -29.9120   23.6380 C   0  0  0  0  0  0
  -16.7375  -28.6587   23.0318 C   0  0  0  0  0  0
  -26.4658  -31.6528   25.0759 C   0  0  0  0  0  0
  -25.3526  -31.4102   26.1232 C   0  0  0  0  0  0
  -27.0751  -30.2789   24.7319 C   0  0  0  0  0  0
  -27.5895  -32.4640   25.7650 C   0  0  0  0  0  0
  -27.5501  -37.1611   24.8466 C   0  0  0  0  0  0
  -21.4659  -29.2924   22.3230 N   0  0  0  0  0  0
  -26.4164  -37.3498   23.9460 N   0  0  0  0  0  0
  -24.8892  -30.7750   22.0635 N   0  0  0  0  0  0
  -23.4160  -28.7468   23.3121 O   0  0  0  0  0  0
  -28.0363  -24.2831   20.2774 O   0  0  0  0  0  0
  -26.5982  -34.8790   22.4482 O   0  0  0  0  0  0
  -23.6311  -32.0453   23.5476 O   0  0  0  0  0  0
  -33.4787  -26.7013   18.3498 C   0  0  0  0  0  0
  -33.8775  -24.3217   18.5060 C   0  0  0  0  0  0
  -34.2564  -25.6289   18.8345 C   0  0  0  0  0  0
  -32.2662  -25.1660   16.8688 C   0  0  0  0  0  0
  -32.4407  -26.4630   17.4131 C   0  0  0  0  0  0
  -32.7749  -24.1202   17.6497 C   0  0  0  0  0  0
  -29.2376  -22.2749   21.5163 C   0  0  0  0  0  0
  -27.7771  -22.0459   18.9534 C   0  0  0  0  0  0
  -30.0705  -24.2443   21.0576 C   0  0  0  0  0  0
  -28.4786  -24.0132   18.1622 C   0  0  0  0  0  0
  -28.6894  -20.6368   20.2792 C   0  0  1  0  0  0
  -35.3943  -25.8345   19.8155 C   0  0  0  0  0  0
  -32.0309  -23.5619   14.8640 C   0  0  0  0  0  0
  -31.7919  -25.9977   14.5043 C   0  0  0  0  0  0
  -30.0661  -26.4839   19.0613 C   0  0  0  0  0  0
  -30.1660  -27.0608   17.6033 C   0  0  0  0  0  0
  -29.9405  -22.7417   19.3440 C   0  0  0  0  0  0
  -31.5479  -22.8534   19.1422 C   0  0  0  0  0  0
  -31.5482  -24.8735   15.5333 C   0  0  0  0  0  0
  -29.0671  -18.4683   20.2398 N   0  0  0  0  0  0
  -29.7943  -25.0052   19.2485 N   0  3  1  0  0  0
  -31.5035  -27.4449   17.2082 O   0  0  0  0  0  0
  -31.9733  -23.0281   17.7924 O   0  0  0  0  0  0
  -31.1467  -14.4129   19.0043 H   0  0  0  0  0  0
  -30.7403  -13.3975   20.3158 H   0  0  0  0  0  0
  -30.2686  -12.2541   18.1269 H   0  0  0  0  0  0
  -29.3871  -13.6356   17.5426 H   0  0  0  0  0  0
  -28.4753  -11.5408   19.5006 H   0  0  0  0  0  0
  -27.6298  -12.1500   18.0830 H   0  0  0  0  0  0
  -27.2952  -14.2421   19.0973 H   0  0  0  0  0  0
  -28.9852  -13.5910   21.5531 H   0  0  0  0  0  0
  -27.8570  -14.8889   21.4735 H   0  0  0  0  0  0
  -25.2999   -9.5672   22.4718 H   0  0  0  0  0  0
  -24.0115   -7.4697   22.7478 H   0  0  0  0  0  0
  -21.1023   -8.8930   19.8959 H   0  0  0  0  0  0
  -22.3999  -10.9735   19.6105 H   0  0  0  0  0  0
  -21.2060   -7.6190   23.9731 H   0  0  0  0  0  0
  -21.1504   -6.0553   25.9070 H   0  0  0  0  0  0
  -22.0571   -2.7651   23.2801 H   0  0  0  0  0  0
  -22.4193  -11.9660   22.4875 H   0  0  0  0  0  0
  -21.0960  -13.0766   22.2802 H   0  0  0  0  0  0
  -24.5204  -15.8452   20.5560 H   0  0  0  0  0  0
  -26.1467  -15.7177   20.1003 H   0  0  0  0  0  0
  -26.7818  -32.4342   23.0501 H   0  0  0  0  0  0
  -24.9716  -33.8813   24.9386 H   0  0  0  0  0  0
  -22.9894  -31.1302   21.2055 H   0  0  0  0  0  0
  -23.3772  -35.9189   23.3219 H   0  0  0  0  0  0
  -24.3460  -36.8824   22.2151 H   0  0  0  0  0  0
  -23.7112  -37.5993   23.6953 H   0  0  0  0  0  0
  -26.5071  -30.8569   20.6874 H   0  0  0  0  0  0
  -27.0283  -30.2708   22.1979 H   0  0  0  0  0  0
  -28.1519  -27.6437   21.5373 H   0  0  0  0  0  0
  -25.7471  -25.3035   18.9270 H   0  0  0  0  0  0
  -24.2076  -27.0664   18.8091 H   0  0  0  0  0  0
  -24.1428  -30.2244   19.3464 H   0  0  0  0  0  0
  -23.0123  -28.9938   19.7894 H   0  0  0  0  0  0
  -25.1357  -36.1251   25.0693 H   0  0  0  0  0  0
  -21.0161  -28.3532   24.1170 H   0  0  0  0  0  0
  -20.5642  -26.2423   23.3806 H   0  0  0  0  0  0
  -21.6659  -26.7229   22.1324 H   0  0  0  0  0  0
  -19.6895  -25.6215   21.1397 H   0  0  0  0  0  0
  -19.6796  -27.3101   20.6793 H   0  0  0  0  0  0
  -17.4246  -26.6729   21.4054 H   0  0  0  0  0  0
  -18.0325  -26.0204   22.9146 H   0  0  0  0  0  0
  -19.8057  -30.7472   24.1997 H   0  0  0  0  0  0
  -17.5110  -31.6298   24.5186 H   0  0  0  0  0  0
  -15.5436  -30.2980   23.7791 H   0  0  0  0  0  0
  -15.8789  -28.0928   22.6982 H   0  0  0  0  0  0
  -24.5711  -30.7459   25.7544 H   0  0  0  0  0  0
  -24.8731  -32.3439   26.4224 H   0  0  0  0  0  0
  -25.7506  -30.9561   27.0317 H   0  0  0  0  0  0
  -26.3557  -29.6119   24.2595 H   0  0  0  0  0  0
  -27.4085  -29.7673   25.6376 H   0  0  0  0  0  0
  -27.9588  -30.3773   24.1014 H   0  0  0  0  0  0
  -27.2227  -33.4054   26.1780 H   0  0  0  0  0  0
  -28.3972  -32.7093   25.0735 H   0  0  0  0  0  0
  -28.0293  -31.9153   26.5996 H   0  0  0  0  0  0
  -28.2396  -38.0018   24.7527 H   0  0  0  0  0  0
  -28.1076  -36.2509   24.6196 H   0  0  0  0  0  0
  -27.2231  -37.1148   25.8873 H   0  0  0  0  0  0
  -21.0065  -29.8479   21.6155 H   0  0  0  0  0  0
  -25.9896  -38.2464   24.1635 H   0  0  0  0  0  0
  -33.6522  -27.6950   18.7407 H   0  0  0  0  0  0
  -34.3259  -23.4864   19.0309 H   0  0  0  0  0  0
  -28.3121  -22.5138   22.0420 H   0  0  0  0  0  0
  -29.8607  -21.8586   22.3068 H   0  0  0  0  0  0
  -27.3707  -21.4921   18.1078 H   0  0  0  0  0  0
  -26.8677  -22.3152   19.4921 H   0  0  0  0  0  0
  -31.1088  -24.3111   21.3818 H   0  0  0  0  0  0
  -29.6590  -24.9474   21.7883 H   0  0  0  0  0  0
  -27.6259  -24.6424   17.9204 H   0  0  0  0  0  0
  -28.9236  -23.8853   17.1777 H   0  0  0  0  0  0
  -27.7807  -20.3942   20.8317 H   0  0  0  0  0  0
  -35.3341  -26.7998   20.3182 H   0  0  0  0  0  0
  -36.3462  -25.7728   19.2875 H   0  0  0  0  0  0
  -35.3777  -25.0488   20.5732 H   0  0  0  0  0  0
  -31.8034  -22.6748   15.4473 H   0  0  0  0  0  0
  -31.5576  -23.3974   13.8955 H   0  0  0  0  0  0
  -33.1083  -23.5664   14.6989 H   0  0  0  0  0  0
  -32.8554  -26.1400   14.3041 H   0  0  0  0  0  0
  -31.3950  -26.9647   14.8081 H   0  0  0  0  0  0
  -31.3340  -25.7408   13.5513 H   0  0  0  0  0  0
  -29.3910  -27.1194   19.6058 H   0  0  0  0  0  0
  -30.9932  -26.6882   19.5894 H   0  0  0  0  0  0
  -29.5754  -27.9814   17.5610 H   0  0  0  0  0  0
  -29.6868  -26.4175   16.8691 H   0  0  0  0  0  0
  -30.3395  -21.8366   19.7426 H   0  0  0  0  0  0
  -29.8851  -22.3095   18.3279 H   0  0  0  0  0  0
  -32.0832  -21.9054   19.3085 H   0  0  0  0  0  0
  -32.0600  -23.4768   19.8610 H   0  0  0  0  0  0
  -30.4766  -24.7597   15.6919 H   0  0  0  0  0  0
  -28.1112  -18.1427   20.1498 H   0  0  0  0  0  0
  -30.6269  -24.6657   18.7901 H   0  0  0  0  0  0
  1 25  1  0  0  0
  1 30  2  0  0  0
  1 90  1  0  0  0
  2  3  1  0  0  0
  2 25  1  0  0  0
  2 94  1  0  0  0
  2 95  1  0  0  0
  3  4  1  0  0  0
  3 96  1  0  0  0
  3 97  1  0  0  0
  4  5  1  0  0  0
  4 98  1  0  0  0
  4 99  1  0  0  0
  5  6  1  0  0  0
  5 26  1  0  0  0
  5100  1  0  0  0
  6 25  1  0  0  0
  6101  1  0  0  0
  6102  1  0  0  0
  7  8  2  0  0  0
  7 26  1  0  0  0
  7 29  1  0  0  0
  8  9  1  0  0  0
  8 22  1  0  0  0
  9 10  1  0  0  0
  9 27  2  0  0  0
 10 11  2  0  0  0
 10 15  1  0  0  0
 11 12  1  0  0  0
 11103  1  0  0  0
 12 13  2  0  0  0
 12104  1  0  0  0
 13 14  1  0  0  0
 13 31  1  0  0  0
 14 15  2  0  0  0
 14105  1  0  0  0
 15106  1  0  0  0
 16 17  2  0  0  0
 16 21  1  0  0  0
 16 31  1  0  0  0
 17 18  1  0  0  0
 17107  1  0  0  0
 18 19  2  0  0  0
 18108  1  0  0  0
 19 20  1  0  0  0
 19 24  1  0  0  0
 20 21  2  0  0  0
 20109  1  0  0  0
 21 23  1  0  0  0
 22 28  1  0  0  0
 22 32  2  0  0  0
 26 27  1  0  0  0
 28110  1  0  0  0
 28111  1  0  0  0
 29112  1  0  0  0
 29113  1  0  0  0
 33 34  1  0  0  0
 33 66  1  0  0  0
 33 70  2  0  0  0
 34 36  1  0  0  0
 34 59  1  0  0  0
 34114  1  0  0  0
 35 44  2  0  0  0
 35 45  1  0  0  0
 35 68  1  0  0  0
 36 56  1  0  0  0
 36115  1  0  0  0
 37 39  1  0  0  0
 37 47  1  0  0  0
 37 66  1  0  0  0
 37116  1  0  0  0
 38 43  2  0  0  0
 38 46  1  0  0  0
 38 47  1  0  0  0
 39 64  1  0  0  0
 39 67  2  0  0  0
 40 52  1  0  0  0
 40 53  2  0  0  0
 40 58  1  0  0  0
 41117  1  0  0  0
 41118  1  0  0  0
 41119  1  0  0  0
 41 48  1  0  0  0
 42 43  1  0  0  0
 42 66  1  0  0  0
 42120  1  0  0  0
 42121  1  0  0  0
 43 44  1  0  0  0
 44122  1  0  0  0
 45 46  2  0  0  0
 45123  1  0  0  0
 46124  1  0  0  0
 47125  1  0  0  0
 47126  1  0  0  0
 48 56  1  0  0  0
 48 65  1  0  0  0
 48127  1  0  0  0
 49 50  1  0  0  0
 49 53  1  0  0  0
 49 64  1  0  0  0
 49128  1  0  0  0
 50 51  1  0  0  0
 50129  1  0  0  0
 50130  1  0  0  0
 51 52  1  0  0  0
 51131  1  0  0  0
 51132  1  0  0  0
 52133  1  0  0  0
 52134  1  0  0  0
 53 54  1  0  0  0
 54 55  2  0  0  0
 54135  1  0  0  0
 55 57  1  0  0  0
 55136  1  0  0  0
 56 69  2  0  0  0
 57 58  2  0  0  0
 57137  1  0  0  0
 58138  1  0  0  0
 59 60  1  0  0  0
 59 61  1  0  0  0
 59 62  1  0  0  0
 60139  1  0  0  0
 60140  1  0  0  0
 60141  1  0  0  0
 61142  1  0  0  0
 61143  1  0  0  0
 61144  1  0  0  0
 62145  1  0  0  0
 62146  1  0  0  0
 62147  1  0  0  0
 63 65  1  0  0  0
 63148  1  0  0  0
 63149  1  0  0  0
 63150  1  0  0  0
 64151  1  0  0  0
 65152  1  0  0  0
 68 87  1  0  0  0
 71 73  2  0  0  0
 71 75  1  0  0  0
 71153  1  0  0  0
 72 73  1  0  0  0
 72 76  2  0  0  0
 72154  1  0  0  0
 73 82  1  0  0  0
 74 75  2  0  0  0
 74 76  1  0  0  0
 74 89  1  0  0  0
 75 92  1  0  0  0
 76 93  1  0  0  0
 77 79  1  0  0  0
 77 81  1  0  0  0
 77155  1  0  0  0
 77156  1  0  0  0
 78 80  1  0  0  0
 78 81  1  0  0  0
 78157  1  0  0  0
 78158  1  0  0  0
 79 91  1  0  0  0
 79159  1  0  0  0
 79160  1  0  0  0
 80 91  1  0  0  0
 80161  1  0  0  0
 80162  1  0  0  0
 81 90  1  0  0  0
 81163  1  0  0  0
 82164  1  0  0  0
 82165  1  0  0  0
 82166  1  0  0  0
 83167  1  0  0  0
 83168  1  0  0  0
 83169  1  0  0  0
 83 89  1  0  0  0
 84 89  1  0  0  0
 84170  1  0  0  0
 84171  1  0  0  0
 84172  1  0  0  0
 85 86  1  0  0  0
 85173  1  0  0  0
 85174  1  0  0  0
 85 91  1  0  0  0
 86 92  1  0  0  0
 86175  1  0  0  0
 86176  1  0  0  0
 87 88  1  0  0  0
 87177  1  0  0  0
 87178  1  0  0  0
 88 93  1  0  0  0
 88179  1  0  0  0
 88180  1  0  0  0
 89181  1  0  0  0
 90182  1  0  0  0
 91183  1  0  0  0
M  CHG  1  91   1
M  ISO  4   1 100  68 101  87 101  90 100
M  END
> <chiral flag>
0

> <version>
0

> <s_m_source_file>
/data/baiqing/PycharmProjects/Reinvent-master-3.2/result/LINK_invent/BTK/process_docking_weight1_custom_sum_contain_oxygen_bond_distance_aromatic_linkinvent_7_9_3/rearranged_h_0144.sdf

> <i_m_source_file_index>
78

> <r_mmod_Potential_Energy-OPLS-2005>
13163.3330078125

> <r_mmod_Stretch_Energy-OPLS-2005>
6853.04443359375

> <r_mmod_Bend_Energy-OPLS-2005>
1389.25158691406

> <r_mmod_Torsional_Energy-OPLS-2005>
459.915100097656

> <r_mmod_Improper_Torsional_Energy-OPLS-2005>
11.136435508728

> <r_mmod_Van_der_Waal_Energy-OPLS-2005>
1645.02099609375

> <r_mmod_Electrostatic_Energy-OPLS-2005>
-266.176696777344

> <r_mmod_Solvation_Energy-OPLS-2005>
-408.080871582031

> <b_mmod_Minimization_Converged-OPLS-2005>
0

> <r_mmod_RMS_Derivative-OPLS-2005>
9.33244705200195

$$$$
79
                    3D
 Structure written by MMmdl.
167176  0  0  1  0            999 V2000
  -30.6822  -14.4992   20.5397 C   0  0  0  0  0  0
  -30.4237  -12.3107   19.4346 C   0  0  0  0  0  0
  -29.4972  -12.4990   18.2139 C   0  0  0  0  0  0
  -28.0160  -12.3639   18.6229 C   0  0  0  0  0  0
  -27.6583  -13.2067   19.8769 C   0  0  2  0  0  0
  -28.7021  -13.0003   20.9973 C   0  0  0  0  0  0
  -25.2568  -13.8183   20.5679 C   0  0  0  0  0  0
  -24.1821  -13.0451   20.9188 C   0  0  0  0  0  0
  -24.6386  -11.6927   20.8773 C   0  0  0  0  0  0
  -23.9066  -10.4310   21.0438 C   0  0  0  0  0  0
  -24.3630   -9.4218   21.9194 C   0  0  0  0  0  0
  -23.6304   -8.2255   22.0755 C   0  0  0  0  0  0
  -22.4286   -8.0296   21.3549 C   0  0  0  0  0  0
  -21.9932   -9.0271   20.4646 C   0  0  0  0  0  0
  -22.7257  -10.2152   20.3063 C   0  0  0  0  0  0
  -21.6849   -6.0746   22.5280 C   0  0  0  0  0  0
  -21.4014   -6.5648   23.8215 C   0  0  0  0  0  0
  -21.3658   -5.6796   24.9177 C   0  0  0  0  0  0
  -21.6051   -4.3059   24.7228 C   0  0  0  0  0  0
  -21.8818   -3.8152   23.4347 C   0  0  0  0  0  0
  -21.9191   -4.6972   22.3405 C   0  0  0  0  0  0
  -22.7843  -13.5234   21.1851 C   0  0  0  0  0  0
  -22.1643   -4.2162   21.0978 F   0  0  0  0  0  0
  -21.5640   -3.4535   25.7739 F   0  0  0  0  0  0
  -30.0260  -13.3090   20.4391 N   0  0  0  0  0  0
  -26.3005  -12.9340   20.3396 N   0  0  0  0  0  0
  -25.9314  -11.6506   20.5816 N   0  0  0  0  0  0
  -22.0482  -12.8214   22.0409 N   0  0  0  0  0  0
  -25.4290  -15.1896   20.4023 N   0  0  0  0  0  0
  -31.8463  -14.6389   20.1494 O   0  0  0  0  0  0
  -21.6637   -6.8898   21.4247 O   0  0  0  0  0  0
  -22.3523  -14.5535   20.6700 O   0  0  0  0  0  0
  -24.6157  -31.8687   23.2147 C   0  0  0  0  0  0
  -25.9053  -32.4816   23.8434 C   0  0  1  0  0  0
  -27.2227  -27.4368   20.0941 C   0  0  0  0  0  0
  -25.5915  -33.8623   24.2353 N   0  0  0  0  0  0
  -23.4014  -30.4956   21.5551 C   0  0  2  0  0  0
  -24.8458  -28.9674   20.1108 C   0  0  0  0  0  0
  -22.7403  -29.4677   22.5016 C   0  0  0  0  0  0
  -18.0284  -28.1376   22.8508 C   0  0  0  0  0  0
  -24.1491  -36.7313   23.2644 C   0  0  0  0  0  0
  -25.9301  -30.8378   21.3643 C   0  0  0  0  0  0
  -26.0086  -29.4746   20.7075 C   0  0  0  0  0  0
  -27.2040  -28.7175   20.6937 C   0  0  0  0  0  0
  -26.0481  -26.9508   19.4801 C   0  0  0  0  0  0
  -24.8611  -27.7049   19.4930 C   0  0  0  0  0  0
  -23.6070  -29.8335   20.1679 C   0  0  0  0  0  0
  -25.4112  -36.3110   24.0343 C   0  0  1  0  0  0
  -20.5867  -28.3662   23.1335 C   0  0  2  0  0  0
  -20.6769  -26.9398   22.5441 C   0  0  0  0  0  0
  -19.5752  -26.6392   21.5224 C   0  0  0  0  0  0
  -18.1921  -26.7936   22.1614 C   0  0  0  0  0  0
  -19.1531  -28.8838   23.2916 C   0  0  0  0  0  0
  -18.9455  -30.1443   23.8920 C   0  0  0  0  0  0
  -17.6458  -30.6581   24.0573 C   0  0  0  0  0  0
  -25.9038  -34.9471   23.5138 C   0  0  0  0  0  0
  -16.5347  -29.9086   23.6333 C   0  0  0  0  0  0
  -16.7274  -28.6499   23.0363 C   0  0  0  0  0  0
  -26.4485  -31.6584   25.0748 C   0  0  0  0  0  0
  -25.3755  -31.3646   26.1482 C   0  0  0  0  0  0
  -27.0314  -30.3039   24.6101 C   0  0  0  0  0  0
  -27.6091  -32.4281   25.7491 C   0  0  0  0  0  0
  -27.5572  -37.1817   24.8470 C   0  0  0  0  0  0
  -21.4137  -29.3028   22.3725 N   0  0  0  0  0  0
  -26.4297  -37.3792   23.9407 N   0  0  0  0  0  0
  -24.6671  -31.0807   22.1031 N   0  0  0  0  0  0
  -23.4172  -28.8218   23.3057 O   0  0  0  0  0  0
  -28.3611  -26.6604   20.1095 O   0  0  0  0  0  0
  -26.5594  -34.8901   22.4692 O   0  0  0  0  0  0
  -23.5351  -32.1444   23.7550 O   0  0  0  0  0  0
  -29.6493  -20.8223   21.0800 C   0  0  0  0  0  0
  -32.0234  -21.7108   22.2518 C   0  0  0  0  0  0
  -30.6568  -19.8678   21.3899 C   0  0  0  0  0  0
  -31.8662  -20.3412   21.9634 C   0  0  0  0  0  0
  -31.0134  -22.6465   21.9624 C   0  0  0  0  0  0
  -29.8238  -22.2114   21.3193 C   0  0  0  0  0  0
  -30.1181  -17.4839   22.3100 C   0  0  0  0  0  0
  -29.5445  -18.0142   19.9196 C   0  0  0  0  0  0
  -29.4317  -16.1378   21.9399 C   0  0  0  0  0  0
  -29.7742  -16.5388   19.5063 C   0  0  0  0  0  0
  -30.4782  -18.3628   21.0856 C   0  0  0  0  0  0
  -33.0229  -19.4121   22.2962 C   0  0  0  0  0  0
  -31.2383  -24.0786   22.4269 C   0  0  0  0  0  0
  -28.1991  -25.4065   20.7995 C   0  0  0  0  0  0
  -29.0418  -24.2467   20.2233 C   0  0  0  0  0  0
  -29.8748  -15.5903   20.6435 N   0  0  0  0  0  0
  -28.7796  -23.0556   20.9864 O   0  0  0  0  0  0
  -31.4685  -12.4101   19.1363 H   0  0  0  0  0  0
  -30.3251  -11.3041   19.8449 H   0  0  0  0  0  0
  -29.7386  -11.7709   17.4377 H   0  0  0  0  0  0
  -29.6651  -13.4822   17.7714 H   0  0  0  0  0  0
  -27.8204  -11.3091   18.8183 H   0  0  0  0  0  0
  -27.3705  -12.6412   17.7901 H   0  0  0  0  0  0
  -27.6934  -14.2513   19.5709 H   0  0  0  0  0  0
  -28.6844  -11.9689   21.3523 H   0  0  0  0  0  0
  -28.4683  -13.6130   21.8663 H   0  0  0  0  0  0
  -25.2788   -9.5673   22.4747 H   0  0  0  0  0  0
  -24.0014   -7.4642   22.7468 H   0  0  0  0  0  0
  -21.0870   -8.8812   19.8937 H   0  0  0  0  0  0
  -22.3743  -10.9702   19.6165 H   0  0  0  0  0  0
  -21.1993   -7.6153   23.9728 H   0  0  0  0  0  0
  -21.1475   -6.0520   25.9083 H   0  0  0  0  0  0
  -22.0592   -2.7614   23.2847 H   0  0  0  0  0  0
  -22.4104  -11.9866   22.4774 H   0  0  0  0  0  0
  -21.1102  -13.1241   22.2622 H   0  0  0  0  0  0
  -24.6680  -15.8525   20.5043 H   0  0  0  0  0  0
  -26.2881  -15.6203   20.0845 H   0  0  0  0  0  0
  -26.7122  -32.5535   23.1198 H   0  0  0  0  0  0
  -25.0072  -33.9795   25.0498 H   0  0  0  0  0  0
  -22.6895  -31.3135   21.4223 H   0  0  0  0  0  0
  -23.3746  -35.9653   23.3316 H   0  0  0  0  0  0
  -24.3572  -36.8924   22.2055 H   0  0  0  0  0  0
  -23.7243  -37.6521   23.6650 H   0  0  0  0  0  0
  -26.0386  -31.6060   20.5976 H   0  0  0  0  0  0
  -26.8191  -30.8908   21.9808 H   0  0  0  0  0  0
  -28.0999  -29.1009   21.1609 H   0  0  0  0  0  0
  -26.0466  -25.9833   18.9969 H   0  0  0  0  0  0
  -23.9685  -27.3118   19.0251 H   0  0  0  0  0  0
  -23.7076  -30.6117   19.4106 H   0  0  0  0  0  0
  -22.7288  -29.2558   19.8747 H   0  0  0  0  0  0
  -25.1285  -36.1989   25.0839 H   0  0  0  0  0  0
  -20.9973  -28.3245   24.1450 H   0  0  0  0  0  0
  -20.5689  -26.2270   23.3627 H   0  0  0  0  0  0
  -21.6641  -26.7440   22.1234 H   0  0  0  0  0  0
  -19.6915  -25.6312   21.1235 H   0  0  0  0  0  0
  -19.6709  -27.3221   20.6768 H   0  0  0  0  0  0
  -17.4215  -26.6753   21.3983 H   0  0  0  0  0  0
  -18.0261  -26.0050   22.8969 H   0  0  0  0  0  0
  -19.7924  -30.7262   24.2306 H   0  0  0  0  0  0
  -17.5003  -31.6266   24.5164 H   0  0  0  0  0  0
  -15.5346  -30.2992   23.7633 H   0  0  0  0  0  0
  -15.8679  -28.0816   22.7073 H   0  0  0  0  0  0
  -24.6058  -30.6824   25.7832 H   0  0  0  0  0  0
  -24.8774  -32.2746   26.4830 H   0  0  0  0  0  0
  -25.8149  -30.8950   27.0288 H   0  0  0  0  0  0
  -26.2844  -29.6788   24.1180 H   0  0  0  0  0  0
  -27.4117  -29.7277   25.4546 H   0  0  0  0  0  0
  -27.8666  -30.4371   23.9219 H   0  0  0  0  0  0
  -27.2770  -33.3598   26.2070 H   0  0  0  0  0  0
  -28.3890  -32.6786   25.0289 H   0  0  0  0  0  0
  -28.0752  -31.8380   26.5386 H   0  0  0  0  0  0
  -28.2622  -38.0080   24.7462 H   0  0  0  0  0  0
  -28.1029  -36.2603   24.6367 H   0  0  0  0  0  0
  -27.2271  -37.1559   25.8871 H   0  0  0  0  0  0
  -20.9291  -29.8712   21.6918 H   0  0  0  0  0  0
  -26.0186  -38.2878   24.1385 H   0  0  0  0  0  0
  -28.7195  -20.4938   20.6386 H   0  0  0  0  0  0
  -32.9358  -22.0508   22.7220 H   0  0  0  0  0  0
  -31.0175  -17.2867   22.8927 H   0  0  0  0  0  0
  -29.4479  -18.0283   22.9763 H   0  0  0  0  0  0
  -28.5033  -18.1808   20.1992 H   0  0  0  0  0  0
  -29.7457  -18.6610   19.0642 H   0  0  0  0  0  0
  -28.3530  -16.2959   21.8669 H   0  0  0  0  0  0
  -29.5700  -15.4211   22.7503 H   0  0  0  0  0  0
  -30.6882  -16.5004   18.9099 H   0  0  0  0  0  0
  -28.9748  -16.2141   18.8397 H   0  0  0  0  0  0
  -31.4479  -18.0157   20.7357 H   0  0  0  0  0  0
  -33.9054  -19.9733   22.6031 H   0  0  0  0  0  0
  -33.3194  -18.8184   21.4322 H   0  0  0  0  0  0
  -32.7592  -18.7420   23.1136 H   0  0  0  0  0  0
  -31.8691  -24.1000   23.3162 H   0  0  0  0  0  0
  -30.3024  -24.5625   22.6994 H   0  0  0  0  0  0
  -31.7407  -24.6699   21.6608 H   0  0  0  0  0  0
  -28.4642  -25.5732   21.8422 H   0  0  0  0  0  0
  -27.1608  -25.0720   20.8195 H   0  0  0  0  0  0
  -30.0934  -24.5184   20.1655 H   0  0  0  0  0  0
  -28.7377  -24.0553   19.1940 H   0  0  0  0  0  0
  1 25  1  0  0  0
  1 30  2  0  0  0
  1 86  1  0  0  0
  2  3  1  0  0  0
  2 25  1  0  0  0
  2 88  1  0  0  0
  2 89  1  0  0  0
  3  4  1  0  0  0
  3 90  1  0  0  0
  3 91  1  0  0  0
  4  5  1  0  0  0
  4 92  1  0  0  0
  4 93  1  0  0  0
  5  6  1  0  0  0
  5 26  1  0  0  0
  5 94  1  0  0  0
  6 25  1  0  0  0
  6 95  1  0  0  0
  6 96  1  0  0  0
  7  8  2  0  0  0
  7 26  1  0  0  0
  7 29  1  0  0  0
  8  9  1  0  0  0
  8 22  1  0  0  0
  9 10  1  0  0  0
  9 27  2  0  0  0
 10 11  2  0  0  0
 10 15  1  0  0  0
 11 12  1  0  0  0
 11 97  1  0  0  0
 12 13  2  0  0  0
 12 98  1  0  0  0
 13 14  1  0  0  0
 13 31  1  0  0  0
 14 15  2  0  0  0
 14 99  1  0  0  0
 15100  1  0  0  0
 16 17  2  0  0  0
 16 21  1  0  0  0
 16 31  1  0  0  0
 17 18  1  0  0  0
 17101  1  0  0  0
 18 19  2  0  0  0
 18102  1  0  0  0
 19 20  1  0  0  0
 19 24  1  0  0  0
 20 21  2  0  0  0
 20103  1  0  0  0
 21 23  1  0  0  0
 22 28  1  0  0  0
 22 32  2  0  0  0
 26 27  1  0  0  0
 28104  1  0  0  0
 28105  1  0  0  0
 29106  1  0  0  0
 29107  1  0  0  0
 33 34  1  0  0  0
 33 66  1  0  0  0
 33 70  2  0  0  0
 34 36  1  0  0  0
 34 59  1  0  0  0
 34108  1  0  0  0
 35 44  2  0  0  0
 35 45  1  0  0  0
 35 68  1  0  0  0
 36 56  1  0  0  0
 36109  1  0  0  0
 37 39  1  0  0  0
 37 47  1  0  0  0
 37 66  1  0  0  0
 37110  1  0  0  0
 38 43  2  0  0  0
 38 46  1  0  0  0
 38 47  1  0  0  0
 39 64  1  0  0  0
 39 67  2  0  0  0
 40 52  1  0  0  0
 40 53  2  0  0  0
 40 58  1  0  0  0
 41111  1  0  0  0
 41112  1  0  0  0
 41113  1  0  0  0
 41 48  1  0  0  0
 42 43  1  0  0  0
 42 66  1  0  0  0
 42114  1  0  0  0
 42115  1  0  0  0
 43 44  1  0  0  0
 44116  1  0  0  0
 45 46  2  0  0  0
 45117  1  0  0  0
 46118  1  0  0  0
 47119  1  0  0  0
 47120  1  0  0  0
 48 56  1  0  0  0
 48 65  1  0  0  0
 48121  1  0  0  0
 49 50  1  0  0  0
 49 53  1  0  0  0
 49 64  1  0  0  0
 49122  1  0  0  0
 50 51  1  0  0  0
 50123  1  0  0  0
 50124  1  0  0  0
 51 52  1  0  0  0
 51125  1  0  0  0
 51126  1  0  0  0
 52127  1  0  0  0
 52128  1  0  0  0
 53 54  1  0  0  0
 54 55  2  0  0  0
 54129  1  0  0  0
 55 57  1  0  0  0
 55130  1  0  0  0
 56 69  2  0  0  0
 57 58  2  0  0  0
 57131  1  0  0  0
 58132  1  0  0  0
 59 60  1  0  0  0
 59 61  1  0  0  0
 59 62  1  0  0  0
 60133  1  0  0  0
 60134  1  0  0  0
 60135  1  0  0  0
 61136  1  0  0  0
 61137  1  0  0  0
 61138  1  0  0  0
 62139  1  0  0  0
 62140  1  0  0  0
 62141  1  0  0  0
 63 65  1  0  0  0
 63142  1  0  0  0
 63143  1  0  0  0
 63144  1  0  0  0
 64145  1  0  0  0
 65146  1  0  0  0
 68 84  1  0  0  0
 71 73  2  0  0  0
 71 76  1  0  0  0
 71147  1  0  0  0
 72 74  2  0  0  0
 72 75  1  0  0  0
 72148  1  0  0  0
 73 74  1  0  0  0
 73 81  1  0  0  0
 74 82  1  0  0  0
 75 76  2  0  0  0
 75 83  1  0  0  0
 76 87  1  0  0  0
 77 79  1  0  0  0
 77 81  1  0  0  0
 77149  1  0  0  0
 77150  1  0  0  0
 78 80  1  0  0  0
 78 81  1  0  0  0
 78151  1  0  0  0
 78152  1  0  0  0
 79 86  1  0  0  0
 79153  1  0  0  0
 79154  1  0  0  0
 80 86  1  0  0  0
 80155  1  0  0  0
 80156  1  0  0  0
 81157  1  0  0  0
 82158  1  0  0  0
 82159  1  0  0  0
 82160  1  0  0  0
 83161  1  0  0  0
 83162  1  0  0  0
 83163  1  0  0  0
 84 85  1  0  0  0
 84164  1  0  0  0
 84165  1  0  0  0
 85 87  1  0  0  0
 85166  1  0  0  0
 85167  1  0  0  0
M  ISO  4   1 100  68 101  84 101  86 100
M  END
> <chiral flag>
0

> <version>
0

> <s_m_source_file>
/data/baiqing/PycharmProjects/Reinvent-master-3.2/result/LINK_invent/BTK/process_docking_weight1_custom_sum_contain_oxygen_bond_distance_aromatic_linkinvent_7_9_3/rearranged_h_0144.sdf

> <i_m_source_file_index>
79

> <r_mmod_Potential_Energy-OPLS-2005>
228.440155029297

> <r_mmod_Stretch_Energy-OPLS-2005>
44.1607093811035

> <r_mmod_Bend_Energy-OPLS-2005>
110.76301574707

> <r_mmod_Torsional_Energy-OPLS-2005>
375.674987792969

> <r_mmod_Improper_Torsional_Energy-OPLS-2005>
14.9179315567017

> <r_mmod_Van_der_Waal_Energy-OPLS-2005>
165.492218017578

> <r_mmod_Electrostatic_Energy-OPLS-2005>
-307.434600830078

> <r_mmod_Solvation_Energy-OPLS-2005>
-191.72331237793

> <b_mmod_Minimization_Converged-OPLS-2005>
0

> <r_mmod_RMS_Derivative-OPLS-2005>
2.17204761505127

$$$$
80
                    3D
 Structure written by MMmdl.
161170  0  0  1  0            999 V2000
  -30.7017  -14.4784   20.5277 C   0  0  0  0  0  0
  -30.4181  -12.2999   19.4288 C   0  0  0  0  0  0
  -29.4953  -12.5153   18.2098 C   0  0  0  0  0  0
  -28.0170  -12.3703   18.6241 C   0  0  0  0  0  0
  -27.6624  -13.2132   19.8795 C   0  0  2  0  0  0
  -28.7096  -13.0036   21.0000 C   0  0  0  0  0  0
  -25.2587  -13.8172   20.5734 C   0  0  0  0  0  0
  -24.1817  -13.0430   20.9189 C   0  0  0  0  0  0
  -24.6384  -11.6917   20.8762 C   0  0  0  0  0  0
  -23.9054  -10.4280   21.0406 C   0  0  0  0  0  0
  -24.3598   -9.4191   21.9174 C   0  0  0  0  0  0
  -23.6278   -8.2228   22.0747 C   0  0  0  0  0  0
  -22.4261   -8.0269   21.3526 C   0  0  0  0  0  0
  -21.9882   -9.0252   20.4637 C   0  0  0  0  0  0
  -22.7227  -10.2128   20.3056 C   0  0  0  0  0  0
  -21.6836   -6.0722   22.5280 C   0  0  0  0  0  0
  -21.4009   -6.5631   23.8218 C   0  0  0  0  0  0
  -21.3661   -5.6778   24.9177 C   0  0  0  0  0  0
  -21.6057   -4.3047   24.7226 C   0  0  0  0  0  0
  -21.8819   -3.8135   23.4345 C   0  0  0  0  0  0
  -21.9185   -4.6949   22.3398 C   0  0  0  0  0  0
  -22.7840  -13.5228   21.1832 C   0  0  0  0  0  0
  -22.1655   -4.2146   21.0976 F   0  0  0  0  0  0
  -21.5625   -3.4536   25.7741 F   0  0  0  0  0  0
  -30.0399  -13.2943   20.4449 N   0  0  0  0  0  0
  -26.3025  -12.9349   20.3419 N   0  0  0  0  0  0
  -25.9313  -11.6522   20.5809 N   0  0  0  0  0  0
  -22.0473  -12.8220   22.0414 N   0  0  0  0  0  0
  -25.4306  -15.1891   20.4127 N   0  0  0  0  0  0
  -31.8362  -14.6485   20.0773 O   0  0  0  0  0  0
  -21.6613   -6.8869   21.4243 O   0  0  0  0  0  0
  -22.3540  -14.5529   20.6686 O   0  0  0  0  0  0
  -24.6131  -31.8685   23.2109 C   0  0  0  0  0  0
  -25.9017  -32.4820   23.8402 C   0  0  1  0  0  0
  -27.2372  -27.4471   20.0926 C   0  0  0  0  0  0
  -25.5882  -33.8630   24.2324 N   0  0  0  0  0  0
  -23.4014  -30.4902   21.5513 C   0  0  2  0  0  0
  -24.8496  -28.9535   20.1197 C   0  0  0  0  0  0
  -22.7396  -29.4654   22.5001 C   0  0  0  0  0  0
  -18.0268  -28.1372   22.8491 C   0  0  0  0  0  0
  -24.1495  -36.7332   23.2641 C   0  0  0  0  0  0
  -25.9292  -30.8351   21.3644 C   0  0  0  0  0  0
  -26.0081  -29.4694   20.7148 C   0  0  0  0  0  0
  -27.2052  -28.7192   20.7064 C   0  0  0  0  0  0
  -26.0677  -26.9423   19.4899 C   0  0  0  0  0  0
  -24.8728  -27.6886   19.5046 C   0  0  0  0  0  0
  -23.6104  -29.8198   20.1670 C   0  0  0  0  0  0
  -25.4116  -36.3123   24.0334 C   0  0  1  0  0  0
  -20.5849  -28.3656   23.1327 C   0  0  2  0  0  0
  -20.6761  -26.9400   22.5421 C   0  0  0  0  0  0
  -19.5744  -26.6383   21.5212 C   0  0  0  0  0  0
  -18.1922  -26.7919   22.1623 C   0  0  0  0  0  0
  -19.1516  -28.8836   23.2899 C   0  0  0  0  0  0
  -18.9444  -30.1438   23.8910 C   0  0  0  0  0  0
  -17.6449  -30.6579   24.0569 C   0  0  0  0  0  0
  -25.9029  -34.9479   23.5127 C   0  0  0  0  0  0
  -16.5339  -29.9080   23.6324 C   0  0  0  0  0  0
  -16.7260  -28.6499   23.0344 C   0  0  0  0  0  0
  -26.4464  -31.6600   25.0729 C   0  0  0  0  0  0
  -25.3734  -31.3714   26.1479 C   0  0  0  0  0  0
  -27.0284  -30.3044   24.6091 C   0  0  0  0  0  0
  -27.6041  -32.4323   25.7491 C   0  0  0  0  0  0
  -27.5573  -37.1837   24.8473 C   0  0  0  0  0  0
  -21.4133  -29.3021   22.3737 N   0  0  0  0  0  0
  -26.4310  -37.3788   23.9374 N   0  0  0  0  0  0
  -24.6653  -31.0777   22.1006 N   0  0  0  0  0  0
  -23.4178  -28.8199   23.3037 O   0  0  0  0  0  0
  -28.3985  -26.7118   20.0512 O   0  0  0  0  0  0
  -26.5593  -34.8928   22.4694 O   0  0  0  0  0  0
  -23.5323  -32.1444   23.7500 O   0  0  0  0  0  0
  -29.2560  -20.2922   21.7985 C   0  0  0  0  0  0
  -29.2439  -21.6885   21.6024 C   0  0  0  0  0  0
  -29.3880  -21.3372   19.2153 C   0  0  0  0  0  0
  -29.3831  -19.9310   19.3929 C   0  0  0  0  0  0
  -29.3004  -19.3919   20.7089 C   0  0  0  0  0  0
  -29.2660  -22.2300   20.3007 C   0  0  0  0  0  0
  -28.5116  -19.3541   17.0051 C   0  0  0  0  0  0
  -28.3986  -18.0660   17.7800 C   0  0  0  0  0  0
  -29.4544  -19.0844   18.1554 C   0  0  0  0  0  0
  -29.1396  -17.8884   21.0099 C   0  0  0  0  0  0
  -30.2652  -16.9242   20.5534 C   0  0  0  0  0  0
  -28.5390  -25.7444   21.0977 C   0  0  0  0  0  0
  -28.1311  -24.3079   20.6977 C   0  0  0  0  0  0
  -29.9615  -15.5293   20.9201 N   0  0  0  0  0  0
  -29.1954  -23.5875   20.0532 O   0  0  0  0  0  0
  -31.4672  -12.3694   19.1425 H   0  0  0  0  0  0
  -30.2853  -11.2952   19.8350 H   0  0  0  0  0  0
  -29.7361  -11.8006   17.4203 H   0  0  0  0  0  0
  -29.6621  -13.5085   17.7880 H   0  0  0  0  0  0
  -27.8338  -11.3125   18.8284 H   0  0  0  0  0  0
  -27.3605  -12.6376   17.7953 H   0  0  0  0  0  0
  -27.6969  -14.2594   19.5731 H   0  0  0  0  0  0
  -28.4883  -13.6137   21.8772 H   0  0  0  0  0  0
  -28.6864  -11.9722   21.3531 H   0  0  0  0  0  0
  -25.2739   -9.5681   22.4745 H   0  0  0  0  0  0
  -23.9998   -7.4613   22.7453 H   0  0  0  0  0  0
  -21.0801   -8.8766   19.8939 H   0  0  0  0  0  0
  -22.3670  -10.9664   19.6171 H   0  0  0  0  0  0
  -21.2010   -7.6150   23.9733 H   0  0  0  0  0  0
  -21.1478   -6.0505   25.9084 H   0  0  0  0  0  0
  -22.0594   -2.7609   23.2847 H   0  0  0  0  0  0
  -22.4060  -11.9873   22.4811 H   0  0  0  0  0  0
  -21.1095  -13.1286   22.2594 H   0  0  0  0  0  0
  -24.6659  -15.8462   20.5223 H   0  0  0  0  0  0
  -26.2802  -15.6220   20.0777 H   0  0  0  0  0  0
  -26.7095  -32.5553   23.1176 H   0  0  0  0  0  0
  -25.0037  -33.9805   25.0469 H   0  0  0  0  0  0
  -22.6894  -31.3061   21.4107 H   0  0  0  0  0  0
  -23.3726  -35.9696   23.3360 H   0  0  0  0  0  0
  -24.3572  -36.8898   22.2042 H   0  0  0  0  0  0
  -23.7291  -37.6575   23.6624 H   0  0  0  0  0  0
  -26.0368  -31.5975   20.5925 H   0  0  0  0  0  0
  -26.8188  -30.8926   21.9793 H   0  0  0  0  0  0
  -28.1038  -29.1142   21.1595 H   0  0  0  0  0  0
  -26.0810  -25.9807   18.9975 H   0  0  0  0  0  0
  -23.9830  -27.2878   19.0384 H   0  0  0  0  0  0
  -23.7177  -30.5940   19.4064 H   0  0  0  0  0  0
  -22.7364  -29.2371   19.8725 H   0  0  0  0  0  0
  -25.1302  -36.2006   25.0828 H   0  0  0  0  0  0
  -20.9941  -28.3223   24.1443 H   0  0  0  0  0  0
  -20.5664  -26.2269   23.3606 H   0  0  0  0  0  0
  -21.6635  -26.7444   22.1212 H   0  0  0  0  0  0
  -19.6911  -25.6296   21.1235 H   0  0  0  0  0  0
  -19.6685  -27.3204   20.6749 H   0  0  0  0  0  0
  -17.4192  -26.6660   21.4026 H   0  0  0  0  0  0
  -18.0321  -26.0056   22.9016 H   0  0  0  0  0  0
  -19.7922  -30.7244   24.2296 H   0  0  0  0  0  0
  -17.5005  -31.6267   24.5160 H   0  0  0  0  0  0
  -15.5340  -30.2993   23.7636 H   0  0  0  0  0  0
  -15.8657  -28.0828   22.7045 H   0  0  0  0  0  0
  -24.5884  -30.7090   25.7819 H   0  0  0  0  0  0
  -24.8951  -32.2877   26.4947 H   0  0  0  0  0  0
  -25.8082  -30.8868   27.0224 H   0  0  0  0  0  0
  -26.2824  -29.6817   24.1142 H   0  0  0  0  0  0
  -27.4054  -29.7269   25.4537 H   0  0  0  0  0  0
  -27.8660  -30.4363   23.9239 H   0  0  0  0  0  0
  -27.2643  -33.3590   26.2126 H   0  0  0  0  0  0
  -28.3818  -32.6934   25.0304 H   0  0  0  0  0  0
  -28.0742  -31.8416   26.5362 H   0  0  0  0  0  0
  -28.2659  -38.0064   24.7412 H   0  0  0  0  0  0
  -28.1005  -36.2590   24.6446 H   0  0  0  0  0  0
  -27.2273  -37.1669   25.8878 H   0  0  0  0  0  0
  -20.9296  -29.8758   21.6976 H   0  0  0  0  0  0
  -26.0218  -38.2891   24.1296 H   0  0  0  0  0  0
  -29.1921  -19.9191   22.8120 H   0  0  0  0  0  0
  -29.2076  -22.3373   22.4654 H   0  0  0  0  0  0
  -29.4512  -21.7398   18.2142 H   0  0  0  0  0  0
  -27.7244  -20.0917   17.1508 H   0  0  0  0  0  0
  -28.9089  -19.2858   15.9941 H   0  0  0  0  0  0
  -28.7186  -17.1661   17.2590 H   0  0  0  0  0  0
  -27.5307  -17.9499   18.4257 H   0  0  0  0  0  0
  -30.4917  -18.8846   17.8947 H   0  0  0  0  0  0
  -29.0304  -17.7698   22.0873 H   0  0  0  0  0  0
  -28.1866  -17.5724   20.5886 H   0  0  0  0  0  0
  -30.3735  -16.9562   19.4696 H   0  0  0  0  0  0
  -31.2271  -17.2201   20.9747 H   0  0  0  0  0  0
  -29.5689  -25.7477   21.4491 H   0  0  0  0  0  0
  -27.9380  -26.0495   21.9552 H   0  0  0  0  0  0
  -27.2596  -24.3220   20.0451 H   0  0  0  0  0  0
  -27.7954  -23.8031   21.6026 H   0  0  0  0  0  0
  -29.0490  -15.3263   21.2988 H   0  0  0  0  0  0
  1 25  1  0  0  0
  1 30  2  0  0  0
  1 84  1  0  0  0
  2  3  1  0  0  0
  2 25  1  0  0  0
  2 86  1  0  0  0
  2 87  1  0  0  0
  3  4  1  0  0  0
  3 88  1  0  0  0
  3 89  1  0  0  0
  4  5  1  0  0  0
  4 90  1  0  0  0
  4 91  1  0  0  0
  5  6  1  0  0  0
  5 26  1  0  0  0
  5 92  1  0  0  0
  6 25  1  0  0  0
  6 93  1  0  0  0
  6 94  1  0  0  0
  7  8  2  0  0  0
  7 26  1  0  0  0
  7 29  1  0  0  0
  8  9  1  0  0  0
  8 22  1  0  0  0
  9 10  1  0  0  0
  9 27  2  0  0  0
 10 11  2  0  0  0
 10 15  1  0  0  0
 11 12  1  0  0  0
 11 95  1  0  0  0
 12 13  2  0  0  0
 12 96  1  0  0  0
 13 14  1  0  0  0
 13 31  1  0  0  0
 14 15  2  0  0  0
 14 97  1  0  0  0
 15 98  1  0  0  0
 16 17  2  0  0  0
 16 21  1  0  0  0
 16 31  1  0  0  0
 17 18  1  0  0  0
 17 99  1  0  0  0
 18 19  2  0  0  0
 18100  1  0  0  0
 19 20  1  0  0  0
 19 24  1  0  0  0
 20 21  2  0  0  0
 20101  1  0  0  0
 21 23  1  0  0  0
 22 28  1  0  0  0
 22 32  2  0  0  0
 26 27  1  0  0  0
 28102  1  0  0  0
 28103  1  0  0  0
 29104  1  0  0  0
 29105  1  0  0  0
 33 34  1  0  0  0
 33 66  1  0  0  0
 33 70  2  0  0  0
 34 36  1  0  0  0
 34 59  1  0  0  0
 34106  1  0  0  0
 35 44  2  0  0  0
 35 45  1  0  0  0
 35 68  1  0  0  0
 36 56  1  0  0  0
 36107  1  0  0  0
 37 39  1  0  0  0
 37 47  1  0  0  0
 37 66  1  0  0  0
 37108  1  0  0  0
 38 43  2  0  0  0
 38 46  1  0  0  0
 38 47  1  0  0  0
 39 64  1  0  0  0
 39 67  2  0  0  0
 40 52  1  0  0  0
 40 53  2  0  0  0
 40 58  1  0  0  0
 41109  1  0  0  0
 41110  1  0  0  0
 41111  1  0  0  0
 41 48  1  0  0  0
 42 43  1  0  0  0
 42 66  1  0  0  0
 42112  1  0  0  0
 42113  1  0  0  0
 43 44  1  0  0  0
 44114  1  0  0  0
 45 46  2  0  0  0
 45115  1  0  0  0
 46116  1  0  0  0
 47117  1  0  0  0
 47118  1  0  0  0
 48 56  1  0  0  0
 48 65  1  0  0  0
 48119  1  0  0  0
 49 50  1  0  0  0
 49 53  1  0  0  0
 49 64  1  0  0  0
 49120  1  0  0  0
 50 51  1  0  0  0
 50121  1  0  0  0
 50122  1  0  0  0
 51 52  1  0  0  0
 51123  1  0  0  0
 51124  1  0  0  0
 52125  1  0  0  0
 52126  1  0  0  0
 53 54  1  0  0  0
 54 55  2  0  0  0
 54127  1  0  0  0
 55 57  1  0  0  0
 55128  1  0  0  0
 56 69  2  0  0  0
 57 58  2  0  0  0
 57129  1  0  0  0
 58130  1  0  0  0
 59 60  1  0  0  0
 59 61  1  0  0  0
 59 62  1  0  0  0
 60131  1  0  0  0
 60132  1  0  0  0
 60133  1  0  0  0
 61134  1  0  0  0
 61135  1  0  0  0
 61136  1  0  0  0
 62137  1  0  0  0
 62138  1  0  0  0
 62139  1  0  0  0
 63 65  1  0  0  0
 63140  1  0  0  0
 63141  1  0  0  0
 63142  1  0  0  0
 64143  1  0  0  0
 65144  1  0  0  0
 68 82  1  0  0  0
 71 72  2  0  0  0
 71 75  1  0  0  0
 71145  1  0  0  0
 72 76  1  0  0  0
 72146  1  0  0  0
 73 74  1  0  0  0
 73 76  2  0  0  0
 73147  1  0  0  0
 74 75  2  0  0  0
 74 79  1  0  0  0
 75 80  1  0  0  0
 76 85  1  0  0  0
 77 78  1  0  0  0
 77 79  1  0  0  0
 77148  1  0  0  0
 77149  1  0  0  0
 78 79  1  0  0  0
 78150  1  0  0  0
 78151  1  0  0  0
 79152  1  0  0  0
 80 81  1  0  0  0
 80153  1  0  0  0
 80154  1  0  0  0
 81 84  1  0  0  0
 81155  1  0  0  0
 81156  1  0  0  0
 82 83  1  0  0  0
 82157  1  0  0  0
 82158  1  0  0  0
 83 85  1  0  0  0
 83159  1  0  0  0
 83160  1  0  0  0
 84161  1  0  0  0
M  ISO  4   1 100  68 101  82 101  84 100
M  END
> <chiral flag>
0

> <version>
0

> <s_m_source_file>
/data/baiqing/PycharmProjects/Reinvent-master-3.2/result/LINK_invent/BTK/process_docking_weight1_custom_sum_contain_oxygen_bond_distance_aromatic_linkinvent_7_9_3/rearranged_h_0144.sdf

> <i_m_source_file_index>
80

> <r_mmod_Potential_Energy-OPLS-2005>
-23.9651527404785

> <r_mmod_Stretch_Energy-OPLS-2005>
37.3404884338379

> <r_mmod_Bend_Energy-OPLS-2005>
98.1542358398438

> <r_mmod_Torsional_Energy-OPLS-2005>
276.0048828125

> <r_mmod_Improper_Torsional_Energy-OPLS-2005>
6.17805910110474

> <r_mmod_Van_der_Waal_Energy-OPLS-2005>
146.760543823242

> <r_mmod_Electrostatic_Energy-OPLS-2005>
-385.894805908203

> <r_mmod_Solvation_Energy-OPLS-2005>
-214.89094543457

> <b_mmod_Minimization_Converged-OPLS-2005>
0

> <r_mmod_RMS_Derivative-OPLS-2005>
4.69609689712524

$$$$
81
                    3D
 Structure written by MMmdl.
167176  0  0  1  0            999 V2000
  -30.7815  -14.3777   20.6784 C   0  0  0  0  0  0
  -30.4126  -12.2980   19.3991 C   0  0  0  0  0  0
  -29.4811  -12.5262   18.1953 C   0  0  0  0  0  0
  -28.0083  -12.3762   18.6165 C   0  0  0  0  0  0
  -27.6649  -13.2076   19.8798 C   0  0  2  0  0  0
  -28.7051  -12.9715   20.9968 C   0  0  0  0  0  0
  -25.2601  -13.8166   20.5687 C   0  0  0  0  0  0
  -24.1852  -13.0443   20.9167 C   0  0  0  0  0  0
  -24.6405  -11.6906   20.8732 C   0  0  0  0  0  0
  -23.9077  -10.4289   21.0412 C   0  0  0  0  0  0
  -24.3628   -9.4203   21.9189 C   0  0  0  0  0  0
  -23.6299   -8.2245   22.0759 C   0  0  0  0  0  0
  -22.4276   -8.0285   21.3548 C   0  0  0  0  0  0
  -21.9918   -9.0262   20.4650 C   0  0  0  0  0  0
  -22.7254  -10.2138   20.3059 C   0  0  0  0  0  0
  -21.6851   -6.0746   22.5283 C   0  0  0  0  0  0
  -21.4011   -6.5647   23.8217 C   0  0  0  0  0  0
  -21.3659   -5.6794   24.9176 C   0  0  0  0  0  0
  -21.6042   -4.3060   24.7220 C   0  0  0  0  0  0
  -21.8822   -3.8152   23.4340 C   0  0  0  0  0  0
  -21.9192   -4.6973   22.3398 C   0  0  0  0  0  0
  -22.7872  -13.5243   21.1835 C   0  0  0  0  0  0
  -22.1661   -4.2159   21.0978 F   0  0  0  0  0  0
  -21.5628   -3.4541   25.7735 F   0  0  0  0  0  0
  -30.0463  -13.2571   20.4533 N   0  0  0  0  0  0
  -26.3047  -12.9346   20.3406 N   0  0  0  0  0  0
  -25.9335  -11.6498   20.5786 N   0  0  0  0  0  0
  -22.0519  -12.8230   22.0388 N   0  0  0  0  0  0
  -25.4336  -15.1886   20.4102 N   0  0  0  0  0  0
  -31.8143  -14.6428   20.0581 O   0  0  0  0  0  0
  -21.6642   -6.8882   21.4242 O   0  0  0  0  0  0
  -22.3552  -14.5557   20.6694 O   0  0  0  0  0  0
  -24.6151  -31.8664   23.2118 C   0  0  0  0  0  0
  -25.9041  -32.4800   23.8414 C   0  0  1  0  0  0
  -27.2312  -27.4338   20.0838 C   0  0  0  0  0  0
  -25.5890  -33.8610   24.2339 N   0  0  0  0  0  0
  -23.4016  -30.4926   21.5524 C   0  0  2  0  0  0
  -24.8449  -28.9640   20.1130 C   0  0  0  0  0  0
  -22.7385  -29.4667   22.4993 C   0  0  0  0  0  0
  -18.0262  -28.1378   22.8499 C   0  0  0  0  0  0
  -24.1487  -36.7329   23.2642 C   0  0  0  0  0  0
  -25.9339  -30.8289   21.3702 C   0  0  0  0  0  0
  -26.0064  -29.4666   20.7110 C   0  0  0  0  0  0
  -27.2007  -28.7082   20.6958 C   0  0  0  0  0  0
  -26.0437  -26.9520   19.4758 C   0  0  0  0  0  0
  -24.8592  -27.7057   19.4921 C   0  0  0  0  0  0
  -23.6067  -29.8275   20.1665 C   0  0  0  0  0  0
  -25.4105  -36.3111   24.0336 C   0  0  1  0  0  0
  -20.5854  -28.3674   23.1320 C   0  0  2  0  0  0
  -20.6751  -26.9406   22.5435 C   0  0  0  0  0  0
  -19.5739  -26.6394   21.5216 C   0  0  0  0  0  0
  -18.1907  -26.7939   22.1613 C   0  0  0  0  0  0
  -19.1512  -28.8846   23.2906 C   0  0  0  0  0  0
  -18.9438  -30.1454   23.8919 C   0  0  0  0  0  0
  -17.6438  -30.6589   24.0588 C   0  0  0  0  0  0
  -25.9024  -34.9468   23.5135 C   0  0  0  0  0  0
  -16.5334  -29.9082   23.6342 C   0  0  0  0  0  0
  -16.7253  -28.6497   23.0365 C   0  0  0  0  0  0
  -26.4465  -31.6586   25.0756 C   0  0  0  0  0  0
  -25.3732  -31.3680   26.1504 C   0  0  0  0  0  0
  -27.0284  -30.3009   24.6171 C   0  0  0  0  0  0
  -27.6062  -32.4303   25.7484 C   0  0  0  0  0  0
  -27.5580  -37.1812   24.8455 C   0  0  0  0  0  0
  -21.4112  -29.3038   22.3725 N   0  0  0  0  0  0
  -26.4295  -37.3794   23.9395 N   0  0  0  0  0  0
  -24.6676  -31.0772   22.1006 N   0  0  0  0  0  0
  -23.4154  -28.8210   23.3042 O   0  0  0  0  0  0
  -28.4075  -26.7048   20.0960 O   0  0  0  0  0  0
  -26.5597  -34.8910   22.4703 O   0  0  0  0  0  0
  -23.5341  -32.1417   23.7501 O   0  0  0  0  0  0
  -31.0491  -20.3246   20.6048 C   0  0  0  0  0  0
  -30.9150  -21.6174   20.0640 C   0  0  0  0  0  0
  -28.4876  -21.3526   19.9797 C   0  0  0  0  0  0
  -29.9050  -19.5349   20.8597 C   0  0  0  0  0  0
  -29.6446  -22.1352   19.7461 C   0  0  0  0  0  0
  -28.6254  -20.0666   20.5659 C   0  0  0  0  0  0
  -26.1709  -21.1348   18.7278 C   0  0  0  0  0  0
  -26.8151  -22.4068   18.2373 C   0  0  0  0  0  0
  -27.1259  -21.8911   19.6268 C   0  0  0  0  0  0
  -27.0177  -19.4730   22.1507 C   0  0  0  0  0  0
  -31.2455  -17.5089   21.4619 C   0  0  0  0  0  0
  -31.1327  -16.2268   22.3118 C   0  0  0  0  0  0
  -28.3214  -25.3329   19.6868 C   0  0  0  0  0  0
  -29.5946  -24.5147   19.9617 C   0  0  0  0  0  0
  -29.9828  -18.2365   21.3979 N   0  0  0  0  0  0
  -30.3550  -15.1587   21.6807 N   0  0  0  0  0  0
  -27.5095  -19.3083   20.8272 O   0  0  0  0  0  0
  -29.5566  -23.3573   19.1235 O   0  0  0  0  0  0
  -31.4567  -12.3870   19.0940 H   0  0  0  0  0  0
  -30.3039  -11.2789   19.7741 H   0  0  0  0  0  0
  -29.7129  -11.8189   17.3981 H   0  0  0  0  0  0
  -29.6458  -13.5228   17.7819 H   0  0  0  0  0  0
  -27.8232  -11.3182   18.8070 H   0  0  0  0  0  0
  -27.3500  -12.6561   17.7935 H   0  0  0  0  0  0
  -27.7163  -14.2597   19.5964 H   0  0  0  0  0  0
  -28.6695  -11.9352   21.3360 H   0  0  0  0  0  0
  -28.4535  -13.5704   21.8723 H   0  0  0  0  0  0
  -25.2774   -9.5675   22.4764 H   0  0  0  0  0  0
  -24.0006   -7.4636   22.7478 H   0  0  0  0  0  0
  -21.0848   -8.8787   19.8949 H   0  0  0  0  0  0
  -22.3723  -10.9684   19.6166 H   0  0  0  0  0  0
  -21.2004   -7.6152   23.9723 H   0  0  0  0  0  0
  -21.1478   -6.0523   25.9079 H   0  0  0  0  0  0
  -22.0600   -2.7613   23.2838 H   0  0  0  0  0  0
  -22.4124  -11.9866   22.4746 H   0  0  0  0  0  0
  -21.1143  -13.1261   22.2629 H   0  0  0  0  0  0
  -24.6711  -15.8478   20.5183 H   0  0  0  0  0  0
  -26.2946  -15.6262   20.1064 H   0  0  0  0  0  0
  -26.7134  -32.5488   23.1204 H   0  0  0  0  0  0
  -25.0007  -33.9777   25.0458 H   0  0  0  0  0  0
  -22.6916  -31.3089   21.4113 H   0  0  0  0  0  0
  -23.3743  -35.9660   23.3284 H   0  0  0  0  0  0
  -24.3601  -36.8969   22.2060 H   0  0  0  0  0  0
  -23.7230  -37.6524   23.6675 H   0  0  0  0  0  0
  -26.0608  -31.5975   20.6059 H   0  0  0  0  0  0
  -26.8178  -30.8722   21.9951 H   0  0  0  0  0  0
  -28.0976  -29.0938   21.1605 H   0  0  0  0  0  0
  -26.0015  -25.9986   18.9680 H   0  0  0  0  0  0
  -23.9688  -27.3174   19.0158 H   0  0  0  0  0  0
  -23.7053  -30.6013   19.4046 H   0  0  0  0  0  0
  -22.7338  -29.2399   19.8792 H   0  0  0  0  0  0
  -25.1286  -36.1985   25.0829 H   0  0  0  0  0  0
  -20.9949  -28.3257   24.1436 H   0  0  0  0  0  0
  -20.5625  -26.2284   23.3623 H   0  0  0  0  0  0
  -21.6617  -26.7424   22.1225 H   0  0  0  0  0  0
  -19.6880  -25.6304   21.1234 H   0  0  0  0  0  0
  -19.6696  -27.3219   20.6761 H   0  0  0  0  0  0
  -17.4183  -26.6726   21.3997 H   0  0  0  0  0  0
  -18.0282  -26.0059   22.8984 H   0  0  0  0  0  0
  -19.7913  -30.7268   24.2294 H   0  0  0  0  0  0
  -17.4986  -31.6270   24.5190 H   0  0  0  0  0  0
  -15.5342  -30.2982   23.7655 H   0  0  0  0  0  0
  -15.8646  -28.0812   22.7087 H   0  0  0  0  0  0
  -24.5971  -30.6935   25.7875 H   0  0  0  0  0  0
  -24.8854  -32.2810   26.4926 H   0  0  0  0  0  0
  -25.8116  -30.8916   27.0281 H   0  0  0  0  0  0
  -26.2839  -29.6758   24.1230 H   0  0  0  0  0  0
  -27.4009  -29.7261   25.4664 H   0  0  0  0  0  0
  -27.8697  -30.4297   23.9358 H   0  0  0  0  0  0
  -27.2738  -33.3626   26.2066 H   0  0  0  0  0  0
  -28.3861  -32.6823   25.0287 H   0  0  0  0  0  0
  -28.0732  -31.8406   26.5380 H   0  0  0  0  0  0
  -28.2609  -38.0108   24.7508 H   0  0  0  0  0  0
  -28.1080  -36.2642   24.6272 H   0  0  0  0  0  0
  -27.2314  -37.1441   25.8869 H   0  0  0  0  0  0
  -20.9248  -29.8773   21.6973 H   0  0  0  0  0  0
  -26.0182  -38.2869   24.1406 H   0  0  0  0  0  0
  -32.0448  -19.9638   20.8125 H   0  0  0  0  0  0
  -31.7983  -22.2057   19.8619 H   0  0  0  0  0  0
  -26.5104  -20.1969   18.2909 H   0  0  0  0  0  0
  -25.1071  -21.1882   18.9492 H   0  0  0  0  0  0
  -26.1774  -23.2846   18.1560 H   0  0  0  0  0  0
  -27.5813  -22.3148   17.4702 H   0  0  0  0  0  0
  -26.6974  -22.4296   20.4706 H   0  0  0  0  0  0
  -26.1027  -18.8951   22.2807 H   0  0  0  0  0  0
  -26.7859  -20.5179   22.3629 H   0  0  0  0  0  0
  -27.7398  -19.1215   22.8889 H   0  0  0  0  0  0
  -31.6025  -17.2911   20.4544 H   0  0  0  0  0  0
  -32.0024  -18.1409   21.9288 H   0  0  0  0  0  0
  -30.7010  -16.4552   23.2873 H   0  0  0  0  0  0
  -32.1361  -15.8457   22.5149 H   0  0  0  0  0  0
  -27.4892  -24.8329   20.1850 H   0  0  0  0  0  0
  -28.1259  -25.3154   18.6141 H   0  0  0  0  0  0
  -29.6746  -24.2741   21.0236 H   0  0  0  0  0  0
  -30.4772  -25.0960   19.6924 H   0  0  0  0  0  0
  -29.1204  -17.6992   21.4191 H   0  0  0  0  0  0
  -29.5034  -14.8750   22.1409 H   0  0  0  0  0  0
  1 25  1  0  0  0
  1 30  2  0  0  0
  1 86  1  0  0  0
  2  3  1  0  0  0
  2 25  1  0  0  0
  2 89  1  0  0  0
  2 90  1  0  0  0
  3  4  1  0  0  0
  3 91  1  0  0  0
  3 92  1  0  0  0
  4  5  1  0  0  0
  4 93  1  0  0  0
  4 94  1  0  0  0
  5  6  1  0  0  0
  5 26  1  0  0  0
  5 95  1  0  0  0
  6 25  1  0  0  0
  6 96  1  0  0  0
  6 97  1  0  0  0
  7  8  2  0  0  0
  7 26  1  0  0  0
  7 29  1  0  0  0
  8  9  1  0  0  0
  8 22  1  0  0  0
  9 10  1  0  0  0
  9 27  2  0  0  0
 10 11  2  0  0  0
 10 15  1  0  0  0
 11 12  1  0  0  0
 11 98  1  0  0  0
 12 13  2  0  0  0
 12 99  1  0  0  0
 13 14  1  0  0  0
 13 31  1  0  0  0
 14 15  2  0  0  0
 14100  1  0  0  0
 15101  1  0  0  0
 16 17  2  0  0  0
 16 21  1  0  0  0
 16 31  1  0  0  0
 17 18  1  0  0  0
 17102  1  0  0  0
 18 19  2  0  0  0
 18103  1  0  0  0
 19 20  1  0  0  0
 19 24  1  0  0  0
 20 21  2  0  0  0
 20104  1  0  0  0
 21 23  1  0  0  0
 22 28  1  0  0  0
 22 32  2  0  0  0
 26 27  1  0  0  0
 28105  1  0  0  0
 28106  1  0  0  0
 29107  1  0  0  0
 29108  1  0  0  0
 33 34  1  0  0  0
 33 66  1  0  0  0
 33 70  2  0  0  0
 34 36  1  0  0  0
 34 59  1  0  0  0
 34109  1  0  0  0
 35 44  2  0  0  0
 35 45  1  0  0  0
 35 68  1  0  0  0
 36 56  1  0  0  0
 36110  1  0  0  0
 37 39  1  0  0  0
 37 47  1  0  0  0
 37 66  1  0  0  0
 37111  1  0  0  0
 38 43  2  0  0  0
 38 46  1  0  0  0
 38 47  1  0  0  0
 39 64  1  0  0  0
 39 67  2  0  0  0
 40 52  1  0  0  0
 40 53  2  0  0  0
 40 58  1  0  0  0
 41112  1  0  0  0
 41113  1  0  0  0
 41114  1  0  0  0
 41 48  1  0  0  0
 42 43  1  0  0  0
 42 66  1  0  0  0
 42115  1  0  0  0
 42116  1  0  0  0
 43 44  1  0  0  0
 44117  1  0  0  0
 45 46  2  0  0  0
 45118  1  0  0  0
 46119  1  0  0  0
 47120  1  0  0  0
 47121  1  0  0  0
 48 56  1  0  0  0
 48 65  1  0  0  0
 48122  1  0  0  0
 49 50  1  0  0  0
 49 53  1  0  0  0
 49 64  1  0  0  0
 49123  1  0  0  0
 50 51  1  0  0  0
 50124  1  0  0  0
 50125  1  0  0  0
 51 52  1  0  0  0
 51126  1  0  0  0
 51127  1  0  0  0
 52128  1  0  0  0
 52129  1  0  0  0
 53 54  1  0  0  0
 54 55  2  0  0  0
 54130  1  0  0  0
 55 57  1  0  0  0
 55131  1  0  0  0
 56 69  2  0  0  0
 57 58  2  0  0  0
 57132  1  0  0  0
 58133  1  0  0  0
 59 60  1  0  0  0
 59 61  1  0  0  0
 59 62  1  0  0  0
 60134  1  0  0  0
 60135  1  0  0  0
 60136  1  0  0  0
 61137  1  0  0  0
 61138  1  0  0  0
 61139  1  0  0  0
 62140  1  0  0  0
 62141  1  0  0  0
 62142  1  0  0  0
 63 65  1  0  0  0
 63143  1  0  0  0
 63144  1  0  0  0
 63145  1  0  0  0
 64146  1  0  0  0
 65147  1  0  0  0
 68 83  1  0  0  0
 71 72  2  0  0  0
 71 74  1  0  0  0
 71148  1  0  0  0
 72 75  1  0  0  0
 72149  1  0  0  0
 73 75  2  0  0  0
 73 76  1  0  0  0
 73 79  1  0  0  0
 74 76  2  0  0  0
 74 85  1  0  0  0
 75 88  1  0  0  0
 76 87  1  0  0  0
 77 78  1  0  0  0
 77 79  1  0  0  0
 77150  1  0  0  0
 77151  1  0  0  0
 78 79  1  0  0  0
 78152  1  0  0  0
 78153  1  0  0  0
 79154  1  0  0  0
 80 87  1  0  0  0
 80155  1  0  0  0
 80156  1  0  0  0
 80157  1  0  0  0
 81 82  1  0  0  0
 81 85  1  0  0  0
 81158  1  0  0  0
 81159  1  0  0  0
 82 86  1  0  0  0
 82160  1  0  0  0
 82161  1  0  0  0
 83 84  1  0  0  0
 83162  1  0  0  0
 83163  1  0  0  0
 84 88  1  0  0  0
 84164  1  0  0  0
 84165  1  0  0  0
 85166  1  0  0  0
 86167  1  0  0  0
M  ISO  4   1 100  68 101  83 101  86 100
M  END
> <chiral flag>
0

> <version>
0

> <s_m_source_file>
/data/baiqing/PycharmProjects/Reinvent-master-3.2/result/LINK_invent/BTK/process_docking_weight1_custom_sum_contain_oxygen_bond_distance_aromatic_linkinvent_7_9_3/rearranged_h_0144.sdf

> <i_m_source_file_index>
81

> <r_mmod_Potential_Energy-OPLS-2005>
-82.5752944946289

> <r_mmod_Stretch_Energy-OPLS-2005>
35.9916915893555

> <r_mmod_Bend_Energy-OPLS-2005>
104.482223510742

> <r_mmod_Torsional_Energy-OPLS-2005>
289.507019042969

> <r_mmod_Improper_Torsional_Energy-OPLS-2005>
3.64002084732056

> <r_mmod_Van_der_Waal_Energy-OPLS-2005>
153.723999023438

> <r_mmod_Electrostatic_Energy-OPLS-2005>
-461.435974121094

> <r_mmod_Solvation_Energy-OPLS-2005>
-217.631622314453

> <b_mmod_Minimization_Converged-OPLS-2005>
0

> <r_mmod_RMS_Derivative-OPLS-2005>
2.18516778945923

$$$$
82
                    3D
 Structure written by MMmdl.
174184  0  0  1  0            999 V2000
  -30.5873  -14.6958   20.5598 C   0  0  0  0  0  0
  -30.4585  -12.4546   19.4422 C   0  0  0  0  0  0
  -29.5132  -12.5510   18.2202 C   0  0  0  0  0  0
  -28.0331  -12.3699   18.6239 C   0  0  0  0  0  0
  -27.6591  -13.2074   19.8759 C   0  0  2  0  0  0
  -28.7118  -12.9801   20.9833 C   0  0  0  0  0  0
  -25.2555  -13.8129   20.5638 C   0  0  0  0  0  0
  -24.1818  -13.0418   20.9172 C   0  0  0  0  0  0
  -24.6390  -11.6889   20.8757 C   0  0  0  0  0  0
  -23.9050  -10.4283   21.0428 C   0  0  0  0  0  0
  -24.3603   -9.4201   21.9211 C   0  0  0  0  0  0
  -23.6281   -8.2229   22.0765 C   0  0  0  0  0  0
  -22.4265   -8.0276   21.3552 C   0  0  0  0  0  0
  -21.9901   -9.0251   20.4659 C   0  0  0  0  0  0
  -22.7224  -10.2132   20.3072 C   0  0  0  0  0  0
  -21.6843   -6.0730   22.5293 C   0  0  0  0  0  0
  -21.4010   -6.5639   23.8227 C   0  0  0  0  0  0
  -21.3653   -5.6789   24.9189 C   0  0  0  0  0  0
  -21.6046   -4.3054   24.7234 C   0  0  0  0  0  0
  -21.8822   -3.8144   23.4347 C   0  0  0  0  0  0
  -21.9186   -4.6962   22.3406 C   0  0  0  0  0  0
  -22.7843  -13.5255   21.1816 C   0  0  0  0  0  0
  -22.1656   -4.2152   21.0978 F   0  0  0  0  0  0
  -21.5620   -3.4530   25.7737 F   0  0  0  0  0  0
  -30.0063  -13.4437   20.4508 N   0  0  0  0  0  0
  -26.3014  -12.9306   20.3373 N   0  0  0  0  0  0
  -25.9325  -11.6470   20.5790 N   0  0  0  0  0  0
  -22.0444  -12.8293   22.0370 N   0  0  0  0  0  0
  -25.4176  -15.1839   20.3966 N   0  0  0  0  0  0
  -31.7098  -14.8912   20.0785 O   0  0  0  0  0  0
  -21.6627   -6.8878   21.4250 O   0  0  0  0  0  0
  -22.3555  -14.5563   20.6647 O   0  0  0  0  0  0
  -24.6264  -31.8597   23.2024 C   0  0  0  0  0  0
  -25.9109  -32.4779   23.8364 C   0  0  1  0  0  0
  -27.2296  -27.3035   20.1268 C   0  0  0  0  0  0
  -25.5925  -33.8579   24.2288 N   0  0  0  0  0  0
  -23.4220  -30.4828   21.5428 C   0  0  2  0  0  0
  -24.8727  -28.9313   20.1171 C   0  0  0  0  0  0
  -22.7475  -29.4635   22.4912 C   0  0  0  0  0  0
  -18.0285  -28.1383   22.8481 C   0  0  0  0  0  0
  -24.1484  -36.7286   23.2645 C   0  0  0  0  0  0
  -25.9646  -30.7812   21.3825 C   0  0  0  0  0  0
  -26.0395  -29.4044   20.7320 C   0  0  0  0  0  0
  -27.2206  -28.5997   20.7340 C   0  0  0  0  0  0
  -26.0519  -26.9033   19.4633 C   0  0  0  0  0  0
  -24.8808  -27.6842   19.4750 C   0  0  0  0  0  0
  -23.6406  -29.8126   20.1609 C   0  0  0  0  0  0
  -25.4112  -36.3084   24.0335 C   0  0  1  0  0  0
  -20.5890  -28.3699   23.1261 C   0  0  2  0  0  0
  -20.6769  -26.9416   22.5401 C   0  0  0  0  0  0
  -19.5748  -26.6379   21.5201 C   0  0  0  0  0  0
  -18.1929  -26.7929   22.1612 C   0  0  0  0  0  0
  -19.1539  -28.8854   23.2872 C   0  0  0  0  0  0
  -18.9466  -30.1451   23.8896 C   0  0  0  0  0  0
  -17.6468  -30.6590   24.0561 C   0  0  0  0  0  0
  -25.9051  -34.9456   23.5110 C   0  0  0  0  0  0
  -16.5356  -29.9089   23.6330 C   0  0  0  0  0  0
  -16.7273  -28.6500   23.0362 C   0  0  0  0  0  0
  -26.4497  -31.6591   25.0736 C   0  0  0  0  0  0
  -25.3728  -31.3735   26.1463 C   0  0  0  0  0  0
  -27.0355  -30.3011   24.6222 C   0  0  0  0  0  0
  -27.6063  -32.4328   25.7495 C   0  0  0  0  0  0
  -27.5578  -37.1795   24.8468 C   0  0  0  0  0  0
  -21.4185  -29.3052   22.3649 N   0  0  0  0  0  0
  -26.4292  -37.3777   23.9412 N   0  0  0  0  0  0
  -24.6889  -31.0599   22.0978 N   0  0  0  0  0  0
  -23.4186  -28.8181   23.3008 O   0  0  0  0  0  0
  -28.3480  -26.4523   20.0896 O   0  0  0  0  0  0
  -26.5614  -34.8920   22.4673 O   0  0  0  0  0  0
  -23.5424  -32.1400   23.7336 O   0  0  0  0  0  0
  -27.0495  -19.7276   24.3434 C   0  0  0  0  0  0
  -26.0219  -20.1964   23.5085 C   0  0  0  0  0  0
  -27.9656  -18.7778   23.8566 C   0  0  0  0  0  0
  -25.9024  -19.7016   22.1978 C   0  0  0  0  0  0
  -27.8720  -18.2898   22.5346 C   0  0  0  0  0  0
  -26.8156  -18.7389   21.6971 C   0  0  0  0  0  0
  -29.5722  -20.6717   19.8054 C   0  0  0  0  0  0
  -27.9051  -22.7354   19.7506 C   0  0  0  0  0  0
  -30.1920  -23.2018   20.4422 C   0  0  0  0  0  0
  -27.3497  -23.9886   20.5083 C   0  0  0  0  0  0
  -29.7537  -24.5516   21.1403 C   0  0  0  0  0  0
  -28.7532  -15.8168   22.0092 C   0  0  0  0  0  0
  -28.9563  -17.3163   22.0576 C   0  0  1  0  0  0
  -29.1270  -22.0637   20.4462 C   0  0  2  0  0  0
  -28.3354  -25.1676   20.8444 C   0  0  1  0  0  0
  -29.4928  -17.2273   20.6302 C   0  0  1  0  0  0
  -25.6828  -18.6767   19.5687 C   0  0  0  0  0  0
  -30.5458  -18.3362   20.2803 C   0  0  0  0  0  0
  -29.7988  -15.7644   20.9705 N   0  0  0  0  0  0
  -29.4277  -20.4766   18.5978 O   0  0  0  0  0  0
  -26.7194  -18.2192   20.4258 O   0  0  0  0  0  0
  -30.1090  -19.6990   20.6754 O   0  0  0  0  0  0
  -31.4889  -12.6286   19.1316 H   0  0  0  0  0  0
  -30.4509  -11.4452   19.8567 H   0  0  0  0  0  0
  -29.7908  -11.8109   17.4684 H   0  0  0  0  0  0
  -29.6392  -13.5277   17.7483 H   0  0  0  0  0  0
  -27.8714  -11.3113   18.8291 H   0  0  0  0  0  0
  -27.3795  -12.6187   17.7866 H   0  0  0  0  0  0
  -27.6933  -14.2557   19.5792 H   0  0  0  0  0  0
  -28.7666  -11.9168   21.2189 H   0  0  0  0  0  0
  -28.4349  -13.4163   21.9358 H   0  0  0  0  0  0
  -25.2739   -9.5676   22.4794 H   0  0  0  0  0  0
  -23.9992   -7.4617   22.7480 H   0  0  0  0  0  0
  -21.0833   -8.8763   19.8962 H   0  0  0  0  0  0
  -22.3690  -10.9667   19.6171 H   0  0  0  0  0  0
  -21.2010   -7.6149   23.9736 H   0  0  0  0  0  0
  -21.1467   -6.0516   25.9097 H   0  0  0  0  0  0
  -22.0604   -2.7607   23.2845 H   0  0  0  0  0  0
  -22.3998  -11.9957   22.4812 H   0  0  0  0  0  0
  -21.1067  -13.1371   22.2529 H   0  0  0  0  0  0
  -24.6511  -15.8325   20.5287 H   0  0  0  0  0  0
  -26.2747  -15.6405   20.1126 H   0  0  0  0  0  0
  -26.7173  -32.5453   23.1117 H   0  0  0  0  0  0
  -25.0086  -33.9725   25.0440 H   0  0  0  0  0  0
  -22.7172  -31.3038   21.3953 H   0  0  0  0  0  0
  -23.3749  -35.9616   23.3318 H   0  0  0  0  0  0
  -24.3570  -36.8890   22.2057 H   0  0  0  0  0  0
  -23.7223  -37.6489   23.6650 H   0  0  0  0  0  0
  -26.1018  -31.5396   20.6113 H   0  0  0  0  0  0
  -26.8430  -30.8325   22.0135 H   0  0  0  0  0  0
  -28.1169  -28.9610   21.2189 H   0  0  0  0  0  0
  -26.0317  -25.9853   18.8991 H   0  0  0  0  0  0
  -23.9964  -27.3249   18.9670 H   0  0  0  0  0  0
  -23.7589  -30.5842   19.3997 H   0  0  0  0  0  0
  -22.7618  -29.2394   19.8608 H   0  0  0  0  0  0
  -25.1286  -36.1951   25.0826 H   0  0  0  0  0  0
  -20.9991  -28.3281   24.1380 H   0  0  0  0  0  0
  -20.5644  -26.2323   23.3612 H   0  0  0  0  0  0
  -21.6643  -26.7427   22.1216 H   0  0  0  0  0  0
  -19.6915  -25.6285   21.1241 H   0  0  0  0  0  0
  -19.6693  -27.3177   20.6721 H   0  0  0  0  0  0
  -17.4204  -26.6680   21.4010 H   0  0  0  0  0  0
  -18.0331  -26.0064   22.8999 H   0  0  0  0  0  0
  -19.7948  -30.7252   24.2278 H   0  0  0  0  0  0
  -17.5033  -31.6275   24.5155 H   0  0  0  0  0  0
  -15.5360  -30.2998   23.7650 H   0  0  0  0  0  0
  -15.8669  -28.0810   22.7098 H   0  0  0  0  0  0
  -24.5911  -30.7076   25.7784 H   0  0  0  0  0  0
  -24.8918  -32.2906   26.4873 H   0  0  0  0  0  0
  -25.8057  -30.8921   27.0244 H   0  0  0  0  0  0
  -26.2947  -29.6739   24.1255 H   0  0  0  0  0  0
  -27.4044  -29.7294   25.4747 H   0  0  0  0  0  0
  -27.8816  -30.4280   23.9467 H   0  0  0  0  0  0
  -27.2686  -33.3633   26.2068 H   0  0  0  0  0  0
  -28.3874  -32.6877   25.0318 H   0  0  0  0  0  0
  -28.0738  -31.8460   26.5413 H   0  0  0  0  0  0
  -28.2608  -38.0080   24.7509 H   0  0  0  0  0  0
  -28.1058  -36.2613   24.6299 H   0  0  0  0  0  0
  -27.2300  -37.1456   25.8873 H   0  0  0  0  0  0
  -20.9363  -29.8780   21.6862 H   0  0  0  0  0  0
  -26.0181  -38.2857   24.1402 H   0  0  0  0  0  0
  -27.1411  -20.0998   25.3539 H   0  0  0  0  0  0
  -25.3161  -20.9309   23.8714 H   0  0  0  0  0  0
  -28.7571  -18.4355   24.5092 H   0  0  0  0  0  0
  -25.0909  -20.0830   21.5970 H   0  0  0  0  0  0
  -28.1704  -23.0251   18.7325 H   0  0  0  0  0  0
  -27.1044  -22.0013   19.6473 H   0  0  0  0  0  0
  -31.1013  -22.8372   20.9229 H   0  0  0  0  0  0
  -30.4780  -23.4166   19.4111 H   0  0  0  0  0  0
  -26.9944  -23.6075   21.4672 H   0  0  0  0  0  0
  -26.4413  -24.3297   20.0269 H   0  0  0  0  0  0
  -30.5165  -25.3112   20.9692 H   0  0  0  0  0  0
  -29.7961  -24.3604   22.2142 H   0  0  0  0  0  0
  -27.7566  -15.5545   21.6575 H   0  0  0  0  0  0
  -28.9942  -15.3329   22.9574 H   0  0  0  0  0  0
  -29.8183  -17.5062   22.7030 H   0  0  0  0  0  0
  -28.8536  -21.8408   21.4776 H   0  0  0  0  0  0
  -27.9959  -25.5258   21.8186 H   0  0  0  0  0  0
  -28.7091  -17.2379   19.8785 H   0  0  0  0  0  0
  -25.7829  -18.1866   18.6002 H   0  0  0  0  0  0
  -25.7432  -19.7526   19.3976 H   0  0  0  0  0  0
  -24.6999  -18.4227   19.9676 H   0  0  0  0  0  0
  -30.7884  -18.3141   19.2174 H   0  0  0  0  0  0
  -31.4793  -18.1353   20.8052 H   0  0  0  0  0  0
  1 25  1  0  0  0
  1 30  2  0  0  0
  1 89  1  0  0  0
  2  3  1  0  0  0
  2 25  1  0  0  0
  2 93  1  0  0  0
  2 94  1  0  0  0
  3  4  1  0  0  0
  3 95  1  0  0  0
  3 96  1  0  0  0
  4  5  1  0  0  0
  4 97  1  0  0  0
  4 98  1  0  0  0
  5  6  1  0  0  0
  5 26  1  0  0  0
  5 99  1  0  0  0
  6 25  1  0  0  0
  6100  1  0  0  0
  6101  1  0  0  0
  7  8  2  0  0  0
  7 26  1  0  0  0
  7 29  1  0  0  0
  8  9  1  0  0  0
  8 22  1  0  0  0
  9 10  1  0  0  0
  9 27  2  0  0  0
 10 11  2  0  0  0
 10 15  1  0  0  0
 11 12  1  0  0  0
 11102  1  0  0  0
 12 13  2  0  0  0
 12103  1  0  0  0
 13 14  1  0  0  0
 13 31  1  0  0  0
 14 15  2  0  0  0
 14104  1  0  0  0
 15105  1  0  0  0
 16 17  2  0  0  0
 16 21  1  0  0  0
 16 31  1  0  0  0
 17 18  1  0  0  0
 17106  1  0  0  0
 18 19  2  0  0  0
 18107  1  0  0  0
 19 20  1  0  0  0
 19 24  1  0  0  0
 20 21  2  0  0  0
 20108  1  0  0  0
 21 23  1  0  0  0
 22 28  1  0  0  0
 22 32  2  0  0  0
 26 27  1  0  0  0
 28109  1  0  0  0
 28110  1  0  0  0
 29111  1  0  0  0
 29112  1  0  0  0
 33 34  1  0  0  0
 33 66  1  0  0  0
 33 70  2  0  0  0
 34 36  1  0  0  0
 34 59  1  0  0  0
 34113  1  0  0  0
 35 44  2  0  0  0
 35 45  1  0  0  0
 35 68  1  0  0  0
 36 56  1  0  0  0
 36114  1  0  0  0
 37 39  1  0  0  0
 37 47  1  0  0  0
 37 66  1  0  0  0
 37115  1  0  0  0
 38 43  2  0  0  0
 38 46  1  0  0  0
 38 47  1  0  0  0
 39 64  1  0  0  0
 39 67  2  0  0  0
 40 52  1  0  0  0
 40 53  2  0  0  0
 40 58  1  0  0  0
 41116  1  0  0  0
 41117  1  0  0  0
 41118  1  0  0  0
 41 48  1  0  0  0
 42 43  1  0  0  0
 42 66  1  0  0  0
 42119  1  0  0  0
 42120  1  0  0  0
 43 44  1  0  0  0
 44121  1  0  0  0
 45 46  2  0  0  0
 45122  1  0  0  0
 46123  1  0  0  0
 47124  1  0  0  0
 47125  1  0  0  0
 48 56  1  0  0  0
 48 65  1  0  0  0
 48126  1  0  0  0
 49 50  1  0  0  0
 49 53  1  0  0  0
 49 64  1  0  0  0
 49127  1  0  0  0
 50 51  1  0  0  0
 50128  1  0  0  0
 50129  1  0  0  0
 51 52  1  0  0  0
 51130  1  0  0  0
 51131  1  0  0  0
 52132  1  0  0  0
 52133  1  0  0  0
 53 54  1  0  0  0
 54 55  2  0  0  0
 54134  1  0  0  0
 55 57  1  0  0  0
 55135  1  0  0  0
 56 69  2  0  0  0
 57 58  2  0  0  0
 57136  1  0  0  0
 58137  1  0  0  0
 59 60  1  0  0  0
 59 61  1  0  0  0
 59 62  1  0  0  0
 60138  1  0  0  0
 60139  1  0  0  0
 60140  1  0  0  0
 61141  1  0  0  0
 61142  1  0  0  0
 61143  1  0  0  0
 62144  1  0  0  0
 62145  1  0  0  0
 62146  1  0  0  0
 63 65  1  0  0  0
 63147  1  0  0  0
 63148  1  0  0  0
 63149  1  0  0  0
 64150  1  0  0  0
 65151  1  0  0  0
 68 85  1  0  0  0
 71 72  2  0  0  0
 71 73  1  0  0  0
 71152  1  0  0  0
 72 74  1  0  0  0
 72153  1  0  0  0
 73 75  2  0  0  0
 73154  1  0  0  0
 74 76  2  0  0  0
 74155  1  0  0  0
 75 76  1  0  0  0
 75 83  1  0  0  0
 76 91  1  0  0  0
 77 90  2  0  0  0
 77 92  1  0  0  0
 77 84  1  0  0  0
 78 80  1  0  0  0
 78 84  1  0  0  0
 78156  1  0  0  0
 78157  1  0  0  0
 79 81  1  0  0  0
 79 84  1  0  0  0
 79158  1  0  0  0
 79159  1  0  0  0
 80 85  1  0  0  0
 80160  1  0  0  0
 80161  1  0  0  0
 81 85  1  0  0  0
 81162  1  0  0  0
 81163  1  0  0  0
 82 83  1  0  0  0
 82 89  1  0  0  0
 82164  1  0  0  0
 82165  1  0  0  0
 83 86  1  0  0  0
 83166  1  0  0  0
 84167  1  0  0  0
 85168  1  0  0  0
 86 88  1  0  0  0
 86 89  1  0  0  0
 86169  1  0  0  0
 87 91  1  0  0  0
 87170  1  0  0  0
 87171  1  0  0  0
 87172  1  0  0  0
 88 92  1  0  0  0
 88173  1  0  0  0
 88174  1  0  0  0
M  ISO  4   1 100  68 101  85 101  89 100
M  END
> <chiral flag>
0

> <version>
0

> <s_m_source_file>
/data/baiqing/PycharmProjects/Reinvent-master-3.2/result/LINK_invent/BTK/process_docking_weight1_custom_sum_contain_oxygen_bond_distance_aromatic_linkinvent_7_9_3/rearranged_h_0144.sdf

> <i_m_source_file_index>
82

> <r_mmod_Potential_Energy-OPLS-2005>
284.125305175781

> <r_mmod_Stretch_Energy-OPLS-2005>
105.670104980469

> <r_mmod_Bend_Energy-OPLS-2005>
244.56901550293

> <r_mmod_Torsional_Energy-OPLS-2005>
329.902008056641

> <r_mmod_Improper_Torsional_Energy-OPLS-2005>
6.21627140045166

> <r_mmod_Van_der_Waal_Energy-OPLS-2005>
137.776702880859

> <r_mmod_Electrostatic_Energy-OPLS-2005>
-391.159759521484

> <r_mmod_Solvation_Energy-OPLS-2005>
-206.7666015625

> <b_mmod_Minimization_Converged-OPLS-2005>
0

> <r_mmod_RMS_Derivative-OPLS-2005>
1.83522427082062

$$$$
83
                    3D
 Structure written by MMmdl.
160168  0  0  1  0            999 V2000
  -30.6510  -14.6559   20.4720 C   0  0  0  0  0  0
  -30.4246  -12.3983   19.4647 C   0  0  0  0  0  0
  -29.5035  -12.4977   18.2303 C   0  0  0  0  0  0
  -28.0274  -12.3387   18.6428 C   0  0  0  0  0  0
  -27.6458  -13.2276   19.8573 C   0  0  2  0  0  0
  -28.6912  -13.1297   20.9909 C   0  0  0  0  0  0
  -25.2519  -13.8203   20.5700 C   0  0  0  0  0  0
  -24.1801  -13.0450   20.9207 C   0  0  0  0  0  0
  -24.6387  -11.6926   20.8754 C   0  0  0  0  0  0
  -23.9068  -10.4301   21.0413 C   0  0  0  0  0  0
  -24.3620   -9.4213   21.9186 C   0  0  0  0  0  0
  -23.6295   -8.2248   22.0754 C   0  0  0  0  0  0
  -22.4276   -8.0287   21.3544 C   0  0  0  0  0  0
  -21.9913   -9.0261   20.4647 C   0  0  0  0  0  0
  -22.7243  -10.2140   20.3060 C   0  0  0  0  0  0
  -21.6856   -6.0744   22.5282 C   0  0  0  0  0  0
  -21.4016   -6.5645   23.8216 C   0  0  0  0  0  0
  -21.3657   -5.6793   24.9176 C   0  0  0  0  0  0
  -21.6044   -4.3059   24.7223 C   0  0  0  0  0  0
  -21.8817   -3.8150   23.4343 C   0  0  0  0  0  0
  -21.9188   -4.6970   22.3400 C   0  0  0  0  0  0
  -22.7822  -13.5231   21.1862 C   0  0  0  0  0  0
  -22.1660   -4.2159   21.0978 F   0  0  0  0  0  0
  -21.5625   -3.4539   25.7732 F   0  0  0  0  0  0
  -30.0016  -13.4506   20.4122 N   0  0  0  0  0  0
  -26.2952  -12.9402   20.3317 N   0  0  0  0  0  0
  -25.9319  -11.6548   20.5778 N   0  0  0  0  0  0
  -22.0464  -12.8222   22.0423 N   0  0  0  0  0  0
  -25.4215  -15.1925   20.4111 N   0  0  0  0  0  0
  -31.8319  -14.7555   20.1332 O   0  0  0  0  0  0
  -21.6638   -6.8885   21.4243 O   0  0  0  0  0  0
  -22.3510  -14.5536   20.6710 O   0  0  0  0  0  0
  -24.6258  -31.8587   23.2018 C   0  0  0  0  0  0
  -25.9107  -32.4770   23.8349 C   0  0  1  0  0  0
  -27.2230  -27.3208   20.1278 C   0  0  0  0  0  0
  -25.5921  -33.8572   24.2275 N   0  0  0  0  0  0
  -23.4203  -30.4808   21.5429 C   0  0  2  0  0  0
  -24.8702  -28.9333   20.1101 C   0  0  0  0  0  0
  -22.7473  -29.4615   22.4928 C   0  0  0  0  0  0
  -18.0288  -28.1385   22.8489 C   0  0  0  0  0  0
  -24.1488  -36.7292   23.2640 C   0  0  0  0  0  0
  -25.9601  -30.7909   21.3728 C   0  0  0  0  0  0
  -26.0372  -29.4172   20.7172 C   0  0  0  0  0  0
  -27.2208  -28.6218   20.7177 C   0  0  0  0  0  0
  -26.0440  -26.8872   19.4917 C   0  0  0  0  0  0
  -24.8748  -27.6733   19.4875 C   0  0  0  0  0  0
  -23.6367  -29.8129   20.1586 C   0  0  0  0  0  0
  -25.4114  -36.3077   24.0328 C   0  0  1  0  0  0
  -20.5886  -28.3691   23.1282 C   0  0  2  0  0  0
  -20.6776  -26.9414   22.5412 C   0  0  0  0  0  0
  -19.5752  -26.6386   21.5214 C   0  0  0  0  0  0
  -18.1932  -26.7928   22.1627 C   0  0  0  0  0  0
  -19.1539  -28.8854   23.2878 C   0  0  0  0  0  0
  -18.9463  -30.1457   23.8897 C   0  0  0  0  0  0
  -17.6464  -30.6587   24.0565 C   0  0  0  0  0  0
  -25.9050  -34.9446   23.5102 C   0  0  0  0  0  0
  -16.5354  -29.9088   23.6331 C   0  0  0  0  0  0
  -16.7275  -28.6504   23.0350 C   0  0  0  0  0  0
  -26.4497  -31.6576   25.0716 C   0  0  0  0  0  0
  -25.3742  -31.3710   26.1451 C   0  0  0  0  0  0
  -27.0339  -30.3000   24.6167 C   0  0  0  0  0  0
  -27.6051  -32.4318   25.7490 C   0  0  0  0  0  0
  -27.5578  -37.1801   24.8466 C   0  0  0  0  0  0
  -21.4184  -29.3040   22.3672 N   0  0  0  0  0  0
  -26.4292  -37.3774   23.9405 N   0  0  0  0  0  0
  -24.6871  -31.0602   22.0963 N   0  0  0  0  0  0
  -23.4191  -28.8167   23.3022 O   0  0  0  0  0  0
  -28.3110  -26.4388   20.1567 O   0  0  0  0  0  0
  -26.5620  -34.8913   22.4670 O   0  0  0  0  0  0
  -23.5421  -32.1386   23.7343 O   0  0  0  0  0  0
  -27.8176  -22.6960   20.9846 C   0  0  0  0  0  0
  -28.2471  -21.3413   20.8205 C   0  0  0  0  0  0
  -29.8936  -23.4898   20.0947 C   0  0  0  0  0  0
  -28.6362  -23.8208   20.6574 C   0  0  0  0  0  0
  -30.3359  -22.1347   19.9211 C   0  0  0  0  0  0
  -29.5309  -21.0201   20.3111 C   0  0  0  0  0  0
  -32.5552  -23.0456   18.9014 C   0  0  0  0  0  0
  -27.1277  -25.3531   22.1372 C   0  0  0  0  0  0
  -31.7193  -21.8339   19.3441 C   0  0  0  0  0  0
  -30.4030  -17.2058   20.4570 C   0  0  0  0  0  0
  -29.4222  -18.4659   20.5893 C   0  0  0  0  0  0
  -28.2923  -25.3036   21.1187 C   0  0  2  0  0  0
  -29.9098  -15.7920   20.6846 N   0  0  0  0  0  0
  -30.0698  -19.7179   20.1740 O   0  0  0  0  0  0
  -31.4684  -12.5017   19.1639 H   0  0  0  0  0  0
  -30.3452  -11.4149   19.9304 H   0  0  0  0  0  0
  -29.7712  -11.7389   17.4938 H   0  0  0  0  0  0
  -29.6460  -13.4632   17.7424 H   0  0  0  0  0  0
  -27.8659  -11.2884   18.8889 H   0  0  0  0  0  0
  -27.3738  -12.5556   17.7972 H   0  0  0  0  0  0
  -27.6520  -14.2553   19.4931 H   0  0  0  0  0  0
  -28.7033  -12.1278   21.4232 H   0  0  0  0  0  0
  -28.4447  -13.8121   21.8060 H   0  0  0  0  0  0
  -25.2763   -9.5691   22.4764 H   0  0  0  0  0  0
  -24.0005   -7.4639   22.7473 H   0  0  0  0  0  0
  -21.0846   -8.8782   19.8952 H   0  0  0  0  0  0
  -22.3702  -10.9681   19.6170 H   0  0  0  0  0  0
  -21.2016   -7.6155   23.9725 H   0  0  0  0  0  0
  -21.1481   -6.0523   25.9081 H   0  0  0  0  0  0
  -22.0596   -2.7615   23.2837 H   0  0  0  0  0  0
  -22.4074  -11.9881   22.4810 H   0  0  0  0  0  0
  -21.1088  -13.1257   22.2635 H   0  0  0  0  0  0
  -24.6527  -15.8458   20.5189 H   0  0  0  0  0  0
  -26.2668  -15.6315   20.0693 H   0  0  0  0  0  0
  -26.7175  -32.5442   23.1096 H   0  0  0  0  0  0
  -25.0065  -33.9719   25.0418 H   0  0  0  0  0  0
  -22.7142  -31.3011   21.3978 H   0  0  0  0  0  0
  -23.3747  -35.9629   23.3305 H   0  0  0  0  0  0
  -24.3580  -36.8913   22.2054 H   0  0  0  0  0  0
  -23.7249  -37.6497   23.6664 H   0  0  0  0  0  0
  -26.0910  -31.5542   20.6044 H   0  0  0  0  0  0
  -26.8404  -30.8406   22.0023 H   0  0  0  0  0  0
  -28.1158  -28.9839   21.2038 H   0  0  0  0  0  0
  -26.0219  -25.9125   19.0244 H   0  0  0  0  0  0
  -23.9810  -27.2973   19.0087 H   0  0  0  0  0  0
  -23.7538  -30.5885   19.4004 H   0  0  0  0  0  0
  -22.7574  -29.2406   19.8572 H   0  0  0  0  0  0
  -25.1294  -36.1928   25.0823 H   0  0  0  0  0  0
  -20.9983  -28.3271   24.1400 H   0  0  0  0  0  0
  -20.5678  -26.2303   23.3612 H   0  0  0  0  0  0
  -21.6644  -26.7444   22.1204 H   0  0  0  0  0  0
  -19.6914  -25.6296   21.1241 H   0  0  0  0  0  0
  -19.6687  -27.3197   20.6743 H   0  0  0  0  0  0
  -17.4200  -26.6674   21.4030 H   0  0  0  0  0  0
  -18.0336  -26.0070   22.9024 H   0  0  0  0  0  0
  -19.7937  -30.7273   24.2265 H   0  0  0  0  0  0
  -17.5017  -31.6267   24.5166 H   0  0  0  0  0  0
  -15.5352  -30.2989   23.7653 H   0  0  0  0  0  0
  -15.8674  -28.0822   22.7065 H   0  0  0  0  0  0
  -24.5911  -30.7064   25.7785 H   0  0  0  0  0  0
  -24.8943  -32.2874   26.4896 H   0  0  0  0  0  0
  -25.8081  -30.8876   27.0213 H   0  0  0  0  0  0
  -26.2912  -29.6751   24.1197 H   0  0  0  0  0  0
  -27.4042  -29.7255   25.4666 H   0  0  0  0  0  0
  -27.8777  -30.4283   23.9385 H   0  0  0  0  0  0
  -27.2649  -33.3610   26.2075 H   0  0  0  0  0  0
  -28.3859  -32.6896   25.0323 H   0  0  0  0  0  0
  -28.0724  -31.8445   26.5404 H   0  0  0  0  0  0
  -28.2596  -38.0096   24.7503 H   0  0  0  0  0  0
  -28.1070  -36.2625   24.6300 H   0  0  0  0  0  0
  -27.2294  -37.1463   25.8869 H   0  0  0  0  0  0
  -20.9367  -29.8753   21.6871 H   0  0  0  0  0  0
  -26.0169  -38.2849   24.1403 H   0  0  0  0  0  0
  -26.8460  -22.8524   21.4291 H   0  0  0  0  0  0
  -27.5821  -20.5457   21.1243 H   0  0  0  0  0  0
  -30.5462  -24.3137   19.8481 H   0  0  0  0  0  0
  -33.5152  -22.7196   18.5003 H   0  0  0  0  0  0
  -32.7663  -23.7130   19.7373 H   0  0  0  0  0  0
  -32.0527  -23.6166   18.1194 H   0  0  0  0  0  0
  -27.0275  -26.3381   22.5930 H   0  0  0  0  0  0
  -27.2942  -24.6547   22.9579 H   0  0  0  0  0  0
  -26.1737  -25.1000   21.6752 H   0  0  0  0  0  0
  -31.5923  -21.1652   18.4917 H   0  0  0  0  0  0
  -32.2810  -21.2719   20.0911 H   0  0  0  0  0  0
  -31.2475  -17.3692   21.1282 H   0  0  0  0  0  0
  -30.8263  -17.2329   19.4513 H   0  0  0  0  0  0
  -29.0799  -18.5598   21.6202 H   0  0  0  0  0  0
  -28.5384  -18.3130   19.9698 H   0  0  0  0  0  0
  -29.1639  -25.5439   21.7299 H   0  0  0  0  0  0
  -28.9356  -15.6667   20.9160 H   0  0  0  0  0  0
  1 25  1  0  0  0
  1 30  2  0  0  0
  1 83  1  0  0  0
  2  3  1  0  0  0
  2 25  1  0  0  0
  2 85  1  0  0  0
  2 86  1  0  0  0
  3  4  1  0  0  0
  3 87  1  0  0  0
  3 88  1  0  0  0
  4  5  1  0  0  0
  4 89  1  0  0  0
  4 90  1  0  0  0
  5  6  1  0  0  0
  5 26  1  0  0  0
  5 91  1  0  0  0
  6 25  1  0  0  0
  6 92  1  0  0  0
  6 93  1  0  0  0
  7  8  2  0  0  0
  7 26  1  0  0  0
  7 29  1  0  0  0
  8  9  1  0  0  0
  8 22  1  0  0  0
  9 10  1  0  0  0
  9 27  2  0  0  0
 10 11  2  0  0  0
 10 15  1  0  0  0
 11 12  1  0  0  0
 11 94  1  0  0  0
 12 13  2  0  0  0
 12 95  1  0  0  0
 13 14  1  0  0  0
 13 31  1  0  0  0
 14 15  2  0  0  0
 14 96  1  0  0  0
 15 97  1  0  0  0
 16 17  2  0  0  0
 16 21  1  0  0  0
 16 31  1  0  0  0
 17 18  1  0  0  0
 17 98  1  0  0  0
 18 19  2  0  0  0
 18 99  1  0  0  0
 19 20  1  0  0  0
 19 24  1  0  0  0
 20 21  2  0  0  0
 20100  1  0  0  0
 21 23  1  0  0  0
 22 28  1  0  0  0
 22 32  2  0  0  0
 26 27  1  0  0  0
 28101  1  0  0  0
 28102  1  0  0  0
 29103  1  0  0  0
 29104  1  0  0  0
 33 34  1  0  0  0
 33 66  1  0  0  0
 33 70  2  0  0  0
 34 36  1  0  0  0
 34 59  1  0  0  0
 34105  1  0  0  0
 35 44  2  0  0  0
 35 45  1  0  0  0
 35 68  1  0  0  0
 36 56  1  0  0  0
 36106  1  0  0  0
 37 39  1  0  0  0
 37 47  1  0  0  0
 37 66  1  0  0  0
 37107  1  0  0  0
 38 43  2  0  0  0
 38 46  1  0  0  0
 38 47  1  0  0  0
 39 64  1  0  0  0
 39 67  2  0  0  0
 40 52  1  0  0  0
 40 53  2  0  0  0
 40 58  1  0  0  0
 41108  1  0  0  0
 41109  1  0  0  0
 41110  1  0  0  0
 41 48  1  0  0  0
 42 43  1  0  0  0
 42 66  1  0  0  0
 42111  1  0  0  0
 42112  1  0  0  0
 43 44  1  0  0  0
 44113  1  0  0  0
 45 46  2  0  0  0
 45114  1  0  0  0
 46115  1  0  0  0
 47116  1  0  0  0
 47117  1  0  0  0
 48 56  1  0  0  0
 48 65  1  0  0  0
 48118  1  0  0  0
 49 50  1  0  0  0
 49 53  1  0  0  0
 49 64  1  0  0  0
 49119  1  0  0  0
 50 51  1  0  0  0
 50120  1  0  0  0
 50121  1  0  0  0
 51 52  1  0  0  0
 51122  1  0  0  0
 51123  1  0  0  0
 52124  1  0  0  0
 52125  1  0  0  0
 53 54  1  0  0  0
 54 55  2  0  0  0
 54126  1  0  0  0
 55 57  1  0  0  0
 55127  1  0  0  0
 56 69  2  0  0  0
 57 58  2  0  0  0
 57128  1  0  0  0
 58129  1  0  0  0
 59 60  1  0  0  0
 59 61  1  0  0  0
 59 62  1  0  0  0
 60130  1  0  0  0
 60131  1  0  0  0
 60132  1  0  0  0
 61133  1  0  0  0
 61134  1  0  0  0
 61135  1  0  0  0
 62136  1  0  0  0
 62137  1  0  0  0
 62138  1  0  0  0
 63 65  1  0  0  0
 63139  1  0  0  0
 63140  1  0  0  0
 63141  1  0  0  0
 64142  1  0  0  0
 65143  1  0  0  0
 68 82  1  0  0  0
 71 72  2  0  0  0
 71 74  1  0  0  0
 71144  1  0  0  0
 72 76  1  0  0  0
 72145  1  0  0  0
 73 74  2  0  0  0
 73 75  1  0  0  0
 73146  1  0  0  0
 74 82  1  0  0  0
 75 76  2  0  0  0
 75 79  1  0  0  0
 76 84  1  0  0  0
 77 79  1  0  0  0
 77147  1  0  0  0
 77148  1  0  0  0
 77149  1  0  0  0
 78150  1  0  0  0
 78151  1  0  0  0
 78152  1  0  0  0
 78 82  1  0  0  0
 79153  1  0  0  0
 79154  1  0  0  0
 80 81  1  0  0  0
 80 83  1  0  0  0
 80155  1  0  0  0
 80156  1  0  0  0
 81 84  1  0  0  0
 81157  1  0  0  0
 81158  1  0  0  0
 82159  1  0  0  0
 83160  1  0  0  0
M  ISO  4   1 100  68 101  82 101  83 100
M  END
> <chiral flag>
0

> <version>
0

> <s_m_source_file>
/data/baiqing/PycharmProjects/Reinvent-master-3.2/result/LINK_invent/BTK/process_docking_weight1_custom_sum_contain_oxygen_bond_distance_aromatic_linkinvent_7_9_3/rearranged_h_0144.sdf

> <i_m_source_file_index>
83

> <r_mmod_Potential_Energy-OPLS-2005>
65.7643203735352

> <r_mmod_Stretch_Energy-OPLS-2005>
87.9189300537109

> <r_mmod_Bend_Energy-OPLS-2005>
161.803817749023

> <r_mmod_Torsional_Energy-OPLS-2005>
242.964630126953

> <r_mmod_Improper_Torsional_Energy-OPLS-2005>
6.74876308441162

> <r_mmod_Van_der_Waal_Energy-OPLS-2005>
145.865921020508

> <r_mmod_Electrostatic_Energy-OPLS-2005>
-428.030731201172

> <r_mmod_Solvation_Energy-OPLS-2005>
-206.735626220703

> <b_mmod_Minimization_Converged-OPLS-2005>
0

> <r_mmod_RMS_Derivative-OPLS-2005>
0.90215939283371

$$$$
84
                    3D
 Structure written by MMmdl.
178187  0  0  1  0            999 V2000
  -30.6584  -14.5675   20.5265 C   0  0  0  0  0  0
  -30.4302  -12.3560   19.4362 C   0  0  0  0  0  0
  -29.4995  -12.5040   18.2136 C   0  0  0  0  0  0
  -28.0225  -12.3507   18.6280 C   0  0  0  0  0  0
  -27.6552  -13.2122   19.8660 C   0  0  2  0  0  0
  -28.6997  -13.0425   20.9919 C   0  0  0  0  0  0
  -25.2569  -13.8164   20.5681 C   0  0  0  0  0  0
  -24.1829  -13.0436   20.9185 C   0  0  0  0  0  0
  -24.6393  -11.6905   20.8738 C   0  0  0  0  0  0
  -23.9062  -10.4291   21.0405 C   0  0  0  0  0  0
  -24.3613   -9.4206   21.9184 C   0  0  0  0  0  0
  -23.6291   -8.2242   22.0754 C   0  0  0  0  0  0
  -22.4273   -8.0281   21.3546 C   0  0  0  0  0  0
  -21.9911   -9.0252   20.4644 C   0  0  0  0  0  0
  -22.7237  -10.2131   20.3053 C   0  0  0  0  0  0
  -21.6852   -6.0737   22.5278 C   0  0  0  0  0  0
  -21.4013   -6.5638   23.8214 C   0  0  0  0  0  0
  -21.3659   -5.6790   24.9175 C   0  0  0  0  0  0
  -21.6044   -4.3053   24.7224 C   0  0  0  0  0  0
  -21.8820   -3.8147   23.4345 C   0  0  0  0  0  0
  -21.9193   -4.6963   22.3402 C   0  0  0  0  0  0
  -22.7853  -13.5231   21.1850 C   0  0  0  0  0  0
  -22.1662   -4.2149   21.0979 F   0  0  0  0  0  0
  -21.5629   -3.4539   25.7739 F   0  0  0  0  0  0
  -30.0193  -13.3653   20.4279 N   0  0  0  0  0  0
  -26.2996  -12.9341   20.3330 N   0  0  0  0  0  0
  -25.9320  -11.6499   20.5759 N   0  0  0  0  0  0
  -22.0492  -12.8220   22.0398 N   0  0  0  0  0  0
  -25.4285  -15.1886   20.4092 N   0  0  0  0  0  0
  -31.8175  -14.7283   20.1353 O   0  0  0  0  0  0
  -21.6638   -6.8878   21.4241 O   0  0  0  0  0  0
  -22.3541  -14.5545   20.6707 O   0  0  0  0  0  0
  -24.6209  -31.8633   23.2055 C   0  0  0  0  0  0
  -25.9073  -32.4799   23.8372 C   0  0  1  0  0  0
  -27.2279  -27.3721   20.1117 C   0  0  0  0  0  0
  -25.5907  -33.8599   24.2300 N   0  0  0  0  0  0
  -23.4129  -30.4861   21.5469 C   0  0  2  0  0  0
  -24.8610  -28.9472   20.1113 C   0  0  0  0  0  0
  -22.7450  -29.4631   22.4956 C   0  0  0  0  0  0
  -18.0282  -28.1380   22.8484 C   0  0  0  0  0  0
  -24.1487  -36.7302   23.2639 C   0  0  0  0  0  0
  -25.9486  -30.8103   21.3692 C   0  0  0  0  0  0
  -26.0262  -29.4413   20.7130 C   0  0  0  0  0  0
  -27.2165  -28.6644   20.7040 C   0  0  0  0  0  0
  -26.0485  -26.9170   19.4850 C   0  0  0  0  0  0
  -24.8709  -27.6877   19.4895 C   0  0  0  0  0  0
  -23.6254  -29.8203   20.1616 C   0  0  0  0  0  0
  -25.4112  -36.3098   24.0333 C   0  0  1  0  0  0
  -20.5876  -28.3675   23.1297 C   0  0  2  0  0  0
  -20.6772  -26.9405   22.5413 C   0  0  0  0  0  0
  -19.5753  -26.6383   21.5208 C   0  0  0  0  0  0
  -18.1929  -26.7925   22.1616 C   0  0  0  0  0  0
  -19.1532  -28.8845   23.2885 C   0  0  0  0  0  0
  -18.9458  -30.1449   23.8900 C   0  0  0  0  0  0
  -17.6460  -30.6585   24.0564 C   0  0  0  0  0  0
  -25.9044  -34.9462   23.5116 C   0  0  0  0  0  0
  -16.5350  -29.9087   23.6327 C   0  0  0  0  0  0
  -16.7271  -28.6505   23.0345 C   0  0  0  0  0  0
  -26.4478  -31.6597   25.0722 C   0  0  0  0  0  0
  -25.3725  -31.3710   26.1455 C   0  0  0  0  0  0
  -27.0323  -30.3036   24.6133 C   0  0  0  0  0  0
  -27.6039  -32.4331   25.7492 C   0  0  0  0  0  0
  -27.5582  -37.1807   24.8463 C   0  0  0  0  0  0
  -21.4169  -29.3035   22.3698 N   0  0  0  0  0  0
  -26.4293  -37.3787   23.9407 N   0  0  0  0  0  0
  -24.6792  -31.0685   22.0982 N   0  0  0  0  0  0
  -23.4192  -28.8173   23.3021 O   0  0  0  0  0  0
  -28.3469  -26.5473   20.1305 O   0  0  0  0  0  0
  -26.5611  -34.8920   22.4682 O   0  0  0  0  0  0
  -23.5383  -32.1408   23.7411 O   0  0  0  0  0  0
  -28.4999  -22.2746   16.5666 C   0  0  0  0  0  0
  -29.0422  -24.1097   18.0312 C   0  0  0  0  0  0
  -28.8540  -23.6164   16.7362 C   0  0  0  0  0  0
  -28.3549  -21.4161   17.6747 C   0  0  0  0  0  0
  -28.9069  -23.2883   19.1719 C   0  0  0  0  0  0
  -28.5974  -21.8740   19.0143 C   0  0  0  0  0  0
  -30.5882  -19.2992   19.6711 C   0  0  0  0  0  0
  -29.7519  -19.3611   22.0353 C   0  0  0  0  0  0
  -30.1683  -17.7953   19.5856 C   0  0  0  0  0  0
  -29.3276  -17.8695   21.9081 C   0  0  0  0  0  0
  -29.8070  -20.1743   20.7015 C   0  0  2  0  0  0
  -30.2473  -17.0706   20.9520 C   0  0  1  0  0  0
  -29.0201  -24.5314   15.5393 C   0  0  0  0  0  0
  -27.8951  -20.0006   17.3409 C   0  0  0  0  0  0
  -26.1246  -21.8154   20.7374 C   0  0  0  0  0  0
  -29.1380  -24.0638   20.4843 C   0  0  0  0  0  0
  -27.4365  -21.2218   21.2766 C   0  0  0  0  0  0
  -28.1464  -25.2534   20.7845 C   0  0  0  0  0  0
  -28.4579  -20.8188   20.1793 C   0  0  1  0  0  0
  -29.8884  -15.6234   20.9019 N   0  0  0  0  0  0
  -31.4724  -12.4711   19.1331 H   0  0  0  0  0  0
  -30.3521  -11.3548   19.8624 H   0  0  0  0  0  0
  -29.7525  -11.7630   17.4541 H   0  0  0  0  0  0
  -29.6510  -13.4803   17.7504 H   0  0  0  0  0  0
  -27.8504  -11.2965   18.8480 H   0  0  0  0  0  0
  -27.3683  -12.5963   17.7904 H   0  0  0  0  0  0
  -27.6827  -14.2517   19.5388 H   0  0  0  0  0  0
  -28.6965  -12.0176   21.3655 H   0  0  0  0  0  0
  -28.4570  -13.6718   21.8496 H   0  0  0  0  0  0
  -25.2760   -9.5684   22.4756 H   0  0  0  0  0  0
  -24.0003   -7.4634   22.7476 H   0  0  0  0  0  0
  -21.0844   -8.8769   19.8946 H   0  0  0  0  0  0
  -22.3699  -10.9669   19.6159 H   0  0  0  0  0  0
  -21.2004   -7.6146   23.9717 H   0  0  0  0  0  0
  -21.1477   -6.0520   25.9079 H   0  0  0  0  0  0
  -22.0599   -2.7610   23.2847 H   0  0  0  0  0  0
  -22.4107  -11.9873   22.4770 H   0  0  0  0  0  0
  -21.1111  -13.1243   22.2605 H   0  0  0  0  0  0
  -24.6612  -15.8429   20.5186 H   0  0  0  0  0  0
  -26.2777  -15.6279   20.0773 H   0  0  0  0  0  0
  -26.7143  -32.5494   23.1130 H   0  0  0  0  0  0
  -25.0057  -33.9757   25.0445 H   0  0  0  0  0  0
  -22.7039  -31.3042   21.4054 H   0  0  0  0  0  0
  -23.3749  -35.9635   23.3311 H   0  0  0  0  0  0
  -24.3580  -36.8914   22.2053 H   0  0  0  0  0  0
  -23.7240  -37.6507   23.6655 H   0  0  0  0  0  0
  -26.0713  -31.5756   20.6014 H   0  0  0  0  0  0
  -26.8321  -30.8610   21.9937 H   0  0  0  0  0  0
  -28.1137  -29.0380   21.1776 H   0  0  0  0  0  0
  -26.0338  -25.9524   18.9969 H   0  0  0  0  0  0
  -23.9793  -27.3047   19.0127 H   0  0  0  0  0  0
  -23.7391  -30.5963   19.4041 H   0  0  0  0  0  0
  -22.7477  -29.2449   19.8625 H   0  0  0  0  0  0
  -25.1290  -36.1959   25.0825 H   0  0  0  0  0  0
  -20.9967  -28.3248   24.1417 H   0  0  0  0  0  0
  -20.5680  -26.2279   23.3603 H   0  0  0  0  0  0
  -21.6642  -26.7445   22.1206 H   0  0  0  0  0  0
  -19.6919  -25.6297   21.1233 H   0  0  0  0  0  0
  -19.6697  -27.3194   20.6738 H   0  0  0  0  0  0
  -17.4202  -26.6673   21.4015 H   0  0  0  0  0  0
  -18.0329  -26.0065   22.9009 H   0  0  0  0  0  0
  -19.7936  -30.7259   24.2273 H   0  0  0  0  0  0
  -17.5018  -31.6265   24.5166 H   0  0  0  0  0  0
  -15.5354  -30.2991   23.7651 H   0  0  0  0  0  0
  -15.8669  -28.0832   22.7049 H   0  0  0  0  0  0
  -24.5893  -30.7070   25.7780 H   0  0  0  0  0  0
  -24.8920  -32.2868   26.4909 H   0  0  0  0  0  0
  -25.8057  -30.8866   27.0214 H   0  0  0  0  0  0
  -26.2886  -29.6791   24.1169 H   0  0  0  0  0  0
  -27.4067  -29.7281   25.4609 H   0  0  0  0  0  0
  -27.8730  -30.4353   23.9315 H   0  0  0  0  0  0
  -27.2649  -33.3631   26.2068 H   0  0  0  0  0  0
  -28.3846  -32.6893   25.0318 H   0  0  0  0  0  0
  -28.0706  -31.8457   26.5410 H   0  0  0  0  0  0
  -28.2591  -38.0112   24.7523 H   0  0  0  0  0  0
  -28.1085  -36.2642   24.6276 H   0  0  0  0  0  0
  -27.2301  -37.1451   25.8866 H   0  0  0  0  0  0
  -20.9338  -29.8763   21.6919 H   0  0  0  0  0  0
  -26.0178  -38.2863   24.1412 H   0  0  0  0  0  0
  -28.3296  -21.9013   15.5656 H   0  0  0  0  0  0
  -29.2977  -25.1539   18.1519 H   0  0  0  0  0  0
  -30.5607  -19.7613   18.6851 H   0  0  0  0  0  0
  -31.6420  -19.3215   19.9526 H   0  0  0  0  0  0
  -30.7552  -19.3692   22.4643 H   0  0  0  0  0  0
  -29.1427  -19.8646   22.7843 H   0  0  0  0  0  0
  -30.8108  -17.2886   18.8645 H   0  0  0  0  0  0
  -29.1537  -17.7149   19.1957 H   0  0  0  0  0  0
  -28.2924  -17.8171   21.5671 H   0  0  0  0  0  0
  -29.3451  -17.4117   22.8981 H   0  0  0  0  0  0
  -30.4377  -21.0386   20.9172 H   0  0  0  0  0  0
  -31.2718  -17.1364   21.3240 H   0  0  0  0  0  0
  -28.6120  -24.0826   14.6328 H   0  0  0  0  0  0
  -30.0765  -24.7409   15.3680 H   0  0  0  0  0  0
  -28.5062  -25.4789   15.7046 H   0  0  0  0  0  0
  -27.7384  -19.8669   16.2701 H   0  0  0  0  0  0
  -26.9437  -19.7758   17.8238 H   0  0  0  0  0  0
  -28.6292  -19.2577   17.6383 H   0  0  0  0  0  0
  -25.4272  -22.0150   21.5514 H   0  0  0  0  0  0
  -25.6381  -21.1253   20.0472 H   0  0  0  0  0  0
  -26.2836  -22.7534   20.2075 H   0  0  0  0  0  0
  -30.1522  -24.4641   20.4608 H   0  0  0  0  0  0
  -29.1535  -23.3772   21.3223 H   0  0  0  0  0  0
  -27.1712  -20.3346   21.8520 H   0  0  0  0  0  0
  -27.8682  -21.9030   22.0041 H   0  0  0  0  0  0
  -28.2300  -25.4697   21.8504 H   0  0  0  0  0  0
  -27.1308  -24.8810   20.6605 H   0  0  0  0  0  0
  -27.9466  -19.9526   19.7734 H   0  0  0  0  0  0
  -28.9439  -15.3888   21.1672 H   0  0  0  0  0  0
  1 25  1  0  0  0
  1 30  2  0  0  0
  1 90  1  0  0  0
  2  3  1  0  0  0
  2 25  1  0  0  0
  2 91  1  0  0  0
  2 92  1  0  0  0
  3  4  1  0  0  0
  3 93  1  0  0  0
  3 94  1  0  0  0
  4  5  1  0  0  0
  4 95  1  0  0  0
  4 96  1  0  0  0
  5  6  1  0  0  0
  5 26  1  0  0  0
  5 97  1  0  0  0
  6 25  1  0  0  0
  6 98  1  0  0  0
  6 99  1  0  0  0
  7  8  2  0  0  0
  7 26  1  0  0  0
  7 29  1  0  0  0
  8  9  1  0  0  0
  8 22  1  0  0  0
  9 10  1  0  0  0
  9 27  2  0  0  0
 10 11  2  0  0  0
 10 15  1  0  0  0
 11 12  1  0  0  0
 11100  1  0  0  0
 12 13  2  0  0  0
 12101  1  0  0  0
 13 14  1  0  0  0
 13 31  1  0  0  0
 14 15  2  0  0  0
 14102  1  0  0  0
 15103  1  0  0  0
 16 17  2  0  0  0
 16 21  1  0  0  0
 16 31  1  0  0  0
 17 18  1  0  0  0
 17104  1  0  0  0
 18 19  2  0  0  0
 18105  1  0  0  0
 19 20  1  0  0  0
 19 24  1  0  0  0
 20 21  2  0  0  0
 20106  1  0  0  0
 21 23  1  0  0  0
 22 28  1  0  0  0
 22 32  2  0  0  0
 26 27  1  0  0  0
 28107  1  0  0  0
 28108  1  0  0  0
 29109  1  0  0  0
 29110  1  0  0  0
 33 34  1  0  0  0
 33 66  1  0  0  0
 33 70  2  0  0  0
 34 36  1  0  0  0
 34 59  1  0  0  0
 34111  1  0  0  0
 35 44  2  0  0  0
 35 45  1  0  0  0
 35 68  1  0  0  0
 36 56  1  0  0  0
 36112  1  0  0  0
 37 39  1  0  0  0
 37 47  1  0  0  0
 37 66  1  0  0  0
 37113  1  0  0  0
 38 43  2  0  0  0
 38 46  1  0  0  0
 38 47  1  0  0  0
 39 64  1  0  0  0
 39 67  2  0  0  0
 40 52  1  0  0  0
 40 53  2  0  0  0
 40 58  1  0  0  0
 41114  1  0  0  0
 41115  1  0  0  0
 41116  1  0  0  0
 41 48  1  0  0  0
 42 43  1  0  0  0
 42 66  1  0  0  0
 42117  1  0  0  0
 42118  1  0  0  0
 43 44  1  0  0  0
 44119  1  0  0  0
 45 46  2  0  0  0
 45120  1  0  0  0
 46121  1  0  0  0
 47122  1  0  0  0
 47123  1  0  0  0
 48 56  1  0  0  0
 48 65  1  0  0  0
 48124  1  0  0  0
 49 50  1  0  0  0
 49 53  1  0  0  0
 49 64  1  0  0  0
 49125  1  0  0  0
 50 51  1  0  0  0
 50126  1  0  0  0
 50127  1  0  0  0
 51 52  1  0  0  0
 51128  1  0  0  0
 51129  1  0  0  0
 52130  1  0  0  0
 52131  1  0  0  0
 53 54  1  0  0  0
 54 55  2  0  0  0
 54132  1  0  0  0
 55 57  1  0  0  0
 55133  1  0  0  0
 56 69  2  0  0  0
 57 58  2  0  0  0
 57134  1  0  0  0
 58135  1  0  0  0
 59 60  1  0  0  0
 59 61  1  0  0  0
 59 62  1  0  0  0
 60136  1  0  0  0
 60137  1  0  0  0
 60138  1  0  0  0
 61139  1  0  0  0
 61140  1  0  0  0
 61141  1  0  0  0
 62142  1  0  0  0
 62143  1  0  0  0
 62144  1  0  0  0
 63 65  1  0  0  0
 63145  1  0  0  0
 63146  1  0  0  0
 63147  1  0  0  0
 64148  1  0  0  0
 65149  1  0  0  0
 68 88  1  0  0  0
 71 73  2  0  0  0
 71 74  1  0  0  0
 71150  1  0  0  0
 72 73  1  0  0  0
 72 75  2  0  0  0
 72151  1  0  0  0
 73 83  1  0  0  0
 74 76  2  0  0  0
 74 84  1  0  0  0
 75 76  1  0  0  0
 75 86  1  0  0  0
 76 89  1  0  0  0
 77 79  1  0  0  0
 77152  1  0  0  0
 77153  1  0  0  0
 77 81  1  0  0  0
 78 80  1  0  0  0
 78 81  1  0  0  0
 78154  1  0  0  0
 78155  1  0  0  0
 79 82  1  0  0  0
 79156  1  0  0  0
 79157  1  0  0  0
 80 82  1  0  0  0
 80158  1  0  0  0
 80159  1  0  0  0
 81 89  1  0  0  0
 81160  1  0  0  0
 82 90  1  0  0  0
 82161  1  0  0  0
 83162  1  0  0  0
 83163  1  0  0  0
 83164  1  0  0  0
 84165  1  0  0  0
 84166  1  0  0  0
 84167  1  0  0  0
 85 87  1  0  0  0
 85168  1  0  0  0
 85169  1  0  0  0
 85170  1  0  0  0
 86 88  1  0  0  0
 86171  1  0  0  0
 86172  1  0  0  0
 87173  1  0  0  0
 87174  1  0  0  0
 87 89  1  0  0  0
 88175  1  0  0  0
 88176  1  0  0  0
 89177  1  0  0  0
 90178  1  0  0  0
M  ISO  4   1 100  68 101  88 101  90 100
M  END
> <chiral flag>
0

> <version>
0

> <s_m_source_file>
/data/baiqing/PycharmProjects/Reinvent-master-3.2/result/LINK_invent/BTK/process_docking_weight1_custom_sum_contain_oxygen_bond_distance_aromatic_linkinvent_7_9_3/rearranged_h_0144.sdf

> <i_m_source_file_index>
84

> <r_mmod_Potential_Energy-OPLS-2005>
77.3219909667969

> <r_mmod_Stretch_Energy-OPLS-2005>
69.7325592041016

> <r_mmod_Bend_Energy-OPLS-2005>
152.398056030273

> <r_mmod_Torsional_Energy-OPLS-2005>
253.921966552734

> <r_mmod_Improper_Torsional_Energy-OPLS-2005>
4.10835695266724

> <r_mmod_Van_der_Waal_Energy-OPLS-2005>
145.63410949707

> <r_mmod_Electrostatic_Energy-OPLS-2005>
-383.642150878906

> <r_mmod_Solvation_Energy-OPLS-2005>
-194.280731201172

> <b_mmod_Minimization_Converged-OPLS-2005>
0

> <r_mmod_RMS_Derivative-OPLS-2005>
0.571797132492065

$$$$
85
                    3D
 Structure written by MMmdl.
165174  0  0  1  0            999 V2000
  -30.6883  -14.4591   20.5453 C   0  0  0  0  0  0
  -30.4171  -12.2823   19.4255 C   0  0  0  0  0  0
  -29.4989  -12.4934   18.2030 C   0  0  0  0  0  0
  -28.0169  -12.3690   18.6100 C   0  0  0  0  0  0
  -27.6612  -13.1986   19.8738 C   0  0  2  0  0  0
  -28.7004  -12.9755   20.9974 C   0  0  0  0  0  0
  -25.2611  -13.8163   20.5633 C   0  0  0  0  0  0
  -24.1849  -13.0485   20.9183 C   0  0  0  0  0  0
  -24.6318  -11.6908   20.8720 C   0  0  0  0  0  0
  -23.8978  -10.4315   21.0406 C   0  0  0  0  0  0
  -24.3564   -9.4245   21.9163 C   0  0  0  0  0  0
  -23.6267   -8.2287   22.0762 C   0  0  0  0  0  0
  -22.4281   -8.0287   21.3529 C   0  0  0  0  0  0
  -21.9879   -9.0263   20.4660 C   0  0  0  0  0  0
  -22.7181  -10.2152   20.3034 C   0  0  0  0  0  0
  -21.6867   -6.0720   22.5242 C   0  0  0  0  0  0
  -21.4016   -6.5620   23.8180 C   0  0  0  0  0  0
  -21.3636   -5.6791   24.9146 C   0  0  0  0  0  0
  -21.6029   -4.3044   24.7225 C   0  0  0  0  0  0
  -21.8802   -3.8126   23.4341 C   0  0  0  0  0  0
  -21.9201   -4.6936   22.3400 C   0  0  0  0  0  0
  -22.7890  -13.5353   21.1878 C   0  0  0  0  0  0
  -22.1673   -4.2085   21.0992 F   0  0  0  0  0  0
  -21.5610   -3.4547   25.7747 F   0  0  0  0  0  0
  -30.0370  -13.2714   20.4469 N   0  0  0  0  0  0
  -26.2990  -12.9265   20.3314 N   0  0  0  0  0  0
  -25.9228  -11.6433   20.5742 N   0  0  0  0  0  0
  -22.0468  -12.8385   22.0418 N   0  0  0  0  0  0
  -25.4393  -15.1904   20.3952 N   0  0  0  0  0  0
  -31.8154  -14.6586   20.0771 O   0  0  0  0  0  0
  -21.6673   -6.8856   21.4205 O   0  0  0  0  0  0
  -22.3621  -14.5635   20.6655 O   0  0  0  0  0  0
  -24.6126  -31.8704   23.2065 C   0  0  0  0  0  0
  -25.9032  -32.4835   23.8365 C   0  0  1  0  0  0
  -27.2533  -27.4313   20.1025 C   0  0  0  0  0  0
  -25.5901  -33.8630   24.2327 N   0  0  0  0  0  0
  -23.4019  -30.4878   21.5448 C   0  0  2  0  0  0
  -24.8527  -28.9464   20.1206 C   0  0  0  0  0  0
  -22.7401  -29.4676   22.4978 C   0  0  0  0  0  0
  -18.0281  -28.1381   22.8501 C   0  0  0  0  0  0
  -24.1501  -36.7308   23.2619 C   0  0  0  0  0  0
  -25.9265  -30.8365   21.3549 C   0  0  0  0  0  0
  -26.0095  -29.4653   20.7129 C   0  0  0  0  0  0
  -27.2051  -28.7131   20.7020 C   0  0  0  0  0  0
  -26.0648  -26.9146   19.5294 C   0  0  0  0  0  0
  -24.8748  -27.6691   19.5338 C   0  0  0  0  0  0
  -23.6141  -29.8126   20.1619 C   0  0  0  0  0  0
  -25.4118  -36.3103   24.0335 C   0  0  1  0  0  0
  -20.5869  -28.3679   23.1334 C   0  0  2  0  0  0
  -20.6793  -26.9428   22.5419 C   0  0  0  0  0  0
  -19.5772  -26.6397   21.5220 C   0  0  0  0  0  0
  -18.1937  -26.7932   22.1623 C   0  0  0  0  0  0
  -19.1518  -28.8852   23.2918 C   0  0  0  0  0  0
  -18.9455  -30.1457   23.8940 C   0  0  0  0  0  0
  -17.6461  -30.6599   24.0569 C   0  0  0  0  0  0
  -25.9049  -34.9472   23.5118 C   0  0  0  0  0  0
  -16.5366  -29.9100   23.6309 C   0  0  0  0  0  0
  -16.7268  -28.6502   23.0353 C   0  0  0  0  0  0
  -26.4476  -31.6580   25.0660 C   0  0  0  0  0  0
  -25.3747  -31.3678   26.1404 C   0  0  0  0  0  0
  -27.0281  -30.3024   24.5985 C   0  0  0  0  0  0
  -27.6069  -32.4258   25.7436 C   0  0  0  0  0  0
  -27.5597  -37.1797   24.8461 C   0  0  0  0  0  0
  -21.4127  -29.3037   22.3725 N   0  0  0  0  0  0
  -26.4303  -37.3784   23.9413 N   0  0  0  0  0  0
  -24.6647  -31.0793   22.0956 N   0  0  0  0  0  0
  -23.4169  -28.8263   23.3033 O   0  0  0  0  0  0
  -28.4672  -26.7636   20.1225 O   0  0  0  0  0  0
  -26.5602  -34.8922   22.4670 O   0  0  0  0  0  0
  -23.5328  -32.1476   23.7489 O   0  0  0  0  0  0
  -30.2349  -20.2810   21.3888 C   0  0  0  0  0  0
  -29.9319  -21.5732   20.9162 C   0  0  0  0  0  0
  -27.6805  -20.8420   20.2968 C   0  0  0  0  0  0
  -29.2786  -19.2464   21.3050 C   0  0  0  0  0  0
  -28.6665  -21.8597   20.3574 C   0  0  0  0  0  0
  -27.9900  -19.5360   20.7832 C   0  0  0  0  0  0
  -25.1706  -20.3511   19.3153 C   0  0  0  0  0  0
  -26.0864  -20.8861   18.2391 C   0  0  0  0  0  0
  -26.3484  -21.2374   19.6862 C   0  0  0  0  0  0
  -26.1737  -18.4774   21.8306 C   0  0  0  0  0  0
  -29.6313  -17.8301   21.7790 C   0  0  0  0  0  0
  -30.1014  -16.8948   20.6440 C   0  0  0  0  0  0
  -28.6488  -25.4794   19.5020 C   0  0  0  0  0  0
  -28.6217  -24.2924   20.5023 C   0  0  0  0  0  0
  -29.9335  -15.4751   20.9882 N   0  0  0  0  0  0
  -27.0714  -18.5201   20.7247 O   0  0  0  0  0  0
  -28.3844  -23.0810   19.7739 O   0  0  0  0  0  0
  -31.4687  -12.3561   19.1393 H   0  0  0  0  0  0
  -30.3044  -11.2697   19.8145 H   0  0  0  0  0  0
  -29.7304  -11.7655   17.4246 H   0  0  0  0  0  0
  -29.6840  -13.4746   17.7637 H   0  0  0  0  0  0
  -27.8054  -11.3137   18.7872 H   0  0  0  0  0  0
  -27.3788  -12.6715   17.7778 H   0  0  0  0  0  0
  -27.7054  -14.2494   19.5804 H   0  0  0  0  0  0
  -28.6745  -11.9410   21.3435 H   0  0  0  0  0  0
  -28.4718  -13.5778   21.8778 H   0  0  0  0  0  0
  -25.2706   -9.5764   22.4706 H   0  0  0  0  0  0
  -23.9931   -7.4694   22.7479 H   0  0  0  0  0  0
  -21.0798   -8.8776   19.8978 H   0  0  0  0  0  0
  -22.3620  -10.9653   19.6102 H   0  0  0  0  0  0
  -21.2002   -7.6123   23.9712 H   0  0  0  0  0  0
  -21.1487   -6.0483   25.9069 H   0  0  0  0  0  0
  -22.0622   -2.7587   23.2836 H   0  0  0  0  0  0
  -22.4058  -12.0021   22.4718 H   0  0  0  0  0  0
  -21.1029  -13.1268   22.2565 H   0  0  0  0  0  0
  -24.6654  -15.8419   20.4772 H   0  0  0  0  0  0
  -26.2819  -15.6290   20.0427 H   0  0  0  0  0  0
  -26.7102  -32.5568   23.1136 H   0  0  0  0  0  0
  -25.0068  -33.9802   25.0490 H   0  0  0  0  0  0
  -22.6897  -31.3024   21.3994 H   0  0  0  0  0  0
  -23.3771  -35.9623   23.3263 H   0  0  0  0  0  0
  -24.3607  -36.8944   22.2032 H   0  0  0  0  0  0
  -23.7264  -37.6509   23.6662 H   0  0  0  0  0  0
  -26.0231  -31.5971   20.5800 H   0  0  0  0  0  0
  -26.8195  -30.9066   21.9625 H   0  0  0  0  0  0
  -28.1007  -29.1162   21.1568 H   0  0  0  0  0  0
  -26.0187  -25.9315   19.0873 H   0  0  0  0  0  0
  -23.9772  -27.2584   19.0936 H   0  0  0  0  0  0
  -23.7214  -30.5818   19.3932 H   0  0  0  0  0  0
  -22.7396  -29.2268   19.8741 H   0  0  0  0  0  0
  -25.1296  -36.1938   25.0831 H   0  0  0  0  0  0
  -20.9975  -28.3240   24.1445 H   0  0  0  0  0  0
  -20.5711  -26.2291   23.3586 H   0  0  0  0  0  0
  -21.6657  -26.7492   22.1199 H   0  0  0  0  0  0
  -19.6939  -25.6303   21.1238 H   0  0  0  0  0  0
  -19.6706  -27.3212   20.6745 H   0  0  0  0  0  0
  -17.4217  -26.6689   21.4012 H   0  0  0  0  0  0
  -18.0347  -26.0073   22.9014 H   0  0  0  0  0  0
  -19.7936  -30.7249   24.2328 H   0  0  0  0  0  0
  -17.5025  -31.6273   24.5164 H   0  0  0  0  0  0
  -15.5369  -30.3027   23.7602 H   0  0  0  0  0  0
  -15.8668  -28.0829   22.7073 H   0  0  0  0  0  0
  -24.5956  -30.6984   25.7745 H   0  0  0  0  0  0
  -24.8880  -32.2816   26.4800 H   0  0  0  0  0  0
  -25.8080  -30.8891   27.0183 H   0  0  0  0  0  0
  -26.2787  -29.6800   24.1067 H   0  0  0  0  0  0
  -27.4120  -29.7226   25.4383 H   0  0  0  0  0  0
  -27.8595  -30.4353   23.9063 H   0  0  0  0  0  0
  -27.2732  -33.3560   26.2038 H   0  0  0  0  0  0
  -28.3885  -32.6794   25.0270 H   0  0  0  0  0  0
  -28.0734  -31.8343   26.5328 H   0  0  0  0  0  0
  -28.2587  -38.0120   24.7540 H   0  0  0  0  0  0
  -28.1125  -36.2647   24.6247 H   0  0  0  0  0  0
  -27.2315  -37.1403   25.8863 H   0  0  0  0  0  0
  -20.9295  -29.8718   21.6915 H   0  0  0  0  0  0
  -26.0186  -38.2849   24.1422 H   0  0  0  0  0  0
  -31.2178  -20.0934   21.8000 H   0  0  0  0  0  0
  -30.6984  -22.3306   20.9502 H   0  0  0  0  0  0
  -25.1970  -19.2749   19.4532 H   0  0  0  0  0  0
  -24.1745  -20.7922   19.3804 H   0  0  0  0  0  0
  -25.7067  -21.6689   17.5844 H   0  0  0  0  0  0
  -26.7315  -20.1429   17.7642 H   0  0  0  0  0  0
  -26.0878  -22.2479   19.9996 H   0  0  0  0  0  0
  -25.3890  -17.7509   21.6208 H   0  0  0  0  0  0
  -25.6933  -19.4412   22.0009 H   0  0  0  0  0  0
  -26.6626  -18.1737   22.7562 H   0  0  0  0  0  0
  -28.7661  -17.3952   22.2790 H   0  0  0  0  0  0
  -30.4014  -17.8730   22.5499 H   0  0  0  0  0  0
  -31.1252  -17.1314   20.3487 H   0  0  0  0  0  0
  -29.4958  -17.0636   19.7521 H   0  0  0  0  0  0
  -27.9569  -25.3054   18.6836 H   0  0  0  0  0  0
  -29.6283  -25.4981   19.0218 H   0  0  0  0  0  0
  -27.8059  -24.4166   21.2188 H   0  0  0  0  0  0
  -29.5487  -24.2814   21.0772 H   0  0  0  0  0  0
  -29.0295  -15.2076   21.3473 H   0  0  0  0  0  0
  1 25  1  0  0  0
  1 30  2  0  0  0
  1 85  1  0  0  0
  2  3  1  0  0  0
  2 25  1  0  0  0
  2 88  1  0  0  0
  2 89  1  0  0  0
  3  4  1  0  0  0
  3 90  1  0  0  0
  3 91  1  0  0  0
  4  5  1  0  0  0
  4 92  1  0  0  0
  4 93  1  0  0  0
  5  6  1  0  0  0
  5 26  1  0  0  0
  5 94  1  0  0  0
  6 25  1  0  0  0
  6 95  1  0  0  0
  6 96  1  0  0  0
  7  8  2  0  0  0
  7 26  1  0  0  0
  7 29  1  0  0  0
  8  9  1  0  0  0
  8 22  1  0  0  0
  9 10  1  0  0  0
  9 27  2  0  0  0
 10 11  2  0  0  0
 10 15  1  0  0  0
 11 12  1  0  0  0
 11 97  1  0  0  0
 12 13  2  0  0  0
 12 98  1  0  0  0
 13 14  1  0  0  0
 13 31  1  0  0  0
 14 15  2  0  0  0
 14 99  1  0  0  0
 15100  1  0  0  0
 16 17  2  0  0  0
 16 21  1  0  0  0
 16 31  1  0  0  0
 17 18  1  0  0  0
 17101  1  0  0  0
 18 19  2  0  0  0
 18102  1  0  0  0
 19 20  1  0  0  0
 19 24  1  0  0  0
 20 21  2  0  0  0
 20103  1  0  0  0
 21 23  1  0  0  0
 22 28  1  0  0  0
 22 32  2  0  0  0
 26 27  1  0  0  0
 28104  1  0  0  0
 28105  1  0  0  0
 29106  1  0  0  0
 29107  1  0  0  0
 33 34  1  0  0  0
 33 66  1  0  0  0
 33 70  2  0  0  0
 34 36  1  0  0  0
 34 59  1  0  0  0
 34108  1  0  0  0
 35 44  2  0  0  0
 35 45  1  0  0  0
 35 68  1  0  0  0
 36 56  1  0  0  0
 36109  1  0  0  0
 37 39  1  0  0  0
 37 47  1  0  0  0
 37 66  1  0  0  0
 37110  1  0  0  0
 38 43  2  0  0  0
 38 46  1  0  0  0
 38 47  1  0  0  0
 39 64  1  0  0  0
 39 67  2  0  0  0
 40 52  1  0  0  0
 40 53  2  0  0  0
 40 58  1  0  0  0
 41111  1  0  0  0
 41112  1  0  0  0
 41113  1  0  0  0
 41 48  1  0  0  0
 42 43  1  0  0  0
 42 66  1  0  0  0
 42114  1  0  0  0
 42115  1  0  0  0
 43 44  1  0  0  0
 44116  1  0  0  0
 45 46  2  0  0  0
 45117  1  0  0  0
 46118  1  0  0  0
 47119  1  0  0  0
 47120  1  0  0  0
 48 56  1  0  0  0
 48 65  1  0  0  0
 48121  1  0  0  0
 49 50  1  0  0  0
 49 53  1  0  0  0
 49 64  1  0  0  0
 49122  1  0  0  0
 50 51  1  0  0  0
 50123  1  0  0  0
 50124  1  0  0  0
 51 52  1  0  0  0
 51125  1  0  0  0
 51126  1  0  0  0
 52127  1  0  0  0
 52128  1  0  0  0
 53 54  1  0  0  0
 54 55  2  0  0  0
 54129  1  0  0  0
 55 57  1  0  0  0
 55130  1  0  0  0
 56 69  2  0  0  0
 57 58  2  0  0  0
 57131  1  0  0  0
 58132  1  0  0  0
 59 60  1  0  0  0
 59 61  1  0  0  0
 59 62  1  0  0  0
 60133  1  0  0  0
 60134  1  0  0  0
 60135  1  0  0  0
 61136  1  0  0  0
 61137  1  0  0  0
 61138  1  0  0  0
 62139  1  0  0  0
 62140  1  0  0  0
 62141  1  0  0  0
 63 65  1  0  0  0
 63142  1  0  0  0
 63143  1  0  0  0
 63144  1  0  0  0
 64145  1  0  0  0
 65146  1  0  0  0
 68 83  1  0  0  0
 71 72  2  0  0  0
 71 74  1  0  0  0
 71147  1  0  0  0
 72 75  1  0  0  0
 72148  1  0  0  0
 73 75  2  0  0  0
 73 76  1  0  0  0
 73 79  1  0  0  0
 74 76  2  0  0  0
 74 81  1  0  0  0
 75 87  1  0  0  0
 76 86  1  0  0  0
 77 78  1  0  0  0
 77 79  1  0  0  0
 77149  1  0  0  0
 77150  1  0  0  0
 78 79  1  0  0  0
 78151  1  0  0  0
 78152  1  0  0  0
 79153  1  0  0  0
 80 86  1  0  0  0
 80154  1  0  0  0
 80155  1  0  0  0
 80156  1  0  0  0
 81 82  1  0  0  0
 81157  1  0  0  0
 81158  1  0  0  0
 82 85  1  0  0  0
 82159  1  0  0  0
 82160  1  0  0  0
 83 84  1  0  0  0
 83161  1  0  0  0
 83162  1  0  0  0
 84 87  1  0  0  0
 84163  1  0  0  0
 84164  1  0  0  0
 85165  1  0  0  0
M  ISO  4   1 100  68 101  83 101  85 100
M  END
> <chiral flag>
0

> <version>
0

> <s_m_source_file>
/data/baiqing/PycharmProjects/Reinvent-master-3.2/result/LINK_invent/BTK/process_docking_weight1_custom_sum_contain_oxygen_bond_distance_aromatic_linkinvent_7_9_3/rearranged_h_0144.sdf

> <i_m_source_file_index>
85

> <r_mmod_Potential_Energy-OPLS-2005>
14.7575941085815

> <r_mmod_Stretch_Energy-OPLS-2005>
40.962028503418

> <r_mmod_Bend_Energy-OPLS-2005>
122.022972106934

> <r_mmod_Torsional_Energy-OPLS-2005>
282.180480957031

> <r_mmod_Improper_Torsional_Energy-OPLS-2005>
6.38471221923828

> <r_mmod_Van_der_Waal_Energy-OPLS-2005>
147.411437988281

> <r_mmod_Electrostatic_Energy-OPLS-2005>
-389.896179199219

> <r_mmod_Solvation_Energy-OPLS-2005>
-207.622024536133

> <b_mmod_Minimization_Converged-OPLS-2005>
0

> <r_mmod_RMS_Derivative-OPLS-2005>
5.97171401977539

$$$$
86
                    3D
 Structure written by MMmdl.
168176  0  0  1  0            999 V2000
  -30.6593  -14.5719   20.5582 C   0  0  0  0  0  0
  -30.4303  -12.3719   19.4401 C   0  0  0  0  0  0
  -29.5053  -12.5129   18.2140 C   0  0  0  0  0  0
  -28.0247  -12.3630   18.6191 C   0  0  0  0  0  0
  -27.6514  -13.2208   19.8593 C   0  0  2  0  0  0
  -28.6868  -13.0593   20.9930 C   0  0  0  0  0  0
  -25.2551  -13.8177   20.5675 C   0  0  0  0  0  0
  -24.1824  -13.0459   20.9213 C   0  0  0  0  0  0
  -24.6398  -11.6934   20.8745 C   0  0  0  0  0  0
  -23.9073  -10.4307   21.0410 C   0  0  0  0  0  0
  -24.3615   -9.4233   21.9195 C   0  0  0  0  0  0
  -23.6298   -8.2272   22.0762 C   0  0  0  0  0  0
  -22.4270   -8.0311   21.3576 C   0  0  0  0  0  0
  -21.9906   -9.0286   20.4660 C   0  0  0  0  0  0
  -22.7241  -10.2166   20.3071 C   0  0  0  0  0  0
  -21.6859   -6.0764   22.5286 C   0  0  0  0  0  0
  -21.4021   -6.5653   23.8231 C   0  0  0  0  0  0
  -21.3653   -5.6797   24.9194 C   0  0  0  0  0  0
  -21.6032   -4.3058   24.7213 C   0  0  0  0  0  0
  -21.8822   -3.8169   23.4329 C   0  0  0  0  0  0
  -21.9197   -4.6992   22.3406 C   0  0  0  0  0  0
  -22.7836  -13.5287   21.1890 C   0  0  0  0  0  0
  -22.1666   -4.2185   21.0979 F   0  0  0  0  0  0
  -21.5613   -3.4530   25.7722 F   0  0  0  0  0  0
  -30.0086  -13.3774   20.4339 N   0  0  0  0  0  0
  -26.2960  -12.9384   20.3251 N   0  0  0  0  0  0
  -25.9318  -11.6527   20.5670 N   0  0  0  0  0  0
  -22.0446  -12.8311   22.0394 N   0  0  0  0  0  0
  -25.4287  -15.1897   20.4126 N   0  0  0  0  0  0
  -31.8086  -14.7256   20.1409 O   0  0  0  0  0  0
  -21.6652   -6.8910   21.4251 O   0  0  0  0  0  0
  -22.3556  -14.5626   20.6741 O   0  0  0  0  0  0
  -24.6284  -31.8630   23.2003 C   0  0  0  0  0  0
  -25.9112  -32.4783   23.8338 C   0  0  1  0  0  0
  -27.2242  -27.3383   20.1309 C   0  0  0  0  0  0
  -25.5917  -33.8586   24.2293 N   0  0  0  0  0  0
  -23.4202  -30.4837   21.5381 C   0  0  2  0  0  0
  -24.8734  -28.9413   20.1029 C   0  0  0  0  0  0
  -22.7454  -29.4648   22.4883 C   0  0  0  0  0  0
  -18.0291  -28.1408   22.8487 C   0  0  0  0  0  0
  -24.1498  -36.7278   23.2639 C   0  0  0  0  0  0
  -25.9609  -30.7922   21.3803 C   0  0  0  0  0  0
  -26.0370  -29.4256   20.7181 C   0  0  0  0  0  0
  -27.2182  -28.6307   20.7326 C   0  0  0  0  0  0
  -26.0542  -26.9070   19.4700 C   0  0  0  0  0  0
  -24.8807  -27.6875   19.4686 C   0  0  0  0  0  0
  -23.6397  -29.8157   20.1527 C   0  0  0  0  0  0
  -25.4119  -36.3078   24.0329 C   0  0  1  0  0  0
  -20.5899  -28.3734   23.1272 C   0  0  2  0  0  0
  -20.6817  -26.9484   22.5363 C   0  0  0  0  0  0
  -19.5764  -26.6514   21.5151 C   0  0  0  0  0  0
  -18.1966  -26.7937   22.1663 C   0  0  0  0  0  0
  -19.1546  -28.8890   23.2867 C   0  0  0  0  0  0
  -18.9492  -30.1517   23.8850 C   0  0  0  0  0  0
  -17.6490  -30.6655   24.0489 C   0  0  0  0  0  0
  -25.9036  -34.9439   23.5110 C   0  0  0  0  0  0
  -16.5374  -29.9113   23.6322 C   0  0  0  0  0  0
  -16.7281  -28.6509   23.0383 C   0  0  0  0  0  0
  -26.4506  -31.6592   25.0719 C   0  0  0  0  0  0
  -25.3711  -31.3742   26.1436 C   0  0  0  0  0  0
  -27.0407  -30.3014   24.6218 C   0  0  0  0  0  0
  -27.6089  -32.4315   25.7472 C   0  0  0  0  0  0
  -27.5585  -37.1772   24.8461 C   0  0  0  0  0  0
  -21.4168  -29.3088   22.3641 N   0  0  0  0  0  0
  -26.4301  -37.3753   23.9393 N   0  0  0  0  0  0
  -24.6868  -31.0621   22.0954 N   0  0  0  0  0  0
  -23.4167  -28.8204   23.2980 O   0  0  0  0  0  0
  -28.2718  -26.4206   20.2729 O   0  0  0  0  0  0
  -26.5616  -34.8907   22.4691 O   0  0  0  0  0  0
  -23.5442  -32.1445   23.7316 O   0  0  0  0  0  0
  -26.6663  -24.2491   22.8418 C   0  0  0  0  0  0
  -27.0839  -25.3625   22.1063 C   0  0  0  0  0  0
  -28.5908  -23.9488   20.8328 C   0  0  0  0  0  0
  -27.1893  -22.9659   22.6046 C   0  0  0  0  0  0
  -28.1997  -22.7885   21.6076 C   0  0  0  0  0  0
  -28.0084  -25.2569   21.0422 C   0  0  0  0  0  0
  -25.1902  -21.4466   22.8481 C   0  0  0  0  0  0
  -26.4808  -22.0871   24.9272 C   0  0  0  0  0  0
  -30.3050  -17.1975   22.8709 C   0  0  0  0  0  0
  -28.8003  -21.3403   21.5076 C   0  0  0  0  0  0
  -29.8351  -20.8485   20.4526 C   0  0  0  0  0  0
  -29.6964  -18.2106   20.6050 C   0  0  0  0  0  0
  -26.5713  -21.8077   23.4164 C   0  0  0  0  0  0
  -30.4166  -17.0037   21.3446 C   0  0  2  0  0  0
  -29.9333  -15.6208   21.0422 N   0  0  0  0  0  0
  -30.4487  -19.5018   20.7821 N   0  3  0  0  0  0
  -31.4714  -12.5033   19.1333 H   0  0  0  0  0  0
  -30.3602  -11.3695   19.8625 H   0  0  0  0  0  0
  -29.7613  -11.7728   17.4534 H   0  0  0  0  0  0
  -29.6684  -13.4908   17.7528 H   0  0  0  0  0  0
  -27.8449  -11.3091   18.8292 H   0  0  0  0  0  0
  -27.3828  -12.6171   17.7743 H   0  0  0  0  0  0
  -27.6794  -14.2615   19.5338 H   0  0  0  0  0  0
  -28.6749  -12.0391   21.3770 H   0  0  0  0  0  0
  -28.4306  -13.6961   21.8413 H   0  0  0  0  0  0
  -25.2743   -9.5706   22.4787 H   0  0  0  0  0  0
  -23.9997   -7.4650   22.7482 H   0  0  0  0  0  0
  -21.0845   -8.8828   19.8964 H   0  0  0  0  0  0
  -22.3697  -10.9725   19.6190 H   0  0  0  0  0  0
  -21.2020   -7.6162   23.9758 H   0  0  0  0  0  0
  -21.1459   -6.0513   25.9101 H   0  0  0  0  0  0
  -22.0592   -2.7626   23.2826 H   0  0  0  0  0  0
  -22.3977  -11.9934   22.4800 H   0  0  0  0  0  0
  -21.1080  -13.1407   22.2614 H   0  0  0  0  0  0
  -24.6640  -15.8467   20.5270 H   0  0  0  0  0  0
  -26.2726  -15.6197   20.0543 H   0  0  0  0  0  0
  -26.7187  -32.5487   23.1086 H   0  0  0  0  0  0
  -25.0046  -33.9719   25.0427 H   0  0  0  0  0  0
  -22.7149  -31.3054   21.3871 H   0  0  0  0  0  0
  -23.3767  -35.9604   23.3330 H   0  0  0  0  0  0
  -24.3563  -36.8864   22.2034 H   0  0  0  0  0  0
  -23.7240  -37.6486   23.6656 H   0  0  0  0  0  0
  -26.0964  -31.5545   20.6146 H   0  0  0  0  0  0
  -26.8397  -30.8360   22.0124 H   0  0  0  0  0  0
  -28.1013  -28.9701   21.2574 H   0  0  0  0  0  0
  -26.0346  -25.9251   19.0180 H   0  0  0  0  0  0
  -23.9880  -27.3083   18.9875 H   0  0  0  0  0  0
  -23.7574  -30.5890   19.3899 H   0  0  0  0  0  0
  -22.7630  -29.2378   19.8541 H   0  0  0  0  0  0
  -25.1303  -36.1928   25.0813 H   0  0  0  0  0  0
  -20.9971  -28.3267   24.1395 H   0  0  0  0  0  0
  -20.5745  -26.2380   23.3580 H   0  0  0  0  0  0
  -21.6697  -26.7541   22.1166 H   0  0  0  0  0  0
  -19.6959  -25.6458   21.1136 H   0  0  0  0  0  0
  -19.6663  -27.3396   20.6719 H   0  0  0  0  0  0
  -17.4129  -26.6545   21.4197 H   0  0  0  0  0  0
  -18.0547  -26.0133   22.9151 H   0  0  0  0  0  0
  -19.7972  -30.7373   24.2151 H   0  0  0  0  0  0
  -17.5063  -31.6387   24.4999 H   0  0  0  0  0  0
  -15.5376  -30.3018   23.7668 H   0  0  0  0  0  0
  -15.8682  -28.0791   22.7174 H   0  0  0  0  0  0
  -24.5850  -30.7155   25.7726 H   0  0  0  0  0  0
  -24.8979  -32.2943   26.4869 H   0  0  0  0  0  0
  -25.7995  -30.8876   27.0197 H   0  0  0  0  0  0
  -26.3035  -29.6679   24.1283 H   0  0  0  0  0  0
  -27.4152  -29.7346   25.4749 H   0  0  0  0  0  0
  -27.8869  -30.4345   23.9474 H   0  0  0  0  0  0
  -27.2726  -33.3597   26.2096 H   0  0  0  0  0  0
  -28.3861  -32.6857   25.0256 H   0  0  0  0  0  0
  -28.0811  -31.8406   26.5321 H   0  0  0  0  0  0
  -28.2601  -38.0076   24.7500 H   0  0  0  0  0  0
  -28.1087  -36.2576   24.6325 H   0  0  0  0  0  0
  -27.2287  -37.1477   25.8868 H   0  0  0  0  0  0
  -20.9371  -29.8723   21.6767 H   0  0  0  0  0  0
  -26.0202  -38.2845   24.1371 H   0  0  0  0  0  0
  -25.9002  -24.4015   23.5869 H   0  0  0  0  0  0
  -26.6319  -26.3128   22.3540 H   0  0  0  0  0  0
  -29.3460  -23.8415   20.0663 H   0  0  0  0  0  0
  -25.2488  -21.2054   21.7865 H   0  0  0  0  0  0
  -24.4873  -22.2729   22.9629 H   0  0  0  0  0  0
  -24.7626  -20.5799   23.3524 H   0  0  0  0  0  0
  -27.4666  -22.2943   25.3418 H   0  0  0  0  0  0
  -26.0761  -21.2206   25.4527 H   0  0  0  0  0  0
  -25.8238  -22.9222   25.1667 H   0  0  0  0  0  0
  -30.6801  -18.1691   23.1957 H   0  0  0  0  0  0
  -30.8754  -16.4421   23.4102 H   0  0  0  0  0  0
  -29.2652  -17.1224   23.1974 H   0  0  0  0  0  0
  -27.9599  -20.6537   21.4048 H   0  0  0  0  0  0
  -29.2432  -21.1561   22.4862 H   0  0  0  0  0  0
  -30.6631  -21.5557   20.4463 H   0  0  0  0  0  0
  -29.4169  -20.8593   19.4458 H   0  0  0  0  0  0
  -28.6827  -18.3260   20.9915 H   0  0  0  0  0  0
  -29.5935  -18.0087   19.5373 H   0  0  0  0  0  0
  -27.1792  -20.9070   23.3577 H   0  0  0  0  0  0
  -31.4728  -17.0495   21.0728 H   0  0  0  0  0  0
  -28.9973  -15.3924   21.3469 H   0  0  0  0  0  0
  -30.7661  -19.5407   21.7377 H   0  0  0  0  0  0
  -31.2762  -19.4161   20.2132 H   0  0  0  0  0  0
  1 25  1  0  0  0
  1 30  2  0  0  0
  1 85  1  0  0  0
  2  3  1  0  0  0
  2 25  1  0  0  0
  2 87  1  0  0  0
  2 88  1  0  0  0
  3  4  1  0  0  0
  3 89  1  0  0  0
  3 90  1  0  0  0
  4  5  1  0  0  0
  4 91  1  0  0  0
  4 92  1  0  0  0
  5  6  1  0  0  0
  5 26  1  0  0  0
  5 93  1  0  0  0
  6 25  1  0  0  0
  6 94  1  0  0  0
  6 95  1  0  0  0
  7  8  2  0  0  0
  7 26  1  0  0  0
  7 29  1  0  0  0
  8  9  1  0  0  0
  8 22  1  0  0  0
  9 10  1  0  0  0
  9 27  2  0  0  0
 10 11  2  0  0  0
 10 15  1  0  0  0
 11 12  1  0  0  0
 11 96  1  0  0  0
 12 13  2  0  0  0
 12 97  1  0  0  0
 13 14  1  0  0  0
 13 31  1  0  0  0
 14 15  2  0  0  0
 14 98  1  0  0  0
 15 99  1  0  0  0
 16 17  2  0  0  0
 16 21  1  0  0  0
 16 31  1  0  0  0
 17 18  1  0  0  0
 17100  1  0  0  0
 18 19  2  0  0  0
 18101  1  0  0  0
 19 20  1  0  0  0
 19 24  1  0  0  0
 20 21  2  0  0  0
 20102  1  0  0  0
 21 23  1  0  0  0
 22 28  1  0  0  0
 22 32  2  0  0  0
 26 27  1  0  0  0
 28103  1  0  0  0
 28104  1  0  0  0
 29105  1  0  0  0
 29106  1  0  0  0
 33 34  1  0  0  0
 33 66  1  0  0  0
 33 70  2  0  0  0
 34 36  1  0  0  0
 34 59  1  0  0  0
 34107  1  0  0  0
 35 44  2  0  0  0
 35 45  1  0  0  0
 35 68  1  0  0  0
 36 56  1  0  0  0
 36108  1  0  0  0
 37 39  1  0  0  0
 37 47  1  0  0  0
 37 66  1  0  0  0
 37109  1  0  0  0
 38 43  2  0  0  0
 38 46  1  0  0  0
 38 47  1  0  0  0
 39 64  1  0  0  0
 39 67  2  0  0  0
 40 52  1  0  0  0
 40 53  2  0  0  0
 40 58  1  0  0  0
 41110  1  0  0  0
 41111  1  0  0  0
 41112  1  0  0  0
 41 48  1  0  0  0
 42 43  1  0  0  0
 42 66  1  0  0  0
 42113  1  0  0  0
 42114  1  0  0  0
 43 44  1  0  0  0
 44115  1  0  0  0
 45 46  2  0  0  0
 45116  1  0  0  0
 46117  1  0  0  0
 47118  1  0  0  0
 47119  1  0  0  0
 48 56  1  0  0  0
 48 65  1  0  0  0
 48120  1  0  0  0
 49 50  1  0  0  0
 49 53  1  0  0  0
 49 64  1  0  0  0
 49121  1  0  0  0
 50 51  1  0  0  0
 50122  1  0  0  0
 50123  1  0  0  0
 51 52  1  0  0  0
 51124  1  0  0  0
 51125  1  0  0  0
 52126  1  0  0  0
 52127  1  0  0  0
 53 54  1  0  0  0
 54 55  2  0  0  0
 54128  1  0  0  0
 55 57  1  0  0  0
 55129  1  0  0  0
 56 69  2  0  0  0
 57 58  2  0  0  0
 57130  1  0  0  0
 58131  1  0  0  0
 59 60  1  0  0  0
 59 61  1  0  0  0
 59 62  1  0  0  0
 60132  1  0  0  0
 60133  1  0  0  0
 60134  1  0  0  0
 61135  1  0  0  0
 61136  1  0  0  0
 61137  1  0  0  0
 62138  1  0  0  0
 62139  1  0  0  0
 62140  1  0  0  0
 63 65  1  0  0  0
 63141  1  0  0  0
 63142  1  0  0  0
 63143  1  0  0  0
 64144  1  0  0  0
 65145  1  0  0  0
 68 76  1  0  0  0
 71 72  2  0  0  0
 71 74  1  0  0  0
 71146  1  0  0  0
 72 76  1  0  0  0
 72147  1  0  0  0
 73 75  1  0  0  0
 73 76  2  0  0  0
 73148  1  0  0  0
 74 75  2  0  0  0
 74 83  1  0  0  0
 75 80  1  0  0  0
 77149  1  0  0  0
 77150  1  0  0  0
 77151  1  0  0  0
 77 83  1  0  0  0
 78 83  1  0  0  0
 78152  1  0  0  0
 78153  1  0  0  0
 78154  1  0  0  0
 79155  1  0  0  0
 79156  1  0  0  0
 79157  1  0  0  0
 79 84  1  0  0  0
 80 81  1  0  0  0
 80158  1  0  0  0
 80159  1  0  0  0
 81 86  1  0  0  0
 81160  1  0  0  0
 81161  1  0  0  0
 82 84  1  0  0  0
 82 86  1  0  0  0
 82162  1  0  0  0
 82163  1  0  0  0
 83164  1  0  0  0
 84 85  1  0  0  0
 84165  1  0  0  0
 85166  1  0  0  0
 86167  1  0  0  0
 86168  1  0  0  0
M  CHG  1  86   1
M  ISO  4   1 100  68 101  76 101  85 100
M  END
> <chiral flag>
0

> <version>
0

> <s_m_source_file>
/data/baiqing/PycharmProjects/Reinvent-master-3.2/result/LINK_invent/BTK/process_docking_weight1_custom_sum_contain_oxygen_bond_distance_aromatic_linkinvent_7_9_3/rearranged_h_0144.sdf

> <i_m_source_file_index>
86

> <r_mmod_Potential_Energy-OPLS-2005>
-154.922943115234

> <r_mmod_Stretch_Energy-OPLS-2005>
73.9360504150391

> <r_mmod_Bend_Energy-OPLS-2005>
144.243286132812

> <r_mmod_Torsional_Energy-OPLS-2005>
216.937896728516

> <r_mmod_Improper_Torsional_Energy-OPLS-2005>
3.88953948020935

> <r_mmod_Van_der_Waal_Energy-OPLS-2005>
151.660781860352

> <r_mmod_Electrostatic_Energy-OPLS-2005>
-320.582244873047

> <r_mmod_Solvation_Energy-OPLS-2005>
-471.697631835938

> <b_mmod_Minimization_Converged-OPLS-2005>
0

> <r_mmod_RMS_Derivative-OPLS-2005>
5.30114603042603

$$$$
87
                    3D
 Structure written by MMmdl.
165174  0  0  1  0            999 V2000
  -30.6354  -14.7298   20.4500 C   0  0  0  0  0  0
  -30.4240  -12.4428   19.4815 C   0  0  0  0  0  0
  -29.5106  -12.5073   18.2382 C   0  0  0  0  0  0
  -28.0346  -12.3413   18.6471 C   0  0  0  0  0  0
  -27.6415  -13.2385   19.8522 C   0  0  2  0  0  0
  -28.6854  -13.1786   20.9900 C   0  0  0  0  0  0
  -25.2491  -13.8217   20.5710 C   0  0  0  0  0  0
  -24.1790  -13.0447   20.9220 C   0  0  0  0  0  0
  -24.6396  -11.6929   20.8751 C   0  0  0  0  0  0
  -23.9075  -10.4298   21.0405 C   0  0  0  0  0  0
  -24.3624   -9.4210   21.9180 C   0  0  0  0  0  0
  -23.6301   -8.2244   22.0750 C   0  0  0  0  0  0
  -22.4287   -8.0281   21.3539 C   0  0  0  0  0  0
  -21.9920   -9.0256   20.4644 C   0  0  0  0  0  0
  -22.7247  -10.2136   20.3053 C   0  0  0  0  0  0
  -21.6857   -6.0738   22.5278 C   0  0  0  0  0  0
  -21.4016   -6.5638   23.8213 C   0  0  0  0  0  0
  -21.3664   -5.6784   24.9172 C   0  0  0  0  0  0
  -21.6047   -4.3050   24.7219 C   0  0  0  0  0  0
  -21.8815   -3.8147   23.4341 C   0  0  0  0  0  0
  -21.9188   -4.6964   22.3399 C   0  0  0  0  0  0
  -22.7803  -13.5216   21.1869 C   0  0  0  0  0  0
  -22.1653   -4.2150   21.0976 F   0  0  0  0  0  0
  -21.5633   -3.4532   25.7733 F   0  0  0  0  0  0
  -29.9894  -13.5141   20.4081 N   0  0  0  0  0  0
  -26.2936  -12.9441   20.3300 N   0  0  0  0  0  0
  -25.9331  -11.6575   20.5758 N   0  0  0  0  0  0
  -22.0443  -12.8213   22.0431 N   0  0  0  0  0  0
  -25.4154  -15.1947   20.4126 N   0  0  0  0  0  0
  -31.8231  -14.7960   20.1238 O   0  0  0  0  0  0
  -21.6647   -6.8883   21.4242 O   0  0  0  0  0  0
  -22.3482  -14.5514   20.6701 O   0  0  0  0  0  0
  -24.6313  -31.8557   23.2006 C   0  0  0  0  0  0
  -25.9141  -32.4758   23.8337 C   0  0  1  0  0  0
  -27.2100  -27.2587   20.1231 C   0  0  0  0  0  0
  -25.5936  -33.8561   24.2254 N   0  0  0  0  0  0
  -23.4265  -30.4820   21.5440 C   0  0  2  0  0  0
  -24.8720  -28.9352   20.1067 C   0  0  0  0  0  0
  -22.7499  -29.4609   22.4906 C   0  0  0  0  0  0
  -18.0289  -28.1388   22.8473 C   0  0  0  0  0  0
  -24.1489  -36.7287   23.2639 C   0  0  0  0  0  0
  -25.9742  -30.7674   21.3823 C   0  0  0  0  0  0
  -26.0452  -29.3918   20.7212 C   0  0  0  0  0  0
  -27.2166  -28.5655   20.7210 C   0  0  0  0  0  0
  -26.0141  -26.8830   19.4658 C   0  0  0  0  0  0
  -24.8625  -27.6891   19.4673 C   0  0  0  0  0  0
  -23.6435  -29.8220   20.1581 C   0  0  0  0  0  0
  -25.4117  -36.3072   24.0320 C   0  0  1  0  0  0
  -20.5894  -28.3701   23.1256 C   0  0  2  0  0  0
  -20.6778  -26.9415   22.5403 C   0  0  0  0  0  0
  -19.5757  -26.6378   21.5205 C   0  0  0  0  0  0
  -18.1937  -26.7926   22.1618 C   0  0  0  0  0  0
  -19.1543  -28.8862   23.2858 C   0  0  0  0  0  0
  -18.9467  -30.1460   23.8882 C   0  0  0  0  0  0
  -17.6468  -30.6589   24.0560 C   0  0  0  0  0  0
  -25.9054  -34.9442   23.5089 C   0  0  0  0  0  0
  -16.5357  -29.9087   23.6332 C   0  0  0  0  0  0
  -16.7277  -28.6503   23.0350 C   0  0  0  0  0  0
  -26.4507  -31.6587   25.0730 C   0  0  0  0  0  0
  -25.3722  -31.3742   26.1442 C   0  0  0  0  0  0
  -27.0361  -30.3001   24.6233 C   0  0  0  0  0  0
  -27.6049  -32.4337   25.7515 C   0  0  0  0  0  0
  -27.5577  -37.1802   24.8461 C   0  0  0  0  0  0
  -21.4208  -29.3046   22.3644 N   0  0  0  0  0  0
  -26.4291  -37.3772   23.9404 N   0  0  0  0  0  0
  -24.6966  -31.0524   22.0984 N   0  0  0  0  0  0
  -23.4195  -28.8139   23.2998 O   0  0  0  0  0  0
  -28.2890  -26.3408   20.2002 O   0  0  0  0  0  0
  -26.5626  -34.8917   22.4656 O   0  0  0  0  0  0
  -23.5466  -32.1382   23.7305 O   0  0  0  0  0  0
  -29.2159  -21.1077   19.9792 C   0  0  0  0  0  0
  -29.5149  -19.7724   19.5306 C   0  0  0  0  0  0
  -29.7372  -18.7135   20.5024 C   0  0  0  0  0  0
  -29.1039  -21.3665   21.3246 C   0  0  0  0  0  0
  -29.5760  -19.1263   21.8616 C   0  0  0  0  0  0
  -29.0018  -22.4313   19.2043 C   0  0  0  0  0  0
  -28.8145  -22.8548   21.6082 C   0  0  0  0  0  0
  -29.0001  -23.6385   20.2478 C   0  0  2  0  0  0
  -29.8110  -18.1494   22.9975 C   0  0  0  0  0  0
  -31.1058  -19.5212   15.9654 C   0  0  0  0  0  0
  -29.6115  -19.5242   18.0315 C   0  0  0  0  0  0
  -30.3527  -17.2756   20.1115 C   0  0  0  0  0  0
  -28.0146  -24.8861   19.9181 C   0  0  0  0  0  0
  -31.0413  -19.6746   17.4902 C   0  0  0  0  0  0
  -29.2585  -20.4002   22.2613 N   0  0  0  0  0  0
  -29.9009  -15.8980   20.6021 N   0  0  0  0  0  0
  -31.4694  -12.5442   19.1855 H   0  0  0  0  0  0
  -30.3472  -11.4682   19.9664 H   0  0  0  0  0  0
  -29.7906  -11.7336   17.5226 H   0  0  0  0  0  0
  -29.6464  -13.4608   17.7250 H   0  0  0  0  0  0
  -27.8830  -11.2927   18.9040 H   0  0  0  0  0  0
  -27.3820  -12.5422   17.7964 H   0  0  0  0  0  0
  -27.6344  -14.2610   19.4737 H   0  0  0  0  0  0
  -28.7125  -12.1870   21.4446 H   0  0  0  0  0  0
  -28.4261  -13.8744   21.7891 H   0  0  0  0  0  0
  -25.2763   -9.5689   22.4757 H   0  0  0  0  0  0
  -24.0008   -7.4640   22.7473 H   0  0  0  0  0  0
  -21.0847   -8.8781   19.8954 H   0  0  0  0  0  0
  -22.3704  -10.9676   19.6167 H   0  0  0  0  0  0
  -21.2011   -7.6146   23.9718 H   0  0  0  0  0  0
  -21.1492   -6.0515   25.9076 H   0  0  0  0  0  0
  -22.0591   -2.7609   23.2835 H   0  0  0  0  0  0
  -22.4058  -11.9893   22.4853 H   0  0  0  0  0  0
  -21.1055  -13.1238   22.2612 H   0  0  0  0  0  0
  -24.6438  -15.8441   20.5224 H   0  0  0  0  0  0
  -26.2582  -15.6385   20.0711 H   0  0  0  0  0  0
  -26.7202  -32.5406   23.1072 H   0  0  0  0  0  0
  -25.0086  -33.9695   25.0403 H   0  0  0  0  0  0
  -22.7225  -31.3048   21.4024 H   0  0  0  0  0  0
  -23.3753  -35.9618   23.3297 H   0  0  0  0  0  0
  -24.3577  -36.8918   22.2054 H   0  0  0  0  0  0
  -23.7243  -37.6485   23.6669 H   0  0  0  0  0  0
  -26.1146  -31.5291   20.6140 H   0  0  0  0  0  0
  -26.8512  -30.8134   22.0163 H   0  0  0  0  0  0
  -28.1104  -28.9066   21.2244 H   0  0  0  0  0  0
  -25.9242  -25.9385   18.9517 H   0  0  0  0  0  0
  -23.9678  -27.3366   18.9728 H   0  0  0  0  0  0
  -23.7672  -30.6012   19.4053 H   0  0  0  0  0  0
  -22.7608  -29.2572   19.8516 H   0  0  0  0  0  0
  -25.1304  -36.1918   25.0813 H   0  0  0  0  0  0
  -20.9987  -28.3291   24.1376 H   0  0  0  0  0  0
  -20.5675  -26.2316   23.3613 H   0  0  0  0  0  0
  -21.6647  -26.7440   22.1199 H   0  0  0  0  0  0
  -19.6921  -25.6287   21.1241 H   0  0  0  0  0  0
  -19.6697  -27.3183   20.6728 H   0  0  0  0  0  0
  -17.4204  -26.6662   21.4023 H   0  0  0  0  0  0
  -18.0346  -26.0076   22.9024 H   0  0  0  0  0  0
  -19.7948  -30.7271   24.2247 H   0  0  0  0  0  0
  -17.5029  -31.6266   24.5170 H   0  0  0  0  0  0
  -15.5360  -30.2988   23.7667 H   0  0  0  0  0  0
  -15.8672  -28.0822   22.7073 H   0  0  0  0  0  0
  -24.5896  -30.7096   25.7762 H   0  0  0  0  0  0
  -24.8919  -32.2918   26.4849 H   0  0  0  0  0  0
  -25.8029  -30.8923   27.0227 H   0  0  0  0  0  0
  -26.2953  -29.6744   24.1241 H   0  0  0  0  0  0
  -27.4011  -29.7273   25.4768 H   0  0  0  0  0  0
  -27.8844  -30.4264   23.9504 H   0  0  0  0  0  0
  -27.2636  -33.3636   26.2075 H   0  0  0  0  0  0
  -28.3874  -32.6898   25.0360 H   0  0  0  0  0  0
  -28.0699  -31.8476   26.5451 H   0  0  0  0  0  0
  -28.2588  -38.0104   24.7508 H   0  0  0  0  0  0
  -28.1075  -36.2632   24.6287 H   0  0  0  0  0  0
  -27.2286  -37.1451   25.8861 H   0  0  0  0  0  0
  -20.9393  -29.8779   21.6859 H   0  0  0  0  0  0
  -26.0166  -38.2842   24.1416 H   0  0  0  0  0  0
  -28.0396  -22.3748   18.6932 H   0  0  0  0  0  0
  -29.7699  -22.5672   18.4422 H   0  0  0  0  0  0
  -29.4694  -23.2434   22.3888 H   0  0  0  0  0  0
  -27.7888  -22.9437   21.9657 H   0  0  0  0  0  0
  -30.0215  -24.0199   20.2450 H   0  0  0  0  0  0
  -29.0799  -17.3421   22.9627 H   0  0  0  0  0  0
  -29.7239  -18.6333   23.9708 H   0  0  0  0  0  0
  -30.8079  -17.7137   22.9321 H   0  0  0  0  0  0
  -32.1317  -19.6092   15.6057 H   0  0  0  0  0  0
  -30.5139  -20.2904   15.4669 H   0  0  0  0  0  0
  -30.7242  -18.5503   15.6485 H   0  0  0  0  0  0
  -28.9567  -20.2304   17.5192 H   0  0  0  0  0  0
  -29.2040  -18.5435   17.7874 H   0  0  0  0  0  0
  -31.4075  -17.3627   20.3790 H   0  0  0  0  0  0
  -30.3709  -17.1861   19.0277 H   0  0  0  0  0  0
  -27.0519  -24.6246   20.3585 H   0  0  0  0  0  0
  -27.8633  -24.8489   18.8388 H   0  0  0  0  0  0
  -31.4338  -20.6541   17.7656 H   0  0  0  0  0  0
  -31.6960  -18.9417   17.9615 H   0  0  0  0  0  0
  -28.9265  -15.7887   20.8373 H   0  0  0  0  0  0
  1 25  1  0  0  0
  1 30  2  0  0  0
  1 86  1  0  0  0
  2  3  1  0  0  0
  2 25  1  0  0  0
  2 87  1  0  0  0
  2 88  1  0  0  0
  3  4  1  0  0  0
  3 89  1  0  0  0
  3 90  1  0  0  0
  4  5  1  0  0  0
  4 91  1  0  0  0
  4 92  1  0  0  0
  5  6  1  0  0  0
  5 26  1  0  0  0
  5 93  1  0  0  0
  6 25  1  0  0  0
  6 94  1  0  0  0
  6 95  1  0  0  0
  7  8  2  0  0  0
  7 26  1  0  0  0
  7 29  1  0  0  0
  8  9  1  0  0  0
  8 22  1  0  0  0
  9 10  1  0  0  0
  9 27  2  0  0  0
 10 11  2  0  0  0
 10 15  1  0  0  0
 11 12  1  0  0  0
 11 96  1  0  0  0
 12 13  2  0  0  0
 12 97  1  0  0  0
 13 14  1  0  0  0
 13 31  1  0  0  0
 14 15  2  0  0  0
 14 98  1  0  0  0
 15 99  1  0  0  0
 16 17  2  0  0  0
 16 21  1  0  0  0
 16 31  1  0  0  0
 17 18  1  0  0  0
 17100  1  0  0  0
 18 19  2  0  0  0
 18101  1  0  0  0
 19 20  1  0  0  0
 19 24  1  0  0  0
 20 21  2  0  0  0
 20102  1  0  0  0
 21 23  1  0  0  0
 22 28  1  0  0  0
 22 32  2  0  0  0
 26 27  1  0  0  0
 28103  1  0  0  0
 28104  1  0  0  0
 29105  1  0  0  0
 29106  1  0  0  0
 33 34  1  0  0  0
 33 66  1  0  0  0
 33 70  2  0  0  0
 34 36  1  0  0  0
 34 59  1  0  0  0
 34107  1  0  0  0
 35 44  2  0  0  0
 35 45  1  0  0  0
 35 68  1  0  0  0
 36 56  1  0  0  0
 36108  1  0  0  0
 37 39  1  0  0  0
 37 47  1  0  0  0
 37 66  1  0  0  0
 37109  1  0  0  0
 38 43  2  0  0  0
 38 46  1  0  0  0
 38 47  1  0  0  0
 39 64  1  0  0  0
 39 67  2  0  0  0
 40 52  1  0  0  0
 40 53  2  0  0  0
 40 58  1  0  0  0
 41110  1  0  0  0
 41111  1  0  0  0
 41112  1  0  0  0
 41 48  1  0  0  0
 42 43  1  0  0  0
 42 66  1  0  0  0
 42113  1  0  0  0
 42114  1  0  0  0
 43 44  1  0  0  0
 44115  1  0  0  0
 45 46  2  0  0  0
 45116  1  0  0  0
 46117  1  0  0  0
 47118  1  0  0  0
 47119  1  0  0  0
 48 56  1  0  0  0
 48 65  1  0  0  0
 48120  1  0  0  0
 49 50  1  0  0  0
 49 53  1  0  0  0
 49 64  1  0  0  0
 49121  1  0  0  0
 50 51  1  0  0  0
 50122  1  0  0  0
 50123  1  0  0  0
 51 52  1  0  0  0
 51124  1  0  0  0
 51125  1  0  0  0
 52126  1  0  0  0
 52127  1  0  0  0
 53 54  1  0  0  0
 54 55  2  0  0  0
 54128  1  0  0  0
 55 57  1  0  0  0
 55129  1  0  0  0
 56 69  2  0  0  0
 57 58  2  0  0  0
 57130  1  0  0  0
 58131  1  0  0  0
 59 60  1  0  0  0
 59 61  1  0  0  0
 59 62  1  0  0  0
 60132  1  0  0  0
 60133  1  0  0  0
 60134  1  0  0  0
 61135  1  0  0  0
 61136  1  0  0  0
 61137  1  0  0  0
 62138  1  0  0  0
 62139  1  0  0  0
 62140  1  0  0  0
 63 65  1  0  0  0
 63141  1  0  0  0
 63142  1  0  0  0
 63143  1  0  0  0
 64144  1  0  0  0
 65145  1  0  0  0
 68 83  1  0  0  0
 71 72  2  0  0  0
 71 74  1  0  0  0
 71 76  1  0  0  0
 72 73  1  0  0  0
 72 81  1  0  0  0
 73 75  2  0  0  0
 73 82  1  0  0  0
 74 77  1  0  0  0
 74 85  2  0  0  0
 75 79  1  0  0  0
 75 85  1  0  0  0
 76 78  1  0  0  0
 76146  1  0  0  0
 76147  1  0  0  0
 77 78  1  0  0  0
 77148  1  0  0  0
 77149  1  0  0  0
 78 83  1  0  0  0
 78150  1  0  0  0
 79151  1  0  0  0
 79152  1  0  0  0
 79153  1  0  0  0
 80 84  1  0  0  0
 80154  1  0  0  0
 80155  1  0  0  0
 80156  1  0  0  0
 81 84  1  0  0  0
 81157  1  0  0  0
 81158  1  0  0  0
 82 86  1  0  0  0
 82159  1  0  0  0
 82160  1  0  0  0
 83161  1  0  0  0
 83162  1  0  0  0
 84163  1  0  0  0
 84164  1  0  0  0
 86165  1  0  0  0
M  ISO  4   1 100  68 101  83 101  86 100
M  END
> <chiral flag>
0

> <version>
0

> <s_m_source_file>
/data/baiqing/PycharmProjects/Reinvent-master-3.2/result/LINK_invent/BTK/process_docking_weight1_custom_sum_contain_oxygen_bond_distance_aromatic_linkinvent_7_9_3/rearranged_h_0144.sdf

> <i_m_source_file_index>
87

> <r_mmod_Potential_Energy-OPLS-2005>
45.4591331481934

> <r_mmod_Stretch_Energy-OPLS-2005>
121.723991394043

> <r_mmod_Bend_Energy-OPLS-2005>
214.466918945312

> <r_mmod_Torsional_Energy-OPLS-2005>
220.4521484375

> <r_mmod_Improper_Torsional_Energy-OPLS-2005>
7.82628202438354

> <r_mmod_Van_der_Waal_Energy-OPLS-2005>
139.307708740234

> <r_mmod_Electrostatic_Energy-OPLS-2005>
-520.228088378906

> <r_mmod_Solvation_Energy-OPLS-2005>
-223.878768920898

> <b_mmod_Minimization_Converged-OPLS-2005>
0

> <r_mmod_RMS_Derivative-OPLS-2005>
1.05346870422363

$$$$
88
                    3D
 Structure written by MMmdl.
186196  0  0  1  0            999 V2000
  -30.7680  -14.5009   20.4713 C   0  0  0  0  0  0
  -30.4290  -12.2935   19.4335 C   0  0  0  0  0  0
  -29.5105  -12.4323   18.2026 C   0  0  0  0  0  0
  -28.0247  -12.3263   18.6147 C   0  0  0  0  0  0
  -27.6567  -13.1952   19.8507 C   0  0  2  0  0  0
  -28.7191  -13.0821   20.9697 C   0  0  0  0  0  0
  -25.2658  -13.8146   20.5689 C   0  0  0  0  0  0
  -24.1879  -13.0426   20.9195 C   0  0  0  0  0  0
  -24.6411  -11.6897   20.8708 C   0  0  0  0  0  0
  -23.9070  -10.4303   21.0407 C   0  0  0  0  0  0
  -24.3643   -9.4255   21.9190 C   0  0  0  0  0  0
  -23.6343   -8.2271   22.0778 C   0  0  0  0  0  0
  -22.4317   -8.0298   21.3576 C   0  0  0  0  0  0
  -21.9918   -9.0248   20.4662 C   0  0  0  0  0  0
  -22.7231  -10.2143   20.3064 C   0  0  0  0  0  0
  -21.6854   -6.0728   22.5288 C   0  0  0  0  0  0
  -21.4006   -6.5629   23.8213 C   0  0  0  0  0  0
  -21.3676   -5.6782   24.9183 C   0  0  0  0  0  0
  -21.6043   -4.3043   24.7210 C   0  0  0  0  0  0
  -21.8823   -3.8137   23.4333 C   0  0  0  0  0  0
  -21.9212   -4.6957   22.3399 C   0  0  0  0  0  0
  -22.7909  -13.5274   21.1773 C   0  0  0  0  0  0
  -22.1688   -4.2144   21.0966 F   0  0  0  0  0  0
  -21.5652   -3.4525   25.7727 F   0  0  0  0  0  0
  -30.0477  -13.3436   20.3891 N   0  0  0  0  0  0
  -26.3051  -12.9257   20.3329 N   0  0  0  0  0  0
  -25.9355  -11.6445   20.5770 N   0  0  0  0  0  0
  -22.0509  -12.8317   22.0338 N   0  0  0  0  0  0
  -25.4360  -15.1872   20.4110 N   0  0  0  0  0  0
  -31.9660  -14.5581   20.1861 O   0  0  0  0  0  0
  -21.6689   -6.8889   21.4273 O   0  0  0  0  0  0
  -22.3607  -14.5561   20.6583 O   0  0  0  0  0  0
  -24.6123  -31.8631   23.2106 C   0  0  0  0  0  0
  -25.9027  -32.4800   23.8351 C   0  0  1  0  0  0
  -27.2445  -27.4407   20.1047 C   0  0  0  0  0  0
  -25.5845  -33.8609   24.2281 N   0  0  0  0  0  0
  -23.3987  -30.4903   21.5496 C   0  0  2  0  0  0
  -24.8522  -28.9591   20.1069 C   0  0  0  0  0  0
  -22.7373  -29.4666   22.5004 C   0  0  0  0  0  0
  -18.0265  -28.1395   22.8565 C   0  0  0  0  0  0
  -24.1478  -36.7360   23.2648 C   0  0  0  0  0  0
  -25.9211  -30.8396   21.3529 C   0  0  0  0  0  0
  -26.0041  -29.4719   20.7090 C   0  0  0  0  0  0
  -27.2028  -28.7244   20.6960 C   0  0  0  0  0  0
  -26.0738  -26.9433   19.4851 C   0  0  0  0  0  0
  -24.8860  -27.7011   19.4784 C   0  0  0  0  0  0
  -23.6069  -29.8204   20.1626 C   0  0  0  0  0  0
  -25.4093  -36.3129   24.0344 C   0  0  1  0  0  0
  -20.5847  -28.3676   23.1365 C   0  0  2  0  0  0
  -20.6782  -26.9426   22.5450 C   0  0  0  0  0  0
  -19.5761  -26.6410   21.5261 C   0  0  0  0  0  0
  -18.1921  -26.7955   22.1663 C   0  0  0  0  0  0
  -19.1501  -28.8873   23.2962 C   0  0  0  0  0  0
  -18.9427  -30.1489   23.8970 C   0  0  0  0  0  0
  -17.6428  -30.6609   24.0600 C   0  0  0  0  0  0
  -25.9027  -34.9493   23.5115 C   0  0  0  0  0  0
  -16.5325  -29.9124   23.6324 C   0  0  0  0  0  0
  -16.7249  -28.6546   23.0361 C   0  0  0  0  0  0
  -26.4450  -31.6552   25.0655 C   0  0  0  0  0  0
  -25.3702  -31.3703   26.1397 C   0  0  0  0  0  0
  -27.0225  -30.2989   24.5995 C   0  0  0  0  0  0
  -27.5994  -32.4279   25.7438 C   0  0  0  0  0  0
  -27.5585  -37.1825   24.8463 C   0  0  0  0  0  0
  -21.4092  -29.3038   22.3745 N   0  0  0  0  0  0
  -26.4298  -37.3803   23.9415 N   0  0  0  0  0  0
  -24.6628  -31.0765   22.0988 N   0  0  0  0  0  0
  -23.4179  -28.8236   23.3050 O   0  0  0  0  0  0
  -28.4465  -26.7649   20.1195 O   0  0  0  0  0  0
  -26.5602  -34.8969   22.4694 O   0  0  0  0  0  0
  -23.5329  -32.1389   23.7519 O   0  0  0  0  0  0
  -31.5053  -19.9220   22.3118 C   0  0  0  0  0  0
  -30.8775  -21.1704   22.1512 C   0  0  0  0  0  0
  -29.2228  -20.5124   23.8395 C   0  0  0  0  0  0
  -29.7130  -21.4794   22.8986 C   0  0  0  0  0  0
  -29.9238  -19.2795   24.0670 C   0  0  0  0  0  0
  -31.0317  -18.9658   23.2283 C   0  0  0  0  0  0
  -30.2208  -17.2719   18.8234 C   0  0  0  0  0  0
  -29.6382  -19.9132   27.4504 C   0  0  0  0  0  0
  -30.0026  -18.5291   27.9200 C   0  0  0  0  0  0
  -31.0657  -17.7569   19.9860 C   0  0  0  0  0  0
  -29.3752  -16.1375   19.4023 C   0  0  0  0  0  0
  -30.3237  -18.9484   26.5017 C   0  0  0  0  0  0
  -30.6032  -16.9173   21.1909 C   0  0  1  0  0  0
  -31.5015  -22.1522   21.1728 C   0  0  0  0  0  0
  -27.9622  -20.8591   24.6340 C   0  0  0  0  0  0
  -29.8454  -16.8570   25.1646 C   0  0  0  0  0  0
  -29.0861  -22.8924   22.7712 C   0  0  0  0  0  0
  -31.6791  -16.7938   22.3194 C   0  0  0  0  0  0
  -28.0454  -24.6139   21.2776 C   0  0  0  0  0  0
  -28.5021  -25.3379   19.9844 C   0  0  0  0  0  0
  -29.5857  -18.3774   25.2918 C   0  0  2  0  0  0
  -30.0640  -15.6555   20.6159 N   0  0  0  0  0  0
  -28.6058  -23.2356   21.4064 N   0  3  0  0  0  0
  -31.7235  -17.7845   23.3640 O   0  0  0  0  0  0
  -31.4758  -12.3580   19.1382 H   0  0  0  0  0  0
  -30.3034  -11.3112   19.8886 H   0  0  0  0  0  0
  -29.7405  -11.6454   17.4810 H   0  0  0  0  0  0
  -29.6941  -13.3702   17.6820 H   0  0  0  0  0  0
  -27.8175  -11.2768   18.8298 H   0  0  0  0  0  0
  -27.3875  -12.5855   17.7685 H   0  0  0  0  0  0
  -27.6436  -14.2164   19.4968 H   0  0  0  0  0  0
  -28.7021  -12.0809   21.4012 H   0  0  0  0  0  0
  -28.4947  -13.7769   21.7806 H   0  0  0  0  0  0
  -25.2802   -9.5754   22.4721 H   0  0  0  0  0  0
  -24.0065   -7.4673   22.7480 H   0  0  0  0  0  0
  -21.0841   -8.8759   19.8957 H   0  0  0  0  0  0
  -22.3709  -10.9672   19.6143 H   0  0  0  0  0  0
  -21.2004   -7.6121   23.9721 H   0  0  0  0  0  0
  -21.1492   -6.0500   25.9078 H   0  0  0  0  0  0
  -22.0594   -2.7596   23.2833 H   0  0  0  0  0  0
  -22.4127  -12.0067   22.4881 H   0  0  0  0  0  0
  -21.1097  -13.1374   22.2372 H   0  0  0  0  0  0
  -24.6675  -15.8375   20.5343 H   0  0  0  0  0  0
  -26.2981  -15.6354   20.1318 H   0  0  0  0  0  0
  -26.7067  -32.5529   23.1095 H   0  0  0  0  0  0
  -24.9954  -33.9751   25.0394 H   0  0  0  0  0  0
  -22.6863  -31.3063   21.4094 H   0  0  0  0  0  0
  -23.3728  -35.9694   23.3312 H   0  0  0  0  0  0
  -24.3600  -36.8986   22.2065 H   0  0  0  0  0  0
  -23.7227  -37.6581   23.6640 H   0  0  0  0  0  0
  -26.0027  -31.6033   20.5770 H   0  0  0  0  0  0
  -26.8212  -30.9129   21.9515 H   0  0  0  0  0  0
  -28.0922  -29.1388   21.1477 H   0  0  0  0  0  0
  -26.0735  -25.9943   18.9691 H   0  0  0  0  0  0
  -24.0080  -27.3148   18.9757 H   0  0  0  0  0  0
  -23.6958  -30.5922   19.3952 H   0  0  0  0  0  0
  -22.7361  -29.2291   19.8787 H   0  0  0  0  0  0
  -25.1256  -36.2020   25.0831 H   0  0  0  0  0  0
  -20.9909  -28.3233   24.1503 H   0  0  0  0  0  0
  -20.5764  -26.2257   23.3624 H   0  0  0  0  0  0
  -21.6634  -26.7539   22.1180 H   0  0  0  0  0  0
  -19.6910  -25.6335   21.1280 H   0  0  0  0  0  0
  -19.6686  -27.3256   20.6823 H   0  0  0  0  0  0
  -17.4186  -26.6733   21.4055 H   0  0  0  0  0  0
  -18.0298  -26.0074   22.9035 H   0  0  0  0  0  0
  -19.7896  -30.7282   24.2329 H   0  0  0  0  0  0
  -17.4991  -31.6297   24.5197 H   0  0  0  0  0  0
  -15.5354  -30.3050   23.7623 H   0  0  0  0  0  0
  -15.8638  -28.0892   22.7010 H   0  0  0  0  0  0
  -24.5883  -30.7031   25.7778 H   0  0  0  0  0  0
  -24.8870  -32.2873   26.4780 H   0  0  0  0  0  0
  -25.8047  -30.8940   27.0182 H   0  0  0  0  0  0
  -26.2734  -29.6843   24.1007 H   0  0  0  0  0  0
  -27.3945  -29.7173   25.4422 H   0  0  0  0  0  0
  -27.8579  -30.4327   23.9135 H   0  0  0  0  0  0
  -27.2569  -33.3573   26.2016 H   0  0  0  0  0  0
  -28.3808  -32.6859   25.0278 H   0  0  0  0  0  0
  -28.0615  -31.8380   26.5367 H   0  0  0  0  0  0
  -28.2594  -38.0133   24.7510 H   0  0  0  0  0  0
  -28.1073  -36.2660   24.6236 H   0  0  0  0  0  0
  -27.2319  -37.1454   25.8875 H   0  0  0  0  0  0
  -20.9222  -29.8719   21.6964 H   0  0  0  0  0  0
  -26.0210  -38.2902   24.1370 H   0  0  0  0  0  0
  -32.3910  -19.6909   21.7365 H   0  0  0  0  0  0
  -30.8726  -16.9069   18.0274 H   0  0  0  0  0  0
  -29.5866  -18.0595   18.4094 H   0  0  0  0  0  0
  -30.2275  -20.7503   27.8274 H   0  0  0  0  0  0
  -28.5733  -20.1106   27.3321 H   0  0  0  0  0  0
  -29.2006  -17.8100   28.0654 H   0  0  0  0  0  0
  -30.8246  -18.4565   28.6282 H   0  0  0  0  0  0
  -30.9335  -18.8286   20.1151 H   0  0  0  0  0  0
  -32.1231  -17.5872   19.7785 H   0  0  0  0  0  0
  -29.2414  -15.3749   18.6352 H   0  0  0  0  0  0
  -28.3896  -16.5208   19.6731 H   0  0  0  0  0  0
  -31.3819  -19.1223   26.3198 H   0  0  0  0  0  0
  -29.7199  -17.3945   21.6233 H   0  0  0  0  0  0
  -31.0775  -22.0214   20.1780 H   0  0  0  0  0  0
  -32.5747  -21.9826   21.0887 H   0  0  0  0  0  0
  -31.3894  -23.1918   21.4785 H   0  0  0  0  0  0
  -27.1878  -21.2348   23.9621 H   0  0  0  0  0  0
  -28.1881  -21.6232   25.3826 H   0  0  0  0  0  0
  -27.4755  -20.0381   25.1480 H   0  0  0  0  0  0
  -29.4849  -16.4556   24.2162 H   0  0  0  0  0  0
  -29.3318  -16.3051   25.9568 H   0  0  0  0  0  0
  -30.9010  -16.6107   25.2778 H   0  0  0  0  0  0
  -29.8416  -23.6196   23.0733 H   0  0  0  0  0  0
  -28.2732  -23.0684   23.4705 H   0  0  0  0  0  0
  -32.6781  -16.6953   21.8891 H   0  0  0  0  0  0
  -31.5050  -15.8588   22.8528 H   0  0  0  0  0  0
  -26.9574  -24.5777   21.3275 H   0  0  0  0  0  0
  -28.3663  -25.2180   22.1266 H   0  0  0  0  0  0
  -27.9859  -24.9726   19.0972 H   0  0  0  0  0  0
  -29.5613  -25.1197   19.8214 H   0  0  0  0  0  0
  -28.5202  -18.3963   25.4991 H   0  0  0  0  0  0
  -27.9226  -22.5492   21.1234 H   0  0  0  0  0  0
  -29.3915  -23.1450   20.7805 H   0  0  0  0  0  0
  1 25  1  0  0  0
  1 30  2  0  0  0
  1 92  1  0  0  0
  2  3  1  0  0  0
  2 25  1  0  0  0
  2 95  1  0  0  0
  2 96  1  0  0  0
  3  4  1  0  0  0
  3 97  1  0  0  0
  3 98  1  0  0  0
  4  5  1  0  0  0
  4 99  1  0  0  0
  4100  1  0  0  0
  5  6  1  0  0  0
  5 26  1  0  0  0
  5101  1  0  0  0
  6 25  1  0  0  0
  6102  1  0  0  0
  6103  1  0  0  0
  7  8  2  0  0  0
  7 26  1  0  0  0
  7 29  1  0  0  0
  8  9  1  0  0  0
  8 22  1  0  0  0
  9 10  1  0  0  0
  9 27  2  0  0  0
 10 11  2  0  0  0
 10 15  1  0  0  0
 11 12  1  0  0  0
 11104  1  0  0  0
 12 13  2  0  0  0
 12105  1  0  0  0
 13 14  1  0  0  0
 13 31  1  0  0  0
 14 15  2  0  0  0
 14106  1  0  0  0
 15107  1  0  0  0
 16 17  2  0  0  0
 16 21  1  0  0  0
 16 31  1  0  0  0
 17 18  1  0  0  0
 17108  1  0  0  0
 18 19  2  0  0  0
 18109  1  0  0  0
 19 20  1  0  0  0
 19 24  1  0  0  0
 20 21  2  0  0  0
 20110  1  0  0  0
 21 23  1  0  0  0
 22 28  1  0  0  0
 22 32  2  0  0  0
 26 27  1  0  0  0
 28111  1  0  0  0
 28112  1  0  0  0
 29113  1  0  0  0
 29114  1  0  0  0
 33 34  1  0  0  0
 33 66  1  0  0  0
 33 70  2  0  0  0
 34 36  1  0  0  0
 34 59  1  0  0  0
 34115  1  0  0  0
 35 44  2  0  0  0
 35 45  1  0  0  0
 35 68  1  0  0  0
 36 56  1  0  0  0
 36116  1  0  0  0
 37 39  1  0  0  0
 37 47  1  0  0  0
 37 66  1  0  0  0
 37117  1  0  0  0
 38 43  2  0  0  0
 38 46  1  0  0  0
 38 47  1  0  0  0
 39 64  1  0  0  0
 39 67  2  0  0  0
 40 52  1  0  0  0
 40 53  2  0  0  0
 40 58  1  0  0  0
 41118  1  0  0  0
 41119  1  0  0  0
 41120  1  0  0  0
 41 48  1  0  0  0
 42 43  1  0  0  0
 42 66  1  0  0  0
 42121  1  0  0  0
 42122  1  0  0  0
 43 44  1  0  0  0
 44123  1  0  0  0
 45 46  2  0  0  0
 45124  1  0  0  0
 46125  1  0  0  0
 47126  1  0  0  0
 47127  1  0  0  0
 48 56  1  0  0  0
 48 65  1  0  0  0
 48128  1  0  0  0
 49 50  1  0  0  0
 49 53  1  0  0  0
 49 64  1  0  0  0
 49129  1  0  0  0
 50 51  1  0  0  0
 50130  1  0  0  0
 50131  1  0  0  0
 51 52  1  0  0  0
 51132  1  0  0  0
 51133  1  0  0  0
 52134  1  0  0  0
 52135  1  0  0  0
 53 54  1  0  0  0
 54 55  2  0  0  0
 54136  1  0  0  0
 55 57  1  0  0  0
 55137  1  0  0  0
 56 69  2  0  0  0
 57 58  2  0  0  0
 57138  1  0  0  0
 58139  1  0  0  0
 59 60  1  0  0  0
 59 61  1  0  0  0
 59 62  1  0  0  0
 60140  1  0  0  0
 60141  1  0  0  0
 60142  1  0  0  0
 61143  1  0  0  0
 61144  1  0  0  0
 61145  1  0  0  0
 62146  1  0  0  0
 62147  1  0  0  0
 62148  1  0  0  0
 63 65  1  0  0  0
 63149  1  0  0  0
 63150  1  0  0  0
 63151  1  0  0  0
 64152  1  0  0  0
 65153  1  0  0  0
 68 90  1  0  0  0
 71 72  2  0  0  0
 71 76  1  0  0  0
 71154  1  0  0  0
 72 74  1  0  0  0
 72 84  1  0  0  0
 73 74  2  0  0  0
 73 75  1  0  0  0
 73 85  1  0  0  0
 74 87  1  0  0  0
 75 76  2  0  0  0
 75 91  1  0  0  0
 76 94  1  0  0  0
 77 80  1  0  0  0
 77 81  1  0  0  0
 77155  1  0  0  0
 77156  1  0  0  0
 78 79  1  0  0  0
 78157  1  0  0  0
 78158  1  0  0  0
 78 82  1  0  0  0
 79 82  1  0  0  0
 79159  1  0  0  0
 79160  1  0  0  0
 80 83  1  0  0  0
 80161  1  0  0  0
 80162  1  0  0  0
 81 92  1  0  0  0
 81163  1  0  0  0
 81164  1  0  0  0
 82 91  1  0  0  0
 82165  1  0  0  0
 83 88  1  0  0  0
 83 92  1  0  0  0
 83166  1  0  0  0
 84167  1  0  0  0
 84168  1  0  0  0
 84169  1  0  0  0
 85170  1  0  0  0
 85171  1  0  0  0
 85172  1  0  0  0
 86173  1  0  0  0
 86174  1  0  0  0
 86175  1  0  0  0
 86 91  1  0  0  0
 87 93  1  0  0  0
 87176  1  0  0  0
 87177  1  0  0  0
 88 94  1  0  0  0
 88178  1  0  0  0
 88179  1  0  0  0
 89 90  1  0  0  0
 89 93  1  0  0  0
 89180  1  0  0  0
 89181  1  0  0  0
 90182  1  0  0  0
 90183  1  0  0  0
 91184  1  0  0  0
 93185  1  0  0  0
 93186  1  0  0  0
M  CHG  1  93   1
M  ISO  4   1 100  68 101  90 101  92 100
M  END
> <chiral flag>
0

> <version>
0

> <s_m_source_file>
/data/baiqing/PycharmProjects/Reinvent-master-3.2/result/LINK_invent/BTK/process_docking_weight1_custom_sum_contain_oxygen_bond_distance_aromatic_linkinvent_7_9_3/rearranged_h_0144.sdf

> <i_m_source_file_index>
88

> <r_mmod_Potential_Energy-OPLS-2005>
211.891983032227

> <r_mmod_Stretch_Energy-OPLS-2005>
54.7329597473145

> <r_mmod_Bend_Energy-OPLS-2005>
173.936050415039

> <r_mmod_Torsional_Energy-OPLS-2005>
417.338073730469

> <r_mmod_Improper_Torsional_Energy-OPLS-2005>
12.2778186798096

> <r_mmod_Van_der_Waal_Energy-OPLS-2005>
164.959197998047

> <r_mmod_Electrostatic_Energy-OPLS-2005>
-208.834503173828

> <r_mmod_Solvation_Energy-OPLS-2005>
-429.063934326172

> <b_mmod_Minimization_Converged-OPLS-2005>
0

> <r_mmod_RMS_Derivative-OPLS-2005>
6.74094867706299

$$$$
89
                    3D
 Structure written by MMmdl.
164173  0  0  1  0            999 V2000
  -30.6130  -14.6389   20.4195 C   0  0  0  0  0  0
  -30.4333  -12.3767   19.4126 C   0  0  0  0  0  0
  -29.4943  -12.4758   18.1896 C   0  0  0  0  0  0
  -28.0234  -12.3228   18.6194 C   0  0  0  0  0  0
  -27.6497  -13.2084   19.8361 C   0  0  2  0  0  0
  -28.7045  -13.0735   20.9580 C   0  0  0  0  0  0
  -25.2587  -13.8143   20.5628 C   0  0  0  0  0  0
  -24.1879  -13.0453   20.9175 C   0  0  0  0  0  0
  -24.6422  -11.6888   20.8752 C   0  0  0  0  0  0
  -23.9103  -10.4291   21.0439 C   0  0  0  0  0  0
  -24.3641   -9.4164   21.9197 C   0  0  0  0  0  0
  -23.6271   -8.2217   22.0763 C   0  0  0  0  0  0
  -22.4249   -8.0292   21.3557 C   0  0  0  0  0  0
  -21.9922   -9.0276   20.4660 C   0  0  0  0  0  0
  -22.7283  -10.2128   20.3069 C   0  0  0  0  0  0
  -21.6855   -6.0728   22.5279 C   0  0  0  0  0  0
  -21.3990   -6.5630   23.8217 C   0  0  0  0  0  0
  -21.3652   -5.6778   24.9182 C   0  0  0  0  0  0
  -21.6052   -4.3047   24.7227 C   0  0  0  0  0  0
  -21.8820   -3.8138   23.4359 C   0  0  0  0  0  0
  -21.9173   -4.6950   22.3409 C   0  0  0  0  0  0
  -22.7894  -13.5207   21.1837 C   0  0  0  0  0  0
  -22.1657   -4.2147   21.0989 F   0  0  0  0  0  0
  -21.5630   -3.4542   25.7743 F   0  0  0  0  0  0
  -30.0144  -13.4083   20.3794 N   0  0  0  0  0  0
  -26.3031  -12.9328   20.3245 N   0  0  0  0  0  0
  -25.9345  -11.6504   20.5724 N   0  0  0  0  0  0
  -22.0528  -12.8251   22.0392 N   0  0  0  0  0  0
  -25.4318  -15.1875   20.3992 N   0  0  0  0  0  0
  -31.7974  -14.7952   20.1148 O   0  0  0  0  0  0
  -21.6620   -6.8881   21.4243 O   0  0  0  0  0  0
  -22.3634  -14.5538   20.6665 O   0  0  0  0  0  0
  -24.6200  -31.8609   23.2138 C   0  0  0  0  0  0
  -25.9092  -32.4777   23.8375 C   0  0  1  0  0  0
  -27.2747  -27.4024   20.1147 C   0  0  0  0  0  0
  -25.5936  -33.8554   24.2310 N   0  0  0  0  0  0
  -23.4103  -30.4926   21.5424 C   0  0  2  0  0  0
  -24.8678  -28.9486   20.1204 C   0  0  0  0  0  0
  -22.7402  -29.4743   22.4946 C   0  0  0  0  0  0
  -18.0321  -28.1128   22.8371 C   0  0  0  0  0  0
  -24.1512  -36.7311   23.2626 C   0  0  0  0  0  0
  -25.9401  -30.8265   21.3700 C   0  0  0  0  0  0
  -26.0258  -29.4554   20.7177 C   0  0  0  0  0  0
  -27.2269  -28.6984   20.7026 C   0  0  0  0  0  0
  -26.0834  -26.9147   19.5311 C   0  0  0  0  0  0
  -24.8928  -27.6747   19.5247 C   0  0  0  0  0  0
  -23.6321  -29.8222   20.1625 C   0  0  0  0  0  0
  -25.4119  -36.3072   24.0337 C   0  0  1  0  0  0
  -20.5831  -28.3772   23.1191 C   0  0  2  0  0  0
  -20.6915  -26.9560   22.5174 C   0  0  0  0  0  0
  -19.5886  -26.6080   21.5101 C   0  0  0  0  0  0
  -18.2075  -26.7647   22.1474 C   0  0  0  0  0  0
  -19.1406  -28.8746   23.2859 C   0  0  0  0  0  0
  -18.9128  -30.1237   23.9000 C   0  0  0  0  0  0
  -17.6081  -30.6204   24.0591 C   0  0  0  0  0  0
  -25.9047  -34.9439   23.5105 C   0  0  0  0  0  0
  -16.5112  -29.8562   23.6212 C   0  0  0  0  0  0
  -16.7223  -28.6001   23.0267 C   0  0  0  0  0  0
  -26.4493  -31.6576   25.0711 C   0  0  0  0  0  0
  -25.3716  -31.3741   26.1452 C   0  0  0  0  0  0
  -27.0371  -30.3002   24.6166 C   0  0  0  0  0  0
  -27.6040  -32.4331   25.7454 C   0  0  0  0  0  0
  -27.5573  -37.1811   24.8454 C   0  0  0  0  0  0
  -21.4086  -29.3262   22.3723 N   0  0  0  0  0  0
  -26.4290  -37.3778   23.9408 N   0  0  0  0  0  0
  -24.6740  -31.0716   22.1008 N   0  0  0  0  0  0
  -23.4184  -28.8201   23.2950 O   0  0  0  0  0  0
  -28.4608  -26.6680   20.0750 O   0  0  0  0  0  0
  -26.5597  -34.8922   22.4654 O   0  0  0  0  0  0
  -23.5373  -32.1369   23.7536 O   0  0  0  0  0  0
  -27.5480  -22.1580   19.4336 C   0  0  0  0  0  0
  -29.2805  -20.5585   20.1645 C   0  0  0  0  0  0
  -26.6154  -21.1357   19.5860 C   0  0  0  0  0  0
  -26.9734  -19.8549   19.9793 C   0  0  0  0  0  0
  -28.3335  -19.4723   20.2027 C   0  0  0  0  0  0
  -28.8782  -21.9151   19.8382 C   0  0  0  0  0  0
  -25.1297  -21.3537   19.5830 C   0  0  0  0  0  0
  -25.7085  -19.0762   20.2956 C   0  0  0  0  0  0
  -24.6368  -20.1866   20.4607 C   0  0  2  0  0  0
  -23.1841  -19.7706   20.1961 C   0  0  0  0  0  0
  -28.6161  -17.9795   20.6120 C   0  0  0  0  0  0
  -29.9310  -17.1682   20.2915 C   0  0  0  0  0  0
  -28.4408  -25.2384   20.3920 C   0  0  0  0  0  0
  -29.4236  -24.3371   19.5454 C   0  0  0  0  0  0
  -29.7620  -15.6994   20.5634 N   0  0  0  0  0  0
  -29.7552  -22.9844   20.0012 O   0  0  0  0  0  0
  -31.4699  -12.4879   19.0927 H   0  0  0  0  0  0
  -30.3660  -11.3817   19.8602 H   0  0  0  0  0  0
  -29.7437  -11.7043   17.4613 H   0  0  0  0  0  0
  -29.6427  -13.4291   17.6781 H   0  0  0  0  0  0
  -27.8737  -11.2785   18.8836 H   0  0  0  0  0  0
  -27.3582  -12.5187   17.7819 H   0  0  0  0  0  0
  -27.6623  -14.2383   19.4774 H   0  0  0  0  0  0
  -28.7206  -12.0500   21.3477 H   0  0  0  0  0  0
  -28.4733  -13.7235   21.8029 H   0  0  0  0  0  0
  -25.2789   -9.5621   22.4793 H   0  0  0  0  0  0
  -23.9962   -7.4618   22.7505 H   0  0  0  0  0  0
  -21.0837   -8.8803   19.8999 H   0  0  0  0  0  0
  -22.3742  -10.9668   19.6188 H   0  0  0  0  0  0
  -21.1983   -7.6150   23.9723 H   0  0  0  0  0  0
  -21.1474   -6.0521   25.9087 H   0  0  0  0  0  0
  -22.0606   -2.7615   23.2862 H   0  0  0  0  0  0
  -22.4096  -11.9861   22.4732 H   0  0  0  0  0  0
  -21.1190  -13.1352   22.2621 H   0  0  0  0  0  0
  -24.6540  -15.8307   20.4868 H   0  0  0  0  0  0
  -26.2485  -15.6068   19.9769 H   0  0  0  0  0  0
  -26.7160  -32.5531   23.1125 H   0  0  0  0  0  0
  -25.0130  -33.9716   25.0491 H   0  0  0  0  0  0
  -22.7065  -31.3105   21.3945 H   0  0  0  0  0  0
  -23.3753  -35.9657   23.3274 H   0  0  0  0  0  0
  -24.3591  -36.8938   22.2037 H   0  0  0  0  0  0
  -23.7322  -37.6526   23.6668 H   0  0  0  0  0  0
  -26.0714  -31.6080   20.6147 H   0  0  0  0  0  0
  -26.8149  -30.8635   22.0077 H   0  0  0  0  0  0
  -28.1173  -29.1099   21.1599 H   0  0  0  0  0  0
  -26.0625  -25.9460   19.0555 H   0  0  0  0  0  0
  -24.0029  -27.2710   19.0564 H   0  0  0  0  0  0
  -23.7458  -30.6019   19.4045 H   0  0  0  0  0  0
  -22.7554  -29.2546   19.8557 H   0  0  0  0  0  0
  -25.1306  -36.1840   25.0827 H   0  0  0  0  0  0
  -20.9876  -28.3345   24.1365 H   0  0  0  0  0  0
  -20.6287  -26.2397   23.3352 H   0  0  0  0  0  0
  -21.6714  -26.7941   22.0676 H   0  0  0  0  0  0
  -19.7185  -25.5754   21.1824 H   0  0  0  0  0  0
  -19.6732  -27.2252   20.6169 H   0  0  0  0  0  0
  -17.4424  -26.6371   21.3773 H   0  0  0  0  0  0
  -18.0463  -25.9789   22.8787 H   0  0  0  0  0  0
  -19.7459  -30.7099   24.2573 H   0  0  0  0  0  0
  -17.4283  -31.5821   24.5171 H   0  0  0  0  0  0
  -15.5014  -30.2232   23.7705 H   0  0  0  0  0  0
  -15.8687  -28.0166   22.7029 H   0  0  0  0  0  0
  -24.5840  -30.7137   25.7793 H   0  0  0  0  0  0
  -24.8998  -32.2965   26.4872 H   0  0  0  0  0  0
  -25.8019  -30.8894   27.0229 H   0  0  0  0  0  0
  -26.2973  -29.6674   24.1248 H   0  0  0  0  0  0
  -27.4162  -29.7302   25.4662 H   0  0  0  0  0  0
  -27.8803  -30.4309   23.9360 H   0  0  0  0  0  0
  -27.2608  -33.3604   26.2060 H   0  0  0  0  0  0
  -28.3819  -32.6926   25.0255 H   0  0  0  0  0  0
  -28.0763  -31.8451   26.5343 H   0  0  0  0  0  0
  -28.2573  -38.0117   24.7490 H   0  0  0  0  0  0
  -28.1083  -36.2644   24.6284 H   0  0  0  0  0  0
  -27.2299  -37.1486   25.8857 H   0  0  0  0  0  0
  -20.9148  -29.9285   21.7241 H   0  0  0  0  0  0
  -26.0134  -38.2822   24.1434 H   0  0  0  0  0  0
  -27.1802  -23.1264   19.1432 H   0  0  0  0  0  0
  -30.3084  -20.3702   20.4586 H   0  0  0  0  0  0
  -24.7616  -21.3015   18.5599 H   0  0  0  0  0  0
  -24.8581  -22.3316   19.9894 H   0  0  0  0  0  0
  -25.8071  -18.4681   21.1964 H   0  0  0  0  0  0
  -25.4537  -18.4215   19.4570 H   0  0  0  0  0  0
  -24.7013  -20.5370   21.4964 H   0  0  0  0  0  0
  -22.8934  -18.9355   20.8353 H   0  0  0  0  0  0
  -23.0333  -19.4809   19.1565 H   0  0  0  0  0  0
  -22.4965  -20.5981   20.4034 H   0  0  0  0  0  0
  -27.8203  -17.3797   20.1626 H   0  0  0  0  0  0
  -28.4361  -17.9294   21.6857 H   0  0  0  0  0  0
  -30.7649  -17.5696   20.8666 H   0  0  0  0  0  0
  -30.1963  -17.3097   19.2407 H   0  0  0  0  0  0
  -28.7236  -25.1672   21.4378 H   0  0  0  0  0  0
  -27.4388  -24.8278   20.3596 H   0  0  0  0  0  0
  -30.3946  -24.8375   19.5407 H   0  0  0  0  0  0
  -29.0983  -24.2949   18.5054 H   0  0  0  0  0  0
  -28.8145  -15.4166   20.7669 H   0  0  0  0  0  0
  1 25  1  0  0  0
  1 30  2  0  0  0
  1 85  1  0  0  0
  2  3  1  0  0  0
  2 25  1  0  0  0
  2 87  1  0  0  0
  2 88  1  0  0  0
  3  4  1  0  0  0
  3 89  1  0  0  0
  3 90  1  0  0  0
  4  5  1  0  0  0
  4 91  1  0  0  0
  4 92  1  0  0  0
  5  6  1  0  0  0
  5 26  1  0  0  0
  5 93  1  0  0  0
  6 25  1  0  0  0
  6 94  1  0  0  0
  6 95  1  0  0  0
  7  8  2  0  0  0
  7 26  1  0  0  0
  7 29  1  0  0  0
  8  9  1  0  0  0
  8 22  1  0  0  0
  9 10  1  0  0  0
  9 27  2  0  0  0
 10 11  2  0  0  0
 10 15  1  0  0  0
 11 12  1  0  0  0
 11 96  1  0  0  0
 12 13  2  0  0  0
 12 97  1  0  0  0
 13 14  1  0  0  0
 13 31  1  0  0  0
 14 15  2  0  0  0
 14 98  1  0  0  0
 15 99  1  0  0  0
 16 17  2  0  0  0
 16 21  1  0  0  0
 16 31  1  0  0  0
 17 18  1  0  0  0
 17100  1  0  0  0
 18 19  2  0  0  0
 18101  1  0  0  0
 19 20  1  0  0  0
 19 24  1  0  0  0
 20 21  2  0  0  0
 20102  1  0  0  0
 21 23  1  0  0  0
 22 28  1  0  0  0
 22 32  2  0  0  0
 26 27  1  0  0  0
 28103  1  0  0  0
 28104  1  0  0  0
 29105  1  0  0  0
 29106  1  0  0  0
 33 34  1  0  0  0
 33 66  1  0  0  0
 33 70  2  0  0  0
 34 36  1  0  0  0
 34 59  1  0  0  0
 34107  1  0  0  0
 35 44  2  0  0  0
 35 45  1  0  0  0
 35 68  1  0  0  0
 36 56  1  0  0  0
 36108  1  0  0  0
 37 39  1  0  0  0
 37 47  1  0  0  0
 37 66  1  0  0  0
 37109  1  0  0  0
 38 43  2  0  0  0
 38 46  1  0  0  0
 38 47  1  0  0  0
 39 64  1  0  0  0
 39 67  2  0  0  0
 40 52  1  0  0  0
 40 53  2  0  0  0
 40 58  1  0  0  0
 41110  1  0  0  0
 41111  1  0  0  0
 41112  1  0  0  0
 41 48  1  0  0  0
 42 43  1  0  0  0
 42 66  1  0  0  0
 42113  1  0  0  0
 42114  1  0  0  0
 43 44  1  0  0  0
 44115  1  0  0  0
 45 46  2  0  0  0
 45116  1  0  0  0
 46117  1  0  0  0
 47118  1  0  0  0
 47119  1  0  0  0
 48 56  1  0  0  0
 48 65  1  0  0  0
 48120  1  0  0  0
 49 50  1  0  0  0
 49 53  1  0  0  0
 49 64  1  0  0  0
 49121  1  0  0  0
 50 51  1  0  0  0
 50122  1  0  0  0
 50123  1  0  0  0
 51 52  1  0  0  0
 51124  1  0  0  0
 51125  1  0  0  0
 52126  1  0  0  0
 52127  1  0  0  0
 53 54  1  0  0  0
 54 55  2  0  0  0
 54128  1  0  0  0
 55 57  1  0  0  0
 55129  1  0  0  0
 56 69  2  0  0  0
 57 58  2  0  0  0
 57130  1  0  0  0
 58131  1  0  0  0
 59 60  1  0  0  0
 59 61  1  0  0  0
 59 62  1  0  0  0
 60132  1  0  0  0
 60133  1  0  0  0
 60134  1  0  0  0
 61135  1  0  0  0
 61136  1  0  0  0
 61137  1  0  0  0
 62138  1  0  0  0
 62139  1  0  0  0
 62140  1  0  0  0
 63 65  1  0  0  0
 63141  1  0  0  0
 63142  1  0  0  0
 63143  1  0  0  0
 64144  1  0  0  0
 65145  1  0  0  0
 68 83  1  0  0  0
 71 73  2  0  0  0
 71 76  1  0  0  0
 71146  1  0  0  0
 72 75  1  0  0  0
 72 76  2  0  0  0
 72147  1  0  0  0
 73 74  1  0  0  0
 73 77  1  0  0  0
 74 75  2  0  0  0
 74 78  1  0  0  0
 75 81  1  0  0  0
 76 86  1  0  0  0
 77 79  1  0  0  0
 77148  1  0  0  0
 77149  1  0  0  0
 78 79  1  0  0  0
 78150  1  0  0  0
 78151  1  0  0  0
 79 80  1  0  0  0
 79152  1  0  0  0
 80153  1  0  0  0
 80154  1  0  0  0
 80155  1  0  0  0
 81 82  1  0  0  0
 81156  1  0  0  0
 81157  1  0  0  0
 82 85  1  0  0  0
 82158  1  0  0  0
 82159  1  0  0  0
 83 84  1  0  0  0
 83160  1  0  0  0
 83161  1  0  0  0
 84 86  1  0  0  0
 84162  1  0  0  0
 84163  1  0  0  0
 85164  1  0  0  0
M  ISO  4   1 100  68 101  83 101  85 100
M  END
> <chiral flag>
0

> <version>
0

> <s_m_source_file>
/data/baiqing/PycharmProjects/Reinvent-master-3.2/result/LINK_invent/BTK/process_docking_weight1_custom_sum_contain_oxygen_bond_distance_aromatic_linkinvent_7_9_3/rearranged_h_0144.sdf

> <i_m_source_file_index>
89

> <r_mmod_Potential_Energy-OPLS-2005>
99.0967483520508

> <r_mmod_Stretch_Energy-OPLS-2005>
73.4575119018555

> <r_mmod_Bend_Energy-OPLS-2005>
199.805572509766

> <r_mmod_Torsional_Energy-OPLS-2005>
232.308563232422

> <r_mmod_Improper_Torsional_Energy-OPLS-2005>
9.62492561340332

> <r_mmod_Van_der_Waal_Energy-OPLS-2005>
136.780807495117

> <r_mmod_Electrostatic_Energy-OPLS-2005>
-375.8115234375

> <r_mmod_Solvation_Energy-OPLS-2005>
-215.287811279297

> <b_mmod_Minimization_Converged-OPLS-2005>
0

> <r_mmod_RMS_Derivative-OPLS-2005>
11.8810520172119

$$$$
90
                    3D
 Structure written by MMmdl.
170179  0  0  1  0            999 V2000
  -30.6013  -14.5917   20.5178 C   0  0  0  0  0  0
  -30.4438  -12.3715   19.4223 C   0  0  0  0  0  0
  -29.4987  -12.5087   18.2081 C   0  0  0  0  0  0
  -28.0223  -12.3490   18.6255 C   0  0  0  0  0  0
  -27.6547  -13.2008   19.8677 C   0  0  2  0  0  0
  -28.7031  -13.0101   20.9882 C   0  0  0  0  0  0
  -25.2553  -13.8127   20.5642 C   0  0  0  0  0  0
  -24.1815  -13.0402   20.9143 C   0  0  0  0  0  0
  -24.6383  -11.6873   20.8728 C   0  0  0  0  0  0
  -23.9048  -10.4265   21.0405 C   0  0  0  0  0  0
  -24.3604   -9.4183   21.9187 C   0  0  0  0  0  0
  -23.6274   -8.2223   22.0778 C   0  0  0  0  0  0
  -22.4265   -8.0253   21.3543 C   0  0  0  0  0  0
  -21.9887   -9.0236   20.4657 C   0  0  0  0  0  0
  -22.7218  -10.2107   20.3065 C   0  0  0  0  0  0
  -21.6854   -6.0705   22.5266 C   0  0  0  0  0  0
  -21.4017   -6.5618   23.8185 C   0  0  0  0  0  0
  -21.3657   -5.6780   24.9154 C   0  0  0  0  0  0
  -21.6062   -4.3048   24.7219 C   0  0  0  0  0  0
  -21.8811   -3.8120   23.4347 C   0  0  0  0  0  0
  -21.9190   -4.6936   22.3395 C   0  0  0  0  0  0
  -22.7837  -13.5204   21.1794 C   0  0  0  0  0  0
  -22.1654   -4.2114   21.0979 F   0  0  0  0  0  0
  -21.5637   -3.4540   25.7738 F   0  0  0  0  0  0
  -30.0178  -13.3612   20.4236 N   0  0  0  0  0  0
  -26.2983  -12.9279   20.3319 N   0  0  0  0  0  0
  -25.9311  -11.6447   20.5776 N   0  0  0  0  0  0
  -22.0513  -12.8201   22.0379 N   0  0  0  0  0  0
  -25.4224  -15.1859   20.4047 N   0  0  0  0  0  0
  -31.7645  -14.8084   20.1579 O   0  0  0  0  0  0
  -21.6631   -6.8854   21.4230 O   0  0  0  0  0  0
  -22.3505  -14.5521   20.6680 O   0  0  0  0  0  0
  -24.6217  -31.8623   23.2013 C   0  0  0  0  0  0
  -25.9082  -32.4753   23.8345 C   0  0  1  0  0  0
  -27.2385  -27.3746   20.1158 C   0  0  0  0  0  0
  -25.5920  -33.8571   24.2288 N   0  0  0  0  0  0
  -23.4108  -30.4850   21.5415 C   0  0  2  0  0  0
  -24.8629  -28.9435   20.1149 C   0  0  0  0  0  0
  -22.7432  -29.4625   22.4925 C   0  0  0  0  0  0
  -18.0297  -28.1306   22.8452 C   0  0  0  0  0  0
  -24.1498  -36.7315   23.2635 C   0  0  0  0  0  0
  -25.9468  -30.8092   21.3670 C   0  0  0  0  0  0
  -26.0268  -29.4394   20.7182 C   0  0  0  0  0  0
  -27.2194  -28.6670   20.7086 C   0  0  0  0  0  0
  -26.0555  -26.9143   19.4952 C   0  0  0  0  0  0
  -24.8778  -27.6826   19.4950 C   0  0  0  0  0  0
  -23.6248  -29.8132   20.1598 C   0  0  0  0  0  0
  -25.4102  -36.3064   24.0329 C   0  0  1  0  0  0
  -20.5891  -28.3638   23.1251 C   0  0  2  0  0  0
  -20.6792  -26.9368   22.5382 C   0  0  0  0  0  0
  -19.5782  -26.6344   21.5159 C   0  0  0  0  0  0
  -18.1947  -26.7858   22.1560 C   0  0  0  0  0  0
  -19.1538  -28.8789   23.2851 C   0  0  0  0  0  0
  -18.9479  -30.1369   23.8901 C   0  0  0  0  0  0
  -17.6491  -30.6529   24.0516 C   0  0  0  0  0  0
  -25.9039  -34.9424   23.5102 C   0  0  0  0  0  0
  -16.5380  -29.9033   23.6286 C   0  0  0  0  0  0
  -16.7296  -28.6428   23.0348 C   0  0  0  0  0  0
  -26.4497  -31.6567   25.0702 C   0  0  0  0  0  0
  -25.3737  -31.3748   26.1427 C   0  0  0  0  0  0
  -27.0341  -30.2999   24.6156 C   0  0  0  0  0  0
  -27.6055  -32.4346   25.7489 C   0  0  0  0  0  0
  -27.5583  -37.1781   24.8450 C   0  0  0  0  0  0
  -21.4162  -29.3025   22.3662 N   0  0  0  0  0  0
  -26.4298  -37.3753   23.9388 N   0  0  0  0  0  0
  -24.6777  -31.0669   22.0942 N   0  0  0  0  0  0
  -23.4146  -28.8155   23.2981 O   0  0  0  0  0  0
  -28.3891  -26.5873   20.1104 O   0  0  0  0  0  0
  -26.5597  -34.8890   22.4659 O   0  0  0  0  0  0
  -23.5380  -32.1432   23.7358 O   0  0  0  0  0  0
  -29.4598  -18.3658   23.2921 C   0  0  0  0  0  0
  -29.3973  -17.1180   22.6229 C   0  0  0  0  0  0
  -30.3012  -18.0470   20.4870 C   0  0  0  0  0  0
  -29.9050  -19.4309   22.5092 C   0  0  0  0  0  0
  -30.2314  -19.3203   21.1196 C   0  0  0  0  0  0
  -29.8568  -16.9231   21.2805 C   0  0  0  0  0  0
  -30.4771  -20.8189   22.6729 C   0  0  2  0  0  0
  -30.8571  -20.7338   21.1074 C   0  0  2  0  0  0
  -31.4209  -23.3497   24.1810 C   0  0  0  0  0  0
  -33.4522  -22.0452   24.9213 C   0  0  0  0  0  0
  -31.5949  -20.8300   23.7199 C   0  0  0  0  0  0
  -29.1723  -22.7146   20.4861 C   0  0  0  0  0  0
  -28.2510  -25.2044   20.5629 C   0  0  0  0  0  0
  -32.3512  -22.1682   23.8510 C   0  0  0  0  0  0
  -29.4205  -24.2369   20.1580 C   0  0  1  0  0  0
  -29.7073  -15.5822   20.7813 N   0  0  0  0  0  0
  -30.3831  -21.8651   20.2181 N   0  3  0  0  0  0
  -30.5785  -24.6315   20.8758 O   0  0  0  0  0  0
  -31.4788  -12.5244   19.1091 H   0  0  0  0  0  0
  -30.4006  -11.3653   19.8377 H   0  0  0  0  0  0
  -29.7496  -11.7686   17.4481 H   0  0  0  0  0  0
  -29.6408  -13.4849   17.7425 H   0  0  0  0  0  0
  -27.8488  -11.2949   18.8390 H   0  0  0  0  0  0
  -27.3662  -12.6000   17.7924 H   0  0  0  0  0  0
  -27.6773  -14.2420   19.5453 H   0  0  0  0  0  0
  -28.7068  -11.9782   21.3433 H   0  0  0  0  0  0
  -28.4605  -13.6204   21.8609 H   0  0  0  0  0  0
  -25.2764   -9.5634   22.4748 H   0  0  0  0  0  0
  -23.9960   -7.4612   22.7527 H   0  0  0  0  0  0
  -21.0795   -8.8760   19.8973 H   0  0  0  0  0  0
  -22.3687  -10.9647   19.6169 H   0  0  0  0  0  0
  -21.2018   -7.6130   23.9671 H   0  0  0  0  0  0
  -21.1498   -6.0525   25.9048 H   0  0  0  0  0  0
  -22.0608   -2.7586   23.2861 H   0  0  0  0  0  0
  -22.4156  -11.9858   22.4717 H   0  0  0  0  0  0
  -21.1176  -13.1254   22.2707 H   0  0  0  0  0  0
  -24.6465  -15.8312   20.5142 H   0  0  0  0  0  0
  -26.2624  -15.6354   20.0616 H   0  0  0  0  0  0
  -26.7159  -32.5454   23.1106 H   0  0  0  0  0  0
  -25.0088  -33.9737   25.0432 H   0  0  0  0  0  0
  -22.7024  -31.3017   21.3910 H   0  0  0  0  0  0
  -23.3735  -35.9672   23.3287 H   0  0  0  0  0  0
  -24.3632  -36.8959   22.2060 H   0  0  0  0  0  0
  -23.7273  -37.6522   23.6691 H   0  0  0  0  0  0
  -26.0713  -31.5742   20.5993 H   0  0  0  0  0  0
  -26.8273  -30.8647   21.9932 H   0  0  0  0  0  0
  -28.1134  -29.0508   21.1780 H   0  0  0  0  0  0
  -26.0292  -25.9562   18.9949 H   0  0  0  0  0  0
  -23.9938  -27.2952   19.0072 H   0  0  0  0  0  0
  -23.7230  -30.5821   19.3937 H   0  0  0  0  0  0
  -22.7520  -29.2255   19.8716 H   0  0  0  0  0  0
  -25.1282  -36.1940   25.0833 H   0  0  0  0  0  0
  -20.9996  -28.3254   24.1360 H   0  0  0  0  0  0
  -20.5634  -26.2294   23.3595 H   0  0  0  0  0  0
  -21.6668  -26.7340   22.1199 H   0  0  0  0  0  0
  -19.6959  -25.6253   21.1214 H   0  0  0  0  0  0
  -19.6719  -27.3118   20.6657 H   0  0  0  0  0  0
  -17.4202  -26.6591   21.3964 H   0  0  0  0  0  0
  -18.0343  -25.9942   22.8909 H   0  0  0  0  0  0
  -19.7971  -30.7136   24.2291 H   0  0  0  0  0  0
  -17.5060  -31.6218   24.5108 H   0  0  0  0  0  0
  -15.5373  -30.2940   23.7593 H   0  0  0  0  0  0
  -15.8676  -28.0731   22.7100 H   0  0  0  0  0  0
  -24.5920  -30.7068   25.7795 H   0  0  0  0  0  0
  -24.8864  -32.2909   26.4775 H   0  0  0  0  0  0
  -25.8015  -30.8984   27.0248 H   0  0  0  0  0  0
  -26.2923  -29.6722   24.1205 H   0  0  0  0  0  0
  -27.4102  -29.7281   25.4657 H   0  0  0  0  0  0
  -27.8747  -30.4287   23.9333 H   0  0  0  0  0  0
  -27.2678  -33.3705   26.1977 H   0  0  0  0  0  0
  -28.3900  -32.6848   25.0320 H   0  0  0  0  0  0
  -28.0678  -31.8522   26.5464 H   0  0  0  0  0  0
  -28.2543  -38.0135   24.7512 H   0  0  0  0  0  0
  -28.1143  -36.2648   24.6254 H   0  0  0  0  0  0
  -27.2329  -37.1429   25.8870 H   0  0  0  0  0  0
  -20.9332  -29.8793   21.6915 H   0  0  0  0  0  0
  -26.0171  -38.2828   24.1391 H   0  0  0  0  0  0
  -29.2188  -18.4712   24.3418 H   0  0  0  0  0  0
  -29.0372  -16.2711   23.1890 H   0  0  0  0  0  0
  -30.7002  -17.9214   19.4901 H   0  0  0  0  0  0
  -29.6462  -21.4619   22.9428 H   0  0  0  0  0  0
  -31.9316  -20.6070   20.9708 H   0  0  0  0  0  0
  -31.9813  -24.2811   24.2710 H   0  0  0  0  0  0
  -30.8939  -23.1911   25.1223 H   0  0  0  0  0  0
  -30.6712  -23.5129   23.4073 H   0  0  0  0  0  0
  -33.9819  -22.9892   25.0607 H   0  0  0  0  0  0
  -34.1897  -21.2879   24.6463 H   0  0  0  0  0  0
  -33.0319  -21.7553   25.8871 H   0  0  0  0  0  0
  -32.3247  -20.0560   23.4752 H   0  0  0  0  0  0
  -31.1852  -20.5518   24.6912 H   0  0  0  0  0  0
  -28.3576  -22.3368   19.8715 H   0  0  0  0  0  0
  -28.8208  -22.6490   21.5104 H   0  0  0  0  0  0
  -28.1318  -25.2076   21.6491 H   0  0  0  0  0  0
  -27.3405  -24.7530   20.1776 H   0  0  0  0  0  0
  -32.8388  -22.3835   22.8974 H   0  0  0  0  0  0
  -29.6131  -24.3519   19.0902 H   0  0  0  0  0  0
  -28.7963  -15.1895   20.9645 H   0  0  0  0  0  0
  -30.3793  -21.5669   19.2590 H   0  0  0  0  0  0
  -31.1110  -22.5630   20.2830 H   0  0  0  0  0  0
  -30.6900  -25.5721   20.7411 H   0  0  0  0  0  0
  1 25  1  0  0  0
  1 30  2  0  0  0
  1 86  1  0  0  0
  2  3  1  0  0  0
  2 25  1  0  0  0
  2 89  1  0  0  0
  2 90  1  0  0  0
  3  4  1  0  0  0
  3 91  1  0  0  0
  3 92  1  0  0  0
  4  5  1  0  0  0
  4 93  1  0  0  0
  4 94  1  0  0  0
  5  6  1  0  0  0
  5 26  1  0  0  0
  5 95  1  0  0  0
  6 25  1  0  0  0
  6 96  1  0  0  0
  6 97  1  0  0  0
  7  8  2  0  0  0
  7 26  1  0  0  0
  7 29  1  0  0  0
  8  9  1  0  0  0
  8 22  1  0  0  0
  9 10  1  0  0  0
  9 27  2  0  0  0
 10 11  2  0  0  0
 10 15  1  0  0  0
 11 12  1  0  0  0
 11 98  1  0  0  0
 12 13  2  0  0  0
 12 99  1  0  0  0
 13 14  1  0  0  0
 13 31  1  0  0  0
 14 15  2  0  0  0
 14100  1  0  0  0
 15101  1  0  0  0
 16 17  2  0  0  0
 16 21  1  0  0  0
 16 31  1  0  0  0
 17 18  1  0  0  0
 17102  1  0  0  0
 18 19  2  0  0  0
 18103  1  0  0  0
 19 20  1  0  0  0
 19 24  1  0  0  0
 20 21  2  0  0  0
 20104  1  0  0  0
 21 23  1  0  0  0
 22 28  1  0  0  0
 22 32  2  0  0  0
 26 27  1  0  0  0
 28105  1  0  0  0
 28106  1  0  0  0
 29107  1  0  0  0
 29108  1  0  0  0
 33 34  1  0  0  0
 33 66  1  0  0  0
 33 70  2  0  0  0
 34 36  1  0  0  0
 34 59  1  0  0  0
 34109  1  0  0  0
 35 44  2  0  0  0
 35 45  1  0  0  0
 35 68  1  0  0  0
 36 56  1  0  0  0
 36110  1  0  0  0
 37 39  1  0  0  0
 37 47  1  0  0  0
 37 66  1  0  0  0
 37111  1  0  0  0
 38 43  2  0  0  0
 38 46  1  0  0  0
 38 47  1  0  0  0
 39 64  1  0  0  0
 39 67  2  0  0  0
 40 52  1  0  0  0
 40 53  2  0  0  0
 40 58  1  0  0  0
 41112  1  0  0  0
 41113  1  0  0  0
 41114  1  0  0  0
 41 48  1  0  0  0
 42 43  1  0  0  0
 42 66  1  0  0  0
 42115  1  0  0  0
 42116  1  0  0  0
 43 44  1  0  0  0
 44117  1  0  0  0
 45 46  2  0  0  0
 45118  1  0  0  0
 46119  1  0  0  0
 47120  1  0  0  0
 47121  1  0  0  0
 48 56  1  0  0  0
 48 65  1  0  0  0
 48122  1  0  0  0
 49 50  1  0  0  0
 49 53  1  0  0  0
 49 64  1  0  0  0
 49123  1  0  0  0
 50 51  1  0  0  0
 50124  1  0  0  0
 50125  1  0  0  0
 51 52  1  0  0  0
 51126  1  0  0  0
 51127  1  0  0  0
 52128  1  0  0  0
 52129  1  0  0  0
 53 54  1  0  0  0
 54 55  2  0  0  0
 54130  1  0  0  0
 55 57  1  0  0  0
 55131  1  0  0  0
 56 69  2  0  0  0
 57 58  2  0  0  0
 57132  1  0  0  0
 58133  1  0  0  0
 59 60  1  0  0  0
 59 61  1  0  0  0
 59 62  1  0  0  0
 60134  1  0  0  0
 60135  1  0  0  0
 60136  1  0  0  0
 61137  1  0  0  0
 61138  1  0  0  0
 61139  1  0  0  0
 62140  1  0  0  0
 62141  1  0  0  0
 62142  1  0  0  0
 63 65  1  0  0  0
 63143  1  0  0  0
 63144  1  0  0  0
 63145  1  0  0  0
 64146  1  0  0  0
 65147  1  0  0  0
 68 83  1  0  0  0
 71 72  2  0  0  0
 71 74  1  0  0  0
 71148  1  0  0  0
 72 76  1  0  0  0
 72149  1  0  0  0
 73 75  1  0  0  0
 73 76  2  0  0  0
 73150  1  0  0  0
 74 75  2  0  0  0
 74 77  1  0  0  0
 75 78  1  0  0  0
 76 86  1  0  0  0
 77 78  1  0  0  0
 77 81  1  0  0  0
 77151  1  0  0  0
 78 87  1  0  0  0
 78152  1  0  0  0
 79153  1  0  0  0
 79154  1  0  0  0
 79155  1  0  0  0
 79 84  1  0  0  0
 80 84  1  0  0  0
 80156  1  0  0  0
 80157  1  0  0  0
 80158  1  0  0  0
 81 84  1  0  0  0
 81159  1  0  0  0
 81160  1  0  0  0
 82 85  1  0  0  0
 82 87  1  0  0  0
 82161  1  0  0  0
 82162  1  0  0  0
 83 85  1  0  0  0
 83163  1  0  0  0
 83164  1  0  0  0
 84165  1  0  0  0
 85 88  1  0  0  0
 85166  1  0  0  0
 86167  1  0  0  0
 87168  1  0  0  0
 87169  1  0  0  0
 88170  1  0  0  0
M  CHG  1  87   1
M  ISO  4   1 100  68 101  83 101  86 100
M  END
> <chiral flag>
0

> <version>
0

> <s_m_source_file>
/data/baiqing/PycharmProjects/Reinvent-master-3.2/result/LINK_invent/BTK/process_docking_weight1_custom_sum_contain_oxygen_bond_distance_aromatic_linkinvent_7_9_3/rearranged_h_0144.sdf

> <i_m_source_file_index>
90

> <r_mmod_Potential_Energy-OPLS-2005>
196.671142578125

> <r_mmod_Stretch_Energy-OPLS-2005>
74.4235382080078

> <r_mmod_Bend_Energy-OPLS-2005>
496.280120849609

> <r_mmod_Torsional_Energy-OPLS-2005>
317.106964111328

> <r_mmod_Improper_Torsional_Energy-OPLS-2005>
17.584321975708

> <r_mmod_Van_der_Waal_Energy-OPLS-2005>
138.072402954102

> <r_mmod_Electrostatic_Energy-OPLS-2005>
-414.974395751953

> <r_mmod_Solvation_Energy-OPLS-2005>
-463.602874755859

> <b_mmod_Minimization_Converged-OPLS-2005>
0

> <r_mmod_RMS_Derivative-OPLS-2005>
4.82541799545288

$$$$
91
                    3D
 Structure written by MMmdl.
159167  0  0  1  0            999 V2000
  -30.5794  -14.8470   20.4608 C   0  0  0  0  0  0
  -30.4396  -12.5229   19.4951 C   0  0  0  0  0  0
  -29.5229  -12.5264   18.2493 C   0  0  0  0  0  0
  -28.0468  -12.3402   18.6543 C   0  0  0  0  0  0
  -27.6363  -13.2470   19.8451 C   0  0  2  0  0  0
  -28.6771  -13.2171   20.9853 C   0  0  0  0  0  0
  -25.2464  -13.8221   20.5692 C   0  0  0  0  0  0
  -24.1771  -13.0444   20.9195 C   0  0  0  0  0  0
  -24.6391  -11.6928   20.8715 C   0  0  0  0  0  0
  -23.9079  -10.4289   21.0379 C   0  0  0  0  0  0
  -24.3631   -9.4218   21.9172 C   0  0  0  0  0  0
  -23.6298   -8.2254   22.0759 C   0  0  0  0  0  0
  -22.4267   -8.0287   21.3567 C   0  0  0  0  0  0
  -21.9909   -9.0247   20.4666 C   0  0  0  0  0  0
  -22.7241  -10.2125   20.3048 C   0  0  0  0  0  0
  -21.6856   -6.0729   22.5272 C   0  0  0  0  0  0
  -21.4017   -6.5637   23.8199 C   0  0  0  0  0  0
  -21.3666   -5.6795   24.9163 C   0  0  0  0  0  0
  -21.6040   -4.3056   24.7219 C   0  0  0  0  0  0
  -21.8819   -3.8146   23.4341 C   0  0  0  0  0  0
  -21.9188   -4.6957   22.3393 C   0  0  0  0  0  0
  -22.7787  -13.5212   21.1864 C   0  0  0  0  0  0
  -22.1662   -4.2149   21.0970 F   0  0  0  0  0  0
  -21.5633   -3.4543   25.7739 F   0  0  0  0  0  0
  -29.9702  -13.6013   20.4064 N   0  0  0  0  0  0
  -26.2897  -12.9460   20.3228 N   0  0  0  0  0  0
  -25.9322  -11.6585   20.5692 N   0  0  0  0  0  0
  -22.0433  -12.8199   22.0419 N   0  0  0  0  0  0
  -25.4136  -15.1950   20.4135 N   0  0  0  0  0  0
  -31.7664  -14.9360   20.1350 O   0  0  0  0  0  0
  -21.6650   -6.8876   21.4236 O   0  0  0  0  0  0
  -22.3458  -14.5509   20.6700 O   0  0  0  0  0  0
  -24.6422  -31.8503   23.1938 C   0  0  0  0  0  0
  -25.9212  -32.4729   23.8323 C   0  0  1  0  0  0
  -27.2116  -27.1788   20.1270 C   0  0  0  0  0  0
  -25.5970  -33.8526   24.2244 N   0  0  0  0  0  0
  -23.4437  -30.4729   21.5398 C   0  0  2  0  0  0
  -24.8909  -28.9195   20.1023 C   0  0  0  0  0  0
  -22.7581  -29.4573   22.4876 C   0  0  0  0  0  0
  -18.0326  -28.1407   22.8480 C   0  0  0  0  0  0
  -24.1490  -36.7261   23.2640 C   0  0  0  0  0  0
  -25.9987  -30.7315   21.3931 C   0  0  0  0  0  0
  -26.0673  -29.3510   20.7285 C   0  0  0  0  0  0
  -27.2266  -28.4921   20.7357 C   0  0  0  0  0  0
  -26.0125  -26.8600   19.4420 C   0  0  0  0  0  0
  -24.8741  -27.6842   19.4477 C   0  0  0  0  0  0
  -23.6666  -29.8147   20.1545 C   0  0  0  0  0  0
  -25.4113  -36.3042   24.0332 C   0  0  1  0  0  0
  -20.5934  -28.3732   23.1233 C   0  0  2  0  0  0
  -20.6809  -26.9440   22.5393 C   0  0  0  0  0  0
  -19.5773  -26.6392   21.5218 C   0  0  0  0  0  0
  -18.1956  -26.7951   22.1629 C   0  0  0  0  0  0
  -19.1575  -28.8896   23.2851 C   0  0  0  0  0  0
  -18.9480  -30.1480   23.8889 C   0  0  0  0  0  0
  -17.6470  -30.6593   24.0559 C   0  0  0  0  0  0
  -25.9064  -34.9423   23.5094 C   0  0  0  0  0  0
  -16.5371  -29.9079   23.6322 C   0  0  0  0  0  0
  -16.7308  -28.6499   23.0362 C   0  0  0  0  0  0
  -26.4534  -31.6582   25.0753 C   0  0  0  0  0  0
  -25.3707  -31.3754   26.1438 C   0  0  0  0  0  0
  -27.0399  -30.2991   24.6306 C   0  0  0  0  0  0
  -27.6088  -32.4327   25.7529 C   0  0  0  0  0  0
  -27.5576  -37.1780   24.8460 C   0  0  0  0  0  0
  -21.4274  -29.3060   22.3613 N   0  0  0  0  0  0
  -26.4282  -37.3748   23.9409 N   0  0  0  0  0  0
  -24.7145  -31.0391   22.0970 N   0  0  0  0  0  0
  -23.4239  -28.8110   23.3014 O   0  0  0  0  0  0
  -28.2436  -26.1804   20.2204 O   0  0  0  0  0  0
  -26.5628  -34.8903   22.4657 O   0  0  0  0  0  0
  -23.5547  -32.1379   23.7166 O   0  0  0  0  0  0
  -28.7697  -22.3227   19.1337 C   0  0  0  0  0  0
  -28.7943  -22.7483   21.4510 C   0  0  0  0  0  0
  -28.6016  -23.3116   20.1578 C   0  0  0  0  0  0
  -29.0128  -20.9107   19.3613 C   0  0  0  0  0  0
  -29.0480  -21.3395   21.7060 C   0  0  0  0  0  0
  -29.1388  -20.3289   20.6659 C   0  0  0  0  0  0
  -29.0495  -19.9979   18.1489 C   0  0  0  0  0  0
  -30.5860  -20.7985   23.6565 C   0  0  0  0  0  0
  -29.1390  -20.9616   23.1797 C   0  0  0  0  0  0
  -29.0904  -18.7049   20.9408 C   0  0  0  0  0  0
  -27.8782  -24.7386   19.8369 C   0  0  0  0  0  0
  -30.1347  -17.5189   20.4493 C   0  0  0  0  0  0
  -29.8095  -16.0039   20.6744 N   0  0  0  0  0  0
  -31.4789  -12.6598   19.1921 H   0  0  0  0  0  0
  -30.4050  -11.5559   19.9996 H   0  0  0  0  0  0
  -29.8249  -11.7409   17.5553 H   0  0  0  0  0  0
  -29.6438  -13.4673   17.7094 H   0  0  0  0  0  0
  -27.9089  -11.2912   18.9204 H   0  0  0  0  0  0
  -27.3956  -12.5248   17.7991 H   0  0  0  0  0  0
  -27.6189  -14.2637   19.4502 H   0  0  0  0  0  0
  -28.7284  -12.2238   21.4338 H   0  0  0  0  0  0
  -28.3909  -13.9013   21.7860 H   0  0  0  0  0  0
  -25.2780   -9.5687   22.4743 H   0  0  0  0  0  0
  -24.0016   -7.4635   22.7465 H   0  0  0  0  0  0
  -21.0848   -8.8745   19.8971 H   0  0  0  0  0  0
  -22.3696  -10.9642   19.6143 H   0  0  0  0  0  0
  -21.2021   -7.6146   23.9697 H   0  0  0  0  0  0
  -21.1493   -6.0533   25.9067 H   0  0  0  0  0  0
  -22.0598   -2.7605   23.2828 H   0  0  0  0  0  0
  -22.4066  -11.9896   22.4857 H   0  0  0  0  0  0
  -21.1033  -13.1198   22.2601 H   0  0  0  0  0  0
  -24.6443  -15.8468   20.5312 H   0  0  0  0  0  0
  -26.2528  -15.6345   20.0605 H   0  0  0  0  0  0
  -26.7296  -32.5339   23.1069 H   0  0  0  0  0  0
  -25.0115  -33.9641   25.0395 H   0  0  0  0  0  0
  -22.7435  -31.2982   21.3934 H   0  0  0  0  0  0
  -23.3756  -35.9584   23.3276 H   0  0  0  0  0  0
  -24.3599  -36.8908   22.2060 H   0  0  0  0  0  0
  -23.7238  -37.6453   23.6684 H   0  0  0  0  0  0
  -26.1569  -31.4882   20.6238 H   0  0  0  0  0  0
  -26.8689  -30.7756   22.0357 H   0  0  0  0  0  0
  -28.1153  -28.8091   21.2635 H   0  0  0  0  0  0
  -25.8965  -25.9322   18.9039 H   0  0  0  0  0  0
  -23.9795  -27.3509   18.9381 H   0  0  0  0  0  0
  -23.7973  -30.5943   19.4036 H   0  0  0  0  0  0
  -22.7824  -29.2551   19.8445 H   0  0  0  0  0  0
  -25.1284  -36.1883   25.0824 H   0  0  0  0  0  0
  -21.0028  -28.3329   24.1355 H   0  0  0  0  0  0
  -20.5731  -26.2346   23.3613 H   0  0  0  0  0  0
  -21.6666  -26.7465   22.1168 H   0  0  0  0  0  0
  -19.6916  -25.6298   21.1263 H   0  0  0  0  0  0
  -19.6699  -27.3187   20.6737 H   0  0  0  0  0  0
  -17.4221  -26.6722   21.4030 H   0  0  0  0  0  0
  -18.0337  -26.0104   22.9033 H   0  0  0  0  0  0
  -19.7945  -30.7306   24.2270 H   0  0  0  0  0  0
  -17.5012  -31.6268   24.5164 H   0  0  0  0  0  0
  -15.5359  -30.2968   23.7648 H   0  0  0  0  0  0
  -15.8719  -28.0789   22.7102 H   0  0  0  0  0  0
  -24.5893  -30.7111   25.7728 H   0  0  0  0  0  0
  -24.8877  -32.2924   26.4827 H   0  0  0  0  0  0
  -25.7966  -30.8932   27.0246 H   0  0  0  0  0  0
  -26.3011  -29.6724   24.1300 H   0  0  0  0  0  0
  -27.4031  -29.7287   25.4864 H   0  0  0  0  0  0
  -27.8916  -30.4265   23.9620 H   0  0  0  0  0  0
  -27.2727  -33.3652   26.2079 H   0  0  0  0  0  0
  -28.3914  -32.6851   25.0358 H   0  0  0  0  0  0
  -28.0753  -31.8467   26.5462 H   0  0  0  0  0  0
  -28.2562  -38.0102   24.7516 H   0  0  0  0  0  0
  -28.1101  -36.2633   24.6258 H   0  0  0  0  0  0
  -27.2301  -37.1390   25.8863 H   0  0  0  0  0  0
  -20.9515  -29.8764   21.6766 H   0  0  0  0  0  0
  -26.0154  -38.2821   24.1393 H   0  0  0  0  0  0
  -28.6092  -22.6412   18.1130 H   0  0  0  0  0  0
  -28.6562  -23.4132   22.2930 H   0  0  0  0  0  0
  -28.6221  -20.4805   17.2700 H   0  0  0  0  0  0
  -28.4744  -19.0883   18.3217 H   0  0  0  0  0  0
  -30.0766  -19.7171   17.9127 H   0  0  0  0  0  0
  -30.6247  -20.6255   24.7317 H   0  0  0  0  0  0
  -31.1699  -21.6966   23.4516 H   0  0  0  0  0  0
  -31.0763  -19.9602   23.1624 H   0  0  0  0  0  0
  -28.5479  -20.0747   23.3956 H   0  0  0  0  0  0
  -28.6681  -21.7423   23.7784 H   0  0  0  0  0  0
  -28.1102  -18.4104   20.5641 H   0  0  0  0  0  0
  -28.9997  -18.5557   22.0125 H   0  0  0  0  0  0
  -26.8875  -24.5563   20.2528 H   0  0  0  0  0  0
  -27.7523  -24.7496   18.7534 H   0  0  0  0  0  0
  -31.1068  -17.7154   20.9028 H   0  0  0  0  0  0
  -30.2945  -17.6341   19.3781 H   0  0  0  0  0  0
  -28.8497  -15.8097   20.9139 H   0  0  0  0  0  0
  1 25  1  0  0  0
  1 30  2  0  0  0
  1 83  1  0  0  0
  2  3  1  0  0  0
  2 25  1  0  0  0
  2 84  1  0  0  0
  2 85  1  0  0  0
  3  4  1  0  0  0
  3 86  1  0  0  0
  3 87  1  0  0  0
  4  5  1  0  0  0
  4 88  1  0  0  0
  4 89  1  0  0  0
  5  6  1  0  0  0
  5 26  1  0  0  0
  5 90  1  0  0  0
  6 25  1  0  0  0
  6 91  1  0  0  0
  6 92  1  0  0  0
  7  8  2  0  0  0
  7 26  1  0  0  0
  7 29  1  0  0  0
  8  9  1  0  0  0
  8 22  1  0  0  0
  9 10  1  0  0  0
  9 27  2  0  0  0
 10 11  2  0  0  0
 10 15  1  0  0  0
 11 12  1  0  0  0
 11 93  1  0  0  0
 12 13  2  0  0  0
 12 94  1  0  0  0
 13 14  1  0  0  0
 13 31  1  0  0  0
 14 15  2  0  0  0
 14 95  1  0  0  0
 15 96  1  0  0  0
 16 17  2  0  0  0
 16 21  1  0  0  0
 16 31  1  0  0  0
 17 18  1  0  0  0
 17 97  1  0  0  0
 18 19  2  0  0  0
 18 98  1  0  0  0
 19 20  1  0  0  0
 19 24  1  0  0  0
 20 21  2  0  0  0
 20 99  1  0  0  0
 21 23  1  0  0  0
 22 28  1  0  0  0
 22 32  2  0  0  0
 26 27  1  0  0  0
 28100  1  0  0  0
 28101  1  0  0  0
 29102  1  0  0  0
 29103  1  0  0  0
 33 34  1  0  0  0
 33 66  1  0  0  0
 33 70  2  0  0  0
 34 36  1  0  0  0
 34 59  1  0  0  0
 34104  1  0  0  0
 35 44  2  0  0  0
 35 45  1  0  0  0
 35 68  1  0  0  0
 36 56  1  0  0  0
 36105  1  0  0  0
 37 39  1  0  0  0
 37 47  1  0  0  0
 37 66  1  0  0  0
 37106  1  0  0  0
 38 43  2  0  0  0
 38 46  1  0  0  0
 38 47  1  0  0  0
 39 64  1  0  0  0
 39 67  2  0  0  0
 40 52  1  0  0  0
 40 53  2  0  0  0
 40 58  1  0  0  0
 41107  1  0  0  0
 41108  1  0  0  0
 41109  1  0  0  0
 41 48  1  0  0  0
 42 43  1  0  0  0
 42 66  1  0  0  0
 42110  1  0  0  0
 42111  1  0  0  0
 43 44  1  0  0  0
 44112  1  0  0  0
 45 46  2  0  0  0
 45113  1  0  0  0
 46114  1  0  0  0
 47115  1  0  0  0
 47116  1  0  0  0
 48 56  1  0  0  0
 48 65  1  0  0  0
 48117  1  0  0  0
 49 50  1  0  0  0
 49 53  1  0  0  0
 49 64  1  0  0  0
 49118  1  0  0  0
 50 51  1  0  0  0
 50119  1  0  0  0
 50120  1  0  0  0
 51 52  1  0  0  0
 51121  1  0  0  0
 51122  1  0  0  0
 52123  1  0  0  0
 52124  1  0  0  0
 53 54  1  0  0  0
 54 55  2  0  0  0
 54125  1  0  0  0
 55 57  1  0  0  0
 55126  1  0  0  0
 56 69  2  0  0  0
 57 58  2  0  0  0
 57127  1  0  0  0
 58128  1  0  0  0
 59 60  1  0  0  0
 59 61  1  0  0  0
 59 62  1  0  0  0
 60129  1  0  0  0
 60130  1  0  0  0
 60131  1  0  0  0
 61132  1  0  0  0
 61133  1  0  0  0
 61134  1  0  0  0
 62135  1  0  0  0
 62136  1  0  0  0
 62137  1  0  0  0
 63 65  1  0  0  0
 63138  1  0  0  0
 63139  1  0  0  0
 63140  1  0  0  0
 64141  1  0  0  0
 65142  1  0  0  0
 68 81  1  0  0  0
 71 73  2  0  0  0
 71 74  1  0  0  0
 71143  1  0  0  0
 72 73  1  0  0  0
 72 75  2  0  0  0
 72144  1  0  0  0
 73 81  1  0  0  0
 74 76  2  0  0  0
 74 77  1  0  0  0
 75 76  1  0  0  0
 75 79  1  0  0  0
 76 80  1  0  0  0
 77145  1  0  0  0
 77146  1  0  0  0
 77147  1  0  0  0
 78 79  1  0  0  0
 78148  1  0  0  0
 78149  1  0  0  0
 78150  1  0  0  0
 79151  1  0  0  0
 79152  1  0  0  0
 80 82  1  0  0  0
 80153  1  0  0  0
 80154  1  0  0  0
 81155  1  0  0  0
 81156  1  0  0  0
 82 83  1  0  0  0
 82157  1  0  0  0
 82158  1  0  0  0
 83159  1  0  0  0
M  ISO  4   1 100  68 101  81 101  83 100
M  END
> <chiral flag>
0

> <version>
0

> <s_m_source_file>
/data/baiqing/PycharmProjects/Reinvent-master-3.2/result/LINK_invent/BTK/process_docking_weight1_custom_sum_contain_oxygen_bond_distance_aromatic_linkinvent_7_9_3/rearranged_h_0144.sdf

> <i_m_source_file_index>
91

> <r_mmod_Potential_Energy-OPLS-2005>
361.205139160156

> <r_mmod_Stretch_Energy-OPLS-2005>
191.630081176758

> <r_mmod_Bend_Energy-OPLS-2005>
234.855163574219

> <r_mmod_Torsional_Energy-OPLS-2005>
225.025482177734

> <r_mmod_Improper_Torsional_Energy-OPLS-2005>
9.98642349243164

> <r_mmod_Van_der_Waal_Energy-OPLS-2005>
143.902526855469

> <r_mmod_Electrostatic_Energy-OPLS-2005>
-379.118957519531

> <r_mmod_Solvation_Energy-OPLS-2005>
-211.309631347656

> <b_mmod_Minimization_Converged-OPLS-2005>
0

> <r_mmod_RMS_Derivative-OPLS-2005>
2.53569412231445

$$$$
92
                    3D
 Structure written by MMmdl.
177187  0  0  1  0            999 V2000
  -30.7191  -14.5066   20.6194 C   0  0  0  0  0  0
  -30.4198  -12.3476   19.4321 C   0  0  0  0  0  0
  -29.4912  -12.5056   18.2109 C   0  0  0  0  0  0
  -28.0190  -12.3212   18.6245 C   0  0  0  0  0  0
  -27.6526  -13.1809   19.8581 C   0  0  2  0  0  0
  -28.6954  -12.9960   20.9912 C   0  0  0  0  0  0
  -25.2579  -13.8091   20.5633 C   0  0  0  0  0  0
  -24.1823  -13.0405   20.9184 C   0  0  0  0  0  0
  -24.6355  -11.6865   20.8762 C   0  0  0  0  0  0
  -23.9024  -10.4268   21.0437 C   0  0  0  0  0  0
  -24.3587   -9.4182   21.9207 C   0  0  0  0  0  0
  -23.6269   -8.2218   22.0762 C   0  0  0  0  0  0
  -22.4255   -8.0263   21.3546 C   0  0  0  0  0  0
  -21.9885   -9.0236   20.4654 C   0  0  0  0  0  0
  -22.7208  -10.2117   20.3073 C   0  0  0  0  0  0
  -21.6838   -6.0726   22.5278 C   0  0  0  0  0  0
  -21.4003   -6.5634   23.8210 C   0  0  0  0  0  0
  -21.3659   -5.6790   24.9175 C   0  0  0  0  0  0
  -21.6046   -4.3053   24.7228 C   0  0  0  0  0  0
  -21.8819   -3.8142   23.4350 C   0  0  0  0  0  0
  -21.9186   -4.6956   22.3404 C   0  0  0  0  0  0
  -22.7856  -13.5234   21.1854 C   0  0  0  0  0  0
  -22.1655   -4.2144   21.0982 F   0  0  0  0  0  0
  -21.5637   -3.4539   25.7742 F   0  0  0  0  0  0
  -30.0184  -13.3414   20.4502 N   0  0  0  0  0  0
  -26.2965  -12.9200   20.3268 N   0  0  0  0  0  0
  -25.9262  -11.6398   20.5758 N   0  0  0  0  0  0
  -22.0487  -12.8244   22.0415 N   0  0  0  0  0  0
  -25.4302  -15.1799   20.3986 N   0  0  0  0  0  0
  -31.8214  -14.6580   20.0799 O   0  0  0  0  0  0
  -21.6622   -6.8863   21.4240 O   0  0  0  0  0  0
  -22.3556  -14.5547   20.6701 O   0  0  0  0  0  0
  -24.6142  -31.8674   23.2092 C   0  0  0  0  0  0
  -25.9037  -32.4817   23.8387 C   0  0  1  0  0  0
  -27.2385  -27.4346   20.1076 C   0  0  0  0  0  0
  -25.5895  -33.8616   24.2325 N   0  0  0  0  0  0
  -23.4027  -30.4885   21.5491 C   0  0  2  0  0  0
  -24.8519  -28.9478   20.1198 C   0  0  0  0  0  0
  -22.7404  -29.4656   22.4997 C   0  0  0  0  0  0
  -18.0270  -28.1375   22.8493 C   0  0  0  0  0  0
  -24.1483  -36.7311   23.2639 C   0  0  0  0  0  0
  -25.9300  -30.8325   21.3619 C   0  0  0  0  0  0
  -26.0098  -29.4636   20.7167 C   0  0  0  0  0  0
  -27.2083  -28.7137   20.7079 C   0  0  0  0  0  0
  -26.0686  -26.9280   19.5077 C   0  0  0  0  0  0
  -24.8755  -27.6782   19.5130 C   0  0  0  0  0  0
  -23.6128  -29.8148   20.1656 C   0  0  0  0  0  0
  -25.4102  -36.3109   24.0342 C   0  0  1  0  0  0
  -20.5860  -28.3657   23.1323 C   0  0  2  0  0  0
  -20.6761  -26.9393   22.5425 C   0  0  0  0  0  0
  -19.5744  -26.6381   21.5215 C   0  0  0  0  0  0
  -18.1920  -26.7925   22.1617 C   0  0  0  0  0  0
  -19.1520  -28.8832   23.2906 C   0  0  0  0  0  0
  -18.9450  -30.1440   23.8910 C   0  0  0  0  0  0
  -17.6452  -30.6582   24.0567 C   0  0  0  0  0  0
  -25.9030  -34.9474   23.5131 C   0  0  0  0  0  0
  -16.5343  -29.9085   23.6330 C   0  0  0  0  0  0
  -16.7258  -28.6502   23.0345 C   0  0  0  0  0  0
  -26.4468  -31.6594   25.0712 C   0  0  0  0  0  0
  -25.3744  -31.3701   26.1471 C   0  0  0  0  0  0
  -27.0290  -30.3036   24.6076 C   0  0  0  0  0  0
  -27.6053  -32.4305   25.7468 C   0  0  0  0  0  0
  -27.5584  -37.1800   24.8462 C   0  0  0  0  0  0
  -21.4134  -29.3026   22.3730 N   0  0  0  0  0  0
  -26.4288  -37.3795   23.9417 N   0  0  0  0  0  0
  -24.6670  -31.0773   22.0990 N   0  0  0  0  0  0
  -23.4175  -28.8209   23.3049 O   0  0  0  0  0  0
  -28.3996  -26.6989   20.0610 O   0  0  0  0  0  0
  -26.5594  -34.8927   22.4693 O   0  0  0  0  0  0
  -23.5336  -32.1425   23.7491 O   0  0  0  0  0  0
  -30.6696  -19.8530   19.3756 C   0  0  0  0  0  0
  -29.6494  -21.0119   21.2447 C   0  0  0  0  0  0
  -30.1045  -19.8029   20.6637 C   0  0  0  0  0  0
  -30.8484  -21.0765   18.6934 C   0  0  0  0  0  0
  -30.4720  -22.2938   19.3270 C   0  0  0  0  0  0
  -29.7998  -22.2560   20.5807 C   0  0  0  0  0  0
  -29.3962  -20.4522   15.7831 C   0  0  0  0  0  0
  -30.6125  -20.3404   14.8955 C   0  0  0  0  0  0
  -29.0006  -17.4929   20.7130 C   0  0  0  0  0  0
  -31.3465  -17.7281   21.5697 C   0  0  0  0  0  0
  -28.9378  -16.1298   21.4399 C   0  0  0  0  0  0
  -31.1943  -16.3300   22.2290 C   0  0  0  0  0  0
  -29.9895  -18.4554   21.3972 C   0  0  0  0  0  0
  -30.7333  -20.0737   16.3789 C   0  0  0  0  0  0
  -30.8615  -23.6299   18.7011 C   0  0  0  0  0  0
  -32.9714  -20.7194   17.3561 C   0  0  0  0  0  0
  -28.5448  -25.7062   21.0875 C   0  0  0  0  0  0
  -28.4055  -24.2444   20.5839 C   0  0  0  0  0  0
  -31.4721  -21.0416   17.2938 C   0  0  2  0  0  0
  -30.2563  -15.4623   21.4866 N   0  0  0  0  0  0
  -29.3722  -23.3978   21.2358 O   0  0  0  0  0  0
  -31.4622  -12.4504   19.1258 H   0  0  0  0  0  0
  -30.3398  -11.3398   19.8429 H   0  0  0  0  0  0
  -29.7566  -11.7814   17.4397 H   0  0  0  0  0  0
  -29.6295  -13.4924   17.7660 H   0  0  0  0  0  0
  -27.8630  -11.2653   18.8485 H   0  0  0  0  0  0
  -27.3580  -12.5556   17.7891 H   0  0  0  0  0  0
  -27.6759  -14.2021   19.4865 H   0  0  0  0  0  0
  -28.6997  -11.9575   21.3254 H   0  0  0  0  0  0
  -28.4397  -13.5670   21.8829 H   0  0  0  0  0  0
  -25.2735   -9.5653   22.4781 H   0  0  0  0  0  0
  -23.9975   -7.4603   22.7476 H   0  0  0  0  0  0
  -21.0820   -8.8756   19.8957 H   0  0  0  0  0  0
  -22.3677  -10.9659   19.6182 H   0  0  0  0  0  0
  -21.1986   -7.6141   23.9710 H   0  0  0  0  0  0
  -21.1487   -6.0524   25.9079 H   0  0  0  0  0  0
  -22.0601   -2.7606   23.2850 H   0  0  0  0  0  0
  -22.4080  -11.9892   22.4799 H   0  0  0  0  0  0
  -21.1113  -13.1296   22.2631 H   0  0  0  0  0  0
  -24.6637  -15.8347   20.5086 H   0  0  0  0  0  0
  -26.2772  -15.6162   20.0590 H   0  0  0  0  0  0
  -26.7108  -32.5534   23.1153 H   0  0  0  0  0  0
  -25.0063  -33.9775   25.0482 H   0  0  0  0  0  0
  -22.6916  -31.3050   21.4068 H   0  0  0  0  0  0
  -23.3750  -35.9641   23.3299 H   0  0  0  0  0  0
  -24.3584  -36.8926   22.2055 H   0  0  0  0  0  0
  -23.7224  -37.6511   23.6650 H   0  0  0  0  0  0
  -26.0390  -31.5945   20.5890 H   0  0  0  0  0  0
  -26.8194  -30.8915   21.9773 H   0  0  0  0  0  0
  -28.1065  -29.1113   21.1594 H   0  0  0  0  0  0
  -26.0840  -25.9570   19.0328 H   0  0  0  0  0  0
  -23.9858  -27.2755   19.0482 H   0  0  0  0  0  0
  -23.7203  -30.5866   19.4025 H   0  0  0  0  0  0
  -22.7378  -29.2324   19.8717 H   0  0  0  0  0  0
  -25.1281  -36.1972   25.0835 H   0  0  0  0  0  0
  -20.9950  -28.3219   24.1443 H   0  0  0  0  0  0
  -20.5659  -26.2264   23.3610 H   0  0  0  0  0  0
  -21.6632  -26.7436   22.1216 H   0  0  0  0  0  0
  -19.6905  -25.6296   21.1234 H   0  0  0  0  0  0
  -19.6695  -27.3202   20.6754 H   0  0  0  0  0  0
  -17.4198  -26.6687   21.4010 H   0  0  0  0  0  0
  -18.0309  -26.0055   22.8997 H   0  0  0  0  0  0
  -19.7927  -30.7256   24.2281 H   0  0  0  0  0  0
  -17.5008  -31.6265   24.5162 H   0  0  0  0  0  0
  -15.5344  -30.2990   23.7650 H   0  0  0  0  0  0
  -15.8655  -28.0830   22.7047 H   0  0  0  0  0  0
  -24.5914  -30.7046   25.7817 H   0  0  0  0  0  0
  -24.8938  -32.2856   26.4931 H   0  0  0  0  0  0
  -25.8107  -30.8866   27.0220 H   0  0  0  0  0  0
  -26.2820  -29.6797   24.1154 H   0  0  0  0  0  0
  -27.4090  -29.7271   25.4519 H   0  0  0  0  0  0
  -27.8643  -30.4355   23.9196 H   0  0  0  0  0  0
  -27.2684  -33.3599   26.2070 H   0  0  0  0  0  0
  -28.3848  -32.6871   25.0283 H   0  0  0  0  0  0
  -28.0735  -31.8412   26.5361 H   0  0  0  0  0  0
  -28.2595  -38.0105   24.7527 H   0  0  0  0  0  0
  -28.1086  -36.2639   24.6259 H   0  0  0  0  0  0
  -27.2312  -37.1414   25.8868 H   0  0  0  0  0  0
  -20.9294  -29.8738   21.6945 H   0  0  0  0  0  0
  -26.0182  -38.2873   24.1432 H   0  0  0  0  0  0
  -30.9932  -18.9330   18.9113 H   0  0  0  0  0  0
  -29.1902  -20.9932   22.2231 H   0  0  0  0  0  0
  -28.6417  -19.6708   15.7129 H   0  0  0  0  0  0
  -29.0135  -21.4499   15.9905 H   0  0  0  0  0  0
  -31.0389  -21.2637   14.5074 H   0  0  0  0  0  0
  -30.6706  -19.4846   14.2254 H   0  0  0  0  0  0
  -28.0078  -17.9445   20.6901 H   0  0  0  0  0  0
  -29.2874  -17.3341   19.6726 H   0  0  0  0  0  0
  -31.8312  -17.6016   20.6014 H   0  0  0  0  0  0
  -32.0197  -18.3453   22.1660 H   0  0  0  0  0  0
  -28.1737  -15.5427   20.9596 H   0  0  0  0  0  0
  -28.5798  -16.2723   22.4607 H   0  0  0  0  0  0
  -30.8306  -16.4429   23.2514 H   0  0  0  0  0  0
  -32.1742  -15.8579   22.3245 H   0  0  0  0  0  0
  -29.6038  -18.6618   22.3973 H   0  0  0  0  0  0
  -30.8444  -19.0264   16.6535 H   0  0  0  0  0  0
  -31.8847  -23.5992   18.3265 H   0  0  0  0  0  0
  -30.8390  -24.4442   19.4242 H   0  0  0  0  0  0
  -30.1966  -23.8802   17.8743 H   0  0  0  0  0  0
  -33.5063  -21.4601   17.9511 H   0  0  0  0  0  0
  -33.4128  -20.7186   16.3592 H   0  0  0  0  0  0
  -33.1552  -19.7409   17.8005 H   0  0  0  0  0  0
  -29.5524  -25.8415   21.4821 H   0  0  0  0  0  0
  -27.8753  -25.8830   21.9318 H   0  0  0  0  0  0
  -28.4913  -24.2169   19.4996 H   0  0  0  0  0  0
  -27.4037  -23.8742   20.8025 H   0  0  0  0  0  0
  -31.3736  -22.0189   16.8245 H   0  0  0  0  0  0
  1 25  1  0  0  0
  1 30  2  0  0  0
  1 90  1  0  0  0
  2  3  1  0  0  0
  2 25  1  0  0  0
  2 92  1  0  0  0
  2 93  1  0  0  0
  3  4  1  0  0  0
  3 94  1  0  0  0
  3 95  1  0  0  0
  4  5  1  0  0  0
  4 96  1  0  0  0
  4 97  1  0  0  0
  5  6  1  0  0  0
  5 26  1  0  0  0
  5 98  1  0  0  0
  6 25  1  0  0  0
  6 99  1  0  0  0
  6100  1  0  0  0
  7  8  2  0  0  0
  7 26  1  0  0  0
  7 29  1  0  0  0
  8  9  1  0  0  0
  8 22  1  0  0  0
  9 10  1  0  0  0
  9 27  2  0  0  0
 10 11  2  0  0  0
 10 15  1  0  0  0
 11 12  1  0  0  0
 11101  1  0  0  0
 12 13  2  0  0  0
 12102  1  0  0  0
 13 14  1  0  0  0
 13 31  1  0  0  0
 14 15  2  0  0  0
 14103  1  0  0  0
 15104  1  0  0  0
 16 17  2  0  0  0
 16 21  1  0  0  0
 16 31  1  0  0  0
 17 18  1  0  0  0
 17105  1  0  0  0
 18 19  2  0  0  0
 18106  1  0  0  0
 19 20  1  0  0  0
 19 24  1  0  0  0
 20 21  2  0  0  0
 20107  1  0  0  0
 21 23  1  0  0  0
 22 28  1  0  0  0
 22 32  2  0  0  0
 26 27  1  0  0  0
 28108  1  0  0  0
 28109  1  0  0  0
 29110  1  0  0  0
 29111  1  0  0  0
 33 34  1  0  0  0
 33 66  1  0  0  0
 33 70  2  0  0  0
 34 36  1  0  0  0
 34 59  1  0  0  0
 34112  1  0  0  0
 35 44  2  0  0  0
 35 45  1  0  0  0
 35 68  1  0  0  0
 36 56  1  0  0  0
 36113  1  0  0  0
 37 39  1  0  0  0
 37 47  1  0  0  0
 37 66  1  0  0  0
 37114  1  0  0  0
 38 43  2  0  0  0
 38 46  1  0  0  0
 38 47  1  0  0  0
 39 64  1  0  0  0
 39 67  2  0  0  0
 40 52  1  0  0  0
 40 53  2  0  0  0
 40 58  1  0  0  0
 41115  1  0  0  0
 41116  1  0  0  0
 41117  1  0  0  0
 41 48  1  0  0  0
 42 43  1  0  0  0
 42 66  1  0  0  0
 42118  1  0  0  0
 42119  1  0  0  0
 43 44  1  0  0  0
 44120  1  0  0  0
 45 46  2  0  0  0
 45121  1  0  0  0
 46122  1  0  0  0
 47123  1  0  0  0
 47124  1  0  0  0
 48 56  1  0  0  0
 48 65  1  0  0  0
 48125  1  0  0  0
 49 50  1  0  0  0
 49 53  1  0  0  0
 49 64  1  0  0  0
 49126  1  0  0  0
 50 51  1  0  0  0
 50127  1  0  0  0
 50128  1  0  0  0
 51 52  1  0  0  0
 51129  1  0  0  0
 51130  1  0  0  0
 52131  1  0  0  0
 52132  1  0  0  0
 53 54  1  0  0  0
 54 55  2  0  0  0
 54133  1  0  0  0
 55 57  1  0  0  0
 55134  1  0  0  0
 56 69  2  0  0  0
 57 58  2  0  0  0
 57135  1  0  0  0
 58136  1  0  0  0
 59 60  1  0  0  0
 59 61  1  0  0  0
 59 62  1  0  0  0
 60137  1  0  0  0
 60138  1  0  0  0
 60139  1  0  0  0
 61140  1  0  0  0
 61141  1  0  0  0
 61142  1  0  0  0
 62143  1  0  0  0
 62144  1  0  0  0
 62145  1  0  0  0
 63 65  1  0  0  0
 63146  1  0  0  0
 63147  1  0  0  0
 63148  1  0  0  0
 64149  1  0  0  0
 65150  1  0  0  0
 68 87  1  0  0  0
 71 73  2  0  0  0
 71 74  1  0  0  0
 71151  1  0  0  0
 72 73  1  0  0  0
 72 76  2  0  0  0
 72152  1  0  0  0
 73 83  1  0  0  0
 74 75  2  0  0  0
 74 89  1  0  0  0
 75 76  1  0  0  0
 75 85  1  0  0  0
 76 91  1  0  0  0
 77 78  1  0  0  0
 77153  1  0  0  0
 77154  1  0  0  0
 77 84  1  0  0  0
 78 84  1  0  0  0
 78155  1  0  0  0
 78156  1  0  0  0
 79 81  1  0  0  0
 79 83  1  0  0  0
 79157  1  0  0  0
 79158  1  0  0  0
 80 82  1  0  0  0
 80 83  1  0  0  0
 80159  1  0  0  0
 80160  1  0  0  0
 81 90  1  0  0  0
 81161  1  0  0  0
 81162  1  0  0  0
 82 90  1  0  0  0
 82163  1  0  0  0
 82164  1  0  0  0
 83165  1  0  0  0
 84 89  1  0  0  0
 84166  1  0  0  0
 85167  1  0  0  0
 85168  1  0  0  0
 85169  1  0  0  0
 86170  1  0  0  0
 86171  1  0  0  0
 86172  1  0  0  0
 86 89  1  0  0  0
 87 88  1  0  0  0
 87173  1  0  0  0
 87174  1  0  0  0
 88 91  1  0  0  0
 88175  1  0  0  0
 88176  1  0  0  0
 89177  1  0  0  0
M  ISO  4   1 100  68 101  87 101  90 100
M  END
> <chiral flag>
0

> <version>
0

> <s_m_source_file>
/data/baiqing/PycharmProjects/Reinvent-master-3.2/result/LINK_invent/BTK/process_docking_weight1_custom_sum_contain_oxygen_bond_distance_aromatic_linkinvent_7_9_3/rearranged_h_0144.sdf

> <i_m_source_file_index>
92

> <r_mmod_Potential_Energy-OPLS-2005>
233.346237182617

> <r_mmod_Stretch_Energy-OPLS-2005>
47.1196365356445

> <r_mmod_Bend_Energy-OPLS-2005>
117.89852142334

> <r_mmod_Torsional_Energy-OPLS-2005>
390.192993164062

> <r_mmod_Improper_Torsional_Energy-OPLS-2005>
4.58900499343872

> <r_mmod_Van_der_Waal_Energy-OPLS-2005>
159.413589477539

> <r_mmod_Electrostatic_Energy-OPLS-2005>
-308.492279052734

> <r_mmod_Solvation_Energy-OPLS-2005>
-191.686737060547

> <b_mmod_Minimization_Converged-OPLS-2005>
0

> <r_mmod_RMS_Derivative-OPLS-2005>
0.60517156124115

$$$$
93
                    3D
 Structure written by MMmdl.
170179  0  0  1  0            999 V2000
  -30.5915  -14.6187   20.5490 C   0  0  0  0  0  0
  -30.4494  -12.3892   19.4554 C   0  0  0  0  0  0
  -29.5168  -12.5191   18.2261 C   0  0  0  0  0  0
  -28.0295  -12.3729   18.6207 C   0  0  0  0  0  0
  -27.6570  -13.2072   19.8755 C   0  0  2  0  0  0
  -28.6988  -13.0067   20.9987 C   0  0  0  0  0  0
  -25.2547  -13.8164   20.5708 C   0  0  0  0  0  0
  -24.1804  -13.0431   20.9180 C   0  0  0  0  0  0
  -24.6329  -11.6901   20.8685 C   0  0  0  0  0  0
  -23.8996  -10.4291   21.0403 C   0  0  0  0  0  0
  -24.3561   -9.4210   21.9157 C   0  0  0  0  0  0
  -23.6251   -8.2233   22.0723 C   0  0  0  0  0  0
  -22.4244   -8.0279   21.3535 C   0  0  0  0  0  0
  -21.9869   -9.0223   20.4628 C   0  0  0  0  0  0
  -22.7177  -10.2108   20.3036 C   0  0  0  0  0  0
  -21.6853   -6.0725   22.5273 C   0  0  0  0  0  0
  -21.4029   -6.5628   23.8201 C   0  0  0  0  0  0
  -21.3647   -5.6767   24.9155 C   0  0  0  0  0  0
  -21.6040   -4.3024   24.7207 C   0  0  0  0  0  0
  -21.8813   -3.8131   23.4324 C   0  0  0  0  0  0
  -21.9185   -4.6952   22.3391 C   0  0  0  0  0  0
  -22.7827  -13.5234   21.1849 C   0  0  0  0  0  0
  -22.1644   -4.2132   21.0968 F   0  0  0  0  0  0
  -21.5633   -3.4513   25.7713 F   0  0  0  0  0  0
  -30.0162  -13.3824   20.4527 N   0  0  0  0  0  0
  -26.2975  -12.9317   20.3351 N   0  0  0  0  0  0
  -25.9268  -11.6468   20.5723 N   0  0  0  0  0  0
  -22.0438  -12.8240   22.0387 N   0  0  0  0  0  0
  -25.4234  -15.1895   20.4223 N   0  0  0  0  0  0
  -31.7416  -14.8494   20.1556 O   0  0  0  0  0  0
  -21.6634   -6.8861   21.4230 O   0  0  0  0  0  0
  -22.3543  -14.5560   20.6681 O   0  0  0  0  0  0
  -24.6221  -31.8630   23.2069 C   0  0  0  0  0  0
  -25.9094  -32.4788   23.8391 C   0  0  1  0  0  0
  -27.2592  -27.4030   20.0975 C   0  0  0  0  0  0
  -25.5947  -33.8599   24.2335 N   0  0  0  0  0  0
  -23.4116  -30.4836   21.5491 C   0  0  2  0  0  0
  -24.8602  -28.9324   20.1273 C   0  0  0  0  0  0
  -22.7486  -29.4605   22.5010 C   0  0  0  0  0  0
  -18.0295  -28.1369   22.8454 C   0  0  0  0  0  0
  -24.1494  -36.7304   23.2629 C   0  0  0  0  0  0
  -25.9420  -30.8167   21.3614 C   0  0  0  0  0  0
  -26.0201  -29.4431   20.7192 C   0  0  0  0  0  0
  -27.2206  -28.6892   20.6920 C   0  0  0  0  0  0
  -26.0688  -26.8941   19.5324 C   0  0  0  0  0  0
  -24.8806  -27.6576   19.5319 C   0  0  0  0  0  0
  -23.6221  -29.8080   20.1667 C   0  0  0  0  0  0
  -25.4119  -36.3114   24.0346 C   0  0  1  0  0  0
  -20.5895  -28.3659   23.1306 C   0  0  2  0  0  0
  -20.6795  -26.9394   22.5383 C   0  0  0  0  0  0
  -19.5767  -26.6421   21.5177 C   0  0  0  0  0  0
  -18.1947  -26.7920   22.1581 C   0  0  0  0  0  0
  -19.1543  -28.8834   23.2875 C   0  0  0  0  0  0
  -18.9451  -30.1434   23.8909 C   0  0  0  0  0  0
  -17.6446  -30.6545   24.0569 C   0  0  0  0  0  0
  -25.9064  -34.9473   23.5149 C   0  0  0  0  0  0
  -16.5344  -29.9063   23.6298 C   0  0  0  0  0  0
  -16.7285  -28.6488   23.0295 C   0  0  0  0  0  0
  -26.4527  -31.6556   25.0708 C   0  0  0  0  0  0
  -25.3791  -31.3629   26.1444 C   0  0  0  0  0  0
  -27.0337  -30.3015   24.6009 C   0  0  0  0  0  0
  -27.6132  -32.4258   25.7434 C   0  0  0  0  0  0
  -27.5596  -37.1798   24.8470 C   0  0  0  0  0  0
  -21.4207  -29.3024   22.3757 N   0  0  0  0  0  0
  -26.4314  -37.3796   23.9423 N   0  0  0  0  0  0
  -24.6777  -31.0705   22.0976 N   0  0  0  0  0  0
  -23.4251  -28.8144   23.3057 O   0  0  0  0  0  0
  -28.4638  -26.7219   19.9900 O   0  0  0  0  0  0
  -26.5606  -34.8927   22.4696 O   0  0  0  0  0  0
  -23.5401  -32.1392   23.7453 O   0  0  0  0  0  0
  -28.8496  -23.0060   19.7003 C   0  0  0  0  0  0
  -28.6134  -24.9862   21.6670 C   0  0  0  0  0  0
  -28.7786  -24.3746   19.3298 C   0  0  0  0  0  0
  -28.6836  -22.6034   21.0472 C   0  0  0  0  0  0
  -28.5856  -25.3781   20.3149 C   0  0  0  0  0  0
  -28.6735  -23.6181   22.0484 C   0  0  0  0  0  0
  -29.7838  -19.3147   22.3465 C   0  0  0  0  0  0
  -29.5712  -19.4442   19.8403 C   0  0  0  0  0  0
  -29.9911  -17.7601   22.3333 C   0  0  0  0  0  0
  -30.1329  -17.9658   19.7929 C   0  0  0  0  0  0
  -28.8875  -19.8170   21.1867 C   0  0  2  0  0  0
  -29.6372  -17.0853   20.9773 C   0  0  1  0  0  0
  -28.8247  -24.7258   17.8569 C   0  0  0  0  0  0
  -26.7502  -21.1278   20.6456 C   0  0  0  0  0  0
  -29.1523  -24.1742   24.3220 C   0  0  0  0  0  0
  -28.1105  -21.1957   21.3729 C   0  0  2  0  0  0
  -29.7183  -15.5908   20.9329 N   0  0  0  0  0  0
  -28.6445  -23.2383   23.3728 O   0  0  0  0  0  0
  -31.4909  -12.5368   19.1675 H   0  0  0  0  0  0
  -30.3932  -11.3865   19.8815 H   0  0  0  0  0  0
  -29.7771  -11.7769   17.4729 H   0  0  0  0  0  0
  -29.6671  -13.4934   17.7605 H   0  0  0  0  0  0
  -27.8388  -11.3176   18.8098 H   0  0  0  0  0  0
  -27.3847  -12.6585   17.7859 H   0  0  0  0  0  0
  -27.6868  -14.2516   19.5671 H   0  0  0  0  0  0
  -28.7109  -11.9632   21.3223 H   0  0  0  0  0  0
  -28.4361  -13.5798   21.8891 H   0  0  0  0  0  0
  -25.2676   -9.5687   22.4737 H   0  0  0  0  0  0
  -23.9961   -7.4627   22.7445 H   0  0  0  0  0  0
  -21.0785   -8.8736   19.8940 H   0  0  0  0  0  0
  -22.3615  -10.9657   19.6165 H   0  0  0  0  0  0
  -21.2046   -7.6128   23.9726 H   0  0  0  0  0  0
  -21.1486   -6.0473   25.9067 H   0  0  0  0  0  0
  -22.0612   -2.7600   23.2824 H   0  0  0  0  0  0
  -22.4098  -11.9906   22.4757 H   0  0  0  0  0  0
  -21.1098  -13.1336   22.2658 H   0  0  0  0  0  0
  -24.6489  -15.8363   20.5379 H   0  0  0  0  0  0
  -26.2699  -15.6463   20.0988 H   0  0  0  0  0  0
  -26.7166  -32.5490   23.1160 H   0  0  0  0  0  0
  -25.0185  -33.9738   25.0533 H   0  0  0  0  0  0
  -22.6979  -31.2993   21.4121 H   0  0  0  0  0  0
  -23.3765  -35.9621   23.3288 H   0  0  0  0  0  0
  -24.3585  -36.8907   22.2039 H   0  0  0  0  0  0
  -23.7209  -37.6511   23.6609 H   0  0  0  0  0  0
  -26.0558  -31.5659   20.5783 H   0  0  0  0  0  0
  -26.8337  -30.8798   21.9736 H   0  0  0  0  0  0
  -28.1313  -29.0968   21.1044 H   0  0  0  0  0  0
  -26.0650  -25.9126   19.0771 H   0  0  0  0  0  0
  -23.9898  -27.2589   19.0652 H   0  0  0  0  0  0
  -23.7384  -30.5809   19.4068 H   0  0  0  0  0  0
  -22.7452  -29.2329   19.8648 H   0  0  0  0  0  0
  -25.1265  -36.2029   25.0835 H   0  0  0  0  0  0
  -20.9960  -28.3218   24.1440 H   0  0  0  0  0  0
  -20.5721  -26.2243   23.3553 H   0  0  0  0  0  0
  -21.6656  -26.7468   22.1141 H   0  0  0  0  0  0
  -19.6944  -25.6369   21.1144 H   0  0  0  0  0  0
  -19.6721  -27.3276   20.6763 H   0  0  0  0  0  0
  -17.4239  -26.6701   21.3951 H   0  0  0  0  0  0
  -18.0340  -26.0024   22.8938 H   0  0  0  0  0  0
  -19.7928  -30.7220   24.2313 H   0  0  0  0  0  0
  -17.4997  -31.6204   24.5198 H   0  0  0  0  0  0
  -15.5348  -30.2954   23.7572 H   0  0  0  0  0  0
  -15.8695  -28.0796   22.6984 H   0  0  0  0  0  0
  -24.5973  -30.6991   25.7734 H   0  0  0  0  0  0
  -24.8975  -32.2760   26.4948 H   0  0  0  0  0  0
  -25.8147  -30.8738   27.0167 H   0  0  0  0  0  0
  -26.2831  -29.6761   24.1164 H   0  0  0  0  0  0
  -27.4267  -29.7251   25.4389 H   0  0  0  0  0  0
  -27.8602  -30.4353   23.9030 H   0  0  0  0  0  0
  -27.2803  -33.3542   26.2087 H   0  0  0  0  0  0
  -28.3886  -32.6853   25.0210 H   0  0  0  0  0  0
  -28.0877  -31.8340   26.5267 H   0  0  0  0  0  0
  -28.2638  -38.0084   24.7539 H   0  0  0  0  0  0
  -28.1087  -36.2622   24.6288 H   0  0  0  0  0  0
  -27.2309  -37.1432   25.8875 H   0  0  0  0  0  0
  -20.9415  -29.8775   21.6964 H   0  0  0  0  0  0
  -26.0229  -38.2888   24.1429 H   0  0  0  0  0  0
  -28.9106  -22.2540   18.9253 H   0  0  0  0  0  0
  -28.5342  -25.7733   22.4045 H   0  0  0  0  0  0
  -30.7519  -19.8137   22.2827 H   0  0  0  0  0  0
  -29.3663  -19.6150   23.3091 H   0  0  0  0  0  0
  -28.8590  -19.5951   19.0281 H   0  0  0  0  0  0
  -30.3858  -20.1460   19.6521 H   0  0  0  0  0  0
  -29.3643  -17.3186   23.1120 H   0  0  0  0  0  0
  -31.0183  -17.5281   22.6160 H   0  0  0  0  0  0
  -31.2241  -18.0018   19.8039 H   0  0  0  0  0  0
  -29.8619  -17.5139   18.8372 H   0  0  0  0  0  0
  -28.0394  -19.1414   21.2582 H   0  0  0  0  0  0
  -28.5529  -17.1514   20.9013 H   0  0  0  0  0  0
  -29.7587  -24.3907   17.4068 H   0  0  0  0  0  0
  -28.7433  -25.7977   17.6783 H   0  0  0  0  0  0
  -28.0020  -24.2320   17.3406 H   0  0  0  0  0  0
  -26.1350  -21.9989   20.8841 H   0  0  0  0  0  0
  -26.1738  -20.2440   20.9154 H   0  0  0  0  0  0
  -26.8748  -21.1180   19.5624 H   0  0  0  0  0  0
  -28.4473  -24.9894   24.4904 H   0  0  0  0  0  0
  -30.1075  -24.5902   23.9937 H   0  0  0  0  0  0
  -29.3276  -23.6871   25.2811 H   0  0  0  0  0  0
  -27.8422  -21.2109   22.4288 H   0  0  0  0  0  0
  -28.8291  -15.1728   21.1657 H   0  0  0  0  0  0
  1 25  1  0  0  0
  1 30  2  0  0  0
  1 87  1  0  0  0
  2  3  1  0  0  0
  2 25  1  0  0  0
  2 89  1  0  0  0
  2 90  1  0  0  0
  3  4  1  0  0  0
  3 91  1  0  0  0
  3 92  1  0  0  0
  4  5  1  0  0  0
  4 93  1  0  0  0
  4 94  1  0  0  0
  5  6  1  0  0  0
  5 26  1  0  0  0
  5 95  1  0  0  0
  6 25  1  0  0  0
  6 96  1  0  0  0
  6 97  1  0  0  0
  7  8  2  0  0  0
  7 26  1  0  0  0
  7 29  1  0  0  0
  8  9  1  0  0  0
  8 22  1  0  0  0
  9 10  1  0  0  0
  9 27  2  0  0  0
 10 11  2  0  0  0
 10 15  1  0  0  0
 11 12  1  0  0  0
 11 98  1  0  0  0
 12 13  2  0  0  0
 12 99  1  0  0  0
 13 14  1  0  0  0
 13 31  1  0  0  0
 14 15  2  0  0  0
 14100  1  0  0  0
 15101  1  0  0  0
 16 17  2  0  0  0
 16 21  1  0  0  0
 16 31  1  0  0  0
 17 18  1  0  0  0
 17102  1  0  0  0
 18 19  2  0  0  0
 18103  1  0  0  0
 19 20  1  0  0  0
 19 24  1  0  0  0
 20 21  2  0  0  0
 20104  1  0  0  0
 21 23  1  0  0  0
 22 28  1  0  0  0
 22 32  2  0  0  0
 26 27  1  0  0  0
 28105  1  0  0  0
 28106  1  0  0  0
 29107  1  0  0  0
 29108  1  0  0  0
 33 34  1  0  0  0
 33 66  1  0  0  0
 33 70  2  0  0  0
 34 36  1  0  0  0
 34 59  1  0  0  0
 34109  1  0  0  0
 35 44  2  0  0  0
 35 45  1  0  0  0
 35 68  1  0  0  0
 36 56  1  0  0  0
 36110  1  0  0  0
 37 39  1  0  0  0
 37 47  1  0  0  0
 37 66  1  0  0  0
 37111  1  0  0  0
 38 43  2  0  0  0
 38 46  1  0  0  0
 38 47  1  0  0  0
 39 64  1  0  0  0
 39 67  2  0  0  0
 40 52  1  0  0  0
 40 53  2  0  0  0
 40 58  1  0  0  0
 41112  1  0  0  0
 41113  1  0  0  0
 41114  1  0  0  0
 41 48  1  0  0  0
 42 43  1  0  0  0
 42 66  1  0  0  0
 42115  1  0  0  0
 42116  1  0  0  0
 43 44  1  0  0  0
 44117  1  0  0  0
 45 46  2  0  0  0
 45118  1  0  0  0
 46119  1  0  0  0
 47120  1  0  0  0
 47121  1  0  0  0
 48 56  1  0  0  0
 48 65  1  0  0  0
 48122  1  0  0  0
 49 50  1  0  0  0
 49 53  1  0  0  0
 49 64  1  0  0  0
 49123  1  0  0  0
 50 51  1  0  0  0
 50124  1  0  0  0
 50125  1  0  0  0
 51 52  1  0  0  0
 51126  1  0  0  0
 51127  1  0  0  0
 52128  1  0  0  0
 52129  1  0  0  0
 53 54  1  0  0  0
 54 55  2  0  0  0
 54130  1  0  0  0
 55 57  1  0  0  0
 55131  1  0  0  0
 56 69  2  0  0  0
 57 58  2  0  0  0
 57132  1  0  0  0
 58133  1  0  0  0
 59 60  1  0  0  0
 59 61  1  0  0  0
 59 62  1  0  0  0
 60134  1  0  0  0
 60135  1  0  0  0
 60136  1  0  0  0
 61137  1  0  0  0
 61138  1  0  0  0
 61139  1  0  0  0
 62140  1  0  0  0
 62141  1  0  0  0
 62142  1  0  0  0
 63 65  1  0  0  0
 63143  1  0  0  0
 63144  1  0  0  0
 63145  1  0  0  0
 64146  1  0  0  0
 65147  1  0  0  0
 68 75  1  0  0  0
 71 73  2  0  0  0
 71 74  1  0  0  0
 71148  1  0  0  0
 72 75  2  0  0  0
 72 76  1  0  0  0
 72149  1  0  0  0
 73 75  1  0  0  0
 73 83  1  0  0  0
 74 76  2  0  0  0
 74 86  1  0  0  0
 76 88  1  0  0  0
 77 79  1  0  0  0
 77150  1  0  0  0
 77151  1  0  0  0
 77 81  1  0  0  0
 78 80  1  0  0  0
 78 81  1  0  0  0
 78152  1  0  0  0
 78153  1  0  0  0
 79 82  1  0  0  0
 79154  1  0  0  0
 79155  1  0  0  0
 80 82  1  0  0  0
 80156  1  0  0  0
 80157  1  0  0  0
 81 86  1  0  0  0
 81158  1  0  0  0
 82 87  1  0  0  0
 82159  1  0  0  0
 83160  1  0  0  0
 83161  1  0  0  0
 83162  1  0  0  0
 84163  1  0  0  0
 84164  1  0  0  0
 84165  1  0  0  0
 84 86  1  0  0  0
 85 88  1  0  0  0
 85166  1  0  0  0
 85167  1  0  0  0
 85168  1  0  0  0
 86169  1  0  0  0
 87170  1  0  0  0
M  ISO  4   1 100  68 101  75 101  87 100
M  END
> <chiral flag>
0

> <version>
0

> <s_m_source_file>
/data/baiqing/PycharmProjects/Reinvent-master-3.2/result/LINK_invent/BTK/process_docking_weight1_custom_sum_contain_oxygen_bond_distance_aromatic_linkinvent_7_9_3/rearranged_h_0144.sdf

> <i_m_source_file_index>
93

> <r_mmod_Potential_Energy-OPLS-2005>
148.176910400391

> <r_mmod_Stretch_Energy-OPLS-2005>
59.4766120910645

> <r_mmod_Bend_Energy-OPLS-2005>
192.223373413086

> <r_mmod_Torsional_Energy-OPLS-2005>
286.132415771484

> <r_mmod_Improper_Torsional_Energy-OPLS-2005>
8.64725399017334

> <r_mmod_Van_der_Waal_Energy-OPLS-2005>
154.231414794922

> <r_mmod_Electrostatic_Energy-OPLS-2005>
-383.429595947266

> <r_mmod_Solvation_Energy-OPLS-2005>
-200.540832519531

> <b_mmod_Minimization_Converged-OPLS-2005>
0

> <r_mmod_RMS_Derivative-OPLS-2005>
5.67636203765869

$$$$
94
                    3D
 Structure written by MMmdl.
176185  0  0  1  0            999 V2000
  -29.4949  -16.2351   20.9107 C   0  0  0  0  0  0
  -30.2144  -13.6661   19.8121 C   0  0  0  0  0  0
  -29.5527  -12.9495   18.5552 C   0  0  0  0  0  0
  -28.1851  -12.3639   18.8999 C   0  0  0  0  0  0
  -27.5059  -13.3346   19.8778 C   0  0  2  0  0  0
  -28.3443  -13.7518   21.1080 C   0  0  0  0  0  0
  -25.1784  -13.8268   20.5734 C   0  0  0  0  0  0
  -24.1325  -13.0340   20.9221 C   0  0  0  0  0  0
  -24.6139  -11.6880   20.8814 C   0  0  0  0  0  0
  -23.8964  -10.4235   21.0398 C   0  0  0  0  0  0
  -24.3561   -9.4194   21.9213 C   0  0  0  0  0  0
  -23.6270   -8.2194   22.0763 C   0  0  0  0  0  0
  -22.4242   -8.0229   21.3538 C   0  0  0  0  0  0
  -21.9850   -9.0180   20.4639 C   0  0  0  0  0  0
  -22.7127  -10.2066   20.3062 C   0  0  0  0  0  0
  -21.6863   -6.0744   22.5303 C   0  0  0  0  0  0
  -21.3996   -6.5639   23.8236 C   0  0  0  0  0  0
  -21.3647   -5.6774   24.9188 C   0  0  0  0  0  0
  -21.6043   -4.3045   24.7226 C   0  0  0  0  0  0
  -21.8824   -3.8157   23.4336 C   0  0  0  0  0  0
  -21.9168   -4.6977   22.3403 C   0  0  0  0  0  0
  -22.7380  -13.5079   21.1929 C   0  0  0  0  0  0
  -22.1665   -4.2147   21.1003 F   0  0  0  0  0  0
  -21.5605   -3.4552   25.7757 F   0  0  0  0  0  0
  -29.3075  -14.7371   20.6128 N   0  0  0  0  0  0
  -26.2005  -12.9543   20.2990 N   0  0  0  0  0  0
  -25.9018  -11.6620   20.5611 N   0  0  0  0  0  0
  -22.0102  -12.8110   22.0559 N   0  0  0  0  0  0
  -25.3426  -15.2032   20.4265 N   0  0  0  0  0  0
  -30.7449  -16.2133   20.6261 O   0  0  0  0  0  0
  -21.6603   -6.8847   21.4243 O   0  0  0  0  0  0
  -22.3068  -14.5371   20.6747 O   0  0  0  0  0  0
  -24.7869  -31.7718   23.2432 C   0  0  0  0  0  0
  -26.0042  -32.4432   23.8994 C   0  0  1  0  0  0
  -27.0051  -27.3023   19.9498 C   0  0  0  0  0  0
  -25.6263  -33.8257   24.2532 N   0  0  0  0  0  0
  -23.9223  -30.1828   21.4098 C   0  0  2  0  0  0
  -25.2956  -29.2753   19.7173 C   0  0  0  0  0  0
  -23.3418  -28.7783   22.0511 C   0  0  0  0  0  0
  -17.9366  -27.7828   22.8924 C   0  0  0  0  0  0
  -24.1491  -36.7162   23.2612 C   0  0  0  0  0  0
  -26.2744  -30.6560   21.5685 C   0  0  0  0  0  0
  -26.3196  -29.4475   20.6564 C   0  0  0  0  0  0
  -27.2657  -28.4213   20.7539 C   0  0  0  0  0  0
  -26.4747  -27.4869   18.7032 C   0  0  0  0  0  0
  -25.3996  -28.3918   18.6537 C   0  0  0  0  0  0
  -24.1836  -30.1586   19.8908 C   0  0  0  0  0  0
  -25.4101  -36.2810   24.0305 C   0  0  1  0  0  0
  -20.6476  -27.4690   22.9176 C   0  0  2  0  0  0
  -20.3995  -26.1806   22.2515 C   0  0  0  0  0  0
  -19.2534  -26.2962   21.2967 C   0  0  0  0  0  0
  -17.9423  -26.5421   22.0557 C   0  0  0  0  0  0
  -19.1525  -28.1145   23.5301 C   0  0  0  0  0  0
  -18.9355  -29.1737   24.5318 C   0  0  0  0  0  0
  -17.7628  -30.0045   24.6125 C   0  0  0  0  0  0
  -25.9116  -34.9158   23.5152 C   0  0  0  0  0  0
  -16.5793  -29.5719   23.9834 C   0  0  0  0  0  0
  -16.6932  -28.4703   23.1226 C   0  0  0  0  0  0
  -26.5125  -31.6505   25.1654 C   0  0  0  0  0  0
  -25.4102  -31.4028   26.2151 C   0  0  0  0  0  0
  -27.1277  -30.2732   24.8126 C   0  0  0  0  0  0
  -27.6418  -32.4412   25.8459 C   0  0  0  0  0  0
  -27.5529  -37.1824   24.8490 C   0  0  0  0  0  0
  -21.9917  -28.1185   22.0316 N   0  0  0  0  0  0
  -26.4262  -37.3547   23.9324 N   0  0  0  0  0  0
  -24.9761  -30.8786   22.1862 N   0  0  0  0  0  0
  -24.2594  -28.3370   22.7486 O   0  0  0  0  0  0
  -26.0236  -26.5137   20.5139 O   0  0  0  0  0  0
  -26.5596  -34.8588   22.4695 O   0  0  0  0  0  0
  -23.6990  -32.0839   23.7530 O   0  0  0  0  0  0
  -21.6272  -31.0508   22.4597 C   0  0  0  0  0  0
  -21.5661  -30.9894   20.8840 C   0  0  0  0  0  0
  -20.0657  -29.5425   21.0914 C   0  0  0  0  0  0
  -20.1096  -30.1461   22.4560 C   0  0  0  0  0  0
  -21.3600  -29.9552   23.4765 C   0  0  0  0  0  0
  -21.2065  -29.7264   20.2547 C   0  0  0  0  0  0
  -17.5176  -31.0436   21.7602 C   0  0  0  0  0  0
  -18.3435  -32.1036   21.1970 C   0  0  0  0  0  0
  -18.9178  -31.2678   22.4017 C   0  0  0  0  0  0
  -27.8780  -22.1337   22.4972 C   0  0  0  0  0  0
  -22.4762  -28.3096   24.4213 C   0  0  0  0  0  0
  -27.3136  -19.1510   21.9822 C   0  0  0  0  0  0
  -23.3235  -26.1662   24.0179 C   0  0  0  0  0  0
  -25.1685  -22.8957   23.0635 C   0  0  0  0  0  0
  -24.4557  -26.4035   19.9657 C   0  0  0  0  0  0
  -22.8509  -27.2698   19.6692 C   0  0  0  0  0  0
  -26.5951  -21.3210   22.2335 C   0  0  2  0  0  0
  -28.6462  -17.7364   21.2842 N   0  0  0  0  0  0
  -24.5703  -24.8132   23.2025 N   0  3  0  0  0  0
  -21.9890  -28.6897   19.4227 O   0  0  0  0  0  0
  -31.1195  -14.1537   19.4462 H   0  0  0  0  0  0
  -30.5970  -12.9122   20.4987 H   0  0  0  0  0  0
  -30.2127  -12.1840   18.1440 H   0  0  0  0  0  0
  -29.4202  -13.6941   17.7706 H   0  0  0  0  0  0
  -28.3212  -11.3839   19.3728 H   0  0  0  0  0  0
  -27.5863  -12.1991   18.0085 H   0  0  0  0  0  0
  -27.3663  -14.2264   19.2660 H   0  0  0  0  0  0
  -28.7747  -12.8922   21.6294 H   0  0  0  0  0  0
  -27.7159  -14.2618   21.8420 H   0  0  0  0  0  0
  -25.2691   -9.5679   22.4809 H   0  0  0  0  0  0
  -23.9973   -7.4591   22.7482 H   0  0  0  0  0  0
  -21.0783   -8.8677   19.8983 H   0  0  0  0  0  0
  -22.3566  -10.9611   19.6187 H   0  0  0  0  0  0
  -21.2026   -7.6165   23.9723 H   0  0  0  0  0  0
  -21.1453   -6.0539   25.9074 H   0  0  0  0  0  0
  -22.0616   -2.7629   23.2853 H   0  0  0  0  0  0
  -22.3738  -11.9711   22.4889 H   0  0  0  0  0  0
  -21.0763  -13.1170   22.2873 H   0  0  0  0  0  0
  -24.5759  -15.8505   20.5398 H   0  0  0  0  0  0
  -26.1783  -15.6417   20.0689 H   0  0  0  0  0  0
  -26.8030  -32.4564   23.1707 H   0  0  0  0  0  0
  -25.0899  -33.9414   25.0991 H   0  0  0  0  0  0
  -23.6190  -31.1966   21.4149 H   0  0  0  0  0  0
  -23.3627  -35.9576   23.3265 H   0  0  0  0  0  0
  -24.3821  -36.8850   22.2040 H   0  0  0  0  0  0
  -23.7268  -37.6380   23.6732 H   0  0  0  0  0  0
  -26.6523  -31.5291   21.0145 H   0  0  0  0  0  0
  -27.0059  -30.4598   22.3447 H   0  0  0  0  0  0
  -27.8837  -28.3368   21.6310 H   0  0  0  0  0  0
  -26.5460  -26.6959   17.9762 H   0  0  0  0  0  0
  -24.6409  -28.3620   17.8863 H   0  0  0  0  0  0
  -24.5288  -31.0923   19.4406 H   0  0  0  0  0  0
  -23.4131  -30.1263   19.1536 H   0  0  0  0  0  0
  -25.1190  -36.1740   25.0767 H   0  0  0  0  0  0
  -20.8795  -26.9705   23.8439 H   0  0  0  0  0  0
  -20.1472  -25.3936   22.9892 H   0  0  0  0  0  0
  -21.2727  -25.7380   21.7682 H   0  0  0  0  0  0
  -19.1667  -25.3344   20.7919 H   0  0  0  0  0  0
  -19.4370  -27.0654   20.5362 H   0  0  0  0  0  0
  -17.1062  -26.5287   21.3480 H   0  0  0  0  0  0
  -17.7785  -25.7071   22.7533 H   0  0  0  0  0  0
  -19.7668  -29.4830   25.1571 H   0  0  0  0  0  0
  -17.7440  -30.8641   25.2751 H   0  0  0  0  0  0
  -15.6184  -30.0516   24.2447 H   0  0  0  0  0  0
  -15.7908  -28.0923   22.6428 H   0  0  0  0  0  0
  -24.6458  -30.7114   25.8666 H   0  0  0  0  0  0
  -24.9191  -32.3280   26.5192 H   0  0  0  0  0  0
  -25.8380  -30.9771   27.1233 H   0  0  0  0  0  0
  -26.4760  -29.6187   24.2380 H   0  0  0  0  0  0
  -27.3582  -29.7178   25.7268 H   0  0  0  0  0  0
  -28.0920  -30.3779   24.3088 H   0  0  0  0  0  0
  -27.3098  -33.3855   26.2774 H   0  0  0  0  0  0
  -28.4633  -32.6618   25.1657 H   0  0  0  0  0  0
  -28.0698  -31.8746   26.6726 H   0  0  0  0  0  0
  -28.2490  -38.0199   24.7447 H   0  0  0  0  0  0
  -28.1139  -36.2683   24.6430 H   0  0  0  0  0  0
  -27.2392  -37.1601   25.8982 H   0  0  0  0  0  0
  -21.5355  -28.5780   21.2544 H   0  0  0  0  0  0
  -26.0104  -38.2567   24.1415 H   0  0  0  0  0  0
  -21.5739  -32.0374   22.9128 H   0  0  0  0  0  0
  -21.6215  -31.9199   20.3383 H   0  0  0  0  0  0
  -19.1922  -29.5347   20.4730 H   0  0  0  0  0  0
  -17.3609  -30.1637   21.1427 H   0  0  0  0  0  0
  -16.5805  -31.4664   22.1560 H   0  0  0  0  0  0
  -17.7231  -32.9849   21.3741 H   0  0  0  0  0  0
  -18.4506  -31.9234   20.1247 H   0  0  0  0  0  0
  -19.0158  -31.8843   23.2834 H   0  0  0  0  0  0
  -28.2468  -21.9992   23.5180 H   0  0  0  0  0  0
  -27.6750  -23.2032   22.4272 H   0  0  0  0  0  0
  -28.6550  -21.9173   21.7665 H   0  0  0  0  0  0
  -21.8657  -28.1552   25.3089 H   0  0  0  0  0  0
  -23.3221  -28.8269   24.8504 H   0  0  0  0  0  0
  -27.2726  -18.8202   23.0252 H   0  0  0  0  0  0
  -26.4123  -18.7144   21.5452 H   0  0  0  0  0  0
  -22.4212  -25.5660   24.0122 H   0  0  0  0  0  0
  -23.6369  -26.0059   25.0461 H   0  0  0  0  0  0
  -25.2566  -22.6779   24.1370 H   0  0  0  0  0  0
  -24.2056  -22.4813   22.7316 H   0  0  0  0  0  0
  -24.6410  -25.9187   18.9969 H   0  0  0  0  0  0
  -24.1601  -25.5043   20.5060 H   0  0  0  0  0  0
  -22.2887  -26.6753   20.3597 H   0  0  0  0  0  0
  -22.5603  -26.7513   18.7572 H   0  0  0  0  0  0
  -26.3817  -21.4863   21.1740 H   0  0  0  0  0  0
  -29.4187  -18.3608   21.0533 H   0  0  0  0  0  0
  -25.4641  -25.2987   23.2660 H   0  0  0  0  0  0
  -24.3540  -24.9514   22.2328 H   0  0  0  0  0  0
  1 25  1  0  0  0
  1 30  2  0  0  0
  1 88  1  0  0  0
  2  3  1  0  0  0
  2 25  1  0  0  0
  2 91  1  0  0  0
  2 92  1  0  0  0
  3  4  1  0  0  0
  3 93  1  0  0  0
  3 94  1  0  0  0
  4  5  1  0  0  0
  4 95  1  0  0  0
  4 96  1  0  0  0
  5  6  1  0  0  0
  5 26  1  0  0  0
  5 97  1  0  0  0
  6 25  1  0  0  0
  6 98  1  0  0  0
  6 99  1  0  0  0
  7  8  2  0  0  0
  7 26  1  0  0  0
  7 29  1  0  0  0
  8  9  1  0  0  0
  8 22  1  0  0  0
  9 10  1  0  0  0
  9 27  2  0  0  0
 10 11  2  0  0  0
 10 15  1  0  0  0
 11 12  1  0  0  0
 11100  1  0  0  0
 12 13  2  0  0  0
 12101  1  0  0  0
 13 14  1  0  0  0
 13 31  1  0  0  0
 14 15  2  0  0  0
 14102  1  0  0  0
 15103  1  0  0  0
 16 17  2  0  0  0
 16 21  1  0  0  0
 16 31  1  0  0  0
 17 18  1  0  0  0
 17104  1  0  0  0
 18 19  2  0  0  0
 18105  1  0  0  0
 19 20  1  0  0  0
 19 24  1  0  0  0
 20 21  2  0  0  0
 20106  1  0  0  0
 21 23  1  0  0  0
 22 28  1  0  0  0
 22 32  2  0  0  0
 26 27  1  0  0  0
 28107  1  0  0  0
 28108  1  0  0  0
 29109  1  0  0  0
 29110  1  0  0  0
 33 34  1  0  0  0
 33 66  1  0  0  0
 33 70  2  0  0  0
 34 36  1  0  0  0
 34 59  1  0  0  0
 34111  1  0  0  0
 35 44  2  0  0  0
 35 45  1  0  0  0
 35 68  1  0  0  0
 36 56  1  0  0  0
 36112  1  0  0  0
 37 39  1  0  0  0
 37 47  1  0  0  0
 37 66  1  0  0  0
 37113  1  0  0  0
 38 43  2  0  0  0
 38 46  1  0  0  0
 38 47  1  0  0  0
 39 64  1  0  0  0
 39 67  2  0  0  0
 40 52  1  0  0  0
 40 53  2  0  0  0
 40 58  1  0  0  0
 41114  1  0  0  0
 41115  1  0  0  0
 41116  1  0  0  0
 41 48  1  0  0  0
 42 43  1  0  0  0
 42 66  1  0  0  0
 42117  1  0  0  0
 42118  1  0  0  0
 43 44  1  0  0  0
 44119  1  0  0  0
 45 46  2  0  0  0
 45120  1  0  0  0
 46121  1  0  0  0
 47122  1  0  0  0
 47123  1  0  0  0
 48 56  1  0  0  0
 48 65  1  0  0  0
 48124  1  0  0  0
 49 50  1  0  0  0
 49 53  1  0  0  0
 49 64  1  0  0  0
 49125  1  0  0  0
 50 51  1  0  0  0
 50126  1  0  0  0
 50127  1  0  0  0
 51 52  1  0  0  0
 51128  1  0  0  0
 51129  1  0  0  0
 52130  1  0  0  0
 52131  1  0  0  0
 53 54  1  0  0  0
 54 55  2  0  0  0
 54132  1  0  0  0
 55 57  1  0  0  0
 55133  1  0  0  0
 56 69  2  0  0  0
 57 58  2  0  0  0
 57134  1  0  0  0
 58135  1  0  0  0
 59 60  1  0  0  0
 59 61  1  0  0  0
 59 62  1  0  0  0
 60136  1  0  0  0
 60137  1  0  0  0
 60138  1  0  0  0
 61139  1  0  0  0
 61140  1  0  0  0
 61141  1  0  0  0
 62142  1  0  0  0
 62143  1  0  0  0
 62144  1  0  0  0
 63 65  1  0  0  0
 63145  1  0  0  0
 63146  1  0  0  0
 63147  1  0  0  0
 64148  1  0  0  0
 65149  1  0  0  0
 68 85  1  0  0  0
 71 72  2  0  0  0
 71 75  1  0  0  0
 71150  1  0  0  0
 72 76  1  0  0  0
 72151  1  0  0  0
 73 74  1  0  0  0
 73 76  2  0  0  0
 73152  1  0  0  0
 74 75  2  0  0  0
 74 79  1  0  0  0
 75 81  1  0  0  0
 76 90  1  0  0  0
 77 78  1  0  0  0
 77 79  1  0  0  0
 77153  1  0  0  0
 77154  1  0  0  0
 78 79  1  0  0  0
 78155  1  0  0  0
 78156  1  0  0  0
 79157  1  0  0  0
 80158  1  0  0  0
 80159  1  0  0  0
 80160  1  0  0  0
 80 87  1  0  0  0
 81 83  1  0  0  0
 81161  1  0  0  0
 81162  1  0  0  0
 82 87  1  0  0  0
 82 88  1  0  0  0
 82163  1  0  0  0
 82164  1  0  0  0
 83 89  1  0  0  0
 83165  1  0  0  0
 83166  1  0  0  0
 84 87  1  0  0  0
 84 89  1  0  0  0
 84167  1  0  0  0
 84168  1  0  0  0
 85 86  1  0  0  0
 85169  1  0  0  0
 85170  1  0  0  0
 86 90  1  0  0  0
 86171  1  0  0  0
 86172  1  0  0  0
 87173  1  0  0  0
 88174  1  0  0  0
 89175  1  0  0  0
 89176  1  0  0  0
M  CHG  1  89   1
M  ISO  4   1 100  68 101  85 101  88 100
M  END
> <chiral flag>
0

> <version>
0

> <s_m_source_file>
/data/baiqing/PycharmProjects/Reinvent-master-3.2/result/LINK_invent/BTK/process_docking_weight1_custom_sum_contain_oxygen_bond_distance_aromatic_linkinvent_7_9_3/rearranged_h_0144.sdf

> <i_m_source_file_index>
94

> <r_mmod_Potential_Energy-OPLS-2005>
13643.384765625

> <r_mmod_Stretch_Energy-OPLS-2005>
5558.04150390625

> <r_mmod_Bend_Energy-OPLS-2005>
2720.1728515625

> <r_mmod_Torsional_Energy-OPLS-2005>
1023.98828125

> <r_mmod_Improper_Torsional_Energy-OPLS-2005>
80.5947036743164

> <r_mmod_Van_der_Waal_Energy-OPLS-2005>
1484.20080566406

> <r_mmod_Electrostatic_Energy-OPLS-2005>
-372.124908447266

> <r_mmod_Solvation_Energy-OPLS-2005>
-409.6806640625

> <b_mmod_Minimization_Converged-OPLS-2005>
0

> <r_mmod_RMS_Derivative-OPLS-2005>
38.5998916625977

$$$$
95
                    3D
 Structure written by MMmdl.
161170  0  0  1  0            999 V2000
  -30.6894  -14.5462   20.5171 C   0  0  0  0  0  0
  -30.4239  -12.3374   19.4465 C   0  0  0  0  0  0
  -29.5006  -12.5001   18.2209 C   0  0  0  0  0  0
  -28.0231  -12.3594   18.6315 C   0  0  0  0  0  0
  -27.6594  -13.2178   19.8728 C   0  0  2  0  0  0
  -28.7031  -13.0573   21.0026 C   0  0  0  0  0  0
  -25.2580  -13.8182   20.5698 C   0  0  0  0  0  0
  -24.1850  -13.0440   20.9185 C   0  0  0  0  0  0
  -24.6421  -11.6909   20.8737 C   0  0  0  0  0  0
  -23.9074  -10.4293   21.0401 C   0  0  0  0  0  0
  -24.3623   -9.4207   21.9182 C   0  0  0  0  0  0
  -23.6299   -8.2244   22.0762 C   0  0  0  0  0  0
  -22.4286   -8.0282   21.3544 C   0  0  0  0  0  0
  -21.9920   -9.0251   20.4642 C   0  0  0  0  0  0
  -22.7248  -10.2133   20.3047 C   0  0  0  0  0  0
  -21.6850   -6.0733   22.5272 C   0  0  0  0  0  0
  -21.4006   -6.5634   23.8205 C   0  0  0  0  0  0
  -21.3659   -5.6794   24.9168 C   0  0  0  0  0  0
  -21.6045   -4.3056   24.7219 C   0  0  0  0  0  0
  -21.8828   -3.8145   23.4344 C   0  0  0  0  0  0
  -21.9204   -4.6962   22.3400 C   0  0  0  0  0  0
  -22.7869  -13.5223   21.1843 C   0  0  0  0  0  0
  -22.1672   -4.2146   21.0978 F   0  0  0  0  0  0
  -21.5631   -3.4542   25.7728 F   0  0  0  0  0  0
  -30.0294  -13.3549   20.4404 N   0  0  0  0  0  0
  -26.3028  -12.9374   20.3370 N   0  0  0  0  0  0
  -25.9354  -11.6524   20.5782 N   0  0  0  0  0  0
  -22.0514  -12.8199   22.0392 N   0  0  0  0  0  0
  -25.4275  -15.1911   20.4115 N   0  0  0  0  0  0
  -31.8371  -14.6886   20.0926 O   0  0  0  0  0  0
  -21.6651   -6.8882   21.4242 O   0  0  0  0  0  0
  -22.3545  -14.5530   20.6701 O   0  0  0  0  0  0
  -24.6176  -31.8673   23.2079 C   0  0  0  0  0  0
  -25.9059  -32.4817   23.8383 C   0  0  1  0  0  0
  -27.2313  -27.3976   20.1096 C   0  0  0  0  0  0
  -25.5893  -33.8615   24.2315 N   0  0  0  0  0  0
  -23.4079  -30.4890   21.5510 C   0  0  2  0  0  0
  -24.8571  -28.9503   20.1155 C   0  0  0  0  0  0
  -22.7432  -29.4664   22.5016 C   0  0  0  0  0  0
  -18.0272  -28.1381   22.8499 C   0  0  0  0  0  0
  -24.1474  -36.7299   23.2643 C   0  0  0  0  0  0
  -25.9388  -30.8194   21.3692 C   0  0  0  0  0  0
  -26.0175  -29.4489   20.7227 C   0  0  0  0  0  0
  -27.2085  -28.6781   20.7262 C   0  0  0  0  0  0
  -26.0624  -26.9374   19.4724 C   0  0  0  0  0  0
  -24.8755  -27.6942   19.4872 C   0  0  0  0  0  0
  -23.6186  -29.8191   20.1667 C   0  0  0  0  0  0
  -25.4100  -36.3107   24.0337 C   0  0  1  0  0  0
  -20.5866  -28.3676   23.1325 C   0  0  2  0  0  0
  -20.6760  -26.9414   22.5425 C   0  0  0  0  0  0
  -19.5737  -26.6391   21.5222 C   0  0  0  0  0  0
  -18.1913  -26.7926   22.1629 C   0  0  0  0  0  0
  -19.1524  -28.8844   23.2905 C   0  0  0  0  0  0
  -18.9453  -30.1443   23.8931 C   0  0  0  0  0  0
  -17.6460  -30.6592   24.0570 C   0  0  0  0  0  0
  -25.9038  -34.9475   23.5128 C   0  0  0  0  0  0
  -16.5353  -29.9100   23.6320 C   0  0  0  0  0  0
  -16.7264  -28.6508   23.0359 C   0  0  0  0  0  0
  -26.4463  -31.6605   25.0726 C   0  0  0  0  0  0
  -25.3700  -31.3708   26.1442 C   0  0  0  0  0  0
  -27.0322  -30.3052   24.6124 C   0  0  0  0  0  0
  -27.6017  -32.4343   25.7512 C   0  0  0  0  0  0
  -27.5572  -37.1804   24.8464 C   0  0  0  0  0  0
  -21.4160  -29.3041   22.3735 N   0  0  0  0  0  0
  -26.4286  -37.3793   23.9415 N   0  0  0  0  0  0
  -24.6726  -31.0738   22.1008 N   0  0  0  0  0  0
  -23.4183  -28.8226   23.3085 O   0  0  0  0  0  0
  -28.3352  -26.5625   20.0704 O   0  0  0  0  0  0
  -26.5615  -34.8935   22.4699 O   0  0  0  0  0  0
  -23.5359  -32.1454   23.7450 O   0  0  0  0  0  0
  -28.1029  -21.4273   20.6988 C   0  0  0  0  0  0
  -30.4938  -21.2224   20.8914 C   0  0  0  0  0  0
  -29.4298  -23.4470   21.2299 C   0  0  0  0  0  0
  -28.1782  -22.8158   20.9938 C   0  0  0  0  0  0
  -30.5893  -22.6166   21.1525 C   0  0  0  0  0  0
  -29.2469  -20.5979   20.6779 C   0  0  0  0  0  0
  -30.3947  -25.9308   21.0397 C   0  0  0  0  0  0
  -29.5606  -24.8934   21.7538 C   0  0  1  0  0  0
  -28.9499  -26.2599   21.3305 C   0  0  2  0  0  0
  -26.8846  -23.6047   21.0806 C   0  0  0  0  0  0
  -31.9752  -23.2012   21.3808 C   0  0  0  0  0  0
  -30.2072  -17.0069   20.3236 C   0  0  0  0  0  0
  -29.7178  -18.2239   21.1821 C   0  0  0  0  0  0
  -29.9486  -15.6340   20.8469 N   0  0  0  0  0  0
  -29.1057  -19.2484   20.3612 O   0  0  0  0  0  0
  -31.4689  -12.4281   19.1418 H   0  0  0  0  0  0
  -30.3239  -11.3380   19.8727 H   0  0  0  0  0  0
  -29.7473  -11.7586   17.4599 H   0  0  0  0  0  0
  -29.6648  -13.4751   17.7587 H   0  0  0  0  0  0
  -27.8382  -11.3052   18.8404 H   0  0  0  0  0  0
  -27.3749  -12.6205   17.7946 H   0  0  0  0  0  0
  -27.6871  -14.2576   19.5470 H   0  0  0  0  0  0
  -28.6883  -12.0418   21.3994 H   0  0  0  0  0  0
  -28.4680  -13.7111   21.8444 H   0  0  0  0  0  0
  -25.2765   -9.5681   22.4753 H   0  0  0  0  0  0
  -24.0001   -7.4640   22.7490 H   0  0  0  0  0  0
  -21.0852   -8.8764   19.8942 H   0  0  0  0  0  0
  -22.3705  -10.9670   19.6149 H   0  0  0  0  0  0
  -21.1979   -7.6139   23.9696 H   0  0  0  0  0  0
  -21.1474   -6.0526   25.9069 H   0  0  0  0  0  0
  -22.0609   -2.7605   23.2849 H   0  0  0  0  0  0
  -22.4151  -11.9844   22.4729 H   0  0  0  0  0  0
  -21.1123  -13.1204   22.2606 H   0  0  0  0  0  0
  -24.6570  -15.8425   20.5152 H   0  0  0  0  0  0
  -26.2762  -15.6325   20.0810 H   0  0  0  0  0  0
  -26.7148  -32.5529   23.1164 H   0  0  0  0  0  0
  -24.9983  -33.9766   25.0414 H   0  0  0  0  0  0
  -22.6981  -31.3063   21.4103 H   0  0  0  0  0  0
  -23.3746  -35.9620   23.3309 H   0  0  0  0  0  0
  -24.3552  -36.8913   22.2055 H   0  0  0  0  0  0
  -23.7215  -37.6497   23.6661 H   0  0  0  0  0  0
  -26.0507  -31.5834   20.5984 H   0  0  0  0  0  0
  -26.8240  -30.8771   21.9900 H   0  0  0  0  0  0
  -28.1004  -29.0656   21.1987 H   0  0  0  0  0  0
  -26.0636  -25.9792   18.9735 H   0  0  0  0  0  0
  -23.9866  -27.3103   19.0056 H   0  0  0  0  0  0
  -23.7218  -30.5919   19.4043 H   0  0  0  0  0  0
  -22.7422  -29.2364   19.8767 H   0  0  0  0  0  0
  -25.1279  -36.1964   25.0831 H   0  0  0  0  0  0
  -20.9947  -28.3236   24.1450 H   0  0  0  0  0  0
  -20.5682  -26.2286   23.3610 H   0  0  0  0  0  0
  -21.6631  -26.7464   22.1213 H   0  0  0  0  0  0
  -19.6908  -25.6305   21.1242 H   0  0  0  0  0  0
  -19.6676  -27.3207   20.6756 H   0  0  0  0  0  0
  -17.4191  -26.6691   21.4022 H   0  0  0  0  0  0
  -18.0304  -26.0053   22.9011 H   0  0  0  0  0  0
  -19.7931  -30.7232   24.2346 H   0  0  0  0  0  0
  -17.5020  -31.6275   24.5160 H   0  0  0  0  0  0
  -15.5361  -30.3024   23.7616 H   0  0  0  0  0  0
  -15.8654  -28.0836   22.7089 H   0  0  0  0  0  0
  -24.5885  -30.7054   25.7747 H   0  0  0  0  0  0
  -24.8865  -32.2861   26.4875 H   0  0  0  0  0  0
  -25.8003  -30.8873   27.0220 H   0  0  0  0  0  0
  -26.2895  -29.6820   24.1121 H   0  0  0  0  0  0
  -27.4032  -29.7278   25.4602 H   0  0  0  0  0  0
  -27.8751  -30.4378   23.9332 H   0  0  0  0  0  0
  -27.2605  -33.3624   26.2116 H   0  0  0  0  0  0
  -28.3814  -32.6943   25.0341 H   0  0  0  0  0  0
  -28.0700  -31.8456   26.5411 H   0  0  0  0  0  0
  -28.2591  -38.0102   24.7536 H   0  0  0  0  0  0
  -28.1070  -36.2639   24.6269 H   0  0  0  0  0  0
  -27.2286  -37.1429   25.8864 H   0  0  0  0  0  0
  -20.9340  -29.8742   21.6928 H   0  0  0  0  0  0
  -26.0173  -38.2874   24.1415 H   0  0  0  0  0  0
  -27.1384  -20.9749   20.5097 H   0  0  0  0  0  0
  -31.3956  -20.6278   20.8390 H   0  0  0  0  0  0
  -30.6612  -25.7332   20.0035 H   0  0  0  0  0  0
  -31.1542  -26.4496   21.6212 H   0  0  0  0  0  0
  -29.7285  -24.8084   22.8263 H   0  0  0  0  0  0
  -28.7848  -27.0086   22.1049 H   0  0  0  0  0  0
  -26.0236  -22.9489   21.2207 H   0  0  0  0  0  0
  -26.7364  -24.1584   20.1561 H   0  0  0  0  0  0
  -26.8951  -24.3120   21.9097 H   0  0  0  0  0  0
  -32.7415  -22.4259   21.4020 H   0  0  0  0  0  0
  -32.0276  -23.7423   22.3255 H   0  0  0  0  0  0
  -32.2314  -23.8879   20.5739 H   0  0  0  0  0  0
  -31.2681  -17.1463   20.1092 H   0  0  0  0  0  0
  -29.7098  -17.0541   19.3545 H   0  0  0  0  0  0
  -30.5462  -18.6145   21.7739 H   0  0  0  0  0  0
  -28.9645  -17.8924   21.8976 H   0  0  0  0  0  0
  -29.0250  -15.4485   21.2094 H   0  0  0  0  0  0
  1 25  1  0  0  0
  1 30  2  0  0  0
  1 84  1  0  0  0
  2  3  1  0  0  0
  2 25  1  0  0  0
  2 86  1  0  0  0
  2 87  1  0  0  0
  3  4  1  0  0  0
  3 88  1  0  0  0
  3 89  1  0  0  0
  4  5  1  0  0  0
  4 90  1  0  0  0
  4 91  1  0  0  0
  5  6  1  0  0  0
  5 26  1  0  0  0
  5 92  1  0  0  0
  6 25  1  0  0  0
  6 93  1  0  0  0
  6 94  1  0  0  0
  7  8  2  0  0  0
  7 26  1  0  0  0
  7 29  1  0  0  0
  8  9  1  0  0  0
  8 22  1  0  0  0
  9 10  1  0  0  0
  9 27  2  0  0  0
 10 11  2  0  0  0
 10 15  1  0  0  0
 11 12  1  0  0  0
 11 95  1  0  0  0
 12 13  2  0  0  0
 12 96  1  0  0  0
 13 14  1  0  0  0
 13 31  1  0  0  0
 14 15  2  0  0  0
 14 97  1  0  0  0
 15 98  1  0  0  0
 16 17  2  0  0  0
 16 21  1  0  0  0
 16 31  1  0  0  0
 17 18  1  0  0  0
 17 99  1  0  0  0
 18 19  2  0  0  0
 18100  1  0  0  0
 19 20  1  0  0  0
 19 24  1  0  0  0
 20 21  2  0  0  0
 20101  1  0  0  0
 21 23  1  0  0  0
 22 28  1  0  0  0
 22 32  2  0  0  0
 26 27  1  0  0  0
 28102  1  0  0  0
 28103  1  0  0  0
 29104  1  0  0  0
 29105  1  0  0  0
 33 34  1  0  0  0
 33 66  1  0  0  0
 33 70  2  0  0  0
 34 36  1  0  0  0
 34 59  1  0  0  0
 34106  1  0  0  0
 35 44  2  0  0  0
 35 45  1  0  0  0
 35 68  1  0  0  0
 36 56  1  0  0  0
 36107  1  0  0  0
 37 39  1  0  0  0
 37 47  1  0  0  0
 37 66  1  0  0  0
 37108  1  0  0  0
 38 43  2  0  0  0
 38 46  1  0  0  0
 38 47  1  0  0  0
 39 64  1  0  0  0
 39 67  2  0  0  0
 40 52  1  0  0  0
 40 53  2  0  0  0
 40 58  1  0  0  0
 41109  1  0  0  0
 41110  1  0  0  0
 41111  1  0  0  0
 41 48  1  0  0  0
 42 43  1  0  0  0
 42 66  1  0  0  0
 42112  1  0  0  0
 42113  1  0  0  0
 43 44  1  0  0  0
 44114  1  0  0  0
 45 46  2  0  0  0
 45115  1  0  0  0
 46116  1  0  0  0
 47117  1  0  0  0
 47118  1  0  0  0
 48 56  1  0  0  0
 48 65  1  0  0  0
 48119  1  0  0  0
 49 50  1  0  0  0
 49 53  1  0  0  0
 49 64  1  0  0  0
 49120  1  0  0  0
 50 51  1  0  0  0
 50121  1  0  0  0
 50122  1  0  0  0
 51 52  1  0  0  0
 51123  1  0  0  0
 51124  1  0  0  0
 52125  1  0  0  0
 52126  1  0  0  0
 53 54  1  0  0  0
 54 55  2  0  0  0
 54127  1  0  0  0
 55 57  1  0  0  0
 55128  1  0  0  0
 56 69  2  0  0  0
 57 58  2  0  0  0
 57129  1  0  0  0
 58130  1  0  0  0
 59 60  1  0  0  0
 59 61  1  0  0  0
 59 62  1  0  0  0
 60131  1  0  0  0
 60132  1  0  0  0
 60133  1  0  0  0
 61134  1  0  0  0
 61135  1  0  0  0
 61136  1  0  0  0
 62137  1  0  0  0
 62138  1  0  0  0
 62139  1  0  0  0
 63 65  1  0  0  0
 63140  1  0  0  0
 63141  1  0  0  0
 63142  1  0  0  0
 64143  1  0  0  0
 65144  1  0  0  0
 68 79  1  0  0  0
 71 74  2  0  0  0
 71 76  1  0  0  0
 71145  1  0  0  0
 72 75  1  0  0  0
 72 76  2  0  0  0
 72146  1  0  0  0
 73 74  1  0  0  0
 73 75  2  0  0  0
 73 78  1  0  0  0
 74 80  1  0  0  0
 75 81  1  0  0  0
 76 85  1  0  0  0
 77 78  1  0  0  0
 77 79  1  0  0  0
 77147  1  0  0  0
 77148  1  0  0  0
 78 79  1  0  0  0
 78149  1  0  0  0
 79150  1  0  0  0
 80151  1  0  0  0
 80152  1  0  0  0
 80153  1  0  0  0
 81154  1  0  0  0
 81155  1  0  0  0
 81156  1  0  0  0
 82 83  1  0  0  0
 82 84  1  0  0  0
 82157  1  0  0  0
 82158  1  0  0  0
 83 85  1  0  0  0
 83159  1  0  0  0
 83160  1  0  0  0
 84161  1  0  0  0
M  ISO  4   1 100  68 101  79 101  84 100
M  END
> <chiral flag>
0

> <version>
0

> <s_m_source_file>
/data/baiqing/PycharmProjects/Reinvent-master-3.2/result/LINK_invent/BTK/process_docking_weight1_custom_sum_contain_oxygen_bond_distance_aromatic_linkinvent_7_9_3/rearranged_h_0144.sdf

> <i_m_source_file_index>
95

> <r_mmod_Potential_Energy-OPLS-2005>
9.29529476165771

> <r_mmod_Stretch_Energy-OPLS-2005>
51.6984748840332

> <r_mmod_Bend_Energy-OPLS-2005>
145.858444213867

> <r_mmod_Torsional_Energy-OPLS-2005>
273.657440185547

> <r_mmod_Improper_Torsional_Energy-OPLS-2005>
7.90230846405029

> <r_mmod_Van_der_Waal_Energy-OPLS-2005>
142.822387695312

> <r_mmod_Electrostatic_Energy-OPLS-2005>
-423.837707519531

> <r_mmod_Solvation_Energy-OPLS-2005>
-212.72509765625

> <b_mmod_Minimization_Converged-OPLS-2005>
0

> <r_mmod_RMS_Derivative-OPLS-2005>
1.81669366359711

$$$$
96
                    3D
 Structure written by MMmdl.
170179  0  0  1  0            999 V2000
  -30.6294  -14.8753   20.4076 C   0  0  0  0  0  0
  -30.4262  -12.5361   19.4949 C   0  0  0  0  0  0
  -29.5162  -12.5049   18.2490 C   0  0  0  0  0  0
  -28.0492  -12.3061   18.6726 C   0  0  0  0  0  0
  -27.6305  -13.2487   19.8318 C   0  0  2  0  0  0
  -28.6754  -13.2940   20.9671 C   0  0  0  0  0  0
  -25.2480  -13.8231   20.5745 C   0  0  0  0  0  0
  -24.1776  -13.0455   20.9220 C   0  0  0  0  0  0
  -24.6388  -11.6936   20.8750 C   0  0  0  0  0  0
  -23.9078  -10.4295   21.0402 C   0  0  0  0  0  0
  -24.3642   -9.4207   21.9181 C   0  0  0  0  0  0
  -23.6299   -8.2247   22.0751 C   0  0  0  0  0  0
  -22.4276   -8.0285   21.3551 C   0  0  0  0  0  0
  -21.9910   -9.0261   20.4660 C   0  0  0  0  0  0
  -22.7252  -10.2127   20.3058 C   0  0  0  0  0  0
  -21.6840   -6.0736   22.5275 C   0  0  0  0  0  0
  -21.4018   -6.5639   23.8212 C   0  0  0  0  0  0
  -21.3673   -5.6790   24.9170 C   0  0  0  0  0  0
  -21.6036   -4.3054   24.7214 C   0  0  0  0  0  0
  -21.8821   -3.8152   23.4337 C   0  0  0  0  0  0
  -21.9190   -4.6972   22.3400 C   0  0  0  0  0  0
  -22.7789  -13.5232   21.1856 C   0  0  0  0  0  0
  -22.1661   -4.2168   21.0975 F   0  0  0  0  0  0
  -21.5631   -3.4542   25.7731 F   0  0  0  0  0  0
  -29.9591  -13.6580   20.3571 N   0  0  0  0  0  0
  -26.2902  -12.9466   20.3258 N   0  0  0  0  0  0
  -25.9326  -11.6594   20.5745 N   0  0  0  0  0  0
  -22.0434  -12.8222   22.0414 N   0  0  0  0  0  0
  -25.4207  -15.1953   20.4220 N   0  0  0  0  0  0
  -31.8388  -14.8513   20.1542 O   0  0  0  0  0  0
  -21.6638   -6.8876   21.4236 O   0  0  0  0  0  0
  -22.3475  -14.5545   20.6711 O   0  0  0  0  0  0
  -24.6390  -31.8494   23.1913 C   0  0  0  0  0  0
  -25.9178  -32.4727   23.8282 C   0  0  1  0  0  0
  -27.2174  -27.1814   20.1373 C   0  0  0  0  0  0
  -25.5941  -33.8541   24.2196 N   0  0  0  0  0  0
  -23.4403  -30.4721   21.5362 C   0  0  2  0  0  0
  -24.8888  -28.9071   20.1096 C   0  0  0  0  0  0
  -22.7545  -29.4583   22.4856 C   0  0  0  0  0  0
  -18.0308  -28.1391   22.8485 C   0  0  0  0  0  0
  -24.1497  -36.7272   23.2636 C   0  0  0  0  0  0
  -25.9956  -30.7358   21.3864 C   0  0  0  0  0  0
  -26.0666  -29.3539   20.7216 C   0  0  0  0  0  0
  -27.2342  -28.5082   20.7159 C   0  0  0  0  0  0
  -26.0090  -26.8230   19.4981 C   0  0  0  0  0  0
  -24.8704  -27.6531   19.4844 C   0  0  0  0  0  0
  -23.6638  -29.8049   20.1544 C   0  0  0  0  0  0
  -25.4132  -36.3055   24.0314 C   0  0  1  0  0  0
  -20.5921  -28.3713   23.1238 C   0  0  2  0  0  0
  -20.6794  -26.9420   22.5404 C   0  0  0  0  0  0
  -19.5766  -26.6378   21.5211 C   0  0  0  0  0  0
  -18.1944  -26.7933   22.1614 C   0  0  0  0  0  0
  -19.1563  -28.8864   23.2860 C   0  0  0  0  0  0
  -18.9480  -30.1461   23.8890 C   0  0  0  0  0  0
  -17.6479  -30.6586   24.0558 C   0  0  0  0  0  0
  -25.9078  -34.9425   23.5054 C   0  0  0  0  0  0
  -16.5373  -29.9083   23.6334 C   0  0  0  0  0  0
  -16.7295  -28.6499   23.0361 C   0  0  0  0  0  0
  -26.4495  -31.6598   25.0722 C   0  0  0  0  0  0
  -25.3678  -31.3825   26.1415 C   0  0  0  0  0  0
  -27.0343  -30.2981   24.6325 C   0  0  0  0  0  0
  -27.6020  -32.4371   25.7505 C   0  0  0  0  0  0
  -27.5592  -37.1793   24.8462 C   0  0  0  0  0  0
  -21.4236  -29.3045   22.3604 N   0  0  0  0  0  0
  -26.4294  -37.3762   23.9407 N   0  0  0  0  0  0
  -24.7112  -31.0389   22.0926 N   0  0  0  0  0  0
  -23.4211  -28.8117   23.2979 O   0  0  0  0  0  0
  -28.2833  -26.2243   20.2001 O   0  0  0  0  0  0
  -26.5656  -34.8918   22.4636 O   0  0  0  0  0  0
  -23.5518  -32.1347   23.7155 O   0  0  0  0  0  0
  -28.9081  -22.0818   20.2160 C   0  0  0  0  0  0
  -30.3994  -23.9914   20.5232 C   0  0  0  0  0  0
  -29.9889  -21.0848   20.3562 C   0  0  0  0  0  0
  -29.0933  -23.5516   20.2796 C   0  0  0  0  0  0
  -31.2858  -21.6824   20.5360 C   0  0  0  0  0  0
  -31.4817  -23.0909   20.6395 C   0  0  0  0  0  0
  -30.1513  -18.6245   21.6240 C   0  0  0  0  0  0
  -28.9371  -18.4846   19.5902 C   0  0  0  0  0  0
  -30.7160  -17.1417   21.4584 C   0  0  0  0  0  0
  -29.3730  -16.9166   19.4516 C   0  0  0  0  0  0
  -29.9690  -19.4290   20.2982 C   0  0  0  0  0  0
  -32.5624  -20.8330   20.5801 C   0  0  0  0  0  0
  -34.8767  -26.4040   22.1208 C   0  0  0  0  0  0
  -27.9856  -24.7165   20.0701 C   0  0  0  0  0  0
  -34.5100  -25.0386   21.5228 C   0  0  0  0  0  0
  -33.0031  -24.8634   21.2909 C   0  0  0  0  0  0
  -29.9916  -16.1345   20.6007 N   0  0  0  0  0  0
  -32.7778  -23.5411   20.8108 O   0  0  0  0  0  0
  -31.4681  -12.6419   19.1910 H   0  0  0  0  0  0
  -30.3761  -11.5897   20.0354 H   0  0  0  0  0  0
  -29.8255  -11.7082   17.5714 H   0  0  0  0  0  0
  -29.6218  -13.4364   17.6917 H   0  0  0  0  0  0
  -27.9378  -11.2666   18.9880 H   0  0  0  0  0  0
  -27.3871  -12.4381   17.8164 H   0  0  0  0  0  0
  -27.5919  -14.2457   19.3931 H   0  0  0  0  0  0
  -28.7403  -12.3353   21.4836 H   0  0  0  0  0  0
  -28.3915  -14.0367   21.7137 H   0  0  0  0  0  0
  -25.2781   -9.5700   22.4753 H   0  0  0  0  0  0
  -24.0024   -7.4635   22.7459 H   0  0  0  0  0  0
  -21.0837   -8.8782   19.8960 H   0  0  0  0  0  0
  -22.3707  -10.9674   19.6176 H   0  0  0  0  0  0
  -21.2019   -7.6142   23.9727 H   0  0  0  0  0  0
  -21.1494   -6.0509   25.9074 H   0  0  0  0  0  0
  -22.0592   -2.7614   23.2822 H   0  0  0  0  0  0
  -22.4056  -11.9916   22.4860 H   0  0  0  0  0  0
  -21.1071  -13.1260   22.2648 H   0  0  0  0  0  0
  -24.6624  -15.8562   20.5501 H   0  0  0  0  0  0
  -26.2862  -15.6358   20.1369 H   0  0  0  0  0  0
  -26.7247  -32.5333   23.1015 H   0  0  0  0  0  0
  -25.0076  -33.9648   25.0328 H   0  0  0  0  0  0
  -22.7407  -31.2981   21.3854 H   0  0  0  0  0  0
  -23.3769  -35.9593   23.3298 H   0  0  0  0  0  0
  -24.3575  -36.8906   22.2051 H   0  0  0  0  0  0
  -23.7248  -37.6466   23.6677 H   0  0  0  0  0  0
  -26.1577  -31.4985   20.6229 H   0  0  0  0  0  0
  -26.8624  -30.7738   22.0346 H   0  0  0  0  0  0
  -28.1345  -28.8480   21.2077 H   0  0  0  0  0  0
  -25.9030  -25.8635   19.0168 H   0  0  0  0  0  0
  -23.9689  -27.3015   19.0002 H   0  0  0  0  0  0
  -23.7977  -30.5807   19.3999 H   0  0  0  0  0  0
  -22.7791  -29.2467   19.8423 H   0  0  0  0  0  0
  -25.1320  -36.1882   25.0806 H   0  0  0  0  0  0
  -21.0033  -28.3313   24.1348 H   0  0  0  0  0  0
  -20.5683  -26.2329   23.3626 H   0  0  0  0  0  0
  -21.6667  -26.7415   22.1210 H   0  0  0  0  0  0
  -19.6924  -25.6275   21.1270 H   0  0  0  0  0  0
  -19.6706  -27.3165   20.6727 H   0  0  0  0  0  0
  -17.4216  -26.6687   21.4017 H   0  0  0  0  0  0
  -18.0333  -26.0075   22.9008 H   0  0  0  0  0  0
  -19.7958  -30.7278   24.2269 H   0  0  0  0  0  0
  -17.5033  -31.6272   24.5152 H   0  0  0  0  0  0
  -15.5369  -30.2979   23.7664 H   0  0  0  0  0  0
  -15.8696  -28.0807   22.7092 H   0  0  0  0  0  0
  -24.5806  -30.7234   25.7737 H   0  0  0  0  0  0
  -24.8917  -32.3034   26.4799 H   0  0  0  0  0  0
  -25.7920  -30.9002   27.0226 H   0  0  0  0  0  0
  -26.2950  -29.6725   24.1308 H   0  0  0  0  0  0
  -27.3898  -29.7272   25.4914 H   0  0  0  0  0  0
  -27.8894  -30.4186   23.9673 H   0  0  0  0  0  0
  -27.2577  -33.3647   26.2089 H   0  0  0  0  0  0
  -28.3814  -32.6992   25.0342 H   0  0  0  0  0  0
  -28.0720  -31.8526   26.5417 H   0  0  0  0  0  0
  -28.2607  -38.0089   24.7501 H   0  0  0  0  0  0
  -28.1085  -36.2621   24.6290 H   0  0  0  0  0  0
  -27.2306  -37.1453   25.8859 H   0  0  0  0  0  0
  -20.9427  -29.8774   21.6801 H   0  0  0  0  0  0
  -26.0177  -38.2836   24.1391 H   0  0  0  0  0  0
  -27.9066  -21.7143   20.0394 H   0  0  0  0  0  0
  -30.5555  -25.0580   20.5746 H   0  0  0  0  0  0
  -30.8200  -19.1672   22.2910 H   0  0  0  0  0  0
  -29.2040  -18.5999   22.1638 H   0  0  0  0  0  0
  -27.9797  -18.5474   20.1106 H   0  0  0  0  0  0
  -28.7400  -18.8724   18.5908 H   0  0  0  0  0  0
  -30.8255  -16.7048   22.4522 H   0  0  0  0  0  0
  -31.7338  -17.2370   21.0723 H   0  0  0  0  0  0
  -30.0871  -16.8523   18.6285 H   0  0  0  0  0  0
  -28.5063  -16.3554   19.1026 H   0  0  0  0  0  0
  -30.8449  -19.2241   19.6845 H   0  0  0  0  0  0
  -32.4441  -19.8605   21.0460 H   0  0  0  0  0  0
  -33.3623  -21.3086   21.1464 H   0  0  0  0  0  0
  -32.9357  -20.6759   19.5674 H   0  0  0  0  0  0
  -35.9539  -26.4867   22.2673 H   0  0  0  0  0  0
  -34.3987  -26.5528   23.0903 H   0  0  0  0  0  0
  -34.5688  -27.2218   21.4663 H   0  0  0  0  0  0
  -27.1631  -24.4854   20.7486 H   0  0  0  0  0  0
  -27.6068  -24.5445   19.0620 H   0  0  0  0  0  0
  -34.8716  -24.2514   22.1854 H   0  0  0  0  0  0
  -35.0360  -24.9089   20.5756 H   0  0  0  0  0  0
  -32.6660  -25.6060   20.5667 H   0  0  0  0  0  0
  -32.4621  -25.0212   22.2258 H   0  0  0  0  0  0
  1 25  1  0  0  0
  1 30  2  0  0  0
  1 87  1  0  0  0
  2  3  1  0  0  0
  2 25  1  0  0  0
  2 89  1  0  0  0
  2 90  1  0  0  0
  3  4  1  0  0  0
  3 91  1  0  0  0
  3 92  1  0  0  0
  4  5  1  0  0  0
  4 93  1  0  0  0
  4 94  1  0  0  0
  5  6  1  0  0  0
  5 26  1  0  0  0
  5 95  1  0  0  0
  6 25  1  0  0  0
  6 96  1  0  0  0
  6 97  1  0  0  0
  7  8  2  0  0  0
  7 26  1  0  0  0
  7 29  1  0  0  0
  8  9  1  0  0  0
  8 22  1  0  0  0
  9 10  1  0  0  0
  9 27  2  0  0  0
 10 11  2  0  0  0
 10 15  1  0  0  0
 11 12  1  0  0  0
 11 98  1  0  0  0
 12 13  2  0  0  0
 12 99  1  0  0  0
 13 14  1  0  0  0
 13 31  1  0  0  0
 14 15  2  0  0  0
 14100  1  0  0  0
 15101  1  0  0  0
 16 17  2  0  0  0
 16 21  1  0  0  0
 16 31  1  0  0  0
 17 18  1  0  0  0
 17102  1  0  0  0
 18 19  2  0  0  0
 18103  1  0  0  0
 19 20  1  0  0  0
 19 24  1  0  0  0
 20 21  2  0  0  0
 20104  1  0  0  0
 21 23  1  0  0  0
 22 28  1  0  0  0
 22 32  2  0  0  0
 26 27  1  0  0  0
 28105  1  0  0  0
 28106  1  0  0  0
 29107  1  0  0  0
 29108  1  0  0  0
 33 34  1  0  0  0
 33 66  1  0  0  0
 33 70  2  0  0  0
 34 36  1  0  0  0
 34 59  1  0  0  0
 34109  1  0  0  0
 35 44  2  0  0  0
 35 45  1  0  0  0
 35 68  1  0  0  0
 36 56  1  0  0  0
 36110  1  0  0  0
 37 39  1  0  0  0
 37 47  1  0  0  0
 37 66  1  0  0  0
 37111  1  0  0  0
 38 43  2  0  0  0
 38 46  1  0  0  0
 38 47  1  0  0  0
 39 64  1  0  0  0
 39 67  2  0  0  0
 40 52  1  0  0  0
 40 53  2  0  0  0
 40 58  1  0  0  0
 41112  1  0  0  0
 41113  1  0  0  0
 41114  1  0  0  0
 41 48  1  0  0  0
 42 43  1  0  0  0
 42 66  1  0  0  0
 42115  1  0  0  0
 42116  1  0  0  0
 43 44  1  0  0  0
 44117  1  0  0  0
 45 46  2  0  0  0
 45118  1  0  0  0
 46119  1  0  0  0
 47120  1  0  0  0
 47121  1  0  0  0
 48 56  1  0  0  0
 48 65  1  0  0  0
 48122  1  0  0  0
 49 50  1  0  0  0
 49 53  1  0  0  0
 49 64  1  0  0  0
 49123  1  0  0  0
 50 51  1  0  0  0
 50124  1  0  0  0
 50125  1  0  0  0
 51 52  1  0  0  0
 51126  1  0  0  0
 51127  1  0  0  0
 52128  1  0  0  0
 52129  1  0  0  0
 53 54  1  0  0  0
 54 55  2  0  0  0
 54130  1  0  0  0
 55 57  1  0  0  0
 55131  1  0  0  0
 56 69  2  0  0  0
 57 58  2  0  0  0
 57132  1  0  0  0
 58133  1  0  0  0
 59 60  1  0  0  0
 59 61  1  0  0  0
 59 62  1  0  0  0
 60134  1  0  0  0
 60135  1  0  0  0
 60136  1  0  0  0
 61137  1  0  0  0
 61138  1  0  0  0
 61139  1  0  0  0
 62140  1  0  0  0
 62141  1  0  0  0
 62142  1  0  0  0
 63 65  1  0  0  0
 63143  1  0  0  0
 63144  1  0  0  0
 63145  1  0  0  0
 64146  1  0  0  0
 65147  1  0  0  0
 68 84  1  0  0  0
 71 73  2  0  0  0
 71 74  1  0  0  0
 71148  1  0  0  0
 72 74  2  0  0  0
 72 76  1  0  0  0
 72149  1  0  0  0
 73 75  1  0  0  0
 73 81  1  0  0  0
 74 84  1  0  0  0
 75 76  2  0  0  0
 75 82  1  0  0  0
 76 88  1  0  0  0
 77 79  1  0  0  0
 77 81  1  0  0  0
 77150  1  0  0  0
 77151  1  0  0  0
 78 80  1  0  0  0
 78 81  1  0  0  0
 78152  1  0  0  0
 78153  1  0  0  0
 79 87  1  0  0  0
 79154  1  0  0  0
 79155  1  0  0  0
 80 87  1  0  0  0
 80156  1  0  0  0
 80157  1  0  0  0
 81158  1  0  0  0
 82159  1  0  0  0
 82160  1  0  0  0
 82161  1  0  0  0
 83 85  1  0  0  0
 83162  1  0  0  0
 83163  1  0  0  0
 83164  1  0  0  0
 84165  1  0  0  0
 84166  1  0  0  0
 85 86  1  0  0  0
 85167  1  0  0  0
 85168  1  0  0  0
 86 88  1  0  0  0
 86169  1  0  0  0
 86170  1  0  0  0
M  ISO  4   1 100  68 101  84 101  87 100
M  END
> <chiral flag>
0

> <version>
0

> <s_m_source_file>
/data/baiqing/PycharmProjects/Reinvent-master-3.2/result/LINK_invent/BTK/process_docking_weight1_custom_sum_contain_oxygen_bond_distance_aromatic_linkinvent_7_9_3/rearranged_h_0144.sdf

> <i_m_source_file_index>
96

> <r_mmod_Potential_Energy-OPLS-2005>
624.608459472656

> <r_mmod_Stretch_Energy-OPLS-2005>
204.032928466797

> <r_mmod_Bend_Energy-OPLS-2005>
273.847015380859

> <r_mmod_Torsional_Energy-OPLS-2005>
334.867034912109

> <r_mmod_Improper_Torsional_Energy-OPLS-2005>
6.98070907592773

> <r_mmod_Van_der_Waal_Energy-OPLS-2005>
155.185562133789

> <r_mmod_Electrostatic_Energy-OPLS-2005>
-304.893463134766

> <r_mmod_Solvation_Energy-OPLS-2005>
-196.789825439453

> <b_mmod_Minimization_Converged-OPLS-2005>
0

> <r_mmod_RMS_Derivative-OPLS-2005>
2.81849980354309

$$$$
97
                    3D
 Structure written by MMmdl.
164174  0  0  1  0            999 V2000
  -30.6380  -14.8536   20.4354 C   0  0  0  0  0  0
  -30.4188  -12.5357   19.4775 C   0  0  0  0  0  0
  -29.5003  -12.5062   18.2389 C   0  0  0  0  0  0
  -28.0374  -12.2967   18.6683 C   0  0  0  0  0  0
  -27.6222  -13.2324   19.8326 C   0  0  2  0  0  0
  -28.6725  -13.2797   20.9635 C   0  0  0  0  0  0
  -25.2449  -13.8179   20.5723 C   0  0  0  0  0  0
  -24.1756  -13.0422   20.9242 C   0  0  0  0  0  0
  -24.6360  -11.6905   20.8784 C   0  0  0  0  0  0
  -23.9051  -10.4281   21.0429 C   0  0  0  0  0  0
  -24.3609   -9.4196   21.9198 C   0  0  0  0  0  0
  -23.6287   -8.2230   22.0757 C   0  0  0  0  0  0
  -22.4270   -8.0272   21.3544 C   0  0  0  0  0  0
  -21.9907   -9.0246   20.4648 C   0  0  0  0  0  0
  -22.7231  -10.2128   20.3068 C   0  0  0  0  0  0
  -21.6848   -6.0730   22.5278 C   0  0  0  0  0  0
  -21.4007   -6.5635   23.8211 C   0  0  0  0  0  0
  -21.3661   -5.6789   24.9175 C   0  0  0  0  0  0
  -21.6046   -4.3052   24.7225 C   0  0  0  0  0  0
  -21.8820   -3.8144   23.4346 C   0  0  0  0  0  0
  -21.9189   -4.6959   22.3402 C   0  0  0  0  0  0
  -22.7782  -13.5210   21.1885 C   0  0  0  0  0  0
  -22.1659   -4.2144   21.0979 F   0  0  0  0  0  0
  -21.5636   -3.4537   25.7739 F   0  0  0  0  0  0
  -29.9534  -13.6486   20.3493 N   0  0  0  0  0  0
  -26.2850  -12.9375   20.3273 N   0  0  0  0  0  0
  -25.9286  -11.6525   20.5786 N   0  0  0  0  0  0
  -22.0427  -12.8203   22.0442 N   0  0  0  0  0  0
  -25.4119  -15.1901   20.4123 N   0  0  0  0  0  0
  -31.8517  -14.8262   20.2088 O   0  0  0  0  0  0
  -21.6634   -6.8870   21.4239 O   0  0  0  0  0  0
  -22.3474  -14.5514   20.6722 O   0  0  0  0  0  0
  -24.6368  -31.8502   23.1945 C   0  0  0  0  0  0
  -25.9171  -32.4726   23.8310 C   0  0  1  0  0  0
  -27.2123  -27.2001   20.1503 C   0  0  0  0  0  0
  -25.5941  -33.8530   24.2224 N   0  0  0  0  0  0
  -23.4371  -30.4715   21.5387 C   0  0  2  0  0  0
  -24.8851  -28.9079   20.1133 C   0  0  0  0  0  0
  -22.7534  -29.4574   22.4889 C   0  0  0  0  0  0
  -18.0299  -28.1386   22.8482 C   0  0  0  0  0  0
  -24.1490  -36.7267   23.2642 C   0  0  0  0  0  0
  -25.9884  -30.7441   21.3847 C   0  0  0  0  0  0
  -26.0600  -29.3611   20.7276 C   0  0  0  0  0  0
  -27.2290  -28.5227   20.7287 C   0  0  0  0  0  0
  -26.0187  -26.8351   19.4922 C   0  0  0  0  0  0
  -24.8730  -27.6555   19.4812 C   0  0  0  0  0  0
  -23.6597  -29.8036   20.1565 C   0  0  0  0  0  0
  -25.4121  -36.3048   24.0318 C   0  0  1  0  0  0
  -20.5907  -28.3705   23.1251 C   0  0  2  0  0  0
  -20.6782  -26.9413   22.5405 C   0  0  0  0  0  0
  -19.5755  -26.6376   21.5211 C   0  0  0  0  0  0
  -18.1937  -26.7927   22.1623 C   0  0  0  0  0  0
  -19.1555  -28.8864   23.2859 C   0  0  0  0  0  0
  -18.9474  -30.1463   23.8879 C   0  0  0  0  0  0
  -17.6471  -30.6587   24.0557 C   0  0  0  0  0  0
  -25.9066  -34.9420   23.5076 C   0  0  0  0  0  0
  -16.5360  -29.9080   23.6333 C   0  0  0  0  0  0
  -16.7285  -28.6498   23.0357 C   0  0  0  0  0  0
  -26.4514  -31.6579   25.0732 C   0  0  0  0  0  0
  -25.3713  -31.3744   26.1437 C   0  0  0  0  0  0
  -27.0383  -30.2986   24.6280 C   0  0  0  0  0  0
  -27.6046  -32.4353   25.7508 C   0  0  0  0  0  0
  -27.5580  -37.1785   24.8464 C   0  0  0  0  0  0
  -21.4235  -29.3041   22.3631 N   0  0  0  0  0  0
  -26.4289  -37.3757   23.9412 N   0  0  0  0  0  0
  -24.7067  -31.0414   22.0949 N   0  0  0  0  0  0
  -23.4208  -28.8120   23.3016 O   0  0  0  0  0  0
  -28.2799  -26.2555   20.1773 O   0  0  0  0  0  0
  -26.5649  -34.8904   22.4653 O   0  0  0  0  0  0
  -23.5503  -32.1354   23.7200 O   0  0  0  0  0  0
  -28.7057  -22.1233   20.5563 C   0  0  0  0  0  0
  -29.3474  -20.8813   20.0456 C   0  0  0  0  0  0
  -30.0912  -21.1875   18.9026 C   0  0  0  0  0  0
  -30.2043  -22.4917   18.3179 C   0  0  0  0  0  0
  -28.8007  -23.5053   19.9764 C   0  0  0  0  0  0
  -29.5899  -23.6563   18.7935 C   0  0  0  0  0  0
  -30.9638  -20.5507   17.8474 C   0  0  0  0  0  0
  -31.0863  -22.0067   17.1947 C   0  0  0  0  0  0
  -28.7613  -18.2314   19.6256 C   0  0  0  0  0  0
  -30.6771  -18.6981   20.9804 C   0  0  0  0  0  0
  -28.7814  -16.6867   20.0816 C   0  0  0  0  0  0
  -30.6813  -17.1880   21.5041 C   0  0  0  0  0  0
  -29.3013  -19.3483   20.5993 C   0  0  0  0  0  0
  -29.7633  -24.9668   18.0490 C   0  0  0  0  0  0
  -28.0006  -24.7951   20.5556 C   0  0  0  0  0  0
  -30.0198  -16.1060   20.6962 N   0  0  0  0  0  0
  -31.4561  -12.6553   19.1606 H   0  0  0  0  0  0
  -30.3803  -11.5859   20.0132 H   0  0  0  0  0  0
  -29.8075  -11.7132   17.5557 H   0  0  0  0  0  0
  -29.5929  -13.4424   17.6860 H   0  0  0  0  0  0
  -27.9333  -11.2568   18.9790 H   0  0  0  0  0  0
  -27.3683  -12.4280   17.8172 H   0  0  0  0  0  0
  -27.5673  -14.2196   19.3857 H   0  0  0  0  0  0
  -28.7466  -12.3186   21.4740 H   0  0  0  0  0  0
  -28.3873  -14.0142   21.7186 H   0  0  0  0  0  0
  -25.2751   -9.5674   22.4777 H   0  0  0  0  0  0
  -23.9998   -7.4619   22.7475 H   0  0  0  0  0  0
  -21.0842   -8.8767   19.8948 H   0  0  0  0  0  0
  -22.3691  -10.9674   19.6185 H   0  0  0  0  0  0
  -21.1994   -7.6142   23.9713 H   0  0  0  0  0  0
  -21.1487   -6.0519   25.9078 H   0  0  0  0  0  0
  -22.0598   -2.7606   23.2847 H   0  0  0  0  0  0
  -22.4046  -11.9866   22.4831 H   0  0  0  0  0  0
  -21.1045  -13.1228   22.2648 H   0  0  0  0  0  0
  -24.6442  -15.8431   20.5265 H   0  0  0  0  0  0
  -26.2618  -15.6307   20.0871 H   0  0  0  0  0  0
  -26.7236  -32.5352   23.1043 H   0  0  0  0  0  0
  -25.0066  -33.9658   25.0355 H   0  0  0  0  0  0
  -22.7359  -31.2950   21.3888 H   0  0  0  0  0  0
  -23.3756  -35.9594   23.3292 H   0  0  0  0  0  0
  -24.3575  -36.8917   22.2060 H   0  0  0  0  0  0
  -23.7240  -37.6456   23.6689 H   0  0  0  0  0  0
  -26.1374  -31.5022   20.6146 H   0  0  0  0  0  0
  -26.8611  -30.7918   22.0242 H   0  0  0  0  0  0
  -28.1287  -28.8647   21.2211 H   0  0  0  0  0  0
  -25.9547  -25.8829   18.9861 H   0  0  0  0  0  0
  -23.9769  -27.3070   18.9861 H   0  0  0  0  0  0
  -23.7923  -30.5793   19.4014 H   0  0  0  0  0  0
  -22.7758  -29.2429   19.8478 H   0  0  0  0  0  0
  -25.1306  -36.1880   25.0810 H   0  0  0  0  0  0
  -21.0001  -28.3288   24.1371 H   0  0  0  0  0  0
  -20.5678  -26.2314   23.3617 H   0  0  0  0  0  0
  -21.6648  -26.7422   22.1202 H   0  0  0  0  0  0
  -19.6912  -25.6283   21.1252 H   0  0  0  0  0  0
  -19.6693  -27.3173   20.6732 H   0  0  0  0  0  0
  -17.4208  -26.6677   21.4026 H   0  0  0  0  0  0
  -18.0331  -26.0071   22.9021 H   0  0  0  0  0  0
  -19.7950  -30.7282   24.2239 H   0  0  0  0  0  0
  -17.5024  -31.6265   24.5161 H   0  0  0  0  0  0
  -15.5358  -30.2974   23.7667 H   0  0  0  0  0  0
  -15.8686  -28.0808   22.7082 H   0  0  0  0  0  0
  -24.5887  -30.7101   25.7754 H   0  0  0  0  0  0
  -24.8903  -32.2918   26.4840 H   0  0  0  0  0  0
  -25.8009  -30.8928   27.0230 H   0  0  0  0  0  0
  -26.2996  -29.6710   24.1283 H   0  0  0  0  0  0
  -27.4013  -29.7282   25.4840 H   0  0  0  0  0  0
  -27.8893  -30.4243   23.9583 H   0  0  0  0  0  0
  -27.2634  -33.3666   26.2042 H   0  0  0  0  0  0
  -28.3868  -32.6904   25.0346 H   0  0  0  0  0  0
  -28.0703  -31.8520   26.5461 H   0  0  0  0  0  0
  -28.2578  -38.0099   24.7526 H   0  0  0  0  0  0
  -28.1093  -36.2628   24.6275 H   0  0  0  0  0  0
  -27.2295  -37.1415   25.8865 H   0  0  0  0  0  0
  -20.9432  -29.8763   21.6825 H   0  0  0  0  0  0
  -26.0156  -38.2822   24.1433 H   0  0  0  0  0  0
  -28.0925  -22.0175   21.4404 H   0  0  0  0  0  0
  -30.4304  -19.8296   17.2278 H   0  0  0  0  0  0
  -31.9012  -20.1609   18.2445 H   0  0  0  0  0  0
  -32.0884  -22.4352   17.2295 H   0  0  0  0  0  0
  -30.6143  -22.1051   16.2167 H   0  0  0  0  0  0
  -27.7415  -18.4919   19.3402 H   0  0  0  0  0  0
  -29.3327  -18.2920   18.6994 H   0  0  0  0  0  0
  -31.3398  -18.7475   20.1165 H   0  0  0  0  0  0
  -31.1516  -19.3242   21.7370 H   0  0  0  0  0  0
  -28.5369  -16.1016   19.1973 H   0  0  0  0  0  0
  -27.9741  -16.5250   20.7961 H   0  0  0  0  0  0
  -30.1958  -17.1737   22.4806 H   0  0  0  0  0  0
  -31.7162  -16.9080   21.7061 H   0  0  0  0  0  0
  -28.6708  -19.3584   21.4890 H   0  0  0  0  0  0
  -30.3151  -24.8222   17.1200 H   0  0  0  0  0  0
  -30.3173  -25.6826   18.6566 H   0  0  0  0  0  0
  -28.7957  -25.3989   17.7919 H   0  0  0  0  0  0
  -28.1341  -24.7546   21.6368 H   0  0  0  0  0  0
  -26.9462  -24.5653   20.4143 H   0  0  0  0  0  0
  1 25  1  0  0  0
  1 30  2  0  0  0
  1 86  1  0  0  0
  2  3  1  0  0  0
  2 25  1  0  0  0
  2 87  1  0  0  0
  2 88  1  0  0  0
  3  4  1  0  0  0
  3 89  1  0  0  0
  3 90  1  0  0  0
  4  5  1  0  0  0
  4 91  1  0  0  0
  4 92  1  0  0  0
  5  6  1  0  0  0
  5 26  1  0  0  0
  5 93  1  0  0  0
  6 25  1  0  0  0
  6 94  1  0  0  0
  6 95  1  0  0  0
  7  8  2  0  0  0
  7 26  1  0  0  0
  7 29  1  0  0  0
  8  9  1  0  0  0
  8 22  1  0  0  0
  9 10  1  0  0  0
  9 27  2  0  0  0
 10 11  2  0  0  0
 10 15  1  0  0  0
 11 12  1  0  0  0
 11 96  1  0  0  0
 12 13  2  0  0  0
 12 97  1  0  0  0
 13 14  1  0  0  0
 13 31  1  0  0  0
 14 15  2  0  0  0
 14 98  1  0  0  0
 15 99  1  0  0  0
 16 17  2  0  0  0
 16 21  1  0  0  0
 16 31  1  0  0  0
 17 18  1  0  0  0
 17100  1  0  0  0
 18 19  2  0  0  0
 18101  1  0  0  0
 19 20  1  0  0  0
 19 24  1  0  0  0
 20 21  2  0  0  0
 20102  1  0  0  0
 21 23  1  0  0  0
 22 28  1  0  0  0
 22 32  2  0  0  0
 26 27  1  0  0  0
 28103  1  0  0  0
 28104  1  0  0  0
 29105  1  0  0  0
 29106  1  0  0  0
 33 34  1  0  0  0
 33 66  1  0  0  0
 33 70  2  0  0  0
 34 36  1  0  0  0
 34 59  1  0  0  0
 34107  1  0  0  0
 35 44  2  0  0  0
 35 45  1  0  0  0
 35 68  1  0  0  0
 36 56  1  0  0  0
 36108  1  0  0  0
 37 39  1  0  0  0
 37 47  1  0  0  0
 37 66  1  0  0  0
 37109  1  0  0  0
 38 43  2  0  0  0
 38 46  1  0  0  0
 38 47  1  0  0  0
 39 64  1  0  0  0
 39 67  2  0  0  0
 40 52  1  0  0  0
 40 53  2  0  0  0
 40 58  1  0  0  0
 41110  1  0  0  0
 41111  1  0  0  0
 41112  1  0  0  0
 41 48  1  0  0  0
 42 43  1  0  0  0
 42 66  1  0  0  0
 42113  1  0  0  0
 42114  1  0  0  0
 43 44  1  0  0  0
 44115  1  0  0  0
 45 46  2  0  0  0
 45116  1  0  0  0
 46117  1  0  0  0
 47118  1  0  0  0
 47119  1  0  0  0
 48 56  1  0  0  0
 48 65  1  0  0  0
 48120  1  0  0  0
 49 50  1  0  0  0
 49 53  1  0  0  0
 49 64  1  0  0  0
 49121  1  0  0  0
 50 51  1  0  0  0
 50122  1  0  0  0
 50123  1  0  0  0
 51 52  1  0  0  0
 51124  1  0  0  0
 51125  1  0  0  0
 52126  1  0  0  0
 52127  1  0  0  0
 53 54  1  0  0  0
 54 55  2  0  0  0
 54128  1  0  0  0
 55 57  1  0  0  0
 55129  1  0  0  0
 56 69  2  0  0  0
 57 58  2  0  0  0
 57130  1  0  0  0
 58131  1  0  0  0
 59 60  1  0  0  0
 59 61  1  0  0  0
 59 62  1  0  0  0
 60132  1  0  0  0
 60133  1  0  0  0
 60134  1  0  0  0
 61135  1  0  0  0
 61136  1  0  0  0
 61137  1  0  0  0
 62138  1  0  0  0
 62139  1  0  0  0
 62140  1  0  0  0
 63 65  1  0  0  0
 63141  1  0  0  0
 63142  1  0  0  0
 63143  1  0  0  0
 64144  1  0  0  0
 65145  1  0  0  0
 68 85  1  0  0  0
 71 72  2  0  0  0
 71 75  1  0  0  0
 71146  1  0  0  0
 72 73  1  0  0  0
 72 83  1  0  0  0
 73 74  2  0  0  0
 73 77  1  0  0  0
 74 76  1  0  0  0
 74 78  1  0  0  0
 75 76  2  0  0  0
 75 85  1  0  0  0
 76 84  1  0  0  0
 77 78  1  0  0  0
 77147  1  0  0  0
 77148  1  0  0  0
 78149  1  0  0  0
 78150  1  0  0  0
 79 81  1  0  0  0
 79 83  1  0  0  0
 79151  1  0  0  0
 79152  1  0  0  0
 80 82  1  0  0  0
 80 83  1  0  0  0
 80153  1  0  0  0
 80154  1  0  0  0
 81 86  1  0  0  0
 81155  1  0  0  0
 81156  1  0  0  0
 82 86  1  0  0  0
 82157  1  0  0  0
 82158  1  0  0  0
 83159  1  0  0  0
 84160  1  0  0  0
 84161  1  0  0  0
 84162  1  0  0  0
 85163  1  0  0  0
 85164  1  0  0  0
M  ISO  4   1 100  68 101  85 101  86 100
M  END
> <chiral flag>
0

> <version>
0

> <s_m_source_file>
/data/baiqing/PycharmProjects/Reinvent-master-3.2/result/LINK_invent/BTK/process_docking_weight1_custom_sum_contain_oxygen_bond_distance_aromatic_linkinvent_7_9_3/rearranged_h_0144.sdf

> <i_m_source_file_index>
97

> <r_mmod_Potential_Energy-OPLS-2005>
909.832275390625

> <r_mmod_Stretch_Energy-OPLS-2005>
197.216064453125

> <r_mmod_Bend_Energy-OPLS-2005>
581.659912109375

> <r_mmod_Torsional_Energy-OPLS-2005>
349.433807373047

> <r_mmod_Improper_Torsional_Energy-OPLS-2005>
2.14070153236389

> <r_mmod_Van_der_Waal_Energy-OPLS-2005>
131.917236328125

> <r_mmod_Electrostatic_Energy-OPLS-2005>
-293.532623291016

> <r_mmod_Solvation_Energy-OPLS-2005>
-197.838195800781

> <b_mmod_Minimization_Converged-OPLS-2005>
0

> <r_mmod_RMS_Derivative-OPLS-2005>
0.485026180744171

$$$$
98
                    3D
 Structure written by MMmdl.
170179  0  0  1  0            999 V2000
  -30.7548  -14.6036   20.5140 C   0  0  0  0  0  0
  -30.3917  -12.3934   19.4516 C   0  0  0  0  0  0
  -29.4866  -12.4745   18.2111 C   0  0  0  0  0  0
  -28.0172  -12.3124   18.6335 C   0  0  0  0  0  0
  -27.6377  -13.2169   19.8363 C   0  0  2  0  0  0
  -28.6850  -13.1474   20.9714 C   0  0  0  0  0  0
  -25.2613  -13.8246   20.5665 C   0  0  0  0  0  0
  -24.1875  -13.0539   20.9284 C   0  0  0  0  0  0
  -24.6377  -11.6974   20.8794 C   0  0  0  0  0  0
  -23.9039  -10.4354   21.0438 C   0  0  0  0  0  0
  -24.3606   -9.4255   21.9197 C   0  0  0  0  0  0
  -23.6302   -8.2274   22.0750 C   0  0  0  0  0  0
  -22.4288   -8.0304   21.3534 C   0  0  0  0  0  0
  -21.9919   -9.0285   20.4642 C   0  0  0  0  0  0
  -22.7226  -10.2180   20.3070 C   0  0  0  0  0  0
  -21.6864   -6.0752   22.5276 C   0  0  0  0  0  0
  -21.4019   -6.5653   23.8213 C   0  0  0  0  0  0
  -21.3654   -5.6800   24.9176 C   0  0  0  0  0  0
  -21.6040   -4.3062   24.7223 C   0  0  0  0  0  0
  -21.8820   -3.8156   23.4343 C   0  0  0  0  0  0
  -21.9200   -4.6977   22.3403 C   0  0  0  0  0  0
  -22.7898  -13.5339   21.1892 C   0  0  0  0  0  0
  -22.1671   -4.2166   21.0980 F   0  0  0  0  0  0
  -21.5619   -3.4538   25.7732 F   0  0  0  0  0  0
  -29.9741  -13.4849   20.3678 N   0  0  0  0  0  0
  -26.2919  -12.9349   20.3176 N   0  0  0  0  0  0
  -25.9278  -11.6545   20.5728 N   0  0  0  0  0  0
  -22.0466  -12.8340   22.0381 N   0  0  0  0  0  0
  -25.4628  -15.1997   20.3854 N   0  0  0  0  0  0
  -31.9529  -14.4931   20.2405 O   0  0  0  0  0  0
  -21.6657   -6.8889   21.4230 O   0  0  0  0  0  0
  -22.3697  -14.5687   20.6728 O   0  0  0  0  0  0
  -24.6235  -31.8625   23.2043 C   0  0  0  0  0  0
  -25.9088  -32.4791   23.8366 C   0  0  1  0  0  0
  -27.2086  -27.3189   20.1167 C   0  0  0  0  0  0
  -25.5904  -33.8601   24.2283 N   0  0  0  0  0  0
  -23.4152  -30.4916   21.5496 C   0  0  2  0  0  0
  -24.8582  -28.9510   20.1099 C   0  0  0  0  0  0
  -22.7447  -29.4639   22.4934 C   0  0  0  0  0  0
  -18.0294  -28.1382   22.8519 C   0  0  0  0  0  0
  -24.1476  -36.7306   23.2643 C   0  0  0  0  0  0
  -25.9591  -30.7916   21.3774 C   0  0  0  0  0  0
  -26.0269  -29.4205   20.7201 C   0  0  0  0  0  0
  -27.2008  -28.6135   20.7194 C   0  0  0  0  0  0
  -26.0184  -26.9163   19.4600 C   0  0  0  0  0  0
  -24.8576  -27.7060   19.4700 C   0  0  0  0  0  0
  -23.6281  -29.8311   20.1640 C   0  0  0  0  0  0
  -25.4100  -36.3098   24.0335 C   0  0  1  0  0  0
  -20.5899  -28.3669   23.1293 C   0  0  2  0  0  0
  -20.6786  -26.9396   22.5414 C   0  0  0  0  0  0
  -19.5744  -26.6382   21.5233 C   0  0  0  0  0  0
  -18.1921  -26.7937   22.1652 C   0  0  0  0  0  0
  -19.1553  -28.8846   23.2905 C   0  0  0  0  0  0
  -18.9472  -30.1464   23.8897 C   0  0  0  0  0  0
  -17.6465  -30.6588   24.0576 C   0  0  0  0  0  0
  -25.9046  -34.9464   23.5108 C   0  0  0  0  0  0
  -16.5357  -29.9086   23.6341 C   0  0  0  0  0  0
  -16.7281  -28.6508   23.0354 C   0  0  0  0  0  0
  -26.4474  -31.6609   25.0746 C   0  0  0  0  0  0
  -25.3710  -31.3762   26.1474 C   0  0  0  0  0  0
  -27.0303  -30.3028   24.6202 C   0  0  0  0  0  0
  -27.6032  -32.4351   25.7515 C   0  0  0  0  0  0
  -27.5571  -37.1810   24.8466 C   0  0  0  0  0  0
  -21.4166  -29.3030   22.3669 N   0  0  0  0  0  0
  -26.4280  -37.3785   23.9415 N   0  0  0  0  0  0
  -24.6857  -31.0648   22.0999 N   0  0  0  0  0  0
  -23.4181  -28.8132   23.2969 O   0  0  0  0  0  0
  -28.3348  -26.4868   20.2035 O   0  0  0  0  0  0
  -26.5621  -34.8923   22.4679 O   0  0  0  0  0  0
  -23.5408  -32.1417   23.7385 O   0  0  0  0  0  0
  -28.0846  -18.9911   21.3457 C   0  0  0  0  0  0
  -30.1857  -20.2804   21.7666 C   0  0  0  0  0  0
  -28.3572  -17.6432   21.2761 C   0  0  0  0  0  0
  -28.9418  -20.2065   21.2256 C   0  0  0  0  0  0
  -29.0459  -16.4659   21.0538 C   0  0  0  0  0  0
  -32.1873  -17.2926   21.4409 C   0  0  0  0  0  0
  -32.2320  -18.7731   21.8498 C   0  0  0  0  0  0
  -31.2228  -16.9952   20.2671 C   0  0  0  0  0  0
  -30.9379  -19.2224   22.5747 C   0  0  1  0  0  0
  -32.0354  -20.9235   24.2169 C   0  0  0  0  0  0
  -29.8656  -19.7815   24.8300 C   0  0  0  0  0  0
  -28.8713  -23.9622   20.7810 C   0  0  0  0  0  0
  -28.2745  -25.0615   19.8127 C   0  0  0  0  0  0
  -29.0848  -22.5071   20.1706 C   0  0  0  0  0  0
  -31.1850  -19.6511   24.0485 C   0  0  0  0  0  0
  -30.2701  -15.9078   20.5846 N   0  0  0  0  0  0
  -27.7893  -16.3214   21.4036 N   0  3  0  0  0  0
  -28.3283  -21.3547   20.6870 O   0  0  0  0  0  0
  -31.4345  -12.4491   19.1371 H   0  0  0  0  0  0
  -30.2918  -11.4200   19.9353 H   0  0  0  0  0  0
  -29.7595  -11.7056   17.4861 H   0  0  0  0  0  0
  -29.6266  -13.4303   17.7068 H   0  0  0  0  0  0
  -27.8729  -11.2651   18.9018 H   0  0  0  0  0  0
  -27.3562  -12.5078   17.7879 H   0  0  0  0  0  0
  -27.6374  -14.2314   19.4391 H   0  0  0  0  0  0
  -28.7166  -12.1433   21.3973 H   0  0  0  0  0  0
  -28.4462  -13.8090   21.8004 H   0  0  0  0  0  0
  -25.2756   -9.5752   22.4761 H   0  0  0  0  0  0
  -24.0024   -7.4670   22.7474 H   0  0  0  0  0  0
  -21.0848   -8.8799   19.8947 H   0  0  0  0  0  0
  -22.3674  -10.9711   19.6176 H   0  0  0  0  0  0
  -21.2013   -7.6160   23.9722 H   0  0  0  0  0  0
  -21.1468   -6.0529   25.9079 H   0  0  0  0  0  0
  -22.0602   -2.7619   23.2840 H   0  0  0  0  0  0
  -22.4015  -11.9967   22.4752 H   0  0  0  0  0  0
  -21.1058  -13.1366   22.2485 H   0  0  0  0  0  0
  -24.5590  -15.6297   20.5790 H   0  0  0  0  0  0
  -25.5845  -15.3040   19.3778 H   0  0  0  0  0  0
  -26.7146  -32.5457   23.1109 H   0  0  0  0  0  0
  -25.0038  -33.9754   25.0418 H   0  0  0  0  0  0
  -22.7108  -31.3161   21.4112 H   0  0  0  0  0  0
  -23.3734  -35.9643   23.3311 H   0  0  0  0  0  0
  -24.3574  -36.8924   22.2059 H   0  0  0  0  0  0
  -23.7236  -37.6513   23.6662 H   0  0  0  0  0  0
  -26.0924  -31.5507   20.6057 H   0  0  0  0  0  0
  -26.8412  -30.8350   22.0040 H   0  0  0  0  0  0
  -28.0935  -28.9686   21.2144 H   0  0  0  0  0  0
  -25.9231  -25.9868   18.9238 H   0  0  0  0  0  0
  -23.9657  -27.3486   18.9745 H   0  0  0  0  0  0
  -23.7425  -30.6106   19.4110 H   0  0  0  0  0  0
  -22.7455  -29.2649   19.8609 H   0  0  0  0  0  0
  -25.1278  -36.1944   25.0830 H   0  0  0  0  0  0
  -21.0033  -28.3235   24.1394 H   0  0  0  0  0  0
  -20.5690  -26.2263   23.3598 H   0  0  0  0  0  0
  -21.6648  -26.7405   22.1193 H   0  0  0  0  0  0
  -19.6877  -25.6288   21.1246 H   0  0  0  0  0  0
  -19.6698  -27.3222   20.6789 H   0  0  0  0  0  0
  -17.4201  -26.6724   21.4038 H   0  0  0  0  0  0
  -18.0288  -26.0077   22.9040 H   0  0  0  0  0  0
  -19.7933  -30.7316   24.2235 H   0  0  0  0  0  0
  -17.5005  -31.6274   24.5172 H   0  0  0  0  0  0
  -15.5351  -30.2982   23.7666 H   0  0  0  0  0  0
  -15.8684  -28.0832   22.7038 H   0  0  0  0  0  0
  -24.5897  -30.7076   25.7827 H   0  0  0  0  0  0
  -24.8884  -32.2942   26.4849 H   0  0  0  0  0  0
  -25.8046  -30.9000   27.0277 H   0  0  0  0  0  0
  -26.2882  -29.6787   24.1204 H   0  0  0  0  0  0
  -27.3971  -29.7255   25.4701 H   0  0  0  0  0  0
  -27.8756  -30.4328   23.9439 H   0  0  0  0  0  0
  -27.2635  -33.3659   26.2069 H   0  0  0  0  0  0
  -28.3850  -32.6908   25.0348 H   0  0  0  0  0  0
  -28.0680  -31.8497   26.5458 H   0  0  0  0  0  0
  -28.2602  -38.0096   24.7505 H   0  0  0  0  0  0
  -28.1048  -36.2632   24.6287 H   0  0  0  0  0  0
  -27.2297  -37.1454   25.8871 H   0  0  0  0  0  0
  -20.9296  -29.8745   21.6907 H   0  0  0  0  0  0
  -26.0150  -38.2850   24.1425 H   0  0  0  0  0  0
  -27.0649  -19.2085   21.6309 H   0  0  0  0  0  0
  -30.7320  -21.2090   21.7290 H   0  0  0  0  0  0
  -31.9360  -16.6993   22.3213 H   0  0  0  0  0  0
  -33.1918  -16.9685   21.1615 H   0  0  0  0  0  0
  -32.4426  -19.3967   20.9779 H   0  0  0  0  0  0
  -33.0936  -18.9077   22.5050 H   0  0  0  0  0  0
  -31.7965  -16.7739   19.3642 H   0  0  0  0  0  0
  -30.6635  -17.8881   19.9923 H   0  0  0  0  0  0
  -30.3092  -18.3444   22.6780 H   0  0  0  0  0  0
  -33.0021  -20.8369   23.7209 H   0  0  0  0  0  0
  -32.2402  -21.1138   25.2715 H   0  0  0  0  0  0
  -31.5308  -21.8064   23.8268 H   0  0  0  0  0  0
  -29.2761  -18.8652   24.7721 H   0  0  0  0  0  0
  -29.2471  -20.5960   24.4517 H   0  0  0  0  0  0
  -30.0531  -19.9777   25.8854 H   0  0  0  0  0  0
  -28.2512  -23.8974   21.6752 H   0  0  0  0  0  0
  -29.8404  -24.3255   21.1254 H   0  0  0  0  0  0
  -27.2681  -24.7092   19.6299 H   0  0  0  0  0  0
  -28.7893  -24.9944   18.8541 H   0  0  0  0  0  0
  -30.1500  -22.3048   20.0676 H   0  0  0  0  0  0
  -28.7700  -22.5632   19.1291 H   0  0  0  0  0  0
  -31.7381  -18.8362   24.5195 H   0  0  0  0  0  0
  -26.9108  -16.0830   20.9207 H   0  0  0  0  0  0
  1 25  1  0  0  0
  1 30  2  0  0  0
  1 86  1  0  0  0
  2  3  1  0  0  0
  2 25  1  0  0  0
  2 89  1  0  0  0
  2 90  1  0  0  0
  3  4  1  0  0  0
  3 91  1  0  0  0
  3 92  1  0  0  0
  4  5  1  0  0  0
  4 93  1  0  0  0
  4 94  1  0  0  0
  5  6  1  0  0  0
  5 26  1  0  0  0
  5 95  1  0  0  0
  6 25  1  0  0  0
  6 96  1  0  0  0
  6 97  1  0  0  0
  7  8  2  0  0  0
  7 26  1  0  0  0
  7 29  1  0  0  0
  8  9  1  0  0  0
  8 22  1  0  0  0
  9 10  1  0  0  0
  9 27  2  0  0  0
 10 11  2  0  0  0
 10 15  1  0  0  0
 11 12  1  0  0  0
 11 98  1  0  0  0
 12 13  2  0  0  0
 12 99  1  0  0  0
 13 14  1  0  0  0
 13 31  1  0  0  0
 14 15  2  0  0  0
 14100  1  0  0  0
 15101  1  0  0  0
 16 17  2  0  0  0
 16 21  1  0  0  0
 16 31  1  0  0  0
 17 18  1  0  0  0
 17102  1  0  0  0
 18 19  2  0  0  0
 18103  1  0  0  0
 19 20  1  0  0  0
 19 24  1  0  0  0
 20 21  2  0  0  0
 20104  1  0  0  0
 21 23  1  0  0  0
 22 28  1  0  0  0
 22 32  2  0  0  0
 26 27  1  0  0  0
 28105  1  0  0  0
 28106  1  0  0  0
 29107  1  0  0  0
 29108  1  0  0  0
 33 34  1  0  0  0
 33 66  1  0  0  0
 33 70  2  0  0  0
 34 36  1  0  0  0
 34 59  1  0  0  0
 34109  1  0  0  0
 35 44  2  0  0  0
 35 45  1  0  0  0
 35 68  1  0  0  0
 36 56  1  0  0  0
 36110  1  0  0  0
 37 39  1  0  0  0
 37 47  1  0  0  0
 37 66  1  0  0  0
 37111  1  0  0  0
 38 43  2  0  0  0
 38 46  1  0  0  0
 38 47  1  0  0  0
 39 64  1  0  0  0
 39 67  2  0  0  0
 40 52  1  0  0  0
 40 53  2  0  0  0
 40 58  1  0  0  0
 41112  1  0  0  0
 41113  1  0  0  0
 41114  1  0  0  0
 41 48  1  0  0  0
 42 43  1  0  0  0
 42 66  1  0  0  0
 42115  1  0  0  0
 42116  1  0  0  0
 43 44  1  0  0  0
 44117  1  0  0  0
 45 46  2  0  0  0
 45118  1  0  0  0
 46119  1  0  0  0
 47120  1  0  0  0
 47121  1  0  0  0
 48 56  1  0  0  0
 48 65  1  0  0  0
 48122  1  0  0  0
 49 50  1  0  0  0
 49 53  1  0  0  0
 49 64  1  0  0  0
 49123  1  0  0  0
 50 51  1  0  0  0
 50124  1  0  0  0
 50125  1  0  0  0
 51 52  1  0  0  0
 51126  1  0  0  0
 51127  1  0  0  0
 52128  1  0  0  0
 52129  1  0  0  0
 53 54  1  0  0  0
 54 55  2  0  0  0
 54130  1  0  0  0
 55 57  1  0  0  0
 55131  1  0  0  0
 56 69  2  0  0  0
 57 58  2  0  0  0
 57132  1  0  0  0
 58133  1  0  0  0
 59 60  1  0  0  0
 59 61  1  0  0  0
 59 62  1  0  0  0
 60134  1  0  0  0
 60135  1  0  0  0
 60136  1  0  0  0
 61137  1  0  0  0
 61138  1  0  0  0
 61139  1  0  0  0
 62140  1  0  0  0
 62141  1  0  0  0
 62142  1  0  0  0
 63 65  1  0  0  0
 63143  1  0  0  0
 63144  1  0  0  0
 63145  1  0  0  0
 64146  1  0  0  0
 65147  1  0  0  0
 68 83  1  0  0  0
 71 73  2  0  0  0
 71 74  1  0  0  0
 71148  1  0  0  0
 72 74  2  0  0  0
 72 79  1  0  0  0
 72149  1  0  0  0
 73 75  1  0  0  0
 73 87  1  0  0  0
 74 88  1  0  0  0
 75 86  1  0  0  0
 75 87  2  0  0  0
 76 77  1  0  0  0
 76 78  1  0  0  0
 76150  1  0  0  0
 76151  1  0  0  0
 77152  1  0  0  0
 77153  1  0  0  0
 77 79  1  0  0  0
 78 86  1  0  0  0
 78154  1  0  0  0
 78155  1  0  0  0
 79 85  1  0  0  0
 79156  1  0  0  0
 80157  1  0  0  0
 80158  1  0  0  0
 80159  1  0  0  0
 80 85  1  0  0  0
 81 85  1  0  0  0
 81160  1  0  0  0
 81161  1  0  0  0
 81162  1  0  0  0
 82 83  1  0  0  0
 82 84  1  0  0  0
 82163  1  0  0  0
 82164  1  0  0  0
 83165  1  0  0  0
 83166  1  0  0  0
 84 88  1  0  0  0
 84167  1  0  0  0
 84168  1  0  0  0
 85169  1  0  0  0
 87170  1  0  0  0
M  CHG  1  87   1
M  ISO  4   1 100  68 101  83 101  86 100
M  END
> <chiral flag>
0

> <version>
0

> <s_m_source_file>
/data/baiqing/PycharmProjects/Reinvent-master-3.2/result/LINK_invent/BTK/process_docking_weight1_custom_sum_contain_oxygen_bond_distance_aromatic_linkinvent_7_9_3/rearranged_h_0144.sdf

> <i_m_source_file_index>
98

> <r_mmod_Potential_Energy-OPLS-2005>
409.107757568359

> <r_mmod_Stretch_Energy-OPLS-2005>
86.8903045654297

> <r_mmod_Bend_Energy-OPLS-2005>
585.158325195312

> <r_mmod_Torsional_Energy-OPLS-2005>
391.047790527344

> <r_mmod_Improper_Torsional_Energy-OPLS-2005>
27.3082714080811

> <r_mmod_Van_der_Waal_Energy-OPLS-2005>
161.837615966797

> <r_mmod_Electrostatic_Energy-OPLS-2005>
-443.963165283203

> <r_mmod_Solvation_Energy-OPLS-2005>
-460.144714355469

> <b_mmod_Minimization_Converged-OPLS-2005>
0

> <r_mmod_RMS_Derivative-OPLS-2005>
3.23679614067078

$$$$
